0
                    3D
 Structure written by MMmdl.
155163  0  0  1  0            999 V2000
  -30.6961  -14.4488   20.6156 C   0  0  0  0  0  0
  -30.4323  -12.3088   19.4069 C   0  0  0  0  0  0
  -29.4953  -12.5241   18.2002 C   0  0  0  0  0  0
  -28.0151  -12.3838   18.6127 C   0  0  0  0  0  0
  -27.6666  -13.2041   19.8831 C   0  0  2  0  0  0
  -28.7073  -12.9423   20.9940 C   0  0  0  0  0  0
  -25.2573  -13.8135   20.5655 C   0  0  0  0  0  0
  -24.1819  -13.0410   20.9120 C   0  0  0  0  0  0
  -24.6388  -11.6888   20.8709 C   0  0  0  0  0  0
  -23.9051  -10.4276   21.0387 C   0  0  0  0  0  0
  -24.3608   -9.4201   21.9172 C   0  0  0  0  0  0
  -23.6291   -8.2234   22.0748 C   0  0  0  0  0  0
  -22.4268   -8.0273   21.3538 C   0  0  0  0  0  0
  -21.9893   -9.0238   20.4639 C   0  0  0  0  0  0
  -22.7220  -10.2115   20.3039 C   0  0  0  0  0  0
  -21.6848   -6.0731   22.5285 C   0  0  0  0  0  0
  -21.4008   -6.5636   23.8217 C   0  0  0  0  0  0
  -21.3659   -5.6788   24.9181 C   0  0  0  0  0  0
  -21.6051   -4.3053   24.7229 C   0  0  0  0  0  0
  -21.8816   -3.8141   23.4348 C   0  0  0  0  0  0
  -21.9190   -4.6959   22.3406 C   0  0  0  0  0  0
  -22.7851  -13.5220   21.1823 C   0  0  0  0  0  0
  -22.1662   -4.2147   21.0984 F   0  0  0  0  0  0
  -21.5633   -3.4534   25.7738 F   0  0  0  0  0  0
  -30.0440  -13.2646   20.4548 N   0  0  0  0  0  0
  -26.3048  -12.9323   20.3409 N   0  0  0  0  0  0
  -25.9324  -11.6479   20.5771 N   0  0  0  0  0  0
  -22.0502  -12.8221   22.0398 N   0  0  0  0  0  0
  -25.4244  -15.1851   20.4142 N   0  0  0  0  0  0
  -31.7901  -14.6953   20.0976 O   0  0  0  0  0  0
  -21.6638   -6.8868   21.4240 O   0  0  0  0  0  0
  -22.3524  -14.5532   20.6692 O   0  0  0  0  0  0
  -24.6132  -31.8689   23.2091 C   0  0  0  0  0  0
  -25.9035  -32.4820   23.8386 C   0  0  1  0  0  0
  -27.2500  -27.4465   20.0840 C   0  0  0  0  0  0
  -25.5885  -33.8614   24.2320 N   0  0  0  0  0  0
  -23.3998  -30.4920   21.5491 C   0  0  2  0  0  0
  -24.8467  -28.9539   20.1172 C   0  0  0  0  0  0
  -22.7401  -29.4670   22.4988 C   0  0  0  0  0  0
  -18.0273  -28.1379   22.8496 C   0  0  0  0  0  0
  -24.1480  -36.7325   23.2633 C   0  0  0  0  0  0
  -25.9267  -30.8363   21.3603 C   0  0  0  0  0  0
  -26.0042  -29.4703   20.7096 C   0  0  0  0  0  0
  -27.2019  -28.7224   20.6919 C   0  0  0  0  0  0
  -26.0620  -26.9294   19.5130 C   0  0  0  0  0  0
  -24.8694  -27.6813   19.5210 C   0  0  0  0  0  0
  -23.6080  -29.8204   20.1646 C   0  0  0  0  0  0
  -25.4097  -36.3116   24.0341 C   0  0  1  0  0  0
  -20.5863  -28.3670   23.1317 C   0  0  2  0  0  0
  -20.6766  -26.9407   22.5416 C   0  0  0  0  0  0
  -19.5736  -26.6387   21.5222 C   0  0  0  0  0  0
  -18.1919  -26.7923   22.1636 C   0  0  0  0  0  0
  -19.1523  -28.8839   23.2906 C   0  0  0  0  0  0
  -18.9453  -30.1446   23.8915 C   0  0  0  0  0  0
  -17.6455  -30.6584   24.0563 C   0  0  0  0  0  0
  -25.9037  -34.9479   23.5139 C   0  0  0  0  0  0
  -16.5345  -29.9091   23.6312 C   0  0  0  0  0  0
  -16.7263  -28.6505   23.0337 C   0  0  0  0  0  0
  -26.4467  -31.6589   25.0709 C   0  0  0  0  0  0
  -25.3737  -31.3704   26.1464 C   0  0  0  0  0  0
  -27.0284  -30.3025   24.6079 C   0  0  0  0  0  0
  -27.6045  -32.4304   25.7467 C   0  0  0  0  0  0
  -27.5593  -37.1798   24.8450 C   0  0  0  0  0  0
  -21.4131  -29.3037   22.3720 N   0  0  0  0  0  0
  -26.4279  -37.3810   23.9434 N   0  0  0  0  0  0
  -24.6646  -31.0801   22.0985 N   0  0  0  0  0  0
  -23.4182  -28.8220   23.3029 O   0  0  0  0  0  0
  -28.4655  -26.7863   20.0851 O   0  0  0  0  0  0
  -26.5610  -34.8936   22.4707 O   0  0  0  0  0  0
  -23.5332  -32.1441   23.7500 O   0  0  0  0  0  0
  -31.1762  -18.9474   21.3885 C   0  0  0  0  0  0
  -31.2460  -17.5342   21.3292 C   0  0  0  0  0  0
  -28.7470  -18.8377   21.2998 C   0  0  0  0  0  0
  -29.9247  -19.6069   21.3951 C   0  0  0  0  0  0
  -30.0575  -16.7694   21.2750 C   0  0  0  0  0  0
  -28.8152  -17.4324   21.2509 C   0  0  0  0  0  0
  -29.8219  -21.1209   21.5622 C   0  0  0  0  0  0
  -28.6534  -25.5420   19.3963 C   0  0  0  0  0  0
  -28.6527  -24.3453   20.3679 C   0  0  0  0  0  0
  -30.0130  -15.3493   21.3388 N   0  0  0  0  0  0
  -30.0592  -21.8805   20.3310 N   0  0  0  0  0  0
  -27.5751  -21.9581   19.6802 O   0  0  0  0  0  0
  -29.3268  -22.9608   18.1317 O   0  0  0  0  0  0
  -27.6754  -16.7037   21.1992 F   0  0  0  0  0  0
  -28.8164  -22.7250   19.4923 S   0  0  0  0  0  0
  -31.4739  -12.4292   19.1037 H   0  0  0  0  0  0
  -30.3489  -11.2872   19.7815 H   0  0  0  0  0  0
  -29.7323  -11.8109   17.4095 H   0  0  0  0  0  0
  -29.6651  -13.5157   17.7773 H   0  0  0  0  0  0
  -27.8197  -11.3259   18.7913 H   0  0  0  0  0  0
  -27.3652  -12.6765   17.7865 H   0  0  0  0  0  0
  -27.7197  -14.2588   19.6125 H   0  0  0  0  0  0
  -28.6823  -11.8928   21.2911 H   0  0  0  0  0  0
  -28.4575  -13.4948   21.9002 H   0  0  0  0  0  0
  -25.2751   -9.5689   22.4744 H   0  0  0  0  0  0
  -24.0006   -7.4624   22.7465 H   0  0  0  0  0  0
  -21.0820   -8.8743   19.8957 H   0  0  0  0  0  0
  -22.3669  -10.9645   19.6144 H   0  0  0  0  0  0
  -21.1991   -7.6143   23.9718 H   0  0  0  0  0  0
  -21.1494   -6.0520   25.9085 H   0  0  0  0  0  0
  -22.0597   -2.7604   23.2848 H   0  0  0  0  0  0
  -22.4112  -11.9877   22.4784 H   0  0  0  0  0  0
  -21.1121  -13.1256   22.2608 H   0  0  0  0  0  0
  -24.6692  -15.8376   20.5875 H   0  0  0  0  0  0
  -26.3258  -15.6443   20.3255 H   0  0  0  0  0  0
  -26.7099  -32.5541   23.1147 H   0  0  0  0  0  0
  -24.9999  -33.9760   25.0439 H   0  0  0  0  0  0
  -22.6888  -31.3091   21.4093 H   0  0  0  0  0  0
  -23.3749  -35.9646   23.3258 H   0  0  0  0  0  0
  -24.3597  -36.8982   22.2058 H   0  0  0  0  0  0
  -23.7209  -37.6510   23.6669 H   0  0  0  0  0  0
  -26.0377  -31.6013   20.5903 H   0  0  0  0  0  0
  -26.8154  -30.8901   21.9774 H   0  0  0  0  0  0
  -28.0986  -29.1288   21.1401 H   0  0  0  0  0  0
  -26.0249  -25.9503   19.0615 H   0  0  0  0  0  0
  -23.9755  -27.2709   19.0715 H   0  0  0  0  0  0
  -23.7165  -30.5947   19.4038 H   0  0  0  0  0  0
  -22.7318  -29.2405   19.8692 H   0  0  0  0  0  0
  -25.1262  -36.1976   25.0830 H   0  0  0  0  0  0
  -20.9958  -28.3239   24.1437 H   0  0  0  0  0  0
  -20.5683  -26.2284   23.3609 H   0  0  0  0  0  0
  -21.6636  -26.7463   22.1194 H   0  0  0  0  0  0
  -19.6901  -25.6304   21.1236 H   0  0  0  0  0  0
  -19.6666  -27.3209   20.6761 H   0  0  0  0  0  0
  -17.4194  -26.6676   21.4034 H   0  0  0  0  0  0
  -18.0318  -26.0058   22.9023 H   0  0  0  0  0  0
  -19.7932  -30.7253   24.2293 H   0  0  0  0  0  0
  -17.5014  -31.6268   24.5164 H   0  0  0  0  0  0
  -15.5347  -30.3006   23.7617 H   0  0  0  0  0  0
  -15.8664  -28.0834   22.7032 H   0  0  0  0  0  0
  -24.5877  -30.7090   25.7803 H   0  0  0  0  0  0
  -24.8968  -32.2867   26.4953 H   0  0  0  0  0  0
  -25.8086  -30.8830   27.0198 H   0  0  0  0  0  0
  -26.2822  -29.6792   24.1136 H   0  0  0  0  0  0
  -27.4055  -29.7255   25.4534 H   0  0  0  0  0  0
  -27.8659  -30.4333   23.9220 H   0  0  0  0  0  0
  -27.2659  -33.3583   26.2088 H   0  0  0  0  0  0
  -28.3829  -32.6901   25.0279 H   0  0  0  0  0  0
  -28.0739  -31.8403   26.5348 H   0  0  0  0  0  0
  -28.2555  -38.0151   24.7595 H   0  0  0  0  0  0
  -28.1148  -36.2699   24.6137 H   0  0  0  0  0  0
  -27.2343  -37.1277   25.8855 H   0  0  0  0  0  0
  -20.9299  -29.8751   21.6931 H   0  0  0  0  0  0
  -26.0170  -38.2878   24.1480 H   0  0  0  0  0  0
  -32.0891  -19.5223   21.4655 H   0  0  0  0  0  0
  -32.2107  -17.0478   21.3643 H   0  0  0  0  0  0
  -27.7801  -19.3195   21.2983 H   0  0  0  0  0  0
  -30.5486  -21.4376   22.3121 H   0  0  0  0  0  0
  -28.8445  -21.3860   21.9705 H   0  0  0  0  0  0
  -27.9668  -25.3880   18.5666 H   0  0  0  0  0  0
  -29.6370  -25.5966   18.9284 H   0  0  0  0  0  0
  -27.7323  -24.3104   20.9462 H   0  0  0  0  0  0
  -29.4736  -24.4323   21.0755 H   0  0  0  0  0  0
  -29.1337  -14.9878   21.6769 H   0  0  0  0  0  0
  -30.8767  -21.6342   19.7704 H   0  0  0  0  0  0
  1 25  1  0  0  0
  1 30  2  0  0  0
  1 80  1  0  0  0
  2  3  1  0  0  0
  2 25  1  0  0  0
  2 86  1  0  0  0
  2 87  1  0  0  0
  3  4  1  0  0  0
  3 88  1  0  0  0
  3 89  1  0  0  0
  4  5  1  0  0  0
  4 90  1  0  0  0
  4 91  1  0  0  0
  5  6  1  0  0  0
  5 26  1  0  0  0
  5 92  1  0  0  0
  6 25  1  0  0  0
  6 93  1  0  0  0
  6 94  1  0  0  0
  7  8  2  0  0  0
  7 26  1  0  0  0
  7 29  1  0  0  0
  8  9  1  0  0  0
  8 22  1  0  0  0
  9 10  1  0  0  0
  9 27  2  0  0  0
 10 11  2  0  0  0
 10 15  1  0  0  0
 11 12  1  0  0  0
 11 95  1  0  0  0
 12 13  2  0  0  0
 12 96  1  0  0  0
 13 14  1  0  0  0
 13 31  1  0  0  0
 14 15  2  0  0  0
 14 97  1  0  0  0
 15 98  1  0  0  0
 16 17  2  0  0  0
 16 21  1  0  0  0
 16 31  1  0  0  0
 17 18  1  0  0  0
 17 99  1  0  0  0
 18 19  2  0  0  0
 18100  1  0  0  0
 19 20  1  0  0  0
 19 24  1  0  0  0
 20 21  2  0  0  0
 20101  1  0  0  0
 21 23  1  0  0  0
 22 28  1  0  0  0
 22 32  2  0  0  0
 26 27  1  0  0  0
 28102  1  0  0  0
 28103  1  0  0  0
 29104  1  0  0  0
 29105  1  0  0  0
 33 34  1  0  0  0
 33 66  1  0  0  0
 33 70  2  0  0  0
 34 36  1  0  0  0
 34 59  1  0  0  0
 34106  1  0  0  0
 35 44  2  0  0  0
 35 45  1  0  0  0
 35 68  1  0  0  0
 36 56  1  0  0  0
 36107  1  0  0  0
 37 39  1  0  0  0
 37 47  1  0  0  0
 37 66  1  0  0  0
 37108  1  0  0  0
 38 43  2  0  0  0
 38 46  1  0  0  0
 38 47  1  0  0  0
 39 64  1  0  0  0
 39 67  2  0  0  0
 40 52  1  0  0  0
 40 53  2  0  0  0
 40 58  1  0  0  0
 41109  1  0  0  0
 41110  1  0  0  0
 41111  1  0  0  0
 41 48  1  0  0  0
 42 43  1  0  0  0
 42 66  1  0  0  0
 42112  1  0  0  0
 42113  1  0  0  0
 43 44  1  0  0  0
 44114  1  0  0  0
 45 46  2  0  0  0
 45115  1  0  0  0
 46116  1  0  0  0
 47117  1  0  0  0
 47118  1  0  0  0
 48 56  1  0  0  0
 48 65  1  0  0  0
 48119  1  0  0  0
 49 50  1  0  0  0
 49 53  1  0  0  0
 49 64  1  0  0  0
 49120  1  0  0  0
 50 51  1  0  0  0
 50121  1  0  0  0
 50122  1  0  0  0
 51 52  1  0  0  0
 51123  1  0  0  0
 51124  1  0  0  0
 52125  1  0  0  0
 52126  1  0  0  0
 53 54  1  0  0  0
 54 55  2  0  0  0
 54127  1  0  0  0
 55 57  1  0  0  0
 55128  1  0  0  0
 56 69  2  0  0  0
 57 58  2  0  0  0
 57129  1  0  0  0
 58130  1  0  0  0
 59 60  1  0  0  0
 59 61  1  0  0  0
 59 62  1  0  0  0
 60131  1  0  0  0
 60132  1  0  0  0
 60133  1  0  0  0
 61134  1  0  0  0
 61135  1  0  0  0
 61136  1  0  0  0
 62137  1  0  0  0
 62138  1  0  0  0
 62139  1  0  0  0
 63 65  1  0  0  0
 63140  1  0  0  0
 63141  1  0  0  0
 63142  1  0  0  0
 64143  1  0  0  0
 65144  1  0  0  0
 68 78  1  0  0  0
 71 72  2  0  0  0
 71 74  1  0  0  0
 71145  1  0  0  0
 72 75  1  0  0  0
 72146  1  0  0  0
 73 74  2  0  0  0
 73 76  1  0  0  0
 73147  1  0  0  0
 74 77  1  0  0  0
 75 76  2  0  0  0
 75 80  1  0  0  0
 76 84  1  0  0  0
 77 81  1  0  0  0
 77148  1  0  0  0
 77149  1  0  0  0
 78 79  1  0  0  0
 78150  1  0  0  0
 78151  1  0  0  0
 79152  1  0  0  0
 79153  1  0  0  0
 79 85  1  0  0  0
 80154  1  0  0  0
 81 85  1  0  0  0
 81155  1  0  0  0
 82 85  2  0  0  0
 83 85  2  0  0  0
M  ISO  4   1 100  68 101  78 101  80 100
M  END
> <chiral flag>
0

> <version>
0

> <s_m_source_file>
/data/baiqing/PycharmProjects/Reinvent-master-3.2/result/LINK_invent/BTK/process_docking_weight1_custom_product_contain_oxygen_bond_distance_aromatic_linkinvent_7_9_3/rearranged_h_0054.sdf

> <i_m_source_file_index>
1

> <r_mmod_Potential_Energy-OPLS-2005>
-336.518096923828

> <r_mmod_Stretch_Energy-OPLS-2005>
34.3689765930176

> <r_mmod_Bend_Energy-OPLS-2005>
113.05876159668

> <r_mmod_Torsional_Energy-OPLS-2005>
228.194946289062

> <r_mmod_Improper_Torsional_Energy-OPLS-2005>
5.71409606933594

> <r_mmod_Van_der_Waal_Energy-OPLS-2005>
144.814331054688

> <r_mmod_Electrostatic_Energy-OPLS-2005>
-637.901428222656

> <r_mmod_Solvation_Energy-OPLS-2005>
-235.294647216797

> <b_mmod_Minimization_Converged-OPLS-2005>
0

> <r_mmod_RMS_Derivative-OPLS-2005>
1.29243552684784

$$$$
1
                    3D
 Structure written by MMmdl.
157165  0  0  1  0            999 V2000
  -30.7024  -14.5523   20.5380 C   0  0  0  0  0  0
  -30.4175  -12.3520   19.4350 C   0  0  0  0  0  0
  -29.4952  -12.5041   18.2088 C   0  0  0  0  0  0
  -28.0166  -12.3606   18.6209 C   0  0  0  0  0  0
  -27.6514  -13.2203   19.8615 C   0  0  2  0  0  0
  -28.6976  -13.0723   20.9869 C   0  0  0  0  0  0
  -25.2565  -13.8184   20.5697 C   0  0  0  0  0  0
  -24.1833  -13.0445   20.9198 C   0  0  0  0  0  0
  -24.6405  -11.6914   20.8736 C   0  0  0  0  0  0
  -23.9077  -10.4291   21.0403 C   0  0  0  0  0  0
  -24.3625   -9.4208   21.9173 C   0  0  0  0  0  0
  -23.6298   -8.2251   22.0759 C   0  0  0  0  0  0
  -22.4278   -8.0289   21.3558 C   0  0  0  0  0  0
  -21.9923   -9.0261   20.4653 C   0  0  0  0  0  0
  -22.7251  -10.2133   20.3058 C   0  0  0  0  0  0
  -21.6862   -6.0736   22.5276 C   0  0  0  0  0  0
  -21.4017   -6.5644   23.8206 C   0  0  0  0  0  0
  -21.3664   -5.6795   24.9169 C   0  0  0  0  0  0
  -21.6044   -4.3059   24.7220 C   0  0  0  0  0  0
  -21.8825   -3.8147   23.4349 C   0  0  0  0  0  0
  -21.9204   -4.6964   22.3405 C   0  0  0  0  0  0
  -22.7860  -13.5228   21.1861 C   0  0  0  0  0  0
  -22.1669   -4.2150   21.0983 F   0  0  0  0  0  0
  -21.5632   -3.4547   25.7734 F   0  0  0  0  0  0
  -30.0144  -13.3798   20.4114 N   0  0  0  0  0  0
  -26.2986  -12.9370   20.3320 N   0  0  0  0  0  0
  -25.9331  -11.6521   20.5754 N   0  0  0  0  0  0
  -22.0524  -12.8191   22.0412 N   0  0  0  0  0  0
  -25.4282  -15.1906   20.4119 N   0  0  0  0  0  0
  -31.8794  -14.6239   20.2003 O   0  0  0  0  0  0
  -21.6653   -6.8879   21.4243 O   0  0  0  0  0  0
  -22.3539  -14.5534   20.6715 O   0  0  0  0  0  0
  -24.6208  -31.8638   23.2073 C   0  0  0  0  0  0
  -25.9079  -32.4796   23.8380 C   0  0  1  0  0  0
  -27.2227  -27.3632   20.1110 C   0  0  0  0  0  0
  -25.5914  -33.8595   24.2309 N   0  0  0  0  0  0
  -23.4116  -30.4899   21.5487 C   0  0  2  0  0  0
  -24.8575  -28.9546   20.1088 C   0  0  0  0  0  0
  -22.7438  -29.4653   22.4959 C   0  0  0  0  0  0
  -18.0276  -28.1377   22.8493 C   0  0  0  0  0  0
  -24.1490  -36.7313   23.2640 C   0  0  0  0  0  0
  -25.9483  -30.8081   21.3727 C   0  0  0  0  0  0
  -26.0225  -29.4395   20.7159 C   0  0  0  0  0  0
  -27.2073  -28.6532   20.7122 C   0  0  0  0  0  0
  -26.0372  -26.9277   19.4699 C   0  0  0  0  0  0
  -24.8644  -27.7018   19.4789 C   0  0  0  0  0  0
  -23.6229  -29.8276   20.1618 C   0  0  0  0  0  0
  -25.4109  -36.3095   24.0334 C   0  0  1  0  0  0
  -20.5872  -28.3689   23.1297 C   0  0  2  0  0  0
  -20.6765  -26.9416   22.5417 C   0  0  0  0  0  0
  -19.5737  -26.6391   21.5217 C   0  0  0  0  0  0
  -18.1921  -26.7924   22.1631 C   0  0  0  0  0  0
  -19.1527  -28.8845   23.2893 C   0  0  0  0  0  0
  -18.9454  -30.1453   23.8910 C   0  0  0  0  0  0
  -17.6455  -30.6590   24.0569 C   0  0  0  0  0  0
  -25.9044  -34.9462   23.5122 C   0  0  0  0  0  0
  -16.5347  -29.9091   23.6324 C   0  0  0  0  0  0
  -16.7264  -28.6505   23.0357 C   0  0  0  0  0  0
  -26.4479  -31.6581   25.0726 C   0  0  0  0  0  0
  -25.3728  -31.3701   26.1461 C   0  0  0  0  0  0
  -27.0319  -30.3012   24.6150 C   0  0  0  0  0  0
  -27.6051  -32.4301   25.7493 C   0  0  0  0  0  0
  -27.5578  -37.1806   24.8459 C   0  0  0  0  0  0
  -21.4159  -29.3047   22.3692 N   0  0  0  0  0  0
  -26.4291  -37.3783   23.9405 N   0  0  0  0  0  0
  -24.6788  -31.0695   22.1003 N   0  0  0  0  0  0
  -23.4185  -28.8185   23.3013 O   0  0  0  0  0  0
  -28.3525  -26.5432   20.1756 O   0  0  0  0  0  0
  -26.5616  -34.8916   22.4689 O   0  0  0  0  0  0
  -23.5384  -32.1423   23.7424 O   0  0  0  0  0  0
  -31.5132  -20.1983   19.2768 C   0  0  0  0  0  0
  -32.6976  -19.7048   18.7078 C   0  0  0  0  0  0
  -32.3519  -17.6187   19.8846 C   0  0  0  0  0  0
  -30.7195  -19.4199   20.1603 C   0  0  0  0  0  0
  -31.1082  -18.0457   20.4132 C   0  0  0  0  0  0
  -33.1311  -18.4163   19.0344 C   0  0  0  0  0  0
  -28.9660  -22.5941   20.2191 C   0  0  0  0  0  0
  -29.5079  -20.1483   20.7994 C   0  0  0  0  0  0
  -30.3512  -17.0401   21.3354 C   0  0  0  0  0  0
  -29.2421  -24.1088   20.5147 C   0  0  0  0  0  0
  -28.1482  -25.1044   19.9776 C   0  0  0  0  0  0
  -29.6281  -21.6361   20.9180 N   0  0  0  0  0  0
  -29.9816  -15.6515   20.8895 N   0  0  0  0  0  0
  -28.1554  -22.2874   19.3427 O   0  0  0  0  0  0
  -34.3056  -17.9497   18.5480 F   0  0  0  0  0  0
  -31.4613  -12.4479   19.1306 H   0  0  0  0  0  0
  -30.3235  -11.3556   19.8692 H   0  0  0  0  0  0
  -29.7444  -11.7613   17.4487 H   0  0  0  0  0  0
  -29.6540  -13.4792   17.7456 H   0  0  0  0  0  0
  -27.8332  -11.3070   18.8300 H   0  0  0  0  0  0
  -27.3681  -12.6199   17.7832 H   0  0  0  0  0  0
  -27.6708  -14.2581   19.5288 H   0  0  0  0  0  0
  -28.6949  -12.0567   21.3869 H   0  0  0  0  0  0
  -28.4611  -13.7242   21.8289 H   0  0  0  0  0  0
  -25.2778   -9.5685   22.4731 H   0  0  0  0  0  0
  -24.0025   -7.4647   22.7469 H   0  0  0  0  0  0
  -21.0867   -8.8773   19.8948 H   0  0  0  0  0  0
  -22.3713  -10.9675   19.6165 H   0  0  0  0  0  0
  -21.2002   -7.6151   23.9702 H   0  0  0  0  0  0
  -21.1481   -6.0529   25.9065 H   0  0  0  0  0  0
  -22.0602   -2.7615   23.2841 H   0  0  0  0  0  0
  -22.4158  -11.9837   22.4758 H   0  0  0  0  0  0
  -21.1150  -13.1189   22.2649 H   0  0  0  0  0  0
  -24.6617  -15.8455   20.5229 H   0  0  0  0  0  0
  -26.2759  -15.6297   20.0768 H   0  0  0  0  0  0
  -26.7147  -32.5487   23.1134 H   0  0  0  0  0  0
  -25.0010  -33.9751   25.0416 H   0  0  0  0  0  0
  -22.7029  -31.3092   21.4098 H   0  0  0  0  0  0
  -23.3744  -35.9654   23.3298 H   0  0  0  0  0  0
  -24.3576  -36.8940   22.2055 H   0  0  0  0  0  0
  -23.7258  -37.6520   23.6662 H   0  0  0  0  0  0
  -26.0721  -31.5728   20.6049 H   0  0  0  0  0  0
  -26.8321  -30.8563   21.9969 H   0  0  0  0  0  0
  -28.0989  -29.0173   21.2037 H   0  0  0  0  0  0
  -25.9864  -25.9769   18.9605 H   0  0  0  0  0  0
  -23.9728  -27.3289   18.9940 H   0  0  0  0  0  0
  -23.7332  -30.6055   19.4052 H   0  0  0  0  0  0
  -22.7446  -29.2523   19.8634 H   0  0  0  0  0  0
  -25.1287  -36.1953   25.0828 H   0  0  0  0  0  0
  -20.9966  -28.3265   24.1415 H   0  0  0  0  0  0
  -20.5670  -26.2299   23.3616 H   0  0  0  0  0  0
  -21.6636  -26.7445   22.1213 H   0  0  0  0  0  0
  -19.6906  -25.6309   21.1233 H   0  0  0  0  0  0
  -19.6671  -27.3214   20.6758 H   0  0  0  0  0  0
  -17.4192  -26.6677   21.4038 H   0  0  0  0  0  0
  -18.0321  -26.0065   22.9026 H   0  0  0  0  0  0
  -19.7931  -30.7259   24.2294 H   0  0  0  0  0  0
  -17.5013  -31.6263   24.5173 H   0  0  0  0  0  0
  -15.5351  -30.3005   23.7631 H   0  0  0  0  0  0
  -15.8666  -28.0829   22.7066 H   0  0  0  0  0  0
  -24.5898  -30.7058   25.7784 H   0  0  0  0  0  0
  -24.8922  -32.2861   26.4908 H   0  0  0  0  0  0
  -25.8062  -30.8857   27.0221 H   0  0  0  0  0  0
  -26.2885  -29.6767   24.1183 H   0  0  0  0  0  0
  -27.4040  -29.7254   25.4636 H   0  0  0  0  0  0
  -27.8742  -30.4307   23.9348 H   0  0  0  0  0  0
  -27.2672  -33.3594   26.2092 H   0  0  0  0  0  0
  -28.3851  -32.6873   25.0314 H   0  0  0  0  0  0
  -28.0731  -31.8409   26.5392 H   0  0  0  0  0  0
  -28.2589  -38.0108   24.7505 H   0  0  0  0  0  0
  -28.1078  -36.2637   24.6280 H   0  0  0  0  0  0
  -27.2290  -37.1454   25.8860 H   0  0  0  0  0  0
  -20.9328  -29.8778   21.6916 H   0  0  0  0  0  0
  -26.0175  -38.2859   24.1400 H   0  0  0  0  0  0
  -31.2342  -21.2128   19.0324 H   0  0  0  0  0  0
  -33.2933  -20.3252   18.0536 H   0  0  0  0  0  0
  -32.7771  -16.6748   20.1602 H   0  0  0  0  0  0
  -29.3573  -19.7625   21.8070 H   0  0  0  0  0  0
  -28.6118  -19.8818   20.2379 H   0  0  0  0  0  0
  -29.4157  -17.5016   21.6498 H   0  0  0  0  0  0
  -30.9361  -16.9383   22.2503 H   0  0  0  0  0  0
  -30.2070  -24.3673   20.0779 H   0  0  0  0  0  0
  -29.3472  -24.2397   21.5922 H   0  0  0  0  0  0
  -27.2131  -24.8039   20.4557 H   0  0  0  0  0  0
  -28.0217  -24.9346   18.9070 H   0  0  0  0  0  0
  -30.2803  -21.9606   21.6202 H   0  0  0  0  0  0
  -29.0017  -15.4453   21.0127 H   0  0  0  0  0  0
  1 25  1  0  0  0
  1 30  2  0  0  0
  1 83  1  0  0  0
  2  3  1  0  0  0
  2 25  1  0  0  0
  2 86  1  0  0  0
  2 87  1  0  0  0
  3  4  1  0  0  0
  3 88  1  0  0  0
  3 89  1  0  0  0
  4  5  1  0  0  0
  4 90  1  0  0  0
  4 91  1  0  0  0
  5  6  1  0  0  0
  5 26  1  0  0  0
  5 92  1  0  0  0
  6 25  1  0  0  0
  6 93  1  0  0  0
  6 94  1  0  0  0
  7  8  2  0  0  0
  7 26  1  0  0  0
  7 29  1  0  0  0
  8  9  1  0  0  0
  8 22  1  0  0  0
  9 10  1  0  0  0
  9 27  2  0  0  0
 10 11  2  0  0  0
 10 15  1  0  0  0
 11 12  1  0  0  0
 11 95  1  0  0  0
 12 13  2  0  0  0
 12 96  1  0  0  0
 13 14  1  0  0  0
 13 31  1  0  0  0
 14 15  2  0  0  0
 14 97  1  0  0  0
 15 98  1  0  0  0
 16 17  2  0  0  0
 16 21  1  0  0  0
 16 31  1  0  0  0
 17 18  1  0  0  0
 17 99  1  0  0  0
 18 19  2  0  0  0
 18100  1  0  0  0
 19 20  1  0  0  0
 19 24  1  0  0  0
 20 21  2  0  0  0
 20101  1  0  0  0
 21 23  1  0  0  0
 22 28  1  0  0  0
 22 32  2  0  0  0
 26 27  1  0  0  0
 28102  1  0  0  0
 28103  1  0  0  0
 29104  1  0  0  0
 29105  1  0  0  0
 33 34  1  0  0  0
 33 66  1  0  0  0
 33 70  2  0  0  0
 34 36  1  0  0  0
 34 59  1  0  0  0
 34106  1  0  0  0
 35 44  2  0  0  0
 35 45  1  0  0  0
 35 68  1  0  0  0
 36 56  1  0  0  0
 36107  1  0  0  0
 37 39  1  0  0  0
 37 47  1  0  0  0
 37 66  1  0  0  0
 37108  1  0  0  0
 38 43  2  0  0  0
 38 46  1  0  0  0
 38 47  1  0  0  0
 39 64  1  0  0  0
 39 67  2  0  0  0
 40 52  1  0  0  0
 40 53  2  0  0  0
 40 58  1  0  0  0
 41109  1  0  0  0
 41110  1  0  0  0
 41111  1  0  0  0
 41 48  1  0  0  0
 42 43  1  0  0  0
 42 66  1  0  0  0
 42112  1  0  0  0
 42113  1  0  0  0
 43 44  1  0  0  0
 44114  1  0  0  0
 45 46  2  0  0  0
 45115  1  0  0  0
 46116  1  0  0  0
 47117  1  0  0  0
 47118  1  0  0  0
 48 56  1  0  0  0
 48 65  1  0  0  0
 48119  1  0  0  0
 49 50  1  0  0  0
 49 53  1  0  0  0
 49 64  1  0  0  0
 49120  1  0  0  0
 50 51  1  0  0  0
 50121  1  0  0  0
 50122  1  0  0  0
 51 52  1  0  0  0
 51123  1  0  0  0
 51124  1  0  0  0
 52125  1  0  0  0
 52126  1  0  0  0
 53 54  1  0  0  0
 54 55  2  0  0  0
 54127  1  0  0  0
 55 57  1  0  0  0
 55128  1  0  0  0
 56 69  2  0  0  0
 57 58  2  0  0  0
 57129  1  0  0  0
 58130  1  0  0  0
 59 60  1  0  0  0
 59 61  1  0  0  0
 59 62  1  0  0  0
 60131  1  0  0  0
 60132  1  0  0  0
 60133  1  0  0  0
 61134  1  0  0  0
 61135  1  0  0  0
 61136  1  0  0  0
 62137  1  0  0  0
 62138  1  0  0  0
 62139  1  0  0  0
 63 65  1  0  0  0
 63140  1  0  0  0
 63141  1  0  0  0
 63142  1  0  0  0
 64143  1  0  0  0
 65144  1  0  0  0
 68 81  1  0  0  0
 71 72  2  0  0  0
 71 74  1  0  0  0
 71145  1  0  0  0
 72 76  1  0  0  0
 72146  1  0  0  0
 73 75  1  0  0  0
 73 76  2  0  0  0
 73147  1  0  0  0
 74 75  2  0  0  0
 74 78  1  0  0  0
 75 79  1  0  0  0
 76 85  1  0  0  0
 77 80  1  0  0  0
 77 82  1  0  0  0
 77 84  2  0  0  0
 78 82  1  0  0  0
 78148  1  0  0  0
 78149  1  0  0  0
 79 83  1  0  0  0
 79150  1  0  0  0
 79151  1  0  0  0
 80 81  1  0  0  0
 80152  1  0  0  0
 80153  1  0  0  0
 81154  1  0  0  0
 81155  1  0  0  0
 82156  1  0  0  0
 83157  1  0  0  0
M  ISO  4   1 100  68 101  81 101  83 100
M  END
> <chiral flag>
0

> <version>
0

> <s_m_source_file>
/data/baiqing/PycharmProjects/Reinvent-master-3.2/result/LINK_invent/BTK/process_docking_weight1_custom_product_contain_oxygen_bond_distance_aromatic_linkinvent_7_9_3/rearranged_h_0054.sdf

> <i_m_source_file_index>
2

> <r_mmod_Potential_Energy-OPLS-2005>
-123.731796264648

> <r_mmod_Stretch_Energy-OPLS-2005>
64.9174499511719

> <r_mmod_Bend_Energy-OPLS-2005>
135.813079833984

> <r_mmod_Torsional_Energy-OPLS-2005>
196.620910644531

> <r_mmod_Improper_Torsional_Energy-OPLS-2005>
4.27288484573364

> <r_mmod_Van_der_Waal_Energy-OPLS-2005>
161.303344726562

> <r_mmod_Electrostatic_Energy-OPLS-2005>
-476.730285644531

> <r_mmod_Solvation_Energy-OPLS-2005>
-243.001693725586

> <b_mmod_Minimization_Converged-OPLS-2005>
0

> <r_mmod_RMS_Derivative-OPLS-2005>
1.81994378566742

$$$$
2
                    3D
 Structure written by MMmdl.
167176  0  0  1  0            999 V2000
  -30.6604  -14.5034   20.5559 C   0  0  0  0  0  0
  -30.4310  -12.3197   19.4223 C   0  0  0  0  0  0
  -29.4970  -12.5002   18.2059 C   0  0  0  0  0  0
  -28.0171  -12.3587   18.6171 C   0  0  0  0  0  0
  -27.6587  -13.2007   19.8707 C   0  0  2  0  0  0
  -28.7013  -12.9833   20.9907 C   0  0  0  0  0  0
  -25.2584  -13.8142   20.5663 C   0  0  0  0  0  0
  -24.1838  -13.0435   20.9188 C   0  0  0  0  0  0
  -24.6381  -11.6898   20.8745 C   0  0  0  0  0  0
  -23.9053  -10.4287   21.0418 C   0  0  0  0  0  0
  -24.3615   -9.4200   21.9186 C   0  0  0  0  0  0
  -23.6296   -8.2239   22.0756 C   0  0  0  0  0  0
  -22.4273   -8.0281   21.3553 C   0  0  0  0  0  0
  -21.9907   -9.0250   20.4650 C   0  0  0  0  0  0
  -22.7234  -10.2128   20.3059 C   0  0  0  0  0  0
  -21.6853   -6.0735   22.5282 C   0  0  0  0  0  0
  -21.4011   -6.5642   23.8214 C   0  0  0  0  0  0
  -21.3656   -5.6797   24.9177 C   0  0  0  0  0  0
  -21.6045   -4.3061   24.7228 C   0  0  0  0  0  0
  -21.8822   -3.8153   23.4350 C   0  0  0  0  0  0
  -21.9186   -4.6964   22.3405 C   0  0  0  0  0  0
  -22.7864  -13.5240   21.1853 C   0  0  0  0  0  0
  -22.1659   -4.2152   21.0985 F   0  0  0  0  0  0
  -21.5632   -3.4543   25.7739 F   0  0  0  0  0  0
  -30.0269  -13.3047   20.4365 N   0  0  0  0  0  0
  -26.3005  -12.9295   20.3335 N   0  0  0  0  0  0
  -25.9300  -11.6467   20.5756 N   0  0  0  0  0  0
  -22.0505  -12.8230   22.0405 N   0  0  0  0  0  0
  -25.4311  -15.1859   20.4037 N   0  0  0  0  0  0
  -31.8108  -14.7003   20.1486 O   0  0  0  0  0  0
  -21.6639   -6.8878   21.4246 O   0  0  0  0  0  0
  -22.3540  -14.5544   20.6700 O   0  0  0  0  0  0
  -24.6133  -31.8681   23.2109 C   0  0  0  0  0  0
  -25.9023  -32.4829   23.8406 C   0  0  1  0  0  0
  -27.2349  -27.4319   20.1075 C   0  0  0  0  0  0
  -25.5881  -33.8628   24.2333 N   0  0  0  0  0  0
  -23.4032  -30.4901   21.5494 C   0  0  2  0  0  0
  -24.8525  -28.9487   20.1246 C   0  0  0  0  0  0
  -22.7409  -29.4653   22.4982 C   0  0  0  0  0  0
  -18.0274  -28.1376   22.8489 C   0  0  0  0  0  0
  -24.1485  -36.7321   23.2640 C   0  0  0  0  0  0
  -25.9326  -30.8301   21.3687 C   0  0  0  0  0  0
  -26.0109  -29.4595   20.7266 C   0  0  0  0  0  0
  -27.2081  -28.7058   20.7203 C   0  0  0  0  0  0
  -26.0650  -26.9317   19.5059 C   0  0  0  0  0  0
  -24.8722  -27.6807   19.5163 C   0  0  0  0  0  0
  -23.6164  -29.8189   20.1659 C   0  0  0  0  0  0
  -25.4105  -36.3120   24.0344 C   0  0  1  0  0  0
  -20.5863  -28.3665   23.1315 C   0  0  2  0  0  0
  -20.6762  -26.9399   22.5417 C   0  0  0  0  0  0
  -19.5743  -26.6385   21.5211 C   0  0  0  0  0  0
  -18.1920  -26.7923   22.1620 C   0  0  0  0  0  0
  -19.1523  -28.8835   23.2901 C   0  0  0  0  0  0
  -18.9452  -30.1439   23.8915 C   0  0  0  0  0  0
  -17.6458  -30.6584   24.0566 C   0  0  0  0  0  0
  -25.9030  -34.9482   23.5136 C   0  0  0  0  0  0
  -16.5348  -29.9092   23.6321 C   0  0  0  0  0  0
  -16.7263  -28.6508   23.0342 C   0  0  0  0  0  0
  -26.4456  -31.6604   25.0730 C   0  0  0  0  0  0
  -25.3727  -31.3729   26.1486 C   0  0  0  0  0  0
  -27.0281  -30.3041   24.6111 C   0  0  0  0  0  0
  -27.6033  -32.4324   25.7491 C   0  0  0  0  0  0
  -27.5581  -37.1817   24.8463 C   0  0  0  0  0  0
  -21.4135  -29.3038   22.3726 N   0  0  0  0  0  0
  -26.4294  -37.3801   23.9407 N   0  0  0  0  0  0
  -24.6673  -31.0786   22.1009 N   0  0  0  0  0  0
  -23.4179  -28.8194   23.3025 O   0  0  0  0  0  0
  -28.3933  -26.7017   19.9860 O   0  0  0  0  0  0
  -26.5600  -34.8931   22.4702 O   0  0  0  0  0  0
  -23.5323  -32.1431   23.7495 O   0  0  0  0  0  0
  -30.0794  -19.7200   21.9778 C   0  0  0  0  0  0
  -30.2067  -21.1134   22.1505 C   0  0  0  0  0  0
  -28.8693  -21.4800   20.1773 C   0  0  0  0  0  0
  -29.3173  -19.1739   20.9233 C   0  0  0  0  0  0
  -28.6687  -20.0782   20.0263 C   0  0  0  0  0  0
  -29.6330  -22.0353   21.2354 C   0  0  0  0  0  0
  -30.8834  -24.0233   21.9879 C   0  0  0  0  0  0
  -29.1833  -17.6898   20.8321 C   0  0  0  0  0  0
  -30.8210  -25.4674   22.4905 C   0  0  0  0  0  0
  -30.1850  -26.3964   21.4647 C   0  0  0  0  0  0
  -28.8253  -24.3828   20.6812 C   0  0  0  0  0  0
  -28.7956  -25.8899   21.0927 C   0  0  2  0  0  0
  -25.7110  -21.0627   19.1722 C   0  0  0  0  0  0
  -27.7959  -19.5526   18.8754 C   0  0  0  0  0  0
  -26.8050  -20.5445   18.2242 C   0  0  0  0  0  0
  -30.1705  -16.8614   20.9667 N   0  0  0  0  0  0
  -29.7834  -23.4798   21.3875 N   0  0  0  0  0  0
  -29.8636  -15.5190   20.9647 N   0  0  0  0  0  0
  -31.9491  -23.4200   22.1527 O   0  0  0  0  0  0
  -31.4732  -12.4378   19.1206 H   0  0  0  0  0  0
  -30.3502  -11.3094   19.8269 H   0  0  0  0  0  0
  -29.7392  -11.7699   17.4321 H   0  0  0  0  0  0
  -29.6589  -13.4829   17.7605 H   0  0  0  0  0  0
  -27.8280  -11.3032   18.8147 H   0  0  0  0  0  0
  -27.3706  -12.6318   17.7823 H   0  0  0  0  0  0
  -27.6992  -14.2467   19.5671 H   0  0  0  0  0  0
  -28.6855  -11.9455   21.3268 H   0  0  0  0  0  0
  -28.4628  -13.5773   21.8743 H   0  0  0  0  0  0
  -25.2762   -9.5675   22.4748 H   0  0  0  0  0  0
  -24.0005   -7.4628   22.7472 H   0  0  0  0  0  0
  -21.0840   -8.8764   19.8945 H   0  0  0  0  0  0
  -22.3697  -10.9667   19.6165 H   0  0  0  0  0  0
  -21.1999   -7.6147   23.9715 H   0  0  0  0  0  0
  -21.1483   -6.0531   25.9078 H   0  0  0  0  0  0
  -22.0599   -2.7613   23.2853 H   0  0  0  0  0  0
  -22.4128  -11.9894   22.4781 H   0  0  0  0  0  0
  -21.1118  -13.1245   22.2613 H   0  0  0  0  0  0
  -24.6598  -15.8373   20.4998 H   0  0  0  0  0  0
  -26.2630  -15.6142   20.0217 H   0  0  0  0  0  0
  -26.7098  -32.5556   23.1176 H   0  0  0  0  0  0
  -25.0010  -33.9800   25.0462 H   0  0  0  0  0  0
  -22.6912  -31.3056   21.4061 H   0  0  0  0  0  0
  -23.3747  -35.9655   23.3319 H   0  0  0  0  0  0
  -24.3569  -36.8920   22.2051 H   0  0  0  0  0  0
  -23.7243  -37.6533   23.6642 H   0  0  0  0  0  0
  -26.0463  -31.5916   20.5962 H   0  0  0  0  0  0
  -26.8200  -30.8861   21.9876 H   0  0  0  0  0  0
  -28.1091  -29.1039   21.1658 H   0  0  0  0  0  0
  -26.0829  -25.9662   19.0204 H   0  0  0  0  0  0
  -23.9828  -27.2813   19.0480 H   0  0  0  0  0  0
  -23.7310  -30.5912   19.4049 H   0  0  0  0  0  0
  -22.7407  -29.2403   19.8664 H   0  0  0  0  0  0
  -25.1280  -36.1989   25.0840 H   0  0  0  0  0  0
  -20.9956  -28.3228   24.1435 H   0  0  0  0  0  0
  -20.5667  -26.2271   23.3601 H   0  0  0  0  0  0
  -21.6634  -26.7440   22.1207 H   0  0  0  0  0  0
  -19.6908  -25.6302   21.1225 H   0  0  0  0  0  0
  -19.6684  -27.3207   20.6751 H   0  0  0  0  0  0
  -17.4190  -26.6672   21.4023 H   0  0  0  0  0  0
  -18.0319  -26.0063   22.9017 H   0  0  0  0  0  0
  -19.7930  -30.7244   24.2299 H   0  0  0  0  0  0
  -17.5016  -31.6266   24.5161 H   0  0  0  0  0  0
  -15.5350  -30.3007   23.7631 H   0  0  0  0  0  0
  -15.8658  -28.0839   22.7045 H   0  0  0  0  0  0
  -24.5857  -30.7128   25.7822 H   0  0  0  0  0  0
  -24.8976  -32.2906   26.4970 H   0  0  0  0  0  0
  -25.8073  -30.8854   27.0223 H   0  0  0  0  0  0
  -26.2834  -29.6830   24.1124 H   0  0  0  0  0  0
  -27.3995  -29.7251   25.4577 H   0  0  0  0  0  0
  -27.8695  -30.4353   23.9303 H   0  0  0  0  0  0
  -27.2631  -33.3587   26.2136 H   0  0  0  0  0  0
  -28.3804  -32.6954   25.0300 H   0  0  0  0  0  0
  -28.0747  -31.8418   26.5354 H   0  0  0  0  0  0
  -28.2607  -38.0106   24.7494 H   0  0  0  0  0  0
  -28.1066  -36.2636   24.6301 H   0  0  0  0  0  0
  -27.2297  -37.1488   25.8866 H   0  0  0  0  0  0
  -20.9290  -29.8772   21.6962 H   0  0  0  0  0  0
  -26.0189  -38.2883   24.1401 H   0  0  0  0  0  0
  -30.5520  -19.0629   22.6951 H   0  0  0  0  0  0
  -30.7655  -21.4543   23.0097 H   0  0  0  0  0  0
  -28.4188  -22.1495   19.4639 H   0  0  0  0  0  0
  -28.1844  -17.2966   20.6403 H   0  0  0  0  0  0
  -31.8260  -25.8167   22.7314 H   0  0  0  0  0  0
  -30.2529  -25.4835   23.4209 H   0  0  0  0  0  0
  -30.8169  -26.4442   20.5763 H   0  0  0  0  0  0
  -30.1237  -27.4105   21.8596 H   0  0  0  0  0  0
  -29.0862  -24.3341   19.6234 H   0  0  0  0  0  0
  -27.8130  -23.9859   20.7654 H   0  0  0  0  0  0
  -28.1280  -26.0187   21.9484 H   0  0  0  0  0  0
  -25.0257  -21.7260   18.6433 H   0  0  0  0  0  0
  -26.1245  -21.6241   20.0097 H   0  0  0  0  0  0
  -25.1225  -20.2408   19.5815 H   0  0  0  0  0  0
  -27.2072  -18.7039   19.2219 H   0  0  0  0  0  0
  -28.4623  -19.1653   18.1038 H   0  0  0  0  0  0
  -27.3354  -21.3776   17.7634 H   0  0  0  0  0  0
  -26.3132  -20.0353   17.3945 H   0  0  0  0  0  0
  -28.9003  -15.2931   21.1680 H   0  0  0  0  0  0
  1 25  1  0  0  0
  1 30  2  0  0  0
  1 88  1  0  0  0
  2  3  1  0  0  0
  2 25  1  0  0  0
  2 90  1  0  0  0
  2 91  1  0  0  0
  3  4  1  0  0  0
  3 92  1  0  0  0
  3 93  1  0  0  0
  4  5  1  0  0  0
  4 94  1  0  0  0
  4 95  1  0  0  0
  5  6  1  0  0  0
  5 26  1  0  0  0
  5 96  1  0  0  0
  6 25  1  0  0  0
  6 97  1  0  0  0
  6 98  1  0  0  0
  7  8  2  0  0  0
  7 26  1  0  0  0
  7 29  1  0  0  0
  8  9  1  0  0  0
  8 22  1  0  0  0
  9 10  1  0  0  0
  9 27  2  0  0  0
 10 11  2  0  0  0
 10 15  1  0  0  0
 11 12  1  0  0  0
 11 99  1  0  0  0
 12 13  2  0  0  0
 12100  1  0  0  0
 13 14  1  0  0  0
 13 31  1  0  0  0
 14 15  2  0  0  0
 14101  1  0  0  0
 15102  1  0  0  0
 16 17  2  0  0  0
 16 21  1  0  0  0
 16 31  1  0  0  0
 17 18  1  0  0  0
 17103  1  0  0  0
 18 19  2  0  0  0
 18104  1  0  0  0
 19 20  1  0  0  0
 19 24  1  0  0  0
 20 21  2  0  0  0
 20105  1  0  0  0
 21 23  1  0  0  0
 22 28  1  0  0  0
 22 32  2  0  0  0
 26 27  1  0  0  0
 28106  1  0  0  0
 28107  1  0  0  0
 29108  1  0  0  0
 29109  1  0  0  0
 33 34  1  0  0  0
 33 66  1  0  0  0
 33 70  2  0  0  0
 34 36  1  0  0  0
 34 59  1  0  0  0
 34110  1  0  0  0
 35 44  2  0  0  0
 35 45  1  0  0  0
 35 68  1  0  0  0
 36 56  1  0  0  0
 36111  1  0  0  0
 37 39  1  0  0  0
 37 47  1  0  0  0
 37 66  1  0  0  0
 37112  1  0  0  0
 38 43  2  0  0  0
 38 46  1  0  0  0
 38 47  1  0  0  0
 39 64  1  0  0  0
 39 67  2  0  0  0
 40 52  1  0  0  0
 40 53  2  0  0  0
 40 58  1  0  0  0
 41113  1  0  0  0
 41114  1  0  0  0
 41115  1  0  0  0
 41 48  1  0  0  0
 42 43  1  0  0  0
 42 66  1  0  0  0
 42116  1  0  0  0
 42117  1  0  0  0
 43 44  1  0  0  0
 44118  1  0  0  0
 45 46  2  0  0  0
 45119  1  0  0  0
 46120  1  0  0  0
 47121  1  0  0  0
 47122  1  0  0  0
 48 56  1  0  0  0
 48 65  1  0  0  0
 48123  1  0  0  0
 49 50  1  0  0  0
 49 53  1  0  0  0
 49 64  1  0  0  0
 49124  1  0  0  0
 50 51  1  0  0  0
 50125  1  0  0  0
 50126  1  0  0  0
 51 52  1  0  0  0
 51127  1  0  0  0
 51128  1  0  0  0
 52129  1  0  0  0
 52130  1  0  0  0
 53 54  1  0  0  0
 54 55  2  0  0  0
 54131  1  0  0  0
 55 57  1  0  0  0
 55132  1  0  0  0
 56 69  2  0  0  0
 57 58  2  0  0  0
 57133  1  0  0  0
 58134  1  0  0  0
 59 60  1  0  0  0
 59 61  1  0  0  0
 59 62  1  0  0  0
 60135  1  0  0  0
 60136  1  0  0  0
 60137  1  0  0  0
 61138  1  0  0  0
 61139  1  0  0  0
 61140  1  0  0  0
 62141  1  0  0  0
 62142  1  0  0  0
 62143  1  0  0  0
 63 65  1  0  0  0
 63144  1  0  0  0
 63145  1  0  0  0
 63146  1  0  0  0
 64147  1  0  0  0
 65148  1  0  0  0
 68 82  1  0  0  0
 71 72  2  0  0  0
 71 74  1  0  0  0
 71149  1  0  0  0
 72 76  1  0  0  0
 72150  1  0  0  0
 73 75  1  0  0  0
 73 76  2  0  0  0
 73151  1  0  0  0
 74 75  2  0  0  0
 74 78  1  0  0  0
 75 84  1  0  0  0
 76 87  1  0  0  0
 77 79  1  0  0  0
 77 87  1  0  0  0
 77 89  2  0  0  0
 78 86  2  0  0  0
 78152  1  0  0  0
 79 80  1  0  0  0
 79153  1  0  0  0
 79154  1  0  0  0
 80 82  1  0  0  0
 80155  1  0  0  0
 80156  1  0  0  0
 81 82  1  0  0  0
 81 87  1  0  0  0
 81157  1  0  0  0
 81158  1  0  0  0
 82159  1  0  0  0
 83 85  1  0  0  0
 83160  1  0  0  0
 83161  1  0  0  0
 83162  1  0  0  0
 84 85  1  0  0  0
 84163  1  0  0  0
 84164  1  0  0  0
 85165  1  0  0  0
 85166  1  0  0  0
 86 88  1  0  0  0
 88167  1  0  0  0
M  ISO  4   1 100  68 101  82 101  88 100
M  END
> <chiral flag>
0

> <version>
0

> <s_m_source_file>
/data/baiqing/PycharmProjects/Reinvent-master-3.2/result/LINK_invent/BTK/process_docking_weight1_custom_product_contain_oxygen_bond_distance_aromatic_linkinvent_7_9_3/rearranged_h_0054.sdf

> <i_m_source_file_index>
3

> <r_mmod_Potential_Energy-OPLS-2005>
121.488807678223

> <r_mmod_Stretch_Energy-OPLS-2005>
51.725227355957

> <r_mmod_Bend_Energy-OPLS-2005>
107.843971252441

> <r_mmod_Torsional_Energy-OPLS-2005>
296.795196533203

> <r_mmod_Improper_Torsional_Energy-OPLS-2005>
5.56442737579346

> <r_mmod_Van_der_Waal_Energy-OPLS-2005>
168.89176940918

> <r_mmod_Electrostatic_Energy-OPLS-2005>
-289.552642822266

> <r_mmod_Solvation_Energy-OPLS-2005>
-234.394241333008

> <b_mmod_Minimization_Converged-OPLS-2005>
0

> <r_mmod_RMS_Derivative-OPLS-2005>
1.23265433311462

$$$$
3
                    3D
 Structure written by MMmdl.
155163  0  0  1  0            999 V2000
  -30.7192  -14.4205   20.6326 C   0  0  0  0  0  0
  -30.4177  -12.2916   19.4154 C   0  0  0  0  0  0
  -29.4874  -12.5105   18.2052 C   0  0  0  0  0  0
  -28.0086  -12.3727   18.6155 C   0  0  0  0  0  0
  -27.6627  -13.2011   19.8799 C   0  0  2  0  0  0
  -28.7000  -12.9493   20.9989 C   0  0  0  0  0  0
  -25.2580  -13.8160   20.5663 C   0  0  0  0  0  0
  -24.1827  -13.0439   20.9165 C   0  0  0  0  0  0
  -24.6367  -11.6904   20.8713 C   0  0  0  0  0  0
  -23.9029  -10.4300   21.0393 C   0  0  0  0  0  0
  -24.3585   -9.4216   21.9171 C   0  0  0  0  0  0
  -23.6276   -8.2249   22.0753 C   0  0  0  0  0  0
  -22.4267   -8.0276   21.3533 C   0  0  0  0  0  0
  -21.9886   -9.0238   20.4631 C   0  0  0  0  0  0
  -22.7202  -10.2126   20.3042 C   0  0  0  0  0  0
  -21.6839   -6.0723   22.5266 C   0  0  0  0  0  0
  -21.4013   -6.5623   23.8196 C   0  0  0  0  0  0
  -21.3663   -5.6788   24.9168 C   0  0  0  0  0  0
  -21.6054   -4.3046   24.7234 C   0  0  0  0  0  0
  -21.8820   -3.8139   23.4348 C   0  0  0  0  0  0
  -21.9188   -4.6952   22.3394 C   0  0  0  0  0  0
  -22.7848  -13.5235   21.1838 C   0  0  0  0  0  0
  -22.1654   -4.2142   21.0974 F   0  0  0  0  0  0
  -21.5635   -3.4536   25.7746 F   0  0  0  0  0  0
  -30.0389  -13.2543   20.4620 N   0  0  0  0  0  0
  -26.3009  -12.9315   20.3363 N   0  0  0  0  0  0
  -25.9292  -11.6476   20.5750 N   0  0  0  0  0  0
  -22.0506  -12.8223   22.0405 N   0  0  0  0  0  0
  -25.4310  -15.1883   20.4073 N   0  0  0  0  0  0
  -31.7957  -14.6437   20.0708 O   0  0  0  0  0  0
  -21.6631   -6.8869   21.4229 O   0  0  0  0  0  0
  -22.3527  -14.5533   20.6688 O   0  0  0  0  0  0
  -24.6132  -31.8700   23.2070 C   0  0  0  0  0  0
  -25.9035  -32.4838   23.8370 C   0  0  1  0  0  0
  -27.2433  -27.4547   20.0812 C   0  0  0  0  0  0
  -25.5887  -33.8627   24.2334 N   0  0  0  0  0  0
  -23.3970  -30.4919   21.5503 C   0  0  2  0  0  0
  -24.8425  -28.9549   20.1191 C   0  0  0  0  0  0
  -22.7398  -29.4661   22.5015 C   0  0  0  0  0  0
  -18.0275  -28.1366   22.8496 C   0  0  0  0  0  0
  -24.1474  -36.7309   23.2641 C   0  0  0  0  0  0
  -25.9226  -30.8433   21.3525 C   0  0  0  0  0  0
  -26.0000  -29.4741   20.7092 C   0  0  0  0  0  0
  -27.1977  -28.7291   20.6894 C   0  0  0  0  0  0
  -26.0580  -26.9341   19.5104 C   0  0  0  0  0  0
  -24.8655  -27.6838   19.5204 C   0  0  0  0  0  0
  -23.6005  -29.8159   20.1676 C   0  0  0  0  0  0
  -25.4097  -36.3123   24.0348 C   0  0  1  0  0  0
  -20.5857  -28.3654   23.1329 C   0  0  2  0  0  0
  -20.6740  -26.9385   22.5435 C   0  0  0  0  0  0
  -19.5730  -26.6367   21.5224 C   0  0  0  0  0  0
  -18.1912  -26.7912   22.1637 C   0  0  0  0  0  0
  -19.1521  -28.8828   23.2901 C   0  0  0  0  0  0
  -18.9461  -30.1443   23.8902 C   0  0  0  0  0  0
  -17.6462  -30.6584   24.0549 C   0  0  0  0  0  0
  -25.9038  -34.9484   23.5151 C   0  0  0  0  0  0
  -16.5354  -29.9090   23.6305 C   0  0  0  0  0  0
  -16.7267  -28.6504   23.0335 C   0  0  0  0  0  0
  -26.4441  -31.6607   25.0689 C   0  0  0  0  0  0
  -25.3683  -31.3710   26.1413 C   0  0  0  0  0  0
  -27.0282  -30.3069   24.6033 C   0  0  0  0  0  0
  -27.6009  -32.4309   25.7470 C   0  0  0  0  0  0
  -27.5581  -37.1802   24.8470 C   0  0  0  0  0  0
  -21.4133  -29.3023   22.3746 N   0  0  0  0  0  0
  -26.4287  -37.3810   23.9433 N   0  0  0  0  0  0
  -24.6629  -31.0814   22.0959 N   0  0  0  0  0  0
  -23.4187  -28.8201   23.3040 O   0  0  0  0  0  0
  -28.4630  -26.8109   20.0715 O   0  0  0  0  0  0
  -26.5602  -34.8934   22.4708 O   0  0  0  0  0  0
  -23.5335  -32.1443   23.7488 O   0  0  0  0  0  0
  -31.7912  -18.7008   21.4628 C   0  0  0  0  0  0
  -30.6820  -19.5361   21.6906 C   0  0  0  0  0  0
  -31.6218  -17.3054   21.3824 C   0  0  0  0  0  0
  -29.2311  -17.5792   21.7636 C   0  0  0  0  0  0
  -29.3950  -18.9812   21.8554 C   0  0  0  0  0  0
  -30.3347  -16.7302   21.5067 C   0  0  0  0  0  0
  -28.2363  -23.2290   20.5201 C   0  0  0  0  0  0
  -28.7915  -24.4569   20.5476 C   0  0  0  0  0  0
  -28.4967  -22.2889   21.5973 C   0  0  0  0  0  0
  -28.1991  -19.8764   22.1754 C   0  0  0  0  0  0
  -28.6410  -25.5231   19.4812 C   0  0  0  0  0  0
  -30.1028  -15.3249   21.4191 N   0  0  0  0  0  0
  -28.0741  -21.0509   21.3078 N   0  0  0  0  0  0
  -29.0579  -22.5648   22.6605 O   0  0  0  0  0  0
  -31.4618  -12.3861   19.1125 H   0  0  0  0  0  0
  -30.3142  -11.2738   19.7954 H   0  0  0  0  0  0
  -29.7184  -11.7945   17.4159 H   0  0  0  0  0  0
  -29.6621  -13.5007   17.7805 H   0  0  0  0  0  0
  -27.8091  -11.3162   18.8007 H   0  0  0  0  0  0
  -27.3610  -12.6614   17.7870 H   0  0  0  0  0  0
  -27.7183  -14.2520   19.5956 H   0  0  0  0  0  0
  -28.6717  -11.9024   21.3074 H   0  0  0  0  0  0
  -28.4512  -13.5174   21.8950 H   0  0  0  0  0  0
  -25.2729   -9.5698   22.4741 H   0  0  0  0  0  0
  -23.9975   -7.4652   22.7489 H   0  0  0  0  0  0
  -21.0816   -8.8751   19.8945 H   0  0  0  0  0  0
  -22.3647  -10.9658   19.6150 H   0  0  0  0  0  0
  -21.2006   -7.6132   23.9692 H   0  0  0  0  0  0
  -21.1484   -6.0523   25.9067 H   0  0  0  0  0  0
  -22.0601   -2.7602   23.2852 H   0  0  0  0  0  0
  -22.4127  -11.9860   22.4742 H   0  0  0  0  0  0
  -21.1134  -13.1257   22.2660 H   0  0  0  0  0  0
  -24.6661  -15.8469   20.5087 H   0  0  0  0  0  0
  -26.2874  -15.6232   20.0859 H   0  0  0  0  0  0
  -26.7103  -32.5571   23.1146 H   0  0  0  0  0  0
  -24.9988  -33.9787   25.0434 H   0  0  0  0  0  0
  -22.6835  -31.3070   21.4078 H   0  0  0  0  0  0
  -23.3749  -35.9617   23.3299 H   0  0  0  0  0  0
  -24.3558  -36.8955   22.2056 H   0  0  0  0  0  0
  -23.7208  -37.6503   23.6651 H   0  0  0  0  0  0
  -26.0188  -31.6038   20.5756 H   0  0  0  0  0  0
  -26.8189  -30.9104   21.9593 H   0  0  0  0  0  0
  -28.0969  -29.1327   21.1331 H   0  0  0  0  0  0
  -26.0179  -25.9564   19.0549 H   0  0  0  0  0  0
  -23.9726  -27.2697   19.0743 H   0  0  0  0  0  0
  -23.6959  -30.5840   19.3992 H   0  0  0  0  0  0
  -22.7284  -29.2249   19.8807 H   0  0  0  0  0  0
  -25.1260  -36.1991   25.0836 H   0  0  0  0  0  0
  -20.9954  -28.3222   24.1442 H   0  0  0  0  0  0
  -20.5684  -26.2246   23.3621 H   0  0  0  0  0  0
  -21.6609  -26.7451   22.1214 H   0  0  0  0  0  0
  -19.6886  -25.6290   21.1239 H   0  0  0  0  0  0
  -19.6663  -27.3177   20.6743 H   0  0  0  0  0  0
  -17.4185  -26.6698   21.4032 H   0  0  0  0  0  0
  -18.0295  -26.0046   22.9026 H   0  0  0  0  0  0
  -19.7931  -30.7252   24.2290 H   0  0  0  0  0  0
  -17.5024  -31.6256   24.5158 H   0  0  0  0  0  0
  -15.5367  -30.2999   23.7628 H   0  0  0  0  0  0
  -15.8660  -28.0852   22.7024 H   0  0  0  0  0  0
  -24.5838  -30.7103   25.7716 H   0  0  0  0  0  0
  -24.8867  -32.2866   26.4829 H   0  0  0  0  0  0
  -25.7982  -30.8862   27.0192 H   0  0  0  0  0  0
  -26.2833  -29.6857   24.1046 H   0  0  0  0  0  0
  -27.4060  -29.7262   25.4463 H   0  0  0  0  0  0
  -27.8637  -30.4423   23.9163 H   0  0  0  0  0  0
  -27.2636  -33.3618   26.2027 H   0  0  0  0  0  0
  -28.3814  -32.6885   25.0305 H   0  0  0  0  0  0
  -28.0647  -31.8439   26.5412 H   0  0  0  0  0  0
  -28.2579  -38.0124   24.7571 H   0  0  0  0  0  0
  -28.1114  -36.2662   24.6219 H   0  0  0  0  0  0
  -27.2299  -37.1385   25.8876 H   0  0  0  0  0  0
  -20.9300  -29.8775   21.6994 H   0  0  0  0  0  0
  -26.0188  -38.2894   24.1435 H   0  0  0  0  0  0
  -32.7762  -19.1327   21.3588 H   0  0  0  0  0  0
  -30.8297  -20.6039   21.7610 H   0  0  0  0  0  0
  -32.4977  -16.6926   21.2284 H   0  0  0  0  0  0
  -28.2435  -17.1574   21.8843 H   0  0  0  0  0  0
  -27.6043  -22.9476   19.6877 H   0  0  0  0  0  0
  -29.4260  -24.7371   21.3783 H   0  0  0  0  0  0
  -28.2733  -20.1816   23.2209 H   0  0  0  0  0  0
  -27.2734  -19.3035   22.1100 H   0  0  0  0  0  0
  -27.9159  -25.2473   18.7197 H   0  0  0  0  0  0
  -29.5950  -25.5662   18.9561 H   0  0  0  0  0  0
  -29.2405  -14.9931   21.8218 H   0  0  0  0  0  0
  -27.6021  -20.9141   20.4259 H   0  0  0  0  0  0
  1 25  1  0  0  0
  1 30  2  0  0  0
  1 82  1  0  0  0
  2  3  1  0  0  0
  2 25  1  0  0  0
  2 85  1  0  0  0
  2 86  1  0  0  0
  3  4  1  0  0  0
  3 87  1  0  0  0
  3 88  1  0  0  0
  4  5  1  0  0  0
  4 89  1  0  0  0
  4 90  1  0  0  0
  5  6  1  0  0  0
  5 26  1  0  0  0
  5 91  1  0  0  0
  6 25  1  0  0  0
  6 92  1  0  0  0
  6 93  1  0  0  0
  7  8  2  0  0  0
  7 26  1  0  0  0
  7 29  1  0  0  0
  8  9  1  0  0  0
  8 22  1  0  0  0
  9 10  1  0  0  0
  9 27  2  0  0  0
 10 11  2  0  0  0
 10 15  1  0  0  0
 11 12  1  0  0  0
 11 94  1  0  0  0
 12 13  2  0  0  0
 12 95  1  0  0  0
 13 14  1  0  0  0
 13 31  1  0  0  0
 14 15  2  0  0  0
 14 96  1  0  0  0
 15 97  1  0  0  0
 16 17  2  0  0  0
 16 21  1  0  0  0
 16 31  1  0  0  0
 17 18  1  0  0  0
 17 98  1  0  0  0
 18 19  2  0  0  0
 18 99  1  0  0  0
 19 20  1  0  0  0
 19 24  1  0  0  0
 20 21  2  0  0  0
 20100  1  0  0  0
 21 23  1  0  0  0
 22 28  1  0  0  0
 22 32  2  0  0  0
 26 27  1  0  0  0
 28101  1  0  0  0
 28102  1  0  0  0
 29103  1  0  0  0
 29104  1  0  0  0
 33 34  1  0  0  0
 33 66  1  0  0  0
 33 70  2  0  0  0
 34 36  1  0  0  0
 34 59  1  0  0  0
 34105  1  0  0  0
 35 44  2  0  0  0
 35 45  1  0  0  0
 35 68  1  0  0  0
 36 56  1  0  0  0
 36106  1  0  0  0
 37 39  1  0  0  0
 37 47  1  0  0  0
 37 66  1  0  0  0
 37107  1  0  0  0
 38 43  2  0  0  0
 38 46  1  0  0  0
 38 47  1  0  0  0
 39 64  1  0  0  0
 39 67  2  0  0  0
 40 52  1  0  0  0
 40 53  2  0  0  0
 40 58  1  0  0  0
 41108  1  0  0  0
 41109  1  0  0  0
 41110  1  0  0  0
 41 48  1  0  0  0
 42 43  1  0  0  0
 42 66  1  0  0  0
 42111  1  0  0  0
 42112  1  0  0  0
 43 44  1  0  0  0
 44113  1  0  0  0
 45 46  2  0  0  0
 45114  1  0  0  0
 46115  1  0  0  0
 47116  1  0  0  0
 47117  1  0  0  0
 48 56  1  0  0  0
 48 65  1  0  0  0
 48118  1  0  0  0
 49 50  1  0  0  0
 49 53  1  0  0  0
 49 64  1  0  0  0
 49119  1  0  0  0
 50 51  1  0  0  0
 50120  1  0  0  0
 50121  1  0  0  0
 51 52  1  0  0  0
 51122  1  0  0  0
 51123  1  0  0  0
 52124  1  0  0  0
 52125  1  0  0  0
 53 54  1  0  0  0
 54 55  2  0  0  0
 54126  1  0  0  0
 55 57  1  0  0  0
 55127  1  0  0  0
 56 69  2  0  0  0
 57 58  2  0  0  0
 57128  1  0  0  0
 58129  1  0  0  0
 59 60  1  0  0  0
 59 61  1  0  0  0
 59 62  1  0  0  0
 60130  1  0  0  0
 60131  1  0  0  0
 60132  1  0  0  0
 61133  1  0  0  0
 61134  1  0  0  0
 61135  1  0  0  0
 62136  1  0  0  0
 62137  1  0  0  0
 62138  1  0  0  0
 63 65  1  0  0  0
 63139  1  0  0  0
 63140  1  0  0  0
 63141  1  0  0  0
 64142  1  0  0  0
 65143  1  0  0  0
 68 81  1  0  0  0
 71 72  2  0  0  0
 71 73  1  0  0  0
 71144  1  0  0  0
 72 75  1  0  0  0
 72145  1  0  0  0
 73 76  2  0  0  0
 73146  1  0  0  0
 74 75  2  0  0  0
 74 76  1  0  0  0
 74147  1  0  0  0
 75 80  1  0  0  0
 76 82  1  0  0  0
 77 78  2  0  0  0
 77 79  1  0  0  0
 77148  1  0  0  0
 78 81  1  0  0  0
 78149  1  0  0  0
 79 83  1  0  0  0
 79 84  2  0  0  0
 80 83  1  0  0  0
 80150  1  0  0  0
 80151  1  0  0  0
 81152  1  0  0  0
 81153  1  0  0  0
 82154  1  0  0  0
 83155  1  0  0  0
M  ISO  4   1 100  68 101  81 101  82 100
M  END
> <chiral flag>
0

> <version>
0

> <s_m_source_file>
/data/baiqing/PycharmProjects/Reinvent-master-3.2/result/LINK_invent/BTK/process_docking_weight1_custom_product_contain_oxygen_bond_distance_aromatic_linkinvent_7_9_3/rearranged_h_0054.sdf

> <i_m_source_file_index>
4

> <r_mmod_Potential_Energy-OPLS-2005>
-198.623962402344

> <r_mmod_Stretch_Energy-OPLS-2005>
34.0698394775391

> <r_mmod_Bend_Energy-OPLS-2005>
105.001525878906

> <r_mmod_Torsional_Energy-OPLS-2005>
195.473526000977

> <r_mmod_Improper_Torsional_Energy-OPLS-2005>
2.85309195518494

> <r_mmod_Van_der_Waal_Energy-OPLS-2005>
161.974914550781

> <r_mmod_Electrostatic_Energy-OPLS-2005>
-466.150909423828

> <r_mmod_Solvation_Energy-OPLS-2005>
-241.060882568359

> <b_mmod_Minimization_Converged-OPLS-2005>
0

> <r_mmod_RMS_Derivative-OPLS-2005>
2.72616934776306

$$$$
4
                    3D
 Structure written by MMmdl.
157165  0  0  1  0            999 V2000
  -30.6988  -14.4705   20.5121 C   0  0  0  0  0  0
  -30.4231  -12.2853   19.4381 C   0  0  0  0  0  0
  -29.5038  -12.4904   18.2144 C   0  0  0  0  0  0
  -28.0222  -12.3576   18.6207 C   0  0  0  0  0  0
  -27.6630  -13.2045   19.8721 C   0  0  2  0  0  0
  -28.7052  -13.0050   21.0000 C   0  0  0  0  0  0
  -25.2577  -13.8157   20.5657 C   0  0  0  0  0  0
  -24.1822  -13.0441   20.9155 C   0  0  0  0  0  0
  -24.6390  -11.6907   20.8723 C   0  0  0  0  0  0
  -23.9064  -10.4289   21.0404 C   0  0  0  0  0  0
  -24.3621   -9.4207   21.9187 C   0  0  0  0  0  0
  -23.6279   -8.2253   22.0769 C   0  0  0  0  0  0
  -22.4254   -8.0301   21.3570 C   0  0  0  0  0  0
  -21.9897   -9.0273   20.4672 C   0  0  0  0  0  0
  -22.7237  -10.2143   20.3060 C   0  0  0  0  0  0
  -21.6845   -6.0742   22.5287 C   0  0  0  0  0  0
  -21.4021   -6.5635   23.8218 C   0  0  0  0  0  0
  -21.3656   -5.6786   24.9177 C   0  0  0  0  0  0
  -21.6039   -4.3051   24.7219 C   0  0  0  0  0  0
  -21.8814   -3.8145   23.4332 C   0  0  0  0  0  0
  -21.9182   -4.6967   22.3399 C   0  0  0  0  0  0
  -22.7846  -13.5248   21.1806 C   0  0  0  0  0  0
  -22.1652   -4.2169   21.0968 F   0  0  0  0  0  0
  -21.5623   -3.4530   25.7728 F   0  0  0  0  0  0
  -30.0429  -13.2825   20.4493 N   0  0  0  0  0  0
  -26.3029  -12.9330   20.3331 N   0  0  0  0  0  0
  -25.9313  -11.6498   20.5758 N   0  0  0  0  0  0
  -22.0476  -12.8277   22.0385 N   0  0  0  0  0  0
  -25.4273  -15.1879   20.4070 N   0  0  0  0  0  0
  -31.8511  -14.6267   20.0984 O   0  0  0  0  0  0
  -21.6637   -6.8891   21.4248 O   0  0  0  0  0  0
  -22.3536  -14.5549   20.6635 O   0  0  0  0  0  0
  -24.6149  -31.8670   23.2091 C   0  0  0  0  0  0
  -25.9051  -32.4815   23.8380 C   0  0  1  0  0  0
  -27.2317  -27.4345   20.1035 C   0  0  0  0  0  0
  -25.5904  -33.8611   24.2311 N   0  0  0  0  0  0
  -23.4022  -30.4922   21.5488 C   0  0  2  0  0  0
  -24.8495  -28.9574   20.1123 C   0  0  0  0  0  0
  -22.7412  -29.4663   22.4973 C   0  0  0  0  0  0
  -18.0282  -28.1382   22.8485 C   0  0  0  0  0  0
  -24.1485  -36.7315   23.2631 C   0  0  0  0  0  0
  -25.9307  -30.8358   21.3597 C   0  0  0  0  0  0
  -26.0100  -29.4703   20.7070 C   0  0  0  0  0  0
  -27.2078  -28.7181   20.6956 C   0  0  0  0  0  0
  -26.0588  -26.9376   19.4950 C   0  0  0  0  0  0
  -24.8689  -27.6908   19.5015 C   0  0  0  0  0  0
  -23.6110  -29.8248   20.1630 C   0  0  0  0  0  0
  -25.4101  -36.3103   24.0331 C   0  0  1  0  0  0
  -20.5869  -28.3668   23.1311 C   0  0  2  0  0  0
  -20.6771  -26.9402   22.5420 C   0  0  0  0  0  0
  -19.5752  -26.6382   21.5216 C   0  0  0  0  0  0
  -18.1928  -26.7938   22.1615 C   0  0  0  0  0  0
  -19.1535  -28.8842   23.2900 C   0  0  0  0  0  0
  -18.9467  -30.1447   23.8916 C   0  0  0  0  0  0
  -17.6467  -30.6573   24.0576 C   0  0  0  0  0  0
  -25.9037  -34.9471   23.5118 C   0  0  0  0  0  0
  -16.5359  -29.9083   23.6331 C   0  0  0  0  0  0
  -16.7268  -28.6506   23.0337 C   0  0  0  0  0  0
  -26.4478  -31.6594   25.0705 C   0  0  0  0  0  0
  -25.3747  -31.3733   26.1462 C   0  0  0  0  0  0
  -27.0284  -30.3023   24.6075 C   0  0  0  0  0  0
  -27.6056  -32.4309   25.7463 C   0  0  0  0  0  0
  -27.5591  -37.1789   24.8451 C   0  0  0  0  0  0
  -21.4142  -29.3031   22.3705 N   0  0  0  0  0  0
  -26.4278  -37.3797   23.9430 N   0  0  0  0  0  0
  -24.6673  -31.0789   22.0980 N   0  0  0  0  0  0
  -23.4187  -28.8210   23.3017 O   0  0  0  0  0  0
  -28.3765  -26.6686   20.1204 O   0  0  0  0  0  0
  -26.5599  -34.8931   22.4679 O   0  0  0  0  0  0
  -23.5348  -32.1418   23.7494 O   0  0  0  0  0  0
  -30.7005  -19.4775   22.5868 C   0  0  0  0  0  0
  -30.5921  -18.2101   21.9769 C   0  0  0  0  0  0
  -30.2701  -20.6400   21.9120 C   0  0  0  0  0  0
  -29.6220  -19.2693   20.0116 C   0  0  0  0  0  0
  -30.0534  -18.0979   20.6795 C   0  0  0  0  0  0
  -29.7078  -20.5454   20.6178 C   0  0  0  0  0  0
  -28.8608  -24.2235   20.0750 C   0  0  0  0  0  0
  -27.8289  -22.6837   21.7101 C   0  0  0  0  0  0
  -29.9701  -16.7570   19.9466 C   0  0  0  0  0  0
  -29.2364  -21.7809   19.8263 C   0  0  0  0  0  0
  -28.2552  -25.4242   20.8486 C   0  0  0  0  0  0
  -29.9108  -15.5298   20.7570 N   0  0  0  0  0  0
  -28.7053  -22.9582   20.5628 N   0  0  0  0  0  0
  -29.4788  -24.4505   19.0281 O   0  0  0  0  0  0
  -31.4721  -12.3598   19.1464 H   0  0  0  0  0  0
  -30.3003  -11.2803   19.8448 H   0  0  0  0  0  0
  -29.7435  -11.7636   17.4361 H   0  0  0  0  0  0
  -29.6811  -13.4724   17.7735 H   0  0  0  0  0  0
  -27.8278  -11.3032   18.8198 H   0  0  0  0  0  0
  -27.3769  -12.6303   17.7855 H   0  0  0  0  0  0
  -27.7005  -14.2466   19.5590 H   0  0  0  0  0  0
  -28.6687  -11.9820   21.3735 H   0  0  0  0  0  0
  -28.4789  -13.6429   21.8559 H   0  0  0  0  0  0
  -25.2782   -9.5649   22.4748 H   0  0  0  0  0  0
  -23.9991   -7.4616   22.7454 H   0  0  0  0  0  0
  -21.0846   -8.8792   19.8958 H   0  0  0  0  0  0
  -22.3723  -10.9678   19.6153 H   0  0  0  0  0  0
  -21.2045   -7.6151   23.9721 H   0  0  0  0  0  0
  -21.1477   -6.0524   25.9078 H   0  0  0  0  0  0
  -22.0596   -2.7609   23.2827 H   0  0  0  0  0  0
  -22.4080  -11.9993   22.4890 H   0  0  0  0  0  0
  -21.1084  -13.1324   22.2531 H   0  0  0  0  0  0
  -24.6562  -15.8379   20.5149 H   0  0  0  0  0  0
  -26.2779  -15.6321   20.0863 H   0  0  0  0  0  0
  -26.7123  -32.5530   23.1149 H   0  0  0  0  0  0
  -25.0074  -33.9763   25.0469 H   0  0  0  0  0  0
  -22.6909  -31.3093   21.4107 H   0  0  0  0  0  0
  -23.3745  -35.9646   23.3268 H   0  0  0  0  0  0
  -24.3602  -36.8957   22.2053 H   0  0  0  0  0  0
  -23.7229  -37.6507   23.6664 H   0  0  0  0  0  0
  -26.0410  -31.6009   20.5899 H   0  0  0  0  0  0
  -26.8194  -30.8910   21.9764 H   0  0  0  0  0  0
  -28.1044  -29.1084   21.1573 H   0  0  0  0  0  0
  -26.0636  -25.9655   19.0210 H   0  0  0  0  0  0
  -23.9780  -27.2914   19.0367 H   0  0  0  0  0  0
  -23.7219  -30.6009   19.4049 H   0  0  0  0  0  0
  -22.7332  -29.2484   19.8655 H   0  0  0  0  0  0
  -25.1267  -36.1954   25.0819 H   0  0  0  0  0  0
  -20.9970  -28.3252   24.1427 H   0  0  0  0  0  0
  -20.5676  -26.2277   23.3612 H   0  0  0  0  0  0
  -21.6643  -26.7458   22.1211 H   0  0  0  0  0  0
  -19.6916  -25.6292   21.1242 H   0  0  0  0  0  0
  -19.6691  -27.3201   20.6751 H   0  0  0  0  0  0
  -17.4195  -26.6688   21.4018 H   0  0  0  0  0  0
  -18.0336  -26.0079   22.9013 H   0  0  0  0  0  0
  -19.7930  -30.7277   24.2291 H   0  0  0  0  0  0
  -17.5012  -31.6252   24.5171 H   0  0  0  0  0  0
  -15.5366  -30.2995   23.7639 H   0  0  0  0  0  0
  -15.8664  -28.0844   22.7035 H   0  0  0  0  0  0
  -24.5897  -30.7097   25.7826 H   0  0  0  0  0  0
  -24.8969  -32.2906   26.4911 H   0  0  0  0  0  0
  -25.8098  -30.8905   27.0217 H   0  0  0  0  0  0
  -26.2806  -29.6800   24.1138 H   0  0  0  0  0  0
  -27.4059  -29.7256   25.4530 H   0  0  0  0  0  0
  -27.8653  -30.4331   23.9210 H   0  0  0  0  0  0
  -27.2665  -33.3587   26.2089 H   0  0  0  0  0  0
  -28.3839  -32.6902   25.0273 H   0  0  0  0  0  0
  -28.0753  -31.8405   26.5340 H   0  0  0  0  0  0
  -28.2562  -38.0131   24.7562 H   0  0  0  0  0  0
  -28.1128  -36.2670   24.6168 H   0  0  0  0  0  0
  -27.2336  -37.1314   25.8857 H   0  0  0  0  0  0
  -20.9304  -29.8743   21.6920 H   0  0  0  0  0  0
  -26.0162  -38.2859   24.1480 H   0  0  0  0  0  0
  -31.1264  -19.5580   23.5768 H   0  0  0  0  0  0
  -30.9410  -17.3318   22.5035 H   0  0  0  0  0  0
  -30.3702  -21.5997   22.3996 H   0  0  0  0  0  0
  -29.2239  -19.1860   19.0086 H   0  0  0  0  0  0
  -26.8088  -23.0156   21.5148 H   0  0  0  0  0  0
  -28.1941  -23.1880   22.6059 H   0  0  0  0  0  0
  -27.7563  -21.6241   21.9483 H   0  0  0  0  0  0
  -30.7937  -16.7244   19.2314 H   0  0  0  0  0  0
  -29.0650  -16.7594   19.3374 H   0  0  0  0  0  0
  -28.4621  -21.4659   19.1256 H   0  0  0  0  0  0
  -30.0869  -22.0695   19.2075 H   0  0  0  0  0  0
  -28.7947  -25.5275   21.7902 H   0  0  0  0  0  0
  -27.2194  -25.2068   21.1117 H   0  0  0  0  0  0
  -29.0084  -15.3096   21.1485 H   0  0  0  0  0  0
  1 25  1  0  0  0
  1 30  2  0  0  0
  1 82  1  0  0  0
  2  3  1  0  0  0
  2 25  1  0  0  0
  2 85  1  0  0  0
  2 86  1  0  0  0
  3  4  1  0  0  0
  3 87  1  0  0  0
  3 88  1  0  0  0
  4  5  1  0  0  0
  4 89  1  0  0  0
  4 90  1  0  0  0
  5  6  1  0  0  0
  5 26  1  0  0  0
  5 91  1  0  0  0
  6 25  1  0  0  0
  6 92  1  0  0  0
  6 93  1  0  0  0
  7  8  2  0  0  0
  7 26  1  0  0  0
  7 29  1  0  0  0
  8  9  1  0  0  0
  8 22  1  0  0  0
  9 10  1  0  0  0
  9 27  2  0  0  0
 10 11  2  0  0  0
 10 15  1  0  0  0
 11 12  1  0  0  0
 11 94  1  0  0  0
 12 13  2  0  0  0
 12 95  1  0  0  0
 13 14  1  0  0  0
 13 31  1  0  0  0
 14 15  2  0  0  0
 14 96  1  0  0  0
 15 97  1  0  0  0
 16 17  2  0  0  0
 16 21  1  0  0  0
 16 31  1  0  0  0
 17 18  1  0  0  0
 17 98  1  0  0  0
 18 19  2  0  0  0
 18 99  1  0  0  0
 19 20  1  0  0  0
 19 24  1  0  0  0
 20 21  2  0  0  0
 20100  1  0  0  0
 21 23  1  0  0  0
 22 28  1  0  0  0
 22 32  2  0  0  0
 26 27  1  0  0  0
 28101  1  0  0  0
 28102  1  0  0  0
 29103  1  0  0  0
 29104  1  0  0  0
 33 34  1  0  0  0
 33 66  1  0  0  0
 33 70  2  0  0  0
 34 36  1  0  0  0
 34 59  1  0  0  0
 34105  1  0  0  0
 35 44  2  0  0  0
 35 45  1  0  0  0
 35 68  1  0  0  0
 36 56  1  0  0  0
 36106  1  0  0  0
 37 39  1  0  0  0
 37 47  1  0  0  0
 37 66  1  0  0  0
 37107  1  0  0  0
 38 43  2  0  0  0
 38 46  1  0  0  0
 38 47  1  0  0  0
 39 64  1  0  0  0
 39 67  2  0  0  0
 40 52  1  0  0  0
 40 53  2  0  0  0
 40 58  1  0  0  0
 41108  1  0  0  0
 41109  1  0  0  0
 41110  1  0  0  0
 41 48  1  0  0  0
 42 43  1  0  0  0
 42 66  1  0  0  0
 42111  1  0  0  0
 42112  1  0  0  0
 43 44  1  0  0  0
 44113  1  0  0  0
 45 46  2  0  0  0
 45114  1  0  0  0
 46115  1  0  0  0
 47116  1  0  0  0
 47117  1  0  0  0
 48 56  1  0  0  0
 48 65  1  0  0  0
 48118  1  0  0  0
 49 50  1  0  0  0
 49 53  1  0  0  0
 49 64  1  0  0  0
 49119  1  0  0  0
 50 51  1  0  0  0
 50120  1  0  0  0
 50121  1  0  0  0
 51 52  1  0  0  0
 51122  1  0  0  0
 51123  1  0  0  0
 52124  1  0  0  0
 52125  1  0  0  0
 53 54  1  0  0  0
 54 55  2  0  0  0
 54126  1  0  0  0
 55 57  1  0  0  0
 55127  1  0  0  0
 56 69  2  0  0  0
 57 58  2  0  0  0
 57128  1  0  0  0
 58129  1  0  0  0
 59 60  1  0  0  0
 59 61  1  0  0  0
 59 62  1  0  0  0
 60130  1  0  0  0
 60131  1  0  0  0
 60132  1  0  0  0
 61133  1  0  0  0
 61134  1  0  0  0
 61135  1  0  0  0
 62136  1  0  0  0
 62137  1  0  0  0
 62138  1  0  0  0
 63 65  1  0  0  0
 63139  1  0  0  0
 63140  1  0  0  0
 63141  1  0  0  0
 64142  1  0  0  0
 65143  1  0  0  0
 68 81  1  0  0  0
 71 72  2  0  0  0
 71 73  1  0  0  0
 71144  1  0  0  0
 72 75  1  0  0  0
 72145  1  0  0  0
 73 76  2  0  0  0
 73146  1  0  0  0
 74 75  2  0  0  0
 74 76  1  0  0  0
 74147  1  0  0  0
 75 79  1  0  0  0
 76 80  1  0  0  0
 77 81  1  0  0  0
 77 83  1  0  0  0
 77 84  2  0  0  0
 78 83  1  0  0  0
 78148  1  0  0  0
 78149  1  0  0  0
 78150  1  0  0  0
 79 82  1  0  0  0
 79151  1  0  0  0
 79152  1  0  0  0
 80 83  1  0  0  0
 80153  1  0  0  0
 80154  1  0  0  0
 81155  1  0  0  0
 81156  1  0  0  0
 82157  1  0  0  0
M  ISO  4   1 100  68 101  81 101  82 100
M  END
> <chiral flag>
0

> <version>
0

> <s_m_source_file>
/data/baiqing/PycharmProjects/Reinvent-master-3.2/result/LINK_invent/BTK/process_docking_weight1_custom_product_contain_oxygen_bond_distance_aromatic_linkinvent_7_9_3/rearranged_h_0054.sdf

> <i_m_source_file_index>
5

> <r_mmod_Potential_Energy-OPLS-2005>
-50.4874992370605

> <r_mmod_Stretch_Energy-OPLS-2005>
41.7106285095215

> <r_mmod_Bend_Energy-OPLS-2005>
95.9486389160156

> <r_mmod_Torsional_Energy-OPLS-2005>
247.216125488281

> <r_mmod_Improper_Torsional_Energy-OPLS-2005>
10.4926977157593

> <r_mmod_Van_der_Waal_Energy-OPLS-2005>
163.264556884766

> <r_mmod_Electrostatic_Energy-OPLS-2005>
-382.54931640625

> <r_mmod_Solvation_Energy-OPLS-2005>
-241.812683105469

> <b_mmod_Minimization_Converged-OPLS-2005>
0

> <r_mmod_RMS_Derivative-OPLS-2005>
2.57291460037231

$$$$
5
                    3D
 Structure written by MMmdl.
154162  0  0  1  0            999 V2000
  -30.5905  -14.7238   20.4238 C   0  0  0  0  0  0
  -30.4386  -12.4145   19.4921 C   0  0  0  0  0  0
  -29.5193  -12.4254   18.2505 C   0  0  0  0  0  0
  -28.0315  -12.3246   18.6444 C   0  0  0  0  0  0
  -27.6439  -13.2246   19.8490 C   0  0  2  0  0  0
  -28.6829  -13.1377   20.9857 C   0  0  0  0  0  0
  -25.2521  -13.8167   20.5704 C   0  0  0  0  0  0
  -24.1795  -13.0427   20.9222 C   0  0  0  0  0  0
  -24.6380  -11.6902   20.8759 C   0  0  0  0  0  0
  -23.9054  -10.4275   21.0417 C   0  0  0  0  0  0
  -24.3604   -9.4174   21.9183 C   0  0  0  0  0  0
  -23.6272   -8.2212   22.0720 C   0  0  0  0  0  0
  -22.4246   -8.0278   21.3519 C   0  0  0  0  0  0
  -21.9901   -9.0258   20.4611 C   0  0  0  0  0  0
  -22.7243  -10.2135   20.3042 C   0  0  0  0  0  0
  -21.6835   -6.0745   22.5290 C   0  0  0  0  0  0
  -21.4026   -6.5637   23.8238 C   0  0  0  0  0  0
  -21.3651   -5.6763   24.9188 C   0  0  0  0  0  0
  -21.6021   -4.3031   24.7225 C   0  0  0  0  0  0
  -21.8811   -3.8141   23.4337 C   0  0  0  0  0  0
  -21.9184   -4.6970   22.3399 C   0  0  0  0  0  0
  -22.7813  -13.5219   21.1898 C   0  0  0  0  0  0
  -22.1655   -4.2169   21.0980 F   0  0  0  0  0  0
  -21.5614   -3.4504   25.7733 F   0  0  0  0  0  0
  -29.9891  -13.4858   20.4123 N   0  0  0  0  0  0
  -26.2930  -12.9364   20.3247 N   0  0  0  0  0  0
  -25.9300  -11.6517   20.5720 N   0  0  0  0  0  0
  -22.0422  -12.8213   22.0438 N   0  0  0  0  0  0
  -25.4268  -15.1895   20.4204 N   0  0  0  0  0  0
  -31.7745  -14.8338   20.0878 O   0  0  0  0  0  0
  -21.6589   -6.8897   21.4251 O   0  0  0  0  0  0
  -22.3506  -14.5530   20.6759 O   0  0  0  0  0  0
  -24.6321  -31.8551   23.1988 C   0  0  0  0  0  0
  -25.9145  -32.4747   23.8334 C   0  0  1  0  0  0
  -27.2235  -27.2514   20.1214 C   0  0  0  0  0  0
  -25.5928  -33.8551   24.2259 N   0  0  0  0  0  0
  -23.4308  -30.4805   21.5406 C   0  0  2  0  0  0
  -24.8802  -28.9303   20.1054 C   0  0  0  0  0  0
  -22.7511  -29.4619   22.4871 C   0  0  0  0  0  0
  -18.0297  -28.1429   22.8466 C   0  0  0  0  0  0
  -24.1486  -36.7280   23.2643 C   0  0  0  0  0  0
  -25.9796  -30.7623   21.3856 C   0  0  0  0  0  0
  -26.0509  -29.3850   20.7245 C   0  0  0  0  0  0
  -27.2215  -28.5565   20.7279 C   0  0  0  0  0  0
  -26.0323  -26.8823   19.4525 C   0  0  0  0  0  0
  -24.8770  -27.6865   19.4590 C   0  0  0  0  0  0
  -23.6514  -29.8181   20.1550 C   0  0  0  0  0  0
  -25.4113  -36.3065   24.0332 C   0  0  1  0  0  0
  -20.5904  -28.3741   23.1242 C   0  0  2  0  0  0
  -20.6786  -26.9446   22.5411 C   0  0  0  0  0  0
  -19.5764  -26.6402   21.5213 C   0  0  0  0  0  0
  -18.1943  -26.7966   22.1617 C   0  0  0  0  0  0
  -19.1550  -28.8898   23.2854 C   0  0  0  0  0  0
  -18.9477  -30.1495   23.8875 C   0  0  0  0  0  0
  -17.6474  -30.6614   24.0575 C   0  0  0  0  0  0
  -25.9055  -34.9432   23.5099 C   0  0  0  0  0  0
  -16.5362  -29.9114   23.6340 C   0  0  0  0  0  0
  -16.7286  -28.6546   23.0330 C   0  0  0  0  0  0
  -26.4499  -31.6573   25.0730 C   0  0  0  0  0  0
  -25.3708  -31.3781   26.1452 C   0  0  0  0  0  0
  -27.0329  -30.2963   24.6269 C   0  0  0  0  0  0
  -27.6082  -32.4297   25.7467 C   0  0  0  0  0  0
  -27.5584  -37.1784   24.8458 C   0  0  0  0  0  0
  -21.4212  -29.3075   22.3616 N   0  0  0  0  0  0
  -26.4287  -37.3765   23.9411 N   0  0  0  0  0  0
  -24.7000  -31.0508   22.0972 N   0  0  0  0  0  0
  -23.4199  -28.8141   23.2970 O   0  0  0  0  0  0
  -28.3069  -26.3349   20.2018 O   0  0  0  0  0  0
  -26.5633  -34.8913   22.4671 O   0  0  0  0  0  0
  -23.5467  -32.1378   23.7263 O   0  0  0  0  0  0
  -29.7611  -19.7835   18.7076 C   0  0  0  0  0  0
  -29.9163  -18.5920   17.9746 C   0  0  0  0  0  0
  -29.6256  -18.4412   20.7301 C   0  0  0  0  0  0
  -29.5747  -19.7559   20.1009 C   0  0  0  0  0  0
  -29.9082  -17.3183   18.5904 C   0  0  0  0  0  0
  -29.8253  -17.1914   20.0089 C   0  0  0  0  0  0
  -28.9995  -23.7383   20.5133 C   0  0  0  0  0  0
  -29.9076  -16.1116   17.6669 C   0  0  0  0  0  0
  -29.3971  -21.1412   20.8685 C   0  0  0  0  0  0
  -28.0776  -24.8780   19.8549 C   0  0  0  0  0  0
  -29.8034  -15.8449   20.6479 N   0  0  0  0  0  0
  -28.8437  -22.3958   20.1836 N   0  0  0  0  0  0
  -29.8300  -24.0731   21.3611 O   0  0  0  0  0  0
  -31.4765  -12.5442   19.1789 H   0  0  0  0  0  0
  -30.4004  -11.4427   19.9872 H   0  0  0  0  0  0
  -29.7782  -11.5887   17.6002 H   0  0  0  0  0  0
  -29.6949  -13.3202   17.6595 H   0  0  0  0  0  0
  -27.8319  -11.2796   18.8862 H   0  0  0  0  0  0
  -27.4025  -12.5597   17.7860 H   0  0  0  0  0  0
  -27.6482  -14.2498   19.4798 H   0  0  0  0  0  0
  -28.7051  -12.1315   21.4079 H   0  0  0  0  0  0
  -28.4181  -13.8072   21.8051 H   0  0  0  0  0  0
  -25.2754   -9.5632   22.4753 H   0  0  0  0  0  0
  -23.9973   -7.4567   22.7404 H   0  0  0  0  0  0
  -21.0844   -8.8790   19.8890 H   0  0  0  0  0  0
  -22.3721  -10.9681   19.6137 H   0  0  0  0  0  0
  -21.2049   -7.6142   23.9779 H   0  0  0  0  0  0
  -21.1472   -6.0473   25.9103 H   0  0  0  0  0  0
  -22.0605   -2.7606   23.2810 H   0  0  0  0  0  0
  -22.4009  -11.9906   22.4908 H   0  0  0  0  0  0
  -21.1033  -13.1258   22.2596 H   0  0  0  0  0  0
  -24.6732  -15.8500   20.5725 H   0  0  0  0  0  0
  -26.2825  -15.6309   20.1103 H   0  0  0  0  0  0
  -26.7209  -32.5398   23.1075 H   0  0  0  0  0  0
  -25.0042  -33.9683   25.0380 H   0  0  0  0  0  0
  -22.7290  -31.3048   21.3944 H   0  0  0  0  0  0
  -23.3750  -35.9608   23.3292 H   0  0  0  0  0  0
  -24.3582  -36.8918   22.2061 H   0  0  0  0  0  0
  -23.7234  -37.6475   23.6678 H   0  0  0  0  0  0
  -26.1272  -31.5239   20.6186 H   0  0  0  0  0  0
  -26.8531  -30.8061   22.0247 H   0  0  0  0  0  0
  -28.1119  -28.8962   21.2380 H   0  0  0  0  0  0
  -25.9548  -25.9475   18.9189 H   0  0  0  0  0  0
  -23.9853  -27.3398   18.9550 H   0  0  0  0  0  0
  -23.7783  -30.5974   19.4026 H   0  0  0  0  0  0
  -22.7696  -29.2549   19.8460 H   0  0  0  0  0  0
  -25.1292  -36.1910   25.0824 H   0  0  0  0  0  0
  -21.0009  -28.3354   24.1358 H   0  0  0  0  0  0
  -20.5679  -26.2364   23.3637 H   0  0  0  0  0  0
  -21.6659  -26.7466   22.1216 H   0  0  0  0  0  0
  -19.6926  -25.6299   21.1280 H   0  0  0  0  0  0
  -19.6715  -27.3185   20.6721 H   0  0  0  0  0  0
  -17.4214  -26.6699   21.4023 H   0  0  0  0  0  0
  -18.0343  -26.0132   22.9036 H   0  0  0  0  0  0
  -19.7952  -30.7323   24.2226 H   0  0  0  0  0  0
  -17.5033  -31.6282   24.5196 H   0  0  0  0  0  0
  -15.5368  -30.3012   23.7685 H   0  0  0  0  0  0
  -15.8687  -28.0883   22.7020 H   0  0  0  0  0  0
  -24.5857  -30.7157   25.7789 H   0  0  0  0  0  0
  -24.8928  -32.2979   26.4834 H   0  0  0  0  0  0
  -25.7995  -30.8977   27.0255 H   0  0  0  0  0  0
  -26.2926  -29.6703   24.1275 H   0  0  0  0  0  0
  -27.3940  -29.7247   25.4830 H   0  0  0  0  0  0
  -27.8843  -30.4186   23.9570 H   0  0  0  0  0  0
  -27.2729  -33.3608   26.2041 H   0  0  0  0  0  0
  -28.3872  -32.6827   25.0263 H   0  0  0  0  0  0
  -28.0769  -31.8415   26.5366 H   0  0  0  0  0  0
  -28.2604  -38.0078   24.7496 H   0  0  0  0  0  0
  -28.1073  -36.2610   24.6275 H   0  0  0  0  0  0
  -27.2315  -37.1435   25.8866 H   0  0  0  0  0  0
  -20.9400  -29.8808   21.6823 H   0  0  0  0  0  0
  -26.0167  -38.2837   24.1417 H   0  0  0  0  0  0
  -29.7833  -20.7285   18.1827 H   0  0  0  0  0  0
  -30.0215  -18.6702   16.9008 H   0  0  0  0  0  0
  -29.5089  -18.3882   21.8041 H   0  0  0  0  0  0
  -29.7413  -16.3992   16.6292 H   0  0  0  0  0  0
  -29.0946  -15.4393   17.9390 H   0  0  0  0  0  0
  -30.8521  -15.5709   17.7071 H   0  0  0  0  0  0
  -30.3748  -21.3841   21.2870 H   0  0  0  0  0  0
  -28.7555  -20.9407   21.7277 H   0  0  0  0  0  0
  -27.0701  -24.5888   20.1526 H   0  0  0  0  0  0
  -28.1289  -24.7716   18.7702 H   0  0  0  0  0  0
  -28.9677  -15.6512   21.1798 H   0  0  0  0  0  0
  -28.1552  -22.2120   19.4668 H   0  0  0  0  0  0
  1 25  1  0  0  0
  1 30  2  0  0  0
  1 81  1  0  0  0
  2  3  1  0  0  0
  2 25  1  0  0  0
  2 84  1  0  0  0
  2 85  1  0  0  0
  3  4  1  0  0  0
  3 86  1  0  0  0
  3 87  1  0  0  0
  4  5  1  0  0  0
  4 88  1  0  0  0
  4 89  1  0  0  0
  5  6  1  0  0  0
  5 26  1  0  0  0
  5 90  1  0  0  0
  6 25  1  0  0  0
  6 91  1  0  0  0
  6 92  1  0  0  0
  7  8  2  0  0  0
  7 26  1  0  0  0
  7 29  1  0  0  0
  8  9  1  0  0  0
  8 22  1  0  0  0
  9 10  1  0  0  0
  9 27  2  0  0  0
 10 11  2  0  0  0
 10 15  1  0  0  0
 11 12  1  0  0  0
 11 93  1  0  0  0
 12 13  2  0  0  0
 12 94  1  0  0  0
 13 14  1  0  0  0
 13 31  1  0  0  0
 14 15  2  0  0  0
 14 95  1  0  0  0
 15 96  1  0  0  0
 16 17  2  0  0  0
 16 21  1  0  0  0
 16 31  1  0  0  0
 17 18  1  0  0  0
 17 97  1  0  0  0
 18 19  2  0  0  0
 18 98  1  0  0  0
 19 20  1  0  0  0
 19 24  1  0  0  0
 20 21  2  0  0  0
 20 99  1  0  0  0
 21 23  1  0  0  0
 22 28  1  0  0  0
 22 32  2  0  0  0
 26 27  1  0  0  0
 28100  1  0  0  0
 28101  1  0  0  0
 29102  1  0  0  0
 29103  1  0  0  0
 33 34  1  0  0  0
 33 66  1  0  0  0
 33 70  2  0  0  0
 34 36  1  0  0  0
 34 59  1  0  0  0
 34104  1  0  0  0
 35 44  2  0  0  0
 35 45  1  0  0  0
 35 68  1  0  0  0
 36 56  1  0  0  0
 36105  1  0  0  0
 37 39  1  0  0  0
 37 47  1  0  0  0
 37 66  1  0  0  0
 37106  1  0  0  0
 38 43  2  0  0  0
 38 46  1  0  0  0
 38 47  1  0  0  0
 39 64  1  0  0  0
 39 67  2  0  0  0
 40 52  1  0  0  0
 40 53  2  0  0  0
 40 58  1  0  0  0
 41107  1  0  0  0
 41108  1  0  0  0
 41109  1  0  0  0
 41 48  1  0  0  0
 42 43  1  0  0  0
 42 66  1  0  0  0
 42110  1  0  0  0
 42111  1  0  0  0
 43 44  1  0  0  0
 44112  1  0  0  0
 45 46  2  0  0  0
 45113  1  0  0  0
 46114  1  0  0  0
 47115  1  0  0  0
 47116  1  0  0  0
 48 56  1  0  0  0
 48 65  1  0  0  0
 48117  1  0  0  0
 49 50  1  0  0  0
 49 53  1  0  0  0
 49 64  1  0  0  0
 49118  1  0  0  0
 50 51  1  0  0  0
 50119  1  0  0  0
 50120  1  0  0  0
 51 52  1  0  0  0
 51121  1  0  0  0
 51122  1  0  0  0
 52123  1  0  0  0
 52124  1  0  0  0
 53 54  1  0  0  0
 54 55  2  0  0  0
 54125  1  0  0  0
 55 57  1  0  0  0
 55126  1  0  0  0
 56 69  2  0  0  0
 57 58  2  0  0  0
 57127  1  0  0  0
 58128  1  0  0  0
 59 60  1  0  0  0
 59 61  1  0  0  0
 59 62  1  0  0  0
 60129  1  0  0  0
 60130  1  0  0  0
 60131  1  0  0  0
 61132  1  0  0  0
 61133  1  0  0  0
 61134  1  0  0  0
 62135  1  0  0  0
 62136  1  0  0  0
 62137  1  0  0  0
 63 65  1  0  0  0
 63138  1  0  0  0
 63139  1  0  0  0
 63140  1  0  0  0
 64141  1  0  0  0
 65142  1  0  0  0
 68 80  1  0  0  0
 71 72  2  0  0  0
 71 74  1  0  0  0
 71143  1  0  0  0
 72 75  1  0  0  0
 72144  1  0  0  0
 73 74  2  0  0  0
 73 76  1  0  0  0
 73145  1  0  0  0
 74 79  1  0  0  0
 75 76  2  0  0  0
 75 78  1  0  0  0
 76 81  1  0  0  0
 77 80  1  0  0  0
 77 82  1  0  0  0
 77 83  2  0  0  0
 78146  1  0  0  0
 78147  1  0  0  0
 78148  1  0  0  0
 79 82  1  0  0  0
 79149  1  0  0  0
 79150  1  0  0  0
 80151  1  0  0  0
 80152  1  0  0  0
 81153  1  0  0  0
 82154  1  0  0  0
M  ISO  4   1 100  68 101  80 101  81 100
M  END
> <chiral flag>
0

> <version>
0

> <s_m_source_file>
/data/baiqing/PycharmProjects/Reinvent-master-3.2/result/LINK_invent/BTK/process_docking_weight1_custom_product_contain_oxygen_bond_distance_aromatic_linkinvent_7_9_3/rearranged_h_0054.sdf

> <i_m_source_file_index>
6

> <r_mmod_Potential_Energy-OPLS-2005>
82.4742660522461

> <r_mmod_Stretch_Energy-OPLS-2005>
127.186416625977

> <r_mmod_Bend_Energy-OPLS-2005>
155.467315673828

> <r_mmod_Torsional_Energy-OPLS-2005>
240.650726318359

> <r_mmod_Improper_Torsional_Energy-OPLS-2005>
5.33831644058228

> <r_mmod_Van_der_Waal_Energy-OPLS-2005>
140.646057128906

> <r_mmod_Electrostatic_Energy-OPLS-2005>
-420.516448974609

> <r_mmod_Solvation_Energy-OPLS-2005>
-253.785736083984

> <b_mmod_Minimization_Converged-OPLS-2005>
0

> <r_mmod_RMS_Derivative-OPLS-2005>
2.67704463005066

$$$$
6
                    3D
 Structure written by MMmdl.
164173  0  0  1  0            999 V2000
  -30.7014  -14.4417   20.5520 C   0  0  0  0  0  0
  -30.4186  -12.2794   19.4217 C   0  0  0  0  0  0
  -29.4946  -12.4961   18.2051 C   0  0  0  0  0  0
  -28.0141  -12.3631   18.6149 C   0  0  0  0  0  0
  -27.6632  -13.2005   19.8739 C   0  0  2  0  0  0
  -28.7018  -12.9724   20.9968 C   0  0  0  0  0  0
  -25.2616  -13.8148   20.5666 C   0  0  0  0  0  0
  -24.1851  -13.0441   20.9158 C   0  0  0  0  0  0
  -24.6384  -11.6900   20.8711 C   0  0  0  0  0  0
  -23.9041  -10.4291   21.0391 C   0  0  0  0  0  0
  -24.3597   -9.4212   21.9179 C   0  0  0  0  0  0
  -23.6281   -8.2244   22.0758 C   0  0  0  0  0  0
  -22.4262   -8.0277   21.3547 C   0  0  0  0  0  0
  -21.9890   -9.0242   20.4644 C   0  0  0  0  0  0
  -22.7211  -10.2125   20.3050 C   0  0  0  0  0  0
  -21.6856   -6.0728   22.5275 C   0  0  0  0  0  0
  -21.4016   -6.5631   23.8208 C   0  0  0  0  0  0
  -21.3657   -5.6786   24.9175 C   0  0  0  0  0  0
  -21.6040   -4.3049   24.7218 C   0  0  0  0  0  0
  -21.8818   -3.8140   23.4340 C   0  0  0  0  0  0
  -21.9196   -4.6959   22.3400 C   0  0  0  0  0  0
  -22.7873  -13.5257   21.1827 C   0  0  0  0  0  0
  -22.1666   -4.2144   21.0978 F   0  0  0  0  0  0
  -21.5628   -3.4539   25.7732 F   0  0  0  0  0  0
  -30.0377  -13.2611   20.4483 N   0  0  0  0  0  0
  -26.3031  -12.9297   20.3343 N   0  0  0  0  0  0
  -25.9307  -11.6466   20.5738 N   0  0  0  0  0  0
  -22.0507  -12.8242   22.0366 N   0  0  0  0  0  0
  -25.4379  -15.1863   20.4076 N   0  0  0  0  0  0
  -31.8324  -14.6205   20.0924 O   0  0  0  0  0  0
  -21.6641   -6.8864   21.4239 O   0  0  0  0  0  0
  -22.3558  -14.5566   20.6683 O   0  0  0  0  0  0
  -24.6152  -31.8707   23.2143 C   0  0  0  0  0  0
  -25.9046  -32.4845   23.8422 C   0  0  1  0  0  0
  -27.2163  -27.4232   20.0960 C   0  0  0  0  0  0
  -25.5906  -33.8642   24.2347 N   0  0  0  0  0  0
  -23.4016  -30.4986   21.5552 C   0  0  2  0  0  0
  -24.8436  -28.9713   20.1112 C   0  0  0  0  0  0
  -22.7419  -29.4674   22.4997 C   0  0  0  0  0  0
  -18.0284  -28.1380   22.8506 C   0  0  0  0  0  0
  -24.1497  -36.7322   23.2637 C   0  0  0  0  0  0
  -25.9347  -30.8272   21.3743 C   0  0  0  0  0  0
  -26.0063  -29.4646   20.7176 C   0  0  0  0  0  0
  -27.1947  -28.6964   20.7115 C   0  0  0  0  0  0
  -26.0427  -26.9736   19.4429 C   0  0  0  0  0  0
  -24.8574  -27.7246   19.4713 C   0  0  0  0  0  0
  -23.6080  -29.8404   20.1667 C   0  0  0  0  0  0
  -25.4117  -36.3127   24.0340 C   0  0  1  0  0  0
  -20.5876  -28.3662   23.1329 C   0  0  2  0  0  0
  -20.6787  -26.9402   22.5427 C   0  0  0  0  0  0
  -19.5757  -26.6379   21.5237 C   0  0  0  0  0  0
  -18.1924  -26.7920   22.1639 C   0  0  0  0  0  0
  -19.1538  -28.8835   23.2915 C   0  0  0  0  0  0
  -18.9467  -30.1448   23.8916 C   0  0  0  0  0  0
  -17.6465  -30.6585   24.0576 C   0  0  0  0  0  0
  -25.9045  -34.9491   23.5141 C   0  0  0  0  0  0
  -16.5358  -29.9090   23.6332 C   0  0  0  0  0  0
  -16.7274  -28.6506   23.0345 C   0  0  0  0  0  0
  -26.4450  -31.6626   25.0759 C   0  0  0  0  0  0
  -25.3700  -31.3731   26.1503 C   0  0  0  0  0  0
  -27.0285  -30.3079   24.6121 C   0  0  0  0  0  0
  -27.6026  -32.4340   25.7504 C   0  0  0  0  0  0
  -27.5594  -37.1812   24.8454 C   0  0  0  0  0  0
  -21.4144  -29.3043   22.3736 N   0  0  0  0  0  0
  -26.4305  -37.3814   23.9409 N   0  0  0  0  0  0
  -24.6689  -31.0797   22.1056 N   0  0  0  0  0  0
  -23.4186  -28.8211   23.3030 O   0  0  0  0  0  0
  -28.3642  -26.6521   20.1254 O   0  0  0  0  0  0
  -26.5594  -34.8923   22.4693 O   0  0  0  0  0  0
  -23.5339  -32.1475   23.7519 O   0  0  0  0  0  0
  -30.0183  -19.3090   21.1432 C   0  0  0  0  0  0
  -29.4401  -17.6786   22.8639 C   0  0  0  0  0  0
  -29.3582  -20.0690   23.3591 C   0  0  0  0  0  0
  -29.8620  -17.9611   21.5460 C   0  0  0  0  0  0
  -29.7737  -20.3731   22.0441 C   0  0  0  0  0  0
  -29.1892  -18.7303   23.7649 C   0  0  0  0  0  0
  -28.0923  -23.4167   22.1347 C   0  0  0  0  0  0
  -27.2880  -22.9810   23.1198 C   0  0  0  0  0  0
  -28.4300  -24.8825   21.8502 C   0  0  0  0  0  0
  -29.0888  -24.3634   19.5143 C   0  0  0  0  0  0
  -28.7189  -22.8775   19.7270 C   0  0  0  0  0  0
  -28.1815  -25.2404   20.3795 C   0  0  2  0  0  0
  -30.1806  -16.8592   20.5407 C   0  0  0  0  0  0
  -29.9852  -21.8294   21.6208 C   0  0  0  0  0  0
  -29.9564  -15.4754   20.9754 N   0  0  0  0  0  0
  -28.7178  -22.4539   21.1586 N   0  3  1  0  0  0
  -28.6838  -18.3757   25.3753 Cl  0  0  0  0  0  0
  -31.4656  -12.3645   19.1232 H   0  0  0  0  0  0
  -30.3047  -11.2676   19.8105 H   0  0  0  0  0  0
  -29.7282  -11.7748   17.4212 H   0  0  0  0  0  0
  -29.6725  -13.4821   17.7749 H   0  0  0  0  0  0
  -27.8174  -11.3069   18.8037 H   0  0  0  0  0  0
  -27.3672  -12.6443   17.7831 H   0  0  0  0  0  0
  -27.7096  -14.2482   19.5775 H   0  0  0  0  0  0
  -28.6656  -11.9356   21.3346 H   0  0  0  0  0  0
  -28.4706  -13.5751   21.8766 H   0  0  0  0  0  0
  -25.2741   -9.5701   22.4750 H   0  0  0  0  0  0
  -23.9993   -7.4638   22.7475 H   0  0  0  0  0  0
  -21.0828   -8.8744   19.8943 H   0  0  0  0  0  0
  -22.3662  -10.9661   19.6154 H   0  0  0  0  0  0
  -21.2003   -7.6135   23.9711 H   0  0  0  0  0  0
  -21.1484   -6.0517   25.9075 H   0  0  0  0  0  0
  -22.0596   -2.7602   23.2845 H   0  0  0  0  0  0
  -22.4112  -11.9905   22.4763 H   0  0  0  0  0  0
  -21.1120  -13.1264   22.2550 H   0  0  0  0  0  0
  -24.6749  -15.8467   20.5086 H   0  0  0  0  0  0
  -26.2939  -15.6195   20.0837 H   0  0  0  0  0  0
  -26.7111  -32.5532   23.1167 H   0  0  0  0  0  0
  -25.0089  -33.9825   25.0511 H   0  0  0  0  0  0
  -22.6917  -31.3172   21.4187 H   0  0  0  0  0  0
  -23.3768  -35.9643   23.3296 H   0  0  0  0  0  0
  -24.3600  -36.8953   22.2058 H   0  0  0  0  0  0
  -23.7238  -37.6523   23.6650 H   0  0  0  0  0  0
  -26.0555  -31.5930   20.6061 H   0  0  0  0  0  0
  -26.8213  -30.8734   21.9951 H   0  0  0  0  0  0
  -28.0882  -29.0638   21.1957 H   0  0  0  0  0  0
  -26.0219  -26.0460   18.8905 H   0  0  0  0  0  0
  -23.9709  -27.3496   18.9800 H   0  0  0  0  0  0
  -23.7161  -30.6208   19.4125 H   0  0  0  0  0  0
  -22.7294  -29.2657   19.8684 H   0  0  0  0  0  0
  -25.1282  -36.2008   25.0834 H   0  0  0  0  0  0
  -20.9973  -28.3232   24.1446 H   0  0  0  0  0  0
  -20.5768  -26.2252   23.3610 H   0  0  0  0  0  0
  -21.6647  -26.7483   22.1161 H   0  0  0  0  0  0
  -19.6942  -25.6300   21.1245 H   0  0  0  0  0  0
  -19.6704  -27.3204   20.6777 H   0  0  0  0  0  0
  -17.4212  -26.6707   21.4025 H   0  0  0  0  0  0
  -18.0306  -26.0045   22.9005 H   0  0  0  0  0  0
  -19.7947  -30.7275   24.2265 H   0  0  0  0  0  0
  -17.5020  -31.6262   24.5172 H   0  0  0  0  0  0
  -15.5365  -30.3004   23.7641 H   0  0  0  0  0  0
  -15.8670  -28.0845   22.7032 H   0  0  0  0  0  0
  -24.5875  -30.7072   25.7835 H   0  0  0  0  0  0
  -24.8866  -32.2893   26.4928 H   0  0  0  0  0  0
  -25.8042  -30.8924   27.0280 H   0  0  0  0  0  0
  -26.2846  -29.6874   24.1115 H   0  0  0  0  0  0
  -27.4033  -29.7277   25.4557 H   0  0  0  0  0  0
  -27.8673  -30.4428   23.9286 H   0  0  0  0  0  0
  -27.2656  -33.3648   26.2070 H   0  0  0  0  0  0
  -28.3831  -32.6913   25.0330 H   0  0  0  0  0  0
  -28.0682  -31.8473   26.5437 H   0  0  0  0  0  0
  -28.2576  -38.0146   24.7555 H   0  0  0  0  0  0
  -28.1140  -36.2685   24.6210 H   0  0  0  0  0  0
  -27.2310  -37.1357   25.8855 H   0  0  0  0  0  0
  -20.9292  -29.8778   21.6982 H   0  0  0  0  0  0
  -26.0207  -38.2898   24.1415 H   0  0  0  0  0  0
  -30.3478  -19.5217   20.1343 H   0  0  0  0  0  0
  -29.3164  -16.6616   23.2042 H   0  0  0  0  0  0
  -29.1760  -20.8597   24.0724 H   0  0  0  0  0  0
  -26.8285  -23.6775   23.8067 H   0  0  0  0  0  0
  -27.0683  -21.9328   23.2642 H   0  0  0  0  0  0
  -29.4653  -25.0769   22.1277 H   0  0  0  0  0  0
  -27.8174  -25.5170   22.4919 H   0  0  0  0  0  0
  -28.9641  -24.6221   18.4625 H   0  0  0  0  0  0
  -30.1385  -24.5398   19.7552 H   0  0  0  0  0  0
  -29.3538  -22.2263   19.1240 H   0  0  0  0  0  0
  -27.7091  -22.7151   19.3512 H   0  0  0  0  0  0
  -27.1626  -24.9154   20.1829 H   0  0  0  0  0  0
  -31.2125  -17.0093   20.2174 H   0  0  0  0  0  0
  -29.5642  -17.0258   19.6556 H   0  0  0  0  0  0
  -30.7554  -21.8739   20.8495 H   0  0  0  0  0  0
  -30.3894  -22.3919   22.4635 H   0  0  0  0  0  0
  -29.0437  -15.2532   21.3415 H   0  0  0  0  0  0
  -28.1097  -21.6496   21.1308 H   0  0  0  0  0  0
  1 25  1  0  0  0
  1 30  2  0  0  0
  1 85  1  0  0  0
  2  3  1  0  0  0
  2 25  1  0  0  0
  2 88  1  0  0  0
  2 89  1  0  0  0
  3  4  1  0  0  0
  3 90  1  0  0  0
  3 91  1  0  0  0
  4  5  1  0  0  0
  4 92  1  0  0  0
  4 93  1  0  0  0
  5  6  1  0  0  0
  5 26  1  0  0  0
  5 94  1  0  0  0
  6 25  1  0  0  0
  6 95  1  0  0  0
  6 96  1  0  0  0
  7  8  2  0  0  0
  7 26  1  0  0  0
  7 29  1  0  0  0
  8  9  1  0  0  0
  8 22  1  0  0  0
  9 10  1  0  0  0
  9 27  2  0  0  0
 10 11  2  0  0  0
 10 15  1  0  0  0
 11 12  1  0  0  0
 11 97  1  0  0  0
 12 13  2  0  0  0
 12 98  1  0  0  0
 13 14  1  0  0  0
 13 31  1  0  0  0
 14 15  2  0  0  0
 14 99  1  0  0  0
 15100  1  0  0  0
 16 17  2  0  0  0
 16 21  1  0  0  0
 16 31  1  0  0  0
 17 18  1  0  0  0
 17101  1  0  0  0
 18 19  2  0  0  0
 18102  1  0  0  0
 19 20  1  0  0  0
 19 24  1  0  0  0
 20 21  2  0  0  0
 20103  1  0  0  0
 21 23  1  0  0  0
 22 28  1  0  0  0
 22 32  2  0  0  0
 26 27  1  0  0  0
 28104  1  0  0  0
 28105  1  0  0  0
 29106  1  0  0  0
 29107  1  0  0  0
 33 34  1  0  0  0
 33 66  1  0  0  0
 33 70  2  0  0  0
 34 36  1  0  0  0
 34 59  1  0  0  0
 34108  1  0  0  0
 35 44  2  0  0  0
 35 45  1  0  0  0
 35 68  1  0  0  0
 36 56  1  0  0  0
 36109  1  0  0  0
 37 39  1  0  0  0
 37 47  1  0  0  0
 37 66  1  0  0  0
 37110  1  0  0  0
 38 43  2  0  0  0
 38 46  1  0  0  0
 38 47  1  0  0  0
 39 64  1  0  0  0
 39 67  2  0  0  0
 40 52  1  0  0  0
 40 53  2  0  0  0
 40 58  1  0  0  0
 41111  1  0  0  0
 41112  1  0  0  0
 41113  1  0  0  0
 41 48  1  0  0  0
 42 43  1  0  0  0
 42 66  1  0  0  0
 42114  1  0  0  0
 42115  1  0  0  0
 43 44  1  0  0  0
 44116  1  0  0  0
 45 46  2  0  0  0
 45117  1  0  0  0
 46118  1  0  0  0
 47119  1  0  0  0
 47120  1  0  0  0
 48 56  1  0  0  0
 48 65  1  0  0  0
 48121  1  0  0  0
 49 50  1  0  0  0
 49 53  1  0  0  0
 49 64  1  0  0  0
 49122  1  0  0  0
 50 51  1  0  0  0
 50123  1  0  0  0
 50124  1  0  0  0
 51 52  1  0  0  0
 51125  1  0  0  0
 51126  1  0  0  0
 52127  1  0  0  0
 52128  1  0  0  0
 53 54  1  0  0  0
 54 55  2  0  0  0
 54129  1  0  0  0
 55 57  1  0  0  0
 55130  1  0  0  0
 56 69  2  0  0  0
 57 58  2  0  0  0
 57131  1  0  0  0
 58132  1  0  0  0
 59 60  1  0  0  0
 59 61  1  0  0  0
 59 62  1  0  0  0
 60133  1  0  0  0
 60134  1  0  0  0
 60135  1  0  0  0
 61136  1  0  0  0
 61137  1  0  0  0
 61138  1  0  0  0
 62139  1  0  0  0
 62140  1  0  0  0
 62141  1  0  0  0
 63 65  1  0  0  0
 63142  1  0  0  0
 63143  1  0  0  0
 63144  1  0  0  0
 64145  1  0  0  0
 65146  1  0  0  0
 68 82  1  0  0  0
 71 74  2  0  0  0
 71 75  1  0  0  0
 71147  1  0  0  0
 72 74  1  0  0  0
 72 76  2  0  0  0
 72148  1  0  0  0
 73 75  2  0  0  0
 73 76  1  0  0  0
 73149  1  0  0  0
 74 83  1  0  0  0
 75 84  1  0  0  0
 76 87  1  0  0  0
 77 78  2  0  0  0
 77 79  1  0  0  0
 77 86  1  0  0  0
 78150  1  0  0  0
 78151  1  0  0  0
 79 82  1  0  0  0
 79152  1  0  0  0
 79153  1  0  0  0
 80 81  1  0  0  0
 80 82  1  0  0  0
 80154  1  0  0  0
 80155  1  0  0  0
 81 86  1  0  0  0
 81156  1  0  0  0
 81157  1  0  0  0
 82158  1  0  0  0
 83 85  1  0  0  0
 83159  1  0  0  0
 83160  1  0  0  0
 84161  1  0  0  0
 84162  1  0  0  0
 84 86  1  0  0  0
 85163  1  0  0  0
 86164  1  0  0  0
M  CHG  1  86   1
M  ISO  4   1 100  68 101  82 101  85 100
M  END
> <chiral flag>
0

> <version>
0

> <s_m_source_file>
/data/baiqing/PycharmProjects/Reinvent-master-3.2/result/LINK_invent/BTK/process_docking_weight1_custom_product_contain_oxygen_bond_distance_aromatic_linkinvent_7_9_3/rearranged_h_0054.sdf

> <i_m_source_file_index>
7

> <r_mmod_Potential_Energy-OPLS-2005>
-214.645172119141

> <r_mmod_Stretch_Energy-OPLS-2005>
38.0754203796387

> <r_mmod_Bend_Energy-OPLS-2005>
104.831527709961

> <r_mmod_Torsional_Energy-OPLS-2005>
230.164367675781

> <r_mmod_Improper_Torsional_Energy-OPLS-2005>
6.5138053894043

> <r_mmod_Van_der_Waal_Energy-OPLS-2005>
159.148376464844

> <r_mmod_Electrostatic_Energy-OPLS-2005>
-310.412933349609

> <r_mmod_Solvation_Energy-OPLS-2005>
-457.538696289062

> <b_mmod_Minimization_Converged-OPLS-2005>
0

> <r_mmod_RMS_Derivative-OPLS-2005>
2.33960843086243

$$$$
7
                    3D
 Structure written by MMmdl.
161169  0  0  1  0            999 V2000
  -30.6308  -14.5246   20.6441 C   0  0  0  0  0  0
  -30.4463  -12.3512   19.4436 C   0  0  0  0  0  0
  -29.5178  -12.4790   18.2145 C   0  0  0  0  0  0
  -28.0291  -12.3720   18.6098 C   0  0  0  0  0  0
  -27.6625  -13.2002   19.8721 C   0  0  2  0  0  0
  -28.6894  -12.9517   20.9943 C   0  0  0  0  0  0
  -25.2587  -13.8142   20.5586 C   0  0  0  0  0  0
  -24.1824  -13.0422   20.9122 C   0  0  0  0  0  0
  -24.6337  -11.6885   20.8653 C   0  0  0  0  0  0
  -23.8995  -10.4291   21.0380 C   0  0  0  0  0  0
  -24.3553   -9.4225   21.9174 C   0  0  0  0  0  0
  -23.6239   -8.2247   22.0772 C   0  0  0  0  0  0
  -22.4224   -8.0253   21.3549 C   0  0  0  0  0  0
  -21.9828   -9.0236   20.4657 C   0  0  0  0  0  0
  -22.7151  -10.2125   20.3052 C   0  0  0  0  0  0
  -21.6881   -6.0657   22.5252 C   0  0  0  0  0  0
  -21.4018   -6.5565   23.8174 C   0  0  0  0  0  0
  -21.3672   -5.6736   24.9154 C   0  0  0  0  0  0
  -21.6061   -4.2996   24.7219 C   0  0  0  0  0  0
  -21.8838   -3.8070   23.4349 C   0  0  0  0  0  0
  -21.9205   -4.6878   22.3394 C   0  0  0  0  0  0
  -22.7854  -13.5280   21.1795 C   0  0  0  0  0  0
  -22.1697   -4.2029   21.0986 F   0  0  0  0  0  0
  -21.5643   -3.4507   25.7764 F   0  0  0  0  0  0
  -30.0125  -13.3217   20.4606 N   0  0  0  0  0  0
  -26.3000  -12.9283   20.3237 N   0  0  0  0  0  0
  -25.9247  -11.6446   20.5584 N   0  0  0  0  0  0
  -22.0462  -12.8322   22.0368 N   0  0  0  0  0  0
  -25.4312  -15.1845   20.3958 N   0  0  0  0  0  0
  -31.7706  -14.7618   20.2220 O   0  0  0  0  0  0
  -21.6643   -6.8801   21.4215 O   0  0  0  0  0  0
  -22.3563  -14.5578   20.6612 O   0  0  0  0  0  0
  -24.6145  -31.8692   23.2188 C   0  0  0  0  0  0
  -25.9076  -32.4816   23.8457 C   0  0  1  0  0  0
  -27.2408  -27.4711   20.1027 C   0  0  0  0  0  0
  -25.5954  -33.8625   24.2435 N   0  0  0  0  0  0
  -23.3948  -30.4986   21.5544 C   0  0  2  0  0  0
  -24.8384  -28.9654   20.1164 C   0  0  0  0  0  0
  -22.7398  -29.4674   22.5000 C   0  0  0  0  0  0
  -18.0268  -28.1403   22.8383 C   0  0  0  0  0  0
  -24.1474  -36.7303   23.2626 C   0  0  0  0  0  0
  -25.9155  -30.8612   21.3476 C   0  0  0  0  0  0
  -25.9938  -29.4924   20.7017 C   0  0  0  0  0  0
  -27.1920  -28.7521   20.6874 C   0  0  0  0  0  0
  -26.0547  -26.9382   19.5357 C   0  0  0  0  0  0
  -24.8608  -27.6859   19.5325 C   0  0  0  0  0  0
  -23.6024  -29.8358   20.1647 C   0  0  0  0  0  0
  -25.4074  -36.3117   24.0374 C   0  0  1  0  0  0
  -20.5861  -28.3649   23.1281 C   0  0  2  0  0  0
  -20.6783  -26.9463   22.5218 C   0  0  0  0  0  0
  -19.5790  -26.6557   21.4973 C   0  0  0  0  0  0
  -18.1951  -26.8027   22.1384 C   0  0  0  0  0  0
  -19.1529  -28.8833   23.2867 C   0  0  0  0  0  0
  -18.9451  -30.1384   23.8960 C   0  0  0  0  0  0
  -17.6454  -30.6532   24.0635 C   0  0  0  0  0  0
  -25.9006  -34.9479   23.5199 C   0  0  0  0  0  0
  -16.5334  -29.9068   23.6323 C   0  0  0  0  0  0
  -16.7261  -28.6535   23.0258 C   0  0  0  0  0  0
  -26.4559  -31.6572   25.0723 C   0  0  0  0  0  0
  -25.3899  -31.3591   26.1512 C   0  0  0  0  0  0
  -27.0420  -30.3063   24.6006 C   0  0  0  0  0  0
  -27.6190  -32.4227   25.7473 C   0  0  0  0  0  0
  -27.5577  -37.1790   24.8483 C   0  0  0  0  0  0
  -21.4140  -29.3034   22.3740 N   0  0  0  0  0  0
  -26.4263  -37.3791   23.9463 N   0  0  0  0  0  0
  -24.6609  -31.0890   22.1002 N   0  0  0  0  0  0
  -23.4190  -28.8166   23.2995 O   0  0  0  0  0  0
  -28.4522  -26.8180   20.1245 O   0  0  0  0  0  0
  -26.5530  -34.8922   22.4713 O   0  0  0  0  0  0
  -23.5371  -32.1408   23.7631 O   0  0  0  0  0  0
  -30.5692  -18.3981   23.4007 C   0  0  0  0  0  0
  -30.1776  -19.4803   22.5972 C   0  0  0  0  0  0
  -30.4881  -17.0840   22.8996 C   0  0  0  0  0  0
  -29.7174  -19.2634   21.2836 C   0  0  0  0  0  0
  -29.7161  -17.9412   20.7427 C   0  0  0  0  0  0
  -30.0808  -16.8332   21.5654 C   0  0  0  0  0  0
  -28.0490  -23.1483   20.4092 C   0  0  0  0  0  0
  -27.9745  -24.4779   20.6184 C   0  0  0  0  0  0
  -27.4555  -22.1789   21.3149 C   0  0  0  0  0  0
  -29.3293  -17.7167   19.2853 C   0  0  0  0  0  0
  -26.9103  -19.7943   21.3962 C   0  0  0  0  0  0
  -29.1447  -20.4793   20.5446 C   0  0  0  0  0  0
  -28.5611  -25.4854   19.6482 C   0  0  0  0  0  0
  -29.8192  -15.4820   21.1638 N   0  0  0  0  0  0
  -27.8198  -20.8943   21.0570 N   0  0  0  0  0  0
  -26.5938  -22.4614   22.1556 O   0  0  0  0  0  0
  -31.4905  -12.4966   19.1601 H   0  0  0  0  0  0
  -30.3849  -11.3417   19.8564 H   0  0  0  0  0  0
  -29.7484  -11.6812   17.5070 H   0  0  0  0  0  0
  -29.7113  -13.4135   17.6888 H   0  0  0  0  0  0
  -27.8168  -11.3187   18.7911 H   0  0  0  0  0  0
  -27.3989  -12.6711   17.7710 H   0  0  0  0  0  0
  -27.7156  -14.2528   19.5936 H   0  0  0  0  0  0
  -28.6773  -11.8958   21.2701 H   0  0  0  0  0  0
  -28.4253  -13.4860   21.9094 H   0  0  0  0  0  0
  -25.2674   -9.5713   22.4760 H   0  0  0  0  0  0
  -23.9914   -7.4654   22.7529 H   0  0  0  0  0  0
  -21.0732   -8.8775   19.8988 H   0  0  0  0  0  0
  -22.3574  -10.9674   19.6177 H   0  0  0  0  0  0
  -21.2005   -7.6061   23.9650 H   0  0  0  0  0  0
  -21.1481   -6.0464   25.9053 H   0  0  0  0  0  0
  -22.0590   -2.7510   23.2915 H   0  0  0  0  0  0
  -22.4023  -11.9994   22.4820 H   0  0  0  0  0  0
  -21.1121  -13.1459   22.2582 H   0  0  0  0  0  0
  -24.6508  -15.8256   20.4782 H   0  0  0  0  0  0
  -26.2318  -15.5979   19.9368 H   0  0  0  0  0  0
  -26.7140  -32.5583   23.1223 H   0  0  0  0  0  0
  -25.0273  -33.9793   25.0713 H   0  0  0  0  0  0
  -22.6790  -31.3149   21.4269 H   0  0  0  0  0  0
  -23.3735  -35.9634   23.3270 H   0  0  0  0  0  0
  -24.3543  -36.8902   22.2029 H   0  0  0  0  0  0
  -23.7232  -37.6507   23.6622 H   0  0  0  0  0  0
  -25.9997  -31.6246   20.5719 H   0  0  0  0  0  0
  -26.8095  -30.9292   21.9524 H   0  0  0  0  0  0
  -28.0854  -29.1679   21.1287 H   0  0  0  0  0  0
  -26.0326  -25.9460   19.1092 H   0  0  0  0  0  0
  -23.9630  -27.2686   19.1006 H   0  0  0  0  0  0
  -23.7250  -30.6210   19.4188 H   0  0  0  0  0  0
  -22.7266  -29.2663   19.8521 H   0  0  0  0  0  0
  -25.1222  -36.1971   25.0865 H   0  0  0  0  0  0
  -20.9933  -28.3117   24.1409 H   0  0  0  0  0  0
  -20.5704  -26.2181   23.3264 H   0  0  0  0  0  0
  -21.6660  -26.7597   22.0982 H   0  0  0  0  0  0
  -19.6968  -25.6550   21.0806 H   0  0  0  0  0  0
  -19.6768  -27.3515   20.6633 H   0  0  0  0  0  0
  -17.4243  -26.6864   21.3726 H   0  0  0  0  0  0
  -18.0364  -26.0062   22.8682 H   0  0  0  0  0  0
  -19.7922  -30.7152   24.2418 H   0  0  0  0  0  0
  -17.5001  -31.6172   24.5334 H   0  0  0  0  0  0
  -15.5348  -30.2962   23.7688 H   0  0  0  0  0  0
  -15.8648  -28.0905   22.6897 H   0  0  0  0  0  0
  -24.6127  -30.6858   25.7868 H   0  0  0  0  0  0
  -24.9031  -32.2706   26.5017 H   0  0  0  0  0  0
  -25.8329  -30.8770   27.0250 H   0  0  0  0  0  0
  -26.2956  -29.6708   24.1211 H   0  0  0  0  0  0
  -27.4451  -29.7356   25.4383 H   0  0  0  0  0  0
  -27.8660  -30.4429   23.8982 H   0  0  0  0  0  0
  -27.2929  -33.3551   26.2097 H   0  0  0  0  0  0
  -28.4015  -32.6703   25.0286 H   0  0  0  0  0  0
  -28.0864  -31.8289   26.5343 H   0  0  0  0  0  0
  -28.2599  -38.0075   24.7506 H   0  0  0  0  0  0
  -28.1042  -36.2607   24.6302 H   0  0  0  0  0  0
  -27.2290  -37.1459   25.8877 H   0  0  0  0  0  0
  -20.9296  -29.8776   21.6981 H   0  0  0  0  0  0
  -26.0152  -38.2862   24.1457 H   0  0  0  0  0  0
  -30.8769  -18.5856   24.4209 H   0  0  0  0  0  0
  -30.1965  -20.4822   23.0070 H   0  0  0  0  0  0
  -30.7123  -16.2695   23.5688 H   0  0  0  0  0  0
  -28.5419  -22.8031   19.5147 H   0  0  0  0  0  0
  -27.4843  -24.8752   21.4990 H   0  0  0  0  0  0
  -28.2661  -17.8691   19.0937 H   0  0  0  0  0  0
  -29.5901  -16.7189   18.9437 H   0  0  0  0  0  0
  -29.8935  -18.4009   18.6527 H   0  0  0  0  0  0
  -27.1040  -19.4360   22.4068 H   0  0  0  0  0  0
  -27.0378  -18.9558   20.7137 H   0  0  0  0  0  0
  -25.8637  -20.0946   21.3214 H   0  0  0  0  0  0
  -29.0755  -20.3294   19.4682 H   0  0  0  0  0  0
  -29.8687  -21.2815   20.6963 H   0  0  0  0  0  0
  -28.1443  -25.3724   18.6482 H   0  0  0  0  0  0
  -29.6261  -25.2725   19.5424 H   0  0  0  0  0  0
  -28.8627  -15.1853   21.2895 H   0  0  0  0  0  0
  1 25  1  0  0  0
  1 30  2  0  0  0
  1 84  1  0  0  0
  2  3  1  0  0  0
  2 25  1  0  0  0
  2 87  1  0  0  0
  2 88  1  0  0  0
  3  4  1  0  0  0
  3 89  1  0  0  0
  3 90  1  0  0  0
  4  5  1  0  0  0
  4 91  1  0  0  0
  4 92  1  0  0  0
  5  6  1  0  0  0
  5 26  1  0  0  0
  5 93  1  0  0  0
  6 25  1  0  0  0
  6 94  1  0  0  0
  6 95  1  0  0  0
  7  8  2  0  0  0
  7 26  1  0  0  0
  7 29  1  0  0  0
  8  9  1  0  0  0
  8 22  1  0  0  0
  9 10  1  0  0  0
  9 27  2  0  0  0
 10 11  2  0  0  0
 10 15  1  0  0  0
 11 12  1  0  0  0
 11 96  1  0  0  0
 12 13  2  0  0  0
 12 97  1  0  0  0
 13 14  1  0  0  0
 13 31  1  0  0  0
 14 15  2  0  0  0
 14 98  1  0  0  0
 15 99  1  0  0  0
 16 17  2  0  0  0
 16 21  1  0  0  0
 16 31  1  0  0  0
 17 18  1  0  0  0
 17100  1  0  0  0
 18 19  2  0  0  0
 18101  1  0  0  0
 19 20  1  0  0  0
 19 24  1  0  0  0
 20 21  2  0  0  0
 20102  1  0  0  0
 21 23  1  0  0  0
 22 28  1  0  0  0
 22 32  2  0  0  0
 26 27  1  0  0  0
 28103  1  0  0  0
 28104  1  0  0  0
 29105  1  0  0  0
 29106  1  0  0  0
 33 34  1  0  0  0
 33 66  1  0  0  0
 33 70  2  0  0  0
 34 36  1  0  0  0
 34 59  1  0  0  0
 34107  1  0  0  0
 35 44  2  0  0  0
 35 45  1  0  0  0
 35 68  1  0  0  0
 36 56  1  0  0  0
 36108  1  0  0  0
 37 39  1  0  0  0
 37 47  1  0  0  0
 37 66  1  0  0  0
 37109  1  0  0  0
 38 43  2  0  0  0
 38 46  1  0  0  0
 38 47  1  0  0  0
 39 64  1  0  0  0
 39 67  2  0  0  0
 40 52  1  0  0  0
 40 53  2  0  0  0
 40 58  1  0  0  0
 41110  1  0  0  0
 41111  1  0  0  0
 41112  1  0  0  0
 41 48  1  0  0  0
 42 43  1  0  0  0
 42 66  1  0  0  0
 42113  1  0  0  0
 42114  1  0  0  0
 43 44  1  0  0  0
 44115  1  0  0  0
 45 46  2  0  0  0
 45116  1  0  0  0
 46117  1  0  0  0
 47118  1  0  0  0
 47119  1  0  0  0
 48 56  1  0  0  0
 48 65  1  0  0  0
 48120  1  0  0  0
 49 50  1  0  0  0
 49 53  1  0  0  0
 49 64  1  0  0  0
 49121  1  0  0  0
 50 51  1  0  0  0
 50122  1  0  0  0
 50123  1  0  0  0
 51 52  1  0  0  0
 51124  1  0  0  0
 51125  1  0  0  0
 52126  1  0  0  0
 52127  1  0  0  0
 53 54  1  0  0  0
 54 55  2  0  0  0
 54128  1  0  0  0
 55 57  1  0  0  0
 55129  1  0  0  0
 56 69  2  0  0  0
 57 58  2  0  0  0
 57130  1  0  0  0
 58131  1  0  0  0
 59 60  1  0  0  0
 59 61  1  0  0  0
 59 62  1  0  0  0
 60132  1  0  0  0
 60133  1  0  0  0
 60134  1  0  0  0
 61135  1  0  0  0
 61136  1  0  0  0
 61137  1  0  0  0
 62138  1  0  0  0
 62139  1  0  0  0
 62140  1  0  0  0
 63 65  1  0  0  0
 63141  1  0  0  0
 63142  1  0  0  0
 63143  1  0  0  0
 64144  1  0  0  0
 65145  1  0  0  0
 68 83  1  0  0  0
 71 72  2  0  0  0
 71 73  1  0  0  0
 71146  1  0  0  0
 72 74  1  0  0  0
 72147  1  0  0  0
 73 76  2  0  0  0
 73148  1  0  0  0
 74 75  2  0  0  0
 74 82  1  0  0  0
 75 76  1  0  0  0
 75 80  1  0  0  0
 76 84  1  0  0  0
 77 78  2  0  0  0
 77 79  1  0  0  0
 77149  1  0  0  0
 78 83  1  0  0  0
 78150  1  0  0  0
 79 85  1  0  0  0
 79 86  2  0  0  0
 80151  1  0  0  0
 80152  1  0  0  0
 80153  1  0  0  0
 81 85  1  0  0  0
 81154  1  0  0  0
 81155  1  0  0  0
 81156  1  0  0  0
 82 85  1  0  0  0
 82157  1  0  0  0
 82158  1  0  0  0
 83159  1  0  0  0
 83160  1  0  0  0
 84161  1  0  0  0
M  ISO  4   1 100  68 101  83 101  84 100
M  END
> <chiral flag>
0

> <version>
0

> <s_m_source_file>
/data/baiqing/PycharmProjects/Reinvent-master-3.2/result/LINK_invent/BTK/process_docking_weight1_custom_product_contain_oxygen_bond_distance_aromatic_linkinvent_7_9_3/rearranged_h_0054.sdf

> <i_m_source_file_index>
8

> <r_mmod_Potential_Energy-OPLS-2005>
-34.2925148010254

> <r_mmod_Stretch_Energy-OPLS-2005>
41.7156066894531

> <r_mmod_Bend_Energy-OPLS-2005>
108.179817199707

> <r_mmod_Torsional_Energy-OPLS-2005>
269.932556152344

> <r_mmod_Improper_Torsional_Energy-OPLS-2005>
7.54167127609253

> <r_mmod_Van_der_Waal_Energy-OPLS-2005>
163.907150268555

> <r_mmod_Electrostatic_Energy-OPLS-2005>
-415.056518554688

> <r_mmod_Solvation_Energy-OPLS-2005>
-231.154418945312

> <b_mmod_Minimization_Converged-OPLS-2005>
0

> <r_mmod_RMS_Derivative-OPLS-2005>
7.10248374938965

$$$$
8
                    3D
 Structure written by MMmdl.
161169  0  0  1  0            999 V2000
  -30.5813  -14.7306   20.3640 C   0  0  0  0  0  0
  -30.4185  -12.4239   19.4430 C   0  0  0  0  0  0
  -29.4857  -12.4613   18.2113 C   0  0  0  0  0  0
  -28.0186  -12.2889   18.6470 C   0  0  0  0  0  0
  -27.6280  -13.2175   19.8251 C   0  0  2  0  0  0
  -28.6781  -13.1811   20.9551 C   0  0  0  0  0  0
  -25.2482  -13.8211   20.5699 C   0  0  0  0  0  0
  -24.1779  -13.0465   20.9228 C   0  0  0  0  0  0
  -24.6340  -11.6937   20.8780 C   0  0  0  0  0  0
  -23.9018  -10.4344   21.0420 C   0  0  0  0  0  0
  -24.3583   -9.4249   21.9185 C   0  0  0  0  0  0
  -23.6273   -8.2270   22.0781 C   0  0  0  0  0  0
  -22.4262   -8.0305   21.3559 C   0  0  0  0  0  0
  -21.9886   -9.0286   20.4655 C   0  0  0  0  0  0
  -22.7212  -10.2160   20.3063 C   0  0  0  0  0  0
  -21.6852   -6.0728   22.5287 C   0  0  0  0  0  0
  -21.4004   -6.5619   23.8230 C   0  0  0  0  0  0
  -21.3659   -5.6772   24.9193 C   0  0  0  0  0  0
  -21.6046   -4.3047   24.7241 C   0  0  0  0  0  0
  -21.8811   -3.8137   23.4367 C   0  0  0  0  0  0
  -21.9183   -4.6950   22.3410 C   0  0  0  0  0  0
  -22.7810  -13.5275   21.1926 C   0  0  0  0  0  0
  -22.1655   -4.2137   21.0991 F   0  0  0  0  0  0
  -21.5632   -3.4539   25.7740 F   0  0  0  0  0  0
  -29.9732  -13.5016   20.3513 N   0  0  0  0  0  0
  -26.2869  -12.9377   20.3212 N   0  0  0  0  0  0
  -25.9251  -11.6550   20.5774 N   0  0  0  0  0  0
  -22.0446  -12.8233   22.0450 N   0  0  0  0  0  0
  -25.4142  -15.1957   20.4125 N   0  0  0  0  0  0
  -31.7893  -14.8307   20.1308 O   0  0  0  0  0  0
  -21.6647   -6.8876   21.4249 O   0  0  0  0  0  0
  -22.3485  -14.5604   20.6799 O   0  0  0  0  0  0
  -24.6340  -31.8491   23.1905 C   0  0  0  0  0  0
  -25.9154  -32.4690   23.8186 C   0  0  1  0  0  0
  -27.1985  -27.2359   20.0784 C   0  0  0  0  0  0
  -25.5976  -33.8484   24.2110 N   0  0  0  0  0  0
  -23.4288  -30.4743   21.5387 C   0  0  2  0  0  0
  -24.8662  -28.9251   20.0998 C   0  0  0  0  0  0
  -22.7496  -29.4560   22.4877 C   0  0  0  0  0  0
  -18.0313  -28.1408   22.8412 C   0  0  0  0  0  0
  -24.1543  -36.7301   23.2633 C   0  0  0  0  0  0
  -25.9840  -30.7325   21.3914 C   0  0  0  0  0  0
  -26.0387  -29.3627   20.7234 C   0  0  0  0  0  0
  -27.1996  -28.5212   20.7237 C   0  0  0  0  0  0
  -26.0071  -26.8924   19.4084 C   0  0  0  0  0  0
  -24.8525  -27.6865   19.4434 C   0  0  0  0  0  0
  -23.6428  -29.8113   20.1515 C   0  0  0  0  0  0
  -25.4175  -36.3000   24.0263 C   0  0  1  0  0  0
  -20.5897  -28.3707   23.1259 C   0  0  2  0  0  0
  -20.6831  -26.9436   22.5397 C   0  0  0  0  0  0
  -19.5802  -26.6378   21.5227 C   0  0  0  0  0  0
  -18.1958  -26.7941   22.1615 C   0  0  0  0  0  0
  -19.1556  -28.8876   23.2820 C   0  0  0  0  0  0
  -18.9498  -30.1467   23.8842 C   0  0  0  0  0  0
  -17.6507  -30.6568   24.0577 C   0  0  0  0  0  0
  -25.9108  -34.9373   23.5002 C   0  0  0  0  0  0
  -16.5378  -29.9074   23.6373 C   0  0  0  0  0  0
  -16.7318  -28.6532   23.0281 C   0  0  0  0  0  0
  -26.4532  -31.6508   25.0599 C   0  0  0  0  0  0
  -25.3689  -31.3678   26.1260 C   0  0  0  0  0  0
  -27.0414  -30.2931   24.6108 C   0  0  0  0  0  0
  -27.6031  -32.4343   25.7351 C   0  0  0  0  0  0
  -27.5614  -37.1772   24.8450 C   0  0  0  0  0  0
  -21.4223  -29.3036   22.3621 N   0  0  0  0  0  0
  -26.4359  -37.3695   23.9356 N   0  0  0  0  0  0
  -24.7007  -31.0382   22.0926 N   0  0  0  0  0  0
  -23.4174  -28.8109   23.3001 O   0  0  0  0  0  0
  -28.2954  -26.3356   20.1423 O   0  0  0  0  0  0
  -26.5707  -34.8867   22.4592 O   0  0  0  0  0  0
  -23.5484  -32.1406   23.7145 O   0  0  0  0  0  0
  -28.1163  -18.2598   19.0318 C   0  0  0  0  0  0
  -27.3470  -19.3390   18.5457 C   0  0  0  0  0  0
  -29.4430  -19.8755   20.2758 C   0  0  0  0  0  0
  -29.2091  -18.4929   19.8921 C   0  0  0  0  0  0
  -27.6354  -20.6877   18.8787 C   0  0  0  0  0  0
  -28.6751  -21.0177   19.7949 C   0  0  0  0  0  0
  -24.7273  -23.8547   21.4301 C   0  0  0  0  0  0
  -25.8150  -23.8896   20.6421 C   0  0  0  0  0  0
  -27.1531  -23.6666   21.1696 C   0  0  0  0  0  0
  -26.8523  -21.7466   18.1288 C   0  0  0  0  0  0
  -30.2020  -17.3029   20.2501 C   0  0  0  0  0  0
  -29.0937  -22.5383   20.1334 C   0  0  0  0  0  0
  -28.3103  -25.0267   19.4340 C   0  0  0  0  0  0
  -29.7705  -15.8512   20.3919 N   0  0  0  0  0  0
  -28.1219  -23.7318   20.2310 N   0  0  0  0  0  0
  -27.3856  -23.2683   22.3136 O   0  0  0  0  0  0
  -31.4579  -12.5468   19.1333 H   0  0  0  0  0  0
  -30.3590  -11.4568   19.9432 H   0  0  0  0  0  0
  -29.7614  -11.6730   17.5083 H   0  0  0  0  0  0
  -29.5995  -13.4037   17.6744 H   0  0  0  0  0  0
  -27.8862  -11.2489   18.9431 H   0  0  0  0  0  0
  -27.3453  -12.4469   17.8009 H   0  0  0  0  0  0
  -27.6106  -14.2215   19.4031 H   0  0  0  0  0  0
  -28.7179  -12.2088   21.4416 H   0  0  0  0  0  0
  -28.4293  -13.9081   21.7274 H   0  0  0  0  0  0
  -25.2754   -9.5713   22.4745 H   0  0  0  0  0  0
  -23.9991   -7.4660   22.7500 H   0  0  0  0  0  0
  -21.0829   -8.8792   19.8949 H   0  0  0  0  0  0
  -22.3706  -10.9675   19.6159 H   0  0  0  0  0  0
  -21.2000   -7.6141   23.9731 H   0  0  0  0  0  0
  -21.1477   -6.0505   25.9084 H   0  0  0  0  0  0
  -22.0582   -2.7599   23.2870 H   0  0  0  0  0  0
  -22.4027  -11.9801   22.4698 H   0  0  0  0  0  0
  -21.1127  -13.1291   22.2833 H   0  0  0  0  0  0
  -24.6333  -15.8365   20.5181 H   0  0  0  0  0  0
  -26.2602  -15.6507   20.0959 H   0  0  0  0  0  0
  -26.7118  -32.5265   23.0798 H   0  0  0  0  0  0
  -25.0121  -33.9573   25.0265 H   0  0  0  0  0  0
  -22.7288  -31.2979   21.3790 H   0  0  0  0  0  0
  -23.3747  -35.9689   23.3317 H   0  0  0  0  0  0
  -24.3634  -36.8965   22.2048 H   0  0  0  0  0  0
  -23.7358  -37.6503   23.6715 H   0  0  0  0  0  0
  -26.1553  -31.4885   20.6223 H   0  0  0  0  0  0
  -26.8498  -30.7537   22.0418 H   0  0  0  0  0  0
  -28.0838  -28.8359   21.2610 H   0  0  0  0  0  0
  -25.9103  -25.9795   18.8519 H   0  0  0  0  0  0
  -23.9615  -27.3401   18.9363 H   0  0  0  0  0  0
  -23.7759  -30.5885   19.3979 H   0  0  0  0  0  0
  -22.7614  -29.2460   19.8417 H   0  0  0  0  0  0
  -25.1344  -36.1866   25.0747 H   0  0  0  0  0  0
  -20.9963  -28.3299   24.1401 H   0  0  0  0  0  0
  -20.5871  -26.2265   23.3564 H   0  0  0  0  0  0
  -21.6683  -26.7546   22.1085 H   0  0  0  0  0  0
  -19.7028  -25.6301   21.1239 H   0  0  0  0  0  0
  -19.6799  -27.3202   20.6756 H   0  0  0  0  0  0
  -17.4261  -26.6676   21.3987 H   0  0  0  0  0  0
  -18.0359  -26.0088   22.9018 H   0  0  0  0  0  0
  -19.7959  -30.7278   24.2154 H   0  0  0  0  0  0
  -17.5055  -31.6242   24.5196 H   0  0  0  0  0  0
  -15.5365  -30.2951   23.7731 H   0  0  0  0  0  0
  -15.8706  -28.0884   22.6932 H   0  0  0  0  0  0
  -24.5873  -30.7077   25.7509 H   0  0  0  0  0  0
  -24.8877  -32.2837   26.4672 H   0  0  0  0  0  0
  -25.7901  -30.8799   27.0060 H   0  0  0  0  0  0
  -26.3005  -29.6580   24.1232 H   0  0  0  0  0  0
  -27.4217  -29.7261   25.4592 H   0  0  0  0  0  0
  -27.8791  -30.4193   23.9264 H   0  0  0  0  0  0
  -27.2612  -33.3696   26.1806 H   0  0  0  0  0  0
  -28.3844  -32.6874   25.0167 H   0  0  0  0  0  0
  -28.0678  -31.8582   26.5359 H   0  0  0  0  0  0
  -28.2540  -38.0136   24.7505 H   0  0  0  0  0  0
  -28.1189  -36.2638   24.6306 H   0  0  0  0  0  0
  -27.2299  -37.1459   25.8837 H   0  0  0  0  0  0
  -20.9421  -29.8803   21.6852 H   0  0  0  0  0  0
  -26.0238  -38.2767   24.1334 H   0  0  0  0  0  0
  -27.8933  -17.2627   18.6682 H   0  0  0  0  0  0
  -26.5560  -19.1243   17.8359 H   0  0  0  0  0  0
  -30.2932  -20.0623   20.9175 H   0  0  0  0  0  0
  -23.7382  -23.9794   21.0134 H   0  0  0  0  0  0
  -24.7902  -23.7019   22.5011 H   0  0  0  0  0  0
  -25.6725  -24.0467   19.5863 H   0  0  0  0  0  0
  -26.4707  -21.3449   17.1897 H   0  0  0  0  0  0
  -27.4814  -22.6001   17.8677 H   0  0  0  0  0  0
  -25.9926  -22.0702   18.7110 H   0  0  0  0  0  0
  -30.7599  -17.5795   21.1425 H   0  0  0  0  0  0
  -30.9318  -17.3053   19.4383 H   0  0  0  0  0  0
  -29.8625  -22.7946   19.4077 H   0  0  0  0  0  0
  -29.6303  -22.5011   21.0830 H   0  0  0  0  0  0
  -27.6751  -24.9993   18.5495 H   0  0  0  0  0  0
  -29.3240  -24.9682   19.0291 H   0  0  0  0  0  0
  -28.7811  -15.6879   20.4831 H   0  0  0  0  0  0
  1 25  1  0  0  0
  1 30  2  0  0  0
  1 84  1  0  0  0
  2  3  1  0  0  0
  2 25  1  0  0  0
  2 87  1  0  0  0
  2 88  1  0  0  0
  3  4  1  0  0  0
  3 89  1  0  0  0
  3 90  1  0  0  0
  4  5  1  0  0  0
  4 91  1  0  0  0
  4 92  1  0  0  0
  5  6  1  0  0  0
  5 26  1  0  0  0
  5 93  1  0  0  0
  6 25  1  0  0  0
  6 94  1  0  0  0
  6 95  1  0  0  0
  7  8  2  0  0  0
  7 26  1  0  0  0
  7 29  1  0  0  0
  8  9  1  0  0  0
  8 22  1  0  0  0
  9 10  1  0  0  0
  9 27  2  0  0  0
 10 11  2  0  0  0
 10 15  1  0  0  0
 11 12  1  0  0  0
 11 96  1  0  0  0
 12 13  2  0  0  0
 12 97  1  0  0  0
 13 14  1  0  0  0
 13 31  1  0  0  0
 14 15  2  0  0  0
 14 98  1  0  0  0
 15 99  1  0  0  0
 16 17  2  0  0  0
 16 21  1  0  0  0
 16 31  1  0  0  0
 17 18  1  0  0  0
 17100  1  0  0  0
 18 19  2  0  0  0
 18101  1  0  0  0
 19 20  1  0  0  0
 19 24  1  0  0  0
 20 21  2  0  0  0
 20102  1  0  0  0
 21 23  1  0  0  0
 22 28  1  0  0  0
 22 32  2  0  0  0
 26 27  1  0  0  0
 28103  1  0  0  0
 28104  1  0  0  0
 29105  1  0  0  0
 29106  1  0  0  0
 33 34  1  0  0  0
 33 66  1  0  0  0
 33 70  2  0  0  0
 34 36  1  0  0  0
 34 59  1  0  0  0
 34107  1  0  0  0
 35 44  2  0  0  0
 35 45  1  0  0  0
 35 68  1  0  0  0
 36 56  1  0  0  0
 36108  1  0  0  0
 37 39  1  0  0  0
 37 47  1  0  0  0
 37 66  1  0  0  0
 37109  1  0  0  0
 38 43  2  0  0  0
 38 46  1  0  0  0
 38 47  1  0  0  0
 39 64  1  0  0  0
 39 67  2  0  0  0
 40 52  1  0  0  0
 40 53  2  0  0  0
 40 58  1  0  0  0
 41110  1  0  0  0
 41111  1  0  0  0
 41112  1  0  0  0
 41 48  1  0  0  0
 42 43  1  0  0  0
 42 66  1  0  0  0
 42113  1  0  0  0
 42114  1  0  0  0
 43 44  1  0  0  0
 44115  1  0  0  0
 45 46  2  0  0  0
 45116  1  0  0  0
 46117  1  0  0  0
 47118  1  0  0  0
 47119  1  0  0  0
 48 56  1  0  0  0
 48 65  1  0  0  0
 48120  1  0  0  0
 49 50  1  0  0  0
 49 53  1  0  0  0
 49 64  1  0  0  0
 49121  1  0  0  0
 50 51  1  0  0  0
 50122  1  0  0  0
 50123  1  0  0  0
 51 52  1  0  0  0
 51124  1  0  0  0
 51125  1  0  0  0
 52126  1  0  0  0
 52127  1  0  0  0
 53 54  1  0  0  0
 54 55  2  0  0  0
 54128  1  0  0  0
 55 57  1  0  0  0
 55129  1  0  0  0
 56 69  2  0  0  0
 57 58  2  0  0  0
 57130  1  0  0  0
 58131  1  0  0  0
 59 60  1  0  0  0
 59 61  1  0  0  0
 59 62  1  0  0  0
 60132  1  0  0  0
 60133  1  0  0  0
 60134  1  0  0  0
 61135  1  0  0  0
 61136  1  0  0  0
 61137  1  0  0  0
 62138  1  0  0  0
 62139  1  0  0  0
 62140  1  0  0  0
 63 65  1  0  0  0
 63141  1  0  0  0
 63142  1  0  0  0
 63143  1  0  0  0
 64144  1  0  0  0
 65145  1  0  0  0
 68 83  1  0  0  0
 71 72  2  0  0  0
 71 74  1  0  0  0
 71146  1  0  0  0
 72 75  1  0  0  0
 72147  1  0  0  0
 73 74  2  0  0  0
 73 76  1  0  0  0
 73148  1  0  0  0
 74 81  1  0  0  0
 75 76  2  0  0  0
 75 80  1  0  0  0
 76 82  1  0  0  0
 77 78  2  0  0  0
 77149  1  0  0  0
 77150  1  0  0  0
 78 79  1  0  0  0
 78151  1  0  0  0
 79 85  1  0  0  0
 79 86  2  0  0  0
 80152  1  0  0  0
 80153  1  0  0  0
 80154  1  0  0  0
 81 84  1  0  0  0
 81155  1  0  0  0
 81156  1  0  0  0
 82 85  1  0  0  0
 82157  1  0  0  0
 82158  1  0  0  0
 83 85  1  0  0  0
 83159  1  0  0  0
 83160  1  0  0  0
 84161  1  0  0  0
M  ISO  4   1 100  68 101  83 101  84 100
M  END
> <chiral flag>
0

> <version>
0

> <s_m_source_file>
/data/baiqing/PycharmProjects/Reinvent-master-3.2/result/LINK_invent/BTK/process_docking_weight1_custom_product_contain_oxygen_bond_distance_aromatic_linkinvent_7_9_3/rearranged_h_0054.sdf

> <i_m_source_file_index>
9

> <r_mmod_Potential_Energy-OPLS-2005>
133.569122314453

> <r_mmod_Stretch_Energy-OPLS-2005>
134.364074707031

> <r_mmod_Bend_Energy-OPLS-2005>
174.681671142578

> <r_mmod_Torsional_Energy-OPLS-2005>
233.875030517578

> <r_mmod_Improper_Torsional_Energy-OPLS-2005>
10.0183324813843

> <r_mmod_Van_der_Waal_Energy-OPLS-2005>
141.20539855957

> <r_mmod_Electrostatic_Energy-OPLS-2005>
-420.3779296875

> <r_mmod_Solvation_Energy-OPLS-2005>
-239.406997680664

> <b_mmod_Minimization_Converged-OPLS-2005>
0

> <r_mmod_RMS_Derivative-OPLS-2005>
7.79586696624756

$$$$
9
                    3D
 Structure written by MMmdl.
157165  0  0  1  0            999 V2000
  -30.6762  -14.5766   20.5209 C   0  0  0  0  0  0
  -30.4217  -12.3539   19.4635 C   0  0  0  0  0  0
  -29.5075  -12.5099   18.2303 C   0  0  0  0  0  0
  -28.0290  -12.3614   18.6360 C   0  0  0  0  0  0
  -27.6557  -13.2225   19.8707 C   0  0  2  0  0  0
  -28.6906  -13.0900   21.0067 C   0  0  0  0  0  0
  -25.2573  -13.8180   20.5695 C   0  0  0  0  0  0
  -24.1839  -13.0460   20.9195 C   0  0  0  0  0  0
  -24.6399  -11.6934   20.8734 C   0  0  0  0  0  0
  -23.9065  -10.4296   21.0429 C   0  0  0  0  0  0
  -24.3628   -9.4212   21.9181 C   0  0  0  0  0  0
  -23.6303   -8.2255   22.0771 C   0  0  0  0  0  0
  -22.4257   -8.0315   21.3576 C   0  0  0  0  0  0
  -21.9884   -9.0304   20.4668 C   0  0  0  0  0  0
  -22.7245  -10.2157   20.3085 C   0  0  0  0  0  0
  -21.6862   -6.0720   22.5277 C   0  0  0  0  0  0
  -21.4025   -6.5634   23.8222 C   0  0  0  0  0  0
  -21.3657   -5.6786   24.9186 C   0  0  0  0  0  0
  -21.6047   -4.3041   24.7210 C   0  0  0  0  0  0
  -21.8834   -3.8136   23.4323 C   0  0  0  0  0  0
  -21.9216   -4.6970   22.3395 C   0  0  0  0  0  0
  -22.7861  -13.5262   21.1847 C   0  0  0  0  0  0
  -22.1674   -4.2156   21.0974 F   0  0  0  0  0  0
  -21.5640   -3.4539   25.7713 F   0  0  0  0  0  0
  -30.0126  -13.3837   20.4422 N   0  0  0  0  0  0
  -26.3022  -12.9386   20.3399 N   0  0  0  0  0  0
  -25.9356  -11.6523   20.5803 N   0  0  0  0  0  0
  -22.0500  -12.8294   22.0417 N   0  0  0  0  0  0
  -25.4345  -15.1890   20.4128 N   0  0  0  0  0  0
  -31.8489  -14.6843   20.1521 O   0  0  0  0  0  0
  -21.6687   -6.8887   21.4238 O   0  0  0  0  0  0
  -22.3545  -14.5580   20.6747 O   0  0  0  0  0  0
  -24.6181  -31.8656   23.2086 C   0  0  0  0  0  0
  -25.9082  -32.4781   23.8388 C   0  0  1  0  0  0
  -27.2034  -27.3557   20.1182 C   0  0  0  0  0  0
  -25.5931  -33.8592   24.2280 N   0  0  0  0  0  0
  -23.4077  -30.4965   21.5430 C   0  0  2  0  0  0
  -24.8556  -28.9636   20.0960 C   0  0  0  0  0  0
  -22.7410  -29.4678   22.4866 C   0  0  0  0  0  0
  -18.0291  -28.1386   22.8462 C   0  0  0  0  0  0
  -24.1496  -36.7296   23.2625 C   0  0  0  0  0  0
  -25.9491  -30.7977   21.3917 C   0  0  0  0  0  0
  -26.0191  -29.4379   20.7163 C   0  0  0  0  0  0
  -27.2003  -28.6445   20.7230 C   0  0  0  0  0  0
  -26.0301  -26.9309   19.4623 C   0  0  0  0  0  0
  -24.8641  -27.7148   19.4539 C   0  0  0  0  0  0
  -23.6214  -29.8406   20.1528 C   0  0  0  0  0  0
  -25.4123  -36.3096   24.0315 C   0  0  1  0  0  0
  -20.5883  -28.3704   23.1229 C   0  0  2  0  0  0
  -20.6778  -26.9429   22.5359 C   0  0  0  0  0  0
  -19.5759  -26.6394   21.5159 C   0  0  0  0  0  0
  -18.1947  -26.7924   22.1589 C   0  0  0  0  0  0
  -19.1543  -28.8855   23.2855 C   0  0  0  0  0  0
  -18.9480  -30.1445   23.8900 C   0  0  0  0  0  0
  -17.6494  -30.6593   24.0576 C   0  0  0  0  0  0
  -25.9067  -34.9466   23.5094 C   0  0  0  0  0  0
  -16.5380  -29.9105   23.6339 C   0  0  0  0  0  0
  -16.7282  -28.6520   23.0350 C   0  0  0  0  0  0
  -26.4495  -31.6622   25.0782 C   0  0  0  0  0  0
  -25.3730  -31.3826   26.1518 C   0  0  0  0  0  0
  -27.0352  -30.3019   24.6342 C   0  0  0  0  0  0
  -27.6025  -32.4401   25.7545 C   0  0  0  0  0  0
  -27.5602  -37.1792   24.8447 C   0  0  0  0  0  0
  -21.4133  -29.3092   22.3621 N   0  0  0  0  0  0
  -26.4306  -37.3789   23.9408 N   0  0  0  0  0  0
  -24.6732  -31.0712   22.1009 N   0  0  0  0  0  0
  -23.4157  -28.8232   23.2939 O   0  0  0  0  0  0
  -28.2926  -26.4902   20.1596 O   0  0  0  0  0  0
  -26.5616  -34.8905   22.4642 O   0  0  0  0  0  0
  -23.5362  -32.1473   23.7427 O   0  0  0  0  0  0
  -28.5915  -17.7952   24.1159 C   0  0  0  0  0  0
  -29.1305  -16.5035   24.2201 C   0  0  0  0  0  0
  -28.5247  -18.4306   22.8654 C   0  0  0  0  0  0
  -29.5756  -15.8415   23.0581 C   0  0  0  0  0  0
  -28.9779  -17.7988   21.6774 C   0  0  0  0  0  0
  -29.4955  -16.4471   21.7734 C   0  0  0  0  0  0
  -28.7736  -21.1912   20.1380 C   0  0  0  0  0  0
  -28.9082  -18.6152   20.3514 C   0  0  0  0  0  0
  -27.9315  -22.4778   20.4341 C   0  0  0  0  0  0
  -28.4926  -23.8704   19.9222 C   0  0  0  0  0  0
  -28.0011  -25.1501   20.7039 C   0  0  0  0  0  0
  -29.9264  -15.7131   20.6094 N   0  0  0  0  0  0
  -28.2552  -19.9650   20.4236 N   0  0  0  0  0  0
  -29.9103  -21.3104   19.6812 O   0  0  0  0  0  0
  -31.4713  -12.4376   19.1710 H   0  0  0  0  0  0
  -30.3223  -11.3575   19.8967 H   0  0  0  0  0  0
  -29.7701  -11.7740   17.4705 H   0  0  0  0  0  0
  -29.6692  -13.4930   17.7827 H   0  0  0  0  0  0
  -27.8537  -11.3072   18.8555 H   0  0  0  0  0  0
  -27.3766  -12.6105   17.8007 H   0  0  0  0  0  0
  -27.6765  -14.2626   19.5401 H   0  0  0  0  0  0
  -28.6746  -12.0938   21.4487 H   0  0  0  0  0  0
  -28.4377  -13.7751   21.8135 H   0  0  0  0  0  0
  -25.2796   -9.5716   22.4717 H   0  0  0  0  0  0
  -24.0071   -7.4621   22.7450 H   0  0  0  0  0  0
  -21.0824   -8.8821   19.8911 H   0  0  0  0  0  0
  -22.3734  -10.9724   19.6181 H   0  0  0  0  0  0
  -21.2010   -7.6151   23.9705 H   0  0  0  0  0  0
  -21.1470   -6.0528   25.9088 H   0  0  0  0  0  0
  -22.0608   -2.7619   23.2843 H   0  0  0  0  0  0
  -22.4155  -11.9995   22.4904 H   0  0  0  0  0  0
  -21.1096  -13.1331   22.2598 H   0  0  0  0  0  0
  -24.6827  -15.8528   20.5514 H   0  0  0  0  0  0
  -26.3215  -15.6223   20.1919 H   0  0  0  0  0  0
  -26.7135  -32.5443   23.1111 H   0  0  0  0  0  0
  -25.0140  -33.9773   25.0465 H   0  0  0  0  0  0
  -22.7019  -31.3185   21.4061 H   0  0  0  0  0  0
  -23.3787  -35.9608   23.3263 H   0  0  0  0  0  0
  -24.3609  -36.8945   22.2059 H   0  0  0  0  0  0
  -23.7242  -37.6466   23.6679 H   0  0  0  0  0  0
  -26.1184  -31.5789   20.6504 H   0  0  0  0  0  0
  -26.8084  -30.8062   22.0506 H   0  0  0  0  0  0
  -28.0843  -29.0051   21.2308 H   0  0  0  0  0  0
  -26.0088  -25.9734   18.9650 H   0  0  0  0  0  0
  -23.9811  -27.3496   18.9478 H   0  0  0  0  0  0
  -23.7316  -30.6217   19.3983 H   0  0  0  0  0  0
  -22.7438  -29.2662   19.8502 H   0  0  0  0  0  0
  -25.1315  -36.1930   25.0816 H   0  0  0  0  0  0
  -20.9993  -28.3306   24.1340 H   0  0  0  0  0  0
  -20.5643  -26.2352   23.3581 H   0  0  0  0  0  0
  -21.6658  -26.7456   22.1184 H   0  0  0  0  0  0
  -19.6936  -25.6304   21.1205 H   0  0  0  0  0  0
  -19.6684  -27.3193   20.6681 H   0  0  0  0  0  0
  -17.4196  -26.6629   21.4015 H   0  0  0  0  0  0
  -18.0398  -26.0066   22.8995 H   0  0  0  0  0  0
  -19.7980  -30.7226   24.2268 H   0  0  0  0  0  0
  -17.5090  -31.6274   24.5180 H   0  0  0  0  0  0
  -15.5394  -30.3030   23.7683 H   0  0  0  0  0  0
  -15.8668  -28.0859   22.7070 H   0  0  0  0  0  0
  -24.5798  -30.7303   25.7851 H   0  0  0  0  0  0
  -24.9076  -32.3049   26.5012 H   0  0  0  0  0  0
  -25.8044  -30.8915   27.0246 H   0  0  0  0  0  0
  -26.2986  -29.6764   24.1290 H   0  0  0  0  0  0
  -27.3888  -29.7316   25.4937 H   0  0  0  0  0  0
  -27.8927  -30.4248   23.9726 H   0  0  0  0  0  0
  -27.2559  -33.3619   26.2220 H   0  0  0  0  0  0
  -28.3775  -32.7107   25.0372 H   0  0  0  0  0  0
  -28.0771  -31.8507   26.5389 H   0  0  0  0  0  0
  -28.2563  -38.0139   24.7566 H   0  0  0  0  0  0
  -28.1145  -36.2679   24.6171 H   0  0  0  0  0  0
  -27.2329  -37.1314   25.8841 H   0  0  0  0  0  0
  -20.9281  -29.8861   21.6889 H   0  0  0  0  0  0
  -26.0175  -38.2845   24.1440 H   0  0  0  0  0  0
  -28.2425  -18.3105   25.0000 H   0  0  0  0  0  0
  -29.2017  -16.0219   25.1858 H   0  0  0  0  0  0
  -28.1150  -19.4287   22.8345 H   0  0  0  0  0  0
  -29.9920  -14.8509   23.1914 H   0  0  0  0  0  0
  -28.3927  -18.0083   19.6038 H   0  0  0  0  0  0
  -29.9226  -18.7140   19.9585 H   0  0  0  0  0  0
  -27.7929  -22.5290   21.5122 H   0  0  0  0  0  0
  -26.9261  -22.3366   20.0383 H   0  0  0  0  0  0
  -28.1905  -23.9682   18.8776 H   0  0  0  0  0  0
  -29.5860  -23.8600   19.9281 H   0  0  0  0  0  0
  -28.4441  -25.1240   21.7014 H   0  0  0  0  0  0
  -26.9356  -25.0140   20.8841 H   0  0  0  0  0  0
  -30.2023  -16.3472   19.8739 H   0  0  0  0  0  0
  -27.3013  -19.9658   20.7647 H   0  0  0  0  0  0
  1 25  1  0  0  0
  1 30  2  0  0  0
  1 82  1  0  0  0
  2  3  1  0  0  0
  2 25  1  0  0  0
  2 85  1  0  0  0
  2 86  1  0  0  0
  3  4  1  0  0  0
  3 87  1  0  0  0
  3 88  1  0  0  0
  4  5  1  0  0  0
  4 89  1  0  0  0
  4 90  1  0  0  0
  5  6  1  0  0  0
  5 26  1  0  0  0
  5 91  1  0  0  0
  6 25  1  0  0  0
  6 92  1  0  0  0
  6 93  1  0  0  0
  7  8  2  0  0  0
  7 26  1  0  0  0
  7 29  1  0  0  0
  8  9  1  0  0  0
  8 22  1  0  0  0
  9 10  1  0  0  0
  9 27  2  0  0  0
 10 11  2  0  0  0
 10 15  1  0  0  0
 11 12  1  0  0  0
 11 94  1  0  0  0
 12 13  2  0  0  0
 12 95  1  0  0  0
 13 14  1  0  0  0
 13 31  1  0  0  0
 14 15  2  0  0  0
 14 96  1  0  0  0
 15 97  1  0  0  0
 16 17  2  0  0  0
 16 21  1  0  0  0
 16 31  1  0  0  0
 17 18  1  0  0  0
 17 98  1  0  0  0
 18 19  2  0  0  0
 18 99  1  0  0  0
 19 20  1  0  0  0
 19 24  1  0  0  0
 20 21  2  0  0  0
 20100  1  0  0  0
 21 23  1  0  0  0
 22 28  1  0  0  0
 22 32  2  0  0  0
 26 27  1  0  0  0
 28101  1  0  0  0
 28102  1  0  0  0
 29103  1  0  0  0
 29104  1  0  0  0
 33 34  1  0  0  0
 33 66  1  0  0  0
 33 70  2  0  0  0
 34 36  1  0  0  0
 34 59  1  0  0  0
 34105  1  0  0  0
 35 44  2  0  0  0
 35 45  1  0  0  0
 35 68  1  0  0  0
 36 56  1  0  0  0
 36106  1  0  0  0
 37 39  1  0  0  0
 37 47  1  0  0  0
 37 66  1  0  0  0
 37107  1  0  0  0
 38 43  2  0  0  0
 38 46  1  0  0  0
 38 47  1  0  0  0
 39 64  1  0  0  0
 39 67  2  0  0  0
 40 52  1  0  0  0
 40 53  2  0  0  0
 40 58  1  0  0  0
 41108  1  0  0  0
 41109  1  0  0  0
 41110  1  0  0  0
 41 48  1  0  0  0
 42 43  1  0  0  0
 42 66  1  0  0  0
 42111  1  0  0  0
 42112  1  0  0  0
 43 44  1  0  0  0
 44113  1  0  0  0
 45 46  2  0  0  0
 45114  1  0  0  0
 46115  1  0  0  0
 47116  1  0  0  0
 47117  1  0  0  0
 48 56  1  0  0  0
 48 65  1  0  0  0
 48118  1  0  0  0
 49 50  1  0  0  0
 49 53  1  0  0  0
 49 64  1  0  0  0
 49119  1  0  0  0
 50 51  1  0  0  0
 50120  1  0  0  0
 50121  1  0  0  0
 51 52  1  0  0  0
 51122  1  0  0  0
 51123  1  0  0  0
 52124  1  0  0  0
 52125  1  0  0  0
 53 54  1  0  0  0
 54 55  2  0  0  0
 54126  1  0  0  0
 55 57  1  0  0  0
 55127  1  0  0  0
 56 69  2  0  0  0
 57 58  2  0  0  0
 57128  1  0  0  0
 58129  1  0  0  0
 59 60  1  0  0  0
 59 61  1  0  0  0
 59 62  1  0  0  0
 60130  1  0  0  0
 60131  1  0  0  0
 60132  1  0  0  0
 61133  1  0  0  0
 61134  1  0  0  0
 61135  1  0  0  0
 62136  1  0  0  0
 62137  1  0  0  0
 62138  1  0  0  0
 63 65  1  0  0  0
 63139  1  0  0  0
 63140  1  0  0  0
 63141  1  0  0  0
 64142  1  0  0  0
 65143  1  0  0  0
 68 81  1  0  0  0
 71 72  2  0  0  0
 71 73  1  0  0  0
 71144  1  0  0  0
 72 74  1  0  0  0
 72145  1  0  0  0
 73 75  2  0  0  0
 73146  1  0  0  0
 74 76  2  0  0  0
 74147  1  0  0  0
 75 76  1  0  0  0
 75 78  1  0  0  0
 76 82  1  0  0  0
 77 79  1  0  0  0
 77 83  1  0  0  0
 77 84  2  0  0  0
 78 83  1  0  0  0
 78148  1  0  0  0
 78149  1  0  0  0
 79 80  1  0  0  0
 79150  1  0  0  0
 79151  1  0  0  0
 80 81  1  0  0  0
 80152  1  0  0  0
 80153  1  0  0  0
 81154  1  0  0  0
 81155  1  0  0  0
 82156  1  0  0  0
 83157  1  0  0  0
M  ISO  4   1 100  68 101  81 101  82 100
M  END
> <chiral flag>
0

> <version>
0

> <s_m_source_file>
/data/baiqing/PycharmProjects/Reinvent-master-3.2/result/LINK_invent/BTK/process_docking_weight1_custom_product_contain_oxygen_bond_distance_aromatic_linkinvent_7_9_3/rearranged_h_0054.sdf

> <i_m_source_file_index>
10

> <r_mmod_Potential_Energy-OPLS-2005>
-23.3546447753906

> <r_mmod_Stretch_Energy-OPLS-2005>
67.5238265991211

> <r_mmod_Bend_Energy-OPLS-2005>
127.716888427734

> <r_mmod_Torsional_Energy-OPLS-2005>
266.277648925781

> <r_mmod_Improper_Torsional_Energy-OPLS-2005>
15.1444673538208

> <r_mmod_Van_der_Waal_Energy-OPLS-2005>
145.836853027344

> <r_mmod_Electrostatic_Energy-OPLS-2005>
-451.241485595703

> <r_mmod_Solvation_Energy-OPLS-2005>
-233.311264038086

> <b_mmod_Minimization_Converged-OPLS-2005>
0

> <r_mmod_RMS_Derivative-OPLS-2005>
7.57465410232544

$$$$
10
                    3D
 Structure written by MMmdl.
157165  0  0  1  0            999 V2000
  -30.6731  -14.5381   20.5805 C   0  0  0  0  0  0
  -30.4268  -12.3477   19.4385 C   0  0  0  0  0  0
  -29.4993  -12.5109   18.2147 C   0  0  0  0  0  0
  -28.0171  -12.3603   18.6138 C   0  0  0  0  0  0
  -27.6513  -13.2083   19.8589 C   0  0  2  0  0  0
  -28.6878  -13.0088   20.9845 C   0  0  0  0  0  0
  -25.2545  -13.8193   20.5621 C   0  0  0  0  0  0
  -24.1799  -13.0468   20.9139 C   0  0  0  0  0  0
  -24.6341  -11.6933   20.8658 C   0  0  0  0  0  0
  -23.9021  -10.4326   21.0371 C   0  0  0  0  0  0
  -24.3597   -9.4256   21.9139 C   0  0  0  0  0  0
  -23.6308   -8.2271   22.0727 C   0  0  0  0  0  0
  -22.4288   -8.0279   21.3538 C   0  0  0  0  0  0
  -21.9905   -9.0223   20.4634 C   0  0  0  0  0  0
  -22.7195  -10.2129   20.3034 C   0  0  0  0  0  0
  -21.6868   -6.0728   22.5290 C   0  0  0  0  0  0
  -21.4015   -6.5629   23.8220 C   0  0  0  0  0  0
  -21.3653   -5.6778   24.9175 C   0  0  0  0  0  0
  -21.6055   -4.3048   24.7215 C   0  0  0  0  0  0
  -21.8827   -3.8135   23.4334 C   0  0  0  0  0  0
  -21.9196   -4.6955   22.3395 C   0  0  0  0  0  0
  -22.7829  -13.5270   21.1836 C   0  0  0  0  0  0
  -22.1676   -4.2148   21.0966 F   0  0  0  0  0  0
  -21.5634   -3.4525   25.7720 F   0  0  0  0  0  0
  -30.0191  -13.3423   20.4484 N   0  0  0  0  0  0
  -26.2954  -12.9346   20.3253 N   0  0  0  0  0  0
  -25.9266  -11.6504   20.5677 N   0  0  0  0  0  0
  -22.0477  -12.8254   22.0396 N   0  0  0  0  0  0
  -25.4332  -15.1908   20.4073 N   0  0  0  0  0  0
  -31.7874  -14.7299   20.0776 O   0  0  0  0  0  0
  -21.6663   -6.8873   21.4248 O   0  0  0  0  0  0
  -22.3488  -14.5564   20.6691 O   0  0  0  0  0  0
  -24.6204  -31.8636   23.2061 C   0  0  0  0  0  0
  -25.9086  -32.4795   23.8369 C   0  0  1  0  0  0
  -27.2225  -27.3695   20.1228 C   0  0  0  0  0  0
  -25.5935  -33.8590   24.2307 N   0  0  0  0  0  0
  -23.4110  -30.4907   21.5423 C   0  0  2  0  0  0
  -24.8578  -28.9472   20.1104 C   0  0  0  0  0  0
  -22.7444  -29.4662   22.4902 C   0  0  0  0  0  0
  -18.0293  -28.1400   22.8477 C   0  0  0  0  0  0
  -24.1491  -36.7327   23.2628 C   0  0  0  0  0  0
  -25.9436  -30.8109   21.3687 C   0  0  0  0  0  0
  -26.0180  -29.4384   20.7219 C   0  0  0  0  0  0
  -27.2039  -28.6571   20.7232 C   0  0  0  0  0  0
  -26.0482  -26.9161   19.4839 C   0  0  0  0  0  0
  -24.8708  -27.6906   19.4830 C   0  0  0  0  0  0
  -23.6260  -29.8253   20.1554 C   0  0  0  0  0  0
  -25.4114  -36.3091   24.0313 C   0  0  1  0  0  0
  -20.5888  -28.3702   23.1279 C   0  0  2  0  0  0
  -20.6791  -26.9431   22.5402 C   0  0  0  0  0  0
  -19.5765  -26.6398   21.5207 C   0  0  0  0  0  0
  -18.1945  -26.7940   22.1617 C   0  0  0  0  0  0
  -19.1541  -28.8865   23.2883 C   0  0  0  0  0  0
  -18.9473  -30.1462   23.8904 C   0  0  0  0  0  0
  -17.6475  -30.6602   24.0575 C   0  0  0  0  0  0
  -25.9037  -34.9455   23.5101 C   0  0  0  0  0  0
  -16.5369  -29.9111   23.6318 C   0  0  0  0  0  0
  -16.7278  -28.6531   23.0330 C   0  0  0  0  0  0
  -26.4494  -31.6578   25.0716 C   0  0  0  0  0  0
  -25.3761  -31.3717   26.1471 C   0  0  0  0  0  0
  -27.0311  -30.3010   24.6110 C   0  0  0  0  0  0
  -27.6050  -32.4301   25.7506 C   0  0  0  0  0  0
  -27.5580  -37.1825   24.8449 C   0  0  0  0  0  0
  -21.4156  -29.3074   22.3664 N   0  0  0  0  0  0
  -26.4298  -37.3787   23.9390 N   0  0  0  0  0  0
  -24.6760  -31.0717   22.0977 N   0  0  0  0  0  0
  -23.4178  -28.8193   23.2961 O   0  0  0  0  0  0
  -28.3685  -26.5853   20.1424 O   0  0  0  0  0  0
  -26.5580  -34.8911   22.4647 O   0  0  0  0  0  0
  -23.5392  -32.1392   23.7458 O   0  0  0  0  0  0
  -29.0961  -19.3226   20.3350 C   0  0  0  0  0  0
  -30.6749  -20.8547   21.3810 C   0  0  0  0  0  0
  -31.1485  -18.4547   21.3140 C   0  0  0  0  0  0
  -29.4626  -20.6611   20.6855 C   0  0  0  0  0  0
  -29.9285  -18.2025   20.6536 C   0  0  0  0  0  0
  -31.5105  -19.7635   21.6899 C   0  0  0  0  0  0
  -29.1350  -24.2902   19.4922 C   0  0  0  0  0  0
  -29.8039  -15.7415   22.5201 C   0  0  0  0  0  0
  -28.5747  -21.8951   20.3668 C   0  0  0  0  0  0
  -29.5544  -16.7569   20.2222 C   0  0  0  0  0  0
  -28.2423  -25.1516   20.4345 C   0  0  0  0  0  0
  -29.2491  -22.9366   19.5645 N   0  0  0  0  0  0
  -29.9448  -15.5837   21.0692 N   0  0  0  0  0  0
  -29.7974  -24.8758   18.6322 O   0  0  0  0  0  0
  -32.9905  -20.0283   22.5369 Cl  0  0  0  0  0  0
  -31.4676  -12.4690   19.1333 H   0  0  0  0  0  0
  -30.3563  -11.3368   19.8465 H   0  0  0  0  0  0
  -29.7558  -11.7779   17.4486 H   0  0  0  0  0  0
  -29.6576  -13.4929   17.7640 H   0  0  0  0  0  0
  -27.8308  -11.3046   18.8113 H   0  0  0  0  0  0
  -27.3733  -12.6300   17.7746 H   0  0  0  0  0  0
  -27.6869  -14.2523   19.5465 H   0  0  0  0  0  0
  -28.6763  -11.9749   21.3329 H   0  0  0  0  0  0
  -28.4078  -13.6090   21.8463 H   0  0  0  0  0  0
  -25.2746   -9.5765   22.4690 H   0  0  0  0  0  0
  -24.0034   -7.4696   22.7452 H   0  0  0  0  0  0
  -21.0833   -8.8712   19.8958 H   0  0  0  0  0  0
  -22.3620  -10.9635   19.6127 H   0  0  0  0  0  0
  -21.2010   -7.6138   23.9727 H   0  0  0  0  0  0
  -21.1476   -6.0495   25.9079 H   0  0  0  0  0  0
  -22.0616   -2.7598   23.2833 H   0  0  0  0  0  0
  -22.4101  -11.9919   22.4796 H   0  0  0  0  0  0
  -21.1090  -13.1284   22.2605 H   0  0  0  0  0  0
  -24.6851  -15.8645   20.5322 H   0  0  0  0  0  0
  -26.3049  -15.6211   20.1251 H   0  0  0  0  0  0
  -26.7152  -32.5485   23.1120 H   0  0  0  0  0  0
  -25.0158  -33.9736   25.0500 H   0  0  0  0  0  0
  -22.7030  -31.3112   21.4015 H   0  0  0  0  0  0
  -23.3733  -35.9679   23.3287 H   0  0  0  0  0  0
  -24.3586  -36.8963   22.2047 H   0  0  0  0  0  0
  -23.7274  -37.6542   23.6654 H   0  0  0  0  0  0
  -26.0614  -31.5707   20.5948 H   0  0  0  0  0  0
  -26.8305  -30.8692   21.9881 H   0  0  0  0  0  0
  -28.0946  -29.0264   21.2106 H   0  0  0  0  0  0
  -26.0337  -25.9652   18.9718 H   0  0  0  0  0  0
  -23.9846  -27.3180   18.9886 H   0  0  0  0  0  0
  -23.7512  -30.6021   19.4002 H   0  0  0  0  0  0
  -22.7468  -29.2581   19.8468 H   0  0  0  0  0  0
  -25.1299  -36.1941   25.0811 H   0  0  0  0  0  0
  -20.9999  -28.3301   24.1388 H   0  0  0  0  0  0
  -20.5726  -26.2317   23.3603 H   0  0  0  0  0  0
  -21.6659  -26.7488   22.1185 H   0  0  0  0  0  0
  -19.6937  -25.6307   21.1250 H   0  0  0  0  0  0
  -19.6714  -27.3195   20.6731 H   0  0  0  0  0  0
  -17.4218  -26.6680   21.4023 H   0  0  0  0  0  0
  -18.0362  -26.0083   22.9020 H   0  0  0  0  0  0
  -19.7951  -30.7278   24.2279 H   0  0  0  0  0  0
  -17.5033  -31.6265   24.5203 H   0  0  0  0  0  0
  -15.5371  -30.3031   23.7624 H   0  0  0  0  0  0
  -15.8675  -28.0865   22.7023 H   0  0  0  0  0  0
  -24.5938  -30.7039   25.7850 H   0  0  0  0  0  0
  -24.8947  -32.2887   26.4888 H   0  0  0  0  0  0
  -25.8136  -30.8939   27.0247 H   0  0  0  0  0  0
  -26.2849  -29.6801   24.1146 H   0  0  0  0  0  0
  -27.4049  -29.7229   25.4570 H   0  0  0  0  0  0
  -27.8697  -30.4318   23.9269 H   0  0  0  0  0  0
  -27.2642  -33.3595   26.2086 H   0  0  0  0  0  0
  -28.3885  -32.6881   25.0366 H   0  0  0  0  0  0
  -28.0670  -31.8414   26.5445 H   0  0  0  0  0  0
  -28.2586  -38.0136   24.7502 H   0  0  0  0  0  0
  -28.1096  -36.2667   24.6266 H   0  0  0  0  0  0
  -27.2291  -37.1458   25.8852 H   0  0  0  0  0  0
  -20.9315  -29.8810   21.6899 H   0  0  0  0  0  0
  -26.0173  -38.2858   24.1406 H   0  0  0  0  0  0
  -28.1669  -19.1457   19.8096 H   0  0  0  0  0  0
  -30.9681  -21.8461   21.6937 H   0  0  0  0  0  0
  -31.8204  -17.6417   21.5381 H   0  0  0  0  0  0
  -30.6202  -16.3258   22.9405 H   0  0  0  0  0  0
  -29.8209  -14.7795   23.0366 H   0  0  0  0  0  0
  -28.8628  -16.2329   22.7656 H   0  0  0  0  0  0
  -28.2003  -22.3180   21.2997 H   0  0  0  0  0  0
  -27.7049  -21.5535   19.8053 H   0  0  0  0  0  0
  -28.4726  -16.7097   20.0873 H   0  0  0  0  0  0
  -29.9652  -16.6132   19.2214 H   0  0  0  0  0  0
  -28.5989  -24.9961   21.4534 H   0  0  0  0  0  0
  -27.2184  -24.7815   20.4179 H   0  0  0  0  0  0
  -29.8805  -22.5546   18.8732 H   0  0  0  0  0  0
  1 25  1  0  0  0
  1 30  2  0  0  0
  1 83  1  0  0  0
  2  3  1  0  0  0
  2 25  1  0  0  0
  2 86  1  0  0  0
  2 87  1  0  0  0
  3  4  1  0  0  0
  3 88  1  0  0  0
  3 89  1  0  0  0
  4  5  1  0  0  0
  4 90  1  0  0  0
  4 91  1  0  0  0
  5  6  1  0  0  0
  5 26  1  0  0  0
  5 92  1  0  0  0
  6 25  1  0  0  0
  6 93  1  0  0  0
  6 94  1  0  0  0
  7  8  2  0  0  0
  7 26  1  0  0  0
  7 29  1  0  0  0
  8  9  1  0  0  0
  8 22  1  0  0  0
  9 10  1  0  0  0
  9 27  2  0  0  0
 10 11  2  0  0  0
 10 15  1  0  0  0
 11 12  1  0  0  0
 11 95  1  0  0  0
 12 13  2  0  0  0
 12 96  1  0  0  0
 13 14  1  0  0  0
 13 31  1  0  0  0
 14 15  2  0  0  0
 14 97  1  0  0  0
 15 98  1  0  0  0
 16 17  2  0  0  0
 16 21  1  0  0  0
 16 31  1  0  0  0
 17 18  1  0  0  0
 17 99  1  0  0  0
 18 19  2  0  0  0
 18100  1  0  0  0
 19 20  1  0  0  0
 19 24  1  0  0  0
 20 21  2  0  0  0
 20101  1  0  0  0
 21 23  1  0  0  0
 22 28  1  0  0  0
 22 32  2  0  0  0
 26 27  1  0  0  0
 28102  1  0  0  0
 28103  1  0  0  0
 29104  1  0  0  0
 29105  1  0  0  0
 33 34  1  0  0  0
 33 66  1  0  0  0
 33 70  2  0  0  0
 34 36  1  0  0  0
 34 59  1  0  0  0
 34106  1  0  0  0
 35 44  2  0  0  0
 35 45  1  0  0  0
 35 68  1  0  0  0
 36 56  1  0  0  0
 36107  1  0  0  0
 37 39  1  0  0  0
 37 47  1  0  0  0
 37 66  1  0  0  0
 37108  1  0  0  0
 38 43  2  0  0  0
 38 46  1  0  0  0
 38 47  1  0  0  0
 39 64  1  0  0  0
 39 67  2  0  0  0
 40 52  1  0  0  0
 40 53  2  0  0  0
 40 58  1  0  0  0
 41109  1  0  0  0
 41110  1  0  0  0
 41111  1  0  0  0
 41 48  1  0  0  0
 42 43  1  0  0  0
 42 66  1  0  0  0
 42112  1  0  0  0
 42113  1  0  0  0
 43 44  1  0  0  0
 44114  1  0  0  0
 45 46  2  0  0  0
 45115  1  0  0  0
 46116  1  0  0  0
 47117  1  0  0  0
 47118  1  0  0  0
 48 56  1  0  0  0
 48 65  1  0  0  0
 48119  1  0  0  0
 49 50  1  0  0  0
 49 53  1  0  0  0
 49 64  1  0  0  0
 49120  1  0  0  0
 50 51  1  0  0  0
 50121  1  0  0  0
 50122  1  0  0  0
 51 52  1  0  0  0
 51123  1  0  0  0
 51124  1  0  0  0
 52125  1  0  0  0
 52126  1  0  0  0
 53 54  1  0  0  0
 54 55  2  0  0  0
 54127  1  0  0  0
 55 57  1  0  0  0
 55128  1  0  0  0
 56 69  2  0  0  0
 57 58  2  0  0  0
 57129  1  0  0  0
 58130  1  0  0  0
 59 60  1  0  0  0
 59 61  1  0  0  0
 59 62  1  0  0  0
 60131  1  0  0  0
 60132  1  0  0  0
 60133  1  0  0  0
 61134  1  0  0  0
 61135  1  0  0  0
 61136  1  0  0  0
 62137  1  0  0  0
 62138  1  0  0  0
 62139  1  0  0  0
 63 65  1  0  0  0
 63140  1  0  0  0
 63141  1  0  0  0
 63142  1  0  0  0
 64143  1  0  0  0
 65144  1  0  0  0
 68 81  1  0  0  0
 71 74  2  0  0  0
 71 75  1  0  0  0
 71145  1  0  0  0
 72 74  1  0  0  0
 72 76  2  0  0  0
 72146  1  0  0  0
 73 75  2  0  0  0
 73 76  1  0  0  0
 73147  1  0  0  0
 74 79  1  0  0  0
 75 80  1  0  0  0
 76 85  1  0  0  0
 77 81  1  0  0  0
 77 82  1  0  0  0
 77 84  2  0  0  0
 78 83  1  0  0  0
 78148  1  0  0  0
 78149  1  0  0  0
 78150  1  0  0  0
 79 82  1  0  0  0
 79151  1  0  0  0
 79152  1  0  0  0
 80 83  1  0  0  0
 80153  1  0  0  0
 80154  1  0  0  0
 81155  1  0  0  0
 81156  1  0  0  0
 82157  1  0  0  0
M  ISO  4   1 100  68 101  81 101  83 100
M  END
> <chiral flag>
0

> <version>
0

> <s_m_source_file>
/data/baiqing/PycharmProjects/Reinvent-master-3.2/result/LINK_invent/BTK/process_docking_weight1_custom_product_contain_oxygen_bond_distance_aromatic_linkinvent_7_9_3/rearranged_h_0054.sdf

> <i_m_source_file_index>
11

> <r_mmod_Potential_Energy-OPLS-2005>
63.4668273925781

> <r_mmod_Stretch_Energy-OPLS-2005>
57.2032356262207

> <r_mmod_Bend_Energy-OPLS-2005>
122.470405578613

> <r_mmod_Torsional_Energy-OPLS-2005>
297.321746826172

> <r_mmod_Improper_Torsional_Energy-OPLS-2005>
6.20899438858032

> <r_mmod_Van_der_Waal_Energy-OPLS-2005>
139.542007446289

> <r_mmod_Electrostatic_Energy-OPLS-2005>
-348.940216064453

> <r_mmod_Solvation_Energy-OPLS-2005>
-234.178497314453

> <b_mmod_Minimization_Converged-OPLS-2005>
0

> <r_mmod_RMS_Derivative-OPLS-2005>
3.29969525337219

$$$$
11
                    3D
 Structure written by MMmdl.
168177  0  0  1  0            999 V2000
  -30.6040  -14.6375   20.6370 C   0  0  0  0  0  0
  -30.4352  -12.4249   19.4805 C   0  0  0  0  0  0
  -29.5122  -12.5437   18.2447 C   0  0  0  0  0  0
  -28.0308  -12.3692   18.6369 C   0  0  0  0  0  0
  -27.6423  -13.2269   19.8697 C   0  0  2  0  0  0
  -28.6661  -13.0577   21.0098 C   0  0  0  0  0  0
  -25.2359  -13.8109   20.5497 C   0  0  0  0  0  0
  -24.1700  -13.0342   20.9118 C   0  0  0  0  0  0
  -24.6336  -11.6849   20.8671 C   0  0  0  0  0  0
  -23.9035  -10.4244   21.0328 C   0  0  0  0  0  0
  -24.3634   -9.4229   21.9119 C   0  0  0  0  0  0
  -23.6363   -8.2242   22.0744 C   0  0  0  0  0  0
  -22.4334   -8.0230   21.3538 C   0  0  0  0  0  0
  -21.9912   -9.0159   20.4627 C   0  0  0  0  0  0
  -22.7211  -10.2036   20.2994 C   0  0  0  0  0  0
  -21.6838   -6.0732   22.5260 C   0  0  0  0  0  0
  -21.4004   -6.5664   23.8179 C   0  0  0  0  0  0
  -21.3638   -5.6815   24.9138 C   0  0  0  0  0  0
  -21.6047   -4.3088   24.7190 C   0  0  0  0  0  0
  -21.8848   -3.8153   23.4332 C   0  0  0  0  0  0
  -21.9212   -4.6967   22.3378 C   0  0  0  0  0  0
  -22.7746  -13.5094   21.1885 C   0  0  0  0  0  0
  -22.1686   -4.2147   21.0967 F   0  0  0  0  0  0
  -21.5668   -3.4595   25.7731 F   0  0  0  0  0  0
  -29.9966  -13.4161   20.4900 N   0  0  0  0  0  0
  -26.2869  -12.9352   20.3263 N   0  0  0  0  0  0
  -25.9263  -11.6495   20.5718 N   0  0  0  0  0  0
  -22.0518  -12.8014   22.0529 N   0  0  0  0  0  0
  -25.3727  -15.1796   20.3717 N   0  0  0  0  0  0
  -31.7259  -14.8413   20.1519 O   0  0  0  0  0  0
  -21.6656   -6.8873   21.4232 O   0  0  0  0  0  0
  -22.3369  -14.5373   20.6724 O   0  0  0  0  0  0
  -24.6211  -31.8630   23.2024 C   0  0  0  0  0  0
  -25.9079  -32.4804   23.8365 C   0  0  1  0  0  0
  -27.2355  -27.3478   20.1250 C   0  0  0  0  0  0
  -25.5938  -33.8591   24.2295 N   0  0  0  0  0  0
  -23.4149  -30.4816   21.5464 C   0  0  2  0  0  0
  -24.8634  -28.9350   20.1170 C   0  0  0  0  0  0
  -22.7478  -29.4615   22.4997 C   0  0  0  0  0  0
  -18.0272  -28.1331   22.8492 C   0  0  0  0  0  0
  -24.1496  -36.7270   23.2657 C   0  0  0  0  0  0
  -25.9523  -30.8012   21.3700 C   0  0  0  0  0  0
  -26.0303  -29.4283   20.7183 C   0  0  0  0  0  0
  -27.2191  -28.6440   20.7176 C   0  0  0  0  0  0
  -26.0553  -26.9091   19.4833 C   0  0  0  0  0  0
  -24.8772  -27.6809   19.4892 C   0  0  0  0  0  0
  -23.6254  -29.8084   20.1652 C   0  0  0  0  0  0
  -25.4124  -36.3090   24.0361 C   0  0  1  0  0  0
  -20.5870  -28.3639   23.1315 C   0  0  2  0  0  0
  -20.6715  -26.9359   22.5425 C   0  0  0  0  0  0
  -19.5700  -26.6342   21.5206 C   0  0  0  0  0  0
  -18.1887  -26.7892   22.1593 C   0  0  0  0  0  0
  -19.1521  -28.8804   23.2894 C   0  0  0  0  0  0
  -18.9438  -30.1391   23.8916 C   0  0  0  0  0  0
  -17.6432  -30.6542   24.0530 C   0  0  0  0  0  0
  -25.9043  -34.9471   23.5126 C   0  0  0  0  0  0
  -16.5321  -29.9017   23.6326 C   0  0  0  0  0  0
  -16.7256  -28.6432   23.0369 C   0  0  0  0  0  0
  -26.4445  -31.6613   25.0737 C   0  0  0  0  0  0
  -25.3662  -31.3815   26.1469 C   0  0  0  0  0  0
  -27.0255  -30.3023   24.6211 C   0  0  0  0  0  0
  -27.6043  -32.4327   25.7446 C   0  0  0  0  0  0
  -27.5602  -37.1808   24.8480 C   0  0  0  0  0  0
  -21.4173  -29.3027   22.3769 N   0  0  0  0  0  0
  -26.4321  -37.3777   23.9405 N   0  0  0  0  0  0
  -24.6807  -31.0685   22.0944 N   0  0  0  0  0  0
  -23.4224  -28.8154   23.3054 O   0  0  0  0  0  0
  -28.3584  -26.5160   20.1457 O   0  0  0  0  0  0
  -26.5607  -34.8940   22.4682 O   0  0  0  0  0  0
  -23.5376  -32.1391   23.7387 O   0  0  0  0  0  0
  -30.4706  -19.2125   20.1618 C   0  0  0  0  0  0
  -30.6580  -17.8155   20.3414 C   0  0  0  0  0  0
  -29.5802  -19.9917   20.9484 C   0  0  0  0  0  0
  -28.9725  -19.2964   22.0470 C   0  0  0  0  0  0
  -29.0615  -17.8556   22.1559 C   0  0  0  0  0  0
  -29.8967  -17.0799   21.2799 C   0  0  0  0  0  0
  -29.2906  -22.7819   21.1976 C   0  0  0  0  0  0
  -29.5437  -21.8670   19.0277 C   0  0  0  0  0  0
  -29.0540  -23.3318   18.8706 C   0  0  0  0  0  0
  -29.1066  -21.4275   20.4394 C   0  0  1  0  0  0
  -29.2156  -24.0160   20.2490 C   0  0  1  0  0  0
  -29.1447  -20.4138   24.3350 C   0  0  0  0  0  0
  -26.7016  -17.0760   22.6498 C   0  0  0  0  0  0
  -28.2377  -20.1082   23.1231 C   0  0  0  0  0  0
  -28.1510  -17.1288   23.1590 C   0  0  0  0  0  0
  -28.1423  -25.1296   20.6061 C   0  0  0  0  0  0
  -29.8820  -15.6061   21.2992 N   0  0  0  0  0  0
  -29.4859  -22.8975   22.4080 O   0  0  0  0  0  0
  -31.4724  -12.5812   19.1774 H   0  0  0  0  0  0
  -30.3875  -11.4218   19.9052 H   0  0  0  0  0  0
  -29.7954  -11.8022   17.4957 H   0  0  0  0  0  0
  -29.6456  -13.5206   17.7745 H   0  0  0  0  0  0
  -27.8619  -11.3127   18.8486 H   0  0  0  0  0  0
  -27.3882  -12.6235   17.7943 H   0  0  0  0  0  0
  -27.6641  -14.2724   19.5555 H   0  0  0  0  0  0
  -28.6696  -12.0290   21.3719 H   0  0  0  0  0  0
  -28.3626  -13.6660   21.8623 H   0  0  0  0  0  0
  -25.2805   -9.5817   22.4637 H   0  0  0  0  0  0
  -24.0104   -7.4694   22.7515 H   0  0  0  0  0  0
  -21.0805   -8.8609   19.9023 H   0  0  0  0  0  0
  -22.3619  -10.9512   19.6079 H   0  0  0  0  0  0
  -21.1989   -7.6179   23.9643 H   0  0  0  0  0  0
  -21.1418   -6.0577   25.9018 H   0  0  0  0  0  0
  -22.0649   -2.7618   23.2797 H   0  0  0  0  0  0
  -22.4212  -11.9635   22.4801 H   0  0  0  0  0  0
  -21.1084  -13.0840   22.2791 H   0  0  0  0  0  0
  -24.5775  -15.7947   20.5063 H   0  0  0  0  0  0
  -26.2130  -15.6834   20.1139 H   0  0  0  0  0  0
  -26.7156  -32.5475   23.1115 H   0  0  0  0  0  0
  -25.0232  -33.9754   25.0555 H   0  0  0  0  0  0
  -22.7046  -31.2983   21.4054 H   0  0  0  0  0  0
  -23.3787  -35.9568   23.3274 H   0  0  0  0  0  0
  -24.3637  -36.8903   22.2087 H   0  0  0  0  0  0
  -23.7187  -37.6453   23.6654 H   0  0  0  0  0  0
  -26.1000  -31.5635   20.6025 H   0  0  0  0  0  0
  -26.8237  -30.8402   22.0115 H   0  0  0  0  0  0
  -28.1165  -29.0227   21.1883 H   0  0  0  0  0  0
  -26.0378  -25.9685   18.9525 H   0  0  0  0  0  0
  -23.9905  -27.3001   18.9995 H   0  0  0  0  0  0
  -23.7240  -30.5756   19.3961 H   0  0  0  0  0  0
  -22.7457  -29.2277   19.8828 H   0  0  0  0  0  0
  -25.1314  -36.1960   25.0870 H   0  0  0  0  0  0
  -20.9963  -28.3130   24.1419 H   0  0  0  0  0  0
  -20.5497  -26.2270   23.3637 H   0  0  0  0  0  0
  -21.6595  -26.7286   22.1284 H   0  0  0  0  0  0
  -19.6829  -25.6238   21.1256 H   0  0  0  0  0  0
  -19.6647  -27.3126   20.6705 H   0  0  0  0  0  0
  -17.4181  -26.6694   21.3958 H   0  0  0  0  0  0
  -18.0199  -26.0000   22.8942 H   0  0  0  0  0  0
  -19.7919  -30.7168   24.2332 H   0  0  0  0  0  0
  -17.4988  -31.6237   24.5080 H   0  0  0  0  0  0
  -15.5307  -30.2884   23.7667 H   0  0  0  0  0  0
  -15.8662  -28.0713   22.7112 H   0  0  0  0  0  0
  -24.5896  -30.7068   25.7841 H   0  0  0  0  0  0
  -24.8768  -32.2997   26.4728 H   0  0  0  0  0  0
  -25.7983  -30.9170   27.0343 H   0  0  0  0  0  0
  -26.2815  -29.6805   24.1224 H   0  0  0  0  0  0
  -27.3899  -29.7282   25.4736 H   0  0  0  0  0  0
  -27.8711  -30.4259   23.9442 H   0  0  0  0  0  0
  -27.2722  -33.3694   26.1921 H   0  0  0  0  0  0
  -28.3869  -32.6773   25.0251 H   0  0  0  0  0  0
  -28.0657  -31.8512   26.5430 H   0  0  0  0  0  0
  -28.2655  -38.0069   24.7488 H   0  0  0  0  0  0
  -28.1069  -36.2620   24.6320 H   0  0  0  0  0  0
  -27.2369  -37.1469   25.8903 H   0  0  0  0  0  0
  -20.9312  -29.8945   21.7186 H   0  0  0  0  0  0
  -26.0224  -38.2887   24.1299 H   0  0  0  0  0  0
  -30.9958  -19.6584   19.3324 H   0  0  0  0  0  0
  -31.3346  -17.3054   19.6706 H   0  0  0  0  0  0
  -30.6308  -21.8435   18.9381 H   0  0  0  0  0  0
  -29.1373  -21.2168   18.2524 H   0  0  0  0  0  0
  -28.0030  -23.3150   18.5783 H   0  0  0  0  0  0
  -29.5859  -23.8733   18.0849 H   0  0  0  0  0  0
  -28.0243  -21.3175   20.3652 H   0  0  0  0  0  0
  -30.2063  -24.4652   20.3120 H   0  0  0  0  0  0
  -29.3136  -19.5334   24.9588 H   0  0  0  0  0  0
  -28.7129  -21.1822   24.9767 H   0  0  0  0  0  0
  -30.1181  -20.7857   24.0149 H   0  0  0  0  0  0
  -26.1261  -16.2697   23.1060 H   0  0  0  0  0  0
  -26.7197  -16.9163   21.5760 H   0  0  0  0  0  0
  -26.1406  -17.9959   22.8092 H   0  0  0  0  0  0
  -27.3326  -19.6289   23.4748 H   0  0  0  0  0  0
  -27.8587  -21.0364   22.7054 H   0  0  0  0  0  0
  -28.1818  -17.5989   24.1401 H   0  0  0  0  0  0
  -28.4899  -16.1105   23.3488 H   0  0  0  0  0  0
  -28.0550  -25.1814   21.6940 H   0  0  0  0  0  0
  -27.1777  -24.7433   20.2797 H   0  0  0  0  0  0
  -29.0732  -15.2228   21.7660 H   0  0  0  0  0  0
  1 25  1  0  0  0
  1 30  2  0  0  0
  1 87  1  0  0  0
  2  3  1  0  0  0
  2 25  1  0  0  0
  2 89  1  0  0  0
  2 90  1  0  0  0
  3  4  1  0  0  0
  3 91  1  0  0  0
  3 92  1  0  0  0
  4  5  1  0  0  0
  4 93  1  0  0  0
  4 94  1  0  0  0
  5  6  1  0  0  0
  5 26  1  0  0  0
  5 95  1  0  0  0
  6 25  1  0  0  0
  6 96  1  0  0  0
  6 97  1  0  0  0
  7  8  2  0  0  0
  7 26  1  0  0  0
  7 29  1  0  0  0
  8  9  1  0  0  0
  8 22  1  0  0  0
  9 10  1  0  0  0
  9 27  2  0  0  0
 10 11  2  0  0  0
 10 15  1  0  0  0
 11 12  1  0  0  0
 11 98  1  0  0  0
 12 13  2  0  0  0
 12 99  1  0  0  0
 13 14  1  0  0  0
 13 31  1  0  0  0
 14 15  2  0  0  0
 14100  1  0  0  0
 15101  1  0  0  0
 16 17  2  0  0  0
 16 21  1  0  0  0
 16 31  1  0  0  0
 17 18  1  0  0  0
 17102  1  0  0  0
 18 19  2  0  0  0
 18103  1  0  0  0
 19 20  1  0  0  0
 19 24  1  0  0  0
 20 21  2  0  0  0
 20104  1  0  0  0
 21 23  1  0  0  0
 22 28  1  0  0  0
 22 32  2  0  0  0
 26 27  1  0  0  0
 28105  1  0  0  0
 28106  1  0  0  0
 29107  1  0  0  0
 29108  1  0  0  0
 33 34  1  0  0  0
 33 66  1  0  0  0
 33 70  2  0  0  0
 34 36  1  0  0  0
 34 59  1  0  0  0
 34109  1  0  0  0
 35 44  2  0  0  0
 35 45  1  0  0  0
 35 68  1  0  0  0
 36 56  1  0  0  0
 36110  1  0  0  0
 37 39  1  0  0  0
 37 47  1  0  0  0
 37 66  1  0  0  0
 37111  1  0  0  0
 38 43  2  0  0  0
 38 46  1  0  0  0
 38 47  1  0  0  0
 39 64  1  0  0  0
 39 67  2  0  0  0
 40 52  1  0  0  0
 40 53  2  0  0  0
 40 58  1  0  0  0
 41112  1  0  0  0
 41113  1  0  0  0
 41114  1  0  0  0
 41 48  1  0  0  0
 42 43  1  0  0  0
 42 66  1  0  0  0
 42115  1  0  0  0
 42116  1  0  0  0
 43 44  1  0  0  0
 44117  1  0  0  0
 45 46  2  0  0  0
 45118  1  0  0  0
 46119  1  0  0  0
 47120  1  0  0  0
 47121  1  0  0  0
 48 56  1  0  0  0
 48 65  1  0  0  0
 48122  1  0  0  0
 49 50  1  0  0  0
 49 53  1  0  0  0
 49 64  1  0  0  0
 49123  1  0  0  0
 50 51  1  0  0  0
 50124  1  0  0  0
 50125  1  0  0  0
 51 52  1  0  0  0
 51126  1  0  0  0
 51127  1  0  0  0
 52128  1  0  0  0
 52129  1  0  0  0
 53 54  1  0  0  0
 54 55  2  0  0  0
 54130  1  0  0  0
 55 57  1  0  0  0
 55131  1  0  0  0
 56 69  2  0  0  0
 57 58  2  0  0  0
 57132  1  0  0  0
 58133  1  0  0  0
 59 60  1  0  0  0
 59 61  1  0  0  0
 59 62  1  0  0  0
 60134  1  0  0  0
 60135  1  0  0  0
 60136  1  0  0  0
 61137  1  0  0  0
 61138  1  0  0  0
 61139  1  0  0  0
 62140  1  0  0  0
 62141  1  0  0  0
 62142  1  0  0  0
 63 65  1  0  0  0
 63143  1  0  0  0
 63144  1  0  0  0
 63145  1  0  0  0
 64146  1  0  0  0
 65147  1  0  0  0
 68 86  1  0  0  0
 71 72  2  0  0  0
 71 73  1  0  0  0
 71148  1  0  0  0
 72 76  1  0  0  0
 72149  1  0  0  0
 73 74  2  0  0  0
 73 80  1  0  0  0
 74 75  1  0  0  0
 74 84  1  0  0  0
 75 76  2  0  0  0
 75 85  1  0  0  0
 76 87  1  0  0  0
 77 80  1  0  0  0
 77 81  1  0  0  0
 77 88  2  0  0  0
 78 79  1  0  0  0
 78 80  1  0  0  0
 78150  1  0  0  0
 78151  1  0  0  0
 79 81  1  0  0  0
 79152  1  0  0  0
 79153  1  0  0  0
 80154  1  0  0  0
 81 86  1  0  0  0
 81155  1  0  0  0
 82 84  1  0  0  0
 82156  1  0  0  0
 82157  1  0  0  0
 82158  1  0  0  0
 83 85  1  0  0  0
 83159  1  0  0  0
 83160  1  0  0  0
 83161  1  0  0  0
 84162  1  0  0  0
 84163  1  0  0  0
 85164  1  0  0  0
 85165  1  0  0  0
 86166  1  0  0  0
 86167  1  0  0  0
 87168  1  0  0  0
M  ISO  4   1 100  68 101  86 101  87 100
M  END
> <chiral flag>
0

> <version>
0

> <s_m_source_file>
/data/baiqing/PycharmProjects/Reinvent-master-3.2/result/LINK_invent/BTK/process_docking_weight1_custom_product_contain_oxygen_bond_distance_aromatic_linkinvent_7_9_3/rearranged_h_0054.sdf

> <i_m_source_file_index>
12

> <r_mmod_Potential_Energy-OPLS-2005>
174.639251708984

> <r_mmod_Stretch_Energy-OPLS-2005>
85.6900863647461

> <r_mmod_Bend_Energy-OPLS-2005>
183.574005126953

> <r_mmod_Torsional_Energy-OPLS-2005>
274.873901367188

> <r_mmod_Improper_Torsional_Energy-OPLS-2005>
4.44390201568604

> <r_mmod_Van_der_Waal_Energy-OPLS-2005>
151.213165283203

> <r_mmod_Electrostatic_Energy-OPLS-2005>
-361.826721191406

> <r_mmod_Solvation_Energy-OPLS-2005>
-208.208511352539

> <b_mmod_Minimization_Converged-OPLS-2005>
0

> <r_mmod_RMS_Derivative-OPLS-2005>
6.23221445083618

$$$$
12
                    3D
 Structure written by MMmdl.
164173  0  0  1  0            999 V2000
  -30.6049  -14.7477   20.4047 C   0  0  0  0  0  0
  -30.4318  -12.4246   19.4986 C   0  0  0  0  0  0
  -29.5079  -12.4151   18.2578 C   0  0  0  0  0  0
  -28.0315  -12.2853   18.6756 C   0  0  0  0  0  0
  -27.6383  -13.2188   19.8521 C   0  0  2  0  0  0
  -28.6840  -13.1898   20.9909 C   0  0  0  0  0  0
  -25.2472  -13.8192   20.5707 C   0  0  0  0  0  0
  -24.1738  -13.0475   20.9220 C   0  0  0  0  0  0
  -24.6301  -11.6935   20.8753 C   0  0  0  0  0  0
  -23.8980  -10.4304   21.0412 C   0  0  0  0  0  0
  -24.3551   -9.4201   21.9181 C   0  0  0  0  0  0
  -23.6256   -8.2219   22.0707 C   0  0  0  0  0  0
  -22.4241   -8.0249   21.3505 C   0  0  0  0  0  0
  -21.9886   -9.0204   20.4601 C   0  0  0  0  0  0
  -22.7183  -10.2107   20.3032 C   0  0  0  0  0  0
  -21.6869   -6.0670   22.5241 C   0  0  0  0  0  0
  -21.4021   -6.5588   23.8176 C   0  0  0  0  0  0
  -21.3670   -5.6762   24.9149 C   0  0  0  0  0  0
  -21.6067   -4.3013   24.7224 C   0  0  0  0  0  0
  -21.8832   -3.8091   23.4365 C   0  0  0  0  0  0
  -21.9188   -4.6895   22.3394 C   0  0  0  0  0  0
  -22.7743  -13.5215   21.1948 C   0  0  0  0  0  0
  -22.1654   -4.2060   21.0980 F   0  0  0  0  0  0
  -21.5653   -3.4520   25.7758 F   0  0  0  0  0  0
  -29.9935  -13.5121   20.4047 N   0  0  0  0  0  0
  -26.2894  -12.9364   20.3331 N   0  0  0  0  0  0
  -25.9228  -11.6531   20.5818 N   0  0  0  0  0  0
  -22.0400  -12.8154   22.0470 N   0  0  0  0  0  0
  -25.4359  -15.1911   20.4063 N   0  0  0  0  0  0
  -31.7896  -14.8544   20.0692 O   0  0  0  0  0  0
  -21.6647   -6.8811   21.4205 O   0  0  0  0  0  0
  -22.3360  -14.5501   20.6797 O   0  0  0  0  0  0
  -24.6276  -31.8596   23.2048 C   0  0  0  0  0  0
  -25.9124  -32.4787   23.8359 C   0  0  1  0  0  0
  -27.2077  -27.2987   20.1011 C   0  0  0  0  0  0
  -25.5956  -33.8589   24.2292 N   0  0  0  0  0  0
  -23.4237  -30.4798   21.5509 C   0  0  2  0  0  0
  -24.8658  -28.9431   20.1065 C   0  0  0  0  0  0
  -22.7567  -29.4549   22.4985 C   0  0  0  0  0  0
  -18.0296  -28.1260   22.8361 C   0  0  0  0  0  0
  -24.1497  -36.7304   23.2636 C   0  0  0  0  0  0
  -25.9662  -30.7771   21.3828 C   0  0  0  0  0  0
  -26.0349  -29.4066   20.7217 C   0  0  0  0  0  0
  -27.2099  -28.5929   20.7123 C   0  0  0  0  0  0
  -26.0199  -26.9131   19.4359 C   0  0  0  0  0  0
  -24.8618  -27.7070   19.4510 C   0  0  0  0  0  0
  -23.6371  -29.8259   20.1610 C   0  0  0  0  0  0
  -25.4118  -36.3101   24.0330 C   0  0  1  0  0  0
  -20.5937  -28.3490   23.1090 C   0  0  2  0  0  0
  -20.6949  -26.9307   22.4908 C   0  0  0  0  0  0
  -19.5606  -26.5707   21.5222 C   0  0  0  0  0  0
  -18.1784  -26.7734   22.1555 C   0  0  0  0  0  0
  -19.1589  -28.8668   23.2718 C   0  0  0  0  0  0
  -18.9606  -30.1302   23.8744 C   0  0  0  0  0  0
  -17.6654  -30.6456   24.0564 C   0  0  0  0  0  0
  -25.9058  -34.9465   23.5107 C   0  0  0  0  0  0
  -16.5480  -29.9000   23.6392 C   0  0  0  0  0  0
  -16.7306  -28.6442   23.0323 C   0  0  0  0  0  0
  -26.4493  -31.6613   25.0749 C   0  0  0  0  0  0
  -25.3718  -31.3747   26.1469 C   0  0  0  0  0  0
  -27.0326  -30.3044   24.6194 C   0  0  0  0  0  0
  -27.6071  -32.4337   25.7532 C   0  0  0  0  0  0
  -27.5589  -37.1820   24.8472 C   0  0  0  0  0  0
  -21.4260  -29.3117   22.3835 N   0  0  0  0  0  0
  -26.4299  -37.3793   23.9424 N   0  0  0  0  0  0
  -24.6915  -31.0559   22.1035 N   0  0  0  0  0  0
  -23.4316  -28.7973   23.2931 O   0  0  0  0  0  0
  -28.2932  -26.4049   20.1825 O   0  0  0  0  0  0
  -26.5607  -34.8922   22.4674 O   0  0  0  0  0  0
  -23.5428  -32.1442   23.7342 O   0  0  0  0  0  0
  -28.9929  -19.6714   18.6423 C   0  0  0  0  0  0
  -29.6545  -18.4539   20.6260 C   0  0  0  0  0  0
  -29.0425  -18.4741   17.9106 C   0  0  0  0  0  0
  -29.4455  -17.2516   18.5125 C   0  0  0  0  0  0
  -29.2989  -19.7346   20.0167 C   0  0  0  0  0  0
  -29.7192  -17.1836   19.9153 C   0  0  0  0  0  0
  -28.9876  -21.1981   22.0235 C   0  0  0  0  0  0
  -28.2178  -22.4211   22.5380 C   0  0  0  0  0  0
  -28.8227  -23.7484   22.0566 C   0  0  0  0  0  0
  -28.7772  -22.3302   19.8742 C   0  0  0  0  0  0
  -28.9492  -23.8042   20.5199 C   0  0  1  0  0  0
  -28.5623  -18.5322   16.4638 C   0  0  0  0  0  0
  -29.4898  -16.0301   17.6097 C   0  0  0  0  0  0
  -28.0286  -24.9622   19.9132 C   0  0  0  0  0  0
  -29.1221  -21.0702   20.6769 N   0  0  0  0  0  0
  -29.8181  -15.8668   20.6149 N   0  0  0  0  0  0
  -29.4351  -20.4045   22.8574 O   0  0  0  0  0  0
  -28.2875  -15.4617   17.5438 F   0  0  0  0  0  0
  -31.4703  -12.5487   19.1917 H   0  0  0  0  0  0
  -30.3823  -11.4658   20.0174 H   0  0  0  0  0  0
  -29.7751  -11.5839   17.5997 H   0  0  0  0  0  0
  -29.6554  -13.3062   17.6575 H   0  0  0  0  0  0
  -27.8791  -11.2514   18.9873 H   0  0  0  0  0  0
  -27.3751  -12.4394   17.8181 H   0  0  0  0  0  0
  -27.6274  -14.2257   19.4445 H   0  0  0  0  0  0
  -28.7068  -12.2211   21.4887 H   0  0  0  0  0  0
  -28.4146  -13.9161   21.7597 H   0  0  0  0  0  0
  -25.2681   -9.5676   22.4767 H   0  0  0  0  0  0
  -23.9964   -7.4593   22.7419 H   0  0  0  0  0  0
  -21.0817   -8.8717   19.8890 H   0  0  0  0  0  0
  -22.3637  -10.9638   19.6117 H   0  0  0  0  0  0
  -21.2015   -7.6093   23.9664 H   0  0  0  0  0  0
  -21.1499   -6.0482   25.9055 H   0  0  0  0  0  0
  -22.0609   -2.7550   23.2900 H   0  0  0  0  0  0
  -22.4004  -11.9805   22.4874 H   0  0  0  0  0  0
  -21.0980  -13.1076   22.2691 H   0  0  0  0  0  0
  -24.6826  -15.8667   20.4720 H   0  0  0  0  0  0
  -26.2972  -15.5965   20.0639 H   0  0  0  0  0  0
  -26.7212  -32.5422   23.1109 H   0  0  0  0  0  0
  -25.0127  -33.9732   25.0442 H   0  0  0  0  0  0
  -22.7132  -31.2961   21.4125 H   0  0  0  0  0  0
  -23.3760  -35.9636   23.3300 H   0  0  0  0  0  0
  -24.3583  -36.8926   22.2056 H   0  0  0  0  0  0
  -23.7240  -37.6507   23.6641 H   0  0  0  0  0  0
  -26.0981  -31.5353   20.6102 H   0  0  0  0  0  0
  -26.8491  -30.8262   22.0080 H   0  0  0  0  0  0
  -28.1050  -28.9343   21.2114 H   0  0  0  0  0  0
  -25.9512  -25.9787   18.8987 H   0  0  0  0  0  0
  -23.9746  -27.3672   18.9341 H   0  0  0  0  0  0
  -23.7656  -30.6114   19.4150 H   0  0  0  0  0  0
  -22.7582  -29.2602   19.8436 H   0  0  0  0  0  0
  -25.1287  -36.1962   25.0815 H   0  0  0  0  0  0
  -20.9967  -28.2763   24.1216 H   0  0  0  0  0  0
  -20.6628  -26.1984   23.2972 H   0  0  0  0  0  0
  -21.6712  -26.7794   22.0213 H   0  0  0  0  0  0
  -19.6596  -25.5283   21.2141 H   0  0  0  0  0  0
  -19.6403  -27.1592   20.6096 H   0  0  0  0  0  0
  -17.4061  -26.6568   21.3914 H   0  0  0  0  0  0
  -17.9896  -25.9949   22.8953 H   0  0  0  0  0  0
  -19.8130  -30.7081   24.2048 H   0  0  0  0  0  0
  -17.5300  -31.6103   24.5247 H   0  0  0  0  0  0
  -15.5519  -30.2908   23.7879 H   0  0  0  0  0  0
  -15.8647  -28.0833   22.7045 H   0  0  0  0  0  0
  -24.5877  -30.7130   25.7782 H   0  0  0  0  0  0
  -24.8921  -32.2913   26.4922 H   0  0  0  0  0  0
  -25.8025  -30.8901   27.0240 H   0  0  0  0  0  0
  -26.2891  -29.6819   24.1217 H   0  0  0  0  0  0
  -27.4052  -29.7270   25.4664 H   0  0  0  0  0  0
  -27.8748  -30.4372   23.9402 H   0  0  0  0  0  0
  -27.2690  -33.3611   26.2161 H   0  0  0  0  0  0
  -28.3855  -32.6944   25.0354 H   0  0  0  0  0  0
  -28.0766  -31.8435   26.5416 H   0  0  0  0  0  0
  -28.2608  -38.0115   24.7507 H   0  0  0  0  0  0
  -28.1084  -36.2649   24.6305 H   0  0  0  0  0  0
  -27.2312  -37.1483   25.8875 H   0  0  0  0  0  0
  -20.9440  -29.9400   21.7573 H   0  0  0  0  0  0
  -26.0188  -38.2875   24.1418 H   0  0  0  0  0  0
  -28.6402  -20.5402   18.1094 H   0  0  0  0  0  0
  -29.8532  -18.4168   21.6854 H   0  0  0  0  0  0
  -28.1622  -22.4025   23.6253 H   0  0  0  0  0  0
  -27.1911  -22.3365   22.1821 H   0  0  0  0  0  0
  -29.8047  -23.8834   22.5117 H   0  0  0  0  0  0
  -28.2202  -24.5767   22.4324 H   0  0  0  0  0  0
  -29.3649  -22.3322   18.9532 H   0  0  0  0  0  0
  -27.7323  -22.2155   19.5722 H   0  0  0  0  0  0
  -29.9736  -24.1193   20.3085 H   0  0  0  0  0  0
  -27.9093  -17.6911   16.2236 H   0  0  0  0  0  0
  -29.4044  -18.5207   15.7733 H   0  0  0  0  0  0
  -27.9839  -19.4379   16.2722 H   0  0  0  0  0  0
  -29.7800  -16.2882   16.5946 H   0  0  0  0  0  0
  -30.2353  -15.3056   17.9080 H   0  0  0  0  0  0
  -27.0295  -24.7081   20.2740 H   0  0  0  0  0  0
  -28.0005  -24.8414   18.8277 H   0  0  0  0  0  0
  -28.9659  -15.6248   21.0968 H   0  0  0  0  0  0
  1 25  1  0  0  0
  1 30  2  0  0  0
  1 86  1  0  0  0
  2  3  1  0  0  0
  2 25  1  0  0  0
  2 89  1  0  0  0
  2 90  1  0  0  0
  3  4  1  0  0  0
  3 91  1  0  0  0
  3 92  1  0  0  0
  4  5  1  0  0  0
  4 93  1  0  0  0
  4 94  1  0  0  0
  5  6  1  0  0  0
  5 26  1  0  0  0
  5 95  1  0  0  0
  6 25  1  0  0  0
  6 96  1  0  0  0
  6 97  1  0  0  0
  7  8  2  0  0  0
  7 26  1  0  0  0
  7 29  1  0  0  0
  8  9  1  0  0  0
  8 22  1  0  0  0
  9 10  1  0  0  0
  9 27  2  0  0  0
 10 11  2  0  0  0
 10 15  1  0  0  0
 11 12  1  0  0  0
 11 98  1  0  0  0
 12 13  2  0  0  0
 12 99  1  0  0  0
 13 14  1  0  0  0
 13 31  1  0  0  0
 14 15  2  0  0  0
 14100  1  0  0  0
 15101  1  0  0  0
 16 17  2  0  0  0
 16 21  1  0  0  0
 16 31  1  0  0  0
 17 18  1  0  0  0
 17102  1  0  0  0
 18 19  2  0  0  0
 18103  1  0  0  0
 19 20  1  0  0  0
 19 24  1  0  0  0
 20 21  2  0  0  0
 20104  1  0  0  0
 21 23  1  0  0  0
 22 28  1  0  0  0
 22 32  2  0  0  0
 26 27  1  0  0  0
 28105  1  0  0  0
 28106  1  0  0  0
 29107  1  0  0  0
 29108  1  0  0  0
 33 34  1  0  0  0
 33 66  1  0  0  0
 33 70  2  0  0  0
 34 36  1  0  0  0
 34 59  1  0  0  0
 34109  1  0  0  0
 35 44  2  0  0  0
 35 45  1  0  0  0
 35 68  1  0  0  0
 36 56  1  0  0  0
 36110  1  0  0  0
 37 39  1  0  0  0
 37 47  1  0  0  0
 37 66  1  0  0  0
 37111  1  0  0  0
 38 43  2  0  0  0
 38 46  1  0  0  0
 38 47  1  0  0  0
 39 64  1  0  0  0
 39 67  2  0  0  0
 40 52  1  0  0  0
 40 53  2  0  0  0
 40 58  1  0  0  0
 41112  1  0  0  0
 41113  1  0  0  0
 41114  1  0  0  0
 41 48  1  0  0  0
 42 43  1  0  0  0
 42 66  1  0  0  0
 42115  1  0  0  0
 42116  1  0  0  0
 43 44  1  0  0  0
 44117  1  0  0  0
 45 46  2  0  0  0
 45118  1  0  0  0
 46119  1  0  0  0
 47120  1  0  0  0
 47121  1  0  0  0
 48 56  1  0  0  0
 48 65  1  0  0  0
 48122  1  0  0  0
 49 50  1  0  0  0
 49 53  1  0  0  0
 49 64  1  0  0  0
 49123  1  0  0  0
 50 51  1  0  0  0
 50124  1  0  0  0
 50125  1  0  0  0
 51 52  1  0  0  0
 51126  1  0  0  0
 51127  1  0  0  0
 52128  1  0  0  0
 52129  1  0  0  0
 53 54  1  0  0  0
 54 55  2  0  0  0
 54130  1  0  0  0
 55 57  1  0  0  0
 55131  1  0  0  0
 56 69  2  0  0  0
 57 58  2  0  0  0
 57132  1  0  0  0
 58133  1  0  0  0
 59 60  1  0  0  0
 59 61  1  0  0  0
 59 62  1  0  0  0
 60134  1  0  0  0
 60135  1  0  0  0
 60136  1  0  0  0
 61137  1  0  0  0
 61138  1  0  0  0
 61139  1  0  0  0
 62140  1  0  0  0
 62141  1  0  0  0
 62142  1  0  0  0
 63 65  1  0  0  0
 63143  1  0  0  0
 63144  1  0  0  0
 63145  1  0  0  0
 64146  1  0  0  0
 65147  1  0  0  0
 68 84  1  0  0  0
 71 73  2  0  0  0
 71 75  1  0  0  0
 71148  1  0  0  0
 72 75  2  0  0  0
 72 76  1  0  0  0
 72149  1  0  0  0
 73 74  1  0  0  0
 73 82  1  0  0  0
 74 76  2  0  0  0
 74 83  1  0  0  0
 75 85  1  0  0  0
 76 86  1  0  0  0
 77 78  1  0  0  0
 77 85  1  0  0  0
 77 87  2  0  0  0
 78 79  1  0  0  0
 78150  1  0  0  0
 78151  1  0  0  0
 79 81  1  0  0  0
 79152  1  0  0  0
 79153  1  0  0  0
 80 81  1  0  0  0
 80 85  1  0  0  0
 80154  1  0  0  0
 80155  1  0  0  0
 81 84  1  0  0  0
 81156  1  0  0  0
 82157  1  0  0  0
 82158  1  0  0  0
 82159  1  0  0  0
 83 88  1  0  0  0
 83160  1  0  0  0
 83161  1  0  0  0
 84162  1  0  0  0
 84163  1  0  0  0
 86164  1  0  0  0
M  ISO  4   1 100  68 101  84 101  86 100
M  END
> <chiral flag>
0

> <version>
0

> <s_m_source_file>
/data/baiqing/PycharmProjects/Reinvent-master-3.2/result/LINK_invent/BTK/process_docking_weight1_custom_product_contain_oxygen_bond_distance_aromatic_linkinvent_7_9_3/rearranged_h_0054.sdf

> <i_m_source_file_index>
13

> <r_mmod_Potential_Energy-OPLS-2005>
311.6962890625

> <r_mmod_Stretch_Energy-OPLS-2005>
124.836349487305

> <r_mmod_Bend_Energy-OPLS-2005>
164.764343261719

> <r_mmod_Torsional_Energy-OPLS-2005>
321.6572265625

> <r_mmod_Improper_Torsional_Energy-OPLS-2005>
7.61514759063721

> <r_mmod_Van_der_Waal_Energy-OPLS-2005>
177.058227539062

> <r_mmod_Electrostatic_Energy-OPLS-2005>
-354.422637939453

> <r_mmod_Solvation_Energy-OPLS-2005>
-216.50048828125

> <b_mmod_Minimization_Converged-OPLS-2005>
0

> <r_mmod_RMS_Derivative-OPLS-2005>
5.71494722366333

$$$$
13
                    3D
 Structure written by MMmdl.
161170  0  0  1  0            999 V2000
  -31.8543  -15.0076   19.6741 C   0  0  0  0  0  0
  -30.7403  -13.0211   20.1785 C   0  0  0  0  0  0
  -29.5072  -11.8279   19.6556 C   0  0  0  0  0  0
  -27.9084  -12.0440   18.9788 C   0  0  0  0  0  0
  -26.9858  -13.5489   19.0726 C   0  0  2  0  0  0
  -27.8190  -15.3665   18.9864 C   0  0  0  0  0  0
  -25.0807  -13.9692   20.6218 C   0  0  0  0  0  0
  -24.0887  -13.1219   21.0155 C   0  0  0  0  0  0
  -24.5907  -11.7904   20.9339 C   0  0  0  0  0  0
  -23.9135  -10.4878   21.0730 C   0  0  0  0  0  0
  -24.3837   -9.4659   21.9285 C   0  0  0  0  0  0
  -23.6595   -8.2582   22.0687 C   0  0  0  0  0  0
  -22.4555   -8.0588   21.3563 C   0  0  0  0  0  0
  -22.0245   -9.0591   20.4638 C   0  0  0  0  0  0
  -22.7455  -10.2551   20.3209 C   0  0  0  0  0  0
  -21.7001   -6.0926   22.5294 C   0  0  0  0  0  0
  -21.4111   -6.5759   23.8246 C   0  0  0  0  0  0
  -21.3668   -5.6850   24.9179 C   0  0  0  0  0  0
  -21.6052   -4.3125   24.7194 C   0  0  0  0  0  0
  -21.8800   -3.8254   23.4290 C   0  0  0  0  0  0
  -21.9247   -4.7128   22.3386 C   0  0  0  0  0  0
  -22.6882  -13.5439   21.2503 C   0  0  0  0  0  0
  -22.1679   -4.2279   21.0955 F   0  0  0  0  0  0
  -21.5603   -3.4564   25.7692 F   0  0  0  0  0  0
  -30.6052  -14.7860   19.9652 N   0  0  0  0  0  0
  -26.0680  -13.1767   20.1623 N   0  0  0  0  0  0
  -25.8356  -11.8617   20.5274 N   0  0  0  0  0  0
  -21.9633  -12.8148   22.0763 N   0  0  0  0  0  0
  -25.1556  -15.3421   20.4777 N   0  0  0  0  0  0
  -32.6857  -14.8860   20.5218 O   0  0  0  0  0  0
  -21.6874   -6.9147   21.4296 O   0  0  0  0  0  0
  -22.2389  -14.5613   20.7241 O   0  0  0  0  0  0
  -24.6832  -31.8029   23.1444 C   0  0  0  0  0  0
  -25.9446  -32.4434   23.7966 C   0  0  1  0  0  0
  -27.0309  -26.5895   20.3511 C   0  0  0  0  0  0
  -25.6047  -33.8260   24.1885 N   0  0  0  0  0  0
  -23.4992  -30.4122   21.5018 C   0  0  2  0  0  0
  -24.9240  -28.7467   20.1098 C   0  0  0  0  0  0
  -22.7732  -29.4347   22.4683 C   0  0  0  0  0  0
  -18.0342  -28.1419   22.8459 C   0  0  0  0  0  0
  -24.1505  -36.7150   23.2638 C   0  0  0  0  0  0
  -26.0751  -30.5039   21.4122 C   0  0  0  0  0  0
  -26.1052  -29.0594   20.7899 C   0  0  0  0  0  0
  -27.1593  -28.0062   20.8741 C   0  0  0  0  0  0
  -25.8666  -26.5167   19.5540 C   0  0  0  0  0  0
  -24.8537  -27.5127   19.4470 C   0  0  0  0  0  0
  -23.7409  -29.7213   20.1305 C   0  0  0  0  0  0
  -25.4156  -36.2866   24.0253 C   0  0  1  0  0  0
  -20.5961  -28.3765   23.1139 C   0  0  2  0  0  0
  -20.6797  -26.9436   22.5387 C   0  0  0  0  0  0
  -19.5771  -26.6373   21.5199 C   0  0  0  0  0  0
  -18.1965  -26.7940   22.1622 C   0  0  0  0  0  0
  -19.1610  -28.8919   23.2772 C   0  0  0  0  0  0
  -18.9518  -30.1500   23.8816 C   0  0  0  0  0  0
  -17.6511  -30.6605   24.0545 C   0  0  0  0  0  0
  -25.9153  -34.9268   23.4903 C   0  0  0  0  0  0
  -16.5394  -29.9091   23.6362 C   0  0  0  0  0  0
  -16.7317  -28.6512   23.0375 C   0  0  0  0  0  0
  -26.4599  -31.6423   25.0570 C   0  0  0  0  0  0
  -25.3652  -31.3756   26.1171 C   0  0  0  0  0  0
  -27.0465  -30.2756   24.6393 C   0  0  0  0  0  0
  -27.6069  -32.4202   25.7421 C   0  0  0  0  0  0
  -27.5560  -37.1725   24.8472 C   0  0  0  0  0  0
  -21.4380  -29.3016   22.3442 N   0  0  0  0  0  0
  -26.4278  -37.3637   23.9398 N   0  0  0  0  0  0
  -24.7780  -30.9458   22.0707 N   0  0  0  0  0  0
  -23.4198  -28.7964   23.3038 O   0  0  0  0  0  0
  -27.8668  -25.2886   20.5180 O   0  0  0  0  0  0
  -26.5804  -34.8859   22.4529 O   0  0  0  0  0  0
  -23.5872  -32.1144   23.6432 O   0  0  0  0  0  0
  -29.3124  -13.9175   18.4632 C   0  0  0  0  0  0
  -28.6388  -14.3585   20.6726 C   0  0  0  0  0  0
  -29.8821  -16.5937   18.2932 C   0  0  0  0  0  0
  -29.8888  -15.1795   17.6922 C   0  0  0  0  0  0
  -28.8685  -16.2422   20.8886 C   0  0  0  0  0  0
  -29.5698  -17.0313   19.7308 C   0  0  0  0  0  0
  -27.6722  -20.4379   20.0518 C   0  0  0  0  0  0
  -27.7020  -22.1590   19.7652 C   0  0  0  0  0  0
  -28.1960  -22.5439   21.9288 C   0  0  0  0  0  0
  -27.9664  -20.8378   22.2082 C   0  0  0  0  0  0
  -27.5239  -23.5502   20.7644 C   0  0  1  0  0  0
  -28.0916  -17.8319   21.5258 C   0  0  0  0  0  0
  -31.2765  -14.9391   17.1789 C   0  0  0  0  0  0
  -28.0677  -19.6283   21.1767 N   0  0  0  0  0  0
  -32.1677  -15.1343   18.3564 N   0  0  0  0  0  0
  -27.2639  -19.8030   19.0798 O   0  0  0  0  0  0
  -30.5238  -18.4254   20.1512 Cl  0  0  0  0  0  0
  -31.6712  -12.6364   19.7579 H   0  0  0  0  0  0
  -30.8860  -12.8807   21.2513 H   0  0  0  0  0  0
  -29.3469  -11.2140   20.5385 H   0  0  0  0  0  0
  -30.0207  -11.1410   18.9728 H   0  0  0  0  0  0
  -27.3994  -11.1043   19.1131 H   0  0  0  0  0  0
  -27.9839  -11.8799   17.8960 H   0  0  0  0  0  0
  -26.3478  -13.5653   18.1874 H   0  0  0  0  0  0
  -27.1702  -16.1451   19.4157 H   0  0  0  0  0  0
  -27.6353  -15.7045   17.9494 H   0  0  0  0  0  0
  -25.3014   -9.6169   22.4795 H   0  0  0  0  0  0
  -24.0448   -7.4946   22.7274 H   0  0  0  0  0  0
  -21.1260   -8.9174   19.8785 H   0  0  0  0  0  0
  -22.4018  -11.0170   19.6308 H   0  0  0  0  0  0
  -21.2122   -7.6243   23.9812 H   0  0  0  0  0  0
  -21.1455   -6.0533   25.9077 H   0  0  0  0  0  0
  -22.0533   -2.7705   23.2762 H   0  0  0  0  0  0
  -22.3732  -12.0267   22.5512 H   0  0  0  0  0  0
  -20.9889  -13.0435   22.2111 H   0  0  0  0  0  0
  -25.8170  -15.8168   19.8724 H   0  0  0  0  0  0
  -24.3411  -15.9082   20.6933 H   0  0  0  0  0  0
  -26.7522  -32.4870   23.0650 H   0  0  0  0  0  0
  -25.0039  -33.9266   24.9936 H   0  0  0  0  0  0
  -22.8262  -31.2534   21.3214 H   0  0  0  0  0  0
  -23.3776  -35.9478   23.3243 H   0  0  0  0  0  0
  -24.3562  -36.8885   22.2068 H   0  0  0  0  0  0
  -23.7276  -37.6307   23.6771 H   0  0  0  0  0  0
  -26.2725  -31.2024   20.5983 H   0  0  0  0  0  0
  -26.9391  -30.5837   22.0589 H   0  0  0  0  0  0
  -28.0377  -28.2337   21.4600 H   0  0  0  0  0  0
  -25.6636  -25.5777   19.0643 H   0  0  0  0  0  0
  -23.9628  -27.2713   18.8831 H   0  0  0  0  0  0
  -23.9279  -30.4777   19.3681 H   0  0  0  0  0  0
  -22.8367  -29.2006   19.8074 H   0  0  0  0  0  0
  -25.1375  -36.1599   25.0746 H   0  0  0  0  0  0
  -21.0059  -28.3398   24.1248 H   0  0  0  0  0  0
  -20.5658  -26.2407   23.3646 H   0  0  0  0  0  0
  -21.6670  -26.7381   22.1207 H   0  0  0  0  0  0
  -19.6932  -25.6267   21.1277 H   0  0  0  0  0  0
  -19.6703  -27.3148   20.6700 H   0  0  0  0  0  0
  -17.4220  -26.6664   21.4037 H   0  0  0  0  0  0
  -18.0371  -26.0096   22.9042 H   0  0  0  0  0  0
  -19.7995  -30.7334   24.2154 H   0  0  0  0  0  0
  -17.5065  -31.6274   24.5163 H   0  0  0  0  0  0
  -15.5396  -30.2968   23.7718 H   0  0  0  0  0  0
  -15.8708  -28.0789   22.7144 H   0  0  0  0  0  0
  -24.5878  -30.7057   25.7465 H   0  0  0  0  0  0
  -24.8786  -32.2986   26.4344 H   0  0  0  0  0  0
  -25.7814  -30.9075   27.0105 H   0  0  0  0  0  0
  -26.3181  -29.6487   24.1231 H   0  0  0  0  0  0
  -27.3769  -29.7035   25.5075 H   0  0  0  0  0  0
  -27.9213  -30.3881   23.9976 H   0  0  0  0  0  0
  -27.2649  -33.3567   26.1844 H   0  0  0  0  0  0
  -28.4006  -32.6643   25.0337 H   0  0  0  0  0  0
  -28.0599  -31.8385   26.5468 H   0  0  0  0  0  0
  -28.2565  -38.0025   24.7489 H   0  0  0  0  0  0
  -28.1063  -36.2548   24.6347 H   0  0  0  0  0  0
  -27.2257  -37.1418   25.8868 H   0  0  0  0  0  0
  -20.9688  -29.8642   21.6472 H   0  0  0  0  0  0
  -26.0091  -38.2681   24.1403 H   0  0  0  0  0  0
  -29.5303  -13.0896   17.8104 H   0  0  0  0  0  0
  -28.2119  -13.6565   21.3760 H   0  0  0  0  0  0
  -30.4513  -17.3378   17.7561 H   0  0  0  0  0  0
  -26.9283  -22.2932   19.0073 H   0  0  0  0  0  0
  -28.6404  -22.3124   19.2298 H   0  0  0  0  0  0
  -27.9408  -23.0384   22.8669 H   0  0  0  0  0  0
  -29.2635  -22.7122   21.8365 H   0  0  0  0  0  0
  -26.9492  -20.7666   22.6075 H   0  0  0  0  0  0
  -28.6187  -20.5563   23.0433 H   0  0  0  0  0  0
  -26.4552  -23.5903   20.9954 H   0  0  0  0  0  0
  -28.2609  -17.7750   22.6026 H   0  0  0  0  0  0
  -27.0330  -17.5989   21.4362 H   0  0  0  0  0  0
  -31.3908  -13.9401   16.7744 H   0  0  0  0  0  0
  -31.5174  -15.6333   16.3780 H   0  0  0  0  0  0
  -33.1354  -15.3510   18.1432 H   0  0  0  0  0  0
  1 25  1  0  0  0
  1 30  2  0  0  0
  1 85  1  0  0  0
  2  3  1  0  0  0
  2 25  1  0  0  0
  2 88  1  0  0  0
  2 89  1  0  0  0
  3  4  1  0  0  0
  3 90  1  0  0  0
  3 91  1  0  0  0
  4  5  1  0  0  0
  4 92  1  0  0  0
  4 93  1  0  0  0
  5  6  1  0  0  0
  5 26  1  0  0  0
  5 94  1  0  0  0
  6 25  1  0  0  0
  6 95  1  0  0  0
  6 96  1  0  0  0
  7  8  2  0  0  0
  7 26  1  0  0  0
  7 29  1  0  0  0
  8  9  1  0  0  0
  8 22  1  0  0  0
  9 10  1  0  0  0
  9 27  2  0  0  0
 10 11  2  0  0  0
 10 15  1  0  0  0
 11 12  1  0  0  0
 11 97  1  0  0  0
 12 13  2  0  0  0
 12 98  1  0  0  0
 13 14  1  0  0  0
 13 31  1  0  0  0
 14 15  2  0  0  0
 14 99  1  0  0  0
 15100  1  0  0  0
 16 17  2  0  0  0
 16 21  1  0  0  0
 16 31  1  0  0  0
 17 18  1  0  0  0
 17101  1  0  0  0
 18 19  2  0  0  0
 18102  1  0  0  0
 19 20  1  0  0  0
 19 24  1  0  0  0
 20 21  2  0  0  0
 20103  1  0  0  0
 21 23  1  0  0  0
 22 28  1  0  0  0
 22 32  2  0  0  0
 26 27  1  0  0  0
 28104  1  0  0  0
 28105  1  0  0  0
 29106  1  0  0  0
 29107  1  0  0  0
 33 34  1  0  0  0
 33 66  1  0  0  0
 33 70  2  0  0  0
 34 36  1  0  0  0
 34 59  1  0  0  0
 34108  1  0  0  0
 35 44  2  0  0  0
 35 45  1  0  0  0
 35 68  1  0  0  0
 36 56  1  0  0  0
 36109  1  0  0  0
 37 39  1  0  0  0
 37 47  1  0  0  0
 37 66  1  0  0  0
 37110  1  0  0  0
 38 43  2  0  0  0
 38 46  1  0  0  0
 38 47  1  0  0  0
 39 64  1  0  0  0
 39 67  2  0  0  0
 40 52  1  0  0  0
 40 53  2  0  0  0
 40 58  1  0  0  0
 41111  1  0  0  0
 41112  1  0  0  0
 41113  1  0  0  0
 41 48  1  0  0  0
 42 43  1  0  0  0
 42 66  1  0  0  0
 42114  1  0  0  0
 42115  1  0  0  0
 43 44  1  0  0  0
 44116  1  0  0  0
 45 46  2  0  0  0
 45117  1  0  0  0
 46118  1  0  0  0
 47119  1  0  0  0
 47120  1  0  0  0
 48 56  1  0  0  0
 48 65  1  0  0  0
 48121  1  0  0  0
 49 50  1  0  0  0
 49 53  1  0  0  0
 49 64  1  0  0  0
 49122  1  0  0  0
 50 51  1  0  0  0
 50123  1  0  0  0
 50124  1  0  0  0
 51 52  1  0  0  0
 51125  1  0  0  0
 51126  1  0  0  0
 52127  1  0  0  0
 52128  1  0  0  0
 53 54  1  0  0  0
 54 55  2  0  0  0
 54129  1  0  0  0
 55 57  1  0  0  0
 55130  1  0  0  0
 56 69  2  0  0  0
 57 58  2  0  0  0
 57131  1  0  0  0
 58132  1  0  0  0
 59 60  1  0  0  0
 59 61  1  0  0  0
 59 62  1  0  0  0
 60133  1  0  0  0
 60134  1  0  0  0
 60135  1  0  0  0
 61136  1  0  0  0
 61137  1  0  0  0
 61138  1  0  0  0
 62139  1  0  0  0
 62140  1  0  0  0
 62141  1  0  0  0
 63 65  1  0  0  0
 63142  1  0  0  0
 63143  1  0  0  0
 63144  1  0  0  0
 64145  1  0  0  0
 65146  1  0  0  0
 68 81  1  0  0  0
 71 72  2  0  0  0
 71 74  1  0  0  0
 71147  1  0  0  0
 72 75  1  0  0  0
 72148  1  0  0  0
 73 74  2  0  0  0
 73 76  1  0  0  0
 73149  1  0  0  0
 74 83  1  0  0  0
 75 76  2  0  0  0
 75 82  1  0  0  0
 76 87  1  0  0  0
 77 78  1  0  0  0
 77 84  1  0  0  0
 77 86  2  0  0  0
 78 81  1  0  0  0
 78150  1  0  0  0
 78151  1  0  0  0
 79 80  1  0  0  0
 79 81  1  0  0  0
 79152  1  0  0  0
 79153  1  0  0  0
 80 84  1  0  0  0
 80154  1  0  0  0
 80155  1  0  0  0
 81156  1  0  0  0
 82 84  1  0  0  0
 82157  1  0  0  0
 82158  1  0  0  0
 83 85  1  0  0  0
 83159  1  0  0  0
 83160  1  0  0  0
 85161  1  0  0  0
M  ISO  4   1 100  68 101  81 101  85 100
M  END
> <chiral flag>
0

> <version>
0

> <s_m_source_file>
/data/baiqing/PycharmProjects/Reinvent-master-3.2/result/LINK_invent/BTK/process_docking_weight1_custom_product_contain_oxygen_bond_distance_aromatic_linkinvent_7_9_3/rearranged_h_0054.sdf

> <i_m_source_file_index>
14

> <r_mmod_Potential_Energy-OPLS-2005>
14571.2373046875

> <r_mmod_Stretch_Energy-OPLS-2005>
7506.9150390625

> <r_mmod_Bend_Energy-OPLS-2005>
1106.19567871094

> <r_mmod_Torsional_Energy-OPLS-2005>
542.026489257812

> <r_mmod_Improper_Torsional_Energy-OPLS-2005>
47.8796691894531

> <r_mmod_Van_der_Waal_Energy-OPLS-2005>
3169.67553710938

> <r_mmod_Electrostatic_Energy-OPLS-2005>
-423.376037597656

> <r_mmod_Solvation_Energy-OPLS-2005>
-225.583389282227

> <b_mmod_Minimization_Converged-OPLS-2005>
0

> <r_mmod_RMS_Derivative-OPLS-2005>
29.5984840393066

$$$$
14
                    3D
 Structure written by MMmdl.
158166  0  0  1  0            999 V2000
  -30.6920  -14.4817   20.5705 C   0  0  0  0  0  0
  -30.4265  -12.3127   19.4299 C   0  0  0  0  0  0
  -29.4963  -12.5048   18.2139 C   0  0  0  0  0  0
  -28.0185  -12.3617   18.6259 C   0  0  0  0  0  0
  -27.6613  -13.2070   19.8770 C   0  0  2  0  0  0
  -28.7009  -12.9907   21.0005 C   0  0  0  0  0  0
  -25.2578  -13.8166   20.5683 C   0  0  0  0  0  0
  -24.1830  -13.0441   20.9181 C   0  0  0  0  0  0
  -24.6384  -11.6908   20.8736 C   0  0  0  0  0  0
  -23.9052  -10.4292   21.0407 C   0  0  0  0  0  0
  -24.3607   -9.4205   21.9183 C   0  0  0  0  0  0
  -23.6284   -8.2240   22.0752 C   0  0  0  0  0  0
  -22.4270   -8.0278   21.3544 C   0  0  0  0  0  0
  -21.9904   -9.0249   20.4647 C   0  0  0  0  0  0
  -22.7228  -10.2128   20.3055 C   0  0  0  0  0  0
  -21.6849   -6.0734   22.5276 C   0  0  0  0  0  0
  -21.4013   -6.5638   23.8209 C   0  0  0  0  0  0
  -21.3658   -5.6791   24.9171 C   0  0  0  0  0  0
  -21.6046   -4.3055   24.7225 C   0  0  0  0  0  0
  -21.8818   -3.8145   23.4345 C   0  0  0  0  0  0
  -21.9190   -4.6962   22.3401 C   0  0  0  0  0  0
  -22.7850  -13.5233   21.1843 C   0  0  0  0  0  0
  -22.1658   -4.2148   21.0980 F   0  0  0  0  0  0
  -21.5629   -3.4539   25.7736 F   0  0  0  0  0  0
  -30.0360  -13.2947   20.4545 N   0  0  0  0  0  0
  -26.3015  -12.9334   20.3371 N   0  0  0  0  0  0
  -25.9314  -11.6495   20.5770 N   0  0  0  0  0  0
  -22.0492  -12.8227   22.0402 N   0  0  0  0  0  0
  -25.4320  -15.1886   20.4098 N   0  0  0  0  0  0
  -31.8150  -14.6659   20.0913 O   0  0  0  0  0  0
  -21.6635   -6.8879   21.4241 O   0  0  0  0  0  0
  -22.3538  -14.5545   20.6698 O   0  0  0  0  0  0
  -24.6159  -31.8685   23.2113 C   0  0  0  0  0  0
  -25.9061  -32.4817   23.8398 C   0  0  1  0  0  0
  -27.2388  -27.4331   20.0783 C   0  0  0  0  0  0
  -25.5922  -33.8614   24.2319 N   0  0  0  0  0  0
  -23.4030  -30.4918   21.5521 C   0  0  2  0  0  0
  -24.8473  -28.9559   20.1190 C   0  0  0  0  0  0
  -22.7421  -29.4646   22.4995 C   0  0  0  0  0  0
  -18.0264  -28.1359   22.8476 C   0  0  0  0  0  0
  -24.1495  -36.7297   23.2634 C   0  0  0  0  0  0
  -25.9358  -30.8268   21.3722 C   0  0  0  0  0  0
  -26.0087  -29.4640   20.7119 C   0  0  0  0  0  0
  -27.2036  -28.7085   20.6898 C   0  0  0  0  0  0
  -26.0448  -26.9265   19.5126 C   0  0  0  0  0  0
  -24.8589  -27.6831   19.5228 C   0  0  0  0  0  0
  -23.6125  -29.8260   20.1664 C   0  0  0  0  0  0
  -25.4121  -36.3101   24.0329 C   0  0  1  0  0  0
  -20.5863  -28.3634   23.1320 C   0  0  2  0  0  0
  -20.6769  -26.9377   22.5404 C   0  0  0  0  0  0
  -19.5747  -26.6367   21.5200 C   0  0  0  0  0  0
  -18.1919  -26.7899   22.1612 C   0  0  0  0  0  0
  -19.1520  -28.8816   23.2885 C   0  0  0  0  0  0
  -18.9454  -30.1425   23.8887 C   0  0  0  0  0  0
  -17.6463  -30.6570   24.0550 C   0  0  0  0  0  0
  -25.9051  -34.9472   23.5115 C   0  0  0  0  0  0
  -16.5346  -29.9067   23.6333 C   0  0  0  0  0  0
  -16.7256  -28.6487   23.0341 C   0  0  0  0  0  0
  -26.4462  -31.6619   25.0748 C   0  0  0  0  0  0
  -25.3716  -31.3771   26.1493 C   0  0  0  0  0  0
  -27.0294  -30.3051   24.6178 C   0  0  0  0  0  0
  -27.6025  -32.4347   25.7519 C   0  0  0  0  0  0
  -27.5583  -37.1813   24.8463 C   0  0  0  0  0  0
  -21.4148  -29.3005   22.3741 N   0  0  0  0  0  0
  -26.4300  -37.3791   23.9401 N   0  0  0  0  0  0
  -24.6686  -31.0768   22.1022 N   0  0  0  0  0  0
  -23.4194  -28.8187   23.3029 O   0  0  0  0  0  0
  -28.4365  -26.7402   20.0668 O   0  0  0  0  0  0
  -26.5598  -34.8921   22.4667 O   0  0  0  0  0  0
  -23.5351  -32.1445   23.7504 O   0  0  0  0  0  0
  -30.9994  -18.9285   19.9681 C   0  0  0  0  0  0
  -30.9027  -17.5217   20.0339 C   0  0  0  0  0  0
  -29.4517  -17.7226   21.9648 C   0  0  0  0  0  0
  -30.3262  -19.7569   20.8949 C   0  0  0  0  0  0
  -29.5361  -19.1389   21.9045 C   0  0  0  0  0  0
  -30.1415  -16.8924   21.0488 C   0  0  0  0  0  0
  -30.5445  -21.2189   20.7988 C   0  0  0  0  0  0
  -29.5833  -23.5231   20.4809 C   0  0  0  0  0  0
  -28.8076  -19.9543   22.9659 C   0  0  0  0  0  0
  -28.3138  -24.2303   19.9645 C   0  0  0  0  0  0
  -28.5827  -25.5770   19.2342 C   0  0  0  0  0  0
  -29.9910  -15.4697   21.1656 N   0  0  0  0  0  0
  -29.5209  -22.0790   20.5691 N   0  0  0  0  0  0
  -31.8064  -21.6469   20.9197 N   0  3  0  0  0  0
  -30.6086  -24.1505   20.7751 O   0  0  0  0  0  0
  -31.4702  -12.4160   19.1263 H   0  0  0  0  0  0
  -30.3345  -11.3022   19.8302 H   0  0  0  0  0  0
  -29.7383  -11.7783   17.4377 H   0  0  0  0  0  0
  -29.6618  -13.4897   17.7745 H   0  0  0  0  0  0
  -27.8347  -11.3058   18.8290 H   0  0  0  0  0  0
  -27.3657  -12.6263   17.7935 H   0  0  0  0  0  0
  -27.7049  -14.2539   19.5758 H   0  0  0  0  0  0
  -28.6765  -11.9558   21.3435 H   0  0  0  0  0  0
  -28.4547  -13.5906   21.8779 H   0  0  0  0  0  0
  -25.2752   -9.5678   22.4759 H   0  0  0  0  0  0
  -23.9991   -7.4632   22.7468 H   0  0  0  0  0  0
  -21.0837   -8.8765   19.8953 H   0  0  0  0  0  0
  -22.3686  -10.9666   19.6163 H   0  0  0  0  0  0
  -21.2006   -7.6145   23.9713 H   0  0  0  0  0  0
  -21.1483   -6.0521   25.9073 H   0  0  0  0  0  0
  -22.0601   -2.7608   23.2843 H   0  0  0  0  0  0
  -22.4095  -11.9870   22.4772 H   0  0  0  0  0  0
  -21.1110  -13.1254   22.2624 H   0  0  0  0  0  0
  -24.6673  -15.8472   20.5136 H   0  0  0  0  0  0
  -26.2876  -15.6239   20.0877 H   0  0  0  0  0  0
  -26.7133  -32.5506   23.1160 H   0  0  0  0  0  0
  -25.0114  -33.9775   25.0492 H   0  0  0  0  0  0
  -22.6907  -31.3078   21.4138 H   0  0  0  0  0  0
  -23.3757  -35.9629   23.3307 H   0  0  0  0  0  0
  -24.3589  -36.8903   22.2044 H   0  0  0  0  0  0
  -23.7248  -37.6504   23.6644 H   0  0  0  0  0  0
  -26.0691  -31.6006   20.6145 H   0  0  0  0  0  0
  -26.8146  -30.8603   22.0044 H   0  0  0  0  0  0
  -28.1044  -29.1043   21.1373 H   0  0  0  0  0  0
  -25.9998  -25.9438   19.0670 H   0  0  0  0  0  0
  -23.9618  -27.2741   19.0779 H   0  0  0  0  0  0
  -23.7251  -30.6019   19.4079 H   0  0  0  0  0  0
  -22.7365  -29.2474   19.8678 H   0  0  0  0  0  0
  -25.1303  -36.1967   25.0822 H   0  0  0  0  0  0
  -20.9925  -28.3183   24.1454 H   0  0  0  0  0  0
  -20.5693  -26.2230   23.3575 H   0  0  0  0  0  0
  -21.6639  -26.7435   22.1195 H   0  0  0  0  0  0
  -19.6920  -25.6285   21.1211 H   0  0  0  0  0  0
  -19.6708  -27.3195   20.6748 H   0  0  0  0  0  0
  -17.4199  -26.6631   21.4004 H   0  0  0  0  0  0
  -18.0321  -26.0040   22.9013 H   0  0  0  0  0  0
  -19.7941  -30.7221   24.2263 H   0  0  0  0  0  0
  -17.5026  -31.6260   24.5131 H   0  0  0  0  0  0
  -15.5349  -30.2962   23.7677 H   0  0  0  0  0  0
  -15.8649  -28.0812   22.7054 H   0  0  0  0  0  0
  -24.5878  -30.7124   25.7848 H   0  0  0  0  0  0
  -24.8913  -32.2946   26.4905 H   0  0  0  0  0  0
  -25.8043  -30.8975   27.0282 H   0  0  0  0  0  0
  -26.2870  -29.6846   24.1149 H   0  0  0  0  0  0
  -27.3941  -29.7269   25.4678 H   0  0  0  0  0  0
  -27.8760  -30.4337   23.9429 H   0  0  0  0  0  0
  -27.2634  -33.3651   26.2085 H   0  0  0  0  0  0
  -28.3845  -32.6911   25.0360 H   0  0  0  0  0  0
  -28.0677  -31.8488   26.5455 H   0  0  0  0  0  0
  -28.2601  -38.0110   24.7507 H   0  0  0  0  0  0
  -28.1079  -36.2641   24.6297 H   0  0  0  0  0  0
  -27.2292  -37.1468   25.8863 H   0  0  0  0  0  0
  -20.9314  -29.8739   21.6978 H   0  0  0  0  0  0
  -26.0189  -38.2865   24.1410 H   0  0  0  0  0  0
  -31.6007  -19.3751   19.1879 H   0  0  0  0  0  0
  -31.4234  -16.9452   19.2838 H   0  0  0  0  0  0
  -28.8589  -17.2640   22.7446 H   0  0  0  0  0  0
  -28.4362  -19.3189   23.7714 H   0  0  0  0  0  0
  -27.9519  -20.4760   22.5368 H   0  0  0  0  0  0
  -29.4697  -20.6926   23.4195 H   0  0  0  0  0  0
  -27.6132  -24.3747   20.7868 H   0  0  0  0  0  0
  -27.8292  -23.5539   19.2594 H   0  0  0  0  0  0
  -27.9863  -25.6509   18.3246 H   0  0  0  0  0  0
  -29.6050  -25.5947   18.8533 H   0  0  0  0  0  0
  -29.1698  -15.1557   21.6584 H   0  0  0  0  0  0
  -28.6651  -21.5808   20.3775 H   0  0  0  0  0  0
  -32.5505  -20.9951   21.1142 H   0  0  0  0  0  0
  -31.9922  -22.6424   20.8997 H   0  0  0  0  0  0
  1 25  1  0  0  0
  1 30  2  0  0  0
  1 82  1  0  0  0
  2  3  1  0  0  0
  2 25  1  0  0  0
  2 86  1  0  0  0
  2 87  1  0  0  0
  3  4  1  0  0  0
  3 88  1  0  0  0
  3 89  1  0  0  0
  4  5  1  0  0  0
  4 90  1  0  0  0
  4 91  1  0  0  0
  5  6  1  0  0  0
  5 26  1  0  0  0
  5 92  1  0  0  0
  6 25  1  0  0  0
  6 93  1  0  0  0
  6 94  1  0  0  0
  7  8  2  0  0  0
  7 26  1  0  0  0
  7 29  1  0  0  0
  8  9  1  0  0  0
  8 22  1  0  0  0
  9 10  1  0  0  0
  9 27  2  0  0  0
 10 11  2  0  0  0
 10 15  1  0  0  0
 11 12  1  0  0  0
 11 95  1  0  0  0
 12 13  2  0  0  0
 12 96  1  0  0  0
 13 14  1  0  0  0
 13 31  1  0  0  0
 14 15  2  0  0  0
 14 97  1  0  0  0
 15 98  1  0  0  0
 16 17  2  0  0  0
 16 21  1  0  0  0
 16 31  1  0  0  0
 17 18  1  0  0  0
 17 99  1  0  0  0
 18 19  2  0  0  0
 18100  1  0  0  0
 19 20  1  0  0  0
 19 24  1  0  0  0
 20 21  2  0  0  0
 20101  1  0  0  0
 21 23  1  0  0  0
 22 28  1  0  0  0
 22 32  2  0  0  0
 26 27  1  0  0  0
 28102  1  0  0  0
 28103  1  0  0  0
 29104  1  0  0  0
 29105  1  0  0  0
 33 34  1  0  0  0
 33 66  1  0  0  0
 33 70  2  0  0  0
 34 36  1  0  0  0
 34 59  1  0  0  0
 34106  1  0  0  0
 35 44  2  0  0  0
 35 45  1  0  0  0
 35 68  1  0  0  0
 36 56  1  0  0  0
 36107  1  0  0  0
 37 39  1  0  0  0
 37 47  1  0  0  0
 37 66  1  0  0  0
 37108  1  0  0  0
 38 43  2  0  0  0
 38 46  1  0  0  0
 38 47  1  0  0  0
 39 64  1  0  0  0
 39 67  2  0  0  0
 40 52  1  0  0  0
 40 53  2  0  0  0
 40 58  1  0  0  0
 41109  1  0  0  0
 41110  1  0  0  0
 41111  1  0  0  0
 41 48  1  0  0  0
 42 43  1  0  0  0
 42 66  1  0  0  0
 42112  1  0  0  0
 42113  1  0  0  0
 43 44  1  0  0  0
 44114  1  0  0  0
 45 46  2  0  0  0
 45115  1  0  0  0
 46116  1  0  0  0
 47117  1  0  0  0
 47118  1  0  0  0
 48 56  1  0  0  0
 48 65  1  0  0  0
 48119  1  0  0  0
 49 50  1  0  0  0
 49 53  1  0  0  0
 49 64  1  0  0  0
 49120  1  0  0  0
 50 51  1  0  0  0
 50121  1  0  0  0
 50122  1  0  0  0
 51 52  1  0  0  0
 51123  1  0  0  0
 51124  1  0  0  0
 52125  1  0  0  0
 52126  1  0  0  0
 53 54  1  0  0  0
 54 55  2  0  0  0
 54127  1  0  0  0
 55 57  1  0  0  0
 55128  1  0  0  0
 56 69  2  0  0  0
 57 58  2  0  0  0
 57129  1  0  0  0
 58130  1  0  0  0
 59 60  1  0  0  0
 59 61  1  0  0  0
 59 62  1  0  0  0
 60131  1  0  0  0
 60132  1  0  0  0
 60133  1  0  0  0
 61134  1  0  0  0
 61135  1  0  0  0
 61136  1  0  0  0
 62137  1  0  0  0
 62138  1  0  0  0
 62139  1  0  0  0
 63 65  1  0  0  0
 63140  1  0  0  0
 63141  1  0  0  0
 63142  1  0  0  0
 64143  1  0  0  0
 65144  1  0  0  0
 68 81  1  0  0  0
 71 72  2  0  0  0
 71 74  1  0  0  0
 71145  1  0  0  0
 72 76  1  0  0  0
 72146  1  0  0  0
 73 75  1  0  0  0
 73 76  2  0  0  0
 73147  1  0  0  0
 74 75  2  0  0  0
 74 77  1  0  0  0
 75 79  1  0  0  0
 76 82  1  0  0  0
 77 83  1  0  0  0
 77 84  2  0  0  0
 78 80  1  0  0  0
 78 83  1  0  0  0
 78 85  2  0  0  0
 79148  1  0  0  0
 79149  1  0  0  0
 79150  1  0  0  0
 80 81  1  0  0  0
 80151  1  0  0  0
 80152  1  0  0  0
 81153  1  0  0  0
 81154  1  0  0  0
 82155  1  0  0  0
 83156  1  0  0  0
 84157  1  0  0  0
 84158  1  0  0  0
M  CHG  1  84   1
M  ISO  4   1 100  68 101  81 101  82 100
M  END
> <chiral flag>
0

> <version>
0

> <s_m_source_file>
/data/baiqing/PycharmProjects/Reinvent-master-3.2/result/LINK_invent/BTK/process_docking_weight1_custom_product_contain_oxygen_bond_distance_aromatic_linkinvent_7_9_3/rearranged_h_0054.sdf

> <i_m_source_file_index>
15

> <r_mmod_Potential_Energy-OPLS-2005>
-277.070709228516

> <r_mmod_Stretch_Energy-OPLS-2005>
41.1209030151367

> <r_mmod_Bend_Energy-OPLS-2005>
117.476760864258

> <r_mmod_Torsional_Energy-OPLS-2005>
210.675323486328

> <r_mmod_Improper_Torsional_Energy-OPLS-2005>
3.23739218711853

> <r_mmod_Van_der_Waal_Energy-OPLS-2005>
172.000366210938

> <r_mmod_Electrostatic_Energy-OPLS-2005>
-393.2919921875

> <r_mmod_Solvation_Energy-OPLS-2005>
-441.431884765625

> <b_mmod_Minimization_Converged-OPLS-2005>
0

> <r_mmod_RMS_Derivative-OPLS-2005>
1.70499861240387

$$$$
15
                    3D
 Structure written by MMmdl.
164173  0  0  1  0            999 V2000
  -30.7580  -14.4280   20.6478 C   0  0  0  0  0  0
  -30.4332  -12.3062   19.4071 C   0  0  0  0  0  0
  -29.4918  -12.5243   18.2036 C   0  0  0  0  0  0
  -28.0186  -12.3778   18.6215 C   0  0  0  0  0  0
  -27.6778  -13.2037   19.8892 C   0  0  2  0  0  0
  -28.7258  -12.9702   21.0046 C   0  0  0  0  0  0
  -25.2677  -13.8124   20.5730 C   0  0  0  0  0  0
  -24.1896  -13.0415   20.9174 C   0  0  0  0  0  0
  -24.6439  -11.6871   20.8764 C   0  0  0  0  0  0
  -23.9069  -10.4276   21.0426 C   0  0  0  0  0  0
  -24.3636   -9.4193   21.9200 C   0  0  0  0  0  0
  -23.6318   -8.2224   22.0765 C   0  0  0  0  0  0
  -22.4307   -8.0267   21.3544 C   0  0  0  0  0  0
  -21.9930   -9.0220   20.4631 C   0  0  0  0  0  0
  -22.7250  -10.2108   20.3059 C   0  0  0  0  0  0
  -21.6825   -6.0752   22.5281 C   0  0  0  0  0  0
  -21.3987   -6.5657   23.8221 C   0  0  0  0  0  0
  -21.3680   -5.6809   24.9178 C   0  0  0  0  0  0
  -21.6053   -4.3063   24.7210 C   0  0  0  0  0  0
  -21.8810   -3.8168   23.4325 C   0  0  0  0  0  0
  -21.9174   -4.6992   22.3391 C   0  0  0  0  0  0
  -22.7916  -13.5225   21.1797 C   0  0  0  0  0  0
  -22.1648   -4.2187   21.0966 F   0  0  0  0  0  0
  -21.5651   -3.4544   25.7716 F   0  0  0  0  0  0
  -30.0728  -13.2624   20.4658 N   0  0  0  0  0  0
  -26.3156  -12.9287   20.3493 N   0  0  0  0  0  0
  -25.9386  -11.6449   20.5847 N   0  0  0  0  0  0
  -22.0549  -12.8249   22.0354 N   0  0  0  0  0  0
  -25.4409  -15.1844   20.4124 N   0  0  0  0  0  0
  -31.7521  -14.7431   19.9857 O   0  0  0  0  0  0
  -21.6642   -6.8895   21.4241 O   0  0  0  0  0  0
  -22.3615  -14.5518   20.6626 O   0  0  0  0  0  0
  -24.6207  -31.8661   23.2059 C   0  0  0  0  0  0
  -25.9083  -32.4801   23.8382 C   0  0  1  0  0  0
  -27.2414  -27.3887   20.0917 C   0  0  0  0  0  0
  -25.5912  -33.8605   24.2319 N   0  0  0  0  0  0
  -23.4097  -30.4899   21.5509 C   0  0  2  0  0  0
  -24.8551  -28.9507   20.1162 C   0  0  0  0  0  0
  -22.7445  -29.4649   22.4986 C   0  0  0  0  0  0
  -18.0273  -28.1390   22.8491 C   0  0  0  0  0  0
  -24.1476  -36.7300   23.2636 C   0  0  0  0  0  0
  -25.9446  -30.8181   21.3629 C   0  0  0  0  0  0
  -26.0211  -29.4484   20.7100 C   0  0  0  0  0  0
  -27.2139  -28.6786   20.6901 C   0  0  0  0  0  0
  -26.0422  -26.9199   19.4958 C   0  0  0  0  0  0
  -24.8622  -27.6855   19.5105 C   0  0  0  0  0  0
  -23.6188  -29.8226   20.1670 C   0  0  0  0  0  0
  -25.4101  -36.3104   24.0336 C   0  0  1  0  0  0
  -20.5867  -28.3680   23.1315 C   0  0  2  0  0  0
  -20.6759  -26.9420   22.5412 C   0  0  0  0  0  0
  -19.5736  -26.6389   21.5214 C   0  0  0  0  0  0
  -18.1915  -26.7929   22.1634 C   0  0  0  0  0  0
  -19.1526  -28.8849   23.2893 C   0  0  0  0  0  0
  -18.9449  -30.1455   23.8902 C   0  0  0  0  0  0
  -17.6447  -30.6589   24.0566 C   0  0  0  0  0  0
  -25.9041  -34.9474   23.5121 C   0  0  0  0  0  0
  -16.5339  -29.9091   23.6331 C   0  0  0  0  0  0
  -16.7258  -28.6515   23.0343 C   0  0  0  0  0  0
  -26.4489  -31.6585   25.0730 C   0  0  0  0  0  0
  -25.3729  -31.3708   26.1456 C   0  0  0  0  0  0
  -27.0317  -30.3026   24.6117 C   0  0  0  0  0  0
  -27.6061  -32.4315   25.7485 C   0  0  0  0  0  0
  -27.5573  -37.1798   24.8471 C   0  0  0  0  0  0
  -21.4167  -29.3044   22.3730 N   0  0  0  0  0  0
  -26.4273  -37.3798   23.9421 N   0  0  0  0  0  0
  -24.6775  -31.0723   22.0983 N   0  0  0  0  0  0
  -23.4205  -28.8201   23.3041 O   0  0  0  0  0  0
  -28.4103  -26.6233   20.1182 O   0  0  0  0  0  0
  -26.5620  -34.8921   22.4688 O   0  0  0  0  0  0
  -23.5390  -32.1411   23.7452 O   0  0  0  0  0  0
  -29.0793  -19.1942   22.1342 C   0  0  0  0  0  0
  -28.9599  -16.8225   22.6819 C   0  0  0  0  0  0
  -30.5803  -17.6073   21.0365 C   0  0  0  0  0  0
  -28.5039  -18.1392   22.8652 C   0  0  0  0  0  0
  -30.1340  -18.9497   21.2269 C   0  0  0  0  0  0
  -29.9875  -16.5344   21.7648 C   0  0  0  0  0  0
  -30.4678  -22.4416   21.4093 C   0  0  0  0  0  0
  -29.7185  -23.7953   21.2744 C   0  0  0  0  0  0
  -29.6784  -23.1825   18.7912 C   0  0  0  0  0  0
  -29.2997  -21.8005   19.3847 C   0  0  0  0  0  0
  -29.6114  -24.3509   19.8210 C   0  0  1  0  0  0
  -27.4102  -18.4183   23.8738 C   0  0  0  0  0  0
  -30.8311  -20.1178   20.4996 C   0  0  0  0  0  0
  -28.3661  -25.2742   19.5801 C   0  0  0  0  0  0
  -30.1739  -21.4589   20.5163 N   0  0  0  0  0  0
  -30.3504  -15.1525   21.6984 N   0  0  0  0  0  0
  -31.2886  -22.2961   22.3181 O   0  0  0  0  0  0
  -31.4725  -12.4112   19.0898 H   0  0  0  0  0  0
  -30.3340  -11.2877   19.7850 H   0  0  0  0  0  0
  -29.7290  -11.8104   17.4145 H   0  0  0  0  0  0
  -29.6573  -13.5173   17.7807 H   0  0  0  0  0  0
  -27.8250  -11.3197   18.8069 H   0  0  0  0  0  0
  -27.3646  -12.6702   17.7960 H   0  0  0  0  0  0
  -27.7275  -14.2569   19.6139 H   0  0  0  0  0  0
  -28.6950  -11.9343   21.3484 H   0  0  0  0  0  0
  -28.4680  -13.5721   21.8752 H   0  0  0  0  0  0
  -25.2743   -9.5691   22.4808 H   0  0  0  0  0  0
  -24.0009   -7.4616   22.7511 H   0  0  0  0  0  0
  -21.0855   -8.8730   19.8940 H   0  0  0  0  0  0
  -22.3684  -10.9664   19.6207 H   0  0  0  0  0  0
  -21.1972   -7.6161   23.9737 H   0  0  0  0  0  0
  -21.1532   -6.0540   25.9099 H   0  0  0  0  0  0
  -22.0585   -2.7630   23.2802 H   0  0  0  0  0  0
  -22.4138  -11.9885   22.4736 H   0  0  0  0  0  0
  -21.1199  -13.1337   22.2551 H   0  0  0  0  0  0
  -24.6786  -15.8436   20.5310 H   0  0  0  0  0  0
  -26.3060  -15.6245   20.1250 H   0  0  0  0  0  0
  -26.7155  -32.5519   23.1152 H   0  0  0  0  0  0
  -25.0041  -33.9762   25.0449 H   0  0  0  0  0  0
  -22.6987  -31.3072   21.4131 H   0  0  0  0  0  0
  -23.3744  -35.9622   23.3297 H   0  0  0  0  0  0
  -24.3569  -36.8917   22.2051 H   0  0  0  0  0  0
  -23.7214  -37.6491   23.6655 H   0  0  0  0  0  0
  -26.0554  -31.5817   20.5914 H   0  0  0  0  0  0
  -26.8341  -30.8776   21.9802 H   0  0  0  0  0  0
  -28.1143  -29.0660   21.1451 H   0  0  0  0  0  0
  -25.9780  -25.9532   19.0185 H   0  0  0  0  0  0
  -23.9641  -27.2921   19.0566 H   0  0  0  0  0  0
  -23.7296  -30.5980   19.4096 H   0  0  0  0  0  0
  -22.7402  -29.2464   19.8692 H   0  0  0  0  0  0
  -25.1273  -36.1948   25.0822 H   0  0  0  0  0  0
  -20.9948  -28.3238   24.1443 H   0  0  0  0  0  0
  -20.5686  -26.2285   23.3604 H   0  0  0  0  0  0
  -21.6631  -26.7464   22.1200 H   0  0  0  0  0  0
  -19.6899  -25.6307   21.1238 H   0  0  0  0  0  0
  -19.6666  -27.3209   20.6758 H   0  0  0  0  0  0
  -17.4189  -26.6673   21.4039 H   0  0  0  0  0  0
  -18.0324  -26.0077   22.9034 H   0  0  0  0  0  0
  -19.7920  -30.7274   24.2281 H   0  0  0  0  0  0
  -17.4996  -31.6270   24.5174 H   0  0  0  0  0  0
  -15.5341  -30.2995   23.7645 H   0  0  0  0  0  0
  -15.8660  -28.0839   22.7043 H   0  0  0  0  0  0
  -24.5914  -30.7050   25.7788 H   0  0  0  0  0  0
  -24.8902  -32.2857   26.4894 H   0  0  0  0  0  0
  -25.8057  -30.8885   27.0221 H   0  0  0  0  0  0
  -26.2864  -29.6794   24.1164 H   0  0  0  0  0  0
  -27.4060  -29.7272   25.4588 H   0  0  0  0  0  0
  -27.8707  -30.4347   23.9287 H   0  0  0  0  0  0
  -27.2702  -33.3642   26.2033 H   0  0  0  0  0  0
  -28.3881  -32.6826   25.0309 H   0  0  0  0  0  0
  -28.0703  -31.8442   26.5417 H   0  0  0  0  0  0
  -28.2593  -38.0099   24.7533 H   0  0  0  0  0  0
  -28.1065  -36.2627   24.6276 H   0  0  0  0  0  0
  -27.2295  -37.1430   25.8876 H   0  0  0  0  0  0
  -20.9343  -29.8773   21.6950 H   0  0  0  0  0  0
  -26.0161  -38.2859   24.1441 H   0  0  0  0  0  0
  -28.7239  -20.1986   22.3055 H   0  0  0  0  0  0
  -28.5127  -16.0234   23.2584 H   0  0  0  0  0  0
  -31.3900  -17.4157   20.3437 H   0  0  0  0  0  0
  -30.1861  -24.5389   21.9209 H   0  0  0  0  0  0
  -28.7204  -23.6372   21.6831 H   0  0  0  0  0  0
  -29.0838  -23.3879   17.8996 H   0  0  0  0  0  0
  -30.7072  -23.1139   18.4306 H   0  0  0  0  0  0
  -29.3533  -21.0398   18.6049 H   0  0  0  0  0  0
  -28.2647  -21.8029   19.7312 H   0  0  0  0  0  0
  -30.4902  -24.9704   19.6328 H   0  0  0  0  0  0
  -27.8466  -18.7396   24.8180 H   0  0  0  0  0  0
  -26.8075  -17.5273   24.0620 H   0  0  0  0  0  0
  -26.7464  -19.2038   23.5175 H   0  0  0  0  0  0
  -31.0025  -19.8132   19.4673 H   0  0  0  0  0  0
  -31.8347  -20.1998   20.9208 H   0  0  0  0  0  0
  -27.4922  -24.7387   19.9531 H   0  0  0  0  0  0
  -28.2216  -25.3894   18.5039 H   0  0  0  0  0  0
  -29.8289  -14.5751   22.3399 H   0  0  0  0  0  0
  1 25  1  0  0  0
  1 30  2  0  0  0
  1 86  1  0  0  0
  2  3  1  0  0  0
  2 25  1  0  0  0
  2 88  1  0  0  0
  2 89  1  0  0  0
  3  4  1  0  0  0
  3 90  1  0  0  0
  3 91  1  0  0  0
  4  5  1  0  0  0
  4 92  1  0  0  0
  4 93  1  0  0  0
  5  6  1  0  0  0
  5 26  1  0  0  0
  5 94  1  0  0  0
  6 25  1  0  0  0
  6 95  1  0  0  0
  6 96  1  0  0  0
  7  8  2  0  0  0
  7 26  1  0  0  0
  7 29  1  0  0  0
  8  9  1  0  0  0
  8 22  1  0  0  0
  9 10  1  0  0  0
  9 27  2  0  0  0
 10 11  2  0  0  0
 10 15  1  0  0  0
 11 12  1  0  0  0
 11 97  1  0  0  0
 12 13  2  0  0  0
 12 98  1  0  0  0
 13 14  1  0  0  0
 13 31  1  0  0  0
 14 15  2  0  0  0
 14 99  1  0  0  0
 15100  1  0  0  0
 16 17  2  0  0  0
 16 21  1  0  0  0
 16 31  1  0  0  0
 17 18  1  0  0  0
 17101  1  0  0  0
 18 19  2  0  0  0
 18102  1  0  0  0
 19 20  1  0  0  0
 19 24  1  0  0  0
 20 21  2  0  0  0
 20103  1  0  0  0
 21 23  1  0  0  0
 22 28  1  0  0  0
 22 32  2  0  0  0
 26 27  1  0  0  0
 28104  1  0  0  0
 28105  1  0  0  0
 29106  1  0  0  0
 29107  1  0  0  0
 33 34  1  0  0  0
 33 66  1  0  0  0
 33 70  2  0  0  0
 34 36  1  0  0  0
 34 59  1  0  0  0
 34108  1  0  0  0
 35 44  2  0  0  0
 35 45  1  0  0  0
 35 68  1  0  0  0
 36 56  1  0  0  0
 36109  1  0  0  0
 37 39  1  0  0  0
 37 47  1  0  0  0
 37 66  1  0  0  0
 37110  1  0  0  0
 38 43  2  0  0  0
 38 46  1  0  0  0
 38 47  1  0  0  0
 39 64  1  0  0  0
 39 67  2  0  0  0
 40 52  1  0  0  0
 40 53  2  0  0  0
 40 58  1  0  0  0
 41111  1  0  0  0
 41112  1  0  0  0
 41113  1  0  0  0
 41 48  1  0  0  0
 42 43  1  0  0  0
 42 66  1  0  0  0
 42114  1  0  0  0
 42115  1  0  0  0
 43 44  1  0  0  0
 44116  1  0  0  0
 45 46  2  0  0  0
 45117  1  0  0  0
 46118  1  0  0  0
 47119  1  0  0  0
 47120  1  0  0  0
 48 56  1  0  0  0
 48 65  1  0  0  0
 48121  1  0  0  0
 49 50  1  0  0  0
 49 53  1  0  0  0
 49 64  1  0  0  0
 49122  1  0  0  0
 50 51  1  0  0  0
 50123  1  0  0  0
 50124  1  0  0  0
 51 52  1  0  0  0
 51125  1  0  0  0
 51126  1  0  0  0
 52127  1  0  0  0
 52128  1  0  0  0
 53 54  1  0  0  0
 54 55  2  0  0  0
 54129  1  0  0  0
 55 57  1  0  0  0
 55130  1  0  0  0
 56 69  2  0  0  0
 57 58  2  0  0  0
 57131  1  0  0  0
 58132  1  0  0  0
 59 60  1  0  0  0
 59 61  1  0  0  0
 59 62  1  0  0  0
 60133  1  0  0  0
 60134  1  0  0  0
 60135  1  0  0  0
 61136  1  0  0  0
 61137  1  0  0  0
 61138  1  0  0  0
 62139  1  0  0  0
 62140  1  0  0  0
 62141  1  0  0  0
 63 65  1  0  0  0
 63142  1  0  0  0
 63143  1  0  0  0
 63144  1  0  0  0
 64145  1  0  0  0
 65146  1  0  0  0
 68 84  1  0  0  0
 71 74  2  0  0  0
 71 75  1  0  0  0
 71147  1  0  0  0
 72 74  1  0  0  0
 72 76  2  0  0  0
 72148  1  0  0  0
 73 75  2  0  0  0
 73 76  1  0  0  0
 73149  1  0  0  0
 74 82  1  0  0  0
 75 83  1  0  0  0
 76 86  1  0  0  0
 77 78  1  0  0  0
 77 85  1  0  0  0
 77 87  2  0  0  0
 78 81  1  0  0  0
 78150  1  0  0  0
 78151  1  0  0  0
 79 80  1  0  0  0
 79 81  1  0  0  0
 79152  1  0  0  0
 79153  1  0  0  0
 80 85  1  0  0  0
 80154  1  0  0  0
 80155  1  0  0  0
 81 84  1  0  0  0
 81156  1  0  0  0
 82157  1  0  0  0
 82158  1  0  0  0
 82159  1  0  0  0
 83 85  1  0  0  0
 83160  1  0  0  0
 83161  1  0  0  0
 84162  1  0  0  0
 84163  1  0  0  0
 86164  1  0  0  0
M  ISO  4   1 100  68 101  84 101  86 100
M  END
> <chiral flag>
0

> <version>
0

> <s_m_source_file>
/data/baiqing/PycharmProjects/Reinvent-master-3.2/result/LINK_invent/BTK/process_docking_weight1_custom_product_contain_oxygen_bond_distance_aromatic_linkinvent_7_9_3/rearranged_h_0054.sdf

> <i_m_source_file_index>
16

> <r_mmod_Potential_Energy-OPLS-2005>
-7.46190023422241

> <r_mmod_Stretch_Energy-OPLS-2005>
53.2473945617676

> <r_mmod_Bend_Energy-OPLS-2005>
119.427391052246

> <r_mmod_Torsional_Energy-OPLS-2005>
248.629989624023

> <r_mmod_Improper_Torsional_Energy-OPLS-2005>
5.60580396652222

> <r_mmod_Van_der_Waal_Energy-OPLS-2005>
163.946182250977

> <r_mmod_Electrostatic_Energy-OPLS-2005>
-387.18310546875

> <r_mmod_Solvation_Energy-OPLS-2005>
-225.634124755859

> <b_mmod_Minimization_Converged-OPLS-2005>
0

> <r_mmod_RMS_Derivative-OPLS-2005>
4.22253608703613

$$$$
16
                    3D
 Structure written by MMmdl.
154162  0  0  1  0            999 V2000
  -30.6191  -14.6455   20.4992 C   0  0  0  0  0  0
  -30.4393  -12.3940   19.4566 C   0  0  0  0  0  0
  -29.5097  -12.5077   18.2272 C   0  0  0  0  0  0
  -28.0323  -12.3441   18.6378 C   0  0  0  0  0  0
  -27.6542  -13.2159   19.8649 C   0  0  2  0  0  0
  -28.6981  -13.0712   20.9957 C   0  0  0  0  0  0
  -25.2567  -13.8168   20.5686 C   0  0  0  0  0  0
  -24.1830  -13.0438   20.9186 C   0  0  0  0  0  0
  -24.6395  -11.6907   20.8736 C   0  0  0  0  0  0
  -23.9061  -10.4292   21.0404 C   0  0  0  0  0  0
  -24.3614   -9.4208   21.9183 C   0  0  0  0  0  0
  -23.6290   -8.2243   22.0753 C   0  0  0  0  0  0
  -22.4273   -8.0280   21.3544 C   0  0  0  0  0  0
  -21.9906   -9.0251   20.4646 C   0  0  0  0  0  0
  -22.7233  -10.2132   20.3055 C   0  0  0  0  0  0
  -21.6853   -6.0736   22.5279 C   0  0  0  0  0  0
  -21.4014   -6.5640   23.8212 C   0  0  0  0  0  0
  -21.3659   -5.6793   24.9174 C   0  0  0  0  0  0
  -21.6044   -4.3056   24.7225 C   0  0  0  0  0  0
  -21.8820   -3.8147   23.4346 C   0  0  0  0  0  0
  -21.9192   -4.6964   22.3403 C   0  0  0  0  0  0
  -22.7855  -13.5234   21.1850 C   0  0  0  0  0  0
  -22.1662   -4.2150   21.0981 F   0  0  0  0  0  0
  -21.5628   -3.4539   25.7737 F   0  0  0  0  0  0
  -30.0143  -13.4161   20.4346 N   0  0  0  0  0  0
  -26.2993  -12.9347   20.3323 N   0  0  0  0  0  0
  -25.9323  -11.6502   20.5755 N   0  0  0  0  0  0
  -22.0495  -12.8225   22.0406 N   0  0  0  0  0  0
  -25.4288  -15.1890   20.4106 N   0  0  0  0  0  0
  -31.7767  -14.8079   20.1020 O   0  0  0  0  0  0
  -21.6639   -6.8877   21.4240 O   0  0  0  0  0  0
  -22.3541  -14.5541   20.6700 O   0  0  0  0  0  0
  -24.6264  -31.8598   23.2018 C   0  0  0  0  0  0
  -25.9108  -32.4778   23.8351 C   0  0  1  0  0  0
  -27.2263  -27.3188   20.1154 C   0  0  0  0  0  0
  -25.5924  -33.8579   24.2275 N   0  0  0  0  0  0
  -23.4196  -30.4830   21.5450 C   0  0  2  0  0  0
  -24.8663  -28.9382   20.1113 C   0  0  0  0  0  0
  -22.7476  -29.4617   22.4937 C   0  0  0  0  0  0
  -18.0284  -28.1383   22.8479 C   0  0  0  0  0  0
  -24.1490  -36.7293   23.2640 C   0  0  0  0  0  0
  -25.9611  -30.7911   21.3724 C   0  0  0  0  0  0
  -26.0358  -29.4188   20.7137 C   0  0  0  0  0  0
  -27.2184  -28.6214   20.7046 C   0  0  0  0  0  0
  -26.0311  -26.8903   19.4924 C   0  0  0  0  0  0
  -24.8658  -27.6792   19.4922 C   0  0  0  0  0  0
  -23.6345  -29.8185   20.1601 C   0  0  0  0  0  0
  -25.4116  -36.3082   24.0330 C   0  0  1  0  0  0
  -20.5884  -28.3682   23.1286 C   0  0  2  0  0  0
  -20.6774  -26.9405   22.5412 C   0  0  0  0  0  0
  -19.5754  -26.6381   21.5212 C   0  0  0  0  0  0
  -18.1931  -26.7925   22.1620 C   0  0  0  0  0  0
  -19.1537  -28.8849   23.2876 C   0  0  0  0  0  0
  -18.9465  -30.1452   23.8890 C   0  0  0  0  0  0
  -17.6466  -30.6583   24.0561 C   0  0  0  0  0  0
  -25.9052  -34.9452   23.5101 C   0  0  0  0  0  0
  -16.5354  -29.9083   23.6333 C   0  0  0  0  0  0
  -16.7273  -28.6506   23.0343 C   0  0  0  0  0  0
  -26.4493  -31.6587   25.0722 C   0  0  0  0  0  0
  -25.3725  -31.3734   26.1448 C   0  0  0  0  0  0
  -27.0339  -30.3015   24.6171 C   0  0  0  0  0  0
  -27.6050  -32.4322   25.7494 C   0  0  0  0  0  0
  -27.5578  -37.1801   24.8466 C   0  0  0  0  0  0
  -21.4188  -29.3036   22.3683 N   0  0  0  0  0  0
  -26.4292  -37.3776   23.9408 N   0  0  0  0  0  0
  -24.6878  -31.0610   22.0969 N   0  0  0  0  0  0
  -23.4202  -28.8155   23.3015 O   0  0  0  0  0  0
  -28.3491  -26.4759   20.1640 O   0  0  0  0  0  0
  -26.5622  -34.8920   22.4667 O   0  0  0  0  0  0
  -23.5428  -32.1396   23.7348 O   0  0  0  0  0  0
  -28.9683  -17.9825   21.3923 C   0  0  0  0  0  0
  -30.8586  -17.8295   19.9271 C   0  0  0  0  0  0
  -29.9518  -20.0983   20.5097 C   0  0  0  0  0  0
  -28.9807  -19.4129   21.3057 C   0  0  0  0  0  0
  -29.9124  -17.1474   20.7326 C   0  0  0  0  0  0
  -30.8769  -19.2532   19.8183 C   0  0  0  0  0  0
  -30.1616  -21.6371   20.5126 C   0  0  0  0  0  0
  -27.9553  -20.1811   22.1271 C   0  0  0  0  0  0
  -29.3553  -24.0516   20.4060 C   0  0  0  0  0  0
  -28.1437  -25.0115   20.0423 C   0  0  0  0  0  0
  -29.8179  -15.6894   20.8886 N   0  0  0  0  0  0
  -29.1529  -22.5509   20.3471 N   0  0  0  0  0  0
  -31.3110  -22.0527   20.6771 O   0  0  0  0  0  0
  -31.8301  -19.8031   19.0260 F   0  0  0  0  0  0
  -31.4810  -12.5190   19.1556 H   0  0  0  0  0  0
  -30.3742  -11.3987   19.8985 H   0  0  0  0  0  0
  -29.7755  -11.7559   17.4828 H   0  0  0  0  0  0
  -29.6512  -13.4771   17.7465 H   0  0  0  0  0  0
  -27.8705  -11.2908   18.8706 H   0  0  0  0  0  0
  -27.3780  -12.5723   17.7956 H   0  0  0  0  0  0
  -27.6727  -14.2511   19.5233 H   0  0  0  0  0  0
  -28.7100  -12.0490   21.3769 H   0  0  0  0  0  0
  -28.4406  -13.7009   21.8485 H   0  0  0  0  0  0
  -25.2759   -9.5688   22.4755 H   0  0  0  0  0  0
  -24.0002   -7.4637   22.7473 H   0  0  0  0  0  0
  -21.0838   -8.8768   19.8951 H   0  0  0  0  0  0
  -22.3690  -10.9670   19.6164 H   0  0  0  0  0  0
  -21.2007   -7.6147   23.9716 H   0  0  0  0  0  0
  -21.1481   -6.0523   25.9077 H   0  0  0  0  0  0
  -22.0598   -2.7609   23.2846 H   0  0  0  0  0  0
  -22.4109  -11.9886   22.4795 H   0  0  0  0  0  0
  -21.1113  -13.1254   22.2611 H   0  0  0  0  0  0
  -24.6598  -15.8422   20.5133 H   0  0  0  0  0  0
  -26.2761  -15.6272   20.0722 H   0  0  0  0  0  0
  -26.7175  -32.5447   23.1099 H   0  0  0  0  0  0
  -25.0073  -33.9727   25.0421 H   0  0  0  0  0  0
  -22.7134  -31.3037   21.4025 H   0  0  0  0  0  0
  -23.3751  -35.9626   23.3308 H   0  0  0  0  0  0
  -24.3583  -36.8909   22.2052 H   0  0  0  0  0  0
  -23.7250  -37.6499   23.6660 H   0  0  0  0  0  0
  -26.0931  -31.5556   20.6053 H   0  0  0  0  0  0
  -26.8414  -30.8386   22.0021 H   0  0  0  0  0  0
  -28.1159  -28.9860   21.1846 H   0  0  0  0  0  0
  -25.9671  -25.9293   19.0056 H   0  0  0  0  0  0
  -23.9691  -27.3041   19.0183 H   0  0  0  0  0  0
  -23.7545  -30.5959   19.4049 H   0  0  0  0  0  0
  -22.7543  -29.2490   19.8557 H   0  0  0  0  0  0
  -25.1296  -36.1934   25.0825 H   0  0  0  0  0  0
  -20.9972  -28.3250   24.1410 H   0  0  0  0  0  0
  -20.5681  -26.2285   23.3607 H   0  0  0  0  0  0
  -21.6642  -26.7437   22.1202 H   0  0  0  0  0  0
  -19.6920  -25.6296   21.1237 H   0  0  0  0  0  0
  -19.6696  -27.3192   20.6744 H   0  0  0  0  0  0
  -17.4201  -26.6665   21.4022 H   0  0  0  0  0  0
  -18.0332  -26.0073   22.9024 H   0  0  0  0  0  0
  -19.7944  -30.7267   24.2252 H   0  0  0  0  0  0
  -17.5026  -31.6265   24.5162 H   0  0  0  0  0  0
  -15.5356  -30.2985   23.7667 H   0  0  0  0  0  0
  -15.8672  -28.0833   22.7051 H   0  0  0  0  0  0
  -24.5898  -30.7084   25.7781 H   0  0  0  0  0  0
  -24.8920  -32.2903   26.4866 H   0  0  0  0  0  0
  -25.8046  -30.8918   27.0228 H   0  0  0  0  0  0
  -26.2914  -29.6765   24.1195 H   0  0  0  0  0  0
  -27.4048  -29.7273   25.4671 H   0  0  0  0  0  0
  -27.8777  -30.4314   23.9391 H   0  0  0  0  0  0
  -27.2659  -33.3625   26.2064 H   0  0  0  0  0  0
  -28.3862  -32.6874   25.0322 H   0  0  0  0  0  0
  -28.0712  -31.8452   26.5417 H   0  0  0  0  0  0
  -28.2593  -38.0099   24.7506 H   0  0  0  0  0  0
  -28.1074  -36.2627   24.6296 H   0  0  0  0  0  0
  -27.2296  -37.1457   25.8869 H   0  0  0  0  0  0
  -20.9365  -29.8773   21.6907 H   0  0  0  0  0  0
  -26.0173  -38.2853   24.1408 H   0  0  0  0  0  0
  -28.2164  -17.5113   22.0110 H   0  0  0  0  0  0
  -31.5971  -17.2697   19.3729 H   0  0  0  0  0  0
  -27.4435  -19.5311   22.8373 H   0  0  0  0  0  0
  -27.1985  -20.6222   21.4784 H   0  0  0  0  0  0
  -28.4258  -20.9780   22.7043 H   0  0  0  0  0  0
  -29.6887  -24.2954   21.4154 H   0  0  0  0  0  0
  -30.1897  -24.3072   19.7510 H   0  0  0  0  0  0
  -27.3002  -24.7303   20.6751 H   0  0  0  0  0  0
  -27.8522  -24.7914   19.0151 H   0  0  0  0  0  0
  -28.9459  -15.3702   21.2826 H   0  0  0  0  0  0
  -28.2161  -22.2031   20.1971 H   0  0  0  0  0  0
  1 25  1  0  0  0
  1 30  2  0  0  0
  1 81  1  0  0  0
  2  3  1  0  0  0
  2 25  1  0  0  0
  2 85  1  0  0  0
  2 86  1  0  0  0
  3  4  1  0  0  0
  3 87  1  0  0  0
  3 88  1  0  0  0
  4  5  1  0  0  0
  4 89  1  0  0  0
  4 90  1  0  0  0
  5  6  1  0  0  0
  5 26  1  0  0  0
  5 91  1  0  0  0
  6 25  1  0  0  0
  6 92  1  0  0  0
  6 93  1  0  0  0
  7  8  2  0  0  0
  7 26  1  0  0  0
  7 29  1  0  0  0
  8  9  1  0  0  0
  8 22  1  0  0  0
  9 10  1  0  0  0
  9 27  2  0  0  0
 10 11  2  0  0  0
 10 15  1  0  0  0
 11 12  1  0  0  0
 11 94  1  0  0  0
 12 13  2  0  0  0
 12 95  1  0  0  0
 13 14  1  0  0  0
 13 31  1  0  0  0
 14 15  2  0  0  0
 14 96  1  0  0  0
 15 97  1  0  0  0
 16 17  2  0  0  0
 16 21  1  0  0  0
 16 31  1  0  0  0
 17 18  1  0  0  0
 17 98  1  0  0  0
 18 19  2  0  0  0
 18 99  1  0  0  0
 19 20  1  0  0  0
 19 24  1  0  0  0
 20 21  2  0  0  0
 20100  1  0  0  0
 21 23  1  0  0  0
 22 28  1  0  0  0
 22 32  2  0  0  0
 26 27  1  0  0  0
 28101  1  0  0  0
 28102  1  0  0  0
 29103  1  0  0  0
 29104  1  0  0  0
 33 34  1  0  0  0
 33 66  1  0  0  0
 33 70  2  0  0  0
 34 36  1  0  0  0
 34 59  1  0  0  0
 34105  1  0  0  0
 35 44  2  0  0  0
 35 45  1  0  0  0
 35 68  1  0  0  0
 36 56  1  0  0  0
 36106  1  0  0  0
 37 39  1  0  0  0
 37 47  1  0  0  0
 37 66  1  0  0  0
 37107  1  0  0  0
 38 43  2  0  0  0
 38 46  1  0  0  0
 38 47  1  0  0  0
 39 64  1  0  0  0
 39 67  2  0  0  0
 40 52  1  0  0  0
 40 53  2  0  0  0
 40 58  1  0  0  0
 41108  1  0  0  0
 41109  1  0  0  0
 41110  1  0  0  0
 41 48  1  0  0  0
 42 43  1  0  0  0
 42 66  1  0  0  0
 42111  1  0  0  0
 42112  1  0  0  0
 43 44  1  0  0  0
 44113  1  0  0  0
 45 46  2  0  0  0
 45114  1  0  0  0
 46115  1  0  0  0
 47116  1  0  0  0
 47117  1  0  0  0
 48 56  1  0  0  0
 48 65  1  0  0  0
 48118  1  0  0  0
 49 50  1  0  0  0
 49 53  1  0  0  0
 49 64  1  0  0  0
 49119  1  0  0  0
 50 51  1  0  0  0
 50120  1  0  0  0
 50121  1  0  0  0
 51 52  1  0  0  0
 51122  1  0  0  0
 51123  1  0  0  0
 52124  1  0  0  0
 52125  1  0  0  0
 53 54  1  0  0  0
 54 55  2  0  0  0
 54126  1  0  0  0
 55 57  1  0  0  0
 55127  1  0  0  0
 56 69  2  0  0  0
 57 58  2  0  0  0
 57128  1  0  0  0
 58129  1  0  0  0
 59 60  1  0  0  0
 59 61  1  0  0  0
 59 62  1  0  0  0
 60130  1  0  0  0
 60131  1  0  0  0
 60132  1  0  0  0
 61133  1  0  0  0
 61134  1  0  0  0
 61135  1  0  0  0
 62136  1  0  0  0
 62137  1  0  0  0
 62138  1  0  0  0
 63 65  1  0  0  0
 63139  1  0  0  0
 63140  1  0  0  0
 63141  1  0  0  0
 64142  1  0  0  0
 65143  1  0  0  0
 68 80  1  0  0  0
 71 74  2  0  0  0
 71 75  1  0  0  0
 71144  1  0  0  0
 72 75  2  0  0  0
 72 76  1  0  0  0
 72145  1  0  0  0
 73 74  1  0  0  0
 73 76  2  0  0  0
 73 77  1  0  0  0
 74 78  1  0  0  0
 75 81  1  0  0  0
 76 84  1  0  0  0
 77 82  1  0  0  0
 77 83  2  0  0  0
 78146  1  0  0  0
 78147  1  0  0  0
 78148  1  0  0  0
 79 80  1  0  0  0
 79 82  1  0  0  0
 79149  1  0  0  0
 79150  1  0  0  0
 80151  1  0  0  0
 80152  1  0  0  0
 81153  1  0  0  0
 82154  1  0  0  0
M  ISO  4   1 100  68 101  80 101  81 100
M  END
> <chiral flag>
0

> <version>
0

> <s_m_source_file>
/data/baiqing/PycharmProjects/Reinvent-master-3.2/result/LINK_invent/BTK/process_docking_weight1_custom_product_contain_oxygen_bond_distance_aromatic_linkinvent_7_9_3/rearranged_h_0054.sdf

> <i_m_source_file_index>
17

> <r_mmod_Potential_Energy-OPLS-2005>
60.3446922302246

> <r_mmod_Stretch_Energy-OPLS-2005>
83.045295715332

> <r_mmod_Bend_Energy-OPLS-2005>
140.287750244141

> <r_mmod_Torsional_Energy-OPLS-2005>
225.857406616211

> <r_mmod_Improper_Torsional_Energy-OPLS-2005>
4.35589647293091

> <r_mmod_Van_der_Waal_Energy-OPLS-2005>
148.778915405273

> <r_mmod_Electrostatic_Energy-OPLS-2005>
-351.594299316406

> <r_mmod_Solvation_Energy-OPLS-2005>
-239.243453979492

> <b_mmod_Minimization_Converged-OPLS-2005>
0

> <r_mmod_RMS_Derivative-OPLS-2005>
0.611391246318817

$$$$
17
                    3D
 Structure written by MMmdl.
150158  0  0  1  0            999 V2000
  -30.6877  -14.6355   20.4672 C   0  0  0  0  0  0
  -30.4128  -12.3578   19.4829 C   0  0  0  0  0  0
  -29.5069  -12.4839   18.2399 C   0  0  0  0  0  0
  -28.0273  -12.3353   18.6423 C   0  0  0  0  0  0
  -27.6399  -13.2337   19.8488 C   0  0  2  0  0  0
  -28.6692  -13.1494   20.9935 C   0  0  0  0  0  0
  -25.2490  -13.8225   20.5686 C   0  0  0  0  0  0
  -24.1781  -13.0459   20.9184 C   0  0  0  0  0  0
  -24.6374  -11.6936   20.8733 C   0  0  0  0  0  0
  -23.9062  -10.4304   21.0404 C   0  0  0  0  0  0
  -24.3620   -9.4218   21.9184 C   0  0  0  0  0  0
  -23.6300   -8.2247   22.0754 C   0  0  0  0  0  0
  -22.4283   -8.0281   21.3540 C   0  0  0  0  0  0
  -21.9911   -9.0253   20.4643 C   0  0  0  0  0  0
  -22.7234  -10.2136   20.3054 C   0  0  0  0  0  0
  -21.6852   -6.0736   22.5278 C   0  0  0  0  0  0
  -21.4015   -6.5641   23.8212 C   0  0  0  0  0  0
  -21.3663   -5.6794   24.9176 C   0  0  0  0  0  0
  -21.6042   -4.3056   24.7226 C   0  0  0  0  0  0
  -21.8817   -3.8147   23.4349 C   0  0  0  0  0  0
  -21.9191   -4.6962   22.3404 C   0  0  0  0  0  0
  -22.7803  -13.5223   21.1868 C   0  0  0  0  0  0
  -22.1659   -4.2146   21.0981 F   0  0  0  0  0  0
  -21.5630   -3.4543   25.7743 F   0  0  0  0  0  0
  -29.9959  -13.4039   20.4335 N   0  0  0  0  0  0
  -26.2902  -12.9434   20.3239 N   0  0  0  0  0  0
  -25.9297  -11.6572   20.5722 N   0  0  0  0  0  0
  -22.0468  -12.8205   22.0439 N   0  0  0  0  0  0
  -25.4203  -15.1949   20.4149 N   0  0  0  0  0  0
  -31.8617  -14.7441   20.1106 O   0  0  0  0  0  0
  -21.6639   -6.8882   21.4241 O   0  0  0  0  0  0
  -22.3474  -14.5528   20.6725 O   0  0  0  0  0  0
  -24.6251  -31.8601   23.2018 C   0  0  0  0  0  0
  -25.9107  -32.4780   23.8349 C   0  0  1  0  0  0
  -27.2163  -27.3259   20.1206 C   0  0  0  0  0  0
  -25.5927  -33.8581   24.2273 N   0  0  0  0  0  0
  -23.4189  -30.4830   21.5443 C   0  0  2  0  0  0
  -24.8658  -28.9388   20.1090 C   0  0  0  0  0  0
  -22.7477  -29.4618   22.4935 C   0  0  0  0  0  0
  -18.0284  -28.1386   22.8485 C   0  0  0  0  0  0
  -24.1496  -36.7297   23.2635 C   0  0  0  0  0  0
  -25.9590  -30.7935   21.3722 C   0  0  0  0  0  0
  -26.0350  -29.4220   20.7129 C   0  0  0  0  0  0
  -27.2188  -28.6267   20.7077 C   0  0  0  0  0  0
  -26.0316  -26.8922   19.4916 C   0  0  0  0  0  0
  -24.8654  -27.6797   19.4874 C   0  0  0  0  0  0
  -23.6325  -29.8169   20.1592 C   0  0  0  0  0  0
  -25.4117  -36.3086   24.0325 C   0  0  1  0  0  0
  -20.5882  -28.3690   23.1283 C   0  0  2  0  0  0
  -20.6769  -26.9413   22.5409 C   0  0  0  0  0  0
  -19.5743  -26.6378   21.5215 C   0  0  0  0  0  0
  -18.1921  -26.7930   22.1623 C   0  0  0  0  0  0
  -19.1535  -28.8853   23.2874 C   0  0  0  0  0  0
  -18.9461  -30.1456   23.8895 C   0  0  0  0  0  0
  -17.6464  -30.6592   24.0563 C   0  0  0  0  0  0
  -25.9052  -34.9454   23.5097 C   0  0  0  0  0  0
  -16.5350  -29.9092   23.6334 C   0  0  0  0  0  0
  -16.7270  -28.6506   23.0359 C   0  0  0  0  0  0
  -26.4495  -31.6598   25.0730 C   0  0  0  0  0  0
  -25.3727  -31.3735   26.1461 C   0  0  0  0  0  0
  -27.0352  -30.3028   24.6188 C   0  0  0  0  0  0
  -27.6048  -32.4347   25.7502 C   0  0  0  0  0  0
  -27.5585  -37.1796   24.8461 C   0  0  0  0  0  0
  -21.4193  -29.3044   22.3687 N   0  0  0  0  0  0
  -26.4301  -37.3777   23.9399 N   0  0  0  0  0  0
  -24.6862  -31.0620   22.0966 N   0  0  0  0  0  0
  -23.4212  -28.8157   23.3005 O   0  0  0  0  0  0
  -28.3043  -26.4504   20.1511 O   0  0  0  0  0  0
  -26.5629  -34.8922   22.4670 O   0  0  0  0  0  0
  -23.5418  -32.1400   23.7346 O   0  0  0  0  0  0
  -29.0260  -20.4451   21.9178 C   0  0  0  0  0  0
  -29.1967  -20.6757   19.5349 C   0  0  0  0  0  0
  -29.7559  -18.4724   20.5932 C   0  0  0  0  0  0
  -28.9318  -21.2977   20.7845 C   0  0  0  0  0  0
  -29.4319  -19.0798   21.8347 C   0  0  0  0  0  0
  -29.5957  -19.3041   19.4399 C   0  0  0  0  0  0
  -28.5866  -23.8328   20.2141 C   0  0  0  0  0  0
  -30.5223  -17.0956   20.5226 C   0  0  0  0  0  0
  -28.0681  -25.1768   20.8712 C   0  0  0  0  0  0
  -28.5545  -22.7013   20.9916 N   0  0  0  0  0  0
  -28.9893  -23.8286   19.0473 O   0  0  0  0  0  0
  -29.8912  -15.7830   20.7388 O   0  0  0  0  0  0
  -29.5934  -18.1825   23.3026 Cl  0  0  0  0  0  0
  -29.9374  -18.6789   17.8635 Cl  0  0  0  0  0  0
  -31.4626  -12.4466   19.2000 H   0  0  0  0  0  0
  -30.3066  -11.3736   19.9412 H   0  0  0  0  0  0
  -29.7706  -11.7243   17.5021 H   0  0  0  0  0  0
  -29.6648  -13.4501   17.7589 H   0  0  0  0  0  0
  -27.8634  -11.2870   18.8953 H   0  0  0  0  0  0
  -27.3788  -12.5468   17.7913 H   0  0  0  0  0  0
  -27.6468  -14.2596   19.4790 H   0  0  0  0  0  0
  -28.6483  -12.1637   21.4600 H   0  0  0  0  0  0
  -28.4302  -13.8687   21.7784 H   0  0  0  0  0  0
  -25.2764   -9.5693   22.4759 H   0  0  0  0  0  0
  -24.0003   -7.4641   22.7471 H   0  0  0  0  0  0
  -21.0838   -8.8770   19.8952 H   0  0  0  0  0  0
  -22.3688  -10.9674   19.6164 H   0  0  0  0  0  0
  -21.2008   -7.6149   23.9714 H   0  0  0  0  0  0
  -21.1488   -6.0527   25.9077 H   0  0  0  0  0  0
  -22.0593   -2.7608   23.2850 H   0  0  0  0  0  0
  -22.4104  -11.9868   22.4812 H   0  0  0  0  0  0
  -21.1089  -13.1220   22.2674 H   0  0  0  0  0  0
  -24.6619  -15.8562   20.5409 H   0  0  0  0  0  0
  -26.2883  -15.6336   20.1338 H   0  0  0  0  0  0
  -26.7181  -32.5470   23.1102 H   0  0  0  0  0  0
  -25.0086  -33.9727   25.0427 H   0  0  0  0  0  0
  -22.7118  -31.3033   21.4020 H   0  0  0  0  0  0
  -23.3764  -35.9630   23.3299 H   0  0  0  0  0  0
  -24.3580  -36.8927   22.2052 H   0  0  0  0  0  0
  -23.7253  -37.6492   23.6672 H   0  0  0  0  0  0
  -26.0925  -31.5586   20.6057 H   0  0  0  0  0  0
  -26.8375  -30.8401   22.0041 H   0  0  0  0  0  0
  -28.1175  -28.9884   21.1875 H   0  0  0  0  0  0
  -26.0013  -25.9213   19.0169 H   0  0  0  0  0  0
  -23.9701  -27.3042   19.0109 H   0  0  0  0  0  0
  -23.7461  -30.5938   19.4020 H   0  0  0  0  0  0
  -22.7536  -29.2426   19.8615 H   0  0  0  0  0  0
  -25.1294  -36.1937   25.0818 H   0  0  0  0  0  0
  -20.9960  -28.3268   24.1410 H   0  0  0  0  0  0
  -20.5684  -26.2294   23.3610 H   0  0  0  0  0  0
  -21.6638  -26.7453   22.1194 H   0  0  0  0  0  0
  -19.6910  -25.6284   21.1258 H   0  0  0  0  0  0
  -19.6693  -27.3184   20.6743 H   0  0  0  0  0  0
  -17.4192  -26.6686   21.4023 H   0  0  0  0  0  0
  -18.0308  -26.0075   22.9020 H   0  0  0  0  0  0
  -19.7943  -30.7255   24.2273 H   0  0  0  0  0  0
  -17.5030  -31.6280   24.5156 H   0  0  0  0  0  0
  -15.5356  -30.2997   23.7659 H   0  0  0  0  0  0
  -15.8668  -28.0825   22.7082 H   0  0  0  0  0  0
  -24.5902  -30.7084   25.7783 H   0  0  0  0  0  0
  -24.8922  -32.2902   26.4890 H   0  0  0  0  0  0
  -25.8047  -30.8911   27.0239 H   0  0  0  0  0  0
  -26.2932  -29.6763   24.1229 H   0  0  0  0  0  0
  -27.4069  -29.7297   25.4689 H   0  0  0  0  0  0
  -27.8789  -30.4312   23.9404 H   0  0  0  0  0  0
  -27.2650  -33.3649   26.2066 H   0  0  0  0  0  0
  -28.3862  -32.6906   25.0333 H   0  0  0  0  0  0
  -28.0723  -31.8496   26.5430 H   0  0  0  0  0  0
  -28.2581  -38.0111   24.7519 H   0  0  0  0  0  0
  -28.1096  -36.2635   24.6275 H   0  0  0  0  0  0
  -27.2297  -37.1433   25.8863 H   0  0  0  0  0  0
  -20.9364  -29.8795   21.6929 H   0  0  0  0  0  0
  -26.0185  -38.2851   24.1417 H   0  0  0  0  0  0
  -28.8213  -20.8506   22.8986 H   0  0  0  0  0  0
  -29.1186  -21.2526   18.6244 H   0  0  0  0  0  0
  -31.3384  -17.1684   21.2429 H   0  0  0  0  0  0
  -31.0208  -17.0565   19.5545 H   0  0  0  0  0  0
  -28.5548  -25.2734   21.8417 H   0  0  0  0  0  0
  -27.0095  -25.0353   21.0960 H   0  0  0  0  0  0
  -28.2320  -22.9007   21.9293 H   0  0  0  0  0  0
  1 25  1  0  0  0
  1 30  2  0  0  0
  1 82  1  0  0  0
  2  3  1  0  0  0
  2 25  1  0  0  0
  2 85  1  0  0  0
  2 86  1  0  0  0
  3  4  1  0  0  0
  3 87  1  0  0  0
  3 88  1  0  0  0
  4  5  1  0  0  0
  4 89  1  0  0  0
  4 90  1  0  0  0
  5  6  1  0  0  0
  5 26  1  0  0  0
  5 91  1  0  0  0
  6 25  1  0  0  0
  6 92  1  0  0  0
  6 93  1  0  0  0
  7  8  2  0  0  0
  7 26  1  0  0  0
  7 29  1  0  0  0
  8  9  1  0  0  0
  8 22  1  0  0  0
  9 10  1  0  0  0
  9 27  2  0  0  0
 10 11  2  0  0  0
 10 15  1  0  0  0
 11 12  1  0  0  0
 11 94  1  0  0  0
 12 13  2  0  0  0
 12 95  1  0  0  0
 13 14  1  0  0  0
 13 31  1  0  0  0
 14 15  2  0  0  0
 14 96  1  0  0  0
 15 97  1  0  0  0
 16 17  2  0  0  0
 16 21  1  0  0  0
 16 31  1  0  0  0
 17 18  1  0  0  0
 17 98  1  0  0  0
 18 19  2  0  0  0
 18 99  1  0  0  0
 19 20  1  0  0  0
 19 24  1  0  0  0
 20 21  2  0  0  0
 20100  1  0  0  0
 21 23  1  0  0  0
 22 28  1  0  0  0
 22 32  2  0  0  0
 26 27  1  0  0  0
 28101  1  0  0  0
 28102  1  0  0  0
 29103  1  0  0  0
 29104  1  0  0  0
 33 34  1  0  0  0
 33 66  1  0  0  0
 33 70  2  0  0  0
 34 36  1  0  0  0
 34 59  1  0  0  0
 34105  1  0  0  0
 35 44  2  0  0  0
 35 45  1  0  0  0
 35 68  1  0  0  0
 36 56  1  0  0  0
 36106  1  0  0  0
 37 39  1  0  0  0
 37 47  1  0  0  0
 37 66  1  0  0  0
 37107  1  0  0  0
 38 43  2  0  0  0
 38 46  1  0  0  0
 38 47  1  0  0  0
 39 64  1  0  0  0
 39 67  2  0  0  0
 40 52  1  0  0  0
 40 53  2  0  0  0
 40 58  1  0  0  0
 41108  1  0  0  0
 41109  1  0  0  0
 41110  1  0  0  0
 41 48  1  0  0  0
 42 43  1  0  0  0
 42 66  1  0  0  0
 42111  1  0  0  0
 42112  1  0  0  0
 43 44  1  0  0  0
 44113  1  0  0  0
 45 46  2  0  0  0
 45114  1  0  0  0
 46115  1  0  0  0
 47116  1  0  0  0
 47117  1  0  0  0
 48 56  1  0  0  0
 48 65  1  0  0  0
 48118  1  0  0  0
 49 50  1  0  0  0
 49 53  1  0  0  0
 49 64  1  0  0  0
 49119  1  0  0  0
 50 51  1  0  0  0
 50120  1  0  0  0
 50121  1  0  0  0
 51 52  1  0  0  0
 51122  1  0  0  0
 51123  1  0  0  0
 52124  1  0  0  0
 52125  1  0  0  0
 53 54  1  0  0  0
 54 55  2  0  0  0
 54126  1  0  0  0
 55 57  1  0  0  0
 55127  1  0  0  0
 56 69  2  0  0  0
 57 58  2  0  0  0
 57128  1  0  0  0
 58129  1  0  0  0
 59 60  1  0  0  0
 59 61  1  0  0  0
 59 62  1  0  0  0
 60130  1  0  0  0
 60131  1  0  0  0
 60132  1  0  0  0
 61133  1  0  0  0
 61134  1  0  0  0
 61135  1  0  0  0
 62136  1  0  0  0
 62137  1  0  0  0
 62138  1  0  0  0
 63 65  1  0  0  0
 63139  1  0  0  0
 63140  1  0  0  0
 63141  1  0  0  0
 64142  1  0  0  0
 65143  1  0  0  0
 68 79  1  0  0  0
 71 74  2  0  0  0
 71 75  1  0  0  0
 71144  1  0  0  0
 72 74  1  0  0  0
 72 76  2  0  0  0
 72145  1  0  0  0
 73 75  2  0  0  0
 73 76  1  0  0  0
 73 78  1  0  0  0
 74 80  1  0  0  0
 75 83  1  0  0  0
 76 84  1  0  0  0
 77 79  1  0  0  0
 77 80  1  0  0  0
 77 81  2  0  0  0
 78 82  1  0  0  0
 78146  1  0  0  0
 78147  1  0  0  0
 79148  1  0  0  0
 79149  1  0  0  0
 80150  1  0  0  0
M  ISO  4   1 100  68 101  79 101  82 100
M  END
> <chiral flag>
0

> <version>
0

> <s_m_source_file>
/data/baiqing/PycharmProjects/Reinvent-master-3.2/result/LINK_invent/BTK/process_docking_weight1_custom_product_contain_oxygen_bond_distance_aromatic_linkinvent_7_9_3/rearranged_h_0054.sdf

> <i_m_source_file_index>
18

> <r_mmod_Potential_Energy-OPLS-2005>
76.6431655883789

> <r_mmod_Stretch_Energy-OPLS-2005>
82.9370956420898

> <r_mmod_Bend_Energy-OPLS-2005>
147.621078491211

> <r_mmod_Torsional_Energy-OPLS-2005>
211.395141601562

> <r_mmod_Improper_Torsional_Energy-OPLS-2005>
6.07239627838135

> <r_mmod_Van_der_Waal_Energy-OPLS-2005>
137.933578491211

> <r_mmod_Electrostatic_Energy-OPLS-2005>
-333.408020019531

> <r_mmod_Solvation_Energy-OPLS-2005>
-226.412948608398

> <b_mmod_Minimization_Converged-OPLS-2005>
0

> <r_mmod_RMS_Derivative-OPLS-2005>
1.41212248802185

$$$$
18
                    3D
 Structure written by MMmdl.
155163  0  0  1  0            999 V2000
  -30.6823  -14.5638   20.4023 C   0  0  0  0  0  0
  -30.4363  -12.3251   19.4057 C   0  0  0  0  0  0
  -29.5019  -12.4803   18.1894 C   0  0  0  0  0  0
  -28.0213  -12.3356   18.6093 C   0  0  0  0  0  0
  -27.6503  -13.2036   19.8437 C   0  0  2  0  0  0
  -28.7209  -13.0660   20.9595 C   0  0  0  0  0  0
  -25.2499  -13.8083   20.5729 C   0  0  0  0  0  0
  -24.1799  -13.0389   20.9313 C   0  0  0  0  0  0
  -24.6362  -11.6865   20.8800 C   0  0  0  0  0  0
  -23.9045  -10.4281   21.0416 C   0  0  0  0  0  0
  -24.3656   -9.4158   21.9131 C   0  0  0  0  0  0
  -23.6331   -8.2188   22.0685 C   0  0  0  0  0  0
  -22.4275   -8.0271   21.3502 C   0  0  0  0  0  0
  -21.9920   -9.0286   20.4639 C   0  0  0  0  0  0
  -22.7225  -10.2158   20.3056 C   0  0  0  0  0  0
  -21.6770   -6.0786   22.5333 C   0  0  0  0  0  0
  -21.3915   -6.5625   23.8320 C   0  0  0  0  0  0
  -21.3684   -5.6752   24.9287 C   0  0  0  0  0  0
  -21.6092   -4.3021   24.7282 C   0  0  0  0  0  0
  -21.8786   -3.8159   23.4363 C   0  0  0  0  0  0
  -21.9159   -4.7024   22.3458 C   0  0  0  0  0  0
  -22.7819  -13.5203   21.2024 C   0  0  0  0  0  0
  -22.1666   -4.2236   21.1033 F   0  0  0  0  0  0
  -21.5679   -3.4496   25.7771 F   0  0  0  0  0  0
  -30.0391  -13.3624   20.3742 N   0  0  0  0  0  0
  -26.2935  -12.9296   20.3227 N   0  0  0  0  0  0
  -25.9269  -11.6446   20.5656 N   0  0  0  0  0  0
  -22.0658  -12.8223   22.0761 N   0  0  0  0  0  0
  -25.4203  -15.1800   20.4167 N   0  0  0  0  0  0
  -31.8656  -14.6906   20.0815 O   0  0  0  0  0  0
  -21.6547   -6.8900   21.4260 O   0  0  0  0  0  0
  -22.3364  -14.5407   20.6753 O   0  0  0  0  0  0
  -24.6194  -31.8636   23.2091 C   0  0  0  0  0  0
  -25.9057  -32.4811   23.8391 C   0  0  1  0  0  0
  -27.2241  -27.3898   20.1062 C   0  0  0  0  0  0
  -25.5901  -33.8617   24.2345 N   0  0  0  0  0  0
  -23.4082  -30.4895   21.5487 C   0  0  2  0  0  0
  -24.8498  -28.9435   20.1157 C   0  0  0  0  0  0
  -22.7431  -29.4662   22.4961 C   0  0  0  0  0  0
  -18.0285  -28.1371   22.8491 C   0  0  0  0  0  0
  -24.1467  -36.7316   23.2645 C   0  0  0  0  0  0
  -25.9394  -30.8140   21.3631 C   0  0  0  0  0  0
  -26.0133  -29.4404   20.7188 C   0  0  0  0  0  0
  -27.2044  -28.6738   20.7074 C   0  0  0  0  0  0
  -26.0495  -26.9186   19.4837 C   0  0  0  0  0  0
  -24.8675  -27.6840   19.4883 C   0  0  0  0  0  0
  -23.6152  -29.8182   20.1650 C   0  0  0  0  0  0
  -25.4087  -36.3119   24.0353 C   0  0  1  0  0  0
  -20.5882  -28.3684   23.1288 C   0  0  2  0  0  0
  -20.6761  -26.9403   22.5405 C   0  0  0  0  0  0
  -19.5732  -26.6379   21.5212 C   0  0  0  0  0  0
  -18.1924  -26.7921   22.1628 C   0  0  0  0  0  0
  -19.1538  -28.8834   23.2899 C   0  0  0  0  0  0
  -18.9462  -30.1445   23.8907 C   0  0  0  0  0  0
  -17.6461  -30.6575   24.0569 C   0  0  0  0  0  0
  -25.9023  -34.9480   23.5152 C   0  0  0  0  0  0
  -16.5357  -29.9080   23.6314 C   0  0  0  0  0  0
  -16.7280  -28.6493   23.0351 C   0  0  0  0  0  0
  -26.4469  -31.6605   25.0744 C   0  0  0  0  0  0
  -25.3747  -31.3688   26.1522 C   0  0  0  0  0  0
  -27.0299  -30.3060   24.6088 C   0  0  0  0  0  0
  -27.6041  -32.4323   25.7513 C   0  0  0  0  0  0
  -27.5579  -37.1814   24.8472 C   0  0  0  0  0  0
  -21.4151  -29.3063   22.3702 N   0  0  0  0  0  0
  -26.4280  -37.3805   23.9434 N   0  0  0  0  0  0
  -24.6752  -31.0741   22.0979 N   0  0  0  0  0  0
  -23.4188  -28.8203   23.3027 O   0  0  0  0  0  0
  -28.3761  -26.6194   20.1050 O   0  0  0  0  0  0
  -26.5583  -34.8923   22.4712 O   0  0  0  0  0  0
  -23.5374  -32.1397   23.7453 O   0  0  0  0  0  0
  -26.8511  -17.9991   18.5492 C   0  0  0  0  0  0
  -27.9794  -17.2920   18.9892 C   0  0  0  0  0  0
  -26.7629  -19.3816   18.7735 C   0  0  0  0  0  0
  -28.9182  -19.3545   19.9236 C   0  0  0  0  0  0
  -29.0090  -17.9337   19.7188 C   0  0  0  0  0  0
  -27.7871  -20.0832   19.4323 C   0  0  0  0  0  0
  -30.1891  -17.0784   20.2658 C   0  0  0  0  0  0
  -28.9508  -24.2169   19.5618 C   0  0  0  0  0  0
  -28.2501  -25.2320   20.5170 C   0  0  0  0  0  0
  -29.8768  -15.6466   20.5398 N   0  0  0  0  0  0
  -28.8514  -22.7803   19.9794 N   0  0  0  0  0  0
  -27.0604  -22.3435   18.2084 O   0  0  0  0  0  0
  -26.4814  -22.0929   20.6551 O   0  0  0  0  0  0
  -27.4378  -21.8854   19.5533 S   0  0  0  0  0  0
  -31.4770  -12.4082   19.0884 H   0  0  0  0  0  0
  -30.3319  -11.3292   19.8413 H   0  0  0  0  0  0
  -29.7495  -11.7368   17.4316 H   0  0  0  0  0  0
  -29.6592  -13.4566   17.7275 H   0  0  0  0  0  0
  -27.8361  -11.2818   18.8302 H   0  0  0  0  0  0
  -27.3679  -12.5888   17.7718 H   0  0  0  0  0  0
  -27.6608  -14.2348   19.5010 H   0  0  0  0  0  0
  -28.7323  -12.0532   21.3762 H   0  0  0  0  0  0
  -28.5146  -13.7449   21.7910 H   0  0  0  0  0  0
  -25.2872   -9.5656   22.4591 H   0  0  0  0  0  0
  -24.0121   -7.4607   22.7383 H   0  0  0  0  0  0
  -21.0875   -8.8841   19.8936 H   0  0  0  0  0  0
  -22.3677  -10.9693   19.6161 H   0  0  0  0  0  0
  -21.1752   -7.6101   23.9884 H   0  0  0  0  0  0
  -21.1577   -6.0445   25.9226 H   0  0  0  0  0  0
  -22.0511   -2.7603   23.2854 H   0  0  0  0  0  0
  -22.4538  -12.0117   22.5440 H   0  0  0  0  0  0
  -21.1195  -13.0956   22.2953 H   0  0  0  0  0  0
  -24.6500  -15.8335   20.5277 H   0  0  0  0  0  0
  -26.2752  -15.6107   20.0958 H   0  0  0  0  0  0
  -26.7137  -32.5499   23.1156 H   0  0  0  0  0  0
  -25.0098  -33.9746   25.0524 H   0  0  0  0  0  0
  -22.7022  -31.3087   21.4092 H   0  0  0  0  0  0
  -23.3733  -35.9651   23.3312 H   0  0  0  0  0  0
  -24.3570  -36.8920   22.2064 H   0  0  0  0  0  0
  -23.7203  -37.6516   23.6646 H   0  0  0  0  0  0
  -26.0466  -31.5667   20.5786 H   0  0  0  0  0  0
  -26.8329  -30.8821   21.9733 H   0  0  0  0  0  0
  -28.1007  -29.0532   21.1783 H   0  0  0  0  0  0
  -26.0442  -25.9560   18.9901 H   0  0  0  0  0  0
  -23.9812  -27.2994   19.0054 H   0  0  0  0  0  0
  -23.7220  -30.5899   19.4027 H   0  0  0  0  0  0
  -22.7377  -29.2371   19.8742 H   0  0  0  0  0  0
  -25.1254  -36.1997   25.0847 H   0  0  0  0  0  0
  -20.9993  -28.3262   24.1408 H   0  0  0  0  0  0
  -20.5639  -26.2309   23.3624 H   0  0  0  0  0  0
  -21.6640  -26.7414   22.1224 H   0  0  0  0  0  0
  -19.6895  -25.6293   21.1240 H   0  0  0  0  0  0
  -19.6665  -27.3187   20.6744 H   0  0  0  0  0  0
  -17.4198  -26.6693   21.4036 H   0  0  0  0  0  0
  -18.0321  -26.0058   22.9010 H   0  0  0  0  0  0
  -19.7952  -30.7262   24.2283 H   0  0  0  0  0  0
  -17.5025  -31.6261   24.5172 H   0  0  0  0  0  0
  -15.5359  -30.2986   23.7619 H   0  0  0  0  0  0
  -15.8697  -28.0812   22.7050 H   0  0  0  0  0  0
  -24.5919  -30.7028   25.7891 H   0  0  0  0  0  0
  -24.8939  -32.2826   26.5017 H   0  0  0  0  0  0
  -25.8135  -30.8851   27.0260 H   0  0  0  0  0  0
  -26.2837  -29.6843   24.1135 H   0  0  0  0  0  0
  -27.4101  -29.7275   25.4515 H   0  0  0  0  0  0
  -27.8652  -30.4436   23.9219 H   0  0  0  0  0  0
  -27.2662  -33.3608   26.2123 H   0  0  0  0  0  0
  -28.3832  -32.6899   25.0334 H   0  0  0  0  0  0
  -28.0730  -31.8431   26.5403 H   0  0  0  0  0  0
  -28.2595  -38.0103   24.7521 H   0  0  0  0  0  0
  -28.1054  -36.2644   24.6278 H   0  0  0  0  0  0
  -27.2309  -37.1463   25.8871 H   0  0  0  0  0  0
  -20.9316  -29.8806   21.6933 H   0  0  0  0  0  0
  -26.0169  -38.2886   24.1429 H   0  0  0  0  0  0
  -26.0523  -17.4844   18.0255 H   0  0  0  0  0  0
  -28.0404  -16.2399   18.7560 H   0  0  0  0  0  0
  -25.9050  -19.9307   18.4249 H   0  0  0  0  0  0
  -29.7017  -19.8720   20.4565 H   0  0  0  0  0  0
  -30.5361  -17.5321   21.1966 H   0  0  0  0  0  0
  -31.0297  -17.1486   19.5647 H   0  0  0  0  0  0
  -30.0061  -24.4733   19.4797 H   0  0  0  0  0  0
  -28.5448  -24.3272   18.5568 H   0  0  0  0  0  0
  -27.2134  -24.9337   20.6810 H   0  0  0  0  0  0
  -28.7241  -25.1568   21.4952 H   0  0  0  0  0  0
  -28.9087  -15.4251   20.6957 H   0  0  0  0  0  0
  -29.0671  -22.6408   20.9698 H   0  0  0  0  0  0
  1 25  1  0  0  0
  1 30  2  0  0  0
  1 80  1  0  0  0
  2  3  1  0  0  0
  2 25  1  0  0  0
  2 85  1  0  0  0
  2 86  1  0  0  0
  3  4  1  0  0  0
  3 87  1  0  0  0
  3 88  1  0  0  0
  4  5  1  0  0  0
  4 89  1  0  0  0
  4 90  1  0  0  0
  5  6  1  0  0  0
  5 26  1  0  0  0
  5 91  1  0  0  0
  6 25  1  0  0  0
  6 92  1  0  0  0
  6 93  1  0  0  0
  7  8  2  0  0  0
  7 26  1  0  0  0
  7 29  1  0  0  0
  8  9  1  0  0  0
  8 22  1  0  0  0
  9 10  1  0  0  0
  9 27  2  0  0  0
 10 11  2  0  0  0
 10 15  1  0  0  0
 11 12  1  0  0  0
 11 94  1  0  0  0
 12 13  2  0  0  0
 12 95  1  0  0  0
 13 14  1  0  0  0
 13 31  1  0  0  0
 14 15  2  0  0  0
 14 96  1  0  0  0
 15 97  1  0  0  0
 16 17  2  0  0  0
 16 21  1  0  0  0
 16 31  1  0  0  0
 17 18  1  0  0  0
 17 98  1  0  0  0
 18 19  2  0  0  0
 18 99  1  0  0  0
 19 20  1  0  0  0
 19 24  1  0  0  0
 20 21  2  0  0  0
 20100  1  0  0  0
 21 23  1  0  0  0
 22 28  1  0  0  0
 22 32  2  0  0  0
 26 27  1  0  0  0
 28101  1  0  0  0
 28102  1  0  0  0
 29103  1  0  0  0
 29104  1  0  0  0
 33 34  1  0  0  0
 33 66  1  0  0  0
 33 70  2  0  0  0
 34 36  1  0  0  0
 34 59  1  0  0  0
 34105  1  0  0  0
 35 44  2  0  0  0
 35 45  1  0  0  0
 35 68  1  0  0  0
 36 56  1  0  0  0
 36106  1  0  0  0
 37 39  1  0  0  0
 37 47  1  0  0  0
 37 66  1  0  0  0
 37107  1  0  0  0
 38 43  2  0  0  0
 38 46  1  0  0  0
 38 47  1  0  0  0
 39 64  1  0  0  0
 39 67  2  0  0  0
 40 52  1  0  0  0
 40 53  2  0  0  0
 40 58  1  0  0  0
 41108  1  0  0  0
 41109  1  0  0  0
 41110  1  0  0  0
 41 48  1  0  0  0
 42 43  1  0  0  0
 42 66  1  0  0  0
 42111  1  0  0  0
 42112  1  0  0  0
 43 44  1  0  0  0
 44113  1  0  0  0
 45 46  2  0  0  0
 45114  1  0  0  0
 46115  1  0  0  0
 47116  1  0  0  0
 47117  1  0  0  0
 48 56  1  0  0  0
 48 65  1  0  0  0
 48118  1  0  0  0
 49 50  1  0  0  0
 49 53  1  0  0  0
 49 64  1  0  0  0
 49119  1  0  0  0
 50 51  1  0  0  0
 50120  1  0  0  0
 50121  1  0  0  0
 51 52  1  0  0  0
 51122  1  0  0  0
 51123  1  0  0  0
 52124  1  0  0  0
 52125  1  0  0  0
 53 54  1  0  0  0
 54 55  2  0  0  0
 54126  1  0  0  0
 55 57  1  0  0  0
 55127  1  0  0  0
 56 69  2  0  0  0
 57 58  2  0  0  0
 57128  1  0  0  0
 58129  1  0  0  0
 59 60  1  0  0  0
 59 61  1  0  0  0
 59 62  1  0  0  0
 60130  1  0  0  0
 60131  1  0  0  0
 60132  1  0  0  0
 61133  1  0  0  0
 61134  1  0  0  0
 61135  1  0  0  0
 62136  1  0  0  0
 62137  1  0  0  0
 62138  1  0  0  0
 63 65  1  0  0  0
 63139  1  0  0  0
 63140  1  0  0  0
 63141  1  0  0  0
 64142  1  0  0  0
 65143  1  0  0  0
 68 79  1  0  0  0
 71 72  2  0  0  0
 71 73  1  0  0  0
 71144  1  0  0  0
 72 75  1  0  0  0
 72145  1  0  0  0
 73 76  2  0  0  0
 73146  1  0  0  0
 74 75  2  0  0  0
 74 76  1  0  0  0
 74147  1  0  0  0
 75 77  1  0  0  0
 76 84  1  0  0  0
 77 80  1  0  0  0
 77148  1  0  0  0
 77149  1  0  0  0
 78 79  1  0  0  0
 78 81  1  0  0  0
 78150  1  0  0  0
 78151  1  0  0  0
 79152  1  0  0  0
 79153  1  0  0  0
 80154  1  0  0  0
 81155  1  0  0  0
 81 84  1  0  0  0
 82 84  2  0  0  0
 83 84  2  0  0  0
M  ISO  4   1 100  68 101  79 101  80 100
M  END
> <chiral flag>
0

> <version>
0

> <s_m_source_file>
/data/baiqing/PycharmProjects/Reinvent-master-3.2/result/LINK_invent/BTK/process_docking_weight1_custom_product_contain_oxygen_bond_distance_aromatic_linkinvent_7_9_3/rearranged_h_0054.sdf

> <i_m_source_file_index>
19

> <r_mmod_Potential_Energy-OPLS-2005>
-161.279479980469

> <r_mmod_Stretch_Energy-OPLS-2005>
53.9587593078613

> <r_mmod_Bend_Energy-OPLS-2005>
121.685752868652

> <r_mmod_Torsional_Energy-OPLS-2005>
225.478942871094

> <r_mmod_Improper_Torsional_Energy-OPLS-2005>
11.2584495544434

> <r_mmod_Van_der_Waal_Energy-OPLS-2005>
133.054138183594

> <r_mmod_Electrostatic_Energy-OPLS-2005>
-492.493011474609

> <r_mmod_Solvation_Energy-OPLS-2005>
-245.548416137695

> <b_mmod_Minimization_Converged-OPLS-2005>
0

> <r_mmod_RMS_Derivative-OPLS-2005>
9.8267650604248

$$$$
19
                    3D
 Structure written by MMmdl.
175184  0  0  1  0            999 V2000
  -30.7635  -14.3290   20.6783 C   0  0  0  0  0  0
  -30.4227  -12.2663   19.3823 C   0  0  0  0  0  0
  -29.4800  -12.5190   18.1875 C   0  0  0  0  0  0
  -28.0018  -12.3846   18.6041 C   0  0  0  0  0  0
  -27.6746  -13.1961   19.8814 C   0  0  2  0  0  0
  -28.7131  -12.9059   20.9906 C   0  0  0  0  0  0
  -25.2647  -13.8173   20.5715 C   0  0  0  0  0  0
  -24.1881  -13.0472   20.9150 C   0  0  0  0  0  0
  -24.6416  -11.6929   20.8707 C   0  0  0  0  0  0
  -23.9067  -10.4311   21.0408 C   0  0  0  0  0  0
  -24.3615   -9.4193   21.9173 C   0  0  0  0  0  0
  -23.6302   -8.2220   22.0756 C   0  0  0  0  0  0
  -22.4259   -8.0280   21.3573 C   0  0  0  0  0  0
  -21.9889   -9.0239   20.4645 C   0  0  0  0  0  0
  -22.7232  -10.2116   20.3049 C   0  0  0  0  0  0
  -21.6846   -6.0743   22.5284 C   0  0  0  0  0  0
  -21.4016   -6.5656   23.8208 C   0  0  0  0  0  0
  -21.3647   -5.6816   24.9183 C   0  0  0  0  0  0
  -21.6046   -4.3081   24.7226 C   0  0  0  0  0  0
  -21.8821   -3.8154   23.4351 C   0  0  0  0  0  0
  -21.9197   -4.6979   22.3404 C   0  0  0  0  0  0
  -22.7857  -13.5221   21.1840 C   0  0  0  0  0  0
  -22.1674   -4.2161   21.0983 F   0  0  0  0  0  0
  -21.5595   -3.4562   25.7736 F   0  0  0  0  0  0
  -30.0661  -13.1876   20.4674 N   0  0  0  0  0  0
  -26.3112  -12.9347   20.3444 N   0  0  0  0  0  0
  -25.9339  -11.6511   20.5754 N   0  0  0  0  0  0
  -22.0561  -12.8197   22.0401 N   0  0  0  0  0  0
  -25.4466  -15.1897   20.4171 N   0  0  0  0  0  0
  -31.7518  -14.6728   20.0229 O   0  0  0  0  0  0
  -21.6649   -6.8873   21.4236 O   0  0  0  0  0  0
  -22.3506  -14.5535   20.6720 O   0  0  0  0  0  0
  -24.6225  -31.8830   23.2255 C   0  0  0  0  0  0
  -25.9113  -32.4908   23.8509 C   0  0  1  0  0  0
  -27.2035  -27.4247   20.1563 C   0  0  0  0  0  0
  -25.5927  -33.8685   24.2402 N   0  0  0  0  0  0
  -23.4286  -30.5036   21.5753 C   0  0  2  0  0  0
  -24.8544  -28.9727   20.1246 C   0  0  0  0  0  0
  -22.7732  -29.4882   22.5309 C   0  0  0  0  0  0
  -17.9920  -28.1258   22.8696 C   0  0  0  0  0  0
  -24.1494  -36.7332   23.2634 C   0  0  0  0  0  0
  -25.9411  -30.8356   21.3882 C   0  0  0  0  0  0
  -26.0060  -29.4640   20.7526 C   0  0  0  0  0  0
  -27.1777  -28.6805   20.7993 C   0  0  0  0  0  0
  -26.0776  -27.0035   19.4261 C   0  0  0  0  0  0
  -24.8819  -27.7383   19.4582 C   0  0  0  0  0  0
  -23.6205  -29.8392   20.1829 C   0  0  0  0  0  0
  -25.4115  -36.3158   24.0330 C   0  0  1  0  0  0
  -20.4790  -28.4534   22.7930 C   0  0  2  0  0  0
  -20.6824  -26.9542   22.5559 C   0  0  0  0  0  0
  -19.5555  -26.4509   21.6254 C   0  0  0  0  0  0
  -18.1564  -26.7579   22.1988 C   0  0  0  0  0  0
  -19.1136  -28.9021   23.2502 C   0  0  0  0  0  0
  -18.9317  -30.1515   23.8768 C   0  0  0  0  0  0
  -17.6353  -30.6576   24.0801 C   0  0  0  0  0  0
  -25.9025  -34.9521   23.5165 C   0  0  0  0  0  0
  -16.5185  -29.9028   23.6753 C   0  0  0  0  0  0
  -16.6959  -28.6372   23.0876 C   0  0  0  0  0  0
  -26.4495  -31.6610   25.0796 C   0  0  0  0  0  0
  -25.3746  -31.3670   26.1505 C   0  0  0  0  0  0
  -27.0241  -30.3008   24.6149 C   0  0  0  0  0  0
  -27.6070  -32.4324   25.7558 C   0  0  0  0  0  0
  -27.5594  -37.1837   24.8466 C   0  0  0  0  0  0
  -21.4536  -29.4337   22.3940 N   0  0  0  0  0  0
  -26.4314  -37.3819   23.9405 N   0  0  0  0  0  0
  -24.6853  -31.0917   22.1202 N   0  0  0  0  0  0
  -23.4240  -28.7826   23.3015 O   0  0  0  0  0  0
  -28.3241  -26.6389   20.2309 O   0  0  0  0  0  0
  -26.5578  -34.8937   22.4731 O   0  0  0  0  0  0
  -23.5397  -32.1563   23.7593 O   0  0  0  0  0  0
  -27.9053  -17.6800   22.6128 C   0  0  0  0  0  0
  -28.6690  -18.1101   20.3391 C   0  0  0  0  0  0
  -28.7609  -16.5742   22.6933 C   0  0  0  0  0  0
  -29.5270  -17.0011   20.4131 C   0  0  0  0  0  0
  -27.8446  -18.4440   21.4291 C   0  0  0  0  0  0
  -29.5619  -16.2187   21.5915 C   0  0  0  0  0  0
  -26.3160  -24.8777   22.7158 C   0  0  0  0  0  0
  -25.3879  -26.4319   25.9342 C   0  0  0  0  0  0
  -26.9706  -19.6029   21.3060 C   0  0  0  0  0  0
  -26.0113  -26.1812   24.7689 C   0  0  0  0  0  0
  -26.0449  -19.9914   22.1918 C   0  0  0  0  0  0
  -25.5420  -25.2167   23.7826 C   0  0  0  0  0  0
  -27.7537  -25.3430   22.3791 C   0  0  0  0  0  0
  -27.5491  -24.2318   20.0401 C   0  0  0  0  0  0
  -26.0827  -23.9115   20.3961 C   0  0  0  0  0  0
  -28.1944  -25.3515   20.8830 C   0  0  1  0  0  0
  -24.1677  -24.5715   24.0047 C   0  0  0  0  0  0
  -25.3289  -21.2963   22.0157 C   0  0  0  0  0  0
  -26.3067  -22.4334   22.3672 C   0  0  0  0  0  0
  -30.3363  -15.0476   21.7187 N   0  0  0  0  0  0
  -25.8716  -23.7457   21.8503 N   0  3  1  0  0  0
  -31.4625  -12.3740   19.0723 H   0  0  0  0  0  0
  -30.3226  -11.2408   19.7407 H   0  0  0  0  0  0
  -29.6966  -11.8248   17.3742 H   0  0  0  0  0  0
  -29.6560  -13.5147   17.7802 H   0  0  0  0  0  0
  -27.7828  -11.3288   18.7701 H   0  0  0  0  0  0
  -27.3531  -12.7039   17.7886 H   0  0  0  0  0  0
  -27.7389  -14.2538   19.6156 H   0  0  0  0  0  0
  -28.6697  -11.8555   21.2892 H   0  0  0  0  0  0
  -28.4563  -13.4615   21.8917 H   0  0  0  0  0  0
  -25.2783   -9.5649   22.4712 H   0  0  0  0  0  0
  -24.0038   -7.4586   22.7438 H   0  0  0  0  0  0
  -21.0842   -8.8730   19.8911 H   0  0  0  0  0  0
  -22.3722  -10.9638   19.6112 H   0  0  0  0  0  0
  -21.2024   -7.6165   23.9726 H   0  0  0  0  0  0
  -21.1470   -6.0547   25.9094 H   0  0  0  0  0  0
  -22.0617   -2.7621   23.2852 H   0  0  0  0  0  0
  -22.4239  -11.9817   22.4683 H   0  0  0  0  0  0
  -21.1166  -13.1155   22.2674 H   0  0  0  0  0  0
  -24.7032  -15.8665   20.5508 H   0  0  0  0  0  0
  -26.3402  -15.6187   20.2063 H   0  0  0  0  0  0
  -26.7227  -32.5626   23.1313 H   0  0  0  0  0  0
  -25.0051  -33.9849   25.0523 H   0  0  0  0  0  0
  -22.7242  -31.3217   21.4303 H   0  0  0  0  0  0
  -23.3763  -35.9665   23.3337 H   0  0  0  0  0  0
  -24.3562  -36.8912   22.2045 H   0  0  0  0  0  0
  -23.7246  -37.6551   23.6614 H   0  0  0  0  0  0
  -26.0397  -31.5943   20.6126 H   0  0  0  0  0  0
  -26.8320  -30.8990   21.9978 H   0  0  0  0  0  0
  -28.0424  -29.0159   21.3573 H   0  0  0  0  0  0
  -26.1245  -26.1217   18.8102 H   0  0  0  0  0  0
  -24.0088  -27.3766   18.9327 H   0  0  0  0  0  0
  -23.7239  -30.6151   19.4243 H   0  0  0  0  0  0
  -22.7409  -29.2612   19.8916 H   0  0  0  0  0  0
  -25.1291  -36.2054   25.0814 H   0  0  0  0  0  0
  -20.1619  -28.6662   21.7731 H   0  0  0  0  0  0
  -20.6304  -26.4366   23.5118 H   0  0  0  0  0  0
  -21.6718  -26.7399   22.1419 H   0  0  0  0  0  0
  -19.6474  -25.3741   21.4773 H   0  0  0  0  0  0
  -19.6510  -26.9025   20.6372 H   0  0  0  0  0  0
  -17.4082  -26.6406   21.4151 H   0  0  0  0  0  0
  -17.9140  -26.0044   22.9481 H   0  0  0  0  0  0
  -19.7827  -30.7514   24.1575 H   0  0  0  0  0  0
  -17.4987  -31.6250   24.5444 H   0  0  0  0  0  0
  -15.5199  -30.2831   23.8411 H   0  0  0  0  0  0
  -15.8281  -28.0631   22.7974 H   0  0  0  0  0  0
  -24.5908  -30.7044   25.7819 H   0  0  0  0  0  0
  -24.8920  -32.2787   26.5029 H   0  0  0  0  0  0
  -25.8063  -30.8766   27.0225 H   0  0  0  0  0  0
  -26.2746  -29.6854   24.1141 H   0  0  0  0  0  0
  -27.3888  -29.7148   25.4603 H   0  0  0  0  0  0
  -27.8663  -30.4262   23.9327 H   0  0  0  0  0  0
  -27.2662  -33.3590   26.2169 H   0  0  0  0  0  0
  -28.3824  -32.6956   25.0361 H   0  0  0  0  0  0
  -28.0779  -31.8435   26.5437 H   0  0  0  0  0  0
  -28.2626  -38.0121   24.7479 H   0  0  0  0  0  0
  -28.1051  -36.2645   24.6318 H   0  0  0  0  0  0
  -27.2252  -37.1500   25.8844 H   0  0  0  0  0  0
  -21.0664  -30.1314   21.7729 H   0  0  0  0  0  0
  -26.0228  -38.2903   24.1414 H   0  0  0  0  0  0
  -27.3155  -17.9403   23.4804 H   0  0  0  0  0  0
  -28.6524  -18.7035   19.4356 H   0  0  0  0  0  0
  -28.7839  -15.9922   23.6038 H   0  0  0  0  0  0
  -30.1278  -16.7637   19.5478 H   0  0  0  0  0  0
  -24.4917  -25.9128   26.2437 H   0  0  0  0  0  0
  -25.7799  -27.1806   26.6116 H   0  0  0  0  0  0
  -27.1206  -20.2237   20.4344 H   0  0  0  0  0  0
  -26.9110  -26.7452   24.5762 H   0  0  0  0  0  0
  -25.8196  -19.4145   23.0743 H   0  0  0  0  0  0
  -28.3947  -24.6467   22.9206 H   0  0  0  0  0  0
  -27.9879  -26.3143   22.8027 H   0  0  0  0  0  0
  -27.6432  -24.4617   18.9824 H   0  0  0  0  0  0
  -28.1302  -23.3197   20.1756 H   0  0  0  0  0  0
  -25.7796  -23.0251   19.8446 H   0  0  0  0  0  0
  -25.3690  -24.6594   20.0687 H   0  0  0  0  0  0
  -29.2477  -25.0733   20.9358 H   0  0  0  0  0  0
  -24.2015  -23.9228   24.8804 H   0  0  0  0  0  0
  -23.7808  -23.9591   23.1911 H   0  0  0  0  0  0
  -23.4283  -25.3495   24.1967 H   0  0  0  0  0  0
  -24.4372  -21.3216   22.6424 H   0  0  0  0  0  0
  -24.9874  -21.3463   20.9821 H   0  0  0  0  0  0
  -27.3136  -22.2262   22.0050 H   0  0  0  0  0  0
  -26.3994  -22.4776   23.4546 H   0  0  0  0  0  0
  -30.0280  -14.4691   22.4852 H   0  0  0  0  0  0
  -24.8682  -23.7196   21.9447 H   0  0  0  0  0  0
  1 25  1  0  0  0
  1 30  2  0  0  0
  1 90  1  0  0  0
  2  3  1  0  0  0
  2 25  1  0  0  0
  2 92  1  0  0  0
  2 93  1  0  0  0
  3  4  1  0  0  0
  3 94  1  0  0  0
  3 95  1  0  0  0
  4  5  1  0  0  0
  4 96  1  0  0  0
  4 97  1  0  0  0
  5  6  1  0  0  0
  5 26  1  0  0  0
  5 98  1  0  0  0
  6 25  1  0  0  0
  6 99  1  0  0  0
  6100  1  0  0  0
  7  8  2  0  0  0
  7 26  1  0  0  0
  7 29  1  0  0  0
  8  9  1  0  0  0
  8 22  1  0  0  0
  9 10  1  0  0  0
  9 27  2  0  0  0
 10 11  2  0  0  0
 10 15  1  0  0  0
 11 12  1  0  0  0
 11101  1  0  0  0
 12 13  2  0  0  0
 12102  1  0  0  0
 13 14  1  0  0  0
 13 31  1  0  0  0
 14 15  2  0  0  0
 14103  1  0  0  0
 15104  1  0  0  0
 16 17  2  0  0  0
 16 21  1  0  0  0
 16 31  1  0  0  0
 17 18  1  0  0  0
 17105  1  0  0  0
 18 19  2  0  0  0
 18106  1  0  0  0
 19 20  1  0  0  0
 19 24  1  0  0  0
 20 21  2  0  0  0
 20107  1  0  0  0
 21 23  1  0  0  0
 22 28  1  0  0  0
 22 32  2  0  0  0
 26 27  1  0  0  0
 28108  1  0  0  0
 28109  1  0  0  0
 29110  1  0  0  0
 29111  1  0  0  0
 33 34  1  0  0  0
 33 66  1  0  0  0
 33 70  2  0  0  0
 34 36  1  0  0  0
 34 59  1  0  0  0
 34112  1  0  0  0
 35 44  2  0  0  0
 35 45  1  0  0  0
 35 68  1  0  0  0
 36 56  1  0  0  0
 36113  1  0  0  0
 37 39  1  0  0  0
 37 47  1  0  0  0
 37 66  1  0  0  0
 37114  1  0  0  0
 38 43  2  0  0  0
 38 46  1  0  0  0
 38 47  1  0  0  0
 39 64  1  0  0  0
 39 67  2  0  0  0
 40 52  1  0  0  0
 40 53  2  0  0  0
 40 58  1  0  0  0
 41115  1  0  0  0
 41116  1  0  0  0
 41117  1  0  0  0
 41 48  1  0  0  0
 42 43  1  0  0  0
 42 66  1  0  0  0
 42118  1  0  0  0
 42119  1  0  0  0
 43 44  1  0  0  0
 44120  1  0  0  0
 45 46  2  0  0  0
 45121  1  0  0  0
 46122  1  0  0  0
 47123  1  0  0  0
 47124  1  0  0  0
 48 56  1  0  0  0
 48 65  1  0  0  0
 48125  1  0  0  0
 49 50  1  0  0  0
 49 53  1  0  0  0
 49 64  1  0  0  0
 49126  1  0  0  0
 50 51  1  0  0  0
 50127  1  0  0  0
 50128  1  0  0  0
 51 52  1  0  0  0
 51129  1  0  0  0
 51130  1  0  0  0
 52131  1  0  0  0
 52132  1  0  0  0
 53 54  1  0  0  0
 54 55  2  0  0  0
 54133  1  0  0  0
 55 57  1  0  0  0
 55134  1  0  0  0
 56 69  2  0  0  0
 57 58  2  0  0  0
 57135  1  0  0  0
 58136  1  0  0  0
 59 60  1  0  0  0
 59 61  1  0  0  0
 59 62  1  0  0  0
 60137  1  0  0  0
 60138  1  0  0  0
 60139  1  0  0  0
 61140  1  0  0  0
 61141  1  0  0  0
 61142  1  0  0  0
 62143  1  0  0  0
 62144  1  0  0  0
 62145  1  0  0  0
 63 65  1  0  0  0
 63146  1  0  0  0
 63147  1  0  0  0
 63148  1  0  0  0
 64149  1  0  0  0
 65150  1  0  0  0
 68 86  1  0  0  0
 71 73  2  0  0  0
 71 75  1  0  0  0
 71151  1  0  0  0
 72 74  1  0  0  0
 72 75  2  0  0  0
 72152  1  0  0  0
 73 76  1  0  0  0
 73153  1  0  0  0
 74 76  2  0  0  0
 74154  1  0  0  0
 75 79  1  0  0  0
 76 90  1  0  0  0
 77 82  2  0  0  0
 77 83  1  0  0  0
 77 91  1  0  0  0
 78 80  2  0  0  0
 78155  1  0  0  0
 78156  1  0  0  0
 79 81  2  0  0  0
 79157  1  0  0  0
 80 82  1  0  0  0
 80158  1  0  0  0
 81 88  1  0  0  0
 81159  1  0  0  0
 82 87  1  0  0  0
 83 86  1  0  0  0
 83160  1  0  0  0
 83161  1  0  0  0
 84 85  1  0  0  0
 84 86  1  0  0  0
 84162  1  0  0  0
 84163  1  0  0  0
 85 91  1  0  0  0
 85164  1  0  0  0
 85165  1  0  0  0
 86166  1  0  0  0
 87167  1  0  0  0
 87168  1  0  0  0
 87169  1  0  0  0
 88 89  1  0  0  0
 88170  1  0  0  0
 88171  1  0  0  0
 89172  1  0  0  0
 89173  1  0  0  0
 89 91  1  0  0  0
 90174  1  0  0  0
 91175  1  0  0  0
M  CHG  1  91   1
M  ISO  4   1 100  68 101  86 101  90 100
M  END
> <chiral flag>
0

> <version>
0

> <s_m_source_file>
/data/baiqing/PycharmProjects/Reinvent-master-3.2/result/LINK_invent/BTK/process_docking_weight1_custom_product_contain_oxygen_bond_distance_aromatic_linkinvent_7_9_3/rearranged_h_0054.sdf

> <i_m_source_file_index>
20

> <r_mmod_Potential_Energy-OPLS-2005>
85.6186065673828

> <r_mmod_Stretch_Energy-OPLS-2005>
34.6991996765137

> <r_mmod_Bend_Energy-OPLS-2005>
241.043563842773

> <r_mmod_Torsional_Energy-OPLS-2005>
313.111022949219

> <r_mmod_Improper_Torsional_Energy-OPLS-2005>
7.89847326278687

> <r_mmod_Van_der_Waal_Energy-OPLS-2005>
164.565612792969

> <r_mmod_Electrostatic_Energy-OPLS-2005>
-290.26220703125

> <r_mmod_Solvation_Energy-OPLS-2005>
-420.893585205078

> <b_mmod_Minimization_Converged-OPLS-2005>
0

> <r_mmod_RMS_Derivative-OPLS-2005>
7.61988496780396

$$$$
20
                    3D
 Structure written by MMmdl.
158166  0  0  1  0            999 V2000
  -30.6742  -14.5781   20.4747 C   0  0  0  0  0  0
  -30.4195  -12.3411   19.4671 C   0  0  0  0  0  0
  -29.5044  -12.4824   18.2322 C   0  0  0  0  0  0
  -28.0281  -12.3320   18.6448 C   0  0  0  0  0  0
  -27.6518  -13.2170   19.8632 C   0  0  2  0  0  0
  -28.6916  -13.0912   20.9993 C   0  0  0  0  0  0
  -25.2552  -13.8184   20.5692 C   0  0  0  0  0  0
  -24.1816  -13.0447   20.9186 C   0  0  0  0  0  0
  -24.6377  -11.6914   20.8736 C   0  0  0  0  0  0
  -23.9046  -10.4298   21.0402 C   0  0  0  0  0  0
  -24.3602   -9.4211   21.9177 C   0  0  0  0  0  0
  -23.6272   -8.2252   22.0753 C   0  0  0  0  0  0
  -22.4258   -8.0288   21.3541 C   0  0  0  0  0  0
  -21.9890   -9.0263   20.4652 C   0  0  0  0  0  0
  -22.7218  -10.2140   20.3056 C   0  0  0  0  0  0
  -21.6855   -6.0739   22.5281 C   0  0  0  0  0  0
  -21.4019   -6.5639   23.8215 C   0  0  0  0  0  0
  -21.3661   -5.6790   24.9175 C   0  0  0  0  0  0
  -21.6037   -4.3052   24.7225 C   0  0  0  0  0  0
  -21.8813   -3.8147   23.4341 C   0  0  0  0  0  0
  -21.9188   -4.6965   22.3398 C   0  0  0  0  0  0
  -22.7844  -13.5238   21.1859 C   0  0  0  0  0  0
  -22.1660   -4.2150   21.0976 F   0  0  0  0  0  0
  -21.5625   -3.4533   25.7734 F   0  0  0  0  0  0
  -30.0171  -13.3810   20.4340 N   0  0  0  0  0  0
  -26.2970  -12.9360   20.3313 N   0  0  0  0  0  0
  -25.9302  -11.6511   20.5749 N   0  0  0  0  0  0
  -22.0498  -12.8239   22.0433 N   0  0  0  0  0  0
  -25.4273  -15.1904   20.4112 N   0  0  0  0  0  0
  -31.8541  -14.6727   20.1262 O   0  0  0  0  0  0
  -21.6630   -6.8879   21.4239 O   0  0  0  0  0  0
  -22.3527  -14.5540   20.6706 O   0  0  0  0  0  0
  -24.6204  -31.8623   23.2068 C   0  0  0  0  0  0
  -25.9077  -32.4787   23.8370 C   0  0  1  0  0  0
  -27.2332  -27.3748   20.1016 C   0  0  0  0  0  0
  -25.5905  -33.8589   24.2296 N   0  0  0  0  0  0
  -23.4127  -30.4876   21.5467 C   0  0  2  0  0  0
  -24.8617  -28.9517   20.1080 C   0  0  0  0  0  0
  -22.7447  -29.4632   22.4942 C   0  0  0  0  0  0
  -18.0275  -28.1390   22.8491 C   0  0  0  0  0  0
  -24.1488  -36.7294   23.2642 C   0  0  0  0  0  0
  -25.9487  -30.8119   21.3686 C   0  0  0  0  0  0
  -26.0268  -29.4439   20.7100 C   0  0  0  0  0  0
  -27.2152  -28.6631   20.7046 C   0  0  0  0  0  0
  -26.0413  -26.9108   19.5003 C   0  0  0  0  0  0
  -24.8668  -27.6870   19.4983 C   0  0  0  0  0  0
  -23.6258  -29.8249   20.1597 C   0  0  0  0  0  0
  -25.4106  -36.3080   24.0330 C   0  0  1  0  0  0
  -20.5874  -28.3673   23.1301 C   0  0  2  0  0  0
  -20.6761  -26.9398   22.5415 C   0  0  0  0  0  0
  -19.5736  -26.6387   21.5212 C   0  0  0  0  0  0
  -18.1919  -26.7932   22.1630 C   0  0  0  0  0  0
  -19.1533  -28.8845   23.2896 C   0  0  0  0  0  0
  -18.9458  -30.1452   23.8906 C   0  0  0  0  0  0
  -17.6460  -30.6590   24.0568 C   0  0  0  0  0  0
  -25.9041  -34.9451   23.5109 C   0  0  0  0  0  0
  -16.5348  -29.9097   23.6329 C   0  0  0  0  0  0
  -16.7265  -28.6516   23.0341 C   0  0  0  0  0  0
  -26.4489  -31.6593   25.0724 C   0  0  0  0  0  0
  -25.3750  -31.3716   26.1473 C   0  0  0  0  0  0
  -27.0323  -30.3026   24.6140 C   0  0  0  0  0  0
  -27.6058  -32.4329   25.7476 C   0  0  0  0  0  0
  -27.5571  -37.1797   24.8464 C   0  0  0  0  0  0
  -21.4163  -29.3026   22.3691 N   0  0  0  0  0  0
  -26.4282  -37.3771   23.9409 N   0  0  0  0  0  0
  -24.6793  -31.0683   22.0989 N   0  0  0  0  0  0
  -23.4189  -28.8174   23.3012 O   0  0  0  0  0  0
  -28.3512  -26.5448   20.1629 O   0  0  0  0  0  0
  -26.5610  -34.8909   22.4680 O   0  0  0  0  0  0
  -23.5385  -32.1390   23.7439 O   0  0  0  0  0  0
  -30.8547  -18.3931   18.2395 C   0  0  0  0  0  0
  -30.3932  -19.5635   18.8655 C   0  0  0  0  0  0
  -30.7073  -17.1404   18.8588 C   0  0  0  0  0  0
  -29.6134  -18.2195   20.7466 C   0  0  0  0  0  0
  -29.7550  -19.5118   20.1281 C   0  0  0  0  0  0
  -30.1009  -17.0156   20.1335 C   0  0  0  0  0  0
  -28.5703  -25.6459   19.1299 C   0  0  0  0  0  0
  -29.2653  -20.8092   20.7855 C   0  0  0  0  0  0
  -28.8434  -24.3031   19.1705 C   0  0  0  0  0  0
  -29.0451  -23.5976   17.8343 C   0  0  0  0  0  0
  -30.0036  -23.9343   21.4116 C   0  0  0  0  0  0
  -28.9768  -23.3695   20.4139 C   0  0  2  0  0  0
  -29.9319  -15.6962   20.7290 N   0  0  0  0  0  0
  -29.3315  -21.9578   20.0592 N   0  0  0  0  0  0
  -28.8252  -20.7914   21.9372 O   0  0  0  0  0  0
  -31.4675  -12.4211   19.1715 H   0  0  0  0  0  0
  -30.3146  -11.3505   19.9152 H   0  0  0  0  0  0
  -29.7611  -11.7332   17.4816 H   0  0  0  0  0  0
  -29.6630  -13.4550   17.7640 H   0  0  0  0  0  0
  -27.8657  -11.2818   18.8912 H   0  0  0  0  0  0
  -27.3728  -12.5510   17.8016 H   0  0  0  0  0  0
  -27.6679  -14.2477   19.5096 H   0  0  0  0  0  0
  -28.6774  -12.0870   21.4257 H   0  0  0  0  0  0
  -28.4513  -13.7702   21.8198 H   0  0  0  0  0  0
  -25.2756   -9.5675   22.4736 H   0  0  0  0  0  0
  -23.9990   -7.4635   22.7456 H   0  0  0  0  0  0
  -21.0835   -8.8769   19.8950 H   0  0  0  0  0  0
  -22.3677  -10.9673   19.6162 H   0  0  0  0  0  0
  -21.2022   -7.6151   23.9714 H   0  0  0  0  0  0
  -21.1490   -6.0527   25.9075 H   0  0  0  0  0  0
  -22.0588   -2.7608   23.2843 H   0  0  0  0  0  0
  -22.4123  -11.9906   22.4829 H   0  0  0  0  0  0
  -21.1114  -13.1263   22.2641 H   0  0  0  0  0  0
  -24.6608  -15.8455   20.5212 H   0  0  0  0  0  0
  -26.2751  -15.6295   20.0747 H   0  0  0  0  0  0
  -26.7150  -32.5484   23.1129 H   0  0  0  0  0  0
  -25.0011  -33.9736   25.0411 H   0  0  0  0  0  0
  -22.7042  -31.3068   21.4086 H   0  0  0  0  0  0
  -23.3737  -35.9643   23.3318 H   0  0  0  0  0  0
  -24.3573  -36.8905   22.2053 H   0  0  0  0  0  0
  -23.7266  -37.6510   23.6661 H   0  0  0  0  0  0
  -26.0716  -31.5808   20.6043 H   0  0  0  0  0  0
  -26.8308  -30.8612   21.9948 H   0  0  0  0  0  0
  -28.1105  -29.0344   21.1842 H   0  0  0  0  0  0
  -25.9988  -25.9275   19.0532 H   0  0  0  0  0  0
  -23.9691  -27.2988   19.0373 H   0  0  0  0  0  0
  -23.7383  -30.6044   19.4051 H   0  0  0  0  0  0
  -22.7480  -29.2505   19.8585 H   0  0  0  0  0  0
  -25.1298  -36.1925   25.0823 H   0  0  0  0  0  0
  -20.9969  -28.3236   24.1418 H   0  0  0  0  0  0
  -20.5651  -26.2270   23.3603 H   0  0  0  0  0  0
  -21.6634  -26.7417   22.1213 H   0  0  0  0  0  0
  -19.6891  -25.6303   21.1226 H   0  0  0  0  0  0
  -19.6686  -27.3209   20.6753 H   0  0  0  0  0  0
  -17.4183  -26.6669   21.4042 H   0  0  0  0  0  0
  -18.0333  -26.0081   22.9035 H   0  0  0  0  0  0
  -19.7931  -30.7275   24.2273 H   0  0  0  0  0  0
  -17.5009  -31.6271   24.5178 H   0  0  0  0  0  0
  -15.5351  -30.3002   23.7651 H   0  0  0  0  0  0
  -15.8661  -28.0850   22.7031 H   0  0  0  0  0  0
  -24.5914  -30.7070   25.7821 H   0  0  0  0  0  0
  -24.8945  -32.2873   26.4929 H   0  0  0  0  0  0
  -25.8096  -30.8880   27.0229 H   0  0  0  0  0  0
  -26.2872  -29.6779   24.1192 H   0  0  0  0  0  0
  -27.4077  -29.7284   25.4623 H   0  0  0  0  0  0
  -27.8724  -30.4338   23.9313 H   0  0  0  0  0  0
  -27.2671  -33.3624   26.2066 H   0  0  0  0  0  0
  -28.3841  -32.6900   25.0279 H   0  0  0  0  0  0
  -28.0753  -31.8446   26.5369 H   0  0  0  0  0  0
  -28.2601  -38.0083   24.7487 H   0  0  0  0  0  0
  -28.1051  -36.2609   24.6315 H   0  0  0  0  0  0
  -27.2279  -37.1484   25.8866 H   0  0  0  0  0  0
  -20.9326  -29.8753   21.6916 H   0  0  0  0  0  0
  -26.0159  -38.2842   24.1432 H   0  0  0  0  0  0
  -31.3303  -18.4566   17.2707 H   0  0  0  0  0  0
  -30.5378  -20.5008   18.3484 H   0  0  0  0  0  0
  -31.0638  -16.2728   18.3211 H   0  0  0  0  0  0
  -29.1270  -18.1610   21.7104 H   0  0  0  0  0  0
  -28.5017  -26.1638   18.1829 H   0  0  0  0  0  0
  -28.9110  -24.2773   16.9908 H   0  0  0  0  0  0
  -28.3234  -22.7898   17.7102 H   0  0  0  0  0  0
  -30.0531  -23.1864   17.7619 H   0  0  0  0  0  0
  -29.7460  -24.9498   21.7128 H   0  0  0  0  0  0
  -31.0018  -23.9661   20.9733 H   0  0  0  0  0  0
  -30.0545  -23.3342   22.3204 H   0  0  0  0  0  0
  -27.9983  -23.3472   20.8974 H   0  0  0  0  0  0
  -29.0651  -15.5384   21.2222 H   0  0  0  0  0  0
  -29.6715  -21.8382   19.1165 H   0  0  0  0  0  0
  1 25  1  0  0  0
  1 30  2  0  0  0
  1 83  1  0  0  0
  2  3  1  0  0  0
  2 25  1  0  0  0
  2 86  1  0  0  0
  2 87  1  0  0  0
  3  4  1  0  0  0
  3 88  1  0  0  0
  3 89  1  0  0  0
  4  5  1  0  0  0
  4 90  1  0  0  0
  4 91  1  0  0  0
  5  6  1  0  0  0
  5 26  1  0  0  0
  5 92  1  0  0  0
  6 25  1  0  0  0
  6 93  1  0  0  0
  6 94  1  0  0  0
  7  8  2  0  0  0
  7 26  1  0  0  0
  7 29  1  0  0  0
  8  9  1  0  0  0
  8 22  1  0  0  0
  9 10  1  0  0  0
  9 27  2  0  0  0
 10 11  2  0  0  0
 10 15  1  0  0  0
 11 12  1  0  0  0
 11 95  1  0  0  0
 12 13  2  0  0  0
 12 96  1  0  0  0
 13 14  1  0  0  0
 13 31  1  0  0  0
 14 15  2  0  0  0
 14 97  1  0  0  0
 15 98  1  0  0  0
 16 17  2  0  0  0
 16 21  1  0  0  0
 16 31  1  0  0  0
 17 18  1  0  0  0
 17 99  1  0  0  0
 18 19  2  0  0  0
 18100  1  0  0  0
 19 20  1  0  0  0
 19 24  1  0  0  0
 20 21  2  0  0  0
 20101  1  0  0  0
 21 23  1  0  0  0
 22 28  1  0  0  0
 22 32  2  0  0  0
 26 27  1  0  0  0
 28102  1  0  0  0
 28103  1  0  0  0
 29104  1  0  0  0
 29105  1  0  0  0
 33 34  1  0  0  0
 33 66  1  0  0  0
 33 70  2  0  0  0
 34 36  1  0  0  0
 34 59  1  0  0  0
 34106  1  0  0  0
 35 44  2  0  0  0
 35 45  1  0  0  0
 35 68  1  0  0  0
 36 56  1  0  0  0
 36107  1  0  0  0
 37 39  1  0  0  0
 37 47  1  0  0  0
 37 66  1  0  0  0
 37108  1  0  0  0
 38 43  2  0  0  0
 38 46  1  0  0  0
 38 47  1  0  0  0
 39 64  1  0  0  0
 39 67  2  0  0  0
 40 52  1  0  0  0
 40 53  2  0  0  0
 40 58  1  0  0  0
 41109  1  0  0  0
 41110  1  0  0  0
 41111  1  0  0  0
 41 48  1  0  0  0
 42 43  1  0  0  0
 42 66  1  0  0  0
 42112  1  0  0  0
 42113  1  0  0  0
 43 44  1  0  0  0
 44114  1  0  0  0
 45 46  2  0  0  0
 45115  1  0  0  0
 46116  1  0  0  0
 47117  1  0  0  0
 47118  1  0  0  0
 48 56  1  0  0  0
 48 65  1  0  0  0
 48119  1  0  0  0
 49 50  1  0  0  0
 49 53  1  0  0  0
 49 64  1  0  0  0
 49120  1  0  0  0
 50 51  1  0  0  0
 50121  1  0  0  0
 50122  1  0  0  0
 51 52  1  0  0  0
 51123  1  0  0  0
 51124  1  0  0  0
 52125  1  0  0  0
 52126  1  0  0  0
 53 54  1  0  0  0
 54 55  2  0  0  0
 54127  1  0  0  0
 55 57  1  0  0  0
 55128  1  0  0  0
 56 69  2  0  0  0
 57 58  2  0  0  0
 57129  1  0  0  0
 58130  1  0  0  0
 59 60  1  0  0  0
 59 61  1  0  0  0
 59 62  1  0  0  0
 60131  1  0  0  0
 60132  1  0  0  0
 60133  1  0  0  0
 61134  1  0  0  0
 61135  1  0  0  0
 61136  1  0  0  0
 62137  1  0  0  0
 62138  1  0  0  0
 62139  1  0  0  0
 63 65  1  0  0  0
 63140  1  0  0  0
 63141  1  0  0  0
 63142  1  0  0  0
 64143  1  0  0  0
 65144  1  0  0  0
 68 77  1  0  0  0
 71 72  2  0  0  0
 71 73  1  0  0  0
 71145  1  0  0  0
 72 75  1  0  0  0
 72146  1  0  0  0
 73 76  2  0  0  0
 73147  1  0  0  0
 74 75  2  0  0  0
 74 76  1  0  0  0
 74148  1  0  0  0
 75 78  1  0  0  0
 76 83  1  0  0  0
 77 79  2  0  0  0
 77149  1  0  0  0
 78 84  1  0  0  0
 78 85  2  0  0  0
 79 80  1  0  0  0
 79 82  1  0  0  0
 80150  1  0  0  0
 80151  1  0  0  0
 80152  1  0  0  0
 81153  1  0  0  0
 81154  1  0  0  0
 81155  1  0  0  0
 81 82  1  0  0  0
 82 84  1  0  0  0
 82156  1  0  0  0
 83157  1  0  0  0
 84158  1  0  0  0
M  ISO  4   1 100  68 101  77 101  83 100
M  END
> <chiral flag>
0

> <version>
0

> <s_m_source_file>
/data/baiqing/PycharmProjects/Reinvent-master-3.2/result/LINK_invent/BTK/process_docking_weight1_custom_product_contain_oxygen_bond_distance_aromatic_linkinvent_7_9_3/rearranged_h_0054.sdf

> <i_m_source_file_index>
21

> <r_mmod_Potential_Energy-OPLS-2005>
-45.3748550415039

> <r_mmod_Stretch_Energy-OPLS-2005>
61.959056854248

> <r_mmod_Bend_Energy-OPLS-2005>
119.913330078125

> <r_mmod_Torsional_Energy-OPLS-2005>
236.880935668945

> <r_mmod_Improper_Torsional_Energy-OPLS-2005>
5.05838489532471

> <r_mmod_Van_der_Waal_Energy-OPLS-2005>
157.316375732422

> <r_mmod_Electrostatic_Energy-OPLS-2005>
-442.006042480469

> <r_mmod_Solvation_Energy-OPLS-2005>
-219.043670654297

> <b_mmod_Minimization_Converged-OPLS-2005>
0

> <r_mmod_RMS_Derivative-OPLS-2005>
2.11992144584656

$$$$
21
                    3D
 Structure written by MMmdl.
157166  0  0  1  0            999 V2000
  -30.6025  -14.7881   20.4047 C   0  0  0  0  0  0
  -30.4465  -12.4676   19.4872 C   0  0  0  0  0  0
  -29.5217  -12.4406   18.2494 C   0  0  0  0  0  0
  -28.0414  -12.3161   18.6592 C   0  0  0  0  0  0
  -27.6441  -13.2363   19.8440 C   0  0  2  0  0  0
  -28.6905  -13.1988   20.9796 C   0  0  0  0  0  0
  -25.2543  -13.8206   20.5707 C   0  0  0  0  0  0
  -24.1815  -13.0456   20.9197 C   0  0  0  0  0  0
  -24.6404  -11.6926   20.8745 C   0  0  0  0  0  0
  -23.9074  -10.4296   21.0407 C   0  0  0  0  0  0
  -24.3619   -9.4207   21.9179 C   0  0  0  0  0  0
  -23.6308   -8.2236   22.0737 C   0  0  0  0  0  0
  -22.4292   -8.0278   21.3527 C   0  0  0  0  0  0
  -21.9922   -9.0256   20.4637 C   0  0  0  0  0  0
  -22.7249  -10.2141   20.3055 C   0  0  0  0  0  0
  -21.6855   -6.0743   22.5264 C   0  0  0  0  0  0
  -21.4020   -6.5641   23.8200 C   0  0  0  0  0  0
  -21.3654   -5.6787   24.9156 C   0  0  0  0  0  0
  -21.6042   -4.3049   24.7206 C   0  0  0  0  0  0
  -21.8821   -3.8149   23.4322 C   0  0  0  0  0  0
  -21.9201   -4.6970   22.3384 C   0  0  0  0  0  0
  -22.7838  -13.5242   21.1866 C   0  0  0  0  0  0
  -22.1667   -4.2155   21.0963 F   0  0  0  0  0  0
  -21.5635   -3.4530   25.7715 F   0  0  0  0  0  0
  -29.9863  -13.5529   20.3892 N   0  0  0  0  0  0
  -26.2964  -12.9419   20.3272 N   0  0  0  0  0  0
  -25.9335  -11.6558   20.5750 N   0  0  0  0  0  0
  -22.0486  -12.8218   22.0416 N   0  0  0  0  0  0
  -25.4300  -15.1928   20.4158 N   0  0  0  0  0  0
  -31.8009  -14.8632   20.1224 O   0  0  0  0  0  0
  -21.6642   -6.8885   21.4230 O   0  0  0  0  0  0
  -22.3521  -14.5553   20.6727 O   0  0  0  0  0  0
  -24.6328  -31.8554   23.1999 C   0  0  0  0  0  0
  -25.9142  -32.4761   23.8354 C   0  0  1  0  0  0
  -27.2241  -27.2479   20.1238 C   0  0  0  0  0  0
  -25.5929  -33.8562   24.2272 N   0  0  0  0  0  0
  -23.4313  -30.4799   21.5438 C   0  0  2  0  0  0
  -24.8831  -28.9370   20.1048 C   0  0  0  0  0  0
  -22.7520  -29.4602   22.4899 C   0  0  0  0  0  0
  -18.0295  -28.1392   22.8492 C   0  0  0  0  0  0
  -24.1484  -36.7277   23.2645 C   0  0  0  0  0  0
  -25.9820  -30.7616   21.3889 C   0  0  0  0  0  0
  -26.0547  -29.3851   20.7275 C   0  0  0  0  0  0
  -27.2240  -28.5525   20.7342 C   0  0  0  0  0  0
  -26.0313  -26.8973   19.4405 C   0  0  0  0  0  0
  -24.8798  -27.7016   19.4475 C   0  0  0  0  0  0
  -23.6512  -29.8202   20.1582 C   0  0  0  0  0  0
  -25.4111  -36.3074   24.0337 C   0  0  1  0  0  0
  -20.5905  -28.3703   23.1265 C   0  0  2  0  0  0
  -20.6782  -26.9415   22.5411 C   0  0  0  0  0  0
  -19.5754  -26.6389   21.5218 C   0  0  0  0  0  0
  -18.1934  -26.7937   22.1633 C   0  0  0  0  0  0
  -19.1551  -28.8866   23.2878 C   0  0  0  0  0  0
  -18.9464  -30.1466   23.8893 C   0  0  0  0  0  0
  -17.6461  -30.6592   24.0559 C   0  0  0  0  0  0
  -25.9054  -34.9444   23.5111 C   0  0  0  0  0  0
  -16.5353  -29.9086   23.6336 C   0  0  0  0  0  0
  -16.7279  -28.6507   23.0361 C   0  0  0  0  0  0
  -26.4499  -31.6585   25.0745 C   0  0  0  0  0  0
  -25.3702  -31.3737   26.1447 C   0  0  0  0  0  0
  -27.0351  -30.2996   24.6252 C   0  0  0  0  0  0
  -27.6067  -32.4318   25.7503 C   0  0  0  0  0  0
  -27.5583  -37.1795   24.8464 C   0  0  0  0  0  0
  -21.4221  -29.3046   22.3647 N   0  0  0  0  0  0
  -26.4287  -37.3770   23.9413 N   0  0  0  0  0  0
  -24.7011  -31.0505   22.0994 N   0  0  0  0  0  0
  -23.4215  -28.8140   23.3000 O   0  0  0  0  0  0
  -28.2884  -26.3035   20.2155 O   0  0  0  0  0  0
  -26.5621  -34.8916   22.4676 O   0  0  0  0  0  0
  -23.5471  -32.1388   23.7268 O   0  0  0  0  0  0
  -30.1657  -18.5422   17.7522 C   0  0  0  0  0  0
  -29.9839  -19.7727   18.3981 C   0  0  0  0  0  0
  -29.7258  -23.2859   21.2918 C   0  0  0  0  0  0
  -29.6818  -18.5834   20.4965 C   0  0  0  0  0  0
  -30.0881  -17.3161   18.4440 C   0  0  0  0  0  0
  -28.7869  -23.5472   20.2413 C   0  0  0  0  0  0
  -29.6857  -19.8592   19.7713 C   0  0  0  0  0  0
  -29.9124  -17.2765   19.8609 C   0  0  0  0  0  0
  -30.0919  -21.9498   21.2755 C   0  0  0  0  0  0
  -28.6505  -22.2771   19.6618 C   0  0  0  0  0  0
  -30.1016  -16.0657   17.5817 C   0  0  0  0  0  0
  -27.9720  -24.8723   19.8492 C   0  0  0  0  0  0
  -29.4540  -21.2543   20.2506 N   0  0  0  0  0  0
  -29.8250  -15.9422   20.5450 N   0  0  0  0  0  0
  -30.9816  -21.3089   22.0843 O   0  0  0  0  0  0
  -27.8431  -21.9462   18.6133 O   0  0  0  0  0  0
  -31.4824  -12.6049   19.1725 H   0  0  0  0  0  0
  -30.4204  -11.5086   20.0051 H   0  0  0  0  0  0
  -29.7896  -11.5988   17.6083 H   0  0  0  0  0  0
  -29.6740  -13.3276   17.6407 H   0  0  0  0  0  0
  -27.8754  -11.2750   18.9384 H   0  0  0  0  0  0
  -27.3956  -12.5043   17.8011 H   0  0  0  0  0  0
  -27.6306  -14.2511   19.4426 H   0  0  0  0  0  0
  -28.7355  -12.2095   21.4384 H   0  0  0  0  0  0
  -28.4259  -13.8961   21.7758 H   0  0  0  0  0  0
  -25.2751   -9.5689   22.4772 H   0  0  0  0  0  0
  -24.0013   -7.4626   22.7462 H   0  0  0  0  0  0
  -21.0844   -8.8790   19.8953 H   0  0  0  0  0  0
  -22.3701  -10.9688   19.6183 H   0  0  0  0  0  0
  -21.2014   -7.6150   23.9699 H   0  0  0  0  0  0
  -21.1482   -6.0513   25.9059 H   0  0  0  0  0  0
  -22.0616   -2.7617   23.2796 H   0  0  0  0  0  0
  -22.4103  -11.9858   22.4752 H   0  0  0  0  0  0
  -21.1119  -13.1250   22.2666 H   0  0  0  0  0  0
  -24.6747  -15.8564   20.5433 H   0  0  0  0  0  0
  -26.2883  -15.6265   20.0998 H   0  0  0  0  0  0
  -26.7209  -32.5409   23.1098 H   0  0  0  0  0  0
  -25.0071  -33.9695   25.0414 H   0  0  0  0  0  0
  -22.7288  -31.3034   21.3991 H   0  0  0  0  0  0
  -23.3757  -35.9598   23.3294 H   0  0  0  0  0  0
  -24.3587  -36.8905   22.2066 H   0  0  0  0  0  0
  -23.7220  -37.6470   23.6666 H   0  0  0  0  0  0
  -26.1280  -31.5227   20.6206 H   0  0  0  0  0  0
  -26.8572  -30.8074   22.0260 H   0  0  0  0  0  0
  -28.1102  -28.8875   21.2558 H   0  0  0  0  0  0
  -25.9398  -25.9710   18.8949 H   0  0  0  0  0  0
  -23.9919  -27.3618   18.9320 H   0  0  0  0  0  0
  -23.7667  -30.5977   19.4022 H   0  0  0  0  0  0
  -22.7720  -29.2476   19.8571 H   0  0  0  0  0  0
  -25.1291  -36.1933   25.0830 H   0  0  0  0  0  0
  -21.0008  -28.3283   24.1384 H   0  0  0  0  0  0
  -20.5690  -26.2312   23.3621 H   0  0  0  0  0  0
  -21.6647  -26.7439   22.1201 H   0  0  0  0  0  0
  -19.6910  -25.6297   21.1259 H   0  0  0  0  0  0
  -19.6694  -27.3195   20.6746 H   0  0  0  0  0  0
  -17.4208  -26.6695   21.4030 H   0  0  0  0  0  0
  -18.0317  -26.0085   22.9034 H   0  0  0  0  0  0
  -19.7935  -30.7286   24.2266 H   0  0  0  0  0  0
  -17.5010  -31.6273   24.5160 H   0  0  0  0  0  0
  -15.5350  -30.2981   23.7657 H   0  0  0  0  0  0
  -15.8686  -28.0817   22.7079 H   0  0  0  0  0  0
  -24.5898  -30.7064   25.7761 H   0  0  0  0  0  0
  -24.8859  -32.2902   26.4831 H   0  0  0  0  0  0
  -25.8005  -30.8943   27.0248 H   0  0  0  0  0  0
  -26.2948  -29.6740   24.1251 H   0  0  0  0  0  0
  -27.3989  -29.7265   25.4792 H   0  0  0  0  0  0
  -27.8846  -30.4255   23.9534 H   0  0  0  0  0  0
  -27.2700  -33.3637   26.2052 H   0  0  0  0  0  0
  -28.3883  -32.6841   25.0324 H   0  0  0  0  0  0
  -28.0720  -31.8452   26.5434 H   0  0  0  0  0  0
  -28.2591  -38.0103   24.7521 H   0  0  0  0  0  0
  -28.1089  -36.2633   24.6269 H   0  0  0  0  0  0
  -27.2306  -37.1415   25.8869 H   0  0  0  0  0  0
  -20.9409  -29.8763   21.6842 H   0  0  0  0  0  0
  -26.0173  -38.2847   24.1407 H   0  0  0  0  0  0
  -30.3286  -18.5499   16.6840 H   0  0  0  0  0  0
  -30.0381  -20.6753   17.8070 H   0  0  0  0  0  0
  -30.0957  -24.0176   21.9975 H   0  0  0  0  0  0
  -29.4859  -18.6126   21.5584 H   0  0  0  0  0  0
  -30.0588  -16.3039   16.5183 H   0  0  0  0  0  0
  -29.2205  -15.4659   17.8035 H   0  0  0  0  0  0
  -31.0016  -15.4745   17.7389 H   0  0  0  0  0  0
  -26.9817  -24.6393   20.2423 H   0  0  0  0  0  0
  -27.8953  -24.8508   18.7618 H   0  0  0  0  0  0
  -28.9398  -15.7755   20.9984 H   0  0  0  0  0  0
  -31.3216  -21.9436   22.7088 H   0  0  0  0  0  0
  -27.4025  -22.7338   18.3134 H   0  0  0  0  0  0
  1 25  1  0  0  0
  1 30  2  0  0  0
  1 84  1  0  0  0
  2  3  1  0  0  0
  2 25  1  0  0  0
  2 87  1  0  0  0
  2 88  1  0  0  0
  3  4  1  0  0  0
  3 89  1  0  0  0
  3 90  1  0  0  0
  4  5  1  0  0  0
  4 91  1  0  0  0
  4 92  1  0  0  0
  5  6  1  0  0  0
  5 26  1  0  0  0
  5 93  1  0  0  0
  6 25  1  0  0  0
  6 94  1  0  0  0
  6 95  1  0  0  0
  7  8  2  0  0  0
  7 26  1  0  0  0
  7 29  1  0  0  0
  8  9  1  0  0  0
  8 22  1  0  0  0
  9 10  1  0  0  0
  9 27  2  0  0  0
 10 11  2  0  0  0
 10 15  1  0  0  0
 11 12  1  0  0  0
 11 96  1  0  0  0
 12 13  2  0  0  0
 12 97  1  0  0  0
 13 14  1  0  0  0
 13 31  1  0  0  0
 14 15  2  0  0  0
 14 98  1  0  0  0
 15 99  1  0  0  0
 16 17  2  0  0  0
 16 21  1  0  0  0
 16 31  1  0  0  0
 17 18  1  0  0  0
 17100  1  0  0  0
 18 19  2  0  0  0
 18101  1  0  0  0
 19 20  1  0  0  0
 19 24  1  0  0  0
 20 21  2  0  0  0
 20102  1  0  0  0
 21 23  1  0  0  0
 22 28  1  0  0  0
 22 32  2  0  0  0
 26 27  1  0  0  0
 28103  1  0  0  0
 28104  1  0  0  0
 29105  1  0  0  0
 29106  1  0  0  0
 33 34  1  0  0  0
 33 66  1  0  0  0
 33 70  2  0  0  0
 34 36  1  0  0  0
 34 59  1  0  0  0
 34107  1  0  0  0
 35 44  2  0  0  0
 35 45  1  0  0  0
 35 68  1  0  0  0
 36 56  1  0  0  0
 36108  1  0  0  0
 37 39  1  0  0  0
 37 47  1  0  0  0
 37 66  1  0  0  0
 37109  1  0  0  0
 38 43  2  0  0  0
 38 46  1  0  0  0
 38 47  1  0  0  0
 39 64  1  0  0  0
 39 67  2  0  0  0
 40 52  1  0  0  0
 40 53  2  0  0  0
 40 58  1  0  0  0
 41110  1  0  0  0
 41111  1  0  0  0
 41112  1  0  0  0
 41 48  1  0  0  0
 42 43  1  0  0  0
 42 66  1  0  0  0
 42113  1  0  0  0
 42114  1  0  0  0
 43 44  1  0  0  0
 44115  1  0  0  0
 45 46  2  0  0  0
 45116  1  0  0  0
 46117  1  0  0  0
 47118  1  0  0  0
 47119  1  0  0  0
 48 56  1  0  0  0
 48 65  1  0  0  0
 48120  1  0  0  0
 49 50  1  0  0  0
 49 53  1  0  0  0
 49 64  1  0  0  0
 49121  1  0  0  0
 50 51  1  0  0  0
 50122  1  0  0  0
 50123  1  0  0  0
 51 52  1  0  0  0
 51124  1  0  0  0
 51125  1  0  0  0
 52126  1  0  0  0
 52127  1  0  0  0
 53 54  1  0  0  0
 54 55  2  0  0  0
 54128  1  0  0  0
 55 57  1  0  0  0
 55129  1  0  0  0
 56 69  2  0  0  0
 57 58  2  0  0  0
 57130  1  0  0  0
 58131  1  0  0  0
 59 60  1  0  0  0
 59 61  1  0  0  0
 59 62  1  0  0  0
 60132  1  0  0  0
 60133  1  0  0  0
 60134  1  0  0  0
 61135  1  0  0  0
 61136  1  0  0  0
 61137  1  0  0  0
 62138  1  0  0  0
 62139  1  0  0  0
 62140  1  0  0  0
 63 65  1  0  0  0
 63141  1  0  0  0
 63142  1  0  0  0
 63143  1  0  0  0
 64144  1  0  0  0
 65145  1  0  0  0
 68 82  1  0  0  0
 71 72  2  0  0  0
 71 75  1  0  0  0
 71146  1  0  0  0
 72 77  1  0  0  0
 72147  1  0  0  0
 73 76  1  0  0  0
 73 79  2  0  0  0
 73148  1  0  0  0
 74 77  2  0  0  0
 74 78  1  0  0  0
 74149  1  0  0  0
 75 78  2  0  0  0
 75 81  1  0  0  0
 76 80  2  0  0  0
 76 82  1  0  0  0
 77 83  1  0  0  0
 78 84  1  0  0  0
 79 83  1  0  0  0
 79 85  1  0  0  0
 80 83  1  0  0  0
 80 86  1  0  0  0
 81150  1  0  0  0
 81151  1  0  0  0
 81152  1  0  0  0
 82153  1  0  0  0
 82154  1  0  0  0
 84155  1  0  0  0
 85156  1  0  0  0
 86157  1  0  0  0
M  ISO  4   1 100  68 101  82 101  84 100
M  END
> <chiral flag>
0

> <version>
0

> <s_m_source_file>
/data/baiqing/PycharmProjects/Reinvent-master-3.2/result/LINK_invent/BTK/process_docking_weight1_custom_product_contain_oxygen_bond_distance_aromatic_linkinvent_7_9_3/rearranged_h_0054.sdf

> <i_m_source_file_index>
22

> <r_mmod_Potential_Energy-OPLS-2005>
263.935150146484

> <r_mmod_Stretch_Energy-OPLS-2005>
138.593322753906

> <r_mmod_Bend_Energy-OPLS-2005>
184.003005981445

> <r_mmod_Torsional_Energy-OPLS-2005>
263.932739257812

> <r_mmod_Improper_Torsional_Energy-OPLS-2005>
6.57475519180298

> <r_mmod_Van_der_Waal_Energy-OPLS-2005>
145.012420654297

> <r_mmod_Electrostatic_Energy-OPLS-2005>
-340.925140380859

> <r_mmod_Solvation_Energy-OPLS-2005>
-240.818115234375

> <b_mmod_Minimization_Converged-OPLS-2005>
0

> <r_mmod_RMS_Derivative-OPLS-2005>
2.10915064811707

$$$$
22
                    3D
 Structure written by MMmdl.
165174  0  0  1  0            999 V2000
  -30.6927  -14.4989   20.4673 C   0  0  0  0  0  0
  -30.4100  -12.2952   19.4394 C   0  0  0  0  0  0
  -29.4939  -12.4803   18.2119 C   0  0  0  0  0  0
  -28.0147  -12.3479   18.6234 C   0  0  0  0  0  0
  -27.6529  -13.2122   19.8621 C   0  0  2  0  0  0
  -28.6961  -13.0492   20.9914 C   0  0  0  0  0  0
  -25.2569  -13.8170   20.5694 C   0  0  0  0  0  0
  -24.1830  -13.0441   20.9189 C   0  0  0  0  0  0
  -24.6388  -11.6910   20.8741 C   0  0  0  0  0  0
  -23.9059  -10.4292   21.0403 C   0  0  0  0  0  0
  -24.3613   -9.4210   21.9182 C   0  0  0  0  0  0
  -23.6293   -8.2245   22.0748 C   0  0  0  0  0  0
  -22.4274   -8.0281   21.3543 C   0  0  0  0  0  0
  -21.9910   -9.0252   20.4644 C   0  0  0  0  0  0
  -22.7233  -10.2135   20.3057 C   0  0  0  0  0  0
  -21.6857   -6.0737   22.5282 C   0  0  0  0  0  0
  -21.4014   -6.5640   23.8214 C   0  0  0  0  0  0
  -21.3661   -5.6794   24.9176 C   0  0  0  0  0  0
  -21.6044   -4.3056   24.7226 C   0  0  0  0  0  0
  -21.8819   -3.8149   23.4346 C   0  0  0  0  0  0
  -21.9194   -4.6966   22.3405 C   0  0  0  0  0  0
  -22.7858  -13.5241   21.1860 C   0  0  0  0  0  0
  -22.1664   -4.2153   21.0980 F   0  0  0  0  0  0
  -21.5629   -3.4539   25.7737 F   0  0  0  0  0  0
  -30.0240  -13.3165   20.4247 N   0  0  0  0  0  0
  -26.2984  -12.9344   20.3322 N   0  0  0  0  0  0
  -25.9311  -11.6500   20.5758 N   0  0  0  0  0  0
  -22.0508  -12.8222   22.0410 N   0  0  0  0  0  0
  -25.4298  -15.1889   20.4120 N   0  0  0  0  0  0
  -31.8908  -14.5865   20.1890 O   0  0  0  0  0  0
  -21.6645   -6.8878   21.4240 O   0  0  0  0  0  0
  -22.3544  -14.5553   20.6718 O   0  0  0  0  0  0
  -24.6138  -31.8692   23.2123 C   0  0  0  0  0  0
  -25.9035  -32.4830   23.8412 C   0  0  1  0  0  0
  -27.2277  -27.4321   20.1027 C   0  0  0  0  0  0
  -25.5899  -33.8626   24.2335 N   0  0  0  0  0  0
  -23.4027  -30.4924   21.5520 C   0  0  2  0  0  0
  -24.8501  -28.9575   20.1195 C   0  0  0  0  0  0
  -22.7409  -29.4660   22.4996 C   0  0  0  0  0  0
  -18.0273  -28.1374   22.8488 C   0  0  0  0  0  0
  -24.1494  -36.7316   23.2636 C   0  0  0  0  0  0
  -25.9319  -30.8298   21.3708 C   0  0  0  0  0  0
  -26.0081  -29.4611   20.7267 C   0  0  0  0  0  0
  -27.2011  -28.7005   20.7278 C   0  0  0  0  0  0
  -26.0631  -26.9536   19.4737 C   0  0  0  0  0  0
  -24.8705  -27.6993   19.4939 C   0  0  0  0  0  0
  -23.6128  -29.8249   20.1667 C   0  0  0  0  0  0
  -25.4115  -36.3116   24.0337 C   0  0  1  0  0  0
  -20.5862  -28.3658   23.1324 C   0  0  2  0  0  0
  -20.6769  -26.9394   22.5422 C   0  0  0  0  0  0
  -19.5750  -26.6378   21.5218 C   0  0  0  0  0  0
  -18.1923  -26.7922   22.1619 C   0  0  0  0  0  0
  -19.1520  -28.8831   23.2908 C   0  0  0  0  0  0
  -18.9452  -30.1437   23.8919 C   0  0  0  0  0  0
  -17.6457  -30.6582   24.0564 C   0  0  0  0  0  0
  -25.9038  -34.9478   23.5130 C   0  0  0  0  0  0
  -16.5346  -29.9085   23.6326 C   0  0  0  0  0  0
  -16.7263  -28.6503   23.0346 C   0  0  0  0  0  0
  -26.4464  -31.6604   25.0734 C   0  0  0  0  0  0
  -25.3730  -31.3711   26.1484 C   0  0  0  0  0  0
  -27.0292  -30.3051   24.6093 C   0  0  0  0  0  0
  -27.6051  -32.4317   25.7480 C   0  0  0  0  0  0
  -27.5583  -37.1809   24.8460 C   0  0  0  0  0  0
  -21.4137  -29.3031   22.3733 N   0  0  0  0  0  0
  -26.4301  -37.3797   23.9403 N   0  0  0  0  0  0
  -24.6673  -31.0787   22.1032 N   0  0  0  0  0  0
  -23.4180  -28.8199   23.3036 O   0  0  0  0  0  0
  -28.3656  -26.6613   20.0325 O   0  0  0  0  0  0
  -26.5596  -34.8921   22.4689 O   0  0  0  0  0  0
  -23.5332  -32.1447   23.7511 O   0  0  0  0  0  0
  -31.0345  -18.0580   17.9395 C   0  0  0  0  0  0
  -30.4345  -19.2442   18.3771 C   0  0  0  0  0  0
  -30.8605  -16.8760   18.6711 C   0  0  0  0  0  0
  -29.4936  -18.0672   20.3158 C   0  0  0  0  0  0
  -29.6439  -19.2705   19.5480 C   0  0  0  0  0  0
  -30.1113  -16.8530   19.8760 C   0  0  0  0  0  0
  -27.7029  -20.6753   19.5095 C   0  0  0  0  0  0
  -29.4934  -22.9039   20.8284 C   0  0  0  0  0  0
  -27.2533  -22.0255   18.9459 C   0  0  0  0  0  0
  -29.8786  -21.7261   19.8951 C   0  0  0  0  0  0
  -27.0988  -23.1235   20.0056 C   0  0  0  0  0  0
  -28.6799  -18.0664   21.6029 C   0  0  0  0  0  0
  -28.0127  -24.7316   21.6075 C   0  0  0  0  0  0
  -28.7841  -26.0351   21.2495 C   0  0  0  0  0  0
  -29.0063  -20.5300   19.8426 N   0  0  0  0  0  0
  -28.2974  -23.5535   20.7493 N   0  0  0  0  0  0
  -29.9232  -15.6076   20.5833 N   0  0  0  0  0  0
  -26.8650  -19.7762   19.6264 O   0  0  0  0  0  0
  -30.3485  -23.2583   21.6455 O   0  0  0  0  0  0
  -31.4588  -12.3668   19.1452 H   0  0  0  0  0  0
  -30.2859  -11.2974   19.8631 H   0  0  0  0  0  0
  -29.7348  -11.7428   17.4452 H   0  0  0  0  0  0
  -29.6661  -13.4587   17.7603 H   0  0  0  0  0  0
  -27.8296  -11.2949   18.8387 H   0  0  0  0  0  0
  -27.3653  -12.6026   17.7851 H   0  0  0  0  0  0
  -27.6789  -14.2504   19.5306 H   0  0  0  0  0  0
  -28.6667  -12.0380   21.3995 H   0  0  0  0  0  0
  -28.4756  -13.7178   21.8256 H   0  0  0  0  0  0
  -25.2758   -9.5691   22.4755 H   0  0  0  0  0  0
  -24.0011   -7.4635   22.7460 H   0  0  0  0  0  0
  -21.0848   -8.8764   19.8945 H   0  0  0  0  0  0
  -22.3689  -10.9673   19.6166 H   0  0  0  0  0  0
  -21.2004   -7.6148   23.9720 H   0  0  0  0  0  0
  -21.1483   -6.0523   25.9079 H   0  0  0  0  0  0
  -22.0596   -2.7610   23.2847 H   0  0  0  0  0  0
  -22.4135  -11.9880   22.4784 H   0  0  0  0  0  0
  -21.1122  -13.1229   22.2623 H   0  0  0  0  0  0
  -24.6618  -15.8421   20.5208 H   0  0  0  0  0  0
  -26.2762  -15.6283   20.0741 H   0  0  0  0  0  0
  -26.7103  -32.5548   23.1177 H   0  0  0  0  0  0
  -25.0059  -33.9800   25.0484 H   0  0  0  0  0  0
  -22.6915  -31.3093   21.4119 H   0  0  0  0  0  0
  -23.3756  -35.9649   23.3309 H   0  0  0  0  0  0
  -24.3587  -36.8930   22.2050 H   0  0  0  0  0  0
  -23.7248  -37.6523   23.6648 H   0  0  0  0  0  0
  -26.0451  -31.5903   20.5973 H   0  0  0  0  0  0
  -26.8209  -30.8875   21.9869 H   0  0  0  0  0  0
  -28.0966  -29.0856   21.1946 H   0  0  0  0  0  0
  -26.0765  -26.0042   18.9615 H   0  0  0  0  0  0
  -23.9833  -27.3102   19.0137 H   0  0  0  0  0  0
  -23.7210  -30.5997   19.4066 H   0  0  0  0  0  0
  -22.7378  -29.2442   19.8700 H   0  0  0  0  0  0
  -25.1295  -36.1987   25.0832 H   0  0  0  0  0  0
  -20.9957  -28.3224   24.1446 H   0  0  0  0  0  0
  -20.5692  -26.2261   23.3607 H   0  0  0  0  0  0
  -21.6638  -26.7450   22.1201 H   0  0  0  0  0  0
  -19.6921  -25.6298   21.1231 H   0  0  0  0  0  0
  -19.6699  -27.3204   20.6764 H   0  0  0  0  0  0
  -17.4200  -26.6673   21.4016 H   0  0  0  0  0  0
  -18.0321  -26.0061   22.9011 H   0  0  0  0  0  0
  -19.7927  -30.7242   24.2303 H   0  0  0  0  0  0
  -17.5010  -31.6268   24.5153 H   0  0  0  0  0  0
  -15.5348  -30.2994   23.7642 H   0  0  0  0  0  0
  -15.8660  -28.0830   22.7054 H   0  0  0  0  0  0
  -24.5899  -30.7063   25.7818 H   0  0  0  0  0  0
  -24.8918  -32.2865   26.4936 H   0  0  0  0  0  0
  -25.8076  -30.8870   27.0237 H   0  0  0  0  0  0
  -26.2830  -29.6822   24.1145 H   0  0  0  0  0  0
  -27.4080  -29.7277   25.4536 H   0  0  0  0  0  0
  -27.8660  -30.4384   23.9232 H   0  0  0  0  0  0
  -27.2687  -33.3619   26.2068 H   0  0  0  0  0  0
  -28.3846  -32.6874   25.0289 H   0  0  0  0  0  0
  -28.0731  -31.8431   26.5381 H   0  0  0  0  0  0
  -28.2605  -38.0102   24.7512 H   0  0  0  0  0  0
  -28.1076  -36.2635   24.6285 H   0  0  0  0  0  0
  -27.2291  -37.1464   25.8859 H   0  0  0  0  0  0
  -20.9298  -29.8745   21.6948 H   0  0  0  0  0  0
  -26.0196  -38.2878   24.1403 H   0  0  0  0  0  0
  -31.6134  -18.0492   17.0262 H   0  0  0  0  0  0
  -30.5600  -20.1328   17.7738 H   0  0  0  0  0  0
  -31.3132  -15.9834   18.2660 H   0  0  0  0  0  0
  -26.2878  -21.8770   18.4618 H   0  0  0  0  0  0
  -27.9161  -22.3429   18.1410 H   0  0  0  0  0  0
  -30.8709  -21.3935   20.2026 H   0  0  0  0  0  0
  -30.0226  -22.1310   18.8928 H   0  0  0  0  0  0
  -26.3483  -22.8017   20.7301 H   0  0  0  0  0  0
  -26.6761  -23.9925   19.5070 H   0  0  0  0  0  0
  -28.5664  -19.0679   22.0173 H   0  0  0  0  0  0
  -29.1607  -17.4594   22.3702 H   0  0  0  0  0  0
  -27.6854  -17.6599   21.4183 H   0  0  0  0  0  0
  -26.9444  -24.9520   21.6364 H   0  0  0  0  0  0
  -28.2575  -24.4619   22.6362 H   0  0  0  0  0  0
  -29.8528  -25.8360   21.1747 H   0  0  0  0  0  0
  -28.6807  -26.7415   22.0744 H   0  0  0  0  0  0
  -29.0127  -15.4651   20.9907 H   0  0  0  0  0  0
  1 25  1  0  0  0
  1 30  2  0  0  0
  1 87  1  0  0  0
  2  3  1  0  0  0
  2 25  1  0  0  0
  2 90  1  0  0  0
  2 91  1  0  0  0
  3  4  1  0  0  0
  3 92  1  0  0  0
  3 93  1  0  0  0
  4  5  1  0  0  0
  4 94  1  0  0  0
  4 95  1  0  0  0
  5  6  1  0  0  0
  5 26  1  0  0  0
  5 96  1  0  0  0
  6 25  1  0  0  0
  6 97  1  0  0  0
  6 98  1  0  0  0
  7  8  2  0  0  0
  7 26  1  0  0  0
  7 29  1  0  0  0
  8  9  1  0  0  0
  8 22  1  0  0  0
  9 10  1  0  0  0
  9 27  2  0  0  0
 10 11  2  0  0  0
 10 15  1  0  0  0
 11 12  1  0  0  0
 11 99  1  0  0  0
 12 13  2  0  0  0
 12100  1  0  0  0
 13 14  1  0  0  0
 13 31  1  0  0  0
 14 15  2  0  0  0
 14101  1  0  0  0
 15102  1  0  0  0
 16 17  2  0  0  0
 16 21  1  0  0  0
 16 31  1  0  0  0
 17 18  1  0  0  0
 17103  1  0  0  0
 18 19  2  0  0  0
 18104  1  0  0  0
 19 20  1  0  0  0
 19 24  1  0  0  0
 20 21  2  0  0  0
 20105  1  0  0  0
 21 23  1  0  0  0
 22 28  1  0  0  0
 22 32  2  0  0  0
 26 27  1  0  0  0
 28106  1  0  0  0
 28107  1  0  0  0
 29108  1  0  0  0
 29109  1  0  0  0
 33 34  1  0  0  0
 33 66  1  0  0  0
 33 70  2  0  0  0
 34 36  1  0  0  0
 34 59  1  0  0  0
 34110  1  0  0  0
 35 44  2  0  0  0
 35 45  1  0  0  0
 35 68  1  0  0  0
 36 56  1  0  0  0
 36111  1  0  0  0
 37 39  1  0  0  0
 37 47  1  0  0  0
 37 66  1  0  0  0
 37112  1  0  0  0
 38 43  2  0  0  0
 38 46  1  0  0  0
 38 47  1  0  0  0
 39 64  1  0  0  0
 39 67  2  0  0  0
 40 52  1  0  0  0
 40 53  2  0  0  0
 40 58  1  0  0  0
 41113  1  0  0  0
 41114  1  0  0  0
 41115  1  0  0  0
 41 48  1  0  0  0
 42 43  1  0  0  0
 42 66  1  0  0  0
 42116  1  0  0  0
 42117  1  0  0  0
 43 44  1  0  0  0
 44118  1  0  0  0
 45 46  2  0  0  0
 45119  1  0  0  0
 46120  1  0  0  0
 47121  1  0  0  0
 47122  1  0  0  0
 48 56  1  0  0  0
 48 65  1  0  0  0
 48123  1  0  0  0
 49 50  1  0  0  0
 49 53  1  0  0  0
 49 64  1  0  0  0
 49124  1  0  0  0
 50 51  1  0  0  0
 50125  1  0  0  0
 50126  1  0  0  0
 51 52  1  0  0  0
 51127  1  0  0  0
 51128  1  0  0  0
 52129  1  0  0  0
 52130  1  0  0  0
 53 54  1  0  0  0
 54 55  2  0  0  0
 54131  1  0  0  0
 55 57  1  0  0  0
 55132  1  0  0  0
 56 69  2  0  0  0
 57 58  2  0  0  0
 57133  1  0  0  0
 58134  1  0  0  0
 59 60  1  0  0  0
 59 61  1  0  0  0
 59 62  1  0  0  0
 60135  1  0  0  0
 60136  1  0  0  0
 60137  1  0  0  0
 61138  1  0  0  0
 61139  1  0  0  0
 61140  1  0  0  0
 62141  1  0  0  0
 62142  1  0  0  0
 62143  1  0  0  0
 63 65  1  0  0  0
 63144  1  0  0  0
 63145  1  0  0  0
 63146  1  0  0  0
 64147  1  0  0  0
 65148  1  0  0  0
 68 84  1  0  0  0
 71 72  2  0  0  0
 71 73  1  0  0  0
 71149  1  0  0  0
 72 75  1  0  0  0
 72150  1  0  0  0
 73 76  2  0  0  0
 73151  1  0  0  0
 74 75  2  0  0  0
 74 76  1  0  0  0
 74 82  1  0  0  0
 75 85  1  0  0  0
 76 87  1  0  0  0
 77 79  1  0  0  0
 77 85  1  0  0  0
 77 88  2  0  0  0
 78 80  1  0  0  0
 78 86  1  0  0  0
 78 89  2  0  0  0
 79 81  1  0  0  0
 79152  1  0  0  0
 79153  1  0  0  0
 80 85  1  0  0  0
 80154  1  0  0  0
 80155  1  0  0  0
 81 86  1  0  0  0
 81156  1  0  0  0
 81157  1  0  0  0
 82158  1  0  0  0
 82159  1  0  0  0
 82160  1  0  0  0
 83 84  1  0  0  0
 83 86  1  0  0  0
 83161  1  0  0  0
 83162  1  0  0  0
 84163  1  0  0  0
 84164  1  0  0  0
 87165  1  0  0  0
M  ISO  4   1 100  68 101  84 101  87 100
M  END
> <chiral flag>
0

> <version>
0

> <s_m_source_file>
/data/baiqing/PycharmProjects/Reinvent-master-3.2/result/LINK_invent/BTK/process_docking_weight1_custom_product_contain_oxygen_bond_distance_aromatic_linkinvent_7_9_3/rearranged_h_0054.sdf

> <i_m_source_file_index>
23

> <r_mmod_Potential_Energy-OPLS-2005>
29.3469371795654

> <r_mmod_Stretch_Energy-OPLS-2005>
49.0455780029297

> <r_mmod_Bend_Energy-OPLS-2005>
124.959030151367

> <r_mmod_Torsional_Energy-OPLS-2005>
335.017791748047

> <r_mmod_Improper_Torsional_Energy-OPLS-2005>
9.02881717681885

> <r_mmod_Van_der_Waal_Energy-OPLS-2005>
170.50732421875

> <r_mmod_Electrostatic_Energy-OPLS-2005>
-442.349426269531

> <r_mmod_Solvation_Energy-OPLS-2005>
-238.070205688477

> <b_mmod_Minimization_Converged-OPLS-2005>
0

> <r_mmod_RMS_Derivative-OPLS-2005>
1.01193344593048

$$$$
23
                    3D
 Structure written by MMmdl.
154162  0  0  1  0            999 V2000
  -30.5244  -14.9833   20.4599 C   0  0  0  0  0  0
  -30.4476  -12.6172   19.5136 C   0  0  0  0  0  0
  -29.5316  -12.5552   18.2647 C   0  0  0  0  0  0
  -28.0596  -12.3326   18.6636 C   0  0  0  0  0  0
  -27.6325  -13.2470   19.8391 C   0  0  2  0  0  0
  -28.6690  -13.2232   20.9754 C   0  0  0  0  0  0
  -25.2479  -13.8210   20.5697 C   0  0  0  0  0  0
  -24.1784  -13.0436   20.9189 C   0  0  0  0  0  0
  -24.6397  -11.6919   20.8715 C   0  0  0  0  0  0
  -23.9079  -10.4292   21.0391 C   0  0  0  0  0  0
  -24.3628   -9.4212   21.9175 C   0  0  0  0  0  0
  -23.6299   -8.2249   22.0752 C   0  0  0  0  0  0
  -22.4280   -8.0283   21.3544 C   0  0  0  0  0  0
  -21.9915   -9.0255   20.4645 C   0  0  0  0  0  0
  -22.7246  -10.2131   20.3047 C   0  0  0  0  0  0
  -21.6856   -6.0737   22.5280 C   0  0  0  0  0  0
  -21.4016   -6.5640   23.8213 C   0  0  0  0  0  0
  -21.3661   -5.6793   24.9175 C   0  0  0  0  0  0
  -21.6044   -4.3055   24.7225 C   0  0  0  0  0  0
  -21.8819   -3.8147   23.4346 C   0  0  0  0  0  0
  -21.9193   -4.6965   22.3403 C   0  0  0  0  0  0
  -22.7808  -13.5210   21.1870 C   0  0  0  0  0  0
  -22.1661   -4.2150   21.0980 F   0  0  0  0  0  0
  -21.5629   -3.4539   25.7738 F   0  0  0  0  0  0
  -29.9465  -13.7013   20.4193 N   0  0  0  0  0  0
  -26.2892  -12.9434   20.3199 N   0  0  0  0  0  0
  -25.9325  -11.6563   20.5679 N   0  0  0  0  0  0
  -22.0468  -12.8195   22.0432 N   0  0  0  0  0  0
  -25.4187  -15.1941   20.4208 N   0  0  0  0  0  0
  -31.6992  -15.0444   20.0759 O   0  0  0  0  0  0
  -21.6643   -6.8881   21.4243 O   0  0  0  0  0  0
  -22.3482  -14.5516   20.6726 O   0  0  0  0  0  0
  -24.6462  -31.8420   23.1867 C   0  0  0  0  0  0
  -25.9222  -32.4685   23.8265 C   0  0  1  0  0  0
  -27.2153  -27.1075   20.1569 C   0  0  0  0  0  0
  -25.5959  -33.8492   24.2179 N   0  0  0  0  0  0
  -23.4512  -30.4611   21.5332 C   0  0  2  0  0  0
  -24.9009  -28.8830   20.1138 C   0  0  0  0  0  0
  -22.7582  -29.4538   22.4854 C   0  0  0  0  0  0
  -18.0307  -28.1397   22.8476 C   0  0  0  0  0  0
  -24.1492  -36.7250   23.2642 C   0  0  0  0  0  0
  -26.0098  -30.7062   21.3909 C   0  0  0  0  0  0
  -26.0804  -29.3142   20.7342 C   0  0  0  0  0  0
  -27.2392  -28.4442   20.7364 C   0  0  0  0  0  0
  -26.0112  -26.7909   19.4894 C   0  0  0  0  0  0
  -24.8809  -27.6356   19.4749 C   0  0  0  0  0  0
  -23.6798  -29.7894   20.1537 C   0  0  0  0  0  0
  -25.4125  -36.3026   24.0313 C   0  0  1  0  0  0
  -20.5922  -28.3727   23.1228 C   0  0  2  0  0  0
  -20.6790  -26.9427   22.5402 C   0  0  0  0  0  0
  -19.5763  -26.6381   21.5212 C   0  0  0  0  0  0
  -18.1946  -26.7934   22.1624 C   0  0  0  0  0  0
  -19.1565  -28.8881   23.2843 C   0  0  0  0  0  0
  -18.9480  -30.1475   23.8871 C   0  0  0  0  0  0
  -17.6475  -30.6592   24.0558 C   0  0  0  0  0  0
  -25.9078  -34.9402   23.5056 C   0  0  0  0  0  0
  -16.5366  -29.9084   23.6337 C   0  0  0  0  0  0
  -16.7291  -28.6503   23.0358 C   0  0  0  0  0  0
  -26.4532  -31.6563   25.0719 C   0  0  0  0  0  0
  -25.3706  -31.3760   26.1406 C   0  0  0  0  0  0
  -27.0405  -30.2955   24.6325 C   0  0  0  0  0  0
  -27.6053  -32.4337   25.7509 C   0  0  0  0  0  0
  -27.5575  -37.1784   24.8466 C   0  0  0  0  0  0
  -21.4271  -29.3050   22.3601 N   0  0  0  0  0  0
  -26.4287  -37.3741   23.9407 N   0  0  0  0  0  0
  -24.7225  -31.0249   22.0918 N   0  0  0  0  0  0
  -23.4212  -28.8084   23.3014 O   0  0  0  0  0  0
  -28.2615  -26.1039   20.1952 O   0  0  0  0  0  0
  -26.5666  -34.8903   22.4637 O   0  0  0  0  0  0
  -23.5573  -32.1309   23.7069 O   0  0  0  0  0  0
  -28.2923  -17.6394   22.3747 C   0  0  0  0  0  0
  -28.9365  -16.4504   21.9565 C   0  0  0  0  0  0
  -28.4829  -18.8866   21.7389 C   0  0  0  0  0  0
  -29.9927  -17.7407   20.2175 C   0  0  0  0  0  0
  -29.7913  -16.3873   20.8299 C   0  0  0  0  0  0
  -29.3553  -19.0317   20.6438 C   0  0  0  0  0  0
  -28.9878  -23.3387   20.0988 C   0  0  0  0  0  0
  -31.3123  -23.0613   19.0863 C   0  0  0  0  0  0
  -29.6061  -20.5694   20.0622 C   0  0  0  0  0  0
  -27.9441  -24.5748   20.3915 C   0  0  0  0  0  0
  -28.7945  -21.9266   20.3628 N   0  0  0  0  0  0
  -30.1181  -23.7927   19.5231 N   0  3  0  0  0  0
  -31.4791  -12.7840   19.2011 H   0  0  0  0  0  0
  -30.4593  -11.6560   20.0300 H   0  0  0  0  0  0
  -29.8617  -11.7635   17.5910 H   0  0  0  0  0  0
  -29.6193  -13.4884   17.7063 H   0  0  0  0  0  0
  -27.9498  -11.2866   18.9526 H   0  0  0  0  0  0
  -27.4044  -12.4823   17.8048 H   0  0  0  0  0  0
  -27.6092  -14.2619   19.4408 H   0  0  0  0  0  0
  -28.7722  -12.2127   21.3737 H   0  0  0  0  0  0
  -28.3177  -13.8094   21.8134 H   0  0  0  0  0  0
  -25.2774   -9.5690   22.4747 H   0  0  0  0  0  0
  -24.0009   -7.4642   22.7474 H   0  0  0  0  0  0
  -21.0845   -8.8773   19.8953 H   0  0  0  0  0  0
  -22.3702  -10.9668   19.6155 H   0  0  0  0  0  0
  -21.2008   -7.6148   23.9717 H   0  0  0  0  0  0
  -21.1483   -6.0522   25.9078 H   0  0  0  0  0  0
  -22.0597   -2.7609   23.2845 H   0  0  0  0  0  0
  -22.4095  -11.9857   22.4814 H   0  0  0  0  0  0
  -21.1086  -13.1211   22.2647 H   0  0  0  0  0  0
  -24.6620  -15.8541   20.5617 H   0  0  0  0  0  0
  -26.2908  -15.6405   20.1643 H   0  0  0  0  0  0
  -26.7288  -32.5282   23.0992 H   0  0  0  0  0  0
  -25.0079  -33.9603   25.0308 H   0  0  0  0  0  0
  -22.7552  -31.2879   21.3769 H   0  0  0  0  0  0
  -23.3760  -35.9576   23.3290 H   0  0  0  0  0  0
  -24.3575  -36.8899   22.2060 H   0  0  0  0  0  0
  -23.7241  -37.6439   23.6691 H   0  0  0  0  0  0
  -26.1693  -31.4584   20.6171 H   0  0  0  0  0  0
  -26.8786  -30.7573   22.0355 H   0  0  0  0  0  0
  -28.1381  -28.7717   21.2396 H   0  0  0  0  0  0
  -25.9110  -25.8517   18.9687 H   0  0  0  0  0  0
  -23.9845  -27.3042   18.9688 H   0  0  0  0  0  0
  -23.8208  -30.5632   19.3982 H   0  0  0  0  0  0
  -22.7936  -29.2342   19.8411 H   0  0  0  0  0  0
  -25.1315  -36.1850   25.0805 H   0  0  0  0  0  0
  -21.0012  -28.3318   24.1351 H   0  0  0  0  0  0
  -20.5683  -26.2342   23.3625 H   0  0  0  0  0  0
  -21.6656  -26.7429   22.1201 H   0  0  0  0  0  0
  -19.6924  -25.6285   21.1259 H   0  0  0  0  0  0
  -19.6698  -27.3176   20.6730 H   0  0  0  0  0  0
  -17.4213  -26.6676   21.4030 H   0  0  0  0  0  0
  -18.0346  -26.0083   22.9028 H   0  0  0  0  0  0
  -19.7955  -30.7299   24.2228 H   0  0  0  0  0  0
  -17.5028  -31.6270   24.5165 H   0  0  0  0  0  0
  -15.5365  -30.2977   23.7676 H   0  0  0  0  0  0
  -15.8692  -28.0812   22.7088 H   0  0  0  0  0  0
  -24.5895  -30.7098   25.7724 H   0  0  0  0  0  0
  -24.8883  -32.2944   26.4763 H   0  0  0  0  0  0
  -25.7979  -30.8978   27.0228 H   0  0  0  0  0  0
  -26.3034  -29.6668   24.1317 H   0  0  0  0  0  0
  -27.3989  -29.7266   25.4915 H   0  0  0  0  0  0
  -27.8953  -30.4183   23.9671 H   0  0  0  0  0  0
  -27.2639  -33.3660   26.2021 H   0  0  0  0  0  0
  -28.3900  -32.6863   25.0365 H   0  0  0  0  0  0
  -28.0682  -31.8508   26.5482 H   0  0  0  0  0  0
  -28.2584  -38.0088   24.7512 H   0  0  0  0  0  0
  -28.1079  -36.2616   24.6296 H   0  0  0  0  0  0
  -27.2290  -37.1433   25.8868 H   0  0  0  0  0  0
  -20.9488  -29.8764   21.6776 H   0  0  0  0  0  0
  -26.0151  -38.2809   24.1409 H   0  0  0  0  0  0
  -27.6478  -17.5977   23.2424 H   0  0  0  0  0  0
  -28.7870  -15.5865   22.5795 H   0  0  0  0  0  0
  -27.9761  -19.7538   22.1385 H   0  0  0  0  0  0
  -30.6885  -17.7908   19.3913 H   0  0  0  0  0  0
  -32.0134  -23.7454   18.6080 H   0  0  0  0  0  0
  -31.0576  -22.2884   18.3620 H   0  0  0  0  0  0
  -31.8221  -22.6070   19.9353 H   0  0  0  0  0  0
  -29.6212  -20.4697   18.9770 H   0  0  0  0  0  0
  -30.6370  -20.7784   20.3412 H   0  0  0  0  0  0
  -27.6323  -24.4722   21.4311 H   0  0  0  0  0  0
  -27.0567  -24.3231   19.8165 H   0  0  0  0  0  0
  -27.9067  -21.7303   20.8012 H   0  0  0  0  0  0
  -30.1507  -24.7942   19.3794 H   0  0  0  0  0  0
  1 25  1  0  0  0
  1 30  2  0  0  0
  1 75  1  0  0  0
  2  3  1  0  0  0
  2 25  1  0  0  0
  2 83  1  0  0  0
  2 84  1  0  0  0
  3  4  1  0  0  0
  3 85  1  0  0  0
  3 86  1  0  0  0
  4  5  1  0  0  0
  4 87  1  0  0  0
  4 88  1  0  0  0
  5  6  1  0  0  0
  5 26  1  0  0  0
  5 89  1  0  0  0
  6 25  1  0  0  0
  6 90  1  0  0  0
  6 91  1  0  0  0
  7  8  2  0  0  0
  7 26  1  0  0  0
  7 29  1  0  0  0
  8  9  1  0  0  0
  8 22  1  0  0  0
  9 10  1  0  0  0
  9 27  2  0  0  0
 10 11  2  0  0  0
 10 15  1  0  0  0
 11 12  1  0  0  0
 11 92  1  0  0  0
 12 13  2  0  0  0
 12 93  1  0  0  0
 13 14  1  0  0  0
 13 31  1  0  0  0
 14 15  2  0  0  0
 14 94  1  0  0  0
 15 95  1  0  0  0
 16 17  2  0  0  0
 16 21  1  0  0  0
 16 31  1  0  0  0
 17 18  1  0  0  0
 17 96  1  0  0  0
 18 19  2  0  0  0
 18 97  1  0  0  0
 19 20  1  0  0  0
 19 24  1  0  0  0
 20 21  2  0  0  0
 20 98  1  0  0  0
 21 23  1  0  0  0
 22 28  1  0  0  0
 22 32  2  0  0  0
 26 27  1  0  0  0
 28 99  1  0  0  0
 28100  1  0  0  0
 29101  1  0  0  0
 29102  1  0  0  0
 33 34  1  0  0  0
 33 66  1  0  0  0
 33 70  2  0  0  0
 34 36  1  0  0  0
 34 59  1  0  0  0
 34103  1  0  0  0
 35 44  2  0  0  0
 35 45  1  0  0  0
 35 68  1  0  0  0
 36 56  1  0  0  0
 36104  1  0  0  0
 37 39  1  0  0  0
 37 47  1  0  0  0
 37 66  1  0  0  0
 37105  1  0  0  0
 38 43  2  0  0  0
 38 46  1  0  0  0
 38 47  1  0  0  0
 39 64  1  0  0  0
 39 67  2  0  0  0
 40 52  1  0  0  0
 40 53  2  0  0  0
 40 58  1  0  0  0
 41106  1  0  0  0
 41107  1  0  0  0
 41108  1  0  0  0
 41 48  1  0  0  0
 42 43  1  0  0  0
 42 66  1  0  0  0
 42109  1  0  0  0
 42110  1  0  0  0
 43 44  1  0  0  0
 44111  1  0  0  0
 45 46  2  0  0  0
 45112  1  0  0  0
 46113  1  0  0  0
 47114  1  0  0  0
 47115  1  0  0  0
 48 56  1  0  0  0
 48 65  1  0  0  0
 48116  1  0  0  0
 49 50  1  0  0  0
 49 53  1  0  0  0
 49 64  1  0  0  0
 49117  1  0  0  0
 50 51  1  0  0  0
 50118  1  0  0  0
 50119  1  0  0  0
 51 52  1  0  0  0
 51120  1  0  0  0
 51121  1  0  0  0
 52122  1  0  0  0
 52123  1  0  0  0
 53 54  1  0  0  0
 54 55  2  0  0  0
 54124  1  0  0  0
 55 57  1  0  0  0
 55125  1  0  0  0
 56 69  2  0  0  0
 57 58  2  0  0  0
 57126  1  0  0  0
 58127  1  0  0  0
 59 60  1  0  0  0
 59 61  1  0  0  0
 59 62  1  0  0  0
 60128  1  0  0  0
 60129  1  0  0  0
 60130  1  0  0  0
 61131  1  0  0  0
 61132  1  0  0  0
 61133  1  0  0  0
 62134  1  0  0  0
 62135  1  0  0  0
 62136  1  0  0  0
 63 65  1  0  0  0
 63137  1  0  0  0
 63138  1  0  0  0
 63139  1  0  0  0
 64140  1  0  0  0
 65141  1  0  0  0
 68 80  1  0  0  0
 71 72  2  0  0  0
 71 73  1  0  0  0
 71142  1  0  0  0
 72 75  1  0  0  0
 72143  1  0  0  0
 73 76  2  0  0  0
 73144  1  0  0  0
 74 75  2  0  0  0
 74 76  1  0  0  0
 74145  1  0  0  0
 76 79  1  0  0  0
 77 80  1  0  0  0
 77 81  1  0  0  0
 77 82  2  0  0  0
 78 82  1  0  0  0
 78146  1  0  0  0
 78147  1  0  0  0
 78148  1  0  0  0
 79 81  1  0  0  0
 79149  1  0  0  0
 79150  1  0  0  0
 80151  1  0  0  0
 80152  1  0  0  0
 81153  1  0  0  0
 82154  1  0  0  0
M  CHG  1  82   1
M  ISO  4   1 100  68 101  75 100  80 101
M  END
> <chiral flag>
0

> <version>
0

> <s_m_source_file>
/data/baiqing/PycharmProjects/Reinvent-master-3.2/result/LINK_invent/BTK/process_docking_weight1_custom_product_contain_oxygen_bond_distance_aromatic_linkinvent_7_9_3/rearranged_h_0054.sdf

> <i_m_source_file_index>
24

> <r_mmod_Potential_Energy-OPLS-2005>
469.037475585938

> <r_mmod_Stretch_Energy-OPLS-2005>
293.860473632812

> <r_mmod_Bend_Energy-OPLS-2005>
259.481994628906

> <r_mmod_Torsional_Energy-OPLS-2005>
194.740982055664

> <r_mmod_Improper_Torsional_Energy-OPLS-2005>
3.14437365531921

> <r_mmod_Van_der_Waal_Energy-OPLS-2005>
135.756805419922

> <r_mmod_Electrostatic_Energy-OPLS-2005>
-208.696365356445

> <r_mmod_Solvation_Energy-OPLS-2005>
-418.266967773438

> <b_mmod_Minimization_Converged-OPLS-2005>
0

> <r_mmod_RMS_Derivative-OPLS-2005>
0.0931462273001671

$$$$
24
                    3D
 Structure written by MMmdl.
153161  0  0  1  0            999 V2000
  -30.6769  -14.5537   20.5118 C   0  0  0  0  0  0
  -30.4212  -12.3394   19.4490 C   0  0  0  0  0  0
  -29.5009  -12.5025   18.2208 C   0  0  0  0  0  0
  -28.0247  -12.3452   18.6337 C   0  0  0  0  0  0
  -27.6546  -13.2139   19.8659 C   0  0  2  0  0  0
  -28.6965  -13.0614   20.9989 C   0  0  0  0  0  0
  -25.2561  -13.8170   20.5672 C   0  0  0  0  0  0
  -24.1822  -13.0437   20.9172 C   0  0  0  0  0  0
  -24.6387  -11.6908   20.8737 C   0  0  0  0  0  0
  -23.9059  -10.4293   21.0409 C   0  0  0  0  0  0
  -24.3618   -9.4200   21.9171 C   0  0  0  0  0  0
  -23.6292   -8.2236   22.0742 C   0  0  0  0  0  0
  -22.4267   -8.0275   21.3544 C   0  0  0  0  0  0
  -21.9899   -9.0262   20.4664 C   0  0  0  0  0  0
  -22.7231  -10.2136   20.3064 C   0  0  0  0  0  0
  -21.6847   -6.0736   22.5279 C   0  0  0  0  0  0
  -21.4012   -6.5642   23.8212 C   0  0  0  0  0  0
  -21.3661   -5.6794   24.9175 C   0  0  0  0  0  0
  -21.6041   -4.3057   24.7223 C   0  0  0  0  0  0
  -21.8815   -3.8150   23.4346 C   0  0  0  0  0  0
  -21.9193   -4.6968   22.3402 C   0  0  0  0  0  0
  -22.7846  -13.5235   21.1844 C   0  0  0  0  0  0
  -22.1661   -4.2152   21.0977 F   0  0  0  0  0  0
  -21.5632   -3.4536   25.7737 F   0  0  0  0  0  0
  -30.0212  -13.3596   20.4347 N   0  0  0  0  0  0
  -26.2992  -12.9349   20.3337 N   0  0  0  0  0  0
  -25.9315  -11.6506   20.5770 N   0  0  0  0  0  0
  -22.0499  -12.8240   22.0418 N   0  0  0  0  0  0
  -25.4262  -15.1896   20.4081 N   0  0  0  0  0  0
  -31.8368  -14.6911   20.1165 O   0  0  0  0  0  0
  -21.6626   -6.8874   21.4235 O   0  0  0  0  0  0
  -22.3530  -14.5534   20.6681 O   0  0  0  0  0  0
  -24.6198  -31.8647   23.2071 C   0  0  0  0  0  0
  -25.9071  -32.4806   23.8381 C   0  0  1  0  0  0
  -27.2285  -27.3949   20.1011 C   0  0  0  0  0  0
  -25.5917  -33.8603   24.2314 N   0  0  0  0  0  0
  -23.4105  -30.4883   21.5473 C   0  0  2  0  0  0
  -24.8596  -28.9533   20.1066 C   0  0  0  0  0  0
  -22.7441  -29.4649   22.4960 C   0  0  0  0  0  0
  -18.0277  -28.1386   22.8493 C   0  0  0  0  0  0
  -24.1481  -36.7311   23.2638 C   0  0  0  0  0  0
  -25.9430  -30.8188   21.3663 C   0  0  0  0  0  0
  -26.0228  -29.4520   20.7087 C   0  0  0  0  0  0
  -27.2145  -28.6801   20.7044 C   0  0  0  0  0  0
  -26.0528  -26.9252   19.4838 C   0  0  0  0  0  0
  -24.8721  -27.6917   19.4861 C   0  0  0  0  0  0
  -23.6215  -29.8228   20.1609 C   0  0  0  0  0  0
  -25.4103  -36.3101   24.0337 C   0  0  1  0  0  0
  -20.5875  -28.3687   23.1302 C   0  0  2  0  0  0
  -20.6771  -26.9417   22.5415 C   0  0  0  0  0  0
  -19.5747  -26.6392   21.5213 C   0  0  0  0  0  0
  -18.1926  -26.7932   22.1624 C   0  0  0  0  0  0
  -19.1530  -28.8850   23.2898 C   0  0  0  0  0  0
  -18.9454  -30.1454   23.8911 C   0  0  0  0  0  0
  -17.6458  -30.6592   24.0567 C   0  0  0  0  0  0
  -25.9038  -34.9469   23.5125 C   0  0  0  0  0  0
  -16.5348  -29.9095   23.6325 C   0  0  0  0  0  0
  -16.7268  -28.6511   23.0351 C   0  0  0  0  0  0
  -26.4484  -31.6595   25.0721 C   0  0  0  0  0  0
  -25.3754  -31.3715   26.1475 C   0  0  0  0  0  0
  -27.0312  -30.3030   24.6120 C   0  0  0  0  0  0
  -27.6055  -32.4318   25.7488 C   0  0  0  0  0  0
  -27.5575  -37.1809   24.8463 C   0  0  0  0  0  0
  -21.4161  -29.3045   22.3701 N   0  0  0  0  0  0
  -26.4286  -37.3792   23.9414 N   0  0  0  0  0  0
  -24.6764  -31.0715   22.0989 N   0  0  0  0  0  0
  -23.4190  -28.8196   23.3029 O   0  0  0  0  0  0
  -28.3088  -26.5313   20.1716 O   0  0  0  0  0  0
  -26.5593  -34.8931   22.4677 O   0  0  0  0  0  0
  -23.5379  -32.1410   23.7442 O   0  0  0  0  0  0
  -27.3089  -18.9170   22.1053 C   0  0  0  0  0  0
  -28.2542  -17.9144   21.8176 C   0  0  0  0  0  0
  -27.3988  -20.1834   21.4984 C   0  0  0  0  0  0
  -29.4139  -19.4713   20.3365 C   0  0  0  0  0  0
  -29.3134  -18.1657   20.9185 C   0  0  0  0  0  0
  -28.4501  -20.4900   20.6102 C   0  0  0  0  0  0
  -28.1977  -25.6081   21.2020 C   0  0  0  0  0  0
  -28.5714  -24.3001   21.2866 C   0  0  0  0  0  0
  -30.3412  -17.0511   20.5978 C   0  0  0  0  0  0
  -28.3904  -21.7403   19.9493 N   0  0  0  0  0  0
  -29.9297  -15.6402   20.8286 N   0  0  0  0  0  0
  -29.3403  -23.8171   18.7442 O   0  0  0  0  0  0
  -30.6636  -22.7349   20.6435 O   0  0  0  0  0  0
  -29.3821  -23.1869   20.0750 S   0  0  0  0  0  0
  -31.4682  -12.4298   19.1540 H   0  0  0  0  0  0
  -30.3169  -11.3402   19.8758 H   0  0  0  0  0  0
  -29.7564  -11.7690   17.4555 H   0  0  0  0  0  0
  -29.6566  -13.4837   17.7692 H   0  0  0  0  0  0
  -27.8597  -11.2922   18.8645 H   0  0  0  0  0  0
  -27.3690  -12.5786   17.7939 H   0  0  0  0  0  0
  -27.6784  -14.2504   19.5290 H   0  0  0  0  0  0
  -28.6809  -12.0476   21.4034 H   0  0  0  0  0  0
  -28.4561  -13.7182   21.8364 H   0  0  0  0  0  0
  -25.2775   -9.5663   22.4733 H   0  0  0  0  0  0
  -24.0011   -7.4622   22.7453 H   0  0  0  0  0  0
  -21.0826   -8.8795   19.8979 H   0  0  0  0  0  0
  -22.3690  -10.9684   19.6187 H   0  0  0  0  0  0
  -21.1997   -7.6148   23.9713 H   0  0  0  0  0  0
  -21.1490   -6.0526   25.9078 H   0  0  0  0  0  0
  -22.0593   -2.7612   23.2844 H   0  0  0  0  0  0
  -22.4135  -11.9913   22.4817 H   0  0  0  0  0  0
  -21.1117  -13.1252   22.2622 H   0  0  0  0  0  0
  -24.6528  -15.8379   20.5044 H   0  0  0  0  0  0
  -26.2751  -15.6334   20.0819 H   0  0  0  0  0  0
  -26.7146  -32.5511   23.1147 H   0  0  0  0  0  0
  -25.0076  -33.9758   25.0466 H   0  0  0  0  0  0
  -22.7015  -31.3066   21.4076 H   0  0  0  0  0  0
  -23.3738  -35.9650   23.3306 H   0  0  0  0  0  0
  -24.3570  -36.8917   22.2050 H   0  0  0  0  0  0
  -23.7246  -37.6525   23.6646 H   0  0  0  0  0  0
  -26.0599  -31.5853   20.5987 H   0  0  0  0  0  0
  -26.8288  -30.8720   21.9875 H   0  0  0  0  0  0
  -28.1063  -29.0467   21.1931 H   0  0  0  0  0  0
  -26.0455  -25.9453   19.0278 H   0  0  0  0  0  0
  -23.9787  -27.3012   19.0189 H   0  0  0  0  0  0
  -23.7312  -30.5991   19.4030 H   0  0  0  0  0  0
  -22.7443  -29.2457   19.8635 H   0  0  0  0  0  0
  -25.1279  -36.1959   25.0832 H   0  0  0  0  0  0
  -20.9967  -28.3257   24.1425 H   0  0  0  0  0  0
  -20.5670  -26.2297   23.3611 H   0  0  0  0  0  0
  -21.6643  -26.7454   22.1213 H   0  0  0  0  0  0
  -19.6911  -25.6304   21.1242 H   0  0  0  0  0  0
  -19.6686  -27.3202   20.6745 H   0  0  0  0  0  0
  -17.4198  -26.6685   21.4024 H   0  0  0  0  0  0
  -18.0327  -26.0065   22.9011 H   0  0  0  0  0  0
  -19.7932  -30.7267   24.2286 H   0  0  0  0  0  0
  -17.5017  -31.6272   24.5169 H   0  0  0  0  0  0
  -15.5353  -30.3009   23.7643 H   0  0  0  0  0  0
  -15.8666  -28.0841   22.7060 H   0  0  0  0  0  0
  -24.5922  -30.7059   25.7826 H   0  0  0  0  0  0
  -24.8951  -32.2875   26.4929 H   0  0  0  0  0  0
  -25.8115  -30.8890   27.0231 H   0  0  0  0  0  0
  -26.2857  -29.6793   24.1172 H   0  0  0  0  0  0
  -27.4064  -29.7271   25.4590 H   0  0  0  0  0  0
  -27.8706  -30.4332   23.9284 H   0  0  0  0  0  0
  -27.2666  -33.3610   26.2086 H   0  0  0  0  0  0
  -28.3856  -32.6895   25.0310 H   0  0  0  0  0  0
  -28.0735  -31.8433   26.5388 H   0  0  0  0  0  0
  -28.2601  -38.0098   24.7503 H   0  0  0  0  0  0
  -28.1065  -36.2632   24.6290 H   0  0  0  0  0  0
  -27.2297  -37.1465   25.8868 H   0  0  0  0  0  0
  -20.9331  -29.8772   21.6922 H   0  0  0  0  0  0
  -26.0170  -38.2869   24.1419 H   0  0  0  0  0  0
  -26.4952  -18.7086   22.7861 H   0  0  0  0  0  0
  -28.1506  -16.9517   22.2972 H   0  0  0  0  0  0
  -26.6354  -20.9181   21.7141 H   0  0  0  0  0  0
  -30.2153  -19.6771   19.6409 H   0  0  0  0  0  0
  -27.7235  -26.0601   22.0637 H   0  0  0  0  0  0
  -28.3799  -23.7734   22.2091 H   0  0  0  0  0  0
  -31.2410  -17.2465   21.1822 H   0  0  0  0  0  0
  -30.6320  -17.1528   19.5500 H   0  0  0  0  0  0
  -27.4353  -22.0407   19.8098 H   0  0  0  0  0  0
  -28.9774  -15.4766   21.1144 H   0  0  0  0  0  0
  1 25  1  0  0  0
  1 30  2  0  0  0
  1 81  1  0  0  0
  2  3  1  0  0  0
  2 25  1  0  0  0
  2 85  1  0  0  0
  2 86  1  0  0  0
  3  4  1  0  0  0
  3 87  1  0  0  0
  3 88  1  0  0  0
  4  5  1  0  0  0
  4 89  1  0  0  0
  4 90  1  0  0  0
  5  6  1  0  0  0
  5 26  1  0  0  0
  5 91  1  0  0  0
  6 25  1  0  0  0
  6 92  1  0  0  0
  6 93  1  0  0  0
  7  8  2  0  0  0
  7 26  1  0  0  0
  7 29  1  0  0  0
  8  9  1  0  0  0
  8 22  1  0  0  0
  9 10  1  0  0  0
  9 27  2  0  0  0
 10 11  2  0  0  0
 10 15  1  0  0  0
 11 12  1  0  0  0
 11 94  1  0  0  0
 12 13  2  0  0  0
 12 95  1  0  0  0
 13 14  1  0  0  0
 13 31  1  0  0  0
 14 15  2  0  0  0
 14 96  1  0  0  0
 15 97  1  0  0  0
 16 17  2  0  0  0
 16 21  1  0  0  0
 16 31  1  0  0  0
 17 18  1  0  0  0
 17 98  1  0  0  0
 18 19  2  0  0  0
 18 99  1  0  0  0
 19 20  1  0  0  0
 19 24  1  0  0  0
 20 21  2  0  0  0
 20100  1  0  0  0
 21 23  1  0  0  0
 22 28  1  0  0  0
 22 32  2  0  0  0
 26 27  1  0  0  0
 28101  1  0  0  0
 28102  1  0  0  0
 29103  1  0  0  0
 29104  1  0  0  0
 33 34  1  0  0  0
 33 66  1  0  0  0
 33 70  2  0  0  0
 34 36  1  0  0  0
 34 59  1  0  0  0
 34105  1  0  0  0
 35 44  2  0  0  0
 35 45  1  0  0  0
 35 68  1  0  0  0
 36 56  1  0  0  0
 36106  1  0  0  0
 37 39  1  0  0  0
 37 47  1  0  0  0
 37 66  1  0  0  0
 37107  1  0  0  0
 38 43  2  0  0  0
 38 46  1  0  0  0
 38 47  1  0  0  0
 39 64  1  0  0  0
 39 67  2  0  0  0
 40 52  1  0  0  0
 40 53  2  0  0  0
 40 58  1  0  0  0
 41108  1  0  0  0
 41109  1  0  0  0
 41110  1  0  0  0
 41 48  1  0  0  0
 42 43  1  0  0  0
 42 66  1  0  0  0
 42111  1  0  0  0
 42112  1  0  0  0
 43 44  1  0  0  0
 44113  1  0  0  0
 45 46  2  0  0  0
 45114  1  0  0  0
 46115  1  0  0  0
 47116  1  0  0  0
 47117  1  0  0  0
 48 56  1  0  0  0
 48 65  1  0  0  0
 48118  1  0  0  0
 49 50  1  0  0  0
 49 53  1  0  0  0
 49 64  1  0  0  0
 49119  1  0  0  0
 50 51  1  0  0  0
 50120  1  0  0  0
 50121  1  0  0  0
 51 52  1  0  0  0
 51122  1  0  0  0
 51123  1  0  0  0
 52124  1  0  0  0
 52125  1  0  0  0
 53 54  1  0  0  0
 54 55  2  0  0  0
 54126  1  0  0  0
 55 57  1  0  0  0
 55127  1  0  0  0
 56 69  2  0  0  0
 57 58  2  0  0  0
 57128  1  0  0  0
 58129  1  0  0  0
 59 60  1  0  0  0
 59 61  1  0  0  0
 59 62  1  0  0  0
 60130  1  0  0  0
 60131  1  0  0  0
 60132  1  0  0  0
 61133  1  0  0  0
 61134  1  0  0  0
 61135  1  0  0  0
 62136  1  0  0  0
 62137  1  0  0  0
 62138  1  0  0  0
 63 65  1  0  0  0
 63139  1  0  0  0
 63140  1  0  0  0
 63141  1  0  0  0
 64142  1  0  0  0
 65143  1  0  0  0
 68 77  1  0  0  0
 71 72  2  0  0  0
 71 73  1  0  0  0
 71144  1  0  0  0
 72 75  1  0  0  0
 72145  1  0  0  0
 73 76  2  0  0  0
 73146  1  0  0  0
 74 75  2  0  0  0
 74 76  1  0  0  0
 74147  1  0  0  0
 75 79  1  0  0  0
 76 80  1  0  0  0
 77 78  2  0  0  0
 77148  1  0  0  0
 78 84  1  0  0  0
 78149  1  0  0  0
 79 81  1  0  0  0
 79150  1  0  0  0
 79151  1  0  0  0
 80152  1  0  0  0
 80 84  1  0  0  0
 81153  1  0  0  0
 82 84  2  0  0  0
 83 84  2  0  0  0
M  ISO  4   1 100  68 101  77 101  81 100
M  END
> <chiral flag>
0

> <version>
0

> <s_m_source_file>
/data/baiqing/PycharmProjects/Reinvent-master-3.2/result/LINK_invent/BTK/process_docking_weight1_custom_product_contain_oxygen_bond_distance_aromatic_linkinvent_7_9_3/rearranged_h_0054.sdf

> <i_m_source_file_index>
25

> <r_mmod_Potential_Energy-OPLS-2005>
-187.328247070312

> <r_mmod_Stretch_Energy-OPLS-2005>
46.453685760498

> <r_mmod_Bend_Energy-OPLS-2005>
128.06315612793

> <r_mmod_Torsional_Energy-OPLS-2005>
211.126052856445

> <r_mmod_Improper_Torsional_Energy-OPLS-2005>
9.05339431762695

> <r_mmod_Van_der_Waal_Energy-OPLS-2005>
132.688369750977

> <r_mmod_Electrostatic_Energy-OPLS-2005>
-495.105743408203

> <r_mmod_Solvation_Energy-OPLS-2005>
-249.287292480469

> <b_mmod_Minimization_Converged-OPLS-2005>
0

> <r_mmod_RMS_Derivative-OPLS-2005>
1.29624402523041

$$$$
25
                    3D
 Structure written by MMmdl.
166174  0  0  1  0            999 V2000
  -30.6737  -14.6343   20.4578 C   0  0  0  0  0  0
  -30.4104  -12.3739   19.4681 C   0  0  0  0  0  0
  -29.4917  -12.4623   18.2327 C   0  0  0  0  0  0
  -28.0174  -12.3207   18.6506 C   0  0  0  0  0  0
  -27.6399  -13.2270   19.8524 C   0  0  2  0  0  0
  -28.6838  -13.1496   20.9864 C   0  0  0  0  0  0
  -25.2471  -13.8222   20.5663 C   0  0  0  0  0  0
  -24.1748  -13.0487   20.9207 C   0  0  0  0  0  0
  -24.6344  -11.6965   20.8798 C   0  0  0  0  0  0
  -23.9013  -10.4318   21.0451 C   0  0  0  0  0  0
  -24.3570   -9.4227   21.9218 C   0  0  0  0  0  0
  -23.6264   -8.2250   22.0761 C   0  0  0  0  0  0
  -22.4258   -8.0266   21.3545 C   0  0  0  0  0  0
  -21.9883   -9.0235   20.4642 C   0  0  0  0  0  0
  -22.7207  -10.2134   20.3065 C   0  0  0  0  0  0
  -21.6846   -6.0704   22.5274 C   0  0  0  0  0  0
  -21.4018   -6.5624   23.8203 C   0  0  0  0  0  0
  -21.3650   -5.6779   24.9165 C   0  0  0  0  0  0
  -21.6031   -4.3037   24.7232 C   0  0  0  0  0  0
  -21.8826   -3.8121   23.4365 C   0  0  0  0  0  0
  -21.9201   -4.6928   22.3418 C   0  0  0  0  0  0
  -22.7771  -13.5258   21.1872 C   0  0  0  0  0  0
  -22.1657   -4.2101   21.0991 F   0  0  0  0  0  0
  -21.5623   -3.4539   25.7749 F   0  0  0  0  0  0
  -29.9964  -13.4443   20.4022 N   0  0  0  0  0  0
  -26.2915  -12.9424   20.3326 N   0  0  0  0  0  0
  -25.9281  -11.6587   20.5866 N   0  0  0  0  0  0
  -22.0393  -12.8241   22.0416 N   0  0  0  0  0  0
  -25.4292  -15.1935   20.3931 N   0  0  0  0  0  0
  -31.8565  -14.6640   20.1138 O   0  0  0  0  0  0
  -21.6643   -6.8866   21.4234 O   0  0  0  0  0  0
  -22.3463  -14.5583   20.6723 O   0  0  0  0  0  0
  -24.6321  -31.8485   23.1974 C   0  0  0  0  0  0
  -25.9129  -32.4737   23.8297 C   0  0  1  0  0  0
  -27.2057  -27.2796   20.0932 C   0  0  0  0  0  0
  -25.5912  -33.8531   24.2239 N   0  0  0  0  0  0
  -23.4270  -30.4805   21.5375 C   0  0  2  0  0  0
  -24.8726  -28.9466   20.0912 C   0  0  0  0  0  0
  -22.7545  -29.4486   22.4801 C   0  0  0  0  0  0
  -18.0279  -28.1314   22.8461 C   0  0  0  0  0  0
  -24.1503  -36.7253   23.2669 C   0  0  0  0  0  0
  -25.9784  -30.7701   21.3756 C   0  0  0  0  0  0
  -26.0423  -29.3969   20.7151 C   0  0  0  0  0  0
  -27.2142  -28.5718   20.7140 C   0  0  0  0  0  0
  -26.0154  -26.9065   19.4258 C   0  0  0  0  0  0
  -24.8647  -27.7105   19.4366 C   0  0  0  0  0  0
  -23.6420  -29.8334   20.1449 C   0  0  0  0  0  0
  -25.4111  -36.3027   24.0337 C   0  0  1  0  0  0
  -20.5907  -28.3560   23.1285 C   0  0  2  0  0  0
  -20.6748  -26.9257   22.5416 C   0  0  0  0  0  0
  -19.5735  -26.6301   21.5201 C   0  0  0  0  0  0
  -18.1909  -26.7899   22.1599 C   0  0  0  0  0  0
  -19.1544  -28.8763   23.2884 C   0  0  0  0  0  0
  -18.9471  -30.1408   23.8841 C   0  0  0  0  0  0
  -17.6452  -30.6511   24.0545 C   0  0  0  0  0  0
  -25.9016  -34.9414   23.5091 C   0  0  0  0  0  0
  -16.5338  -29.9015   23.6333 C   0  0  0  0  0  0
  -16.7257  -28.6473   23.0281 C   0  0  0  0  0  0
  -26.4508  -31.6586   25.0681 C   0  0  0  0  0  0
  -25.3740  -31.3784   26.1414 C   0  0  0  0  0  0
  -27.0404  -30.3062   24.6119 C   0  0  0  0  0  0
  -27.6053  -32.4315   25.7456 C   0  0  0  0  0  0
  -27.5581  -37.1762   24.8456 C   0  0  0  0  0  0
  -21.4224  -29.2971   22.3699 N   0  0  0  0  0  0
  -26.4266  -37.3733   23.9432 N   0  0  0  0  0  0
  -24.7007  -31.0466   22.0946 N   0  0  0  0  0  0
  -23.4311  -28.7913   23.2762 O   0  0  0  0  0  0
  -28.2881  -26.3734   20.1404 O   0  0  0  0  0  0
  -26.5572  -34.8914   22.4664 O   0  0  0  0  0  0
  -23.5449  -32.1224   23.7323 O   0  0  0  0  0  0
  -32.1993  -18.8722   20.4826 C   0  0  0  0  0  0
  -31.7538  -17.5461   20.5996 C   0  0  0  0  0  0
  -29.4689  -18.3269   20.4878 C   0  0  0  0  0  0
  -31.3038  -19.9506   20.3354 C   0  0  0  0  0  0
  -30.3805  -17.2064   20.5980 C   0  0  0  0  0  0
  -29.9056  -19.6986   20.3160 C   0  0  0  0  0  0
  -29.1540  -23.8842   20.2351 C   0  0  0  0  0  0
  -31.9119  -21.3281   20.1427 C   0  0  0  0  0  0
  -28.9111  -21.0766   24.3814 C   0  0  0  0  0  0
  -26.8549  -21.8911   23.1576 C   0  0  0  0  0  0
  -27.9839  -24.9155   19.9514 C   0  0  0  0  0  0
  -29.1335  -22.4851   22.2568 C   0  0  0  0  0  0
  -28.3042  -21.4178   23.0066 C   0  0  0  0  0  0
  -29.9549  -15.7919   20.6834 N   0  0  0  0  0  0
  -28.8775  -22.5778   20.7980 N   0  0  0  0  0  0
  -30.3177  -24.2135   19.9909 O   0  0  0  0  0  0
  -27.3337  -20.5297   20.2076 O   0  0  0  0  0  0
  -28.9073  -21.3919   18.4521 O   0  0  0  0  0  0
  -28.6664  -21.0490   19.8661 S   0  0  0  0  0  0
  -31.4525  -12.4579   19.1530 H   0  0  0  0  0  0
  -30.3284  -11.3988   19.9509 H   0  0  0  0  0  0
  -29.7510  -11.6780   17.5186 H   0  0  0  0  0  0
  -29.6453  -13.4156   17.7233 H   0  0  0  0  0  0
  -27.8548  -11.2758   18.9215 H   0  0  0  0  0  0
  -27.3622  -12.5189   17.8011 H   0  0  0  0  0  0
  -27.6465  -14.2487   19.4720 H   0  0  0  0  0  0
  -28.6851  -12.1619   21.4500 H   0  0  0  0  0  0
  -28.4444  -13.8636   21.7755 H   0  0  0  0  0  0
  -25.2716   -9.5713   22.4813 H   0  0  0  0  0  0
  -23.9959   -7.4650   22.7504 H   0  0  0  0  0  0
  -21.0821   -8.8767   19.8954 H   0  0  0  0  0  0
  -22.3684  -10.9657   19.6163 H   0  0  0  0  0  0
  -21.1999   -7.6136   23.9699 H   0  0  0  0  0  0
  -21.1455   -6.0507   25.9063 H   0  0  0  0  0  0
  -22.0614   -2.7574   23.2893 H   0  0  0  0  0  0
  -22.3911  -11.9806   22.4722 H   0  0  0  0  0  0
  -21.1046  -13.1337   22.2688 H   0  0  0  0  0  0
  -24.6734  -15.8701   20.4464 H   0  0  0  0  0  0
  -26.2800  -15.5925   20.0149 H   0  0  0  0  0  0
  -26.7182  -32.5360   23.0998 H   0  0  0  0  0  0
  -25.0173  -33.9636   25.0481 H   0  0  0  0  0  0
  -22.7251  -31.3061   21.4041 H   0  0  0  0  0  0
  -23.3775  -35.9572   23.3229 H   0  0  0  0  0  0
  -24.3647  -36.8932   22.2115 H   0  0  0  0  0  0
  -23.7241  -37.6427   23.6721 H   0  0  0  0  0  0
  -26.1125  -31.5324   20.6071 H   0  0  0  0  0  0
  -26.8656  -30.8160   21.9967 H   0  0  0  0  0  0
  -28.1090  -28.9051   21.2214 H   0  0  0  0  0  0
  -25.9299  -25.9758   18.8855 H   0  0  0  0  0  0
  -23.9800  -27.3759   18.9151 H   0  0  0  0  0  0
  -23.7685  -30.6205   19.4015 H   0  0  0  0  0  0
  -22.7634  -29.2664   19.8271 H   0  0  0  0  0  0
  -25.1323  -36.1832   25.0817 H   0  0  0  0  0  0
  -20.9991  -28.3028   24.1397 H   0  0  0  0  0  0
  -20.5588  -26.2085   23.3576 H   0  0  0  0  0  0
  -21.6613  -26.7201   22.1223 H   0  0  0  0  0  0
  -19.6870  -25.6234   21.1164 H   0  0  0  0  0  0
  -19.6738  -27.3202   20.6823 H   0  0  0  0  0  0
  -17.4187  -26.6600   21.3994 H   0  0  0  0  0  0
  -18.0244  -26.0049   22.9006 H   0  0  0  0  0  0
  -19.7941  -30.7245   24.2137 H   0  0  0  0  0  0
  -17.4994  -31.6206   24.5143 H   0  0  0  0  0  0
  -15.5339  -30.2879   23.7740 H   0  0  0  0  0  0
  -15.8643  -28.0846   22.6921 H   0  0  0  0  0  0
  -24.5843  -30.7193   25.7771 H   0  0  0  0  0  0
  -24.9047  -32.3037   26.4817 H   0  0  0  0  0  0
  -25.8050  -30.8964   27.0219 H   0  0  0  0  0  0
  -26.3028  -29.6735   24.1179 H   0  0  0  0  0  0
  -27.4287  -29.7331   25.4550 H   0  0  0  0  0  0
  -27.8768  -30.4472   23.9266 H   0  0  0  0  0  0
  -27.2697  -33.3694   26.1913 H   0  0  0  0  0  0
  -28.3958  -32.6706   25.0328 H   0  0  0  0  0  0
  -28.0592  -31.8480   26.5474 H   0  0  0  0  0  0
  -28.2498  -38.0155   24.7555 H   0  0  0  0  0  0
  -28.1149  -36.2666   24.6161 H   0  0  0  0  0  0
  -27.2284  -37.1246   25.8850 H   0  0  0  0  0  0
  -20.9252  -29.8884   21.7198 H   0  0  0  0  0  0
  -26.0096  -38.2774   24.1499 H   0  0  0  0  0  0
  -33.2652  -19.0490   20.4669 H   0  0  0  0  0  0
  -32.5296  -16.7988   20.6649 H   0  0  0  0  0  0
  -28.4068  -18.1433   20.4878 H   0  0  0  0  0  0
  -32.9472  -21.2505   19.8092 H   0  0  0  0  0  0
  -31.9216  -21.8828   21.0814 H   0  0  0  0  0  0
  -31.3910  -21.9019   19.3788 H   0  0  0  0  0  0
  -28.3395  -20.2865   24.8712 H   0  0  0  0  0  0
  -28.9261  -21.9363   25.0519 H   0  0  0  0  0  0
  -29.9331  -20.7054   24.2961 H   0  0  0  0  0  0
  -26.3022  -21.2689   23.8577 H   0  0  0  0  0  0
  -26.3287  -21.8593   22.2035 H   0  0  0  0  0  0
  -26.8121  -22.9123   23.5343 H   0  0  0  0  0  0
  -27.1244  -24.6373   20.5604 H   0  0  0  0  0  0
  -27.7024  -24.7402   18.9094 H   0  0  0  0  0  0
  -30.1978  -22.3079   22.4141 H   0  0  0  0  0  0
  -28.9357  -23.4577   22.7164 H   0  0  0  0  0  0
  -28.3112  -20.4693   22.4752 H   0  0  0  0  0  0
  -28.9753  -15.6337   20.8559 H   0  0  0  0  0  0
  1 25  1  0  0  0
  1 30  2  0  0  0
  1 84  1  0  0  0
  2  3  1  0  0  0
  2 25  1  0  0  0
  2 90  1  0  0  0
  2 91  1  0  0  0
  3  4  1  0  0  0
  3 92  1  0  0  0
  3 93  1  0  0  0
  4  5  1  0  0  0
  4 94  1  0  0  0
  4 95  1  0  0  0
  5  6  1  0  0  0
  5 26  1  0  0  0
  5 96  1  0  0  0
  6 25  1  0  0  0
  6 97  1  0  0  0
  6 98  1  0  0  0
  7  8  2  0  0  0
  7 26  1  0  0  0
  7 29  1  0  0  0
  8  9  1  0  0  0
  8 22  1  0  0  0
  9 10  1  0  0  0
  9 27  2  0  0  0
 10 11  2  0  0  0
 10 15  1  0  0  0
 11 12  1  0  0  0
 11 99  1  0  0  0
 12 13  2  0  0  0
 12100  1  0  0  0
 13 14  1  0  0  0
 13 31  1  0  0  0
 14 15  2  0  0  0
 14101  1  0  0  0
 15102  1  0  0  0
 16 17  2  0  0  0
 16 21  1  0  0  0
 16 31  1  0  0  0
 17 18  1  0  0  0
 17103  1  0  0  0
 18 19  2  0  0  0
 18104  1  0  0  0
 19 20  1  0  0  0
 19 24  1  0  0  0
 20 21  2  0  0  0
 20105  1  0  0  0
 21 23  1  0  0  0
 22 28  1  0  0  0
 22 32  2  0  0  0
 26 27  1  0  0  0
 28106  1  0  0  0
 28107  1  0  0  0
 29108  1  0  0  0
 29109  1  0  0  0
 33 34  1  0  0  0
 33 66  1  0  0  0
 33 70  2  0  0  0
 34 36  1  0  0  0
 34 59  1  0  0  0
 34110  1  0  0  0
 35 44  2  0  0  0
 35 45  1  0  0  0
 35 68  1  0  0  0
 36 56  1  0  0  0
 36111  1  0  0  0
 37 39  1  0  0  0
 37 47  1  0  0  0
 37 66  1  0  0  0
 37112  1  0  0  0
 38 43  2  0  0  0
 38 46  1  0  0  0
 38 47  1  0  0  0
 39 64  1  0  0  0
 39 67  2  0  0  0
 40 52  1  0  0  0
 40 53  2  0  0  0
 40 58  1  0  0  0
 41113  1  0  0  0
 41114  1  0  0  0
 41115  1  0  0  0
 41 48  1  0  0  0
 42 43  1  0  0  0
 42 66  1  0  0  0
 42116  1  0  0  0
 42117  1  0  0  0
 43 44  1  0  0  0
 44118  1  0  0  0
 45 46  2  0  0  0
 45119  1  0  0  0
 46120  1  0  0  0
 47121  1  0  0  0
 47122  1  0  0  0
 48 56  1  0  0  0
 48 65  1  0  0  0
 48123  1  0  0  0
 49 50  1  0  0  0
 49 53  1  0  0  0
 49 64  1  0  0  0
 49124  1  0  0  0
 50 51  1  0  0  0
 50125  1  0  0  0
 50126  1  0  0  0
 51 52  1  0  0  0
 51127  1  0  0  0
 51128  1  0  0  0
 52129  1  0  0  0
 52130  1  0  0  0
 53 54  1  0  0  0
 54 55  2  0  0  0
 54131  1  0  0  0
 55 57  1  0  0  0
 55132  1  0  0  0
 56 69  2  0  0  0
 57 58  2  0  0  0
 57133  1  0  0  0
 58134  1  0  0  0
 59 60  1  0  0  0
 59 61  1  0  0  0
 59 62  1  0  0  0
 60135  1  0  0  0
 60136  1  0  0  0
 60137  1  0  0  0
 61138  1  0  0  0
 61139  1  0  0  0
 61140  1  0  0  0
 62141  1  0  0  0
 62142  1  0  0  0
 62143  1  0  0  0
 63 65  1  0  0  0
 63144  1  0  0  0
 63145  1  0  0  0
 63146  1  0  0  0
 64147  1  0  0  0
 65148  1  0  0  0
 68 81  1  0  0  0
 71 72  2  0  0  0
 71 74  1  0  0  0
 71149  1  0  0  0
 72 75  1  0  0  0
 72150  1  0  0  0
 73 75  2  0  0  0
 73 76  1  0  0  0
 73151  1  0  0  0
 74 76  2  0  0  0
 74 78  1  0  0  0
 75 84  1  0  0  0
 76 89  1  0  0  0
 77 81  1  0  0  0
 77 85  1  0  0  0
 77 86  2  0  0  0
 78152  1  0  0  0
 78153  1  0  0  0
 78154  1  0  0  0
 79155  1  0  0  0
 79156  1  0  0  0
 79157  1  0  0  0
 79 83  1  0  0  0
 80 83  1  0  0  0
 80158  1  0  0  0
 80159  1  0  0  0
 80160  1  0  0  0
 81161  1  0  0  0
 81162  1  0  0  0
 82 83  1  0  0  0
 82 85  1  0  0  0
 82163  1  0  0  0
 82164  1  0  0  0
 83165  1  0  0  0
 84166  1  0  0  0
 85 89  1  0  0  0
 87 89  2  0  0  0
 88 89  2  0  0  0
M  ISO  4   1 100  68 101  81 101  84 100
M  END
> <chiral flag>
0

> <version>
0

> <s_m_source_file>
/data/baiqing/PycharmProjects/Reinvent-master-3.2/result/LINK_invent/BTK/process_docking_weight1_custom_product_contain_oxygen_bond_distance_aromatic_linkinvent_7_9_3/rearranged_h_0054.sdf

> <i_m_source_file_index>
26

> <r_mmod_Potential_Energy-OPLS-2005>
81.5154724121094

> <r_mmod_Stretch_Energy-OPLS-2005>
106.411209106445

> <r_mmod_Bend_Energy-OPLS-2005>
157.848526000977

> <r_mmod_Torsional_Energy-OPLS-2005>
259.846984863281

> <r_mmod_Improper_Torsional_Energy-OPLS-2005>
6.6135630607605

> <r_mmod_Van_der_Waal_Energy-OPLS-2005>
142.882598876953

> <r_mmod_Electrostatic_Energy-OPLS-2005>
-424.11279296875

> <r_mmod_Solvation_Energy-OPLS-2005>
-233.782730102539

> <b_mmod_Minimization_Converged-OPLS-2005>
0

> <r_mmod_RMS_Derivative-OPLS-2005>
7.70946502685547

$$$$
26
                    3D
 Structure written by MMmdl.
154162  0  0  1  0            999 V2000
  -30.6783  -14.4938   20.5501 C   0  0  0  0  0  0
  -30.4291  -12.3161   19.4369 C   0  0  0  0  0  0
  -29.5009  -12.5155   18.2179 C   0  0  0  0  0  0
  -28.0218  -12.3814   18.6262 C   0  0  0  0  0  0
  -27.6635  -13.2154   19.8824 C   0  0  2  0  0  0
  -28.7041  -13.0135   21.0030 C   0  0  0  0  0  0
  -25.2617  -13.8155   20.5732 C   0  0  0  0  0  0
  -24.1886  -13.0427   20.9216 C   0  0  0  0  0  0
  -24.6456  -11.6897   20.8773 C   0  0  0  0  0  0
  -23.9108  -10.4284   21.0403 C   0  0  0  0  0  0
  -24.3641   -9.4190   21.9182 C   0  0  0  0  0  0
  -23.6311   -8.2227   22.0750 C   0  0  0  0  0  0
  -22.4294   -8.0278   21.3532 C   0  0  0  0  0  0
  -21.9922   -9.0255   20.4645 C   0  0  0  0  0  0
  -22.7260  -10.2136   20.3062 C   0  0  0  0  0  0
  -21.6868   -6.0750   22.5275 C   0  0  0  0  0  0
  -21.4019   -6.5651   23.8206 C   0  0  0  0  0  0
  -21.3659   -5.6801   24.9163 C   0  0  0  0  0  0
  -21.6049   -4.3064   24.7211 C   0  0  0  0  0  0
  -21.8825   -3.8160   23.4330 C   0  0  0  0  0  0
  -21.9200   -4.6980   22.3389 C   0  0  0  0  0  0
  -22.7910  -13.5236   21.1842 C   0  0  0  0  0  0
  -22.1684   -4.2174   21.0967 F   0  0  0  0  0  0
  -21.5613   -3.4532   25.7714 F   0  0  0  0  0  0
  -30.0353  -13.3033   20.4524 N   0  0  0  0  0  0
  -26.3053  -12.9350   20.3406 N   0  0  0  0  0  0
  -25.9387  -11.6512   20.5835 N   0  0  0  0  0  0
  -22.0562  -12.8224   22.0403 N   0  0  0  0  0  0
  -25.4346  -15.1875   20.4147 N   0  0  0  0  0  0
  -31.8191  -14.6712   20.1157 O   0  0  0  0  0  0
  -21.6656   -6.8884   21.4236 O   0  0  0  0  0  0
  -22.3570  -14.5536   20.6699 O   0  0  0  0  0  0
  -24.6184  -31.8692   23.2178 C   0  0  0  0  0  0
  -25.9057  -32.4863   23.8461 C   0  0  1  0  0  0
  -27.2207  -27.4024   20.0934 C   0  0  0  0  0  0
  -25.5926  -33.8677   24.2390 N   0  0  0  0  0  0
  -23.4090  -30.4973   21.5564 C   0  0  2  0  0  0
  -24.8496  -28.9721   20.1184 C   0  0  0  0  0  0
  -22.7419  -29.4641   22.4961 C   0  0  0  0  0  0
  -18.0248  -28.1351   22.8506 C   0  0  0  0  0  0
  -24.1485  -36.7341   23.2638 C   0  0  0  0  0  0
  -25.9459  -30.8239   21.3780 C   0  0  0  0  0  0
  -26.0194  -29.4629   20.7154 C   0  0  0  0  0  0
  -27.2101  -28.6899   20.6941 C   0  0  0  0  0  0
  -26.0269  -26.9510   19.4753 C   0  0  0  0  0  0
  -24.8533  -27.7191   19.4895 C   0  0  0  0  0  0
  -23.6207  -29.8466   20.1672 C   0  0  0  0  0  0
  -25.4100  -36.3157   24.0355 C   0  0  1  0  0  0
  -20.5799  -28.3686   23.1250 C   0  0  2  0  0  0
  -20.6772  -26.9463   22.5269 C   0  0  0  0  0  0
  -19.5660  -26.6261   21.5247 C   0  0  0  0  0  0
  -18.1825  -26.7879   22.1657 C   0  0  0  0  0  0
  -19.1463  -28.8814   23.2891 C   0  0  0  0  0  0
  -18.9363  -30.1391   23.8969 C   0  0  0  0  0  0
  -17.6351  -30.6532   24.0685 C   0  0  0  0  0  0
  -25.9024  -34.9511   23.5146 C   0  0  0  0  0  0
  -16.5267  -29.8985   23.6370 C   0  0  0  0  0  0
  -16.7231  -28.6445   23.0409 C   0  0  0  0  0  0
  -26.4455  -31.6649   25.0792 C   0  0  0  0  0  0
  -25.3743  -31.3714   26.1557 C   0  0  0  0  0  0
  -27.0259  -30.3088   24.6185 C   0  0  0  0  0  0
  -27.6064  -32.4346   25.7532 C   0  0  0  0  0  0
  -27.5595  -37.1842   24.8474 C   0  0  0  0  0  0
  -21.4106  -29.3166   22.3787 N   0  0  0  0  0  0
  -26.4298  -37.3828   23.9437 N   0  0  0  0  0  0
  -24.6775  -31.0761   22.1109 N   0  0  0  0  0  0
  -23.4199  -28.8096   23.2936 O   0  0  0  0  0  0
  -28.3504  -26.5925   20.1483 O   0  0  0  0  0  0
  -26.5581  -34.8934   22.4706 O   0  0  0  0  0  0
  -23.5359  -32.1436   23.7553 O   0  0  0  0  0  0
  -27.2056  -19.1927   22.2303 C   0  0  0  0  0  0
  -28.0154  -18.0477   22.3613 C   0  0  0  0  0  0
  -29.9049  -19.3148   21.4748 C   0  0  0  0  0  0
  -29.1022  -20.4800   21.3432 C   0  0  0  0  0  0
  -27.7359  -20.4001   21.7287 C   0  0  0  0  0  0
  -29.3715  -18.1106   21.9922 C   0  0  0  0  0  0
  -29.2478  -24.2267   20.4192 C   0  0  0  0  0  0
  -29.7557  -21.7647   20.7836 C   0  0  0  0  0  0
  -28.0525  -25.1701   20.1718 C   0  0  0  0  0  0
  -28.9139  -22.9653   20.7633 N   0  0  0  0  0  0
  -29.9189  -15.5852   20.9860 N   0  0  0  0  0  0
  -30.4065  -24.5976   20.2321 O   0  0  0  0  0  0
  -31.8268  -17.0442   21.9946 O   0  0  0  0  0  0
  -30.0591  -16.0241   23.5113 O   0  0  0  0  0  0
  -26.9076  -21.4694   21.6315 F   0  0  0  0  0  0
  -30.4232  -16.6570   22.2341 S   0  0  0  0  0  0
  -31.4741  -12.4221   19.1427 H   0  0  0  0  0  0
  -30.3297  -11.3074   19.8421 H   0  0  0  0  0  0
  -29.7377  -11.7893   17.4388 H   0  0  0  0  0  0
  -29.6686  -13.4995   17.7784 H   0  0  0  0  0  0
  -27.8251  -11.3263   18.8207 H   0  0  0  0  0  0
  -27.3715  -12.6639   17.7954 H   0  0  0  0  0  0
  -27.7003  -14.2641   19.5841 H   0  0  0  0  0  0
  -28.6770  -11.9935   21.3848 H   0  0  0  0  0  0
  -28.4833  -13.6517   21.8620 H   0  0  0  0  0  0
  -25.2776   -9.5678   22.4769 H   0  0  0  0  0  0
  -24.0026   -7.4619   22.7471 H   0  0  0  0  0  0
  -21.0843   -8.8779   19.8962 H   0  0  0  0  0  0
  -22.3690  -10.9689   19.6196 H   0  0  0  0  0  0
  -21.2032   -7.6160   23.9711 H   0  0  0  0  0  0
  -21.1478   -6.0527   25.9061 H   0  0  0  0  0  0
  -22.0614   -2.7626   23.2808 H   0  0  0  0  0  0
  -22.4175  -11.9860   22.4758 H   0  0  0  0  0  0
  -21.1201  -13.1267   22.2684 H   0  0  0  0  0  0
  -24.6669  -15.8424   20.5200 H   0  0  0  0  0  0
  -26.2898  -15.6205   20.0868 H   0  0  0  0  0  0
  -26.7136  -32.5508   23.1213 H   0  0  0  0  0  0
  -25.0120  -33.9840   25.0573 H   0  0  0  0  0  0
  -22.7027  -31.3196   21.4195 H   0  0  0  0  0  0
  -23.3760  -35.9661   23.3291 H   0  0  0  0  0  0
  -24.3584  -36.8941   22.2056 H   0  0  0  0  0  0
  -23.7202  -37.6542   23.6618 H   0  0  0  0  0  0
  -26.0681  -31.5874   20.6094 H   0  0  0  0  0  0
  -26.8335  -30.8671   22.0000 H   0  0  0  0  0  0
  -28.1115  -29.0566   21.1649 H   0  0  0  0  0  0
  -25.9538  -25.9993   18.9777 H   0  0  0  0  0  0
  -23.9601  -27.3420   19.0096 H   0  0  0  0  0  0
  -23.7458  -30.6312   19.4217 H   0  0  0  0  0  0
  -22.7405  -29.2807   19.8575 H   0  0  0  0  0  0
  -25.1265  -36.2056   25.0851 H   0  0  0  0  0  0
  -20.9852  -28.3142   24.1425 H   0  0  0  0  0  0
  -20.5898  -26.2259   23.3414 H   0  0  0  0  0  0
  -21.6605  -26.7682   22.0870 H   0  0  0  0  0  0
  -19.6799  -25.6060   21.1636 H   0  0  0  0  0  0
  -19.6505  -27.2845   20.6559 H   0  0  0  0  0  0
  -17.4105  -26.6440   21.4085 H   0  0  0  0  0  0
  -18.0240  -26.0205   22.9237 H   0  0  0  0  0  0
  -19.7940  -30.7110   24.2239 H   0  0  0  0  0  0
  -17.4792  -31.6139   24.5375 H   0  0  0  0  0  0
  -15.5188  -30.2810   23.7562 H   0  0  0  0  0  0
  -15.8619  -28.0739   22.7116 H   0  0  0  0  0  0
  -24.5954  -30.6995   25.7906 H   0  0  0  0  0  0
  -24.8861  -32.2830   26.5041 H   0  0  0  0  0  0
  -25.8154  -30.8892   27.0310 H   0  0  0  0  0  0
  -26.2785  -29.6896   24.1200 H   0  0  0  0  0  0
  -27.3954  -29.7297   25.4673 H   0  0  0  0  0  0
  -27.8683  -30.4388   23.9381 H   0  0  0  0  0  0
  -27.2746  -33.3670   26.2131 H   0  0  0  0  0  0
  -28.3869  -32.6890   25.0338 H   0  0  0  0  0  0
  -28.0752  -31.8452   26.5427 H   0  0  0  0  0  0
  -28.2630  -38.0125   24.7533 H   0  0  0  0  0  0
  -28.1073  -36.2673   24.6273 H   0  0  0  0  0  0
  -27.2334  -37.1475   25.8878 H   0  0  0  0  0  0
  -20.9215  -29.9245   21.7347 H   0  0  0  0  0  0
  -26.0209  -38.2930   24.1394 H   0  0  0  0  0  0
  -26.1644  -19.1520   22.5292 H   0  0  0  0  0  0
  -27.6073  -17.1318   22.7652 H   0  0  0  0  0  0
  -30.9443  -19.3360   21.1803 H   0  0  0  0  0  0
  -30.0477  -21.5676   19.7467 H   0  0  0  0  0  0
  -30.6737  -21.9750   21.3312 H   0  0  0  0  0  0
  -27.2909  -24.9565   20.9235 H   0  0  0  0  0  0
  -27.6705  -24.8517   19.2017 H   0  0  0  0  0  0
  -27.9289  -22.7851   20.9189 H   0  0  0  0  0  0
  -29.6774  -16.2118   20.2229 H   0  0  0  0  0  0
  1 25  1  0  0  0
  1 30  2  0  0  0
  1 81  1  0  0  0
  2  3  1  0  0  0
  2 25  1  0  0  0
  2 87  1  0  0  0
  2 88  1  0  0  0
  3  4  1  0  0  0
  3 89  1  0  0  0
  3 90  1  0  0  0
  4  5  1  0  0  0
  4 91  1  0  0  0
  4 92  1  0  0  0
  5  6  1  0  0  0
  5 26  1  0  0  0
  5 93  1  0  0  0
  6 25  1  0  0  0
  6 94  1  0  0  0
  6 95  1  0  0  0
  7  8  2  0  0  0
  7 26  1  0  0  0
  7 29  1  0  0  0
  8  9  1  0  0  0
  8 22  1  0  0  0
  9 10  1  0  0  0
  9 27  2  0  0  0
 10 11  2  0  0  0
 10 15  1  0  0  0
 11 12  1  0  0  0
 11 96  1  0  0  0
 12 13  2  0  0  0
 12 97  1  0  0  0
 13 14  1  0  0  0
 13 31  1  0  0  0
 14 15  2  0  0  0
 14 98  1  0  0  0
 15 99  1  0  0  0
 16 17  2  0  0  0
 16 21  1  0  0  0
 16 31  1  0  0  0
 17 18  1  0  0  0
 17100  1  0  0  0
 18 19  2  0  0  0
 18101  1  0  0  0
 19 20  1  0  0  0
 19 24  1  0  0  0
 20 21  2  0  0  0
 20102  1  0  0  0
 21 23  1  0  0  0
 22 28  1  0  0  0
 22 32  2  0  0  0
 26 27  1  0  0  0
 28103  1  0  0  0
 28104  1  0  0  0
 29105  1  0  0  0
 29106  1  0  0  0
 33 34  1  0  0  0
 33 66  1  0  0  0
 33 70  2  0  0  0
 34 36  1  0  0  0
 34 59  1  0  0  0
 34107  1  0  0  0
 35 44  2  0  0  0
 35 45  1  0  0  0
 35 68  1  0  0  0
 36 56  1  0  0  0
 36108  1  0  0  0
 37 39  1  0  0  0
 37 47  1  0  0  0
 37 66  1  0  0  0
 37109  1  0  0  0
 38 43  2  0  0  0
 38 46  1  0  0  0
 38 47  1  0  0  0
 39 64  1  0  0  0
 39 67  2  0  0  0
 40 52  1  0  0  0
 40 53  2  0  0  0
 40 58  1  0  0  0
 41110  1  0  0  0
 41111  1  0  0  0
 41112  1  0  0  0
 41 48  1  0  0  0
 42 43  1  0  0  0
 42 66  1  0  0  0
 42113  1  0  0  0
 42114  1  0  0  0
 43 44  1  0  0  0
 44115  1  0  0  0
 45 46  2  0  0  0
 45116  1  0  0  0
 46117  1  0  0  0
 47118  1  0  0  0
 47119  1  0  0  0
 48 56  1  0  0  0
 48 65  1  0  0  0
 48120  1  0  0  0
 49 50  1  0  0  0
 49 53  1  0  0  0
 49 64  1  0  0  0
 49121  1  0  0  0
 50 51  1  0  0  0
 50122  1  0  0  0
 50123  1  0  0  0
 51 52  1  0  0  0
 51124  1  0  0  0
 51125  1  0  0  0
 52126  1  0  0  0
 52127  1  0  0  0
 53 54  1  0  0  0
 54 55  2  0  0  0
 54128  1  0  0  0
 55 57  1  0  0  0
 55129  1  0  0  0
 56 69  2  0  0  0
 57 58  2  0  0  0
 57130  1  0  0  0
 58131  1  0  0  0
 59 60  1  0  0  0
 59 61  1  0  0  0
 59 62  1  0  0  0
 60132  1  0  0  0
 60133  1  0  0  0
 60134  1  0  0  0
 61135  1  0  0  0
 61136  1  0  0  0
 61137  1  0  0  0
 62138  1  0  0  0
 62139  1  0  0  0
 62140  1  0  0  0
 63 65  1  0  0  0
 63141  1  0  0  0
 63142  1  0  0  0
 63143  1  0  0  0
 64144  1  0  0  0
 65145  1  0  0  0
 68 79  1  0  0  0
 71 72  2  0  0  0
 71 75  1  0  0  0
 71146  1  0  0  0
 72 76  1  0  0  0
 72147  1  0  0  0
 73 74  1  0  0  0
 73 76  2  0  0  0
 73148  1  0  0  0
 74 75  2  0  0  0
 74 78  1  0  0  0
 75 85  1  0  0  0
 76 86  1  0  0  0
 77 79  1  0  0  0
 77 80  1  0  0  0
 77 82  2  0  0  0
 78 80  1  0  0  0
 78149  1  0  0  0
 78150  1  0  0  0
 79151  1  0  0  0
 79152  1  0  0  0
 80153  1  0  0  0
 81154  1  0  0  0
 81 86  1  0  0  0
 83 86  2  0  0  0
 84 86  2  0  0  0
M  ISO  4   1 100  68 101  79 101  81 100
M  END
> <chiral flag>
0

> <version>
0

> <s_m_source_file>
/data/baiqing/PycharmProjects/Reinvent-master-3.2/result/LINK_invent/BTK/process_docking_weight1_custom_product_contain_oxygen_bond_distance_aromatic_linkinvent_7_9_3/rearranged_h_0054.sdf

> <i_m_source_file_index>
27

> <r_mmod_Potential_Energy-OPLS-2005>
-222.412246704102

> <r_mmod_Stretch_Energy-OPLS-2005>
40.676097869873

> <r_mmod_Bend_Energy-OPLS-2005>
104.891700744629

> <r_mmod_Torsional_Energy-OPLS-2005>
236.015502929688

> <r_mmod_Improper_Torsional_Energy-OPLS-2005>
10.2630033493042

> <r_mmod_Van_der_Waal_Energy-OPLS-2005>
149.884963989258

> <r_mmod_Electrostatic_Energy-OPLS-2005>
-495.109924316406

> <r_mmod_Solvation_Energy-OPLS-2005>
-288.910736083984

> <b_mmod_Minimization_Converged-OPLS-2005>
0

> <r_mmod_RMS_Derivative-OPLS-2005>
8.64997863769531

$$$$
27
                    3D
 Structure written by MMmdl.
154162  0  0  1  0            999 V2000
  -30.6136  -14.7243   20.4787 C   0  0  0  0  0  0
  -30.4294  -12.4467   19.4825 C   0  0  0  0  0  0
  -29.5120  -12.5052   18.2411 C   0  0  0  0  0  0
  -28.0355  -12.3468   18.6432 C   0  0  0  0  0  0
  -27.6437  -13.2324   19.8561 C   0  0  2  0  0  0
  -28.6836  -13.1447   20.9959 C   0  0  0  0  0  0
  -25.2524  -13.8194   20.5702 C   0  0  0  0  0  0
  -24.1830  -13.0451   20.9219 C   0  0  0  0  0  0
  -24.6402  -11.6922   20.8740 C   0  0  0  0  0  0
  -23.9056  -10.4297   21.0361 C   0  0  0  0  0  0
  -24.3616   -9.4222   21.9149 C   0  0  0  0  0  0
  -23.6317   -8.2252   22.0726 C   0  0  0  0  0  0
  -22.4296   -8.0279   21.3522 C   0  0  0  0  0  0
  -21.9912   -9.0235   20.4613 C   0  0  0  0  0  0
  -22.7222  -10.2128   20.3023 C   0  0  0  0  0  0
  -21.6873   -6.0743   22.5272 C   0  0  0  0  0  0
  -21.4014   -6.5641   23.8205 C   0  0  0  0  0  0
  -21.3668   -5.6789   24.9166 C   0  0  0  0  0  0
  -21.6059   -4.3052   24.7208 C   0  0  0  0  0  0
  -21.8826   -3.8152   23.4326 C   0  0  0  0  0  0
  -21.9203   -4.6973   22.3387 C   0  0  0  0  0  0
  -22.7860  -13.5248   21.1864 C   0  0  0  0  0  0
  -22.1673   -4.2181   21.0957 F   0  0  0  0  0  0
  -21.5622   -3.4509   25.7702 F   0  0  0  0  0  0
  -29.9915  -13.4974   20.4316 N   0  0  0  0  0  0
  -26.2942  -12.9395   20.3295 N   0  0  0  0  0  0
  -25.9330  -11.6542   20.5760 N   0  0  0  0  0  0
  -22.0458  -12.8266   22.0396 N   0  0  0  0  0  0
  -25.4221  -15.1932   20.4138 N   0  0  0  0  0  0
  -31.7790  -14.8338   20.0842 O   0  0  0  0  0  0
  -21.6662   -6.8876   21.4227 O   0  0  0  0  0  0
  -22.3550  -14.5534   20.6659 O   0  0  0  0  0  0
  -24.6305  -31.8560   23.2020 C   0  0  0  0  0  0
  -25.9131  -32.4754   23.8365 C   0  0  1  0  0  0
  -27.2030  -27.2548   20.1235 C   0  0  0  0  0  0
  -25.5954  -33.8571   24.2274 N   0  0  0  0  0  0
  -23.4259  -30.4816   21.5478 C   0  0  2  0  0  0
  -24.8715  -28.9371   20.1056 C   0  0  0  0  0  0
  -22.7509  -29.4592   22.4938 C   0  0  0  0  0  0
  -18.0301  -28.1379   22.8482 C   0  0  0  0  0  0
  -24.1486  -36.7270   23.2646 C   0  0  0  0  0  0
  -25.9751  -30.7656   21.3838 C   0  0  0  0  0  0
  -26.0439  -29.3908   20.7221 C   0  0  0  0  0  0
  -27.2139  -28.5615   20.7212 C   0  0  0  0  0  0
  -26.0098  -26.8843   19.4598 C   0  0  0  0  0  0
  -24.8603  -27.6924   19.4627 C   0  0  0  0  0  0
  -23.6405  -29.8212   20.1599 C   0  0  0  0  0  0
  -25.4116  -36.3070   24.0329 C   0  0  1  0  0  0
  -20.5916  -28.3672   23.1283 C   0  0  2  0  0  0
  -20.6782  -26.9394   22.5403 C   0  0  0  0  0  0
  -19.5744  -26.6373   21.5209 C   0  0  0  0  0  0
  -18.1934  -26.7919   22.1617 C   0  0  0  0  0  0
  -19.1562  -28.8843   23.2876 C   0  0  0  0  0  0
  -18.9468  -30.1459   23.8883 C   0  0  0  0  0  0
  -17.6463  -30.6576   24.0560 C   0  0  0  0  0  0
  -25.9040  -34.9434   23.5082 C   0  0  0  0  0  0
  -16.5358  -29.9063   23.6347 C   0  0  0  0  0  0
  -16.7293  -28.6485   23.0356 C   0  0  0  0  0  0
  -26.4528  -31.6590   25.0750 C   0  0  0  0  0  0
  -25.3751  -31.3755   26.1469 C   0  0  0  0  0  0
  -27.0398  -30.3014   24.6233 C   0  0  0  0  0  0
  -27.6092  -32.4346   25.7501 C   0  0  0  0  0  0
  -27.5568  -37.1780   24.8477 C   0  0  0  0  0  0
  -21.4216  -29.3018   22.3679 N   0  0  0  0  0  0
  -26.4290  -37.3758   23.9422 N   0  0  0  0  0  0
  -24.6975  -31.0518   22.0999 N   0  0  0  0  0  0
  -23.4214  -28.8136   23.3035 O   0  0  0  0  0  0
  -28.2720  -26.3297   20.2098 O   0  0  0  0  0  0
  -26.5606  -34.8918   22.4640 O   0  0  0  0  0  0
  -23.5451  -32.1417   23.7290 O   0  0  0  0  0  0
  -30.2017  -18.7404   22.1536 C   0  0  0  0  0  0
  -29.7387  -21.1557   22.1860 C   0  0  0  0  0  0
  -29.7560  -18.6211   20.8217 C   0  0  0  0  0  0
  -29.2470  -19.8404   20.1932 C   0  0  0  0  0  0
  -29.2502  -21.1420   20.8572 C   0  0  0  0  0  0
  -30.1906  -19.9823   22.8216 C   0  0  0  0  0  0
  -28.9220  -23.7415   20.5825 C   0  0  0  0  0  0
  -28.6964  -19.7435   18.7772 C   0  0  0  0  0  0
  -29.9793  -17.2248   20.0770 C   0  0  0  0  0  0
  -27.9524  -24.8697   19.9935 C   0  0  0  0  0  0
  -28.7122  -22.4013   20.2714 N   0  0  0  0  0  0
  -29.8495  -15.8508   20.7358 N   0  0  0  0  0  0
  -29.8634  -24.0969   21.2975 O   0  0  0  0  0  0
  -30.7555  -20.0692   24.4517 Cl  0  0  0  0  0  0
  -31.4694  -12.5696   19.1801 H   0  0  0  0  0  0
  -30.3706  -11.4639   19.9542 H   0  0  0  0  0  0
  -29.7847  -11.7209   17.5331 H   0  0  0  0  0  0
  -29.6613  -13.4567   17.7258 H   0  0  0  0  0  0
  -27.8775  -11.2958   18.8892 H   0  0  0  0  0  0
  -27.3890  -12.5637   17.7903 H   0  0  0  0  0  0
  -27.6404  -14.2600   19.4929 H   0  0  0  0  0  0
  -28.7175  -12.1374   21.4147 H   0  0  0  0  0  0
  -28.4117  -13.8070   21.8190 H   0  0  0  0  0  0
  -25.2736   -9.5760   22.4752 H   0  0  0  0  0  0
  -24.0042   -7.4663   22.7457 H   0  0  0  0  0  0
  -21.0833   -8.8757   19.8906 H   0  0  0  0  0  0
  -22.3657  -10.9677   19.6175 H   0  0  0  0  0  0
  -21.1983   -7.6139   23.9723 H   0  0  0  0  0  0
  -21.1497   -6.0492   25.9079 H   0  0  0  0  0  0
  -22.0596   -2.7617   23.2796 H   0  0  0  0  0  0
  -22.4073  -12.0016   22.4939 H   0  0  0  0  0  0
  -21.1021  -13.1280   22.2427 H   0  0  0  0  0  0
  -24.6454  -15.8388   20.5095 H   0  0  0  0  0  0
  -26.2701  -15.6385   20.0866 H   0  0  0  0  0  0
  -26.7186  -32.5402   23.1100 H   0  0  0  0  0  0
  -25.0179  -33.9737   25.0472 H   0  0  0  0  0  0
  -22.7190  -31.3028   21.4060 H   0  0  0  0  0  0
  -23.3750  -35.9592   23.3309 H   0  0  0  0  0  0
  -24.3606  -36.8873   22.2060 H   0  0  0  0  0  0
  -23.7202  -37.6460   23.6667 H   0  0  0  0  0  0
  -26.1157  -31.5274   20.6173 H   0  0  0  0  0  0
  -26.8535  -30.8120   22.0157 H   0  0  0  0  0  0
  -28.1091  -28.8920   21.2292 H   0  0  0  0  0  0
  -25.9234  -25.9400   18.9461 H   0  0  0  0  0  0
  -23.9644  -27.3392   18.9704 H   0  0  0  0  0  0
  -23.7562  -30.6030   19.4074 H   0  0  0  0  0  0
  -22.7560  -29.2553   19.8582 H   0  0  0  0  0  0
  -25.1275  -36.1923   25.0814 H   0  0  0  0  0  0
  -21.0015  -28.3229   24.1398 H   0  0  0  0  0  0
  -20.5686  -26.2278   23.3605 H   0  0  0  0  0  0
  -21.6643  -26.7419   22.1179 H   0  0  0  0  0  0
  -19.6901  -25.6288   21.1227 H   0  0  0  0  0  0
  -19.6677  -27.3201   20.6761 H   0  0  0  0  0  0
  -17.4206  -26.6697   21.4026 H   0  0  0  0  0  0
  -18.0326  -26.0077   22.9024 H   0  0  0  0  0  0
  -19.7948  -30.7289   24.2223 H   0  0  0  0  0  0
  -17.5014  -31.6259   24.5149 H   0  0  0  0  0  0
  -15.5356  -30.2930   23.7691 H   0  0  0  0  0  0
  -15.8709  -28.0796   22.7061 H   0  0  0  0  0  0
  -24.5906  -30.7132   25.7792 H   0  0  0  0  0  0
  -24.8983  -32.2940   26.4900 H   0  0  0  0  0  0
  -25.8050  -30.8915   27.0236 H   0  0  0  0  0  0
  -26.2995  -29.6738   24.1259 H   0  0  0  0  0  0
  -27.4103  -29.7303   25.4750 H   0  0  0  0  0  0
  -27.8858  -30.4328   23.9487 H   0  0  0  0  0  0
  -27.2709  -33.3648   26.2091 H   0  0  0  0  0  0
  -28.3886  -32.6897   25.0305 H   0  0  0  0  0  0
  -28.0797  -31.8472   26.5399 H   0  0  0  0  0  0
  -28.2577  -38.0081   24.7520 H   0  0  0  0  0  0
  -28.1052  -36.2606   24.6290 H   0  0  0  0  0  0
  -27.2310  -37.1409   25.8886 H   0  0  0  0  0  0
  -20.9400  -29.8759   21.6899 H   0  0  0  0  0  0
  -26.0158  -38.2816   24.1436 H   0  0  0  0  0  0
  -30.5912  -17.8756   22.6727 H   0  0  0  0  0  0
  -29.7451  -22.0722   22.7602 H   0  0  0  0  0  0
  -29.5056  -19.5901   18.0643 H   0  0  0  0  0  0
  -28.1375  -20.6258   18.4730 H   0  0  0  0  0  0
  -27.9957  -18.9126   18.6946 H   0  0  0  0  0  0
  -29.3234  -17.1854   19.2075 H   0  0  0  0  0  0
  -30.9845  -17.2927   19.6541 H   0  0  0  0  0  0
  -26.9854  -24.6553   20.4556 H   0  0  0  0  0  0
  -27.8393  -24.6804   18.9252 H   0  0  0  0  0  0
  -28.0267  -22.2625   19.5401 H   0  0  0  0  0  0
  -28.9465  -15.6600   21.1446 H   0  0  0  0  0  0
  1 25  1  0  0  0
  1 30  2  0  0  0
  1 82  1  0  0  0
  2  3  1  0  0  0
  2 25  1  0  0  0
  2 85  1  0  0  0
  2 86  1  0  0  0
  3  4  1  0  0  0
  3 87  1  0  0  0
  3 88  1  0  0  0
  4  5  1  0  0  0
  4 89  1  0  0  0
  4 90  1  0  0  0
  5  6  1  0  0  0
  5 26  1  0  0  0
  5 91  1  0  0  0
  6 25  1  0  0  0
  6 92  1  0  0  0
  6 93  1  0  0  0
  7  8  2  0  0  0
  7 26  1  0  0  0
  7 29  1  0  0  0
  8  9  1  0  0  0
  8 22  1  0  0  0
  9 10  1  0  0  0
  9 27  2  0  0  0
 10 11  2  0  0  0
 10 15  1  0  0  0
 11 12  1  0  0  0
 11 94  1  0  0  0
 12 13  2  0  0  0
 12 95  1  0  0  0
 13 14  1  0  0  0
 13 31  1  0  0  0
 14 15  2  0  0  0
 14 96  1  0  0  0
 15 97  1  0  0  0
 16 17  2  0  0  0
 16 21  1  0  0  0
 16 31  1  0  0  0
 17 18  1  0  0  0
 17 98  1  0  0  0
 18 19  2  0  0  0
 18 99  1  0  0  0
 19 20  1  0  0  0
 19 24  1  0  0  0
 20 21  2  0  0  0
 20100  1  0  0  0
 21 23  1  0  0  0
 22 28  1  0  0  0
 22 32  2  0  0  0
 26 27  1  0  0  0
 28101  1  0  0  0
 28102  1  0  0  0
 29103  1  0  0  0
 29104  1  0  0  0
 33 34  1  0  0  0
 33 66  1  0  0  0
 33 70  2  0  0  0
 34 36  1  0  0  0
 34 59  1  0  0  0
 34105  1  0  0  0
 35 44  2  0  0  0
 35 45  1  0  0  0
 35 68  1  0  0  0
 36 56  1  0  0  0
 36106  1  0  0  0
 37 39  1  0  0  0
 37 47  1  0  0  0
 37 66  1  0  0  0
 37107  1  0  0  0
 38 43  2  0  0  0
 38 46  1  0  0  0
 38 47  1  0  0  0
 39 64  1  0  0  0
 39 67  2  0  0  0
 40 52  1  0  0  0
 40 53  2  0  0  0
 40 58  1  0  0  0
 41108  1  0  0  0
 41109  1  0  0  0
 41110  1  0  0  0
 41 48  1  0  0  0
 42 43  1  0  0  0
 42 66  1  0  0  0
 42111  1  0  0  0
 42112  1  0  0  0
 43 44  1  0  0  0
 44113  1  0  0  0
 45 46  2  0  0  0
 45114  1  0  0  0
 46115  1  0  0  0
 47116  1  0  0  0
 47117  1  0  0  0
 48 56  1  0  0  0
 48 65  1  0  0  0
 48118  1  0  0  0
 49 50  1  0  0  0
 49 53  1  0  0  0
 49 64  1  0  0  0
 49119  1  0  0  0
 50 51  1  0  0  0
 50120  1  0  0  0
 50121  1  0  0  0
 51 52  1  0  0  0
 51122  1  0  0  0
 51123  1  0  0  0
 52124  1  0  0  0
 52125  1  0  0  0
 53 54  1  0  0  0
 54 55  2  0  0  0
 54126  1  0  0  0
 55 57  1  0  0  0
 55127  1  0  0  0
 56 69  2  0  0  0
 57 58  2  0  0  0
 57128  1  0  0  0
 58129  1  0  0  0
 59 60  1  0  0  0
 59 61  1  0  0  0
 59 62  1  0  0  0
 60130  1  0  0  0
 60131  1  0  0  0
 60132  1  0  0  0
 61133  1  0  0  0
 61134  1  0  0  0
 61135  1  0  0  0
 62136  1  0  0  0
 62137  1  0  0  0
 62138  1  0  0  0
 63 65  1  0  0  0
 63139  1  0  0  0
 63140  1  0  0  0
 63141  1  0  0  0
 64142  1  0  0  0
 65143  1  0  0  0
 68 80  1  0  0  0
 71 73  2  0  0  0
 71 76  1  0  0  0
 71144  1  0  0  0
 72 75  1  0  0  0
 72 76  2  0  0  0
 72145  1  0  0  0
 73 74  1  0  0  0
 73 79  1  0  0  0
 74 75  2  0  0  0
 74 78  1  0  0  0
 75 81  1  0  0  0
 76 84  1  0  0  0
 77 80  1  0  0  0
 77 81  1  0  0  0
 77 83  2  0  0  0
 78146  1  0  0  0
 78147  1  0  0  0
 78148  1  0  0  0
 79 82  1  0  0  0
 79149  1  0  0  0
 79150  1  0  0  0
 80151  1  0  0  0
 80152  1  0  0  0
 81153  1  0  0  0
 82154  1  0  0  0
M  ISO  4   1 100  68 101  80 101  82 100
M  END
> <chiral flag>
0

> <version>
0

> <s_m_source_file>
/data/baiqing/PycharmProjects/Reinvent-master-3.2/result/LINK_invent/BTK/process_docking_weight1_custom_product_contain_oxygen_bond_distance_aromatic_linkinvent_7_9_3/rearranged_h_0054.sdf

> <i_m_source_file_index>
28

> <r_mmod_Potential_Energy-OPLS-2005>
75.4945983886719

> <r_mmod_Stretch_Energy-OPLS-2005>
123.44026184082

> <r_mmod_Bend_Energy-OPLS-2005>
156.10383605957

> <r_mmod_Torsional_Energy-OPLS-2005>
228.841491699219

> <r_mmod_Improper_Torsional_Energy-OPLS-2005>
7.54153966903687

> <r_mmod_Van_der_Waal_Energy-OPLS-2005>
145.222610473633

> <r_mmod_Electrostatic_Energy-OPLS-2005>
-419.284637451172

> <r_mmod_Solvation_Energy-OPLS-2005>
-251.463073730469

> <b_mmod_Minimization_Converged-OPLS-2005>
0

> <r_mmod_RMS_Derivative-OPLS-2005>
4.080979347229

$$$$
28
                    3D
 Structure written by MMmdl.
158166  0  0  1  0            999 V2000
  -30.6116  -14.6288   20.5130 C   0  0  0  0  0  0
  -30.4325  -12.3872   19.4541 C   0  0  0  0  0  0
  -29.5120  -12.5302   18.2241 C   0  0  0  0  0  0
  -28.0347  -12.3591   18.6249 C   0  0  0  0  0  0
  -27.6536  -13.2115   19.8672 C   0  0  2  0  0  0
  -28.6953  -13.0516   20.9977 C   0  0  0  0  0  0
  -25.2558  -13.8158   20.5634 C   0  0  0  0  0  0
  -24.1814  -13.0432   20.9137 C   0  0  0  0  0  0
  -24.6364  -11.6905   20.8678 C   0  0  0  0  0  0
  -23.9035  -10.4288   21.0347 C   0  0  0  0  0  0
  -24.3608   -9.4230   21.9137 C   0  0  0  0  0  0
  -23.6297   -8.2262   22.0720 C   0  0  0  0  0  0
  -22.4272   -8.0262   21.3529 C   0  0  0  0  0  0
  -21.9902   -9.0219   20.4625 C   0  0  0  0  0  0
  -22.7207  -10.2110   20.3021 C   0  0  0  0  0  0
  -21.6896   -6.0697   22.5267 C   0  0  0  0  0  0
  -21.4017   -6.5595   23.8188 C   0  0  0  0  0  0
  -21.3677   -5.6765   24.9171 C   0  0  0  0  0  0
  -21.6066   -4.3025   24.7237 C   0  0  0  0  0  0
  -21.8834   -3.8097   23.4352 C   0  0  0  0  0  0
  -21.9205   -4.6910   22.3394 C   0  0  0  0  0  0
  -22.7839  -13.5223   21.1852 C   0  0  0  0  0  0
  -22.1653   -4.2066   21.0988 F   0  0  0  0  0  0
  -21.5669   -3.4532   25.7759 F   0  0  0  0  0  0
  -30.0133  -13.3991   20.4453 N   0  0  0  0  0  0
  -26.2973  -12.9320   20.3290 N   0  0  0  0  0  0
  -25.9289  -11.6483   20.5700 N   0  0  0  0  0  0
  -22.0512  -12.8186   22.0420 N   0  0  0  0  0  0
  -25.4307  -15.1896   20.4054 N   0  0  0  0  0  0
  -31.7518  -14.8140   20.0768 O   0  0  0  0  0  0
  -21.6685   -6.8823   21.4215 O   0  0  0  0  0  0
  -22.3501  -14.5551   20.6748 O   0  0  0  0  0  0
  -24.6285  -31.8613   23.2054 C   0  0  0  0  0  0
  -25.9138  -32.4798   23.8367 C   0  0  1  0  0  0
  -27.2102  -27.3079   20.1223 C   0  0  0  0  0  0
  -25.5931  -33.8593   24.2303 N   0  0  0  0  0  0
  -23.4196  -30.4860   21.5491 C   0  0  2  0  0  0
  -24.8612  -28.9446   20.1092 C   0  0  0  0  0  0
  -22.7480  -29.4642   22.4967 C   0  0  0  0  0  0
  -18.0282  -28.1400   22.8497 C   0  0  0  0  0  0
  -24.1484  -36.7308   23.2642 C   0  0  0  0  0  0
  -25.9613  -30.7847   21.3788 C   0  0  0  0  0  0
  -26.0314  -29.4142   20.7207 C   0  0  0  0  0  0
  -27.2079  -28.6072   20.7193 C   0  0  0  0  0  0
  -26.0182  -26.9008   19.4724 C   0  0  0  0  0  0
  -24.8595  -27.6957   19.4728 C   0  0  0  0  0  0
  -23.6309  -29.8260   20.1619 C   0  0  0  0  0  0
  -25.4115  -36.3099   24.0342 C   0  0  1  0  0  0
  -20.5881  -28.3702   23.1309 C   0  0  2  0  0  0
  -20.6775  -26.9427   22.5428 C   0  0  0  0  0  0
  -19.5759  -26.6387   21.5233 C   0  0  0  0  0  0
  -18.1937  -26.7941   22.1621 C   0  0  0  0  0  0
  -19.1540  -28.8868   23.2898 C   0  0  0  0  0  0
  -18.9445  -30.1458   23.8931 C   0  0  0  0  0  0
  -17.6446  -30.6593   24.0568 C   0  0  0  0  0  0
  -25.9049  -34.9472   23.5136 C   0  0  0  0  0  0
  -16.5329  -29.9098   23.6329 C   0  0  0  0  0  0
  -16.7269  -28.6507   23.0370 C   0  0  0  0  0  0
  -26.4481  -31.6598   25.0732 C   0  0  0  0  0  0
  -25.3705  -31.3722   26.1451 C   0  0  0  0  0  0
  -27.0304  -30.3018   24.6182 C   0  0  0  0  0  0
  -27.6062  -32.4301   25.7488 C   0  0  0  0  0  0
  -27.5606  -37.1810   24.8460 C   0  0  0  0  0  0
  -21.4202  -29.3059   22.3704 N   0  0  0  0  0  0
  -26.4305  -37.3801   23.9408 N   0  0  0  0  0  0
  -24.6891  -31.0613   22.1020 N   0  0  0  0  0  0
  -23.4199  -28.8202   23.3056 O   0  0  0  0  0  0
  -28.3085  -26.4339   20.1947 O   0  0  0  0  0  0
  -26.5621  -34.8940   22.4692 O   0  0  0  0  0  0
  -23.5445  -32.1424   23.7394 O   0  0  0  0  0  0
  -30.0073  -19.3022   22.0610 C   0  0  0  0  0  0
  -29.8451  -19.2701   19.6571 C   0  0  0  0  0  0
  -30.0258  -17.8775   22.0808 C   0  0  0  0  0  0
  -29.8632  -17.8383   19.6765 C   0  0  0  0  0  0
  -29.9130  -20.0447   20.8498 C   0  0  0  0  0  0
  -29.9698  -17.1046   20.8909 C   0  0  0  0  0  0
  -26.4935  -22.4185   17.7873 C   0  0  0  0  0  0
  -27.5845  -22.0264   18.4615 C   0  0  0  0  0  0
  -29.1266  -23.9580   20.5184 C   0  0  0  0  0  0
  -30.0430  -21.6200   20.8502 C   0  0  0  0  0  0
  -27.6858  -21.9828   19.9738 C   0  0  0  0  0  0
  -28.0196  -24.9820   20.0371 C   0  0  0  0  0  0
  -29.8291  -15.6531   20.9755 N   0  0  0  0  0  0
  -28.9427  -22.5809   20.4477 N   0  0  0  0  0  0
  -30.1792  -24.4282   20.9619 O   0  0  0  0  0  0
  -31.4753  -12.5099   19.1600 H   0  0  0  0  0  0
  -30.3558  -11.3824   19.8698 H   0  0  0  0  0  0
  -29.7853  -11.8034   17.4586 H   0  0  0  0  0  0
  -29.6595  -13.5164   17.7795 H   0  0  0  0  0  0
  -27.8660  -11.2995   18.8314 H   0  0  0  0  0  0
  -27.3917  -12.6085   17.7808 H   0  0  0  0  0  0
  -27.6787  -14.2511   19.5442 H   0  0  0  0  0  0
  -28.7070  -12.0253   21.3654 H   0  0  0  0  0  0
  -28.4299  -13.6723   21.8560 H   0  0  0  0  0  0
  -25.2742   -9.5727   22.4719 H   0  0  0  0  0  0
  -24.0008   -7.4669   22.7452 H   0  0  0  0  0  0
  -21.0818   -8.8724   19.8929 H   0  0  0  0  0  0
  -22.3627  -10.9644   19.6129 H   0  0  0  0  0  0
  -21.1983   -7.6097   23.9651 H   0  0  0  0  0  0
  -21.1506   -6.0514   25.9073 H   0  0  0  0  0  0
  -22.0598   -2.7540   23.2923 H   0  0  0  0  0  0
  -22.4164  -11.9825   22.4764 H   0  0  0  0  0  0
  -21.1118  -13.1126   22.2643 H   0  0  0  0  0  0
  -24.6702  -15.8523   20.5059 H   0  0  0  0  0  0
  -26.2937  -15.6249   20.1021 H   0  0  0  0  0  0
  -26.7206  -32.5438   23.1104 H   0  0  0  0  0  0
  -25.0037  -33.9719   25.0428 H   0  0  0  0  0  0
  -22.7152  -31.3088   21.4119 H   0  0  0  0  0  0
  -23.3774  -35.9612   23.3277 H   0  0  0  0  0  0
  -24.3591  -36.8954   22.2057 H   0  0  0  0  0  0
  -23.7194  -37.6495   23.6668 H   0  0  0  0  0  0
  -26.0953  -31.5432   20.6082 H   0  0  0  0  0  0
  -26.8442  -30.8319   22.0043 H   0  0  0  0  0  0
  -28.1004  -28.9576   21.2211 H   0  0  0  0  0  0
  -25.9440  -25.9463   18.9725 H   0  0  0  0  0  0
  -23.9659  -27.3377   18.9796 H   0  0  0  0  0  0
  -23.7511  -30.6062   19.4081 H   0  0  0  0  0  0
  -22.7494  -29.2554   19.8620 H   0  0  0  0  0  0
  -25.1302  -36.1972   25.0842 H   0  0  0  0  0  0
  -20.9960  -28.3268   24.1425 H   0  0  0  0  0  0
  -20.5689  -26.2322   23.3629 H   0  0  0  0  0  0
  -21.6658  -26.7489   22.1192 H   0  0  0  0  0  0
  -19.6921  -25.6298   21.1272 H   0  0  0  0  0  0
  -19.6705  -27.3194   20.6758 H   0  0  0  0  0  0
  -17.4224  -26.6721   21.4005 H   0  0  0  0  0  0
  -18.0303  -26.0064   22.8992 H   0  0  0  0  0  0
  -19.7915  -30.7257   24.2330 H   0  0  0  0  0  0
  -17.4998  -31.6296   24.5142 H   0  0  0  0  0  0
  -15.5342  -30.3000   23.7655 H   0  0  0  0  0  0
  -15.8660  -28.0816   22.7110 H   0  0  0  0  0  0
  -24.5846  -30.7127   25.7745 H   0  0  0  0  0  0
  -24.8924  -32.2884   26.4943 H   0  0  0  0  0  0
  -25.7990  -30.8810   27.0200 H   0  0  0  0  0  0
  -26.2863  -29.6776   24.1213 H   0  0  0  0  0  0
  -27.4011  -29.7265   25.4680 H   0  0  0  0  0  0
  -27.8742  -30.4322   23.9401 H   0  0  0  0  0  0
  -27.2706  -33.3594   26.2121 H   0  0  0  0  0  0
  -28.3836  -32.6884   25.0280 H   0  0  0  0  0  0
  -28.0773  -31.8381   26.5352 H   0  0  0  0  0  0
  -28.2615  -38.0117   24.7563 H   0  0  0  0  0  0
  -28.1112  -36.2672   24.6216 H   0  0  0  0  0  0
  -27.2346  -37.1384   25.8865 H   0  0  0  0  0  0
  -20.9390  -29.8755   21.6884 H   0  0  0  0  0  0
  -26.0204  -38.2892   24.1396 H   0  0  0  0  0  0
  -30.0881  -19.8225   23.0088 H   0  0  0  0  0  0
  -29.7925  -19.7776   18.7019 H   0  0  0  0  0  0
  -30.0889  -17.3747   23.0383 H   0  0  0  0  0  0
  -29.7746  -17.3090   18.7373 H   0  0  0  0  0  0
  -26.4860  -22.4293   16.7065 H   0  0  0  0  0  0
  -25.5925  -22.7325   18.2981 H   0  0  0  0  0  0
  -28.4595  -21.7085   17.9096 H   0  0  0  0  0  0
  -30.8929  -21.8451   20.2064 H   0  0  0  0  0  0
  -30.3742  -21.9101   21.8477 H   0  0  0  0  0  0
  -27.5931  -20.9408   20.2797 H   0  0  0  0  0  0
  -26.8234  -22.4702   20.4337 H   0  0  0  0  0  0
  -27.1119  -24.7438   20.5932 H   0  0  0  0  0  0
  -27.8255  -24.7839   18.9829 H   0  0  0  0  0  0
  -28.9739  -15.3362   21.4036 H   0  0  0  0  0  0
  1 25  1  0  0  0
  1 30  2  0  0  0
  1 83  1  0  0  0
  2  3  1  0  0  0
  2 25  1  0  0  0
  2 86  1  0  0  0
  2 87  1  0  0  0
  3  4  1  0  0  0
  3 88  1  0  0  0
  3 89  1  0  0  0
  4  5  1  0  0  0
  4 90  1  0  0  0
  4 91  1  0  0  0
  5  6  1  0  0  0
  5 26  1  0  0  0
  5 92  1  0  0  0
  6 25  1  0  0  0
  6 93  1  0  0  0
  6 94  1  0  0  0
  7  8  2  0  0  0
  7 26  1  0  0  0
  7 29  1  0  0  0
  8  9  1  0  0  0
  8 22  1  0  0  0
  9 10  1  0  0  0
  9 27  2  0  0  0
 10 11  2  0  0  0
 10 15  1  0  0  0
 11 12  1  0  0  0
 11 95  1  0  0  0
 12 13  2  0  0  0
 12 96  1  0  0  0
 13 14  1  0  0  0
 13 31  1  0  0  0
 14 15  2  0  0  0
 14 97  1  0  0  0
 15 98  1  0  0  0
 16 17  2  0  0  0
 16 21  1  0  0  0
 16 31  1  0  0  0
 17 18  1  0  0  0
 17 99  1  0  0  0
 18 19  2  0  0  0
 18100  1  0  0  0
 19 20  1  0  0  0
 19 24  1  0  0  0
 20 21  2  0  0  0
 20101  1  0  0  0
 21 23  1  0  0  0
 22 28  1  0  0  0
 22 32  2  0  0  0
 26 27  1  0  0  0
 28102  1  0  0  0
 28103  1  0  0  0
 29104  1  0  0  0
 29105  1  0  0  0
 33 34  1  0  0  0
 33 66  1  0  0  0
 33 70  2  0  0  0
 34 36  1  0  0  0
 34 59  1  0  0  0
 34106  1  0  0  0
 35 44  2  0  0  0
 35 45  1  0  0  0
 35 68  1  0  0  0
 36 56  1  0  0  0
 36107  1  0  0  0
 37 39  1  0  0  0
 37 47  1  0  0  0
 37 66  1  0  0  0
 37108  1  0  0  0
 38 43  2  0  0  0
 38 46  1  0  0  0
 38 47  1  0  0  0
 39 64  1  0  0  0
 39 67  2  0  0  0
 40 52  1  0  0  0
 40 53  2  0  0  0
 40 58  1  0  0  0
 41109  1  0  0  0
 41110  1  0  0  0
 41111  1  0  0  0
 41 48  1  0  0  0
 42 43  1  0  0  0
 42 66  1  0  0  0
 42112  1  0  0  0
 42113  1  0  0  0
 43 44  1  0  0  0
 44114  1  0  0  0
 45 46  2  0  0  0
 45115  1  0  0  0
 46116  1  0  0  0
 47117  1  0  0  0
 47118  1  0  0  0
 48 56  1  0  0  0
 48 65  1  0  0  0
 48119  1  0  0  0
 49 50  1  0  0  0
 49 53  1  0  0  0
 49 64  1  0  0  0
 49120  1  0  0  0
 50 51  1  0  0  0
 50121  1  0  0  0
 50122  1  0  0  0
 51 52  1  0  0  0
 51123  1  0  0  0
 51124  1  0  0  0
 52125  1  0  0  0
 52126  1  0  0  0
 53 54  1  0  0  0
 54 55  2  0  0  0
 54127  1  0  0  0
 55 57  1  0  0  0
 55128  1  0  0  0
 56 69  2  0  0  0
 57 58  2  0  0  0
 57129  1  0  0  0
 58130  1  0  0  0
 59 60  1  0  0  0
 59 61  1  0  0  0
 59 62  1  0  0  0
 60131  1  0  0  0
 60132  1  0  0  0
 60133  1  0  0  0
 61134  1  0  0  0
 61135  1  0  0  0
 61136  1  0  0  0
 62137  1  0  0  0
 62138  1  0  0  0
 62139  1  0  0  0
 63 65  1  0  0  0
 63140  1  0  0  0
 63141  1  0  0  0
 63142  1  0  0  0
 64143  1  0  0  0
 65144  1  0  0  0
 68 82  1  0  0  0
 71 73  2  0  0  0
 71 75  1  0  0  0
 71145  1  0  0  0
 72 74  1  0  0  0
 72 75  2  0  0  0
 72146  1  0  0  0
 73 76  1  0  0  0
 73147  1  0  0  0
 74 76  2  0  0  0
 74148  1  0  0  0
 75 80  1  0  0  0
 76 83  1  0  0  0
 77 78  2  0  0  0
 77149  1  0  0  0
 77150  1  0  0  0
 78 81  1  0  0  0
 78151  1  0  0  0
 79 82  1  0  0  0
 79 84  1  0  0  0
 79 85  2  0  0  0
 80 84  1  0  0  0
 80152  1  0  0  0
 80153  1  0  0  0
 81 84  1  0  0  0
 81154  1  0  0  0
 81155  1  0  0  0
 82156  1  0  0  0
 82157  1  0  0  0
 83158  1  0  0  0
M  ISO  4   1 100  68 101  82 101  83 100
M  END
> <chiral flag>
0

> <version>
0

> <s_m_source_file>
/data/baiqing/PycharmProjects/Reinvent-master-3.2/result/LINK_invent/BTK/process_docking_weight1_custom_product_contain_oxygen_bond_distance_aromatic_linkinvent_7_9_3/rearranged_h_0054.sdf

> <i_m_source_file_index>
29

> <r_mmod_Potential_Energy-OPLS-2005>
100.918388366699

> <r_mmod_Stretch_Energy-OPLS-2005>
85.4912567138672

> <r_mmod_Bend_Energy-OPLS-2005>
136.296371459961

> <r_mmod_Torsional_Energy-OPLS-2005>
249.173202514648

> <r_mmod_Improper_Torsional_Energy-OPLS-2005>
4.5484414100647

> <r_mmod_Van_der_Waal_Energy-OPLS-2005>
147.855560302734

> <r_mmod_Electrostatic_Energy-OPLS-2005>
-333.950317382812

> <r_mmod_Solvation_Energy-OPLS-2005>
-240.169326782227

> <b_mmod_Minimization_Converged-OPLS-2005>
0

> <r_mmod_RMS_Derivative-OPLS-2005>
4.50778865814209

$$$$
29
                    3D
 Structure written by MMmdl.
163171  0  0  1  0            999 V2000
  -30.6825  -14.4905   20.5066 C   0  0  0  0  0  0
  -30.4269  -12.2905   19.4462 C   0  0  0  0  0  0
  -29.5070  -12.4927   18.2238 C   0  0  0  0  0  0
  -28.0261  -12.3522   18.6294 C   0  0  0  0  0  0
  -27.6651  -13.2018   19.8782 C   0  0  2  0  0  0
  -28.7072  -13.0022   21.0065 C   0  0  0  0  0  0
  -25.2634  -13.8153   20.5699 C   0  0  0  0  0  0
  -24.1873  -13.0435   20.9191 C   0  0  0  0  0  0
  -24.6406  -11.6898   20.8726 C   0  0  0  0  0  0
  -23.9053  -10.4293   21.0384 C   0  0  0  0  0  0
  -24.3593   -9.4221   21.9181 C   0  0  0  0  0  0
  -23.6271   -8.2254   22.0764 C   0  0  0  0  0  0
  -22.4255   -8.0277   21.3547 C   0  0  0  0  0  0
  -21.9887   -9.0251   20.4650 C   0  0  0  0  0  0
  -22.7214  -10.2135   20.3051 C   0  0  0  0  0  0
  -21.6861   -6.0731   22.5273 C   0  0  0  0  0  0
  -21.4019   -6.5640   23.8206 C   0  0  0  0  0  0
  -21.3667   -5.6794   24.9170 C   0  0  0  0  0  0
  -21.6048   -4.3052   24.7233 C   0  0  0  0  0  0
  -21.8818   -3.8144   23.4351 C   0  0  0  0  0  0
  -21.9197   -4.6960   22.3402 C   0  0  0  0  0  0
  -22.7897  -13.5249   21.1829 C   0  0  0  0  0  0
  -22.1663   -4.2145   21.0981 F   0  0  0  0  0  0
  -21.5631   -3.4534   25.7749 F   0  0  0  0  0  0
  -30.0427  -13.2898   20.4552 N   0  0  0  0  0  0
  -26.3051  -12.9304   20.3374 N   0  0  0  0  0  0
  -25.9332  -11.6464   20.5767 N   0  0  0  0  0  0
  -22.0501  -12.8251   22.0361 N   0  0  0  0  0  0
  -25.4368  -15.1879   20.4112 N   0  0  0  0  0  0
  -31.8256  -14.6660   20.0778 O   0  0  0  0  0  0
  -21.6641   -6.8858   21.4224 O   0  0  0  0  0  0
  -22.3593  -14.5552   20.6665 O   0  0  0  0  0  0
  -24.6155  -31.8683   23.2136 C   0  0  0  0  0  0
  -25.9061  -32.4822   23.8410 C   0  0  1  0  0  0
  -27.2414  -27.4361   20.1001 C   0  0  0  0  0  0
  -25.5944  -33.8627   24.2367 N   0  0  0  0  0  0
  -23.4036  -30.4928   21.5498 C   0  0  2  0  0  0
  -24.8537  -28.9572   20.1174 C   0  0  0  0  0  0
  -22.7407  -29.4658   22.4969 C   0  0  0  0  0  0
  -18.0272  -28.1384   22.8508 C   0  0  0  0  0  0
  -24.1471  -36.7288   23.2630 C   0  0  0  0  0  0
  -25.9325  -30.8310   21.3699 C   0  0  0  0  0  0
  -26.0107  -29.4622   20.7262 C   0  0  0  0  0  0
  -27.2054  -28.7051   20.7283 C   0  0  0  0  0  0
  -26.0766  -26.9609   19.4663 C   0  0  0  0  0  0
  -24.8805  -27.7012   19.4884 C   0  0  0  0  0  0
  -23.6136  -29.8234   20.1656 C   0  0  0  0  0  0
  -25.4103  -36.3119   24.0337 C   0  0  1  0  0  0
  -20.5858  -28.3659   23.1316 C   0  0  2  0  0  0
  -20.6767  -26.9394   22.5428 C   0  0  0  0  0  0
  -19.5733  -26.6376   21.5239 C   0  0  0  0  0  0
  -18.1905  -26.7942   22.1628 C   0  0  0  0  0  0
  -19.1522  -28.8837   23.2912 C   0  0  0  0  0  0
  -18.9461  -30.1448   23.8908 C   0  0  0  0  0  0
  -17.6459  -30.6595   24.0559 C   0  0  0  0  0  0
  -25.9028  -34.9483   23.5139 C   0  0  0  0  0  0
  -16.5347  -29.9098   23.6345 C   0  0  0  0  0  0
  -16.7268  -28.6508   23.0378 C   0  0  0  0  0  0
  -26.4515  -31.6612   25.0735 C   0  0  0  0  0  0
  -25.3792  -31.3725   26.1497 C   0  0  0  0  0  0
  -27.0376  -30.3049   24.6142 C   0  0  0  0  0  0
  -27.6083  -32.4340   25.7506 C   0  0  0  0  0  0
  -27.5574  -37.1802   24.8475 C   0  0  0  0  0  0
  -21.4128  -29.3021   22.3705 N   0  0  0  0  0  0
  -26.4290  -37.3805   23.9419 N   0  0  0  0  0  0
  -24.6677  -31.0780   22.1029 N   0  0  0  0  0  0
  -23.4168  -28.8180   23.3001 O   0  0  0  0  0  0
  -28.3598  -26.6274   20.0372 O   0  0  0  0  0  0
  -26.5553  -34.8929   22.4672 O   0  0  0  0  0  0
  -23.5354  -32.1443   23.7528 O   0  0  0  0  0  0
  -32.2149  -19.5799   20.9834 C   0  0  0  0  0  0
  -31.3193  -20.5688   21.4375 C   0  0  0  0  0  0
  -31.7354  -18.3303   20.5411 C   0  0  0  0  0  0
  -29.4567  -19.0593   21.0034 C   0  0  0  0  0  0
  -29.9319  -20.3187   21.4571 C   0  0  0  0  0  0
  -30.3523  -18.0611   20.5402 C   0  0  0  0  0  0
  -29.4041  -23.7964   21.9179 C   0  0  0  0  0  0
  -28.6205  -25.4854   23.5747 C   0  0  0  0  0  0
  -27.0311  -24.7784   21.8195 C   0  0  0  0  0  0
  -28.9721  -21.3403   22.0822 C   0  0  0  0  0  0
  -29.8382  -16.7504   19.9376 C   0  0  0  0  0  0
  -29.0501  -26.3236   21.2586 C   0  0  0  0  0  0
  -28.5267  -25.0855   22.0827 C   0  0  0  0  0  0
  -28.8284  -22.6680   21.4564 N   0  0  0  0  0  0
  -29.8807  -15.5384   20.7722 N   0  0  0  0  0  0
  -30.5641  -23.7892   22.3383 O   0  0  0  0  0  0
  -31.4747  -12.3765   19.1538 H   0  0  0  0  0  0
  -30.3123  -11.2831   19.8486 H   0  0  0  0  0  0
  -29.7473  -11.7689   17.4447 H   0  0  0  0  0  0
  -29.6861  -13.4785   17.7901 H   0  0  0  0  0  0
  -27.8379  -11.2962   18.8326 H   0  0  0  0  0  0
  -27.3814  -12.6205   17.7923 H   0  0  0  0  0  0
  -27.7004  -14.2443   19.5645 H   0  0  0  0  0  0
  -28.6762  -11.9771   21.3773 H   0  0  0  0  0  0
  -28.4809  -13.6319   21.8675 H   0  0  0  0  0  0
  -25.2732   -9.5726   22.4757 H   0  0  0  0  0  0
  -23.9990   -7.4662   22.7503 H   0  0  0  0  0  0
  -21.0821   -8.8747   19.8952 H   0  0  0  0  0  0
  -22.3649  -10.9660   19.6153 H   0  0  0  0  0  0
  -21.1991   -7.6145   23.9703 H   0  0  0  0  0  0
  -21.1499   -6.0529   25.9072 H   0  0  0  0  0  0
  -22.0588   -2.7603   23.2861 H   0  0  0  0  0  0
  -22.4075  -11.9883   22.4734 H   0  0  0  0  0  0
  -21.1125  -13.1324   22.2536 H   0  0  0  0  0  0
  -24.6717  -15.8424   20.5336 H   0  0  0  0  0  0
  -26.2853  -15.6301   20.0812 H   0  0  0  0  0  0
  -26.7124  -32.5538   23.1165 H   0  0  0  0  0  0
  -25.0276  -33.9811   25.0637 H   0  0  0  0  0  0
  -22.6948  -31.3101   21.4085 H   0  0  0  0  0  0
  -23.3756  -35.9596   23.3321 H   0  0  0  0  0  0
  -24.3559  -36.8876   22.2037 H   0  0  0  0  0  0
  -23.7209  -37.6485   23.6639 H   0  0  0  0  0  0
  -26.0506  -31.5912   20.5955 H   0  0  0  0  0  0
  -26.8194  -30.8868   21.9894 H   0  0  0  0  0  0
  -28.0913  -29.1049   21.1991 H   0  0  0  0  0  0
  -26.0953  -26.0027   18.9694 H   0  0  0  0  0  0
  -23.9948  -27.3062   19.0111 H   0  0  0  0  0  0
  -23.7211  -30.5980   19.4050 H   0  0  0  0  0  0
  -22.7402  -29.2384   19.8689 H   0  0  0  0  0  0
  -25.1289  -36.1977   25.0830 H   0  0  0  0  0  0
  -20.9972  -28.3229   24.1423 H   0  0  0  0  0  0
  -20.5710  -26.2255   23.3610 H   0  0  0  0  0  0
  -21.6631  -26.7471   22.1170 H   0  0  0  0  0  0
  -19.6897  -25.6296   21.1252 H   0  0  0  0  0  0
  -19.6679  -27.3182   20.6766 H   0  0  0  0  0  0
  -17.4189  -26.6730   21.3995 H   0  0  0  0  0  0
  -18.0261  -26.0079   22.9005 H   0  0  0  0  0  0
  -19.7930  -30.7278   24.2256 H   0  0  0  0  0  0
  -17.5017  -31.6282   24.5150 H   0  0  0  0  0  0
  -15.5347  -30.2996   23.7692 H   0  0  0  0  0  0
  -15.8658  -28.0827   22.7120 H   0  0  0  0  0  0
  -24.5950  -30.7090   25.7841 H   0  0  0  0  0  0
  -24.9008  -32.2887   26.4964 H   0  0  0  0  0  0
  -25.8149  -30.8882   27.0245 H   0  0  0  0  0  0
  -26.2930  -29.6738   24.1279 H   0  0  0  0  0  0
  -27.4223  -29.7362   25.4624 H   0  0  0  0  0  0
  -27.8732  -30.4361   23.9260 H   0  0  0  0  0  0
  -27.2728  -33.3662   26.2064 H   0  0  0  0  0  0
  -28.3930  -32.6863   25.0362 H   0  0  0  0  0  0
  -28.0724  -31.8473   26.5451 H   0  0  0  0  0  0
  -28.2621  -38.0072   24.7544 H   0  0  0  0  0  0
  -28.1045  -36.2617   24.6302 H   0  0  0  0  0  0
  -27.2284  -37.1448   25.8872 H   0  0  0  0  0  0
  -20.9278  -29.8752   21.6942 H   0  0  0  0  0  0
  -26.0173  -38.2870   24.1451 H   0  0  0  0  0  0
  -33.2789  -19.7716   20.9818 H   0  0  0  0  0  0
  -31.7040  -21.5092   21.8063 H   0  0  0  0  0  0
  -32.4319  -17.5865   20.1750 H   0  0  0  0  0  0
  -28.3951  -18.8544   21.0056 H   0  0  0  0  0  0
  -28.2974  -24.6755   24.2302 H   0  0  0  0  0  0
  -27.9965  -26.3509   23.8002 H   0  0  0  0  0  0
  -29.6426  -25.7474   23.8514 H   0  0  0  0  0  0
  -26.6639  -23.9743   22.4590 H   0  0  0  0  0  0
  -26.8478  -24.4853   20.7863 H   0  0  0  0  0  0
  -26.4072  -25.6448   22.0354 H   0  0  0  0  0  0
  -29.2634  -21.4639   23.1276 H   0  0  0  0  0  0
  -27.9741  -20.9051   22.1207 H   0  0  0  0  0  0
  -30.3774  -16.5770   19.0032 H   0  0  0  0  0  0
  -28.7997  -16.8910   19.6345 H   0  0  0  0  0  0
  -30.0930  -26.1626   20.9831 H   0  0  0  0  0  0
  -29.0852  -27.2151   21.8845 H   0  0  0  0  0  0
  -27.9329  -22.8169   21.0111 H   0  0  0  0  0  0
  -29.0048  -15.2967   21.2062 H   0  0  0  0  0  0
  1 25  1  0  0  0
  1 30  2  0  0  0
  1 85  1  0  0  0
  2  3  1  0  0  0
  2 25  1  0  0  0
  2 87  1  0  0  0
  2 88  1  0  0  0
  3  4  1  0  0  0
  3 89  1  0  0  0
  3 90  1  0  0  0
  4  5  1  0  0  0
  4 91  1  0  0  0
  4 92  1  0  0  0
  5  6  1  0  0  0
  5 26  1  0  0  0
  5 93  1  0  0  0
  6 25  1  0  0  0
  6 94  1  0  0  0
  6 95  1  0  0  0
  7  8  2  0  0  0
  7 26  1  0  0  0
  7 29  1  0  0  0
  8  9  1  0  0  0
  8 22  1  0  0  0
  9 10  1  0  0  0
  9 27  2  0  0  0
 10 11  2  0  0  0
 10 15  1  0  0  0
 11 12  1  0  0  0
 11 96  1  0  0  0
 12 13  2  0  0  0
 12 97  1  0  0  0
 13 14  1  0  0  0
 13 31  1  0  0  0
 14 15  2  0  0  0
 14 98  1  0  0  0
 15 99  1  0  0  0
 16 17  2  0  0  0
 16 21  1  0  0  0
 16 31  1  0  0  0
 17 18  1  0  0  0
 17100  1  0  0  0
 18 19  2  0  0  0
 18101  1  0  0  0
 19 20  1  0  0  0
 19 24  1  0  0  0
 20 21  2  0  0  0
 20102  1  0  0  0
 21 23  1  0  0  0
 22 28  1  0  0  0
 22 32  2  0  0  0
 26 27  1  0  0  0
 28103  1  0  0  0
 28104  1  0  0  0
 29105  1  0  0  0
 29106  1  0  0  0
 33 34  1  0  0  0
 33 66  1  0  0  0
 33 70  2  0  0  0
 34 36  1  0  0  0
 34 59  1  0  0  0
 34107  1  0  0  0
 35 44  2  0  0  0
 35 45  1  0  0  0
 35 68  1  0  0  0
 36 56  1  0  0  0
 36108  1  0  0  0
 37 39  1  0  0  0
 37 47  1  0  0  0
 37 66  1  0  0  0
 37109  1  0  0  0
 38 43  2  0  0  0
 38 46  1  0  0  0
 38 47  1  0  0  0
 39 64  1  0  0  0
 39 67  2  0  0  0
 40 52  1  0  0  0
 40 53  2  0  0  0
 40 58  1  0  0  0
 41110  1  0  0  0
 41111  1  0  0  0
 41112  1  0  0  0
 41 48  1  0  0  0
 42 43  1  0  0  0
 42 66  1  0  0  0
 42113  1  0  0  0
 42114  1  0  0  0
 43 44  1  0  0  0
 44115  1  0  0  0
 45 46  2  0  0  0
 45116  1  0  0  0
 46117  1  0  0  0
 47118  1  0  0  0
 47119  1  0  0  0
 48 56  1  0  0  0
 48 65  1  0  0  0
 48120  1  0  0  0
 49 50  1  0  0  0
 49 53  1  0  0  0
 49 64  1  0  0  0
 49121  1  0  0  0
 50 51  1  0  0  0
 50122  1  0  0  0
 50123  1  0  0  0
 51 52  1  0  0  0
 51124  1  0  0  0
 51125  1  0  0  0
 52126  1  0  0  0
 52127  1  0  0  0
 53 54  1  0  0  0
 54 55  2  0  0  0
 54128  1  0  0  0
 55 57  1  0  0  0
 55129  1  0  0  0
 56 69  2  0  0  0
 57 58  2  0  0  0
 57130  1  0  0  0
 58131  1  0  0  0
 59 60  1  0  0  0
 59 61  1  0  0  0
 59 62  1  0  0  0
 60132  1  0  0  0
 60133  1  0  0  0
 60134  1  0  0  0
 61135  1  0  0  0
 61136  1  0  0  0
 61137  1  0  0  0
 62138  1  0  0  0
 62139  1  0  0  0
 62140  1  0  0  0
 63 65  1  0  0  0
 63141  1  0  0  0
 63142  1  0  0  0
 63143  1  0  0  0
 64144  1  0  0  0
 65145  1  0  0  0
 68 82  1  0  0  0
 71 72  2  0  0  0
 71 73  1  0  0  0
 71146  1  0  0  0
 72 75  1  0  0  0
 72147  1  0  0  0
 73 76  2  0  0  0
 73148  1  0  0  0
 74 75  2  0  0  0
 74 76  1  0  0  0
 74149  1  0  0  0
 75 80  1  0  0  0
 76 81  1  0  0  0
 77 83  1  0  0  0
 77 84  1  0  0  0
 77 86  2  0  0  0
 78150  1  0  0  0
 78151  1  0  0  0
 78152  1  0  0  0
 78 83  1  0  0  0
 79 83  1  0  0  0
 79153  1  0  0  0
 79154  1  0  0  0
 79155  1  0  0  0
 80 84  1  0  0  0
 80156  1  0  0  0
 80157  1  0  0  0
 81 85  1  0  0  0
 81158  1  0  0  0
 81159  1  0  0  0
 82 83  1  0  0  0
 82160  1  0  0  0
 82161  1  0  0  0
 84162  1  0  0  0
 85163  1  0  0  0
M  ISO  4   1 100  68 101  82 101  85 100
M  END
> <chiral flag>
0

> <version>
0

> <s_m_source_file>
/data/baiqing/PycharmProjects/Reinvent-master-3.2/result/LINK_invent/BTK/process_docking_weight1_custom_product_contain_oxygen_bond_distance_aromatic_linkinvent_7_9_3/rearranged_h_0054.sdf

> <i_m_source_file_index>
30

> <r_mmod_Potential_Energy-OPLS-2005>
-99.9036178588867

> <r_mmod_Stretch_Energy-OPLS-2005>
43.2283706665039

> <r_mmod_Bend_Energy-OPLS-2005>
114.242774963379

> <r_mmod_Torsional_Energy-OPLS-2005>
275.550201416016

> <r_mmod_Improper_Torsional_Energy-OPLS-2005>
14.5176830291748

> <r_mmod_Van_der_Waal_Energy-OPLS-2005>
152.238845825195

> <r_mmod_Electrostatic_Energy-OPLS-2005>
-476.969085693359

> <r_mmod_Solvation_Energy-OPLS-2005>
-238.263076782227

> <b_mmod_Minimization_Converged-OPLS-2005>
0

> <r_mmod_RMS_Derivative-OPLS-2005>
3.24204182624817

$$$$
30
                    3D
 Structure written by MMmdl.
151159  0  0  1  0            999 V2000
  -30.6182  -14.6508   20.4889 C   0  0  0  0  0  0
  -30.4343  -12.3957   19.4577 C   0  0  0  0  0  0
  -29.5097  -12.5117   18.2259 C   0  0  0  0  0  0
  -28.0316  -12.3464   18.6328 C   0  0  0  0  0  0
  -27.6501  -13.2187   19.8584 C   0  0  2  0  0  0
  -28.6913  -13.0857   20.9919 C   0  0  0  0  0  0
  -25.2542  -13.8181   20.5666 C   0  0  0  0  0  0
  -24.1812  -13.0457   20.9192 C   0  0  0  0  0  0
  -24.6371  -11.6919   20.8731 C   0  0  0  0  0  0
  -23.9039  -10.4298   21.0406 C   0  0  0  0  0  0
  -24.3594   -9.4215   21.9183 C   0  0  0  0  0  0
  -23.6271   -8.2250   22.0745 C   0  0  0  0  0  0
  -22.4261   -8.0281   21.3533 C   0  0  0  0  0  0
  -21.9897   -9.0255   20.4649 C   0  0  0  0  0  0
  -22.7219  -10.2137   20.3050 C   0  0  0  0  0  0
  -21.6860   -6.0729   22.5281 C   0  0  0  0  0  0
  -21.4019   -6.5629   23.8210 C   0  0  0  0  0  0
  -21.3666   -5.6777   24.9175 C   0  0  0  0  0  0
  -21.6047   -4.3043   24.7227 C   0  0  0  0  0  0
  -21.8817   -3.8136   23.4346 C   0  0  0  0  0  0
  -21.9196   -4.6954   22.3409 C   0  0  0  0  0  0
  -22.7839  -13.5262   21.1865 C   0  0  0  0  0  0
  -22.1667   -4.2147   21.0981 F   0  0  0  0  0  0
  -21.5637   -3.4521   25.7736 F   0  0  0  0  0  0
  -30.0088  -13.4237   20.4293 N   0  0  0  0  0  0
  -26.2954  -12.9361   20.3257 N   0  0  0  0  0  0
  -25.9298  -11.6510   20.5711 N   0  0  0  0  0  0
  -22.0461  -12.8256   22.0412 N   0  0  0  0  0  0
  -25.4244  -15.1898   20.4087 N   0  0  0  0  0  0
  -31.7887  -14.7985   20.1222 O   0  0  0  0  0  0
  -21.6635   -6.8873   21.4237 O   0  0  0  0  0  0
  -22.3540  -14.5581   20.6729 O   0  0  0  0  0  0
  -24.6265  -31.8612   23.2049 C   0  0  0  0  0  0
  -25.9115  -32.4783   23.8371 C   0  0  1  0  0  0
  -27.2165  -27.3169   20.1104 C   0  0  0  0  0  0
  -25.5942  -33.8583   24.2311 N   0  0  0  0  0  0
  -23.4198  -30.4883   21.5465 C   0  0  2  0  0  0
  -24.8649  -28.9471   20.1101 C   0  0  0  0  0  0
  -22.7481  -29.4638   22.4917 C   0  0  0  0  0  0
  -18.0294  -28.1402   22.8482 C   0  0  0  0  0  0
  -24.1486  -36.7294   23.2634 C   0  0  0  0  0  0
  -25.9617  -30.7891   21.3788 C   0  0  0  0  0  0
  -26.0343  -29.4159   20.7224 C   0  0  0  0  0  0
  -27.2132  -28.6106   20.7180 C   0  0  0  0  0  0
  -26.0288  -26.9151   19.4564 C   0  0  0  0  0  0
  -24.8642  -27.7017   19.4685 C   0  0  0  0  0  0
  -23.6357  -29.8299   20.1593 C   0  0  0  0  0  0
  -25.4107  -36.3086   24.0333 C   0  0  1  0  0  0
  -20.5895  -28.3704   23.1280 C   0  0  2  0  0  0
  -20.6783  -26.9428   22.5400 C   0  0  0  0  0  0
  -19.5755  -26.6398   21.5210 C   0  0  0  0  0  0
  -18.1942  -26.7940   22.1635 C   0  0  0  0  0  0
  -19.1544  -28.8869   23.2884 C   0  0  0  0  0  0
  -18.9462  -30.1468   23.8909 C   0  0  0  0  0  0
  -17.6458  -30.6592   24.0578 C   0  0  0  0  0  0
  -25.9045  -34.9453   23.5116 C   0  0  0  0  0  0
  -16.5355  -29.9096   23.6322 C   0  0  0  0  0  0
  -16.7281  -28.6522   23.0333 C   0  0  0  0  0  0
  -26.4503  -31.6577   25.0730 C   0  0  0  0  0  0
  -25.3742  -31.3713   26.1463 C   0  0  0  0  0  0
  -27.0335  -30.3000   24.6176 C   0  0  0  0  0  0
  -27.6078  -32.4292   25.7498 C   0  0  0  0  0  0
  -27.5580  -37.1804   24.8466 C   0  0  0  0  0  0
  -21.4193  -29.3060   22.3665 N   0  0  0  0  0  0
  -26.4292  -37.3775   23.9411 N   0  0  0  0  0  0
  -24.6879  -31.0627   22.1002 N   0  0  0  0  0  0
  -23.4203  -28.8163   23.2982 O   0  0  0  0  0  0
  -28.3230  -26.4523   20.1399 O   0  0  0  0  0  0
  -26.5595  -34.8917   22.4674 O   0  0  0  0  0  0
  -23.5429  -32.1406   23.7373 O   0  0  0  0  0  0
  -28.7814  -19.3998   20.5810 C   0  0  0  0  0  0
  -28.7609  -17.9817   20.7731 C   0  0  0  0  0  0
  -31.1007  -17.8477   20.2574 C   0  0  0  0  0  0
  -29.9706  -20.0804   20.2182 C   0  0  0  0  0  0
  -29.9121  -17.1592   20.6076 C   0  0  0  0  0  0
  -31.1242  -19.2605   20.0691 C   0  0  0  0  0  0
  -29.2411  -24.0108   20.1397 C   0  0  0  0  0  0
  -30.0931  -21.6198   19.9044 C   0  0  0  0  0  0
  -28.0412  -25.0067   20.3647 C   0  0  0  0  0  0
  -29.8001  -15.7074   20.8040 N   0  0  0  0  0  0
  -29.0635  -22.6526   20.2691 N   0  0  0  0  0  0
  -30.3382  -24.4724   19.8153 O   0  0  0  0  0  0
  -32.2977  -19.8382   19.7167 F   0  0  0  0  0  0
  -31.4775  -12.5160   19.1596 H   0  0  0  0  0  0
  -30.3632  -11.4019   19.9019 H   0  0  0  0  0  0
  -29.7794  -11.7649   17.4785 H   0  0  0  0  0  0
  -29.6500  -13.4844   17.7501 H   0  0  0  0  0  0
  -27.8647  -11.2938   18.8622 H   0  0  0  0  0  0
  -27.3798  -12.5803   17.7899 H   0  0  0  0  0  0
  -27.6650  -14.2510   19.5073 H   0  0  0  0  0  0
  -28.7009  -12.0712   21.3917 H   0  0  0  0  0  0
  -28.4306  -13.7336   21.8316 H   0  0  0  0  0  0
  -25.2738   -9.5720   22.4752 H   0  0  0  0  0  0
  -24.0009   -7.4652   22.7448 H   0  0  0  0  0  0
  -21.0841   -8.8772   19.8949 H   0  0  0  0  0  0
  -22.3676  -10.9673   19.6158 H   0  0  0  0  0  0
  -21.1998   -7.6131   23.9721 H   0  0  0  0  0  0
  -21.1495   -6.0499   25.9080 H   0  0  0  0  0  0
  -22.0587   -2.7596   23.2839 H   0  0  0  0  0  0
  -22.4054  -11.9921   22.4827 H   0  0  0  0  0  0
  -21.1072  -13.1296   22.2601 H   0  0  0  0  0  0
  -24.6471  -15.8347   20.5007 H   0  0  0  0  0  0
  -26.2574  -15.6274   20.0385 H   0  0  0  0  0  0
  -26.7182  -32.5457   23.1116 H   0  0  0  0  0  0
  -25.0132  -33.9729   25.0490 H   0  0  0  0  0  0
  -22.7132  -31.3091   21.4062 H   0  0  0  0  0  0
  -23.3736  -35.9637   23.3308 H   0  0  0  0  0  0
  -24.3581  -36.8897   22.2044 H   0  0  0  0  0  0
  -23.7254  -37.6514   23.6636 H   0  0  0  0  0  0
  -26.0922  -31.5513   20.6091 H   0  0  0  0  0  0
  -26.8433  -30.8397   22.0056 H   0  0  0  0  0  0
  -28.1077  -28.9617   21.2125 H   0  0  0  0  0  0
  -25.9695  -25.9885   18.9076 H   0  0  0  0  0  0
  -23.9746  -27.3478   18.9649 H   0  0  0  0  0  0
  -23.7605  -30.6104   19.4072 H   0  0  0  0  0  0
  -22.7537  -29.2652   19.8514 H   0  0  0  0  0  0
  -25.1279  -36.1942   25.0826 H   0  0  0  0  0  0
  -21.0004  -28.3286   24.1398 H   0  0  0  0  0  0
  -20.5708  -26.2314   23.3598 H   0  0  0  0  0  0
  -21.6651  -26.7475   22.1184 H   0  0  0  0  0  0
  -19.6917  -25.6311   21.1241 H   0  0  0  0  0  0
  -19.6692  -27.3208   20.6737 H   0  0  0  0  0  0
  -17.4204  -26.6677   21.4047 H   0  0  0  0  0  0
  -18.0367  -26.0099   22.9055 H   0  0  0  0  0  0
  -19.7934  -30.7284   24.2296 H   0  0  0  0  0  0
  -17.5009  -31.6264   24.5191 H   0  0  0  0  0  0
  -15.5358  -30.2999   23.7636 H   0  0  0  0  0  0
  -15.8689  -28.0848   22.7025 H   0  0  0  0  0  0
  -24.5909  -30.7074   25.7791 H   0  0  0  0  0  0
  -24.8940  -32.2878   26.4898 H   0  0  0  0  0  0
  -25.8070  -30.8880   27.0230 H   0  0  0  0  0  0
  -26.2901  -29.6752   24.1213 H   0  0  0  0  0  0
  -27.4052  -29.7255   25.4669 H   0  0  0  0  0  0
  -27.8764  -30.4282   23.9381 H   0  0  0  0  0  0
  -27.2719  -33.3606   26.2060 H   0  0  0  0  0  0
  -28.3899  -32.6819   25.0327 H   0  0  0  0  0  0
  -28.0724  -31.8411   26.5423 H   0  0  0  0  0  0
  -28.2588  -38.0106   24.7512 H   0  0  0  0  0  0
  -28.1086  -36.2641   24.6288 H   0  0  0  0  0  0
  -27.2304  -37.1452   25.8870 H   0  0  0  0  0  0
  -20.9361  -29.8799   21.6895 H   0  0  0  0  0  0
  -26.0172  -38.2852   24.1406 H   0  0  0  0  0  0
  -27.8640  -19.9591   20.6961 H   0  0  0  0  0  0
  -27.8212  -17.5225   21.0444 H   0  0  0  0  0  0
  -32.0249  -17.3084   20.1209 H   0  0  0  0  0  0
  -30.2153  -21.6860   18.8221 H   0  0  0  0  0  0
  -31.0487  -21.9498   20.3155 H   0  0  0  0  0  0
  -27.6810  -24.8795   21.3866 H   0  0  0  0  0  0
  -27.2591  -24.6279   19.7118 H   0  0  0  0  0  0
  -28.8868  -15.4017   21.1032 H   0  0  0  0  0  0
  -28.1503  -22.3225   20.5503 H   0  0  0  0  0  0
  1 25  1  0  0  0
  1 30  2  0  0  0
  1 80  1  0  0  0
  2  3  1  0  0  0
  2 25  1  0  0  0
  2 84  1  0  0  0
  2 85  1  0  0  0
  3  4  1  0  0  0
  3 86  1  0  0  0
  3 87  1  0  0  0
  4  5  1  0  0  0
  4 88  1  0  0  0
  4 89  1  0  0  0
  5  6  1  0  0  0
  5 26  1  0  0  0
  5 90  1  0  0  0
  6 25  1  0  0  0
  6 91  1  0  0  0
  6 92  1  0  0  0
  7  8  2  0  0  0
  7 26  1  0  0  0
  7 29  1  0  0  0
  8  9  1  0  0  0
  8 22  1  0  0  0
  9 10  1  0  0  0
  9 27  2  0  0  0
 10 11  2  0  0  0
 10 15  1  0  0  0
 11 12  1  0  0  0
 11 93  1  0  0  0
 12 13  2  0  0  0
 12 94  1  0  0  0
 13 14  1  0  0  0
 13 31  1  0  0  0
 14 15  2  0  0  0
 14 95  1  0  0  0
 15 96  1  0  0  0
 16 17  2  0  0  0
 16 21  1  0  0  0
 16 31  1  0  0  0
 17 18  1  0  0  0
 17 97  1  0  0  0
 18 19  2  0  0  0
 18 98  1  0  0  0
 19 20  1  0  0  0
 19 24  1  0  0  0
 20 21  2  0  0  0
 20 99  1  0  0  0
 21 23  1  0  0  0
 22 28  1  0  0  0
 22 32  2  0  0  0
 26 27  1  0  0  0
 28100  1  0  0  0
 28101  1  0  0  0
 29102  1  0  0  0
 29103  1  0  0  0
 33 34  1  0  0  0
 33 66  1  0  0  0
 33 70  2  0  0  0
 34 36  1  0  0  0
 34 59  1  0  0  0
 34104  1  0  0  0
 35 44  2  0  0  0
 35 45  1  0  0  0
 35 68  1  0  0  0
 36 56  1  0  0  0
 36105  1  0  0  0
 37 39  1  0  0  0
 37 47  1  0  0  0
 37 66  1  0  0  0
 37106  1  0  0  0
 38 43  2  0  0  0
 38 46  1  0  0  0
 38 47  1  0  0  0
 39 64  1  0  0  0
 39 67  2  0  0  0
 40 52  1  0  0  0
 40 53  2  0  0  0
 40 58  1  0  0  0
 41107  1  0  0  0
 41108  1  0  0  0
 41109  1  0  0  0
 41 48  1  0  0  0
 42 43  1  0  0  0
 42 66  1  0  0  0
 42110  1  0  0  0
 42111  1  0  0  0
 43 44  1  0  0  0
 44112  1  0  0  0
 45 46  2  0  0  0
 45113  1  0  0  0
 46114  1  0  0  0
 47115  1  0  0  0
 47116  1  0  0  0
 48 56  1  0  0  0
 48 65  1  0  0  0
 48117  1  0  0  0
 49 50  1  0  0  0
 49 53  1  0  0  0
 49 64  1  0  0  0
 49118  1  0  0  0
 50 51  1  0  0  0
 50119  1  0  0  0
 50120  1  0  0  0
 51 52  1  0  0  0
 51121  1  0  0  0
 51122  1  0  0  0
 52123  1  0  0  0
 52124  1  0  0  0
 53 54  1  0  0  0
 54 55  2  0  0  0
 54125  1  0  0  0
 55 57  1  0  0  0
 55126  1  0  0  0
 56 69  2  0  0  0
 57 58  2  0  0  0
 57127  1  0  0  0
 58128  1  0  0  0
 59 60  1  0  0  0
 59 61  1  0  0  0
 59 62  1  0  0  0
 60129  1  0  0  0
 60130  1  0  0  0
 60131  1  0  0  0
 61132  1  0  0  0
 61133  1  0  0  0
 61134  1  0  0  0
 62135  1  0  0  0
 62136  1  0  0  0
 62137  1  0  0  0
 63 65  1  0  0  0
 63138  1  0  0  0
 63139  1  0  0  0
 63140  1  0  0  0
 64141  1  0  0  0
 65142  1  0  0  0
 68 79  1  0  0  0
 71 72  2  0  0  0
 71 74  1  0  0  0
 71143  1  0  0  0
 72 75  1  0  0  0
 72144  1  0  0  0
 73 75  2  0  0  0
 73 76  1  0  0  0
 73145  1  0  0  0
 74 76  2  0  0  0
 74 78  1  0  0  0
 75 80  1  0  0  0
 76 83  1  0  0  0
 77 79  1  0  0  0
 77 81  1  0  0  0
 77 82  2  0  0  0
 78 81  1  0  0  0
 78146  1  0  0  0
 78147  1  0  0  0
 79148  1  0  0  0
 79149  1  0  0  0
 80150  1  0  0  0
 81151  1  0  0  0
M  ISO  4   1 100  68 101  79 101  80 100
M  END
> <chiral flag>
0

> <version>
0

> <s_m_source_file>
/data/baiqing/PycharmProjects/Reinvent-master-3.2/result/LINK_invent/BTK/process_docking_weight1_custom_product_contain_oxygen_bond_distance_aromatic_linkinvent_7_9_3/rearranged_h_0054.sdf

> <i_m_source_file_index>
31

> <r_mmod_Potential_Energy-OPLS-2005>
14.2365608215332

> <r_mmod_Stretch_Energy-OPLS-2005>
79.1475448608398

> <r_mmod_Bend_Energy-OPLS-2005>
140.470153808594

> <r_mmod_Torsional_Energy-OPLS-2005>
216.263656616211

> <r_mmod_Improper_Torsional_Energy-OPLS-2005>
4.705735206604

> <r_mmod_Van_der_Waal_Energy-OPLS-2005>
146.55354309082

> <r_mmod_Electrostatic_Energy-OPLS-2005>
-375.890625

> <r_mmod_Solvation_Energy-OPLS-2005>
-248.972244262695

> <b_mmod_Minimization_Converged-OPLS-2005>
0

> <r_mmod_RMS_Derivative-OPLS-2005>
2.50171446800232

$$$$
31
                    3D
 Structure written by MMmdl.
160168  0  0  1  0            999 V2000
  -30.5450  -14.7670   20.4699 C   0  0  0  0  0  0
  -30.4405  -12.4648   19.5020 C   0  0  0  0  0  0
  -29.5206  -12.5086   18.2605 C   0  0  0  0  0  0
  -28.0466  -12.3262   18.6692 C   0  0  0  0  0  0
  -27.6423  -13.2273   19.8651 C   0  0  2  0  0  0
  -28.6769  -13.1457   21.0097 C   0  0  0  0  0  0
  -25.2535  -13.8193   20.5831 C   0  0  0  0  0  0
  -24.1792  -13.0448   20.9197 C   0  0  0  0  0  0
  -24.6360  -11.6906   20.8732 C   0  0  0  0  0  0
  -23.9046  -10.4292   21.0406 C   0  0  0  0  0  0
  -24.3606   -9.4222   21.9193 C   0  0  0  0  0  0
  -23.6287   -8.2259   22.0752 C   0  0  0  0  0  0
  -22.4264   -8.0292   21.3543 C   0  0  0  0  0  0
  -21.9900   -9.0263   20.4638 C   0  0  0  0  0  0
  -22.7228  -10.2141   20.3061 C   0  0  0  0  0  0
  -21.6860   -6.0732   22.5283 C   0  0  0  0  0  0
  -21.4011   -6.5639   23.8211 C   0  0  0  0  0  0
  -21.3661   -5.6801   24.9178 C   0  0  0  0  0  0
  -21.6040   -4.3056   24.7239 C   0  0  0  0  0  0
  -21.8814   -3.8145   23.4358 C   0  0  0  0  0  0
  -21.9180   -4.6957   22.3407 C   0  0  0  0  0  0
  -22.7815  -13.5233   21.1843 C   0  0  0  0  0  0
  -22.1648   -4.2155   21.0981 F   0  0  0  0  0  0
  -21.5640   -3.4530   25.7738 F   0  0  0  0  0  0
  -29.9813  -13.5129   20.4454 N   0  0  0  0  0  0
  -26.2921  -12.9376   20.3344 N   0  0  0  0  0  0
  -25.9282  -11.6514   20.5720 N   0  0  0  0  0  0
  -22.0466  -12.8244   22.0400 N   0  0  0  0  0  0
  -25.4363  -15.1942   20.4544 N   0  0  0  0  0  0
  -31.7046  -14.9276   20.0710 O   0  0  0  0  0  0
  -21.6635   -6.8889   21.4245 O   0  0  0  0  0  0
  -22.3521  -14.5553   20.6683 O   0  0  0  0  0  0
  -24.6349  -31.8515   23.2009 C   0  0  0  0  0  0
  -25.9173  -32.4736   23.8345 C   0  0  1  0  0  0
  -27.1837  -27.2316   20.1208 C   0  0  0  0  0  0
  -25.5953  -33.8544   24.2262 N   0  0  0  0  0  0
  -23.4314  -30.4822   21.5412 C   0  0  2  0  0  0
  -24.8636  -28.9329   20.1073 C   0  0  0  0  0  0
  -22.7514  -29.4606   22.4862 C   0  0  0  0  0  0
  -18.0253  -28.1425   22.8508 C   0  0  0  0  0  0
  -24.1498  -36.7260   23.2649 C   0  0  0  0  0  0
  -25.9820  -30.7558   21.3852 C   0  0  0  0  0  0
  -26.0408  -29.3811   20.7166 C   0  0  0  0  0  0
  -27.2058  -28.5450   20.7063 C   0  0  0  0  0  0
  -25.9754  -26.8524   19.4914 C   0  0  0  0  0  0
  -24.8388  -27.6795   19.4845 C   0  0  0  0  0  0
  -23.6494  -29.8347   20.1514 C   0  0  0  0  0  0
  -25.4130  -36.3074   24.0344 C   0  0  1  0  0  0
  -20.5885  -28.3633   23.1108 C   0  0  2  0  0  0
  -20.6659  -26.9376   22.5146 C   0  0  0  0  0  0
  -19.5544  -26.6523   21.5002 C   0  0  0  0  0  0
  -18.1827  -26.7992   22.1605 C   0  0  0  0  0  0
  -19.1551  -28.8862   23.2829 C   0  0  0  0  0  0
  -18.9531  -30.1444   23.8878 C   0  0  0  0  0  0
  -17.6525  -30.6586   24.0596 C   0  0  0  0  0  0
  -25.9065  -34.9438   23.5108 C   0  0  0  0  0  0
  -16.5371  -29.9117   23.6387 C   0  0  0  0  0  0
  -16.7255  -28.6552   23.0396 C   0  0  0  0  0  0
  -26.4540  -31.6574   25.0735 C   0  0  0  0  0  0
  -25.3751  -31.3698   26.1437 C   0  0  0  0  0  0
  -27.0416  -30.2979   24.6281 C   0  0  0  0  0  0
  -27.6101  -32.4339   25.7503 C   0  0  0  0  0  0
  -27.5584  -37.1787   24.8476 C   0  0  0  0  0  0
  -21.4240  -29.2930   22.3472 N   0  0  0  0  0  0
  -26.4305  -37.3762   23.9419 N   0  0  0  0  0  0
  -24.7031  -31.0518   22.0957 N   0  0  0  0  0  0
  -23.4161  -28.8244   23.3085 O   0  0  0  0  0  0
  -28.2842  -26.3431   20.1798 O   0  0  0  0  0  0
  -26.5637  -34.8932   22.4670 O   0  0  0  0  0  0
  -23.5485  -32.1362   23.7290 O   0  0  0  0  0  0
  -28.4840  -19.5471   18.9390 C   0  0  0  0  0  0
  -29.3826  -18.4366   20.9099 C   0  0  0  0  0  0
  -29.0435  -17.1463   18.8849 C   0  0  0  0  0  0
  -28.9182  -19.6712   20.2747 C   0  0  0  0  0  0
  -28.5365  -18.3088   18.2637 C   0  0  0  0  0  0
  -29.4715  -17.1500   20.2303 C   0  0  0  0  0  0
  -28.7914  -21.0466   21.0030 C   0  0  0  0  0  0
  -27.9721  -18.2131   16.8622 C   0  0  0  0  0  0
  -27.1256  -23.7593   21.7475 C   0  0  0  0  0  0
  -29.6455  -24.0073   21.6728 C   0  0  0  0  0  0
  -28.2393  -24.8850   19.7687 C   0  0  0  0  0  0
  -28.3845  -23.6871   20.8551 C   0  0  0  0  0  0
  -29.7414  -15.8330   20.8658 N   0  0  0  0  0  0
  -28.5295  -22.2394   20.3268 N   0  0  0  0  0  0
  -28.9415  -21.0431   22.2248 O   0  0  0  0  0  0
  -31.4832  -12.6055   19.2140 H   0  0  0  0  0  0
  -30.3962  -11.4895   19.9882 H   0  0  0  0  0  0
  -29.8125  -11.7314   17.5521 H   0  0  0  0  0  0
  -29.6454  -13.4603   17.7431 H   0  0  0  0  0  0
  -27.9134  -11.2804   18.9475 H   0  0  0  0  0  0
  -27.3861  -12.5050   17.8213 H   0  0  0  0  0  0
  -27.6386  -14.2489   19.4874 H   0  0  0  0  0  0
  -28.7157  -12.1464   21.4408 H   0  0  0  0  0  0
  -28.3970  -13.8107   21.8300 H   0  0  0  0  0  0
  -25.2760   -9.5697   22.4760 H   0  0  0  0  0  0
  -24.0001   -7.4648   22.7461 H   0  0  0  0  0  0
  -21.0846   -8.8790   19.8933 H   0  0  0  0  0  0
  -22.3713  -10.9684   19.6168 H   0  0  0  0  0  0
  -21.2011   -7.6149   23.9729 H   0  0  0  0  0  0
  -21.1484   -6.0516   25.9083 H   0  0  0  0  0  0
  -22.0590   -2.7612   23.2850 H   0  0  0  0  0  0
  -22.4105  -11.9917   22.4790 H   0  0  0  0  0  0
  -21.1081  -13.1245   22.2637 H   0  0  0  0  0  0
  -24.7064  -15.8611   20.6788 H   0  0  0  0  0  0
  -26.3257  -15.6344   20.2628 H   0  0  0  0  0  0
  -26.7223  -32.5339   23.1066 H   0  0  0  0  0  0
  -25.0145  -33.9672   25.0432 H   0  0  0  0  0  0
  -22.7296  -31.3072   21.4010 H   0  0  0  0  0  0
  -23.3765  -35.9571   23.3311 H   0  0  0  0  0  0
  -24.3590  -36.8861   22.2058 H   0  0  0  0  0  0
  -23.7227  -37.6460   23.6657 H   0  0  0  0  0  0
  -26.1543  -31.5240   20.6311 H   0  0  0  0  0  0
  -26.8460  -30.7793   22.0374 H   0  0  0  0  0  0
  -28.1128  -28.8903   21.1849 H   0  0  0  0  0  0
  -25.8475  -25.9020   19.0022 H   0  0  0  0  0  0
  -23.9372  -27.3386   18.9959 H   0  0  0  0  0  0
  -23.7980  -30.6168   19.4075 H   0  0  0  0  0  0
  -22.7607  -29.2901   19.8318 H   0  0  0  0  0  0
  -25.1310  -36.1938   25.0828 H   0  0  0  0  0  0
  -21.0029  -28.3101   24.1202 H   0  0  0  0  0  0
  -20.5570  -26.2204   23.3295 H   0  0  0  0  0  0
  -21.6403  -26.7321   22.0726 H   0  0  0  0  0  0
  -19.6603  -25.6476   21.0895 H   0  0  0  0  0  0
  -19.6400  -27.3420   20.6568 H   0  0  0  0  0  0
  -17.4009  -26.6790   21.4066 H   0  0  0  0  0  0
  -18.0334  -26.0089   22.8973 H   0  0  0  0  0  0
  -19.8047  -30.7211   24.2219 H   0  0  0  0  0  0
  -17.5081  -31.6262   24.5198 H   0  0  0  0  0  0
  -15.5390  -30.3025   23.7750 H   0  0  0  0  0  0
  -15.8630  -28.0909   22.7125 H   0  0  0  0  0  0
  -24.5919  -30.7084   25.7715 H   0  0  0  0  0  0
  -24.8942  -32.2837   26.4937 H   0  0  0  0  0  0
  -25.8030  -30.8783   27.0176 H   0  0  0  0  0  0
  -26.2995  -29.6680   24.1343 H   0  0  0  0  0  0
  -27.4105  -29.7332   25.4860 H   0  0  0  0  0  0
  -27.8902  -30.4251   23.9548 H   0  0  0  0  0  0
  -27.2722  -33.3631   26.2120 H   0  0  0  0  0  0
  -28.3887  -32.6907   25.0307 H   0  0  0  0  0  0
  -28.0821  -31.8435   26.5377 H   0  0  0  0  0  0
  -28.2624  -38.0065   24.7527 H   0  0  0  0  0  0
  -28.1065  -36.2600   24.6319 H   0  0  0  0  0  0
  -27.2298  -37.1463   25.8875 H   0  0  0  0  0  0
  -20.9548  -29.8327   21.6338 H   0  0  0  0  0  0
  -26.0191  -38.2835   24.1380 H   0  0  0  0  0  0
  -28.0636  -20.4030   18.4314 H   0  0  0  0  0  0
  -29.6529  -18.4792   21.9549 H   0  0  0  0  0  0
  -29.0365  -16.2201   18.3303 H   0  0  0  0  0  0
  -26.8931  -18.0671   16.9125 H   0  0  0  0  0  0
  -28.4036  -17.3754   16.3169 H   0  0  0  0  0  0
  -28.1703  -19.1225   16.2972 H   0  0  0  0  0  0
  -27.0615  -24.7268   22.2448 H   0  0  0  0  0  0
  -27.1130  -22.9946   22.5257 H   0  0  0  0  0  0
  -26.2128  -23.6424   21.1594 H   0  0  0  0  0  0
  -29.6987  -25.0660   21.9235 H   0  0  0  0  0  0
  -30.5467  -23.7563   21.1098 H   0  0  0  0  0  0
  -29.6721  -23.4589   22.6135 H   0  0  0  0  0  0
  -29.0809  -24.7838   19.0834 H   0  0  0  0  0  0
  -27.3902  -24.6462   19.1371 H   0  0  0  0  0  0
  -28.9314  -15.4914   21.3662 H   0  0  0  0  0  0
  -28.3954  -22.1382   19.3287 H   0  0  0  0  0  0
  1 25  1  0  0  0
  1 30  2  0  0  0
  1 83  1  0  0  0
  2  3  1  0  0  0
  2 25  1  0  0  0
  2 86  1  0  0  0
  2 87  1  0  0  0
  3  4  1  0  0  0
  3 88  1  0  0  0
  3 89  1  0  0  0
  4  5  1  0  0  0
  4 90  1  0  0  0
  4 91  1  0  0  0
  5  6  1  0  0  0
  5 26  1  0  0  0
  5 92  1  0  0  0
  6 25  1  0  0  0
  6 93  1  0  0  0
  6 94  1  0  0  0
  7  8  2  0  0  0
  7 26  1  0  0  0
  7 29  1  0  0  0
  8  9  1  0  0  0
  8 22  1  0  0  0
  9 10  1  0  0  0
  9 27  2  0  0  0
 10 11  2  0  0  0
 10 15  1  0  0  0
 11 12  1  0  0  0
 11 95  1  0  0  0
 12 13  2  0  0  0
 12 96  1  0  0  0
 13 14  1  0  0  0
 13 31  1  0  0  0
 14 15  2  0  0  0
 14 97  1  0  0  0
 15 98  1  0  0  0
 16 17  2  0  0  0
 16 21  1  0  0  0
 16 31  1  0  0  0
 17 18  1  0  0  0
 17 99  1  0  0  0
 18 19  2  0  0  0
 18100  1  0  0  0
 19 20  1  0  0  0
 19 24  1  0  0  0
 20 21  2  0  0  0
 20101  1  0  0  0
 21 23  1  0  0  0
 22 28  1  0  0  0
 22 32  2  0  0  0
 26 27  1  0  0  0
 28102  1  0  0  0
 28103  1  0  0  0
 29104  1  0  0  0
 29105  1  0  0  0
 33 34  1  0  0  0
 33 66  1  0  0  0
 33 70  2  0  0  0
 34 36  1  0  0  0
 34 59  1  0  0  0
 34106  1  0  0  0
 35 44  2  0  0  0
 35 45  1  0  0  0
 35 68  1  0  0  0
 36 56  1  0  0  0
 36107  1  0  0  0
 37 39  1  0  0  0
 37 47  1  0  0  0
 37 66  1  0  0  0
 37108  1  0  0  0
 38 43  2  0  0  0
 38 46  1  0  0  0
 38 47  1  0  0  0
 39 64  1  0  0  0
 39 67  2  0  0  0
 40 52  1  0  0  0
 40 53  2  0  0  0
 40 58  1  0  0  0
 41109  1  0  0  0
 41110  1  0  0  0
 41111  1  0  0  0
 41 48  1  0  0  0
 42 43  1  0  0  0
 42 66  1  0  0  0
 42112  1  0  0  0
 42113  1  0  0  0
 43 44  1  0  0  0
 44114  1  0  0  0
 45 46  2  0  0  0
 45115  1  0  0  0
 46116  1  0  0  0
 47117  1  0  0  0
 47118  1  0  0  0
 48 56  1  0  0  0
 48 65  1  0  0  0
 48119  1  0  0  0
 49 50  1  0  0  0
 49 53  1  0  0  0
 49 64  1  0  0  0
 49120  1  0  0  0
 50 51  1  0  0  0
 50121  1  0  0  0
 50122  1  0  0  0
 51 52  1  0  0  0
 51123  1  0  0  0
 51124  1  0  0  0
 52125  1  0  0  0
 52126  1  0  0  0
 53 54  1  0  0  0
 54 55  2  0  0  0
 54127  1  0  0  0
 55 57  1  0  0  0
 55128  1  0  0  0
 56 69  2  0  0  0
 57 58  2  0  0  0
 57129  1  0  0  0
 58130  1  0  0  0
 59 60  1  0  0  0
 59 61  1  0  0  0
 59 62  1  0  0  0
 60131  1  0  0  0
 60132  1  0  0  0
 60133  1  0  0  0
 61134  1  0  0  0
 61135  1  0  0  0
 61136  1  0  0  0
 62137  1  0  0  0
 62138  1  0  0  0
 62139  1  0  0  0
 63 65  1  0  0  0
 63140  1  0  0  0
 63141  1  0  0  0
 63142  1  0  0  0
 64143  1  0  0  0
 65144  1  0  0  0
 68 81  1  0  0  0
 71 74  2  0  0  0
 71 75  1  0  0  0
 71145  1  0  0  0
 72 74  1  0  0  0
 72 76  2  0  0  0
 72146  1  0  0  0
 73 75  2  0  0  0
 73 76  1  0  0  0
 73147  1  0  0  0
 74 77  1  0  0  0
 75 78  1  0  0  0
 76 83  1  0  0  0
 77 84  1  0  0  0
 77 85  2  0  0  0
 78148  1  0  0  0
 78149  1  0  0  0
 78150  1  0  0  0
 79151  1  0  0  0
 79152  1  0  0  0
 79153  1  0  0  0
 79 82  1  0  0  0
 80 82  1  0  0  0
 80154  1  0  0  0
 80155  1  0  0  0
 80156  1  0  0  0
 81 82  1  0  0  0
 81157  1  0  0  0
 81158  1  0  0  0
 82 84  1  0  0  0
 83159  1  0  0  0
 84160  1  0  0  0
M  ISO  4   1 100  68 101  81 101  83 100
M  END
> <chiral flag>
0

> <version>
0

> <s_m_source_file>
/data/baiqing/PycharmProjects/Reinvent-master-3.2/result/LINK_invent/BTK/process_docking_weight1_custom_product_contain_oxygen_bond_distance_aromatic_linkinvent_7_9_3/rearranged_h_0054.sdf

> <i_m_source_file_index>
32

> <r_mmod_Potential_Energy-OPLS-2005>
140.674026489258

> <r_mmod_Stretch_Energy-OPLS-2005>
131.656143188477

> <r_mmod_Bend_Energy-OPLS-2005>
174.179138183594

> <r_mmod_Torsional_Energy-OPLS-2005>
247.348907470703

> <r_mmod_Improper_Torsional_Energy-OPLS-2005>
6.70042133331299

> <r_mmod_Van_der_Waal_Energy-OPLS-2005>
138.076568603516

> <r_mmod_Electrostatic_Energy-OPLS-2005>
-428.946044921875

> <r_mmod_Solvation_Energy-OPLS-2005>
-229.438262939453

> <b_mmod_Minimization_Converged-OPLS-2005>
0

> <r_mmod_RMS_Derivative-OPLS-2005>
6.01181650161743

$$$$
32
                    3D
 Structure written by MMmdl.
151159  0  0  1  0            999 V2000
  -30.6863  -14.6286   20.4780 C   0  0  0  0  0  0
  -30.4136  -12.3855   19.4616 C   0  0  0  0  0  0
  -29.4983  -12.4926   18.2252 C   0  0  0  0  0  0
  -28.0231  -12.3388   18.6394 C   0  0  0  0  0  0
  -27.6438  -13.2299   19.8534 C   0  0  2  0  0  0
  -28.6889  -13.1413   20.9874 C   0  0  0  0  0  0
  -25.2515  -13.8205   20.5698 C   0  0  0  0  0  0
  -24.1803  -13.0449   20.9206 C   0  0  0  0  0  0
  -24.6392  -11.6926   20.8752 C   0  0  0  0  0  0
  -23.9070  -10.4299   21.0408 C   0  0  0  0  0  0
  -24.3621   -9.4212   21.9184 C   0  0  0  0  0  0
  -23.6298   -8.2246   22.0754 C   0  0  0  0  0  0
  -22.4279   -8.0284   21.3544 C   0  0  0  0  0  0
  -21.9915   -9.0257   20.4646 C   0  0  0  0  0  0
  -22.7243  -10.2137   20.3057 C   0  0  0  0  0  0
  -21.6855   -6.0738   22.5279 C   0  0  0  0  0  0
  -21.4015   -6.5641   23.8213 C   0  0  0  0  0  0
  -21.3660   -5.6793   24.9175 C   0  0  0  0  0  0
  -21.6044   -4.3056   24.7224 C   0  0  0  0  0  0
  -21.8819   -3.8147   23.4345 C   0  0  0  0  0  0
  -21.9193   -4.6965   22.3403 C   0  0  0  0  0  0
  -22.7823  -13.5227   21.1864 C   0  0  0  0  0  0
  -22.1662   -4.2151   21.0980 F   0  0  0  0  0  0
  -21.5628   -3.4538   25.7737 F   0  0  0  0  0  0
  -29.9998  -13.4459   20.4042 N   0  0  0  0  0  0
  -26.2946  -12.9413   20.3303 N   0  0  0  0  0  0
  -25.9323  -11.6555   20.5768 N   0  0  0  0  0  0
  -22.0470  -12.8215   22.0421 N   0  0  0  0  0  0
  -25.4206  -15.1928   20.4108 N   0  0  0  0  0  0
  -31.8743  -14.6788   20.1527 O   0  0  0  0  0  0
  -21.6643   -6.8881   21.4241 O   0  0  0  0  0  0
  -22.3505  -14.5530   20.6710 O   0  0  0  0  0  0
  -24.6248  -31.8608   23.2038 C   0  0  0  0  0  0
  -25.9102  -32.4784   23.8362 C   0  0  1  0  0  0
  -27.2170  -27.3313   20.1228 C   0  0  0  0  0  0
  -25.5926  -33.8584   24.2290 N   0  0  0  0  0  0
  -23.4181  -30.4848   21.5456 C   0  0  2  0  0  0
  -24.8653  -28.9429   20.1095 C   0  0  0  0  0  0
  -22.7468  -29.4628   22.4938 C   0  0  0  0  0  0
  -18.0284  -28.1383   22.8485 C   0  0  0  0  0  0
  -24.1490  -36.7294   23.2638 C   0  0  0  0  0  0
  -25.9581  -30.7962   21.3733 C   0  0  0  0  0  0
  -26.0335  -29.4247   20.7158 C   0  0  0  0  0  0
  -27.2169  -28.6300   20.7132 C   0  0  0  0  0  0
  -26.0357  -26.9040   19.4808 C   0  0  0  0  0  0
  -24.8674  -27.6875   19.4817 C   0  0  0  0  0  0
  -23.6324  -29.8209   20.1601 C   0  0  0  0  0  0
  -25.4112  -36.3086   24.0333 C   0  0  1  0  0  0
  -20.5883  -28.3685   23.1286 C   0  0  2  0  0  0
  -20.6772  -26.9410   22.5411 C   0  0  0  0  0  0
  -19.5751  -26.6383   21.5210 C   0  0  0  0  0  0
  -18.1930  -26.7927   22.1620 C   0  0  0  0  0  0
  -19.1535  -28.8851   23.2881 C   0  0  0  0  0  0
  -18.9459  -30.1453   23.8896 C   0  0  0  0  0  0
  -17.6460  -30.6586   24.0562 C   0  0  0  0  0  0
  -25.9049  -34.9455   23.5110 C   0  0  0  0  0  0
  -16.5351  -29.9085   23.6331 C   0  0  0  0  0  0
  -16.7271  -28.6502   23.0351 C   0  0  0  0  0  0
  -26.4494  -31.6588   25.0725 C   0  0  0  0  0  0
  -25.3736  -31.3722   26.1459 C   0  0  0  0  0  0
  -27.0329  -30.3011   24.6168 C   0  0  0  0  0  0
  -27.6056  -32.4320   25.7492 C   0  0  0  0  0  0
  -27.5583  -37.1797   24.8462 C   0  0  0  0  0  0
  -21.4183  -29.3041   22.3682 N   0  0  0  0  0  0
  -26.4289  -37.3782   23.9416 N   0  0  0  0  0  0
  -24.6856  -31.0634   22.0980 N   0  0  0  0  0  0
  -23.4199  -28.8167   23.3011 O   0  0  0  0  0  0
  -28.3059  -26.4562   20.1640 O   0  0  0  0  0  0
  -26.5612  -34.8921   22.4673 O   0  0  0  0  0  0
  -23.5415  -32.1399   23.7375 O   0  0  0  0  0  0
  -30.5555  -19.5911   19.7610 C   0  0  0  0  0  0
  -30.0853  -20.9351   19.8015 C   0  0  0  0  0  0
  -28.8237  -18.8931   21.2770 C   0  0  0  0  0  0
  -29.9563  -18.5351   20.5039 C   0  0  0  0  0  0
  -28.9766  -21.3011   20.6047 C   0  0  0  0  0  0
  -28.3516  -20.2420   21.3239 C   0  0  0  0  0  0
  -28.8114  -23.8847   20.2641 C   0  0  0  0  0  0
  -30.6760  -17.1379   20.5337 C   0  0  0  0  0  0
  -28.0280  -25.1468   20.8006 C   0  0  0  0  0  0
  -28.4588  -22.6596   20.7717 N   0  0  0  0  0  0
  -30.0034  -15.8007   20.6915 N   0  0  0  0  0  0
  -29.6995  -24.0294   19.4196 O   0  0  0  0  0  0
  -27.2834  -20.5345   22.1051 F   0  0  0  0  0  0
  -31.4596  -12.4695   19.1620 H   0  0  0  0  0  0
  -30.3174  -11.4045   19.9297 H   0  0  0  0  0  0
  -29.7621  -11.7297   17.4916 H   0  0  0  0  0  0
  -29.6470  -13.4557   17.7341 H   0  0  0  0  0  0
  -27.8617  -11.2890   18.8873 H   0  0  0  0  0  0
  -27.3681  -12.5537   17.7942 H   0  0  0  0  0  0
  -27.6478  -14.2566   19.4866 H   0  0  0  0  0  0
  -28.6964  -12.1457   21.4335 H   0  0  0  0  0  0
  -28.4459  -13.8367   21.7923 H   0  0  0  0  0  0
  -25.2766   -9.5690   22.4759 H   0  0  0  0  0  0
  -24.0008   -7.4637   22.7471 H   0  0  0  0  0  0
  -21.0847   -8.8776   19.8951 H   0  0  0  0  0  0
  -22.3699  -10.9677   19.6167 H   0  0  0  0  0  0
  -21.2008   -7.6150   23.9717 H   0  0  0  0  0  0
  -21.1481   -6.0522   25.9078 H   0  0  0  0  0  0
  -22.0597   -2.7609   23.2844 H   0  0  0  0  0  0
  -22.4089  -11.9876   22.4806 H   0  0  0  0  0  0
  -21.1089  -13.1238   22.2632 H   0  0  0  0  0  0
  -24.6521  -15.8459   20.5184 H   0  0  0  0  0  0
  -26.2673  -15.6319   20.0728 H   0  0  0  0  0  0
  -26.7171  -32.5461   23.1114 H   0  0  0  0  0  0
  -25.0088  -33.9733   25.0445 H   0  0  0  0  0  0
  -22.7114  -31.3050   21.4037 H   0  0  0  0  0  0
  -23.3754  -35.9623   23.3293 H   0  0  0  0  0  0
  -24.3586  -36.8918   22.2053 H   0  0  0  0  0  0
  -23.7237  -37.6494   23.6659 H   0  0  0  0  0  0
  -26.0883  -31.5605   20.6059 H   0  0  0  0  0  0
  -26.8392  -30.8447   22.0017 H   0  0  0  0  0  0
  -28.1126  -28.9905   21.1995 H   0  0  0  0  0  0
  -26.0065  -25.9412   18.9902 H   0  0  0  0  0  0
  -23.9740  -27.3151   18.9993 H   0  0  0  0  0  0
  -23.7504  -30.5982   19.4042 H   0  0  0  0  0  0
  -22.7530  -29.2494   19.8576 H   0  0  0  0  0  0
  -25.1289  -36.1937   25.0825 H   0  0  0  0  0  0
  -20.9974  -28.3257   24.1406 H   0  0  0  0  0  0
  -20.5670  -26.2294   23.3608 H   0  0  0  0  0  0
  -21.6642  -26.7440   22.1206 H   0  0  0  0  0  0
  -19.6913  -25.6294   21.1241 H   0  0  0  0  0  0
  -19.6692  -27.3193   20.6739 H   0  0  0  0  0  0
  -17.4201  -26.6674   21.4022 H   0  0  0  0  0  0
  -18.0331  -26.0069   22.9016 H   0  0  0  0  0  0
  -19.7936  -30.7268   24.2265 H   0  0  0  0  0  0
  -17.5016  -31.6266   24.5163 H   0  0  0  0  0  0
  -15.5352  -30.2986   23.7658 H   0  0  0  0  0  0
  -15.8670  -28.0823   22.7066 H   0  0  0  0  0  0
  -24.5917  -30.7058   25.7798 H   0  0  0  0  0  0
  -24.8919  -32.2885   26.4881 H   0  0  0  0  0  0
  -25.8074  -30.8912   27.0235 H   0  0  0  0  0  0
  -26.2894  -29.6768   24.1199 H   0  0  0  0  0  0
  -27.4035  -29.7262   25.4666 H   0  0  0  0  0  0
  -27.8764  -30.4297   23.9381 H   0  0  0  0  0  0
  -27.2667  -33.3619   26.2072 H   0  0  0  0  0  0
  -28.3863  -32.6883   25.0317 H   0  0  0  0  0  0
  -28.0729  -31.8445   26.5405 H   0  0  0  0  0  0
  -28.2587  -38.0108   24.7529 H   0  0  0  0  0  0
  -28.1092  -36.2641   24.6256 H   0  0  0  0  0  0
  -27.2308  -37.1409   25.8866 H   0  0  0  0  0  0
  -20.9356  -29.8768   21.6900 H   0  0  0  0  0  0
  -26.0170  -38.2854   24.1430 H   0  0  0  0  0  0
  -31.4332  -19.3811   19.1647 H   0  0  0  0  0  0
  -30.6114  -21.6825   19.2260 H   0  0  0  0  0  0
  -28.3316  -18.1449   21.8809 H   0  0  0  0  0  0
  -31.4223  -17.2046   21.3271 H   0  0  0  0  0  0
  -31.2547  -17.0893   19.6090 H   0  0  0  0  0  0
  -28.2758  -25.2517   21.8572 H   0  0  0  0  0  0
  -26.9681  -24.8937   20.7810 H   0  0  0  0  0  0
  -27.6911  -22.7034   21.4290 H   0  0  0  0  0  0
  -29.0163  -15.7669   20.8934 H   0  0  0  0  0  0
  1 25  1  0  0  0
  1 30  2  0  0  0
  1 81  1  0  0  0
  2  3  1  0  0  0
  2 25  1  0  0  0
  2 84  1  0  0  0
  2 85  1  0  0  0
  3  4  1  0  0  0
  3 86  1  0  0  0
  3 87  1  0  0  0
  4  5  1  0  0  0
  4 88  1  0  0  0
  4 89  1  0  0  0
  5  6  1  0  0  0
  5 26  1  0  0  0
  5 90  1  0  0  0
  6 25  1  0  0  0
  6 91  1  0  0  0
  6 92  1  0  0  0
  7  8  2  0  0  0
  7 26  1  0  0  0
  7 29  1  0  0  0
  8  9  1  0  0  0
  8 22  1  0  0  0
  9 10  1  0  0  0
  9 27  2  0  0  0
 10 11  2  0  0  0
 10 15  1  0  0  0
 11 12  1  0  0  0
 11 93  1  0  0  0
 12 13  2  0  0  0
 12 94  1  0  0  0
 13 14  1  0  0  0
 13 31  1  0  0  0
 14 15  2  0  0  0
 14 95  1  0  0  0
 15 96  1  0  0  0
 16 17  2  0  0  0
 16 21  1  0  0  0
 16 31  1  0  0  0
 17 18  1  0  0  0
 17 97  1  0  0  0
 18 19  2  0  0  0
 18 98  1  0  0  0
 19 20  1  0  0  0
 19 24  1  0  0  0
 20 21  2  0  0  0
 20 99  1  0  0  0
 21 23  1  0  0  0
 22 28  1  0  0  0
 22 32  2  0  0  0
 26 27  1  0  0  0
 28100  1  0  0  0
 28101  1  0  0  0
 29102  1  0  0  0
 29103  1  0  0  0
 33 34  1  0  0  0
 33 66  1  0  0  0
 33 70  2  0  0  0
 34 36  1  0  0  0
 34 59  1  0  0  0
 34104  1  0  0  0
 35 44  2  0  0  0
 35 45  1  0  0  0
 35 68  1  0  0  0
 36 56  1  0  0  0
 36105  1  0  0  0
 37 39  1  0  0  0
 37 47  1  0  0  0
 37 66  1  0  0  0
 37106  1  0  0  0
 38 43  2  0  0  0
 38 46  1  0  0  0
 38 47  1  0  0  0
 39 64  1  0  0  0
 39 67  2  0  0  0
 40 52  1  0  0  0
 40 53  2  0  0  0
 40 58  1  0  0  0
 41107  1  0  0  0
 41108  1  0  0  0
 41109  1  0  0  0
 41 48  1  0  0  0
 42 43  1  0  0  0
 42 66  1  0  0  0
 42110  1  0  0  0
 42111  1  0  0  0
 43 44  1  0  0  0
 44112  1  0  0  0
 45 46  2  0  0  0
 45113  1  0  0  0
 46114  1  0  0  0
 47115  1  0  0  0
 47116  1  0  0  0
 48 56  1  0  0  0
 48 65  1  0  0  0
 48117  1  0  0  0
 49 50  1  0  0  0
 49 53  1  0  0  0
 49 64  1  0  0  0
 49118  1  0  0  0
 50 51  1  0  0  0
 50119  1  0  0  0
 50120  1  0  0  0
 51 52  1  0  0  0
 51121  1  0  0  0
 51122  1  0  0  0
 52123  1  0  0  0
 52124  1  0  0  0
 53 54  1  0  0  0
 54 55  2  0  0  0
 54125  1  0  0  0
 55 57  1  0  0  0
 55126  1  0  0  0
 56 69  2  0  0  0
 57 58  2  0  0  0
 57127  1  0  0  0
 58128  1  0  0  0
 59 60  1  0  0  0
 59 61  1  0  0  0
 59 62  1  0  0  0
 60129  1  0  0  0
 60130  1  0  0  0
 60131  1  0  0  0
 61132  1  0  0  0
 61133  1  0  0  0
 61134  1  0  0  0
 62135  1  0  0  0
 62136  1  0  0  0
 62137  1  0  0  0
 63 65  1  0  0  0
 63138  1  0  0  0
 63139  1  0  0  0
 63140  1  0  0  0
 64141  1  0  0  0
 65142  1  0  0  0
 68 79  1  0  0  0
 71 72  2  0  0  0
 71 74  1  0  0  0
 71143  1  0  0  0
 72 75  1  0  0  0
 72144  1  0  0  0
 73 74  2  0  0  0
 73 76  1  0  0  0
 73145  1  0  0  0
 74 78  1  0  0  0
 75 76  2  0  0  0
 75 80  1  0  0  0
 76 83  1  0  0  0
 77 79  1  0  0  0
 77 80  1  0  0  0
 77 82  2  0  0  0
 78 81  1  0  0  0
 78146  1  0  0  0
 78147  1  0  0  0
 79148  1  0  0  0
 79149  1  0  0  0
 80150  1  0  0  0
 81151  1  0  0  0
M  ISO  4   1 100  68 101  79 101  81 100
M  END
> <chiral flag>
0

> <version>
0

> <s_m_source_file>
/data/baiqing/PycharmProjects/Reinvent-master-3.2/result/LINK_invent/BTK/process_docking_weight1_custom_product_contain_oxygen_bond_distance_aromatic_linkinvent_7_9_3/rearranged_h_0054.sdf

> <i_m_source_file_index>
33

> <r_mmod_Potential_Energy-OPLS-2005>
-21.2444076538086

> <r_mmod_Stretch_Energy-OPLS-2005>
73.6697311401367

> <r_mmod_Bend_Energy-OPLS-2005>
149.391311645508

> <r_mmod_Torsional_Energy-OPLS-2005>
228.382843017578

> <r_mmod_Improper_Torsional_Energy-OPLS-2005>
5.60812139511108

> <r_mmod_Van_der_Waal_Energy-OPLS-2005>
146.287445068359

> <r_mmod_Electrostatic_Energy-OPLS-2005>
-443.532440185547

> <r_mmod_Solvation_Energy-OPLS-2005>
-232.210601806641

> <b_mmod_Minimization_Converged-OPLS-2005>
0

> <r_mmod_RMS_Derivative-OPLS-2005>
0.230135828256607

$$$$
33
                    3D
 Structure written by MMmdl.
161170  0  0  1  0            999 V2000
  -30.7016  -14.6053   20.4996 C   0  0  0  0  0  0
  -30.4175  -12.3678   19.4587 C   0  0  0  0  0  0
  -29.5044  -12.5053   18.2228 C   0  0  0  0  0  0
  -28.0273  -12.3480   18.6316 C   0  0  0  0  0  0
  -27.6504  -13.2266   19.8559 C   0  0  2  0  0  0
  -28.6980  -13.1195   20.9886 C   0  0  0  0  0  0
  -25.2543  -13.8188   20.5692 C   0  0  0  0  0  0
  -24.1826  -13.0436   20.9183 C   0  0  0  0  0  0
  -24.6403  -11.6915   20.8711 C   0  0  0  0  0  0
  -23.9076  -10.4287   21.0371 C   0  0  0  0  0  0
  -24.3628   -9.4204   21.9153 C   0  0  0  0  0  0
  -23.6295   -8.2247   22.0748 C   0  0  0  0  0  0
  -22.4274   -8.0282   21.3537 C   0  0  0  0  0  0
  -21.9899   -9.0257   20.4638 C   0  0  0  0  0  0
  -22.7239  -10.2126   20.3031 C   0  0  0  0  0  0
  -21.6864   -6.0727   22.5269 C   0  0  0  0  0  0
  -21.4027   -6.5636   23.8199 C   0  0  0  0  0  0
  -21.3660   -5.6791   24.9163 C   0  0  0  0  0  0
  -21.6038   -4.3054   24.7212 C   0  0  0  0  0  0
  -21.8822   -3.8139   23.4339 C   0  0  0  0  0  0
  -21.9196   -4.6954   22.3392 C   0  0  0  0  0  0
  -22.7843  -13.5214   21.1850 C   0  0  0  0  0  0
  -22.1664   -4.2145   21.0966 F   0  0  0  0  0  0
  -21.5629   -3.4533   25.7721 F   0  0  0  0  0  0
  -30.0168  -13.4224   20.4137 N   0  0  0  0  0  0
  -26.2982  -12.9398   20.3287 N   0  0  0  0  0  0
  -25.9333  -11.6540   20.5734 N   0  0  0  0  0  0
  -22.0498  -12.8200   22.0410 N   0  0  0  0  0  0
  -25.4196  -15.1915   20.4132 N   0  0  0  0  0  0
  -31.8748  -14.6810   20.1309 O   0  0  0  0  0  0
  -21.6643   -6.8876   21.4237 O   0  0  0  0  0  0
  -22.3510  -14.5516   20.6694 O   0  0  0  0  0  0
  -24.6172  -31.8583   23.1966 C   0  0  0  0  0  0
  -25.9016  -32.4791   23.8346 C   0  0  1  0  0  0
  -27.2682  -27.3500   20.1494 C   0  0  0  0  0  0
  -25.5833  -33.8589   24.2261 N   0  0  0  0  0  0
  -23.4162  -30.4735   21.5329 C   0  0  2  0  0  0
  -24.8760  -28.9210   20.1146 C   0  0  0  0  0  0
  -22.7457  -29.4606   22.4907 C   0  0  0  0  0  0
  -18.0294  -28.1400   22.8515 C   0  0  0  0  0  0
  -24.1446  -36.7261   23.2670 C   0  0  0  0  0  0
  -25.9478  -30.7998   21.3662 C   0  0  0  0  0  0
  -26.0332  -29.4235   20.7222 C   0  0  0  0  0  0
  -27.2253  -28.6498   20.7307 C   0  0  0  0  0  0
  -26.0921  -26.8888   19.5114 C   0  0  0  0  0  0
  -24.9087  -27.6584   19.4954 C   0  0  0  0  0  0
  -23.6342  -29.7913   20.1540 C   0  0  0  0  0  0
  -25.4088  -36.3103   24.0361 C   0  0  1  0  0  0
  -20.5896  -28.3680   23.1305 C   0  0  2  0  0  0
  -20.6764  -26.9399   22.5426 C   0  0  0  0  0  0
  -19.5736  -26.6379   21.5226 C   0  0  0  0  0  0
  -18.1918  -26.7950   22.1635 C   0  0  0  0  0  0
  -19.1564  -28.8861   23.2913 C   0  0  0  0  0  0
  -18.9483  -30.1479   23.8902 C   0  0  0  0  0  0
  -17.6500  -30.6623   24.0583 C   0  0  0  0  0  0
  -25.9025  -34.9475   23.5131 C   0  0  0  0  0  0
  -16.5377  -29.9132   23.6345 C   0  0  0  0  0  0
  -16.7296  -28.6536   23.0373 C   0  0  0  0  0  0
  -26.4437  -31.6606   25.0713 C   0  0  0  0  0  0
  -25.3717  -31.3763   26.1489 C   0  0  0  0  0  0
  -27.0289  -30.3051   24.6130 C   0  0  0  0  0  0
  -27.5990  -32.4350   25.7496 C   0  0  0  0  0  0
  -27.5546  -37.1804   24.8508 C   0  0  0  0  0  0
  -21.4171  -29.3028   22.3680 N   0  0  0  0  0  0
  -26.4266  -37.3804   23.9445 N   0  0  0  0  0  0
  -24.6777  -31.0637   22.0888 N   0  0  0  0  0  0
  -23.4181  -28.8169   23.2998 O   0  0  0  0  0  0
  -28.4440  -26.5891   20.1908 O   0  0  0  0  0  0
  -26.5636  -34.8962   22.4729 O   0  0  0  0  0  0
  -23.5332  -32.1325   23.7326 O   0  0  0  0  0  0
  -31.2152  -19.8897   21.1411 C   0  0  0  0  0  0
  -31.7443  -17.4870   21.2143 C   0  0  0  0  0  0
  -29.5050  -18.2221   20.6509 C   0  0  0  0  0  0
  -32.1371  -18.8387   21.3609 C   0  0  0  0  0  0
  -29.8841  -19.6052   20.7741 C   0  0  0  0  0  0
  -30.4178  -17.1354   20.8613 C   0  0  0  0  0  0
  -29.3335  -22.8584   19.3110 C   0  0  0  0  0  0
  -29.2805  -24.4162   19.2214 C   0  0  0  0  0  0
  -28.9889  -24.5711   21.6285 C   0  0  0  0  0  0
  -28.8733  -23.0100   21.7281 C   0  0  0  0  0  0
  -28.4173  -25.1145   20.3003 C   0  0  1  0  0  0
  -33.5614  -19.1549   21.7811 C   0  0  0  0  0  0
  -28.8265  -20.7411   20.5726 C   0  0  0  0  0  0
  -29.1673  -22.2184   20.5042 N   0  0  0  0  0  0
  -29.9814  -15.7377   20.7813 N   0  0  0  0  0  0
  -29.5136  -22.2334   18.2618 O   0  0  0  0  0  0
  -31.4674  -12.4361   19.1709 H   0  0  0  0  0  0
  -30.3008  -11.3826   19.9129 H   0  0  0  0  0  0
  -29.7695  -11.7629   17.4684 H   0  0  0  0  0  0
  -29.6601  -13.4791   17.7579 H   0  0  0  0  0  0
  -27.8605  -11.2958   18.8620 H   0  0  0  0  0  0
  -27.3779  -12.5820   17.7870 H   0  0  0  0  0  0
  -27.6590  -14.2557   19.4992 H   0  0  0  0  0  0
  -28.6970  -12.1188   21.4228 H   0  0  0  0  0  0
  -28.4559  -13.8039   21.8020 H   0  0  0  0  0  0
  -25.2779   -9.5691   22.4718 H   0  0  0  0  0  0
  -24.0014   -7.4639   22.7458 H   0  0  0  0  0  0
  -21.0839   -8.8760   19.8935 H   0  0  0  0  0  0
  -22.3690  -10.9663   19.6137 H   0  0  0  0  0  0
  -21.2036   -7.6146   23.9704 H   0  0  0  0  0  0
  -21.1481   -6.0516   25.9067 H   0  0  0  0  0  0
  -22.0601   -2.7604   23.2823 H   0  0  0  0  0  0
  -22.4149  -11.9886   22.4825 H   0  0  0  0  0  0
  -21.1095  -13.1185   22.2590 H   0  0  0  0  0  0
  -24.6449  -15.8373   20.5209 H   0  0  0  0  0  0
  -26.2642  -15.6406   20.0841 H   0  0  0  0  0  0
  -26.7066  -32.5508   23.1087 H   0  0  0  0  0  0
  -24.9990  -33.9712   25.0414 H   0  0  0  0  0  0
  -22.7094  -31.2903   21.3796 H   0  0  0  0  0  0
  -23.3749  -35.9556   23.3365 H   0  0  0  0  0  0
  -24.3522  -36.8819   22.2073 H   0  0  0  0  0  0
  -23.7152  -37.6464   23.6657 H   0  0  0  0  0  0
  -26.0838  -31.5558   20.5931 H   0  0  0  0  0  0
  -26.8260  -30.8520   21.9982 H   0  0  0  0  0  0
  -28.1099  -29.0387   21.2166 H   0  0  0  0  0  0
  -26.0867  -25.9306   19.0138 H   0  0  0  0  0  0
  -24.0290  -27.2719   18.9967 H   0  0  0  0  0  0
  -23.7478  -30.5562   19.3824 H   0  0  0  0  0  0
  -22.7610  -29.2030   19.8630 H   0  0  0  0  0  0
  -25.1279  -36.1949   25.0853 H   0  0  0  0  0  0
  -21.0024  -28.3254   24.1411 H   0  0  0  0  0  0
  -20.5598  -26.2314   23.3644 H   0  0  0  0  0  0
  -21.6641  -26.7387   22.1275 H   0  0  0  0  0  0
  -19.6893  -25.6289   21.1262 H   0  0  0  0  0  0
  -19.6683  -27.3217   20.6779 H   0  0  0  0  0  0
  -17.4186  -26.6731   21.4029 H   0  0  0  0  0  0
  -18.0294  -26.0101   22.9022 H   0  0  0  0  0  0
  -19.7972  -30.7309   24.2218 H   0  0  0  0  0  0
  -17.5083  -31.6305   24.5186 H   0  0  0  0  0  0
  -15.5392  -30.3066   23.7678 H   0  0  0  0  0  0
  -15.8678  -28.0887   22.7074 H   0  0  0  0  0  0
  -24.5881  -30.7072   25.7890 H   0  0  0  0  0  0
  -24.8919  -32.2938   26.4931 H   0  0  0  0  0  0
  -25.8102  -30.8993   27.0257 H   0  0  0  0  0  0
  -26.2866  -29.6831   24.1114 H   0  0  0  0  0  0
  -27.3994  -29.7290   25.4612 H   0  0  0  0  0  0
  -27.8726  -30.4409   23.9372 H   0  0  0  0  0  0
  -27.2557  -33.3635   26.2064 H   0  0  0  0  0  0
  -28.3793  -32.6875   25.0322 H   0  0  0  0  0  0
  -28.0646  -31.8494   26.5425 H   0  0  0  0  0  0
  -28.2653  -38.0004   24.7496 H   0  0  0  0  0  0
  -28.0927  -36.2549   24.6410 H   0  0  0  0  0  0
  -27.2269  -37.1578   25.8911 H   0  0  0  0  0  0
  -20.9331  -29.8704   21.6875 H   0  0  0  0  0  0
  -26.0144  -38.2885   24.1431 H   0  0  0  0  0  0
  -31.5280  -20.9167   21.2711 H   0  0  0  0  0  0
  -32.4789  -16.7175   21.4042 H   0  0  0  0  0  0
  -28.4803  -17.9923   20.3937 H   0  0  0  0  0  0
  -28.9291  -24.6967   18.2307 H   0  0  0  0  0  0
  -30.3061  -24.7856   19.2867 H   0  0  0  0  0  0
  -30.0413  -24.8574   21.7191 H   0  0  0  0  0  0
  -28.4883  -25.0346   22.4814 H   0  0  0  0  0  0
  -27.8487  -22.7786   22.0186 H   0  0  0  0  0  0
  -29.5040  -22.6485   22.5413 H   0  0  0  0  0  0
  -27.3974  -24.7423   20.2207 H   0  0  0  0  0  0
  -33.6736  -20.2000   22.0683 H   0  0  0  0  0  0
  -34.2594  -18.9530   20.9690 H   0  0  0  0  0  0
  -33.8503  -18.5421   22.6365 H   0  0  0  0  0  0
  -28.1177  -20.6056   21.3878 H   0  0  0  0  0  0
  -28.2537  -20.4770   19.6837 H   0  0  0  0  0  0
  -28.9943  -15.5764   20.8981 H   0  0  0  0  0  0
  1 25  1  0  0  0
  1 30  2  0  0  0
  1 85  1  0  0  0
  2  3  1  0  0  0
  2 25  1  0  0  0
  2 87  1  0  0  0
  2 88  1  0  0  0
  3  4  1  0  0  0
  3 89  1  0  0  0
  3 90  1  0  0  0
  4  5  1  0  0  0
  4 91  1  0  0  0
  4 92  1  0  0  0
  5  6  1  0  0  0
  5 26  1  0  0  0
  5 93  1  0  0  0
  6 25  1  0  0  0
  6 94  1  0  0  0
  6 95  1  0  0  0
  7  8  2  0  0  0
  7 26  1  0  0  0
  7 29  1  0  0  0
  8  9  1  0  0  0
  8 22  1  0  0  0
  9 10  1  0  0  0
  9 27  2  0  0  0
 10 11  2  0  0  0
 10 15  1  0  0  0
 11 12  1  0  0  0
 11 96  1  0  0  0
 12 13  2  0  0  0
 12 97  1  0  0  0
 13 14  1  0  0  0
 13 31  1  0  0  0
 14 15  2  0  0  0
 14 98  1  0  0  0
 15 99  1  0  0  0
 16 17  2  0  0  0
 16 21  1  0  0  0
 16 31  1  0  0  0
 17 18  1  0  0  0
 17100  1  0  0  0
 18 19  2  0  0  0
 18101  1  0  0  0
 19 20  1  0  0  0
 19 24  1  0  0  0
 20 21  2  0  0  0
 20102  1  0  0  0
 21 23  1  0  0  0
 22 28  1  0  0  0
 22 32  2  0  0  0
 26 27  1  0  0  0
 28103  1  0  0  0
 28104  1  0  0  0
 29105  1  0  0  0
 29106  1  0  0  0
 33 34  1  0  0  0
 33 66  1  0  0  0
 33 70  2  0  0  0
 34 36  1  0  0  0
 34 59  1  0  0  0
 34107  1  0  0  0
 35 44  2  0  0  0
 35 45  1  0  0  0
 35 68  1  0  0  0
 36 56  1  0  0  0
 36108  1  0  0  0
 37 39  1  0  0  0
 37 47  1  0  0  0
 37 66  1  0  0  0
 37109  1  0  0  0
 38 43  2  0  0  0
 38 46  1  0  0  0
 38 47  1  0  0  0
 39 64  1  0  0  0
 39 67  2  0  0  0
 40 52  1  0  0  0
 40 53  2  0  0  0
 40 58  1  0  0  0
 41110  1  0  0  0
 41111  1  0  0  0
 41112  1  0  0  0
 41 48  1  0  0  0
 42 43  1  0  0  0
 42 66  1  0  0  0
 42113  1  0  0  0
 42114  1  0  0  0
 43 44  1  0  0  0
 44115  1  0  0  0
 45 46  2  0  0  0
 45116  1  0  0  0
 46117  1  0  0  0
 47118  1  0  0  0
 47119  1  0  0  0
 48 56  1  0  0  0
 48 65  1  0  0  0
 48120  1  0  0  0
 49 50  1  0  0  0
 49 53  1  0  0  0
 49 64  1  0  0  0
 49121  1  0  0  0
 50 51  1  0  0  0
 50122  1  0  0  0
 50123  1  0  0  0
 51 52  1  0  0  0
 51124  1  0  0  0
 51125  1  0  0  0
 52126  1  0  0  0
 52127  1  0  0  0
 53 54  1  0  0  0
 54 55  2  0  0  0
 54128  1  0  0  0
 55 57  1  0  0  0
 55129  1  0  0  0
 56 69  2  0  0  0
 57 58  2  0  0  0
 57130  1  0  0  0
 58131  1  0  0  0
 59 60  1  0  0  0
 59 61  1  0  0  0
 59 62  1  0  0  0
 60132  1  0  0  0
 60133  1  0  0  0
 60134  1  0  0  0
 61135  1  0  0  0
 61136  1  0  0  0
 61137  1  0  0  0
 62138  1  0  0  0
 62139  1  0  0  0
 62140  1  0  0  0
 63 65  1  0  0  0
 63141  1  0  0  0
 63142  1  0  0  0
 63143  1  0  0  0
 64144  1  0  0  0
 65145  1  0  0  0
 68 81  1  0  0  0
 71 74  2  0  0  0
 71 75  1  0  0  0
 71146  1  0  0  0
 72 74  1  0  0  0
 72 76  2  0  0  0
 72147  1  0  0  0
 73 75  2  0  0  0
 73 76  1  0  0  0
 73148  1  0  0  0
 74 82  1  0  0  0
 75 83  1  0  0  0
 76 85  1  0  0  0
 77 78  1  0  0  0
 77 84  1  0  0  0
 77 86  2  0  0  0
 78 81  1  0  0  0
 78149  1  0  0  0
 78150  1  0  0  0
 79 80  1  0  0  0
 79 81  1  0  0  0
 79151  1  0  0  0
 79152  1  0  0  0
 80 84  1  0  0  0
 80153  1  0  0  0
 80154  1  0  0  0
 81155  1  0  0  0
 82156  1  0  0  0
 82157  1  0  0  0
 82158  1  0  0  0
 83 84  1  0  0  0
 83159  1  0  0  0
 83160  1  0  0  0
 85161  1  0  0  0
M  ISO  4   1 100  68 101  81 101  85 100
M  END
> <chiral flag>
0

> <version>
0

> <s_m_source_file>
/data/baiqing/PycharmProjects/Reinvent-master-3.2/result/LINK_invent/BTK/process_docking_weight1_custom_product_contain_oxygen_bond_distance_aromatic_linkinvent_7_9_3/rearranged_h_0054.sdf

> <i_m_source_file_index>
34

> <r_mmod_Potential_Energy-OPLS-2005>
41.9719581604004

> <r_mmod_Stretch_Energy-OPLS-2005>
77.3787307739258

> <r_mmod_Bend_Energy-OPLS-2005>
142.820602416992

> <r_mmod_Torsional_Energy-OPLS-2005>
236.615768432617

> <r_mmod_Improper_Torsional_Energy-OPLS-2005>
6.27071094512939

> <r_mmod_Van_der_Waal_Energy-OPLS-2005>
151.842163085938

> <r_mmod_Electrostatic_Energy-OPLS-2005>
-381.208801269531

> <r_mmod_Solvation_Energy-OPLS-2005>
-230.906433105469

> <b_mmod_Minimization_Converged-OPLS-2005>
0

> <r_mmod_RMS_Derivative-OPLS-2005>
4.42552328109741

$$$$
34
                    3D
 Structure written by MMmdl.
174183  0  0  1  0            999 V2000
  -30.7347  -14.4783   20.6033 C   0  0  0  0  0  0
  -30.4090  -12.3262   19.4218 C   0  0  0  0  0  0
  -29.4940  -12.5397   18.1990 C   0  0  0  0  0  0
  -28.0154  -12.3919   18.6085 C   0  0  0  0  0  0
  -27.6603  -13.2204   19.8734 C   0  0  2  0  0  0
  -28.7038  -13.0162   20.9952 C   0  0  0  0  0  0
  -25.2587  -13.8167   20.5697 C   0  0  0  0  0  0
  -24.1844  -13.0411   20.9158 C   0  0  0  0  0  0
  -24.6418  -11.6885   20.8706 C   0  0  0  0  0  0
  -23.9080  -10.4261   21.0389 C   0  0  0  0  0  0
  -24.3609   -9.4178   21.9179 C   0  0  0  0  0  0
  -23.6275   -8.2215   22.0775 C   0  0  0  0  0  0
  -22.4260   -8.0254   21.3565 C   0  0  0  0  0  0
  -21.9893   -9.0216   20.4666 C   0  0  0  0  0  0
  -22.7246  -10.2089   20.3042 C   0  0  0  0  0  0
  -21.6856   -6.0702   22.5284 C   0  0  0  0  0  0
  -21.3999   -6.5608   23.8210 C   0  0  0  0  0  0
  -21.3645   -5.6771   24.9177 C   0  0  0  0  0  0
  -21.6052   -4.3042   24.7234 C   0  0  0  0  0  0
  -21.8818   -3.8134   23.4354 C   0  0  0  0  0  0
  -21.9181   -4.6935   22.3405 C   0  0  0  0  0  0
  -22.7869  -13.5200   21.1814 C   0  0  0  0  0  0
  -22.1668   -4.2112   21.0991 F   0  0  0  0  0  0
  -21.5618   -3.4529   25.7749 F   0  0  0  0  0  0
  -30.0313  -13.3212   20.4408 N   0  0  0  0  0  0
  -26.3035  -12.9373   20.3365 N   0  0  0  0  0  0
  -25.9359  -11.6529   20.5748 N   0  0  0  0  0  0
  -22.0475  -12.8184   22.0355 N   0  0  0  0  0  0
  -25.4340  -15.1886   20.4193 N   0  0  0  0  0  0
  -31.8325  -14.6513   20.0688 O   0  0  0  0  0  0
  -21.6639   -6.8857   21.4252 O   0  0  0  0  0  0
  -22.3556  -14.5494   20.6664 O   0  0  0  0  0  0
  -24.6211  -31.8585   23.2087 C   0  0  0  0  0  0
  -25.9078  -32.4759   23.8414 C   0  0  1  0  0  0
  -27.2481  -27.3880   20.1343 C   0  0  0  0  0  0
  -25.5943  -33.8561   24.2339 N   0  0  0  0  0  0
  -23.4147  -30.4813   21.5388 C   0  0  2  0  0  0
  -24.8742  -28.9351   20.1171 C   0  0  0  0  0  0
  -22.7425  -29.4628   22.4911 C   0  0  0  0  0  0
  -18.0253  -28.1359   22.8458 C   0  0  0  0  0  0
  -24.1477  -36.7273   23.2645 C   0  0  0  0  0  0
  -25.9507  -30.8031   21.3806 C   0  0  0  0  0  0
  -26.0283  -29.4345   20.7366 C   0  0  0  0  0  0
  -27.2178  -28.6627   20.7507 C   0  0  0  0  0  0
  -26.0906  -26.9217   19.4815 C   0  0  0  0  0  0
  -24.9029  -27.6803   19.4828 C   0  0  0  0  0  0
  -23.6345  -29.8005   20.1592 C   0  0  0  0  0  0
  -25.4080  -36.3048   24.0367 C   0  0  1  0  0  0
  -20.5850  -28.3649   23.1265 C   0  0  2  0  0  0
  -20.6728  -26.9395   22.5359 C   0  0  0  0  0  0
  -19.5755  -26.6388   21.5110 C   0  0  0  0  0  0
  -18.1927  -26.7930   22.1532 C   0  0  0  0  0  0
  -19.1510  -28.8820   23.2883 C   0  0  0  0  0  0
  -18.9418  -30.1412   23.8931 C   0  0  0  0  0  0
  -17.6430  -30.6585   24.0519 C   0  0  0  0  0  0
  -25.9010  -34.9418   23.5113 C   0  0  0  0  0  0
  -16.5313  -29.9058   23.6342 C   0  0  0  0  0  0
  -16.7246  -28.6455   23.0404 C   0  0  0  0  0  0
  -26.4511  -31.6601   25.0790 C   0  0  0  0  0  0
  -25.3788  -31.3705   26.1542 C   0  0  0  0  0  0
  -27.0354  -30.3037   24.6249 C   0  0  0  0  0  0
  -27.6107  -32.4320   25.7529 C   0  0  0  0  0  0
  -27.5586  -37.1748   24.8431 C   0  0  0  0  0  0
  -21.4130  -29.3055   22.3683 N   0  0  0  0  0  0
  -26.4244  -37.3760   23.9455 N   0  0  0  0  0  0
  -24.6779  -31.0679   22.0975 N   0  0  0  0  0  0
  -23.4174  -28.8170   23.2965 O   0  0  0  0  0  0
  -28.3832  -26.6021   20.0974 O   0  0  0  0  0  0
  -26.5513  -34.8898   22.4643 O   0  0  0  0  0  0
  -23.5387  -32.1306   23.7456 O   0  0  0  0  0  0
  -31.8202  -22.0105   20.9624 C   0  0  0  0  0  0
  -32.5514  -17.8933   22.7877 C   0  0  0  0  0  0
  -32.0192  -16.7523   22.1749 C   0  0  0  0  0  0
  -31.7684  -19.0444   22.9820 C   0  0  0  0  0  0
  -30.4326  -19.0964   22.4870 C   0  0  0  0  0  0
  -29.8798  -17.9019   21.8991 C   0  0  0  0  0  0
  -30.6746  -16.7188   21.7460 C   0  0  0  0  0  0
  -30.7453  -22.4158   21.6118 C   0  0  0  0  0  0
  -32.9588  -21.8325   20.3365 C   0  0  0  0  0  0
  -30.3908  -23.9006   21.7235 C   0  0  0  0  0  0
  -27.9692  -23.2767   21.1146 C   0  0  0  0  0  0
  -28.4281  -21.7924   21.0472 C   0  0  0  0  0  0
  -29.1111  -24.3207   20.9351 C   0  0  1  0  0  0
  -32.3786  -20.1459   23.8418 C   0  0  0  0  0  0
  -28.3998  -17.8482   21.5300 C   0  0  0  0  0  0
  -34.3033  -21.7162   21.0296 C   0  0  0  0  0  0
  -29.5573  -20.3387   22.8311 C   0  0  0  0  0  0
  -28.6595  -25.7945   21.2636 C   0  0  0  0  0  0
  -30.1136  -15.4730   21.2804 N   0  0  0  0  0  0
  -29.5431  -21.5996   21.9987 N   0  3  1  0  0  0
  -31.4606  -12.3865   19.1359 H   0  0  0  0  0  0
  -30.2657  -11.3224   19.8225 H   0  0  0  0  0  0
  -29.7403  -11.8283   17.4097 H   0  0  0  0  0  0
  -29.6650  -13.5306   17.7743 H   0  0  0  0  0  0
  -27.8264  -11.3345   18.7927 H   0  0  0  0  0  0
  -27.3609  -12.6731   17.7834 H   0  0  0  0  0  0
  -27.6962  -14.2694   19.5780 H   0  0  0  0  0  0
  -28.6856  -11.9808   21.3358 H   0  0  0  0  0  0
  -28.4615  -13.6203   21.8704 H   0  0  0  0  0  0
  -25.2751   -9.5630   22.4750 H   0  0  0  0  0  0
  -23.9960   -7.4600   22.7513 H   0  0  0  0  0  0
  -21.0814   -8.8728   19.8994 H   0  0  0  0  0  0
  -22.3706  -10.9589   19.6115 H   0  0  0  0  0  0
  -21.2001   -7.6128   23.9700 H   0  0  0  0  0  0
  -21.1472   -6.0513   25.9077 H   0  0  0  0  0  0
  -22.0604   -2.7583   23.2871 H   0  0  0  0  0  0
  -22.4044  -11.9788   22.4676 H   0  0  0  0  0  0
  -21.1122  -13.1306   22.2597 H   0  0  0  0  0  0
  -24.6806  -15.8553   20.5490 H   0  0  0  0  0  0
  -26.2948  -15.6189   20.1073 H   0  0  0  0  0  0
  -26.7150  -32.5435   23.1176 H   0  0  0  0  0  0
  -25.0306  -33.9704   25.0625 H   0  0  0  0  0  0
  -22.7032  -31.2959   21.3873 H   0  0  0  0  0  0
  -23.3771  -35.9563   23.3165 H   0  0  0  0  0  0
  -24.3665  -36.9008   22.2101 H   0  0  0  0  0  0
  -23.7158  -37.6423   23.6717 H   0  0  0  0  0  0
  -26.0869  -31.5626   20.6103 H   0  0  0  0  0  0
  -26.8326  -30.8467   22.0087 H   0  0  0  0  0  0
  -28.1095  -29.0321   21.2363 H   0  0  0  0  0  0
  -26.1128  -25.9698   18.9698 H   0  0  0  0  0  0
  -24.0244  -27.2994   18.9792 H   0  0  0  0  0  0
  -23.7413  -30.5592   19.3839 H   0  0  0  0  0  0
  -22.7644  -29.2062   19.8747 H   0  0  0  0  0  0
  -25.1251  -36.1870   25.0854 H   0  0  0  0  0  0
  -20.9973  -28.3188   24.1374 H   0  0  0  0  0  0
  -20.5529  -26.2261   23.3525 H   0  0  0  0  0  0
  -21.6614  -26.7382   22.1216 H   0  0  0  0  0  0
  -19.6914  -25.6283   21.1199 H   0  0  0  0  0  0
  -19.6780  -27.3128   20.6600 H   0  0  0  0  0  0
  -17.4208  -26.6673   21.3923 H   0  0  0  0  0  0
  -18.0376  -26.0063   22.8920 H   0  0  0  0  0  0
  -19.7879  -30.7159   24.2408 H   0  0  0  0  0  0
  -17.4983  -31.6293   24.5043 H   0  0  0  0  0  0
  -15.5322  -30.2933   23.7702 H   0  0  0  0  0  0
  -15.8634  -28.0740   22.7217 H   0  0  0  0  0  0
  -24.5968  -30.7040   25.7899 H   0  0  0  0  0  0
  -24.8962  -32.2831   26.5043 H   0  0  0  0  0  0
  -25.8172  -30.8867   27.0274 H   0  0  0  0  0  0
  -26.2895  -29.6771   24.1345 H   0  0  0  0  0  0
  -27.4106  -29.7369   25.4779 H   0  0  0  0  0  0
  -27.8764  -30.4353   23.9437 H   0  0  0  0  0  0
  -27.2810  -33.3685   26.2044 H   0  0  0  0  0  0
  -28.3970  -32.6746   25.0367 H   0  0  0  0  0  0
  -28.0705  -31.8456   26.5492 H   0  0  0  0  0  0
  -28.2453  -38.0188   24.7645 H   0  0  0  0  0  0
  -28.1230  -36.2723   24.5996 H   0  0  0  0  0  0
  -27.2372  -37.1097   25.8844 H   0  0  0  0  0  0
  -20.9266  -29.8809   21.6954 H   0  0  0  0  0  0
  -26.0113  -38.2822   24.1521 H   0  0  0  0  0  0
  -33.5608  -17.8489   23.1742 H   0  0  0  0  0  0
  -32.6511  -15.8789   22.1123 H   0  0  0  0  0  0
  -32.9909  -21.7736   19.2576 H   0  0  0  0  0  0
  -31.2393  -24.4847   21.3546 H   0  0  0  0  0  0
  -30.3052  -24.1495   22.7824 H   0  0  0  0  0  0
  -27.4706  -23.4415   22.0719 H   0  0  0  0  0  0
  -27.2048  -23.4428   20.3552 H   0  0  0  0  0  0
  -28.7484  -21.5217   20.0406 H   0  0  0  0  0  0
  -27.5804  -21.1517   21.2949 H   0  0  0  0  0  0
  -29.3961  -24.2920   19.8834 H   0  0  0  0  0  0
  -32.0235  -20.0527   24.8679 H   0  0  0  0  0  0
  -32.1294  -21.1462   23.5100 H   0  0  0  0  0  0
  -33.4678  -20.0834   23.8594 H   0  0  0  0  0  0
  -28.0894  -18.7492   21.0038 H   0  0  0  0  0  0
  -27.8059  -17.7550   22.4420 H   0  0  0  0  0  0
  -28.1395  -17.0102   20.8828 H   0  0  0  0  0  0
  -34.2430  -21.8830   22.1067 H   0  0  0  0  0  0
  -34.9948  -22.4516   20.6105 H   0  0  0  0  0  0
  -34.7119  -20.7225   20.8537 H   0  0  0  0  0  0
  -29.8204  -20.6536   23.8400 H   0  0  0  0  0  0
  -28.5287  -20.0168   22.9666 H   0  0  0  0  0  0
  -29.4601  -26.3051   21.8025 H   0  0  0  0  0  0
  -27.8206  -25.7866   21.9642 H   0  0  0  0  0  0
  -29.1498  -15.2876   21.5123 H   0  0  0  0  0  0
  -29.1483  -22.1618   22.7361 H   0  0  0  0  0  0
  1 25  1  0  0  0
  1 30  2  0  0  0
  1 89  1  0  0  0
  2  3  1  0  0  0
  2 25  1  0  0  0
  2 91  1  0  0  0
  2 92  1  0  0  0
  3  4  1  0  0  0
  3 93  1  0  0  0
  3 94  1  0  0  0
  4  5  1  0  0  0
  4 95  1  0  0  0
  4 96  1  0  0  0
  5  6  1  0  0  0
  5 26  1  0  0  0
  5 97  1  0  0  0
  6 25  1  0  0  0
  6 98  1  0  0  0
  6 99  1  0  0  0
  7  8  2  0  0  0
  7 26  1  0  0  0
  7 29  1  0  0  0
  8  9  1  0  0  0
  8 22  1  0  0  0
  9 10  1  0  0  0
  9 27  2  0  0  0
 10 11  2  0  0  0
 10 15  1  0  0  0
 11 12  1  0  0  0
 11100  1  0  0  0
 12 13  2  0  0  0
 12101  1  0  0  0
 13 14  1  0  0  0
 13 31  1  0  0  0
 14 15  2  0  0  0
 14102  1  0  0  0
 15103  1  0  0  0
 16 17  2  0  0  0
 16 21  1  0  0  0
 16 31  1  0  0  0
 17 18  1  0  0  0
 17104  1  0  0  0
 18 19  2  0  0  0
 18105  1  0  0  0
 19 20  1  0  0  0
 19 24  1  0  0  0
 20 21  2  0  0  0
 20106  1  0  0  0
 21 23  1  0  0  0
 22 28  1  0  0  0
 22 32  2  0  0  0
 26 27  1  0  0  0
 28107  1  0  0  0
 28108  1  0  0  0
 29109  1  0  0  0
 29110  1  0  0  0
 33 34  1  0  0  0
 33 66  1  0  0  0
 33 70  2  0  0  0
 34 36  1  0  0  0
 34 59  1  0  0  0
 34111  1  0  0  0
 35 44  2  0  0  0
 35 45  1  0  0  0
 35 68  1  0  0  0
 36 56  1  0  0  0
 36112  1  0  0  0
 37 39  1  0  0  0
 37 47  1  0  0  0
 37 66  1  0  0  0
 37113  1  0  0  0
 38 43  2  0  0  0
 38 46  1  0  0  0
 38 47  1  0  0  0
 39 64  1  0  0  0
 39 67  2  0  0  0
 40 52  1  0  0  0
 40 53  2  0  0  0
 40 58  1  0  0  0
 41114  1  0  0  0
 41115  1  0  0  0
 41116  1  0  0  0
 41 48  1  0  0  0
 42 43  1  0  0  0
 42 66  1  0  0  0
 42117  1  0  0  0
 42118  1  0  0  0
 43 44  1  0  0  0
 44119  1  0  0  0
 45 46  2  0  0  0
 45120  1  0  0  0
 46121  1  0  0  0
 47122  1  0  0  0
 47123  1  0  0  0
 48 56  1  0  0  0
 48 65  1  0  0  0
 48124  1  0  0  0
 49 50  1  0  0  0
 49 53  1  0  0  0
 49 64  1  0  0  0
 49125  1  0  0  0
 50 51  1  0  0  0
 50126  1  0  0  0
 50127  1  0  0  0
 51 52  1  0  0  0
 51128  1  0  0  0
 51129  1  0  0  0
 52130  1  0  0  0
 52131  1  0  0  0
 53 54  1  0  0  0
 54 55  2  0  0  0
 54132  1  0  0  0
 55 57  1  0  0  0
 55133  1  0  0  0
 56 69  2  0  0  0
 57 58  2  0  0  0
 57134  1  0  0  0
 58135  1  0  0  0
 59 60  1  0  0  0
 59 61  1  0  0  0
 59 62  1  0  0  0
 60136  1  0  0  0
 60137  1  0  0  0
 60138  1  0  0  0
 61139  1  0  0  0
 61140  1  0  0  0
 61141  1  0  0  0
 62142  1  0  0  0
 62143  1  0  0  0
 62144  1  0  0  0
 63 65  1  0  0  0
 63145  1  0  0  0
 63146  1  0  0  0
 63147  1  0  0  0
 64148  1  0  0  0
 65149  1  0  0  0
 68 88  1  0  0  0
 71 78  2  0  0  0
 71 79  2  0  0  0
 72 73  2  0  0  0
 72 74  1  0  0  0
 72150  1  0  0  0
 73 77  1  0  0  0
 73151  1  0  0  0
 74 75  2  0  0  0
 74 84  1  0  0  0
 75 76  1  0  0  0
 75 87  1  0  0  0
 76 77  2  0  0  0
 76 85  1  0  0  0
 77 89  1  0  0  0
 78 80  1  0  0  0
 78 90  1  0  0  0
 79 86  1  0  0  0
 79152  1  0  0  0
 80 83  1  0  0  0
 80153  1  0  0  0
 80154  1  0  0  0
 81 82  1  0  0  0
 81 83  1  0  0  0
 81155  1  0  0  0
 81156  1  0  0  0
 82 90  1  0  0  0
 82157  1  0  0  0
 82158  1  0  0  0
 83 88  1  0  0  0
 83159  1  0  0  0
 84160  1  0  0  0
 84161  1  0  0  0
 84162  1  0  0  0
 85163  1  0  0  0
 85164  1  0  0  0
 85165  1  0  0  0
 86166  1  0  0  0
 86167  1  0  0  0
 86168  1  0  0  0
 87169  1  0  0  0
 87170  1  0  0  0
 87 90  1  0  0  0
 88171  1  0  0  0
 88172  1  0  0  0
 89173  1  0  0  0
 90174  1  0  0  0
M  CHG  1  90   1
M  ISO  4   1 100  68 101  88 101  89 100
M  END
> <chiral flag>
0

> <version>
0

> <s_m_source_file>
/data/baiqing/PycharmProjects/Reinvent-master-3.2/result/LINK_invent/BTK/process_docking_weight1_custom_product_contain_oxygen_bond_distance_aromatic_linkinvent_7_9_3/rearranged_h_0054.sdf

> <i_m_source_file_index>
35

> <r_mmod_Potential_Energy-OPLS-2005>
-142.514938354492

> <r_mmod_Stretch_Energy-OPLS-2005>
56.9880180358887

> <r_mmod_Bend_Energy-OPLS-2005>
168.865753173828

> <r_mmod_Torsional_Energy-OPLS-2005>
192.550247192383

> <r_mmod_Improper_Torsional_Energy-OPLS-2005>
5.50614452362061

> <r_mmod_Van_der_Waal_Energy-OPLS-2005>
149.042098999023

> <r_mmod_Electrostatic_Energy-OPLS-2005>
-292.316192626953

> <r_mmod_Solvation_Energy-OPLS-2005>
-440.734313964844

> <b_mmod_Minimization_Converged-OPLS-2005>
0

> <r_mmod_RMS_Derivative-OPLS-2005>
5.61248874664307

$$$$
35
                    3D
 Structure written by MMmdl.
161170  0  0  1  0            999 V2000
  -30.6457  -14.6509   20.5219 C   0  0  0  0  0  0
  -30.4232  -12.4074   19.4723 C   0  0  0  0  0  0
  -29.5045  -12.5353   18.2350 C   0  0  0  0  0  0
  -28.0247  -12.3665   18.6348 C   0  0  0  0  0  0
  -27.6460  -13.2297   19.8671 C   0  0  2  0  0  0
  -28.6830  -13.0843   20.9974 C   0  0  0  0  0  0
  -25.2499  -13.8190   20.5686 C   0  0  0  0  0  0
  -24.1787  -13.0431   20.9200 C   0  0  0  0  0  0
  -24.6389  -11.6911   20.8776 C   0  0  0  0  0  0
  -23.9073  -10.4277   21.0470 C   0  0  0  0  0  0
  -24.3616   -9.4172   21.9237 C   0  0  0  0  0  0
  -23.6286   -8.2204   22.0773 C   0  0  0  0  0  0
  -22.4270   -8.0265   21.3557 C   0  0  0  0  0  0
  -21.9921   -9.0250   20.4662 C   0  0  0  0  0  0
  -22.7255  -10.2131   20.3104 C   0  0  0  0  0  0
  -21.6825   -6.0726   22.5286 C   0  0  0  0  0  0
  -21.3982   -6.5642   23.8218 C   0  0  0  0  0  0
  -21.3675   -5.6807   24.9196 C   0  0  0  0  0  0
  -21.6054   -4.3068   24.7250 C   0  0  0  0  0  0
  -21.8801   -3.8148   23.4373 C   0  0  0  0  0  0
  -21.9164   -4.6951   22.3420 C   0  0  0  0  0  0
  -22.7810  -13.5200   21.1889 C   0  0  0  0  0  0
  -22.1644   -4.2132   21.1000 F   0  0  0  0  0  0
  -21.5654   -3.4561   25.7765 F   0  0  0  0  0  0
  -30.0023  -13.4352   20.4524 N   0  0  0  0  0  0
  -26.2937  -12.9399   20.3347 N   0  0  0  0  0  0
  -25.9327  -11.6538   20.5798 N   0  0  0  0  0  0
  -22.0472  -12.8185   22.0463 N   0  0  0  0  0  0
  -25.4202  -15.1909   20.4070 N   0  0  0  0  0  0
  -31.7928  -14.7611   20.0776 O   0  0  0  0  0  0
  -21.6626   -6.8866   21.4245 O   0  0  0  0  0  0
  -22.3486  -14.5511   20.6749 O   0  0  0  0  0  0
  -24.6292  -31.8593   23.1995 C   0  0  0  0  0  0
  -25.9122  -32.4767   23.8359 C   0  0  1  0  0  0
  -27.2163  -27.2920   20.1220 C   0  0  0  0  0  0
  -25.5917  -33.8566   24.2291 N   0  0  0  0  0  0
  -23.4250  -30.4850   21.5412 C   0  0  2  0  0  0
  -24.8699  -28.9384   20.1118 C   0  0  0  0  0  0
  -22.7486  -29.4644   22.4888 C   0  0  0  0  0  0
  -18.0294  -28.1389   22.8469 C   0  0  0  0  0  0
  -24.1484  -36.7295   23.2648 C   0  0  0  0  0  0
  -25.9693  -30.7814   21.3764 C   0  0  0  0  0  0
  -26.0424  -29.4063   20.7196 C   0  0  0  0  0  0
  -27.2178  -28.5952   20.7146 C   0  0  0  0  0  0
  -26.0151  -26.8866   19.4904 C   0  0  0  0  0  0
  -24.8606  -27.6842   19.4884 C   0  0  0  0  0  0
  -23.6422  -29.8222   20.1562 C   0  0  0  0  0  0
  -25.4108  -36.3085   24.0351 C   0  0  1  0  0  0
  -20.5894  -28.3715   23.1239 C   0  0  2  0  0  0
  -20.6775  -26.9433   22.5388 C   0  0  0  0  0  0
  -19.5753  -26.6390   21.5186 C   0  0  0  0  0  0
  -18.1939  -26.7927   22.1616 C   0  0  0  0  0  0
  -19.1547  -28.8866   23.2850 C   0  0  0  0  0  0
  -18.9478  -30.1455   23.8885 C   0  0  0  0  0  0
  -17.6483  -30.6584   24.0567 C   0  0  0  0  0  0
  -25.9045  -34.9448   23.5132 C   0  0  0  0  0  0
  -16.5372  -29.9096   23.6314 C   0  0  0  0  0  0
  -16.7285  -28.6510   23.0339 C   0  0  0  0  0  0
  -26.4486  -31.6564   25.0734 C   0  0  0  0  0  0
  -25.3685  -31.3739   26.1439 C   0  0  0  0  0  0
  -27.0365  -30.2983   24.6233 C   0  0  0  0  0  0
  -27.6060  -32.4286   25.7487 C   0  0  0  0  0  0
  -27.5573  -37.1814   24.8481 C   0  0  0  0  0  0
  -21.4194  -29.3074   22.3628 N   0  0  0  0  0  0
  -26.4297  -37.3767   23.9406 N   0  0  0  0  0  0
  -24.6939  -31.0584   22.0956 N   0  0  0  0  0  0
  -23.4194  -28.8175   23.2979 O   0  0  0  0  0  0
  -28.3150  -26.4100   20.1767 O   0  0  0  0  0  0
  -26.5620  -34.8922   22.4700 O   0  0  0  0  0  0
  -23.5442  -32.1410   23.7281 O   0  0  0  0  0  0
  -29.4525  -16.0040   22.3269 C   0  0  0  0  0  0
  -28.8553  -17.1671   22.8425 C   0  0  0  0  0  0
  -29.9545  -15.9563   21.0103 C   0  0  0  0  0  0
  -29.8948  -17.2015   20.2511 C   0  0  0  0  0  0
  -29.3653  -18.4461   20.8014 C   0  0  0  0  0  0
  -28.7879  -18.3617   22.0982 C   0  0  0  0  0  0
  -30.3356  -21.4621   21.5226 C   0  0  0  0  0  0
  -28.6820  -22.2908   20.0647 C   0  0  0  0  0  0
  -30.0963  -22.6588   22.4589 C   0  0  0  0  0  0
  -29.7828  -23.9754   21.7198 C   0  0  0  0  0  0
  -29.1130  -23.8086   20.3383 C   0  0  2  0  0  0
  -30.3552  -17.2011   18.7961 C   0  0  0  0  0  0
  -29.3294  -19.8083   19.9653 C   0  0  0  0  0  0
  -28.0304  -24.9516   20.0289 C   0  0  0  0  0  0
  -29.4135  -21.2176   20.5623 N   0  0  0  0  0  0
  -31.2963  -20.7174   21.7462 O   0  0  0  0  0  0
  -27.7129  -22.1040   19.3226 O   0  0  0  0  0  0
  -27.9186  -19.6720   22.8204 Cl  0  0  0  0  0  0
  -31.4701  -12.5086   19.1802 H   0  0  0  0  0  0
  -30.3388  -11.4107   19.9074 H   0  0  0  0  0  0
  -29.7722  -11.7916   17.4834 H   0  0  0  0  0  0
  -29.6477  -13.5146   17.7706 H   0  0  0  0  0  0
  -27.8584  -11.3110   18.8570 H   0  0  0  0  0  0
  -27.3733  -12.6033   17.7925 H   0  0  0  0  0  0
  -27.6673  -14.2706   19.5420 H   0  0  0  0  0  0
  -28.6960  -12.0611   21.3775 H   0  0  0  0  0  0
  -28.3925  -13.6947   21.8464 H   0  0  0  0  0  0
  -25.2758   -9.5618   22.4832 H   0  0  0  0  0  0
  -23.9975   -7.4569   22.7495 H   0  0  0  0  0  0
  -21.0844   -8.8785   19.8966 H   0  0  0  0  0  0
  -22.3734  -10.9687   19.6218 H   0  0  0  0  0  0
  -21.1955   -7.6145   23.9716 H   0  0  0  0  0  0
  -21.1547   -6.0555   25.9101 H   0  0  0  0  0  0
  -22.0569   -2.7604   23.2893 H   0  0  0  0  0  0
  -22.4046  -11.9790   22.4771 H   0  0  0  0  0  0
  -21.1128  -13.1271   22.2769 H   0  0  0  0  0  0
  -24.6547  -15.8487   20.5080 H   0  0  0  0  0  0
  -26.2826  -15.6336   20.1138 H   0  0  0  0  0  0
  -26.7197  -32.5420   23.1112 H   0  0  0  0  0  0
  -25.0039  -33.9708   25.0422 H   0  0  0  0  0  0
  -22.7224  -31.3071   21.3948 H   0  0  0  0  0  0
  -23.3733  -35.9637   23.3339 H   0  0  0  0  0  0
  -24.3573  -36.8874   22.2054 H   0  0  0  0  0  0
  -23.7252  -37.6524   23.6635 H   0  0  0  0  0  0
  -26.1070  -31.5414   20.6053 H   0  0  0  0  0  0
  -26.8470  -30.8276   22.0091 H   0  0  0  0  0  0
  -28.1152  -28.9471   21.2042 H   0  0  0  0  0  0
  -25.9219  -25.9290   19.0015 H   0  0  0  0  0  0
  -23.9608  -27.3179   19.0137 H   0  0  0  0  0  0
  -23.7716  -30.5976   19.4003 H   0  0  0  0  0  0
  -22.7612  -29.2571   19.8480 H   0  0  0  0  0  0
  -25.1276  -36.1957   25.0846 H   0  0  0  0  0  0
  -21.0002  -28.3309   24.1351 H   0  0  0  0  0  0
  -20.5634  -26.2353   23.3613 H   0  0  0  0  0  0
  -21.6648  -26.7423   22.1214 H   0  0  0  0  0  0
  -19.6915  -25.6294   21.1227 H   0  0  0  0  0  0
  -19.6672  -27.3184   20.6703 H   0  0  0  0  0  0
  -17.4198  -26.6640   21.4036 H   0  0  0  0  0  0
  -18.0369  -26.0077   22.9028 H   0  0  0  0  0  0
  -19.7964  -30.7250   24.2264 H   0  0  0  0  0  0
  -17.5051  -31.6255   24.5188 H   0  0  0  0  0  0
  -15.5377  -30.3013   23.7621 H   0  0  0  0  0  0
  -15.8684  -28.0825   22.7069 H   0  0  0  0  0  0
  -24.5852  -30.7109   25.7743 H   0  0  0  0  0  0
  -24.8892  -32.2941   26.4802 H   0  0  0  0  0  0
  -25.7956  -30.8937   27.0252 H   0  0  0  0  0  0
  -26.3002  -29.6703   24.1218 H   0  0  0  0  0  0
  -27.4022  -29.7255   25.4766 H   0  0  0  0  0  0
  -27.8865  -30.4269   23.9528 H   0  0  0  0  0  0
  -27.2699  -33.3595   26.2056 H   0  0  0  0  0  0
  -28.3862  -32.6817   25.0297 H   0  0  0  0  0  0
  -28.0737  -31.8408   26.5393 H   0  0  0  0  0  0
  -28.2627  -38.0072   24.7464 H   0  0  0  0  0  0
  -28.1036  -36.2608   24.6375 H   0  0  0  0  0  0
  -27.2302  -37.1549   25.8890 H   0  0  0  0  0  0
  -20.9369  -29.8847   21.6876 H   0  0  0  0  0  0
  -26.0193  -38.2862   24.1330 H   0  0  0  0  0  0
  -29.5196  -15.1374   22.9662 H   0  0  0  0  0  0
  -28.4336  -17.1423   23.8361 H   0  0  0  0  0  0
  -30.9364  -22.7876   23.1403 H   0  0  0  0  0  0
  -29.2419  -22.3894   23.0822 H   0  0  0  0  0  0
  -30.7087  -24.5384   21.5894 H   0  0  0  0  0  0
  -29.1565  -24.5919   22.3646 H   0  0  0  0  0  0
  -29.9033  -23.9631   19.6035 H   0  0  0  0  0  0
  -31.3529  -17.6326   18.7037 H   0  0  0  0  0  0
  -29.6695  -17.7775   18.1767 H   0  0  0  0  0  0
  -30.3702  -16.2043   18.3560 H   0  0  0  0  0  0
  -28.4296  -19.7303   19.3541 H   0  0  0  0  0  0
  -30.1538  -19.7790   19.2515 H   0  0  0  0  0  0
  -27.1497  -24.7192   20.6302 H   0  0  0  0  0  0
  -27.7406  -24.8016   18.9880 H   0  0  0  0  0  0
  1 25  1  0  0  0
  1 30  2  0  0  0
  1 73  1  0  0  0
  2  3  1  0  0  0
  2 25  1  0  0  0
  2 89  1  0  0  0
  2 90  1  0  0  0
  3  4  1  0  0  0
  3 91  1  0  0  0
  3 92  1  0  0  0
  4  5  1  0  0  0
  4 93  1  0  0  0
  4 94  1  0  0  0
  5  6  1  0  0  0
  5 26  1  0  0  0
  5 95  1  0  0  0
  6 25  1  0  0  0
  6 96  1  0  0  0
  6 97  1  0  0  0
  7  8  2  0  0  0
  7 26  1  0  0  0
  7 29  1  0  0  0
  8  9  1  0  0  0
  8 22  1  0  0  0
  9 10  1  0  0  0
  9 27  2  0  0  0
 10 11  2  0  0  0
 10 15  1  0  0  0
 11 12  1  0  0  0
 11 98  1  0  0  0
 12 13  2  0  0  0
 12 99  1  0  0  0
 13 14  1  0  0  0
 13 31  1  0  0  0
 14 15  2  0  0  0
 14100  1  0  0  0
 15101  1  0  0  0
 16 17  2  0  0  0
 16 21  1  0  0  0
 16 31  1  0  0  0
 17 18  1  0  0  0
 17102  1  0  0  0
 18 19  2  0  0  0
 18103  1  0  0  0
 19 20  1  0  0  0
 19 24  1  0  0  0
 20 21  2  0  0  0
 20104  1  0  0  0
 21 23  1  0  0  0
 22 28  1  0  0  0
 22 32  2  0  0  0
 26 27  1  0  0  0
 28105  1  0  0  0
 28106  1  0  0  0
 29107  1  0  0  0
 29108  1  0  0  0
 33 34  1  0  0  0
 33 66  1  0  0  0
 33 70  2  0  0  0
 34 36  1  0  0  0
 34 59  1  0  0  0
 34109  1  0  0  0
 35 44  2  0  0  0
 35 45  1  0  0  0
 35 68  1  0  0  0
 36 56  1  0  0  0
 36110  1  0  0  0
 37 39  1  0  0  0
 37 47  1  0  0  0
 37 66  1  0  0  0
 37111  1  0  0  0
 38 43  2  0  0  0
 38 46  1  0  0  0
 38 47  1  0  0  0
 39 64  1  0  0  0
 39 67  2  0  0  0
 40 52  1  0  0  0
 40 53  2  0  0  0
 40 58  1  0  0  0
 41112  1  0  0  0
 41113  1  0  0  0
 41114  1  0  0  0
 41 48  1  0  0  0
 42 43  1  0  0  0
 42 66  1  0  0  0
 42115  1  0  0  0
 42116  1  0  0  0
 43 44  1  0  0  0
 44117  1  0  0  0
 45 46  2  0  0  0
 45118  1  0  0  0
 46119  1  0  0  0
 47120  1  0  0  0
 47121  1  0  0  0
 48 56  1  0  0  0
 48 65  1  0  0  0
 48122  1  0  0  0
 49 50  1  0  0  0
 49 53  1  0  0  0
 49 64  1  0  0  0
 49123  1  0  0  0
 50 51  1  0  0  0
 50124  1  0  0  0
 50125  1  0  0  0
 51 52  1  0  0  0
 51126  1  0  0  0
 51127  1  0  0  0
 52128  1  0  0  0
 52129  1  0  0  0
 53 54  1  0  0  0
 54 55  2  0  0  0
 54130  1  0  0  0
 55 57  1  0  0  0
 55131  1  0  0  0
 56 69  2  0  0  0
 57 58  2  0  0  0
 57132  1  0  0  0
 58133  1  0  0  0
 59 60  1  0  0  0
 59 61  1  0  0  0
 59 62  1  0  0  0
 60134  1  0  0  0
 60135  1  0  0  0
 60136  1  0  0  0
 61137  1  0  0  0
 61138  1  0  0  0
 61139  1  0  0  0
 62140  1  0  0  0
 62141  1  0  0  0
 62142  1  0  0  0
 63 65  1  0  0  0
 63143  1  0  0  0
 63144  1  0  0  0
 63145  1  0  0  0
 64146  1  0  0  0
 65147  1  0  0  0
 68 84  1  0  0  0
 71 72  2  0  0  0
 71 73  1  0  0  0
 71148  1  0  0  0
 72 76  1  0  0  0
 72149  1  0  0  0
 73 74  2  0  0  0
 74 75  1  0  0  0
 74 82  1  0  0  0
 75 76  2  0  0  0
 75 83  1  0  0  0
 76 88  1  0  0  0
 77 79  1  0  0  0
 77 85  1  0  0  0
 77 86  2  0  0  0
 78 81  1  0  0  0
 78 85  1  0  0  0
 78 87  2  0  0  0
 79 80  1  0  0  0
 79150  1  0  0  0
 79151  1  0  0  0
 80 81  1  0  0  0
 80152  1  0  0  0
 80153  1  0  0  0
 81 84  1  0  0  0
 81154  1  0  0  0
 82155  1  0  0  0
 82156  1  0  0  0
 82157  1  0  0  0
 83 85  1  0  0  0
 83158  1  0  0  0
 83159  1  0  0  0
 84160  1  0  0  0
 84161  1  0  0  0
M  ISO  4   1 100  68 101  73 100  84 101
M  END
> <chiral flag>
0

> <version>
0

> <s_m_source_file>
/data/baiqing/PycharmProjects/Reinvent-master-3.2/result/LINK_invent/BTK/process_docking_weight1_custom_product_contain_oxygen_bond_distance_aromatic_linkinvent_7_9_3/rearranged_h_0054.sdf

> <i_m_source_file_index>
36

> <r_mmod_Potential_Energy-OPLS-2005>
193.843444824219

> <r_mmod_Stretch_Energy-OPLS-2005>
116.003051757812

> <r_mmod_Bend_Energy-OPLS-2005>
158.641372680664

> <r_mmod_Torsional_Energy-OPLS-2005>
221.508483886719

> <r_mmod_Improper_Torsional_Energy-OPLS-2005>
5.13116025924683

> <r_mmod_Van_der_Waal_Energy-OPLS-2005>
169.848388671875

> <r_mmod_Electrostatic_Energy-OPLS-2005>
-324.969696044922

> <r_mmod_Solvation_Energy-OPLS-2005>
-208.500686645508

> <b_mmod_Minimization_Converged-OPLS-2005>
0

> <r_mmod_RMS_Derivative-OPLS-2005>
3.01521444320679

$$$$
36
                    3D
 Structure written by MMmdl.
157165  0  0  1  0            999 V2000
  -30.6621  -14.5716   20.5214 C   0  0  0  0  0  0
  -30.4347  -12.3588   19.4260 C   0  0  0  0  0  0
  -29.4979  -12.4852   18.2058 C   0  0  0  0  0  0
  -28.0217  -12.3407   18.6284 C   0  0  0  0  0  0
  -27.6592  -13.2078   19.8647 C   0  0  2  0  0  0
  -28.7090  -13.0394   20.9855 C   0  0  0  0  0  0
  -25.2604  -13.8185   20.5736 C   0  0  0  0  0  0
  -24.1848  -13.0443   20.9212 C   0  0  0  0  0  0
  -24.6380  -11.6912   20.8740 C   0  0  0  0  0  0
  -23.9050  -10.4288   21.0421 C   0  0  0  0  0  0
  -24.3623   -9.4195   21.9182 C   0  0  0  0  0  0
  -23.6305   -8.2221   22.0744 C   0  0  0  0  0  0
  -22.4281   -8.0258   21.3551 C   0  0  0  0  0  0
  -21.9883   -9.0242   20.4696 C   0  0  0  0  0  0
  -22.7185  -10.2138   20.3113 C   0  0  0  0  0  0
  -21.6829   -6.0734   22.5291 C   0  0  0  0  0  0
  -21.3991   -6.5648   23.8223 C   0  0  0  0  0  0
  -21.3652   -5.6802   24.9185 C   0  0  0  0  0  0
  -21.6040   -4.3070   24.7232 C   0  0  0  0  0  0
  -21.8830   -3.8155   23.4369 C   0  0  0  0  0  0
  -21.9162   -4.6975   22.3421 C   0  0  0  0  0  0
  -22.7881  -13.5274   21.1839 C   0  0  0  0  0  0
  -22.1620   -4.2160   21.1000 F   0  0  0  0  0  0
  -21.5613   -3.4568   25.7749 F   0  0  0  0  0  0
  -30.0252  -13.3675   20.4174 N   0  0  0  0  0  0
  -26.3018  -12.9326   20.3342 N   0  0  0  0  0  0
  -25.9305  -11.6483   20.5764 N   0  0  0  0  0  0
  -22.0501  -12.8321   22.0429 N   0  0  0  0  0  0
  -25.4324  -15.1909   20.4243 N   0  0  0  0  0  0
  -31.8127  -14.7442   20.1114 O   0  0  0  0  0  0
  -21.6624   -6.8871   21.4252 O   0  0  0  0  0  0
  -22.3591  -14.5532   20.6579 O   0  0  0  0  0  0
  -24.6206  -31.8629   23.2081 C   0  0  0  0  0  0
  -25.9096  -32.4794   23.8384 C   0  0  1  0  0  0
  -27.2410  -27.3719   20.1089 C   0  0  0  0  0  0
  -25.5937  -33.8588   24.2320 N   0  0  0  0  0  0
  -23.4121  -30.4853   21.5478 C   0  0  2  0  0  0
  -24.8612  -28.9505   20.1051 C   0  0  0  0  0  0
  -22.7471  -29.4637   22.4982 C   0  0  0  0  0  0
  -18.0293  -28.1407   22.8501 C   0  0  0  0  0  0
  -24.1468  -36.7271   23.2638 C   0  0  0  0  0  0
  -25.9462  -30.8069   21.3760 C   0  0  0  0  0  0
  -26.0208  -29.4379   20.7202 C   0  0  0  0  0  0
  -27.2047  -28.6563   20.7184 C   0  0  0  0  0  0
  -26.0619  -26.9300   19.4609 C   0  0  0  0  0  0
  -24.8848  -27.7026   19.4622 C   0  0  0  0  0  0
  -23.6221  -29.8173   20.1616 C   0  0  0  0  0  0
  -25.4098  -36.3080   24.0343 C   0  0  1  0  0  0
  -20.5892  -28.3691   23.1298 C   0  0  2  0  0  0
  -20.6766  -26.9426   22.5405 C   0  0  0  0  0  0
  -19.5733  -26.6407   21.5208 C   0  0  0  0  0  0
  -18.1921  -26.7960   22.1635 C   0  0  0  0  0  0
  -19.1544  -28.8877   23.2890 C   0  0  0  0  0  0
  -18.9461  -30.1485   23.8892 C   0  0  0  0  0  0
  -17.6457  -30.6596   24.0575 C   0  0  0  0  0  0
  -25.9037  -34.9453   23.5121 C   0  0  0  0  0  0
  -16.5352  -29.9097   23.6337 C   0  0  0  0  0  0
  -16.7286  -28.6529   23.0344 C   0  0  0  0  0  0
  -26.4494  -31.6601   25.0738 C   0  0  0  0  0  0
  -25.3744  -31.3738   26.1487 C   0  0  0  0  0  0
  -27.0355  -30.3040   24.6185 C   0  0  0  0  0  0
  -27.6080  -32.4326   25.7482 C   0  0  0  0  0  0
  -27.5573  -37.1793   24.8481 C   0  0  0  0  0  0
  -21.4202  -29.3035   22.3693 N   0  0  0  0  0  0
  -26.4283  -37.3777   23.9429 N   0  0  0  0  0  0
  -24.6770  -31.0686   22.1003 N   0  0  0  0  0  0
  -23.4222  -28.8189   23.3052 O   0  0  0  0  0  0
  -28.4081  -26.6083   20.1827 O   0  0  0  0  0  0
  -26.5586  -34.8914   22.4674 O   0  0  0  0  0  0
  -23.5386  -32.1417   23.7433 O   0  0  0  0  0  0
  -29.1388  -17.2224   23.1547 C   0  0  0  0  0  0
  -28.4691  -17.8263   24.2278 C   0  0  0  0  0  0
  -28.4308  -19.9097   22.9976 C   0  0  0  0  0  0
  -29.1407  -19.3482   21.8989 C   0  0  0  0  0  0
  -29.4643  -17.9291   21.9663 C   0  0  0  0  0  0
  -28.1024  -19.1701   24.1406 C   0  0  0  0  0  0
  -29.5013  -20.3067   20.7552 C   0  0  0  0  0  0
  -30.1724  -17.0786   20.8731 C   0  0  0  0  0  0
  -29.1836  -24.1975   20.6513 C   0  0  0  0  0  0
  -29.4114  -22.7704   20.0197 C   0  0  0  0  0  0
  -28.4564  -25.2244   19.7161 C   0  0  0  0  0  0
  -29.2474  -21.6313   20.9565 N   0  0  0  0  0  0
  -29.8865  -15.6118   20.9183 N   0  0  0  0  0  0
  -30.0072  -19.9033   19.7095 O   0  0  0  0  0  0
  -27.4427  -19.7618   25.1632 F   0  0  0  0  0  0
  -31.4726  -12.4784   19.1134 H   0  0  0  0  0  0
  -30.3661  -11.3599   19.8571 H   0  0  0  0  0  0
  -29.7429  -11.7231   17.4624 H   0  0  0  0  0  0
  -29.6548  -13.4463   17.7111 H   0  0  0  0  0  0
  -27.8430  -11.2884   18.8518 H   0  0  0  0  0  0
  -27.3678  -12.5831   17.7900 H   0  0  0  0  0  0
  -27.6885  -14.2463   19.5375 H   0  0  0  0  0  0
  -28.7101  -12.0122   21.3527 H   0  0  0  0  0  0
  -28.4688  -13.6655   21.8449 H   0  0  0  0  0  0
  -25.2776   -9.5645   22.4759 H   0  0  0  0  0  0
  -24.0020   -7.4600   22.7428 H   0  0  0  0  0  0
  -21.0778   -8.8766   19.9082 H   0  0  0  0  0  0
  -22.3576  -10.9682   19.6265 H   0  0  0  0  0  0
  -21.1986   -7.6145   23.9725 H   0  0  0  0  0  0
  -21.1441   -6.0530   25.9084 H   0  0  0  0  0  0
  -22.0626   -2.7637   23.2857 H   0  0  0  0  0  0
  -22.4095  -12.0077   22.4994 H   0  0  0  0  0  0
  -21.1117  -13.1373   22.2578 H   0  0  0  0  0  0
  -24.6738  -15.8483   20.5707 H   0  0  0  0  0  0
  -26.2754  -15.6345   20.0817 H   0  0  0  0  0  0
  -26.7178  -32.5501   23.1149 H   0  0  0  0  0  0
  -25.0142  -33.9724   25.0504 H   0  0  0  0  0  0
  -22.7030  -31.3022   21.4078 H   0  0  0  0  0  0
  -23.3733  -35.9596   23.3313 H   0  0  0  0  0  0
  -24.3562  -36.8861   22.2045 H   0  0  0  0  0  0
  -23.7205  -37.6479   23.6635 H   0  0  0  0  0  0
  -26.0777  -31.5708   20.6063 H   0  0  0  0  0  0
  -26.8278  -30.8537   22.0063 H   0  0  0  0  0  0
  -28.0952  -29.0255   21.2061 H   0  0  0  0  0  0
  -26.0101  -25.9897   18.9383 H   0  0  0  0  0  0
  -24.0065  -27.3324   18.9500 H   0  0  0  0  0  0
  -23.7306  -30.5901   19.4002 H   0  0  0  0  0  0
  -22.7455  -29.2358   19.8695 H   0  0  0  0  0  0
  -25.1264  -36.1934   25.0837 H   0  0  0  0  0  0
  -20.9989  -28.3260   24.1427 H   0  0  0  0  0  0
  -20.5660  -26.2316   23.3605 H   0  0  0  0  0  0
  -21.6630  -26.7458   22.1196 H   0  0  0  0  0  0
  -19.6866  -25.6320   21.1233 H   0  0  0  0  0  0
  -19.6640  -27.3221   20.6741 H   0  0  0  0  0  0
  -17.4186  -26.6735   21.4041 H   0  0  0  0  0  0
  -18.0314  -26.0100   22.9036 H   0  0  0  0  0  0
  -19.7929  -30.7310   24.2251 H   0  0  0  0  0  0
  -17.5009  -31.6274   24.5185 H   0  0  0  0  0  0
  -15.5355  -30.2980   23.7668 H   0  0  0  0  0  0
  -15.8700  -28.0835   22.7048 H   0  0  0  0  0  0
  -24.5915  -30.7080   25.7836 H   0  0  0  0  0  0
  -24.8930  -32.2902   26.4918 H   0  0  0  0  0  0
  -25.8089  -30.8930   27.0264 H   0  0  0  0  0  0
  -26.2946  -29.6774   24.1217 H   0  0  0  0  0  0
  -27.4087  -29.7310   25.4681 H   0  0  0  0  0  0
  -27.8779  -30.4341   23.9389 H   0  0  0  0  0  0
  -27.2730  -33.3635   26.2068 H   0  0  0  0  0  0
  -28.3874  -32.6883   25.0290 H   0  0  0  0  0  0
  -28.0771  -31.8451   26.5384 H   0  0  0  0  0  0
  -28.2612  -38.0065   24.7511 H   0  0  0  0  0  0
  -28.1044  -36.2608   24.6324 H   0  0  0  0  0  0
  -27.2297  -37.1465   25.8884 H   0  0  0  0  0  0
  -20.9411  -29.8772   21.6888 H   0  0  0  0  0  0
  -26.0160  -38.2850   24.1445 H   0  0  0  0  0  0
  -29.3996  -16.1822   23.2755 H   0  0  0  0  0  0
  -28.2243  -17.2602   25.1170 H   0  0  0  0  0  0
  -28.1143  -20.9407   23.0057 H   0  0  0  0  0  0
  -31.2461  -17.2478   20.9584 H   0  0  0  0  0  0
  -29.8816  -17.4202   19.8818 H   0  0  0  0  0  0
  -30.1502  -24.6046   20.9511 H   0  0  0  0  0  0
  -28.6097  -24.1100   21.5722 H   0  0  0  0  0  0
  -30.4100  -22.7370   19.5805 H   0  0  0  0  0  0
  -28.7172  -22.6200   19.1933 H   0  0  0  0  0  0
  -28.9492  -25.2387   18.7427 H   0  0  0  0  0  0
  -27.4783  -24.7836   19.5524 H   0  0  0  0  0  0
  -28.7991  -21.8520   21.8318 H   0  0  0  0  0  0
  -28.9432  -15.3638   21.1736 H   0  0  0  0  0  0
  1 25  1  0  0  0
  1 30  2  0  0  0
  1 83  1  0  0  0
  2  3  1  0  0  0
  2 25  1  0  0  0
  2 86  1  0  0  0
  2 87  1  0  0  0
  3  4  1  0  0  0
  3 88  1  0  0  0
  3 89  1  0  0  0
  4  5  1  0  0  0
  4 90  1  0  0  0
  4 91  1  0  0  0
  5  6  1  0  0  0
  5 26  1  0  0  0
  5 92  1  0  0  0
  6 25  1  0  0  0
  6 93  1  0  0  0
  6 94  1  0  0  0
  7  8  2  0  0  0
  7 26  1  0  0  0
  7 29  1  0  0  0
  8  9  1  0  0  0
  8 22  1  0  0  0
  9 10  1  0  0  0
  9 27  2  0  0  0
 10 11  2  0  0  0
 10 15  1  0  0  0
 11 12  1  0  0  0
 11 95  1  0  0  0
 12 13  2  0  0  0
 12 96  1  0  0  0
 13 14  1  0  0  0
 13 31  1  0  0  0
 14 15  2  0  0  0
 14 97  1  0  0  0
 15 98  1  0  0  0
 16 17  2  0  0  0
 16 21  1  0  0  0
 16 31  1  0  0  0
 17 18  1  0  0  0
 17 99  1  0  0  0
 18 19  2  0  0  0
 18100  1  0  0  0
 19 20  1  0  0  0
 19 24  1  0  0  0
 20 21  2  0  0  0
 20101  1  0  0  0
 21 23  1  0  0  0
 22 28  1  0  0  0
 22 32  2  0  0  0
 26 27  1  0  0  0
 28102  1  0  0  0
 28103  1  0  0  0
 29104  1  0  0  0
 29105  1  0  0  0
 33 34  1  0  0  0
 33 66  1  0  0  0
 33 70  2  0  0  0
 34 36  1  0  0  0
 34 59  1  0  0  0
 34106  1  0  0  0
 35 44  2  0  0  0
 35 45  1  0  0  0
 35 68  1  0  0  0
 36 56  1  0  0  0
 36107  1  0  0  0
 37 39  1  0  0  0
 37 47  1  0  0  0
 37 66  1  0  0  0
 37108  1  0  0  0
 38 43  2  0  0  0
 38 46  1  0  0  0
 38 47  1  0  0  0
 39 64  1  0  0  0
 39 67  2  0  0  0
 40 52  1  0  0  0
 40 53  2  0  0  0
 40 58  1  0  0  0
 41109  1  0  0  0
 41110  1  0  0  0
 41111  1  0  0  0
 41 48  1  0  0  0
 42 43  1  0  0  0
 42 66  1  0  0  0
 42112  1  0  0  0
 42113  1  0  0  0
 43 44  1  0  0  0
 44114  1  0  0  0
 45 46  2  0  0  0
 45115  1  0  0  0
 46116  1  0  0  0
 47117  1  0  0  0
 47118  1  0  0  0
 48 56  1  0  0  0
 48 65  1  0  0  0
 48119  1  0  0  0
 49 50  1  0  0  0
 49 53  1  0  0  0
 49 64  1  0  0  0
 49120  1  0  0  0
 50 51  1  0  0  0
 50121  1  0  0  0
 50122  1  0  0  0
 51 52  1  0  0  0
 51123  1  0  0  0
 51124  1  0  0  0
 52125  1  0  0  0
 52126  1  0  0  0
 53 54  1  0  0  0
 54 55  2  0  0  0
 54127  1  0  0  0
 55 57  1  0  0  0
 55128  1  0  0  0
 56 69  2  0  0  0
 57 58  2  0  0  0
 57129  1  0  0  0
 58130  1  0  0  0
 59 60  1  0  0  0
 59 61  1  0  0  0
 59 62  1  0  0  0
 60131  1  0  0  0
 60132  1  0  0  0
 60133  1  0  0  0
 61134  1  0  0  0
 61135  1  0  0  0
 61136  1  0  0  0
 62137  1  0  0  0
 62138  1  0  0  0
 62139  1  0  0  0
 63 65  1  0  0  0
 63140  1  0  0  0
 63141  1  0  0  0
 63142  1  0  0  0
 64143  1  0  0  0
 65144  1  0  0  0
 68 81  1  0  0  0
 71 72  2  0  0  0
 71 75  1  0  0  0
 71145  1  0  0  0
 72 76  1  0  0  0
 72146  1  0  0  0
 73 74  1  0  0  0
 73 76  2  0  0  0
 73147  1  0  0  0
 74 75  2  0  0  0
 74 77  1  0  0  0
 75 78  1  0  0  0
 76 85  1  0  0  0
 77 82  1  0  0  0
 77 84  2  0  0  0
 78 83  1  0  0  0
 78148  1  0  0  0
 78149  1  0  0  0
 79 80  1  0  0  0
 79 81  1  0  0  0
 79150  1  0  0  0
 79151  1  0  0  0
 80 82  1  0  0  0
 80152  1  0  0  0
 80153  1  0  0  0
 81154  1  0  0  0
 81155  1  0  0  0
 82156  1  0  0  0
 83157  1  0  0  0
M  ISO  4   1 100  68 101  81 101  83 100
M  END
> <chiral flag>
0

> <version>
0

> <s_m_source_file>
/data/baiqing/PycharmProjects/Reinvent-master-3.2/result/LINK_invent/BTK/process_docking_weight1_custom_product_contain_oxygen_bond_distance_aromatic_linkinvent_7_9_3/rearranged_h_0054.sdf

> <i_m_source_file_index>
37

> <r_mmod_Potential_Energy-OPLS-2005>
-108.83162689209

> <r_mmod_Stretch_Energy-OPLS-2005>
63.1162452697754

> <r_mmod_Bend_Energy-OPLS-2005>
129.14680480957

> <r_mmod_Torsional_Energy-OPLS-2005>
211.75520324707

> <r_mmod_Improper_Torsional_Energy-OPLS-2005>
4.43849277496338

> <r_mmod_Van_der_Waal_Energy-OPLS-2005>
161.632522583008

> <r_mmod_Electrostatic_Energy-OPLS-2005>
-478.684356689453

> <r_mmod_Solvation_Energy-OPLS-2005>
-229.931243896484

> <b_mmod_Minimization_Converged-OPLS-2005>
0

> <r_mmod_RMS_Derivative-OPLS-2005>
3.76478886604309

$$$$
37
                    3D
 Structure written by MMmdl.
156164  0  0  1  0            999 V2000
  -30.5960  -14.7650   20.4552 C   0  0  0  0  0  0
  -30.4373  -12.4709   19.4587 C   0  0  0  0  0  0
  -29.5074  -12.5023   18.2261 C   0  0  0  0  0  0
  -28.0350  -12.3219   18.6472 C   0  0  0  0  0  0
  -27.6378  -13.2286   19.8428 C   0  0  2  0  0  0
  -28.6871  -13.1739   20.9730 C   0  0  0  0  0  0
  -25.2500  -13.8188   20.5695 C   0  0  0  0  0  0
  -24.1797  -13.0433   20.9221 C   0  0  0  0  0  0
  -24.6390  -11.6911   20.8760 C   0  0  0  0  0  0
  -23.9071  -10.4288   21.0418 C   0  0  0  0  0  0
  -24.3623   -9.4202   21.9190 C   0  0  0  0  0  0
  -23.6295   -8.2238   22.0757 C   0  0  0  0  0  0
  -22.4277   -8.0279   21.3547 C   0  0  0  0  0  0
  -21.9915   -9.0255   20.4650 C   0  0  0  0  0  0
  -22.7246  -10.2132   20.3064 C   0  0  0  0  0  0
  -21.6852   -6.0736   22.5281 C   0  0  0  0  0  0
  -21.4013   -6.5640   23.8215 C   0  0  0  0  0  0
  -21.3660   -5.6793   24.9177 C   0  0  0  0  0  0
  -21.6046   -4.3055   24.7228 C   0  0  0  0  0  0
  -21.8817   -3.8148   23.4349 C   0  0  0  0  0  0
  -21.9193   -4.6965   22.3404 C   0  0  0  0  0  0
  -22.7818  -13.5217   21.1881 C   0  0  0  0  0  0
  -22.1658   -4.2151   21.0982 F   0  0  0  0  0  0
  -21.5633   -3.4539   25.7741 F   0  0  0  0  0  0
  -29.9790  -13.5360   20.3775 N   0  0  0  0  0  0
  -26.2919  -12.9384   20.3263 N   0  0  0  0  0  0
  -25.9317  -11.6532   20.5755 N   0  0  0  0  0  0
  -22.0463  -12.8205   22.0434 N   0  0  0  0  0  0
  -25.4167  -15.1917   20.4093 N   0  0  0  0  0  0
  -31.8037  -14.8584   20.2167 O   0  0  0  0  0  0
  -21.6638   -6.8878   21.4242 O   0  0  0  0  0  0
  -22.3500  -14.5522   20.6726 O   0  0  0  0  0  0
  -24.6317  -31.8541   23.1966 C   0  0  0  0  0  0
  -25.9139  -32.4746   23.8322 C   0  0  1  0  0  0
  -27.2244  -27.2582   20.1407 C   0  0  0  0  0  0
  -25.5932  -33.8550   24.2243 N   0  0  0  0  0  0
  -23.4292  -30.4741   21.5402 C   0  0  2  0  0  0
  -24.8780  -28.9117   20.1181 C   0  0  0  0  0  0
  -22.7506  -29.4593   22.4918 C   0  0  0  0  0  0
  -18.0292  -28.1383   22.8488 C   0  0  0  0  0  0
  -24.1489  -36.7278   23.2642 C   0  0  0  0  0  0
  -25.9742  -30.7664   21.3752 C   0  0  0  0  0  0
  -26.0495  -29.3853   20.7237 C   0  0  0  0  0  0
  -27.2295  -28.5731   20.7181 C   0  0  0  0  0  0
  -26.0312  -26.8422   19.5188 C   0  0  0  0  0  0
  -24.8733  -27.6475   19.5052 C   0  0  0  0  0  0
  -23.6490  -29.8013   20.1592 C   0  0  0  0  0  0
  -25.4117  -36.3063   24.0324 C   0  0  1  0  0  0
  -20.5896  -28.3692   23.1272 C   0  0  2  0  0  0
  -20.6774  -26.9407   22.5412 C   0  0  0  0  0  0
  -19.5747  -26.6378   21.5217 C   0  0  0  0  0  0
  -18.1929  -26.7926   22.1630 C   0  0  0  0  0  0
  -19.1546  -28.8856   23.2874 C   0  0  0  0  0  0
  -18.9466  -30.1460   23.8886 C   0  0  0  0  0  0
  -17.6463  -30.6584   24.0563 C   0  0  0  0  0  0
  -25.9059  -34.9435   23.5086 C   0  0  0  0  0  0
  -16.5355  -29.9078   23.6334 C   0  0  0  0  0  0
  -16.7278  -28.6499   23.0351 C   0  0  0  0  0  0
  -26.4506  -31.6579   25.0718 C   0  0  0  0  0  0
  -25.3729  -31.3728   26.1437 C   0  0  0  0  0  0
  -27.0357  -30.2995   24.6212 C   0  0  0  0  0  0
  -27.6054  -32.4326   25.7497 C   0  0  0  0  0  0
  -27.5575  -37.1793   24.8465 C   0  0  0  0  0  0
  -21.4213  -29.3038   22.3660 N   0  0  0  0  0  0
  -26.4287  -37.3764   23.9409 N   0  0  0  0  0  0
  -24.6975  -31.0505   22.0936 N   0  0  0  0  0  0
  -23.4205  -28.8142   23.3026 O   0  0  0  0  0  0
  -28.3248  -26.3758   20.1097 O   0  0  0  0  0  0
  -26.5638  -34.8915   22.4660 O   0  0  0  0  0  0
  -23.5466  -32.1362   23.7262 O   0  0  0  0  0  0
  -31.2362  -18.9550   22.2206 C   0  0  0  0  0  0
  -30.5083  -20.0411   21.6887 C   0  0  0  0  0  0
  -31.0334  -17.6309   21.7768 C   0  0  0  0  0  0
  -29.3466  -18.4756   20.2449 C   0  0  0  0  0  0
  -29.5697  -19.8641   20.6489 C   0  0  0  0  0  0
  -30.0664  -17.3274   20.7948 C   0  0  0  0  0  0
  -30.5182  -22.9545   19.9711 C   0  0  0  0  0  0
  -28.2175  -23.6486   20.1548 C   0  0  0  0  0  0
  -31.0530  -24.3930   19.9263 C   0  0  0  0  0  0
  -28.8033  -21.1404   20.0231 C   0  0  0  0  0  0
  -28.2737  -25.0895   20.8905 C   0  0  0  0  0  0
  -29.7828  -15.8963   20.4941 N   0  0  0  0  0  0
  -29.2023  -22.6424   20.1794 N   0  0  0  0  0  0
  -31.3667  -22.0869   19.7443 O   0  0  0  0  0  0
  -27.1360  -23.3918   19.6129 O   0  0  0  0  0  0
  -31.4744  -12.6128   19.1500 H   0  0  0  0  0  0
  -30.3979  -11.4981   19.9515 H   0  0  0  0  0  0
  -29.7928  -11.7224   17.5189 H   0  0  0  0  0  0
  -29.6253  -13.4510   17.6995 H   0  0  0  0  0  0
  -27.8994  -11.2744   18.9196 H   0  0  0  0  0  0
  -27.3731  -12.5020   17.7992 H   0  0  0  0  0  0
  -27.6246  -14.2461   19.4530 H   0  0  0  0  0  0
  -28.7322  -12.1784   21.4175 H   0  0  0  0  0  0
  -28.4230  -13.8608   21.7789 H   0  0  0  0  0  0
  -25.2769   -9.5675   22.4762 H   0  0  0  0  0  0
  -24.0008   -7.4628   22.7471 H   0  0  0  0  0  0
  -21.0849   -8.8774   19.8951 H   0  0  0  0  0  0
  -22.3710  -10.9672   19.6172 H   0  0  0  0  0  0
  -21.1996   -7.6146   23.9718 H   0  0  0  0  0  0
  -21.1487   -6.0523   25.9080 H   0  0  0  0  0  0
  -22.0596   -2.7610   23.2850 H   0  0  0  0  0  0
  -22.4081  -11.9868   22.4826 H   0  0  0  0  0  0
  -21.1081  -13.1228   22.2642 H   0  0  0  0  0  0
  -24.6453  -15.8411   20.5203 H   0  0  0  0  0  0
  -26.2565  -15.6364   20.0639 H   0  0  0  0  0  0
  -26.7207  -32.5396   23.1065 H   0  0  0  0  0  0
  -25.0060  -33.9689   25.0375 H   0  0  0  0  0  0
  -22.7257  -31.2958   21.3909 H   0  0  0  0  0  0
  -23.3751  -35.9610   23.3302 H   0  0  0  0  0  0
  -24.3575  -36.8910   22.2057 H   0  0  0  0  0  0
  -23.7245  -37.6477   23.6675 H   0  0  0  0  0  0
  -26.1114  -31.5237   20.6023 H   0  0  0  0  0  0
  -26.8516  -30.8190   22.0082 H   0  0  0  0  0  0
  -28.1332  -28.9384   21.1853 H   0  0  0  0  0  0
  -25.9910  -25.8712   19.0454 H   0  0  0  0  0  0
  -23.9761  -27.2786   19.0279 H   0  0  0  0  0  0
  -23.7757  -30.5740   19.3999 H   0  0  0  0  0  0
  -22.7669  -29.2348   19.8553 H   0  0  0  0  0  0
  -25.1301  -36.1903   25.0816 H   0  0  0  0  0  0
  -20.9991  -28.3266   24.1393 H   0  0  0  0  0  0
  -20.5667  -26.2302   23.3618 H   0  0  0  0  0  0
  -21.6640  -26.7419   22.1208 H   0  0  0  0  0  0
  -19.6903  -25.6289   21.1243 H   0  0  0  0  0  0
  -19.6683  -27.3192   20.6749 H   0  0  0  0  0  0
  -17.4199  -26.6679   21.4031 H   0  0  0  0  0  0
  -18.0325  -26.0067   22.9025 H   0  0  0  0  0  0
  -19.7940  -30.7284   24.2244 H   0  0  0  0  0  0
  -17.5013  -31.6262   24.5166 H   0  0  0  0  0  0
  -15.5353  -30.2972   23.7663 H   0  0  0  0  0  0
  -15.8681  -28.0815   22.7062 H   0  0  0  0  0  0
  -24.5906  -30.7078   25.7762 H   0  0  0  0  0  0
  -24.8922  -32.2895   26.4858 H   0  0  0  0  0  0
  -25.8046  -30.8905   27.0216 H   0  0  0  0  0  0
  -26.2942  -29.6736   24.1232 H   0  0  0  0  0  0
  -27.4029  -29.7268   25.4738 H   0  0  0  0  0  0
  -27.8823  -30.4267   23.9461 H   0  0  0  0  0  0
  -27.2654  -33.3628   26.2061 H   0  0  0  0  0  0
  -28.3871  -32.6883   25.0333 H   0  0  0  0  0  0
  -28.0714  -31.8463   26.5425 H   0  0  0  0  0  0
  -28.2588  -38.0093   24.7507 H   0  0  0  0  0  0
  -28.1073  -36.2622   24.6293 H   0  0  0  0  0  0
  -27.2293  -37.1445   25.8868 H   0  0  0  0  0  0
  -20.9400  -29.8763   21.6865 H   0  0  0  0  0  0
  -26.0160  -38.2834   24.1416 H   0  0  0  0  0  0
  -31.9642  -19.1421   22.9977 H   0  0  0  0  0  0
  -30.7028  -21.0291   22.0804 H   0  0  0  0  0  0
  -31.6048  -16.8393   22.2405 H   0  0  0  0  0  0
  -28.5963  -18.2895   19.4889 H   0  0  0  0  0  0
  -30.4603  -25.0418   19.2829 H   0  0  0  0  0  0
  -32.0627  -24.3984   19.5145 H   0  0  0  0  0  0
  -31.1288  -24.8169   20.9263 H   0  0  0  0  0  0
  -27.7769  -21.0366   20.3785 H   0  0  0  0  0  0
  -28.7418  -20.9553   18.9497 H   0  0  0  0  0  0
  -29.0766  -25.0907   21.6240 H   0  0  0  0  0  0
  -27.3780  -25.1248   21.5123 H   0  0  0  0  0  0
  -28.8068  -15.6842   20.3624 H   0  0  0  0  0  0
  1 25  1  0  0  0
  1 30  2  0  0  0
  1 82  1  0  0  0
  2  3  1  0  0  0
  2 25  1  0  0  0
  2 86  1  0  0  0
  2 87  1  0  0  0
  3  4  1  0  0  0
  3 88  1  0  0  0
  3 89  1  0  0  0
  4  5  1  0  0  0
  4 90  1  0  0  0
  4 91  1  0  0  0
  5  6  1  0  0  0
  5 26  1  0  0  0
  5 92  1  0  0  0
  6 25  1  0  0  0
  6 93  1  0  0  0
  6 94  1  0  0  0
  7  8  2  0  0  0
  7 26  1  0  0  0
  7 29  1  0  0  0
  8  9  1  0  0  0
  8 22  1  0  0  0
  9 10  1  0  0  0
  9 27  2  0  0  0
 10 11  2  0  0  0
 10 15  1  0  0  0
 11 12  1  0  0  0
 11 95  1  0  0  0
 12 13  2  0  0  0
 12 96  1  0  0  0
 13 14  1  0  0  0
 13 31  1  0  0  0
 14 15  2  0  0  0
 14 97  1  0  0  0
 15 98  1  0  0  0
 16 17  2  0  0  0
 16 21  1  0  0  0
 16 31  1  0  0  0
 17 18  1  0  0  0
 17 99  1  0  0  0
 18 19  2  0  0  0
 18100  1  0  0  0
 19 20  1  0  0  0
 19 24  1  0  0  0
 20 21  2  0  0  0
 20101  1  0  0  0
 21 23  1  0  0  0
 22 28  1  0  0  0
 22 32  2  0  0  0
 26 27  1  0  0  0
 28102  1  0  0  0
 28103  1  0  0  0
 29104  1  0  0  0
 29105  1  0  0  0
 33 34  1  0  0  0
 33 66  1  0  0  0
 33 70  2  0  0  0
 34 36  1  0  0  0
 34 59  1  0  0  0
 34106  1  0  0  0
 35 44  2  0  0  0
 35 45  1  0  0  0
 35 68  1  0  0  0
 36 56  1  0  0  0
 36107  1  0  0  0
 37 39  1  0  0  0
 37 47  1  0  0  0
 37 66  1  0  0  0
 37108  1  0  0  0
 38 43  2  0  0  0
 38 46  1  0  0  0
 38 47  1  0  0  0
 39 64  1  0  0  0
 39 67  2  0  0  0
 40 52  1  0  0  0
 40 53  2  0  0  0
 40 58  1  0  0  0
 41109  1  0  0  0
 41110  1  0  0  0
 41111  1  0  0  0
 41 48  1  0  0  0
 42 43  1  0  0  0
 42 66  1  0  0  0
 42112  1  0  0  0
 42113  1  0  0  0
 43 44  1  0  0  0
 44114  1  0  0  0
 45 46  2  0  0  0
 45115  1  0  0  0
 46116  1  0  0  0
 47117  1  0  0  0
 47118  1  0  0  0
 48 56  1  0  0  0
 48 65  1  0  0  0
 48119  1  0  0  0
 49 50  1  0  0  0
 49 53  1  0  0  0
 49 64  1  0  0  0
 49120  1  0  0  0
 50 51  1  0  0  0
 50121  1  0  0  0
 50122  1  0  0  0
 51 52  1  0  0  0
 51123  1  0  0  0
 51124  1  0  0  0
 52125  1  0  0  0
 52126  1  0  0  0
 53 54  1  0  0  0
 54 55  2  0  0  0
 54127  1  0  0  0
 55 57  1  0  0  0
 55128  1  0  0  0
 56 69  2  0  0  0
 57 58  2  0  0  0
 57129  1  0  0  0
 58130  1  0  0  0
 59 60  1  0  0  0
 59 61  1  0  0  0
 59 62  1  0  0  0
 60131  1  0  0  0
 60132  1  0  0  0
 60133  1  0  0  0
 61134  1  0  0  0
 61135  1  0  0  0
 61136  1  0  0  0
 62137  1  0  0  0
 62138  1  0  0  0
 62139  1  0  0  0
 63 65  1  0  0  0
 63140  1  0  0  0
 63141  1  0  0  0
 63142  1  0  0  0
 64143  1  0  0  0
 65144  1  0  0  0
 68 81  1  0  0  0
 71 72  2  0  0  0
 71 73  1  0  0  0
 71145  1  0  0  0
 72 75  1  0  0  0
 72146  1  0  0  0
 73 76  2  0  0  0
 73147  1  0  0  0
 74 75  2  0  0  0
 74 76  1  0  0  0
 74148  1  0  0  0
 75 80  1  0  0  0
 76 82  1  0  0  0
 77 79  1  0  0  0
 77 83  1  0  0  0
 77 84  2  0  0  0
 78 81  1  0  0  0
 78 83  1  0  0  0
 78 85  2  0  0  0
 79149  1  0  0  0
 79150  1  0  0  0
 79151  1  0  0  0
 80 83  1  0  0  0
 80152  1  0  0  0
 80153  1  0  0  0
 81154  1  0  0  0
 81155  1  0  0  0
 82156  1  0  0  0
M  ISO  4   1 100  68 101  81 101  82 100
M  END
> <chiral flag>
0

> <version>
0

> <s_m_source_file>
/data/baiqing/PycharmProjects/Reinvent-master-3.2/result/LINK_invent/BTK/process_docking_weight1_custom_product_contain_oxygen_bond_distance_aromatic_linkinvent_7_9_3/rearranged_h_0054.sdf

> <i_m_source_file_index>
38

> <r_mmod_Potential_Energy-OPLS-2005>
183.559799194336

> <r_mmod_Stretch_Energy-OPLS-2005>
147.504028320312

> <r_mmod_Bend_Energy-OPLS-2005>
191.448333740234

> <r_mmod_Torsional_Energy-OPLS-2005>
268.420227050781

> <r_mmod_Improper_Torsional_Energy-OPLS-2005>
10.0659799575806

> <r_mmod_Van_der_Waal_Energy-OPLS-2005>
150.972030639648

> <r_mmod_Electrostatic_Energy-OPLS-2005>
-437.746948242188

> <r_mmod_Solvation_Energy-OPLS-2005>
-237.943130493164

> <b_mmod_Minimization_Converged-OPLS-2005>
0

> <r_mmod_RMS_Derivative-OPLS-2005>
0.646452963352203

$$$$
38
                    3D
 Structure written by MMmdl.
151159  0  0  1  0            999 V2000
  -30.5976  -14.7449   20.4182 C   0  0  0  0  0  0
  -30.4361  -12.4486   19.4713 C   0  0  0  0  0  0
  -29.5135  -12.5141   18.2339 C   0  0  0  0  0  0
  -28.0388  -12.3419   18.6416 C   0  0  0  0  0  0
  -27.6461  -13.2336   19.8509 C   0  0  2  0  0  0
  -28.6911  -13.1502   20.9860 C   0  0  0  0  0  0
  -25.2524  -13.8213   20.5632 C   0  0  0  0  0  0
  -24.1819  -13.0456   20.9173 C   0  0  0  0  0  0
  -24.6404  -11.6931   20.8705 C   0  0  0  0  0  0
  -23.9071  -10.4314   21.0386 C   0  0  0  0  0  0
  -24.3622   -9.4216   21.9160 C   0  0  0  0  0  0
  -23.6292   -8.2259   22.0740 C   0  0  0  0  0  0
  -22.4261   -8.0311   21.3538 C   0  0  0  0  0  0
  -21.9897   -9.0292   20.4651 C   0  0  0  0  0  0
  -22.7236  -10.2153   20.3058 C   0  0  0  0  0  0
  -21.6859   -6.0740   22.5273 C   0  0  0  0  0  0
  -21.4020   -6.5634   23.8207 C   0  0  0  0  0  0
  -21.3654   -5.6770   24.9162 C   0  0  0  0  0  0
  -21.6046   -4.3041   24.7209 C   0  0  0  0  0  0
  -21.8828   -3.8145   23.4327 C   0  0  0  0  0  0
  -21.9197   -4.6959   22.3389 C   0  0  0  0  0  0
  -22.7843  -13.5257   21.1849 C   0  0  0  0  0  0
  -22.1665   -4.2163   21.0959 F   0  0  0  0  0  0
  -21.5614   -3.4525   25.7701 F   0  0  0  0  0  0
  -29.9953  -13.5049   20.4108 N   0  0  0  0  0  0
  -26.2960  -12.9422   20.3234 N   0  0  0  0  0  0
  -25.9339  -11.6567   20.5694 N   0  0  0  0  0  0
  -22.0492  -12.8266   22.0430 N   0  0  0  0  0  0
  -25.4239  -15.1938   20.4023 N   0  0  0  0  0  0
  -31.7770  -14.8475   20.0686 O   0  0  0  0  0  0
  -21.6651   -6.8890   21.4234 O   0  0  0  0  0  0
  -22.3534  -14.5566   20.6694 O   0  0  0  0  0  0
  -24.6317  -31.8560   23.1983 C   0  0  0  0  0  0
  -25.9137  -32.4765   23.8329 C   0  0  1  0  0  0
  -27.2232  -27.2650   20.1180 C   0  0  0  0  0  0
  -25.5929  -33.8552   24.2259 N   0  0  0  0  0  0
  -23.4293  -30.4798   21.5417 C   0  0  2  0  0  0
  -24.8776  -28.9332   20.1065 C   0  0  0  0  0  0
  -22.7503  -29.4604   22.4903 C   0  0  0  0  0  0
  -18.0297  -28.1414   22.8474 C   0  0  0  0  0  0
  -24.1483  -36.7295   23.2634 C   0  0  0  0  0  0
  -25.9749  -30.7695   21.3779 C   0  0  0  0  0  0
  -26.0486  -29.3923   20.7209 C   0  0  0  0  0  0
  -27.2234  -28.5698   20.7196 C   0  0  0  0  0  0
  -26.0303  -26.8887   19.4541 C   0  0  0  0  0  0
  -24.8742  -27.6903   19.4614 C   0  0  0  0  0  0
  -23.6466  -29.8170   20.1570 C   0  0  0  0  0  0
  -25.4103  -36.3073   24.0327 C   0  0  1  0  0  0
  -20.5897  -28.3723   23.1271 C   0  0  2  0  0  0
  -20.6781  -26.9438   22.5418 C   0  0  0  0  0  0
  -19.5759  -26.6389   21.5220 C   0  0  0  0  0  0
  -18.1937  -26.7951   22.1623 C   0  0  0  0  0  0
  -19.1550  -28.8881   23.2863 C   0  0  0  0  0  0
  -18.9467  -30.1483   23.8892 C   0  0  0  0  0  0
  -17.6463  -30.6600   24.0574 C   0  0  0  0  0  0
  -25.9050  -34.9448   23.5105 C   0  0  0  0  0  0
  -16.5357  -29.9104   23.6327 C   0  0  0  0  0  0
  -16.7281  -28.6526   23.0334 C   0  0  0  0  0  0
  -26.4499  -31.6578   25.0709 C   0  0  0  0  0  0
  -25.3733  -31.3768   26.1448 C   0  0  0  0  0  0
  -27.0292  -30.2977   24.6191 C   0  0  0  0  0  0
  -27.6088  -32.4301   25.7443 C   0  0  0  0  0  0
  -27.5598  -37.1773   24.8445 C   0  0  0  0  0  0
  -21.4217  -29.3066   22.3648 N   0  0  0  0  0  0
  -26.4276  -37.3786   23.9440 N   0  0  0  0  0  0
  -24.6974  -31.0531   22.0960 N   0  0  0  0  0  0
  -23.4213  -28.8137   23.2985 O   0  0  0  0  0  0
  -28.3072  -26.3516   20.1970 O   0  0  0  0  0  0
  -26.5624  -34.8926   22.4674 O   0  0  0  0  0  0
  -23.5466  -32.1364   23.7300 O   0  0  0  0  0  0
  -30.2878  -18.6008   18.0480 C   0  0  0  0  0  0
  -29.9636  -19.7976   18.7257 C   0  0  0  0  0  0
  -30.2645  -17.3472   18.6986 C   0  0  0  0  0  0
  -29.5410  -18.4727   20.7240 C   0  0  0  0  0  0
  -29.5791  -19.7814   20.0825 C   0  0  0  0  0  0
  -29.9026  -17.2287   20.0591 C   0  0  0  0  0  0
  -28.9859  -23.7554   20.4921 C   0  0  0  0  0  0
  -29.3224  -21.1633   20.8363 C   0  0  0  0  0  0
  -28.0503  -24.8995   19.8758 C   0  0  0  0  0  0
  -29.8225  -15.8716   20.6626 N   0  0  0  0  0  0
  -28.8143  -22.4231   20.1364 N   0  0  0  0  0  0
  -29.8265  -24.0713   21.3367 O   0  0  0  0  0  0
  -31.4751  -12.5749   19.1640 H   0  0  0  0  0  0
  -30.3821  -11.4688   19.9483 H   0  0  0  0  0  0
  -29.7869  -11.7464   17.5066 H   0  0  0  0  0  0
  -29.6430  -13.4737   17.7315 H   0  0  0  0  0  0
  -27.8819  -11.2907   18.8847 H   0  0  0  0  0  0
  -27.3958  -12.5578   17.7873 H   0  0  0  0  0  0
  -27.6447  -14.2580   19.4752 H   0  0  0  0  0  0
  -28.7210  -12.1420   21.4028 H   0  0  0  0  0  0
  -28.4330  -13.8153   21.8109 H   0  0  0  0  0  0
  -25.2782   -9.5684   22.4727 H   0  0  0  0  0  0
  -24.0008   -7.4637   22.7450 H   0  0  0  0  0  0
  -21.0822   -8.8839   19.8955 H   0  0  0  0  0  0
  -22.3719  -10.9699   19.6186 H   0  0  0  0  0  0
  -21.2029   -7.6141   23.9713 H   0  0  0  0  0  0
  -21.1453   -6.0497   25.9053 H   0  0  0  0  0  0
  -22.0608   -2.7617   23.2829 H   0  0  0  0  0  0
  -22.4110  -11.9964   22.4879 H   0  0  0  0  0  0
  -21.1132  -13.1327   22.2648 H   0  0  0  0  0  0
  -24.6646  -15.8548   20.5226 H   0  0  0  0  0  0
  -26.2679  -15.6215   20.0424 H   0  0  0  0  0  0
  -26.7202  -32.5421   23.1069 H   0  0  0  0  0  0
  -25.0053  -33.9679   25.0396 H   0  0  0  0  0  0
  -22.7255  -31.3015   21.3960 H   0  0  0  0  0  0
  -23.3759  -35.9614   23.3253 H   0  0  0  0  0  0
  -24.3592  -36.8962   22.2061 H   0  0  0  0  0  0
  -23.7207  -37.6469   23.6689 H   0  0  0  0  0  0
  -26.1096  -31.5300   20.6072 H   0  0  0  0  0  0
  -26.8540  -30.8221   22.0074 H   0  0  0  0  0  0
  -28.1162  -28.9163   21.2224 H   0  0  0  0  0  0
  -25.9516  -25.9513   18.9252 H   0  0  0  0  0  0
  -23.9839  -27.3402   18.9582 H   0  0  0  0  0  0
  -23.7690  -30.5922   19.3997 H   0  0  0  0  0  0
  -22.7652  -29.2496   19.8533 H   0  0  0  0  0  0
  -25.1271  -36.1917   25.0812 H   0  0  0  0  0  0
  -20.9985  -28.3318   24.1393 H   0  0  0  0  0  0
  -20.5665  -26.2340   23.3631 H   0  0  0  0  0  0
  -21.6655  -26.7439   22.1236 H   0  0  0  0  0  0
  -19.6917  -25.6287   21.1278 H   0  0  0  0  0  0
  -19.6702  -27.3176   20.6734 H   0  0  0  0  0  0
  -17.4197  -26.6688   21.4038 H   0  0  0  0  0  0
  -18.0340  -26.0112   22.9038 H   0  0  0  0  0  0
  -19.7937  -30.7310   24.2265 H   0  0  0  0  0  0
  -17.5011  -31.6279   24.5186 H   0  0  0  0  0  0
  -15.5362  -30.3006   23.7652 H   0  0  0  0  0  0
  -15.8681  -28.0855   22.7039 H   0  0  0  0  0  0
  -24.5901  -30.7100   25.7820 H   0  0  0  0  0  0
  -24.8922  -32.2943   26.4846 H   0  0  0  0  0  0
  -25.8055  -30.8981   27.0244 H   0  0  0  0  0  0
  -26.2835  -29.6751   24.1227 H   0  0  0  0  0  0
  -27.3952  -29.7226   25.4708 H   0  0  0  0  0  0
  -27.8744  -30.4208   23.9418 H   0  0  0  0  0  0
  -27.2735  -33.3621   26.2012 H   0  0  0  0  0  0
  -28.3883  -32.6825   25.0238 H   0  0  0  0  0  0
  -28.0770  -31.8418   26.5350 H   0  0  0  0  0  0
  -28.2570  -38.0121   24.7581 H   0  0  0  0  0  0
  -28.1142  -36.2662   24.6135 H   0  0  0  0  0  0
  -27.2352  -37.1261   25.8856 H   0  0  0  0  0  0
  -20.9410  -29.8799   21.6858 H   0  0  0  0  0  0
  -26.0156  -38.2846   24.1515 H   0  0  0  0  0  0
  -30.5656  -18.6424   17.0019 H   0  0  0  0  0  0
  -30.0301  -20.7395   18.1979 H   0  0  0  0  0  0
  -30.5060  -16.4665   18.1171 H   0  0  0  0  0  0
  -29.2439  -18.4349   21.7632 H   0  0  0  0  0  0
  -30.2665  -21.4156   21.3210 H   0  0  0  0  0  0
  -28.6338  -20.9604   21.6561 H   0  0  0  0  0  0
  -27.0603  -24.6304   20.2430 H   0  0  0  0  0  0
  -28.0381  -24.7813   18.7930 H   0  0  0  0  0  0
  -28.9644  -15.6855   21.1623 H   0  0  0  0  0  0
  -28.1178  -22.2650   19.4212 H   0  0  0  0  0  0
  1 25  1  0  0  0
  1 30  2  0  0  0
  1 80  1  0  0  0
  2  3  1  0  0  0
  2 25  1  0  0  0
  2 83  1  0  0  0
  2 84  1  0  0  0
  3  4  1  0  0  0
  3 85  1  0  0  0
  3 86  1  0  0  0
  4  5  1  0  0  0
  4 87  1  0  0  0
  4 88  1  0  0  0
  5  6  1  0  0  0
  5 26  1  0  0  0
  5 89  1  0  0  0
  6 25  1  0  0  0
  6 90  1  0  0  0
  6 91  1  0  0  0
  7  8  2  0  0  0
  7 26  1  0  0  0
  7 29  1  0  0  0
  8  9  1  0  0  0
  8 22  1  0  0  0
  9 10  1  0  0  0
  9 27  2  0  0  0
 10 11  2  0  0  0
 10 15  1  0  0  0
 11 12  1  0  0  0
 11 92  1  0  0  0
 12 13  2  0  0  0
 12 93  1  0  0  0
 13 14  1  0  0  0
 13 31  1  0  0  0
 14 15  2  0  0  0
 14 94  1  0  0  0
 15 95  1  0  0  0
 16 17  2  0  0  0
 16 21  1  0  0  0
 16 31  1  0  0  0
 17 18  1  0  0  0
 17 96  1  0  0  0
 18 19  2  0  0  0
 18 97  1  0  0  0
 19 20  1  0  0  0
 19 24  1  0  0  0
 20 21  2  0  0  0
 20 98  1  0  0  0
 21 23  1  0  0  0
 22 28  1  0  0  0
 22 32  2  0  0  0
 26 27  1  0  0  0
 28 99  1  0  0  0
 28100  1  0  0  0
 29101  1  0  0  0
 29102  1  0  0  0
 33 34  1  0  0  0
 33 66  1  0  0  0
 33 70  2  0  0  0
 34 36  1  0  0  0
 34 59  1  0  0  0
 34103  1  0  0  0
 35 44  2  0  0  0
 35 45  1  0  0  0
 35 68  1  0  0  0
 36 56  1  0  0  0
 36104  1  0  0  0
 37 39  1  0  0  0
 37 47  1  0  0  0
 37 66  1  0  0  0
 37105  1  0  0  0
 38 43  2  0  0  0
 38 46  1  0  0  0
 38 47  1  0  0  0
 39 64  1  0  0  0
 39 67  2  0  0  0
 40 52  1  0  0  0
 40 53  2  0  0  0
 40 58  1  0  0  0
 41106  1  0  0  0
 41107  1  0  0  0
 41108  1  0  0  0
 41 48  1  0  0  0
 42 43  1  0  0  0
 42 66  1  0  0  0
 42109  1  0  0  0
 42110  1  0  0  0
 43 44  1  0  0  0
 44111  1  0  0  0
 45 46  2  0  0  0
 45112  1  0  0  0
 46113  1  0  0  0
 47114  1  0  0  0
 47115  1  0  0  0
 48 56  1  0  0  0
 48 65  1  0  0  0
 48116  1  0  0  0
 49 50  1  0  0  0
 49 53  1  0  0  0
 49 64  1  0  0  0
 49117  1  0  0  0
 50 51  1  0  0  0
 50118  1  0  0  0
 50119  1  0  0  0
 51 52  1  0  0  0
 51120  1  0  0  0
 51121  1  0  0  0
 52122  1  0  0  0
 52123  1  0  0  0
 53 54  1  0  0  0
 54 55  2  0  0  0
 54124  1  0  0  0
 55 57  1  0  0  0
 55125  1  0  0  0
 56 69  2  0  0  0
 57 58  2  0  0  0
 57126  1  0  0  0
 58127  1  0  0  0
 59 60  1  0  0  0
 59 61  1  0  0  0
 59 62  1  0  0  0
 60128  1  0  0  0
 60129  1  0  0  0
 60130  1  0  0  0
 61131  1  0  0  0
 61132  1  0  0  0
 61133  1  0  0  0
 62134  1  0  0  0
 62135  1  0  0  0
 62136  1  0  0  0
 63 65  1  0  0  0
 63137  1  0  0  0
 63138  1  0  0  0
 63139  1  0  0  0
 64140  1  0  0  0
 65141  1  0  0  0
 68 79  1  0  0  0
 71 72  2  0  0  0
 71 73  1  0  0  0
 71142  1  0  0  0
 72 75  1  0  0  0
 72143  1  0  0  0
 73 76  2  0  0  0
 73144  1  0  0  0
 74 75  2  0  0  0
 74 76  1  0  0  0
 74145  1  0  0  0
 75 78  1  0  0  0
 76 80  1  0  0  0
 77 79  1  0  0  0
 77 81  1  0  0  0
 77 82  2  0  0  0
 78 81  1  0  0  0
 78146  1  0  0  0
 78147  1  0  0  0
 79148  1  0  0  0
 79149  1  0  0  0
 80150  1  0  0  0
 81151  1  0  0  0
M  ISO  4   1 100  68 101  79 101  80 100
M  END
> <chiral flag>
0

> <version>
0

> <s_m_source_file>
/data/baiqing/PycharmProjects/Reinvent-master-3.2/result/LINK_invent/BTK/process_docking_weight1_custom_product_contain_oxygen_bond_distance_aromatic_linkinvent_7_9_3/rearranged_h_0054.sdf

> <i_m_source_file_index>
39

> <r_mmod_Potential_Energy-OPLS-2005>
85.4810256958008

> <r_mmod_Stretch_Energy-OPLS-2005>
120.807792663574

> <r_mmod_Bend_Energy-OPLS-2005>
152.481475830078

> <r_mmod_Torsional_Energy-OPLS-2005>
231.772384643555

> <r_mmod_Improper_Torsional_Energy-OPLS-2005>
5.49780511856079

> <r_mmod_Van_der_Waal_Energy-OPLS-2005>
140.538269042969

> <r_mmod_Electrostatic_Energy-OPLS-2005>
-398.400085449219

> <r_mmod_Solvation_Energy-OPLS-2005>
-253.995498657227

> <b_mmod_Minimization_Converged-OPLS-2005>
0

> <r_mmod_RMS_Derivative-OPLS-2005>
3.58414220809937

$$$$
39
                    3D
 Structure written by MMmdl.
158167  0  0  1  0            999 V2000
  -30.6334  -14.6381   20.4976 C   0  0  0  0  0  0
  -30.4511  -12.3756   19.4968 C   0  0  0  0  0  0
  -29.5323  -12.4401   18.2560 C   0  0  0  0  0  0
  -28.0451  -12.3273   18.6441 C   0  0  0  0  0  0
  -27.6610  -13.2156   19.8592 C   0  0  2  0  0  0
  -28.6945  -13.0887   21.0000 C   0  0  0  0  0  0
  -25.2592  -13.8182   20.5580 C   0  0  0  0  0  0
  -24.1868  -13.0450   20.9153 C   0  0  0  0  0  0
  -24.6435  -11.6930   20.8748 C   0  0  0  0  0  0
  -23.9083  -10.4287   21.0376 C   0  0  0  0  0  0
  -24.3640   -9.4194   21.9151 C   0  0  0  0  0  0
  -23.6313   -8.2226   22.0730 C   0  0  0  0  0  0
  -22.4270   -8.0286   21.3533 C   0  0  0  0  0  0
  -21.9906   -9.0261   20.4634 C   0  0  0  0  0  0
  -22.7244  -10.2147   20.3032 C   0  0  0  0  0  0
  -21.6871   -6.0719   22.5260 C   0  0  0  0  0  0
  -21.4031   -6.5615   23.8199 C   0  0  0  0  0  0
  -21.3678   -5.6767   24.9160 C   0  0  0  0  0  0
  -21.6057   -4.3025   24.7210 C   0  0  0  0  0  0
  -21.8841   -3.8121   23.4326 C   0  0  0  0  0  0
  -21.9195   -4.6939   22.3383 C   0  0  0  0  0  0
  -22.7880  -13.5253   21.1825 C   0  0  0  0  0  0
  -22.1657   -4.2116   21.0961 F   0  0  0  0  0  0
  -21.5638   -3.4525   25.7727 F   0  0  0  0  0  0
  -30.0164  -13.4171   20.4482 N   0  0  0  0  0  0
  -26.3026  -12.9360   20.3267 N   0  0  0  0  0  0
  -25.9357  -11.6515   20.5759 N   0  0  0  0  0  0
  -22.0538  -12.8239   22.0414 N   0  0  0  0  0  0
  -25.4334  -15.1876   20.3834 N   0  0  0  0  0  0
  -31.7954  -14.7841   20.1113 O   0  0  0  0  0  0
  -21.6658   -6.8866   21.4222 O   0  0  0  0  0  0
  -22.3526  -14.5497   20.6606 O   0  0  0  0  0  0
  -24.6192  -31.8585   23.2001 C   0  0  0  0  0  0
  -25.9061  -32.4762   23.8332 C   0  0  1  0  0  0
  -27.2395  -27.3314   20.1708 C   0  0  0  0  0  0
  -25.5889  -33.8563   24.2280 N   0  0  0  0  0  0
  -23.4171  -30.4732   21.5368 C   0  0  2  0  0  0
  -24.8741  -28.9229   20.1153 C   0  0  0  0  0  0
  -22.7464  -29.4582   22.4918 C   0  0  0  0  0  0
  -18.0261  -28.1357   22.8469 C   0  0  0  0  0  0
  -24.1506  -36.7301   23.2635 C   0  0  0  0  0  0
  -25.9534  -30.7986   21.3704 C   0  0  0  0  0  0
  -26.0331  -29.4245   20.7200 C   0  0  0  0  0  0
  -27.2187  -28.6418   20.7317 C   0  0  0  0  0  0
  -26.0669  -26.8730   19.5351 C   0  0  0  0  0  0
  -24.8916  -27.6534   19.5115 C   0  0  0  0  0  0
  -23.6384  -29.7969   20.1561 C   0  0  0  0  0  0
  -25.4122  -36.3074   24.0337 C   0  0  1  0  0  0
  -20.5868  -28.3667   23.1285 C   0  0  2  0  0  0
  -20.6750  -26.9389   22.5415 C   0  0  0  0  0  0
  -19.5745  -26.6356   21.5195 C   0  0  0  0  0  0
  -18.1925  -26.7897   22.1601 C   0  0  0  0  0  0
  -19.1516  -28.8824   23.2873 C   0  0  0  0  0  0
  -18.9433  -30.1432   23.8889 C   0  0  0  0  0  0
  -17.6438  -30.6568   24.0537 C   0  0  0  0  0  0
  -25.9055  -34.9440   23.5117 C   0  0  0  0  0  0
  -16.5334  -29.9063   23.6311 C   0  0  0  0  0  0
  -16.7251  -28.6469   23.0346 C   0  0  0  0  0  0
  -26.4489  -31.6548   25.0680 C   0  0  0  0  0  0
  -25.3739  -31.3641   26.1412 C   0  0  0  0  0  0
  -27.0334  -30.2972   24.6114 C   0  0  0  0  0  0
  -27.6047  -32.4285   25.7437 C   0  0  0  0  0  0
  -27.5618  -37.1774   24.8440 C   0  0  0  0  0  0
  -21.4178  -29.3022   22.3683 N   0  0  0  0  0  0
  -26.4290  -37.3786   23.9435 N   0  0  0  0  0  0
  -24.6795  -31.0627   22.0920 N   0  0  0  0  0  0
  -23.4184  -28.8134   23.3002 O   0  0  0  0  0  0
  -28.3818  -26.5349   20.2898 O   0  0  0  0  0  0
  -26.5640  -34.8901   22.4697 O   0  0  0  0  0  0
  -23.5366  -32.1355   23.7342 O   0  0  0  0  0  0
  -29.4106  -19.6819   19.1593 C   0  0  0  0  0  0
  -29.6132  -18.5605   18.3382 C   0  0  0  0  0  0
  -29.5963  -18.2218   21.0990 C   0  0  0  0  0  0
  -29.4150  -19.5461   20.5589 C   0  0  0  0  0  0
  -29.8006  -17.0551   20.2791 C   0  0  0  0  0  0
  -29.8031  -17.2696   18.8705 C   0  0  0  0  0  0
  -27.6523  -22.7263   21.2610 C   0  0  0  0  0  0
  -27.3856  -24.2592   21.0715 C   0  0  0  0  0  0
  -29.7664  -24.5002   20.4376 C   0  0  0  0  0  0
  -29.8509  -22.9628   20.1942 C   0  0  0  0  0  0
  -28.3580  -25.0643   20.1511 C   0  0  2  0  0  0
  -29.2791  -20.8099   21.4717 C   0  0  0  0  0  0
  -28.8513  -22.1595   20.9318 N   0  0  0  0  0  0
  -29.8638  -15.7109   20.8642 N   0  0  0  0  0  0
  -26.7560  -22.0614   21.7930 O   0  0  0  0  0  0
  -29.9502  -16.0015   17.7074 Cl  0  0  0  0  0  0
  -31.4938  -12.4999   19.1974 H   0  0  0  0  0  0
  -30.3931  -11.3954   19.9739 H   0  0  0  0  0  0
  -29.7944  -11.6317   17.5726 H   0  0  0  0  0  0
  -29.7092  -13.3606   17.7072 H   0  0  0  0  0  0
  -27.8517  -11.2816   18.8775 H   0  0  0  0  0  0
  -27.4179  -12.5659   17.7841 H   0  0  0  0  0  0
  -27.6804  -14.2467   19.5063 H   0  0  0  0  0  0
  -28.7029  -12.0737   21.4026 H   0  0  0  0  0  0
  -28.4288  -13.7452   21.8313 H   0  0  0  0  0  0
  -25.2808   -9.5663   22.4701 H   0  0  0  0  0  0
  -24.0033   -7.4608   22.7442 H   0  0  0  0  0  0
  -21.0831   -8.8807   19.8949 H   0  0  0  0  0  0
  -22.3707  -10.9697   19.6144 H   0  0  0  0  0  0
  -21.2035   -7.6116   23.9700 H   0  0  0  0  0  0
  -21.1490   -6.0481   25.9065 H   0  0  0  0  0  0
  -22.0601   -2.7569   23.2845 H   0  0  0  0  0  0
  -22.4147  -11.9939   22.4884 H   0  0  0  0  0  0
  -21.1136  -13.1274   22.2572 H   0  0  0  0  0  0
  -24.6733  -15.8539   20.4575 H   0  0  0  0  0  0
  -26.2801  -15.6007   20.0112 H   0  0  0  0  0  0
  -26.7123  -32.5445   23.1077 H   0  0  0  0  0  0
  -24.9971  -33.9709   25.0375 H   0  0  0  0  0  0
  -22.7067  -31.2881   21.3843 H   0  0  0  0  0  0
  -23.3785  -35.9607   23.3195 H   0  0  0  0  0  0
  -24.3626  -36.9025   22.2067 H   0  0  0  0  0  0
  -23.7207  -37.6454   23.6722 H   0  0  0  0  0  0
  -26.0905  -31.5626   20.6036 H   0  0  0  0  0  0
  -26.8308  -30.8452   22.0039 H   0  0  0  0  0  0
  -28.1077  -29.0211   21.2169 H   0  0  0  0  0  0
  -26.0389  -25.8942   19.0818 H   0  0  0  0  0  0
  -24.0044  -27.2563   19.0399 H   0  0  0  0  0  0
  -23.7632  -30.5660   19.3929 H   0  0  0  0  0  0
  -22.7653  -29.2176   19.8514 H   0  0  0  0  0  0
  -25.1289  -36.1925   25.0826 H   0  0  0  0  0  0
  -20.9934  -28.3239   24.1418 H   0  0  0  0  0  0
  -20.5606  -26.2291   23.3614 H   0  0  0  0  0  0
  -21.6629  -26.7395   22.1240 H   0  0  0  0  0  0
  -19.6912  -25.6263   21.1245 H   0  0  0  0  0  0
  -19.6695  -27.3146   20.6712 H   0  0  0  0  0  0
  -17.4197  -26.6625   21.4001 H   0  0  0  0  0  0
  -18.0334  -26.0038   22.8987 H   0  0  0  0  0  0
  -19.7921  -30.7233   24.2277 H   0  0  0  0  0  0
  -17.4994  -31.6246   24.5132 H   0  0  0  0  0  0
  -15.5336  -30.2956   23.7638 H   0  0  0  0  0  0
  -15.8649  -28.0776   22.7090 H   0  0  0  0  0  0
  -24.5856  -30.7100   25.7691 H   0  0  0  0  0  0
  -24.9005  -32.2791   26.4973 H   0  0  0  0  0  0
  -25.8049  -30.8655   27.0102 H   0  0  0  0  0  0
  -26.2886  -29.6689   24.1212 H   0  0  0  0  0  0
  -27.4120  -29.7261   25.4606 H   0  0  0  0  0  0
  -27.8734  -30.4257   23.9276 H   0  0  0  0  0  0
  -27.2645  -33.3545   26.2086 H   0  0  0  0  0  0
  -28.3808  -32.6913   25.0234 H   0  0  0  0  0  0
  -28.0794  -31.8371   26.5280 H   0  0  0  0  0  0
  -28.2536  -38.0176   24.7629 H   0  0  0  0  0  0
  -28.1221  -36.2708   24.6074 H   0  0  0  0  0  0
  -27.2362  -37.1179   25.8843 H   0  0  0  0  0  0
  -20.9352  -29.8756   21.6914 H   0  0  0  0  0  0
  -26.0172  -38.2856   24.1473 H   0  0  0  0  0  0
  -29.2641  -20.6437   18.6924 H   0  0  0  0  0  0
  -29.6098  -18.6894   17.2662 H   0  0  0  0  0  0
  -29.5824  -18.1060   22.1745 H   0  0  0  0  0  0
  -27.4131  -24.6985   22.0677 H   0  0  0  0  0  0
  -26.3593  -24.3696   20.7223 H   0  0  0  0  0  0
  -30.5021  -25.0095   19.8132 H   0  0  0  0  0  0
  -30.0474  -24.7220   21.4700 H   0  0  0  0  0  0
  -30.8529  -22.6035   20.4268 H   0  0  0  0  0  0
  -29.7059  -22.7822   19.1301 H   0  0  0  0  0  0
  -28.1104  -24.8401   19.1135 H   0  0  0  0  0  0
  -30.2542  -20.9562   21.9367 H   0  0  0  0  0  0
  -28.6398  -20.5165   22.3050 H   0  0  0  0  0  0
  -29.0643  -15.4645   21.4242 H   0  0  0  0  0  0
  1 25  1  0  0  0
  1 30  2  0  0  0
  1 84  1  0  0  0
  2  3  1  0  0  0
  2 25  1  0  0  0
  2 87  1  0  0  0
  2 88  1  0  0  0
  3  4  1  0  0  0
  3 89  1  0  0  0
  3 90  1  0  0  0
  4  5  1  0  0  0
  4 91  1  0  0  0
  4 92  1  0  0  0
  5  6  1  0  0  0
  5 26  1  0  0  0
  5 93  1  0  0  0
  6 25  1  0  0  0
  6 94  1  0  0  0
  6 95  1  0  0  0
  7  8  2  0  0  0
  7 26  1  0  0  0
  7 29  1  0  0  0
  8  9  1  0  0  0
  8 22  1  0  0  0
  9 10  1  0  0  0
  9 27  2  0  0  0
 10 11  2  0  0  0
 10 15  1  0  0  0
 11 12  1  0  0  0
 11 96  1  0  0  0
 12 13  2  0  0  0
 12 97  1  0  0  0
 13 14  1  0  0  0
 13 31  1  0  0  0
 14 15  2  0  0  0
 14 98  1  0  0  0
 15 99  1  0  0  0
 16 17  2  0  0  0
 16 21  1  0  0  0
 16 31  1  0  0  0
 17 18  1  0  0  0
 17100  1  0  0  0
 18 19  2  0  0  0
 18101  1  0  0  0
 19 20  1  0  0  0
 19 24  1  0  0  0
 20 21  2  0  0  0
 20102  1  0  0  0
 21 23  1  0  0  0
 22 28  1  0  0  0
 22 32  2  0  0  0
 26 27  1  0  0  0
 28103  1  0  0  0
 28104  1  0  0  0
 29105  1  0  0  0
 29106  1  0  0  0
 33 34  1  0  0  0
 33 66  1  0  0  0
 33 70  2  0  0  0
 34 36  1  0  0  0
 34 59  1  0  0  0
 34107  1  0  0  0
 35 44  2  0  0  0
 35 45  1  0  0  0
 35 68  1  0  0  0
 36 56  1  0  0  0
 36108  1  0  0  0
 37 39  1  0  0  0
 37 47  1  0  0  0
 37 66  1  0  0  0
 37109  1  0  0  0
 38 43  2  0  0  0
 38 46  1  0  0  0
 38 47  1  0  0  0
 39 64  1  0  0  0
 39 67  2  0  0  0
 40 52  1  0  0  0
 40 53  2  0  0  0
 40 58  1  0  0  0
 41110  1  0  0  0
 41111  1  0  0  0
 41112  1  0  0  0
 41 48  1  0  0  0
 42 43  1  0  0  0
 42 66  1  0  0  0
 42113  1  0  0  0
 42114  1  0  0  0
 43 44  1  0  0  0
 44115  1  0  0  0
 45 46  2  0  0  0
 45116  1  0  0  0
 46117  1  0  0  0
 47118  1  0  0  0
 47119  1  0  0  0
 48 56  1  0  0  0
 48 65  1  0  0  0
 48120  1  0  0  0
 49 50  1  0  0  0
 49 53  1  0  0  0
 49 64  1  0  0  0
 49121  1  0  0  0
 50 51  1  0  0  0
 50122  1  0  0  0
 50123  1  0  0  0
 51 52  1  0  0  0
 51124  1  0  0  0
 51125  1  0  0  0
 52126  1  0  0  0
 52127  1  0  0  0
 53 54  1  0  0  0
 54 55  2  0  0  0
 54128  1  0  0  0
 55 57  1  0  0  0
 55129  1  0  0  0
 56 69  2  0  0  0
 57 58  2  0  0  0
 57130  1  0  0  0
 58131  1  0  0  0
 59 60  1  0  0  0
 59 61  1  0  0  0
 59 62  1  0  0  0
 60132  1  0  0  0
 60133  1  0  0  0
 60134  1  0  0  0
 61135  1  0  0  0
 61136  1  0  0  0
 61137  1  0  0  0
 62138  1  0  0  0
 62139  1  0  0  0
 62140  1  0  0  0
 63 65  1  0  0  0
 63141  1  0  0  0
 63142  1  0  0  0
 63143  1  0  0  0
 64144  1  0  0  0
 65145  1  0  0  0
 68 81  1  0  0  0
 71 72  2  0  0  0
 71 74  1  0  0  0
 71146  1  0  0  0
 72 76  1  0  0  0
 72147  1  0  0  0
 73 74  2  0  0  0
 73 75  1  0  0  0
 73148  1  0  0  0
 74 82  1  0  0  0
 75 76  2  0  0  0
 75 84  1  0  0  0
 76 86  1  0  0  0
 77 78  1  0  0  0
 77 83  1  0  0  0
 77 85  2  0  0  0
 78 81  1  0  0  0
 78149  1  0  0  0
 78150  1  0  0  0
 79 80  1  0  0  0
 79 81  1  0  0  0
 79151  1  0  0  0
 79152  1  0  0  0
 80 83  1  0  0  0
 80153  1  0  0  0
 80154  1  0  0  0
 81155  1  0  0  0
 82 83  1  0  0  0
 82156  1  0  0  0
 82157  1  0  0  0
 84158  1  0  0  0
M  ISO  4   1 100  68 101  81 101  84 100
M  END
> <chiral flag>
0

> <version>
0

> <s_m_source_file>
/data/baiqing/PycharmProjects/Reinvent-master-3.2/result/LINK_invent/BTK/process_docking_weight1_custom_product_contain_oxygen_bond_distance_aromatic_linkinvent_7_9_3/rearranged_h_0054.sdf

> <i_m_source_file_index>
40

> <r_mmod_Potential_Energy-OPLS-2005>
36.6136207580566

> <r_mmod_Stretch_Energy-OPLS-2005>
77.8120040893555

> <r_mmod_Bend_Energy-OPLS-2005>
141.786605834961

> <r_mmod_Torsional_Energy-OPLS-2005>
254.692474365234

> <r_mmod_Improper_Torsional_Energy-OPLS-2005>
5.53673362731934

> <r_mmod_Van_der_Waal_Energy-OPLS-2005>
150.513366699219

> <r_mmod_Electrostatic_Energy-OPLS-2005>
-413.77001953125

> <r_mmod_Solvation_Energy-OPLS-2005>
-231.225112915039

> <b_mmod_Minimization_Converged-OPLS-2005>
0

> <r_mmod_RMS_Derivative-OPLS-2005>
4.97492837905884

$$$$
40
                    3D
 Structure written by MMmdl.
163171  0  0  1  0            999 V2000
  -30.8078  -14.6174   20.5447 C   0  0  0  0  0  0
  -30.4163  -12.3918   19.4542 C   0  0  0  0  0  0
  -29.4972  -12.5375   18.2204 C   0  0  0  0  0  0
  -28.0186  -12.4191   18.6367 C   0  0  0  0  0  0
  -27.6770  -13.2560   19.8993 C   0  0  2  0  0  0
  -28.7594  -13.1095   21.0085 C   0  0  0  0  0  0
  -25.2684  -13.8277   20.5928 C   0  0  0  0  0  0
  -24.1894  -13.0396   20.9255 C   0  0  0  0  0  0
  -24.6494  -11.6918   20.8813 C   0  0  0  0  0  0
  -23.9146  -10.4246   21.0396 C   0  0  0  0  0  0
  -24.3661   -9.4179   21.9185 C   0  0  0  0  0  0
  -23.6317   -8.2209   22.0787 C   0  0  0  0  0  0
  -22.4309   -8.0257   21.3553 C   0  0  0  0  0  0
  -21.9951   -9.0263   20.4673 C   0  0  0  0  0  0
  -22.7321  -10.2117   20.3057 C   0  0  0  0  0  0
  -21.6820   -6.0735   22.5249 C   0  0  0  0  0  0
  -21.4027   -6.5655   23.8204 C   0  0  0  0  0  0
  -21.3670   -5.6806   24.9175 C   0  0  0  0  0  0
  -21.6018   -4.3069   24.7216 C   0  0  0  0  0  0
  -21.8835   -3.8160   23.4348 C   0  0  0  0  0  0
  -21.9214   -4.6961   22.3392 C   0  0  0  0  0  0
  -22.7903  -13.5192   21.1820 C   0  0  0  0  0  0
  -22.1658   -4.2168   21.0966 F   0  0  0  0  0  0
  -21.5617   -3.4557   25.7729 F   0  0  0  0  0  0
  -30.0683  -13.4569   20.4281 N   0  0  0  0  0  0
  -26.3192  -12.9507   20.3715 N   0  0  0  0  0  0
  -25.9518  -11.6596   20.5987 N   0  0  0  0  0  0
  -22.0513  -12.8173   22.0388 N   0  0  0  0  0  0
  -25.4187  -15.1945   20.4339 N   0  0  0  0  0  0
  -31.9478  -14.6697   20.0750 O   0  0  0  0  0  0
  -21.6635   -6.8879   21.4218 O   0  0  0  0  0  0
  -22.3563  -14.5440   20.6656 O   0  0  0  0  0  0
  -24.6369  -31.8574   23.1952 C   0  0  0  0  0  0
  -25.9205  -32.4744   23.8256 C   0  0  1  0  0  0
  -27.2198  -27.2803   20.1068 C   0  0  0  0  0  0
  -25.6001  -33.8540   24.2228 N   0  0  0  0  0  0
  -23.4286  -30.4833   21.5496 C   0  0  2  0  0  0
  -24.8618  -28.9026   20.1263 C   0  0  0  0  0  0
  -22.7472  -29.4726   22.5029 C   0  0  0  0  0  0
  -18.0364  -28.1436   22.8575 C   0  0  0  0  0  0
  -24.1477  -36.7265   23.2646 C   0  0  0  0  0  0
  -25.9718  -30.7611   21.3695 C   0  0  0  0  0  0
  -26.0344  -29.3767   20.7302 C   0  0  0  0  0  0
  -27.2193  -28.5802   20.6965 C   0  0  0  0  0  0
  -26.0226  -26.8410   19.5080 C   0  0  0  0  0  0
  -24.8600  -27.6397   19.5114 C   0  0  0  0  0  0
  -23.6380  -29.8017   20.1681 C   0  0  0  0  0  0
  -25.4131  -36.3045   24.0315 C   0  0  1  0  0  0
  -20.5868  -28.3831   23.1251 C   0  0  2  0  0  0
  -20.6889  -26.9566   22.5319 C   0  0  0  0  0  0
  -19.5741  -26.6499   21.5248 C   0  0  0  0  0  0
  -18.2020  -26.7955   22.1807 C   0  0  0  0  0  0
  -19.1535  -28.8961   23.2931 C   0  0  0  0  0  0
  -18.9417  -30.1587   23.8893 C   0  0  0  0  0  0
  -17.6461  -30.6691   24.0619 C   0  0  0  0  0  0
  -25.9087  -34.9430   23.5088 C   0  0  0  0  0  0
  -16.5388  -29.9131   23.6359 C   0  0  0  0  0  0
  -16.7354  -28.6570   23.0342 C   0  0  0  0  0  0
  -26.4528  -31.6532   25.0661 C   0  0  0  0  0  0
  -25.3785  -31.3678   26.1422 C   0  0  0  0  0  0
  -27.0478  -30.3004   24.6169 C   0  0  0  0  0  0
  -27.6053  -32.4297   25.7491 C   0  0  0  0  0  0
  -27.5575  -37.1800   24.8470 C   0  0  0  0  0  0
  -21.4190  -29.3297   22.3790 N   0  0  0  0  0  0
  -26.4289  -37.3767   23.9414 N   0  0  0  0  0  0
  -24.6989  -31.0508   22.0950 N   0  0  0  0  0  0
  -23.4185  -28.8145   23.2995 O   0  0  0  0  0  0
  -28.3662  -26.4804   19.9805 O   0  0  0  0  0  0
  -26.5626  -34.8943   22.4615 O   0  0  0  0  0  0
  -23.5559  -32.1466   23.7261 O   0  0  0  0  0  0
  -30.1201  -20.5576   23.5080 C   0  0  0  0  0  0
  -29.2780  -20.4070   22.4067 C   0  0  0  0  0  0
  -31.2465  -18.4546   22.9351 C   0  0  0  0  0  0
  -31.1800  -19.6611   23.6781 C   0  0  0  0  0  0
  -29.6653  -19.4977   21.3915 C   0  0  0  0  0  0
  -30.4680  -18.3477   21.7435 C   0  0  0  0  0  0
  -29.0481  -22.5326   19.8993 C   0  0  0  0  0  0
  -32.3240  -20.2197   24.4692 C   0  0  0  0  0  0
  -27.2638  -20.7618   19.5052 C   0  0  0  0  0  0
  -29.4973  -19.9790   19.9290 C   0  0  0  0  0  0
  -30.7393  -17.1828   20.7372 C   0  0  0  0  0  0
  -28.0080  -23.7299   20.1127 C   0  0  0  0  0  0
  -28.5163  -25.1695   20.6619 C   0  0  0  0  0  0
  -30.2476  -15.7757   21.0166 N   0  0  0  0  0  0
  -28.6398  -21.2063   19.7648 N   0  0  0  0  0  0
  -30.2507  -22.8104   19.9099 O   0  0  0  0  0  0
  -31.4655  -12.4188   19.1527 H   0  0  0  0  0  0
  -30.2733  -11.4012   19.8964 H   0  0  0  0  0  0
  -29.7207  -11.7724   17.4787 H   0  0  0  0  0  0
  -29.6708  -13.5031   17.7420 H   0  0  0  0  0  0
  -27.8094  -11.3681   18.8314 H   0  0  0  0  0  0
  -27.3661  -12.7193   17.8097 H   0  0  0  0  0  0
  -27.6848  -14.3003   19.5886 H   0  0  0  0  0  0
  -28.7811  -12.0757   21.3575 H   0  0  0  0  0  0
  -28.5489  -13.7137   21.8910 H   0  0  0  0  0  0
  -25.2777   -9.5642   22.4837 H   0  0  0  0  0  0
  -23.9988   -7.4600   22.7534 H   0  0  0  0  0  0
  -21.0872   -8.8823   19.9031 H   0  0  0  0  0  0
  -22.3749  -10.9691   19.6214 H   0  0  0  0  0  0
  -21.2020   -7.6169   23.9718 H   0  0  0  0  0  0
  -21.1462   -6.0540   25.9079 H   0  0  0  0  0  0
  -22.0611   -2.7638   23.2839 H   0  0  0  0  0  0
  -22.4135  -11.9832   22.4765 H   0  0  0  0  0  0
  -21.1127  -13.1276   22.2541 H   0  0  0  0  0  0
  -24.6587  -15.8467   20.6084 H   0  0  0  0  0  0
  -26.2763  -15.6594   20.1670 H   0  0  0  0  0  0
  -26.7223  -32.5365   23.0951 H   0  0  0  0  0  0
  -25.0083  -33.9585   25.0339 H   0  0  0  0  0  0
  -22.7338  -31.3130   21.4052 H   0  0  0  0  0  0
  -23.3725  -35.9594   23.3333 H   0  0  0  0  0  0
  -24.3489  -36.8915   22.2038 H   0  0  0  0  0  0
  -23.7291  -37.6515   23.6656 H   0  0  0  0  0  0
  -26.1072  -31.5110   20.5874 H   0  0  0  0  0  0
  -26.8518  -30.8119   21.9987 H   0  0  0  0  0  0
  -28.1377  -28.9599   21.1275 H   0  0  0  0  0  0
  -25.9893  -25.8834   19.0057 H   0  0  0  0  0  0
  -23.9541  -27.2759   19.0377 H   0  0  0  0  0  0
  -23.7627  -30.5781   19.4063 H   0  0  0  0  0  0
  -22.7496  -29.2414   19.8679 H   0  0  0  0  0  0
  -25.1312  -36.1869   25.0811 H   0  0  0  0  0  0
  -21.0040  -28.3327   24.1337 H   0  0  0  0  0  0
  -20.6123  -26.2316   23.3454 H   0  0  0  0  0  0
  -21.6721  -26.7815   22.0881 H   0  0  0  0  0  0
  -19.6736  -25.6403   21.1254 H   0  0  0  0  0  0
  -19.6428  -27.3476   20.6874 H   0  0  0  0  0  0
  -17.4255  -26.6442   21.4277 H   0  0  0  0  0  0
  -18.0724  -26.0098   22.9271 H   0  0  0  0  0  0
  -19.7830  -30.7556   24.2131 H   0  0  0  0  0  0
  -17.5069  -31.6434   24.5151 H   0  0  0  0  0  0
  -15.5431  -30.3018   23.7748 H   0  0  0  0  0  0
  -15.8824  -28.0898   22.6985 H   0  0  0  0  0  0
  -24.5832  -30.7225   25.7674 H   0  0  0  0  0  0
  -24.9131  -32.2896   26.4945 H   0  0  0  0  0  0
  -25.8077  -30.8706   27.0138 H   0  0  0  0  0  0
  -26.3118  -29.6666   24.1269 H   0  0  0  0  0  0
  -27.4346  -29.7363   25.4637 H   0  0  0  0  0  0
  -27.8821  -30.4381   23.9321 H   0  0  0  0  0  0
  -27.2574  -33.3513   26.2159 H   0  0  0  0  0  0
  -28.3784  -32.7017   25.0295 H   0  0  0  0  0  0
  -28.0782  -31.8417   26.5390 H   0  0  0  0  0  0
  -28.2611  -38.0063   24.7475 H   0  0  0  0  0  0
  -28.1075  -36.2630   24.6354 H   0  0  0  0  0  0
  -27.2246  -37.1486   25.8851 H   0  0  0  0  0  0
  -20.9409  -29.9281   21.7203 H   0  0  0  0  0  0
  -26.0166  -38.2832   24.1440 H   0  0  0  0  0  0
  -30.0863  -21.4704   24.0959 H   0  0  0  0  0  0
  -28.5671  -21.2060   22.2594 H   0  0  0  0  0  0
  -32.0005  -17.7024   23.1477 H   0  0  0  0  0  0
  -31.9419  -20.8358   25.2886 H   0  0  0  0  0  0
  -32.8055  -20.9215   23.7798 H   0  0  0  0  0  0
  -33.0489  -19.4832   24.8210 H   0  0  0  0  0  0
  -27.1076  -19.7004   19.7363 H   0  0  0  0  0  0
  -26.9461  -20.9155   18.4701 H   0  0  0  0  0  0
  -26.5635  -21.2384   20.1708 H   0  0  0  0  0  0
  -29.1014  -19.1591   19.3229 H   0  0  0  0  0  0
  -30.5115  -20.1276   19.5349 H   0  0  0  0  0  0
  -31.8000  -17.2380   20.4508 H   0  0  0  0  0  0
  -30.2301  -17.4908   19.8305 H   0  0  0  0  0  0
  -27.3297  -23.3681   20.8869 H   0  0  0  0  0  0
  -27.4016  -23.8142   19.2102 H   0  0  0  0  0  0
  -29.5986  -25.0863   20.7618 H   0  0  0  0  0  0
  -28.2021  -25.2972   21.7007 H   0  0  0  0  0  0
  -29.2943  -15.7244   21.3496 H   0  0  0  0  0  0
  1 25  1  0  0  0
  1 30  2  0  0  0
  1 84  1  0  0  0
  2  3  1  0  0  0
  2 25  1  0  0  0
  2 87  1  0  0  0
  2 88  1  0  0  0
  3  4  1  0  0  0
  3 89  1  0  0  0
  3 90  1  0  0  0
  4  5  1  0  0  0
  4 91  1  0  0  0
  4 92  1  0  0  0
  5  6  1  0  0  0
  5 26  1  0  0  0
  5 93  1  0  0  0
  6 25  1  0  0  0
  6 94  1  0  0  0
  6 95  1  0  0  0
  7  8  2  0  0  0
  7 26  1  0  0  0
  7 29  1  0  0  0
  8  9  1  0  0  0
  8 22  1  0  0  0
  9 10  1  0  0  0
  9 27  2  0  0  0
 10 11  2  0  0  0
 10 15  1  0  0  0
 11 12  1  0  0  0
 11 96  1  0  0  0
 12 13  2  0  0  0
 12 97  1  0  0  0
 13 14  1  0  0  0
 13 31  1  0  0  0
 14 15  2  0  0  0
 14 98  1  0  0  0
 15 99  1  0  0  0
 16 17  2  0  0  0
 16 21  1  0  0  0
 16 31  1  0  0  0
 17 18  1  0  0  0
 17100  1  0  0  0
 18 19  2  0  0  0
 18101  1  0  0  0
 19 20  1  0  0  0
 19 24  1  0  0  0
 20 21  2  0  0  0
 20102  1  0  0  0
 21 23  1  0  0  0
 22 28  1  0  0  0
 22 32  2  0  0  0
 26 27  1  0  0  0
 28103  1  0  0  0
 28104  1  0  0  0
 29105  1  0  0  0
 29106  1  0  0  0
 33 34  1  0  0  0
 33 66  1  0  0  0
 33 70  2  0  0  0
 34 36  1  0  0  0
 34 59  1  0  0  0
 34107  1  0  0  0
 35 44  2  0  0  0
 35 45  1  0  0  0
 35 68  1  0  0  0
 36 56  1  0  0  0
 36108  1  0  0  0
 37 39  1  0  0  0
 37 47  1  0  0  0
 37 66  1  0  0  0
 37109  1  0  0  0
 38 43  2  0  0  0
 38 46  1  0  0  0
 38 47  1  0  0  0
 39 64  1  0  0  0
 39 67  2  0  0  0
 40 52  1  0  0  0
 40 53  2  0  0  0
 40 58  1  0  0  0
 41110  1  0  0  0
 41111  1  0  0  0
 41112  1  0  0  0
 41 48  1  0  0  0
 42 43  1  0  0  0
 42 66  1  0  0  0
 42113  1  0  0  0
 42114  1  0  0  0
 43 44  1  0  0  0
 44115  1  0  0  0
 45 46  2  0  0  0
 45116  1  0  0  0
 46117  1  0  0  0
 47118  1  0  0  0
 47119  1  0  0  0
 48 56  1  0  0  0
 48 65  1  0  0  0
 48120  1  0  0  0
 49 50  1  0  0  0
 49 53  1  0  0  0
 49 64  1  0  0  0
 49121  1  0  0  0
 50 51  1  0  0  0
 50122  1  0  0  0
 50123  1  0  0  0
 51 52  1  0  0  0
 51124  1  0  0  0
 51125  1  0  0  0
 52126  1  0  0  0
 52127  1  0  0  0
 53 54  1  0  0  0
 54 55  2  0  0  0
 54128  1  0  0  0
 55 57  1  0  0  0
 55129  1  0  0  0
 56 69  2  0  0  0
 57 58  2  0  0  0
 57130  1  0  0  0
 58131  1  0  0  0
 59 60  1  0  0  0
 59 61  1  0  0  0
 59 62  1  0  0  0
 60132  1  0  0  0
 60133  1  0  0  0
 60134  1  0  0  0
 61135  1  0  0  0
 61136  1  0  0  0
 61137  1  0  0  0
 62138  1  0  0  0
 62139  1  0  0  0
 62140  1  0  0  0
 63 65  1  0  0  0
 63141  1  0  0  0
 63142  1  0  0  0
 63143  1  0  0  0
 64144  1  0  0  0
 65145  1  0  0  0
 68 83  1  0  0  0
 71 72  2  0  0  0
 71 74  1  0  0  0
 71146  1  0  0  0
 72 75  1  0  0  0
 72147  1  0  0  0
 73 74  2  0  0  0
 73 76  1  0  0  0
 73148  1  0  0  0
 74 78  1  0  0  0
 75 76  2  0  0  0
 75 80  1  0  0  0
 76 81  1  0  0  0
 77 82  1  0  0  0
 77 85  1  0  0  0
 77 86  2  0  0  0
 78149  1  0  0  0
 78150  1  0  0  0
 78151  1  0  0  0
 79 85  1  0  0  0
 79152  1  0  0  0
 79153  1  0  0  0
 79154  1  0  0  0
 80 85  1  0  0  0
 80155  1  0  0  0
 80156  1  0  0  0
 81 84  1  0  0  0
 81157  1  0  0  0
 81158  1  0  0  0
 82 83  1  0  0  0
 82159  1  0  0  0
 82160  1  0  0  0
 83161  1  0  0  0
 83162  1  0  0  0
 84163  1  0  0  0
M  ISO  4   1 100  68 101  83 101  84 100
M  END
> <chiral flag>
0

> <version>
0

> <s_m_source_file>
/data/baiqing/PycharmProjects/Reinvent-master-3.2/result/LINK_invent/BTK/process_docking_weight1_custom_product_contain_oxygen_bond_distance_aromatic_linkinvent_7_9_3/rearranged_h_0054.sdf

> <i_m_source_file_index>
41

> <r_mmod_Potential_Energy-OPLS-2005>
171.713439941406

> <r_mmod_Stretch_Energy-OPLS-2005>
102.229011535645

> <r_mmod_Bend_Energy-OPLS-2005>
194.350509643555

> <r_mmod_Torsional_Energy-OPLS-2005>
321.825408935547

> <r_mmod_Improper_Torsional_Energy-OPLS-2005>
12.5387697219849

> <r_mmod_Van_der_Waal_Energy-OPLS-2005>
155.157638549805

> <r_mmod_Electrostatic_Energy-OPLS-2005>
-429.181945800781

> <r_mmod_Solvation_Energy-OPLS-2005>
-237.685195922852

> <b_mmod_Minimization_Converged-OPLS-2005>
0

> <r_mmod_RMS_Derivative-OPLS-2005>
17.1181011199951

$$$$
41
                    3D
 Structure written by MMmdl.
167176  0  0  1  0            999 V2000
  -30.5913  -14.6986   20.3116 C   0  0  0  0  0  0
  -30.4313  -12.3801   19.4475 C   0  0  0  0  0  0
  -29.4826  -12.3238   18.2292 C   0  0  0  0  0  0
  -28.0048  -12.2498   18.6566 C   0  0  0  0  0  0
  -27.6353  -13.1945   19.8328 C   0  0  2  0  0  0
  -28.6911  -13.1612   20.9550 C   0  0  0  0  0  0
  -25.2560  -13.8071   20.5749 C   0  0  0  0  0  0
  -24.1816  -13.0367   20.9281 C   0  0  0  0  0  0
  -24.6370  -11.6869   20.8860 C   0  0  0  0  0  0
  -23.9024  -10.4279   21.0472 C   0  0  0  0  0  0
  -24.3606   -9.4195   21.9222 C   0  0  0  0  0  0
  -23.6275   -8.2240   22.0755 C   0  0  0  0  0  0
  -22.4240   -8.0314   21.3556 C   0  0  0  0  0  0
  -21.9881   -9.0288   20.4621 C   0  0  0  0  0  0
  -22.7226  -10.2155   20.3055 C   0  0  0  0  0  0
  -21.6876   -6.0762   22.5291 C   0  0  0  0  0  0
  -21.4039   -6.5676   23.8221 C   0  0  0  0  0  0
  -21.3628   -5.6820   24.9189 C   0  0  0  0  0  0
  -21.6008   -4.3084   24.7228 C   0  0  0  0  0  0
  -21.8821   -3.8173   23.4368 C   0  0  0  0  0  0
  -21.9208   -4.6993   22.3424 C   0  0  0  0  0  0
  -22.7845  -13.5170   21.1916 C   0  0  0  0  0  0
  -22.1684   -4.2176   21.1005 F   0  0  0  0  0  0
  -21.5601   -3.4559   25.7740 F   0  0  0  0  0  0
  -29.9778  -13.4739   20.3270 N   0  0  0  0  0  0
  -26.2935  -12.9223   20.3332 N   0  0  0  0  0  0
  -25.9290  -11.6421   20.5966 N   0  0  0  0  0  0
  -22.0462  -12.8162   22.0447 N   0  0  0  0  0  0
  -25.4288  -15.1730   20.4082 N   0  0  0  0  0  0
  -31.8223  -14.7595   20.2663 O   0  0  0  0  0  0
  -21.6642   -6.8916   21.4240 O   0  0  0  0  0  0
  -22.3544  -14.5466   20.6733 O   0  0  0  0  0  0
  -24.6225  -31.8619   23.1997 C   0  0  0  0  0  0
  -25.9077  -32.4780   23.8342 C   0  0  1  0  0  0
  -27.2227  -27.3491   20.1391 C   0  0  0  0  0  0
  -25.5938  -33.8589   24.2306 N   0  0  0  0  0  0
  -23.4150  -30.4838   21.5379 C   0  0  2  0  0  0
  -24.8696  -28.9457   20.1055 C   0  0  0  0  0  0
  -22.7397  -29.4654   22.4891 C   0  0  0  0  0  0
  -18.0220  -28.1370   22.8488 C   0  0  0  0  0  0
  -24.1496  -36.7307   23.2631 C   0  0  0  0  0  0
  -25.9506  -30.8060   21.3639 C   0  0  0  0  0  0
  -26.0315  -29.4349   20.7143 C   0  0  0  0  0  0
  -27.2163  -28.6486   20.7177 C   0  0  0  0  0  0
  -26.0521  -26.9114   19.4830 C   0  0  0  0  0  0
  -24.8809  -27.6895   19.4784 C   0  0  0  0  0  0
  -23.6333  -29.8184   20.1527 C   0  0  0  0  0  0
  -25.4122  -36.3123   24.0331 C   0  0  1  0  0  0
  -20.5826  -28.3621   23.1105 C   0  0  2  0  0  0
  -20.6725  -26.9364   22.5134 C   0  0  0  0  0  0
  -19.5487  -26.6160   21.5213 C   0  0  0  0  0  0
  -18.1762  -26.7802   22.1797 C   0  0  0  0  0  0
  -19.1494  -28.8831   23.2818 C   0  0  0  0  0  0
  -18.9440  -30.1426   23.8885 C   0  0  0  0  0  0
  -17.6423  -30.6553   24.0564 C   0  0  0  0  0  0
  -25.9046  -34.9463   23.5113 C   0  0  0  0  0  0
  -16.5281  -29.9070   23.6340 C   0  0  0  0  0  0
  -16.7229  -28.6509   23.0335 C   0  0  0  0  0  0
  -26.4504  -31.6571   25.0699 C   0  0  0  0  0  0
  -25.3741  -31.3672   26.1424 C   0  0  0  0  0  0
  -27.0320  -30.3008   24.6075 C   0  0  0  0  0  0
  -27.6089  -32.4308   25.7467 C   0  0  0  0  0  0
  -27.5583  -37.1813   24.8462 C   0  0  0  0  0  0
  -21.4161  -29.2914   22.3435 N   0  0  0  0  0  0
  -26.4330  -37.3791   23.9395 N   0  0  0  0  0  0
  -24.6815  -31.0668   22.0922 N   0  0  0  0  0  0
  -23.4092  -28.8329   23.3122 O   0  0  0  0  0  0
  -28.3158  -26.4873   20.2210 O   0  0  0  0  0  0
  -26.5600  -34.8935   22.4679 O   0  0  0  0  0  0
  -23.5392  -32.1408   23.7325 O   0  0  0  0  0  0
  -30.2943  -19.4880   20.2799 C   0  0  0  0  0  0
  -28.2564  -17.5994   20.2850 C   0  0  0  0  0  0
  -28.9630  -19.9715   20.1987 C   0  0  0  0  0  0
  -30.6190  -18.1008   20.2473 C   0  0  0  0  0  0
  -27.9290  -18.9896   20.2504 C   0  0  0  0  0  0
  -29.5936  -17.1000   20.2440 C   0  0  0  0  0  0
  -28.4162  -22.5342   22.0263 C   0  0  0  0  0  0
  -28.5158  -23.9145   20.0760 C   0  0  0  0  0  0
  -30.5633  -15.4981   17.4197 C   0  0  0  0  0  0
  -29.6505  -15.7862   18.3679 C   0  0  0  0  0  0
  -28.3219  -23.7682   22.9553 C   0  0  0  0  0  0
  -28.5965  -25.1330   22.2961 C   0  0  0  0  0  0
  -28.0413  -25.1843   20.8702 C   0  0  1  0  0  0
  -32.0752  -17.7407   20.0111 C   0  0  0  0  0  0
  -26.4486  -19.3647   20.1779 C   0  0  0  0  0  0
  -28.7307  -21.4708   19.7662 C   0  0  0  0  0  0
  -28.5577  -22.6654   20.6787 N   0  0  0  0  0  0
  -29.8278  -15.7321   19.7655 N   0  0  0  0  0  0
  -28.3527  -21.4384   22.5862 O   0  0  0  0  0  0
  -28.7836  -24.0646   18.8770 O   0  0  0  0  0  0
  -31.4569  -12.5264   19.1035 H   0  0  0  0  0  0
  -30.4258  -11.4343   19.9887 H   0  0  0  0  0  0
  -29.7257  -11.4440   17.6313 H   0  0  0  0  0  0
  -29.6279  -13.1629   17.5529 H   0  0  0  0  0  0
  -27.8210  -11.2154   18.9519 H   0  0  0  0  0  0
  -27.3558  -12.4389   17.7995 H   0  0  0  0  0  0
  -27.6215  -14.2009   19.4170 H   0  0  0  0  0  0
  -28.7248  -12.1877   21.4501 H   0  0  0  0  0  0
  -28.4451  -13.8961   21.7216 H   0  0  0  0  0  0
  -25.2767   -9.5703   22.4792 H   0  0  0  0  0  0
  -24.0025   -7.4618   22.7436 H   0  0  0  0  0  0
  -21.0839   -8.8783   19.8892 H   0  0  0  0  0  0
  -22.3702  -10.9715   19.6171 H   0  0  0  0  0  0
  -21.2093   -7.6203   23.9747 H   0  0  0  0  0  0
  -21.1398   -6.0563   25.9080 H   0  0  0  0  0  0
  -22.0616   -2.7631   23.2869 H   0  0  0  0  0  0
  -22.4031  -11.9761   22.4798 H   0  0  0  0  0  0
  -21.1065  -13.1161   22.2644 H   0  0  0  0  0  0
  -24.6804  -15.8391   20.5643 H   0  0  0  0  0  0
  -26.2802  -15.5887   20.0595 H   0  0  0  0  0  0
  -26.7141  -32.5474   23.1093 H   0  0  0  0  0  0
  -25.0111  -33.9701   25.0479 H   0  0  0  0  0  0
  -22.7157  -31.3107   21.3960 H   0  0  0  0  0  0
  -23.3757  -35.9636   23.3321 H   0  0  0  0  0  0
  -24.3558  -36.8899   22.2031 H   0  0  0  0  0  0
  -23.7248  -37.6524   23.6634 H   0  0  0  0  0  0
  -26.0606  -31.5621   20.5860 H   0  0  0  0  0  0
  -26.8354  -30.8701   21.9856 H   0  0  0  0  0  0
  -28.1123  -29.0144   21.1989 H   0  0  0  0  0  0
  -26.0382  -25.9454   18.9946 H   0  0  0  0  0  0
  -23.9852  -27.3182   18.9966 H   0  0  0  0  0  0
  -23.7562  -30.5985   19.3992 H   0  0  0  0  0  0
  -22.7592  -29.2456   19.8392 H   0  0  0  0  0  0
  -25.1294  -36.1996   25.0821 H   0  0  0  0  0  0
  -20.9931  -28.3159   24.1212 H   0  0  0  0  0  0
  -20.5801  -26.2299   23.3391 H   0  0  0  0  0  0
  -21.6518  -26.7444   22.0765 H   0  0  0  0  0  0
  -19.6469  -25.5963   21.1448 H   0  0  0  0  0  0
  -19.6164  -27.2750   20.6544 H   0  0  0  0  0  0
  -17.3872  -26.6265   21.4406 H   0  0  0  0  0  0
  -18.0395  -26.0101   22.9381 H   0  0  0  0  0  0
  -19.7904  -30.7216   24.2343 H   0  0  0  0  0  0
  -17.4947  -31.6186   24.5240 H   0  0  0  0  0  0
  -15.5252  -30.2909   23.7698 H   0  0  0  0  0  0
  -15.8646  -28.0883   22.6947 H   0  0  0  0  0  0
  -24.5937  -30.7029   25.7705 H   0  0  0  0  0  0
  -24.8903  -32.2814   26.4874 H   0  0  0  0  0  0
  -25.8039  -30.8801   27.0177 H   0  0  0  0  0  0
  -26.2837  -29.6801   24.1138 H   0  0  0  0  0  0
  -27.4112  -29.7231   25.4509 H   0  0  0  0  0  0
  -27.8680  -30.4323   23.9200 H   0  0  0  0  0  0
  -27.2713  -33.3604   26.2054 H   0  0  0  0  0  0
  -28.3869  -32.6868   25.0266 H   0  0  0  0  0  0
  -28.0797  -31.8434   26.5354 H   0  0  0  0  0  0
  -28.2617  -38.0092   24.7491 H   0  0  0  0  0  0
  -28.1065  -36.2619   24.6345 H   0  0  0  0  0  0
  -27.2263  -37.1519   25.8854 H   0  0  0  0  0  0
  -20.9446  -29.8137   21.6154 H   0  0  0  0  0  0
  -26.0217  -38.2871   24.1431 H   0  0  0  0  0  0
  -31.0931  -20.2129   20.2162 H   0  0  0  0  0  0
  -27.4412  -16.9032   20.1802 H   0  0  0  0  0  0
  -30.3147  -15.6098   16.3724 H   0  0  0  0  0  0
  -31.5628  -15.1607   17.6525 H   0  0  0  0  0  0
  -28.6637  -16.1296   18.0880 H   0  0  0  0  0  0
  -29.0129  -23.6413   23.7865 H   0  0  0  0  0  0
  -27.3211  -23.7697   23.3895 H   0  0  0  0  0  0
  -29.6659  -25.3458   22.3213 H   0  0  0  0  0  0
  -28.1298  -25.9127   22.9005 H   0  0  0  0  0  0
  -26.9676  -25.0404   20.9628 H   0  0  0  0  0  0
  -32.1783  -17.0867   19.1455 H   0  0  0  0  0  0
  -32.5109  -17.2566   20.8827 H   0  0  0  0  0  0
  -32.6776  -18.6174   19.7799 H   0  0  0  0  0  0
  -25.9012  -18.7167   19.4895 H   0  0  0  0  0  0
  -26.2646  -20.3856   19.8562 H   0  0  0  0  0  0
  -25.9919  -19.2646   21.1630 H   0  0  0  0  0  0
  -27.9057  -21.4939   19.0529 H   0  0  0  0  0  0
  -29.6001  -21.6906   19.1471 H   0  0  0  0  0  0
  1 25  1  0  0  0
  1 30  2  0  0  0
  1 88  1  0  0  0
  2  3  1  0  0  0
  2 25  1  0  0  0
  2 91  1  0  0  0
  2 92  1  0  0  0
  3  4  1  0  0  0
  3 93  1  0  0  0
  3 94  1  0  0  0
  4  5  1  0  0  0
  4 95  1  0  0  0
  4 96  1  0  0  0
  5  6  1  0  0  0
  5 26  1  0  0  0
  5 97  1  0  0  0
  6 25  1  0  0  0
  6 98  1  0  0  0
  6 99  1  0  0  0
  7  8  2  0  0  0
  7 26  1  0  0  0
  7 29  1  0  0  0
  8  9  1  0  0  0
  8 22  1  0  0  0
  9 10  1  0  0  0
  9 27  2  0  0  0
 10 11  2  0  0  0
 10 15  1  0  0  0
 11 12  1  0  0  0
 11100  1  0  0  0
 12 13  2  0  0  0
 12101  1  0  0  0
 13 14  1  0  0  0
 13 31  1  0  0  0
 14 15  2  0  0  0
 14102  1  0  0  0
 15103  1  0  0  0
 16 17  2  0  0  0
 16 21  1  0  0  0
 16 31  1  0  0  0
 17 18  1  0  0  0
 17104  1  0  0  0
 18 19  2  0  0  0
 18105  1  0  0  0
 19 20  1  0  0  0
 19 24  1  0  0  0
 20 21  2  0  0  0
 20106  1  0  0  0
 21 23  1  0  0  0
 22 28  1  0  0  0
 22 32  2  0  0  0
 26 27  1  0  0  0
 28107  1  0  0  0
 28108  1  0  0  0
 29109  1  0  0  0
 29110  1  0  0  0
 33 34  1  0  0  0
 33 66  1  0  0  0
 33 70  2  0  0  0
 34 36  1  0  0  0
 34 59  1  0  0  0
 34111  1  0  0  0
 35 44  2  0  0  0
 35 45  1  0  0  0
 35 68  1  0  0  0
 36 56  1  0  0  0
 36112  1  0  0  0
 37 39  1  0  0  0
 37 47  1  0  0  0
 37 66  1  0  0  0
 37113  1  0  0  0
 38 43  2  0  0  0
 38 46  1  0  0  0
 38 47  1  0  0  0
 39 64  1  0  0  0
 39 67  2  0  0  0
 40 52  1  0  0  0
 40 53  2  0  0  0
 40 58  1  0  0  0
 41114  1  0  0  0
 41115  1  0  0  0
 41116  1  0  0  0
 41 48  1  0  0  0
 42 43  1  0  0  0
 42 66  1  0  0  0
 42117  1  0  0  0
 42118  1  0  0  0
 43 44  1  0  0  0
 44119  1  0  0  0
 45 46  2  0  0  0
 45120  1  0  0  0
 46121  1  0  0  0
 47122  1  0  0  0
 47123  1  0  0  0
 48 56  1  0  0  0
 48 65  1  0  0  0
 48124  1  0  0  0
 49 50  1  0  0  0
 49 53  1  0  0  0
 49 64  1  0  0  0
 49125  1  0  0  0
 50 51  1  0  0  0
 50126  1  0  0  0
 50127  1  0  0  0
 51 52  1  0  0  0
 51128  1  0  0  0
 51129  1  0  0  0
 52130  1  0  0  0
 52131  1  0  0  0
 53 54  1  0  0  0
 54 55  2  0  0  0
 54132  1  0  0  0
 55 57  1  0  0  0
 55133  1  0  0  0
 56 69  2  0  0  0
 57 58  2  0  0  0
 57134  1  0  0  0
 58135  1  0  0  0
 59 60  1  0  0  0
 59 61  1  0  0  0
 59 62  1  0  0  0
 60136  1  0  0  0
 60137  1  0  0  0
 60138  1  0  0  0
 61139  1  0  0  0
 61140  1  0  0  0
 61141  1  0  0  0
 62142  1  0  0  0
 62143  1  0  0  0
 62144  1  0  0  0
 63 65  1  0  0  0
 63145  1  0  0  0
 63146  1  0  0  0
 63147  1  0  0  0
 64148  1  0  0  0
 65149  1  0  0  0
 68 83  1  0  0  0
 71 73  2  0  0  0
 71 74  1  0  0  0
 71150  1  0  0  0
 72 75  2  0  0  0
 72 76  1  0  0  0
 72151  1  0  0  0
 73 75  1  0  0  0
 73 86  1  0  0  0
 74 76  2  0  0  0
 74 84  1  0  0  0
 75 85  1  0  0  0
 76 88  1  0  0  0
 77 81  1  0  0  0
 77 87  1  0  0  0
 77 89  2  0  0  0
 78 83  1  0  0  0
 78 87  1  0  0  0
 78 90  2  0  0  0
 79 80  2  0  0  0
 79152  1  0  0  0
 79153  1  0  0  0
 80 88  1  0  0  0
 80154  1  0  0  0
 81 82  1  0  0  0
 81155  1  0  0  0
 81156  1  0  0  0
 82 83  1  0  0  0
 82157  1  0  0  0
 82158  1  0  0  0
 83159  1  0  0  0
 84160  1  0  0  0
 84161  1  0  0  0
 84162  1  0  0  0
 85163  1  0  0  0
 85164  1  0  0  0
 85165  1  0  0  0
 86 87  1  0  0  0
 86166  1  0  0  0
 86167  1  0  0  0
M  ISO  4   1 100  68 101  83 101  88 100
M  END
> <chiral flag>
0

> <version>
0

> <s_m_source_file>
/data/baiqing/PycharmProjects/Reinvent-master-3.2/result/LINK_invent/BTK/process_docking_weight1_custom_product_contain_oxygen_bond_distance_aromatic_linkinvent_7_9_3/rearranged_h_0054.sdf

> <i_m_source_file_index>
42

> <r_mmod_Potential_Energy-OPLS-2005>
367.117828369141

> <r_mmod_Stretch_Energy-OPLS-2005>
88.7134323120117

> <r_mmod_Bend_Energy-OPLS-2005>
169.628616333008

> <r_mmod_Torsional_Energy-OPLS-2005>
407.972351074219

> <r_mmod_Improper_Torsional_Energy-OPLS-2005>
30.4150676727295

> <r_mmod_Van_der_Waal_Energy-OPLS-2005>
166.437881469727

> <r_mmod_Electrostatic_Energy-OPLS-2005>
-353.823760986328

> <r_mmod_Solvation_Energy-OPLS-2005>
-221.446166992188

> <b_mmod_Minimization_Converged-OPLS-2005>
0

> <r_mmod_RMS_Derivative-OPLS-2005>
7.39122200012207

$$$$
42
                    3D
 Structure written by MMmdl.
157165  0  0  1  0            999 V2000
  -30.5645  -14.8016   20.4434 C   0  0  0  0  0  0
  -30.4414  -12.4853   19.4889 C   0  0  0  0  0  0
  -29.5188  -12.5161   18.2482 C   0  0  0  0  0  0
  -28.0455  -12.3285   18.6593 C   0  0  0  0  0  0
  -27.6432  -13.2315   19.8553 C   0  0  2  0  0  0
  -28.6853  -13.1726   20.9947 C   0  0  0  0  0  0
  -25.2513  -13.8191   20.5702 C   0  0  0  0  0  0
  -24.1801  -13.0437   20.9210 C   0  0  0  0  0  0
  -24.6393  -11.6915   20.8750 C   0  0  0  0  0  0
  -23.9069  -10.4293   21.0409 C   0  0  0  0  0  0
  -24.3620   -9.4208   21.9187 C   0  0  0  0  0  0
  -23.6294   -8.2243   22.0756 C   0  0  0  0  0  0
  -22.4276   -8.0282   21.3548 C   0  0  0  0  0  0
  -21.9913   -9.0255   20.4649 C   0  0  0  0  0  0
  -22.7243  -10.2135   20.3057 C   0  0  0  0  0  0
  -21.6852   -6.0737   22.5282 C   0  0  0  0  0  0
  -21.4013   -6.5641   23.8215 C   0  0  0  0  0  0
  -21.3659   -5.6793   24.9178 C   0  0  0  0  0  0
  -21.6043   -4.3056   24.7228 C   0  0  0  0  0  0
  -21.8818   -3.8148   23.4348 C   0  0  0  0  0  0
  -21.9191   -4.6965   22.3405 C   0  0  0  0  0  0
  -22.7822  -13.5222   21.1873 C   0  0  0  0  0  0
  -22.1660   -4.2150   21.0982 F   0  0  0  0  0  0
  -21.5628   -3.4539   25.7739 F   0  0  0  0  0  0
  -29.9847  -13.5469   20.4206 N   0  0  0  0  0  0
  -26.2942  -12.9395   20.3293 N   0  0  0  0  0  0
  -25.9324  -11.6539   20.5754 N   0  0  0  0  0  0
  -22.0465  -12.8213   22.0425 N   0  0  0  0  0  0
  -25.4202  -15.1916   20.4127 N   0  0  0  0  0  0
  -31.7351  -14.9325   20.0739 O   0  0  0  0  0  0
  -21.6640   -6.8880   21.4243 O   0  0  0  0  0  0
  -22.3512  -14.5534   20.6725 O   0  0  0  0  0  0
  -24.6340  -31.8505   23.1932 C   0  0  0  0  0  0
  -25.9151  -32.4728   23.8292 C   0  0  1  0  0  0
  -27.2295  -27.2268   20.1289 C   0  0  0  0  0  0
  -25.5937  -33.8532   24.2220 N   0  0  0  0  0  0
  -23.4333  -30.4699   21.5360 C   0  0  2  0  0  0
  -24.8827  -28.9078   20.1048 C   0  0  0  0  0  0
  -22.7520  -29.4576   22.4887 C   0  0  0  0  0  0
  -18.0298  -28.1392   22.8487 C   0  0  0  0  0  0
  -24.1489  -36.7266   23.2643 C   0  0  0  0  0  0
  -25.9801  -30.7519   21.3774 C   0  0  0  0  0  0
  -26.0521  -29.3707   20.7188 C   0  0  0  0  0  0
  -27.2216  -28.5407   20.7220 C   0  0  0  0  0  0
  -26.0329  -26.8335   19.4901 C   0  0  0  0  0  0
  -24.8803  -27.6492   19.4803 C   0  0  0  0  0  0
  -23.6533  -29.7979   20.1532 C   0  0  0  0  0  0
  -25.4120  -36.3052   24.0322 C   0  0  1  0  0  0
  -20.5903  -28.3704   23.1262 C   0  0  2  0  0  0
  -20.6782  -26.9417   22.5412 C   0  0  0  0  0  0
  -19.5757  -26.6382   21.5217 C   0  0  0  0  0  0
  -18.1937  -26.7935   22.1625 C   0  0  0  0  0  0
  -19.1553  -28.8865   23.2868 C   0  0  0  0  0  0
  -18.9475  -30.1467   23.8886 C   0  0  0  0  0  0
  -17.6472  -30.6591   24.0564 C   0  0  0  0  0  0
  -25.9063  -34.9425   23.5076 C   0  0  0  0  0  0
  -16.5363  -29.9088   23.6336 C   0  0  0  0  0  0
  -16.7284  -28.6505   23.0358 C   0  0  0  0  0  0
  -26.4509  -31.6574   25.0703 C   0  0  0  0  0  0
  -25.3720  -31.3744   26.1417 C   0  0  0  0  0  0
  -27.0369  -30.2988   24.6220 C   0  0  0  0  0  0
  -27.6052  -32.4329   25.7481 C   0  0  0  0  0  0
  -27.5576  -37.1788   24.8469 C   0  0  0  0  0  0
  -21.4221  -29.3041   22.3640 N   0  0  0  0  0  0
  -26.4289  -37.3759   23.9412 N   0  0  0  0  0  0
  -24.7015  -31.0440   22.0915 N   0  0  0  0  0  0
  -23.4205  -28.8131   23.3011 O   0  0  0  0  0  0
  -28.3331  -26.3379   20.2416 O   0  0  0  0  0  0
  -26.5643  -34.8914   22.4650 O   0  0  0  0  0  0
  -23.5482  -32.1340   23.7209 O   0  0  0  0  0  0
  -30.9683  -18.1443   22.2425 C   0  0  0  0  0  0
  -31.4841  -18.9986   23.2274 C   0  0  0  0  0  0
  -30.3569  -20.8626   22.1762 C   0  0  0  0  0  0
  -30.1295  -18.5916   21.1906 C   0  0  0  0  0  0
  -29.8039  -20.0522   21.1521 C   0  0  0  0  0  0
  -31.1791  -20.3602   23.1932 C   0  0  0  0  0  0
  -28.3992  -23.5812   20.3084 C   0  0  0  0  0  0
  -30.2502  -22.5927   19.0035 C   0  0  0  0  0  0
  -29.7669  -17.3872   20.2080 C   0  0  0  0  0  0
  -28.8549  -20.9206   20.2027 C   0  0  0  0  0  0
  -28.4909  -25.0089   19.5239 C   0  0  0  0  0  0
  -29.7426  -15.9056   20.6750 N   0  0  0  0  0  0
  -29.1201  -22.4313   19.9201 N   0  0  0  0  0  0
  -27.5814  -23.5014   21.2291 O   0  0  0  0  0  0
  -31.6710  -21.1907   24.1426 F   0  0  0  0  0  0
  -31.4809  -12.6233   19.1873 H   0  0  0  0  0  0
  -30.4009  -11.5097   19.9759 H   0  0  0  0  0  0
  -29.8113  -11.7396   17.5402 H   0  0  0  0  0  0
  -29.6356  -13.4669   17.7256 H   0  0  0  0  0  0
  -27.9124  -11.2802   18.9295 H   0  0  0  0  0  0
  -27.3873  -12.5086   17.8087 H   0  0  0  0  0  0
  -27.6347  -14.2512   19.4699 H   0  0  0  0  0  0
  -28.7310  -12.1730   21.4292 H   0  0  0  0  0  0
  -28.4081  -13.8446   21.8082 H   0  0  0  0  0  0
  -25.2763   -9.5686   22.4765 H   0  0  0  0  0  0
  -24.0004   -7.4634   22.7474 H   0  0  0  0  0  0
  -21.0846   -8.8777   19.8952 H   0  0  0  0  0  0
  -22.3702  -10.9676   19.6168 H   0  0  0  0  0  0
  -21.2003   -7.6148   23.9721 H   0  0  0  0  0  0
  -21.1480   -6.0522   25.9082 H   0  0  0  0  0  0
  -22.0594   -2.7609   23.2848 H   0  0  0  0  0  0
  -22.4076  -11.9868   22.4808 H   0  0  0  0  0  0
  -21.1085  -13.1243   22.2637 H   0  0  0  0  0  0
  -24.6508  -15.8430   20.5248 H   0  0  0  0  0  0
  -26.2639  -15.6336   20.0715 H   0  0  0  0  0  0
  -26.7214  -32.5363   23.1025 H   0  0  0  0  0  0
  -25.0091  -33.9662   25.0370 H   0  0  0  0  0  0
  -22.7315  -31.2927   21.3854 H   0  0  0  0  0  0
  -23.3759  -35.9590   23.3298 H   0  0  0  0  0  0
  -24.3579  -36.8899   22.2060 H   0  0  0  0  0  0
  -23.7234  -37.6457   23.6678 H   0  0  0  0  0  0
  -26.1244  -31.5109   20.6072 H   0  0  0  0  0  0
  -26.8554  -30.8010   22.0135 H   0  0  0  0  0  0
  -28.1137  -28.8890   21.2235 H   0  0  0  0  0  0
  -25.9468  -25.8603   19.0325 H   0  0  0  0  0  0
  -23.9812  -27.2860   19.0015 H   0  0  0  0  0  0
  -23.7775  -30.5717   19.3947 H   0  0  0  0  0  0
  -22.7712  -29.2310   19.8498 H   0  0  0  0  0  0
  -25.1305  -36.1887   25.0813 H   0  0  0  0  0  0
  -21.0000  -28.3287   24.1380 H   0  0  0  0  0  0
  -20.5682  -26.2316   23.3622 H   0  0  0  0  0  0
  -21.6648  -26.7434   22.1204 H   0  0  0  0  0  0
  -19.6918  -25.6291   21.1253 H   0  0  0  0  0  0
  -19.6695  -27.3188   20.6743 H   0  0  0  0  0  0
  -17.4210  -26.6690   21.4025 H   0  0  0  0  0  0
  -18.0328  -26.0078   22.9019 H   0  0  0  0  0  0
  -19.7952  -30.7289   24.2242 H   0  0  0  0  0  0
  -17.5029  -31.6270   24.5169 H   0  0  0  0  0  0
  -15.5364  -30.2989   23.7667 H   0  0  0  0  0  0
  -15.8684  -28.0822   22.7076 H   0  0  0  0  0  0
  -24.5906  -30.7079   25.7751 H   0  0  0  0  0  0
  -24.8900  -32.2920   26.4799 H   0  0  0  0  0  0
  -25.8027  -30.8957   27.0220 H   0  0  0  0  0  0
  -26.2960  -29.6722   24.1242 H   0  0  0  0  0  0
  -27.4042  -29.7270   25.4750 H   0  0  0  0  0  0
  -27.8840  -30.4260   23.9475 H   0  0  0  0  0  0
  -27.2657  -33.3656   26.1997 H   0  0  0  0  0  0
  -28.3895  -32.6842   25.0329 H   0  0  0  0  0  0
  -28.0680  -31.8490   26.5448 H   0  0  0  0  0  0
  -28.2591  -38.0088   24.7514 H   0  0  0  0  0  0
  -28.1071  -36.2617   24.6294 H   0  0  0  0  0  0
  -27.2293  -37.1430   25.8872 H   0  0  0  0  0  0
  -20.9414  -29.8753   21.6831 H   0  0  0  0  0  0
  -26.0159  -38.2828   24.1417 H   0  0  0  0  0  0
  -31.2531  -17.1046   22.3068 H   0  0  0  0  0  0
  -32.1192  -18.6080   24.0092 H   0  0  0  0  0  0
  -30.1377  -21.9193   22.2133 H   0  0  0  0  0  0
  -30.9648  -23.3220   19.3878 H   0  0  0  0  0  0
  -29.9108  -22.9200   18.0197 H   0  0  0  0  0  0
  -30.8009  -21.6615   18.8643 H   0  0  0  0  0  0
  -30.4569  -17.4503   19.3654 H   0  0  0  0  0  0
  -28.7841  -17.6038   19.7884 H   0  0  0  0  0  0
  -27.8502  -20.8431   20.6206 H   0  0  0  0  0  0
  -28.7923  -20.4050   19.2436 H   0  0  0  0  0  0
  -27.8345  -24.9539   18.6580 H   0  0  0  0  0  0
  -29.4856  -25.0780   19.0882 H   0  0  0  0  0  0
  -28.8406  -15.6310   21.0332 H   0  0  0  0  0  0
  1 25  1  0  0  0
  1 30  2  0  0  0
  1 82  1  0  0  0
  2  3  1  0  0  0
  2 25  1  0  0  0
  2 86  1  0  0  0
  2 87  1  0  0  0
  3  4  1  0  0  0
  3 88  1  0  0  0
  3 89  1  0  0  0
  4  5  1  0  0  0
  4 90  1  0  0  0
  4 91  1  0  0  0
  5  6  1  0  0  0
  5 26  1  0  0  0
  5 92  1  0  0  0
  6 25  1  0  0  0
  6 93  1  0  0  0
  6 94  1  0  0  0
  7  8  2  0  0  0
  7 26  1  0  0  0
  7 29  1  0  0  0
  8  9  1  0  0  0
  8 22  1  0  0  0
  9 10  1  0  0  0
  9 27  2  0  0  0
 10 11  2  0  0  0
 10 15  1  0  0  0
 11 12  1  0  0  0
 11 95  1  0  0  0
 12 13  2  0  0  0
 12 96  1  0  0  0
 13 14  1  0  0  0
 13 31  1  0  0  0
 14 15  2  0  0  0
 14 97  1  0  0  0
 15 98  1  0  0  0
 16 17  2  0  0  0
 16 21  1  0  0  0
 16 31  1  0  0  0
 17 18  1  0  0  0
 17 99  1  0  0  0
 18 19  2  0  0  0
 18100  1  0  0  0
 19 20  1  0  0  0
 19 24  1  0  0  0
 20 21  2  0  0  0
 20101  1  0  0  0
 21 23  1  0  0  0
 22 28  1  0  0  0
 22 32  2  0  0  0
 26 27  1  0  0  0
 28102  1  0  0  0
 28103  1  0  0  0
 29104  1  0  0  0
 29105  1  0  0  0
 33 34  1  0  0  0
 33 66  1  0  0  0
 33 70  2  0  0  0
 34 36  1  0  0  0
 34 59  1  0  0  0
 34106  1  0  0  0
 35 44  2  0  0  0
 35 45  1  0  0  0
 35 68  1  0  0  0
 36 56  1  0  0  0
 36107  1  0  0  0
 37 39  1  0  0  0
 37 47  1  0  0  0
 37 66  1  0  0  0
 37108  1  0  0  0
 38 43  2  0  0  0
 38 46  1  0  0  0
 38 47  1  0  0  0
 39 64  1  0  0  0
 39 67  2  0  0  0
 40 52  1  0  0  0
 40 53  2  0  0  0
 40 58  1  0  0  0
 41109  1  0  0  0
 41110  1  0  0  0
 41111  1  0  0  0
 41 48  1  0  0  0
 42 43  1  0  0  0
 42 66  1  0  0  0
 42112  1  0  0  0
 42113  1  0  0  0
 43 44  1  0  0  0
 44114  1  0  0  0
 45 46  2  0  0  0
 45115  1  0  0  0
 46116  1  0  0  0
 47117  1  0  0  0
 47118  1  0  0  0
 48 56  1  0  0  0
 48 65  1  0  0  0
 48119  1  0  0  0
 49 50  1  0  0  0
 49 53  1  0  0  0
 49 64  1  0  0  0
 49120  1  0  0  0
 50 51  1  0  0  0
 50121  1  0  0  0
 50122  1  0  0  0
 51 52  1  0  0  0
 51123  1  0  0  0
 51124  1  0  0  0
 52125  1  0  0  0
 52126  1  0  0  0
 53 54  1  0  0  0
 54 55  2  0  0  0
 54127  1  0  0  0
 55 57  1  0  0  0
 55128  1  0  0  0
 56 69  2  0  0  0
 57 58  2  0  0  0
 57129  1  0  0  0
 58130  1  0  0  0
 59 60  1  0  0  0
 59 61  1  0  0  0
 59 62  1  0  0  0
 60131  1  0  0  0
 60132  1  0  0  0
 60133  1  0  0  0
 61134  1  0  0  0
 61135  1  0  0  0
 61136  1  0  0  0
 62137  1  0  0  0
 62138  1  0  0  0
 62139  1  0  0  0
 63 65  1  0  0  0
 63140  1  0  0  0
 63141  1  0  0  0
 63142  1  0  0  0
 64143  1  0  0  0
 65144  1  0  0  0
 68 81  1  0  0  0
 71 72  2  0  0  0
 71 74  1  0  0  0
 71145  1  0  0  0
 72 76  1  0  0  0
 72146  1  0  0  0
 73 75  1  0  0  0
 73 76  2  0  0  0
 73147  1  0  0  0
 74 75  2  0  0  0
 74 79  1  0  0  0
 75 80  1  0  0  0
 76 85  1  0  0  0
 77 81  1  0  0  0
 77 83  1  0  0  0
 77 84  2  0  0  0
 78 83  1  0  0  0
 78148  1  0  0  0
 78149  1  0  0  0
 78150  1  0  0  0
 79 82  1  0  0  0
 79151  1  0  0  0
 79152  1  0  0  0
 80 83  1  0  0  0
 80153  1  0  0  0
 80154  1  0  0  0
 81155  1  0  0  0
 81156  1  0  0  0
 82157  1  0  0  0
M  ISO  4   1 100  68 101  81 101  82 100
M  END
> <chiral flag>
0

> <version>
0

> <s_m_source_file>
/data/baiqing/PycharmProjects/Reinvent-master-3.2/result/LINK_invent/BTK/process_docking_weight1_custom_product_contain_oxygen_bond_distance_aromatic_linkinvent_7_9_3/rearranged_h_0054.sdf

> <i_m_source_file_index>
43

> <r_mmod_Potential_Energy-OPLS-2005>
255.709426879883

> <r_mmod_Stretch_Energy-OPLS-2005>
171.892349243164

> <r_mmod_Bend_Energy-OPLS-2005>
234.009429931641

> <r_mmod_Torsional_Energy-OPLS-2005>
215.524154663086

> <r_mmod_Improper_Torsional_Energy-OPLS-2005>
6.94784069061279

> <r_mmod_Van_der_Waal_Energy-OPLS-2005>
137.34846496582

> <r_mmod_Electrostatic_Energy-OPLS-2005>
-376.144653320312

> <r_mmod_Solvation_Energy-OPLS-2005>
-243.593673706055

> <b_mmod_Minimization_Converged-OPLS-2005>
0

> <r_mmod_RMS_Derivative-OPLS-2005>
0.471947282552719

$$$$
43
                    3D
 Structure written by MMmdl.
154162  0  0  1  0            999 V2000
  -30.6188  -14.7529   20.4384 C   0  0  0  0  0  0
  -30.4276  -12.4573   19.4854 C   0  0  0  0  0  0
  -29.5149  -12.5292   18.2417 C   0  0  0  0  0  0
  -28.0349  -12.3597   18.6391 C   0  0  0  0  0  0
  -27.6456  -13.2399   19.8562 C   0  0  2  0  0  0
  -28.6893  -13.1779   20.9936 C   0  0  0  0  0  0
  -25.2517  -13.8220   20.5700 C   0  0  0  0  0  0
  -24.1823  -13.0453   20.9206 C   0  0  0  0  0  0
  -24.6398  -11.6935   20.8703 C   0  0  0  0  0  0
  -23.9033  -10.4336   21.0363 C   0  0  0  0  0  0
  -24.3593   -9.4264   21.9136 C   0  0  0  0  0  0
  -23.6294   -8.2282   22.0707 C   0  0  0  0  0  0
  -22.4279   -8.0287   21.3516 C   0  0  0  0  0  0
  -21.9892   -9.0239   20.4619 C   0  0  0  0  0  0
  -22.7193  -10.2143   20.3018 C   0  0  0  0  0  0
  -21.6833   -6.0750   22.5287 C   0  0  0  0  0  0
  -21.4005   -6.5654   23.8216 C   0  0  0  0  0  0
  -21.3677   -5.6789   24.9179 C   0  0  0  0  0  0
  -21.6045   -4.3048   24.7213 C   0  0  0  0  0  0
  -21.8822   -3.8136   23.4338 C   0  0  0  0  0  0
  -21.9200   -4.6978   22.3397 C   0  0  0  0  0  0
  -22.7872  -13.5242   21.1885 C   0  0  0  0  0  0
  -22.1661   -4.2177   21.0971 F   0  0  0  0  0  0
  -21.5626   -3.4534   25.7714 F   0  0  0  0  0  0
  -29.9973  -13.5228   20.4225 N   0  0  0  0  0  0
  -26.2959  -12.9452   20.3303 N   0  0  0  0  0  0
  -25.9344  -11.6587   20.5727 N   0  0  0  0  0  0
  -22.0506  -12.8242   22.0442 N   0  0  0  0  0  0
  -25.4182  -15.1960   20.4135 N   0  0  0  0  0  0
  -31.7907  -14.8422   20.0589 O   0  0  0  0  0  0
  -21.6629   -6.8894   21.4241 O   0  0  0  0  0  0
  -22.3570  -14.5532   20.6706 O   0  0  0  0  0  0
  -24.6317  -31.8565   23.1977 C   0  0  0  0  0  0
  -25.9154  -32.4750   23.8325 C   0  0  1  0  0  0
  -27.2360  -27.2672   20.1248 C   0  0  0  0  0  0
  -25.5978  -33.8562   24.2251 N   0  0  0  0  0  0
  -23.4299  -30.4763   21.5387 C   0  0  2  0  0  0
  -24.8782  -28.9236   20.1120 C   0  0  0  0  0  0
  -22.7502  -29.4629   22.4906 C   0  0  0  0  0  0
  -18.0312  -28.1404   22.8479 C   0  0  0  0  0  0
  -24.1490  -36.7261   23.2634 C   0  0  0  0  0  0
  -25.9748  -30.7674   21.3782 C   0  0  0  0  0  0
  -26.0472  -29.3916   20.7223 C   0  0  0  0  0  0
  -27.2265  -28.5742   20.7199 C   0  0  0  0  0  0
  -26.0415  -26.8786   19.4735 C   0  0  0  0  0  0
  -24.8798  -27.6730   19.4817 C   0  0  0  0  0  0
  -23.6472  -29.8045   20.1576 C   0  0  0  0  0  0
  -25.4117  -36.3048   24.0318 C   0  0  1  0  0  0
  -20.5913  -28.3709   23.1238 C   0  0  2  0  0  0
  -20.6790  -26.9419   22.5387 C   0  0  0  0  0  0
  -19.5773  -26.6384   21.5196 C   0  0  0  0  0  0
  -18.1957  -26.7940   22.1600 C   0  0  0  0  0  0
  -19.1560  -28.8869   23.2858 C   0  0  0  0  0  0
  -18.9479  -30.1466   23.8878 C   0  0  0  0  0  0
  -17.6476  -30.6588   24.0559 C   0  0  0  0  0  0
  -25.9066  -34.9427   23.5070 C   0  0  0  0  0  0
  -16.5382  -29.9069   23.6334 C   0  0  0  0  0  0
  -16.7296  -28.6496   23.0352 C   0  0  0  0  0  0
  -26.4536  -31.6556   25.0698 C   0  0  0  0  0  0
  -25.3758  -31.3690   26.1403 C   0  0  0  0  0  0
  -27.0420  -30.2991   24.6200 C   0  0  0  0  0  0
  -27.6114  -32.4305   25.7461 C   0  0  0  0  0  0
  -27.5593  -37.1760   24.8447 C   0  0  0  0  0  0
  -21.4206  -29.3063   22.3617 N   0  0  0  0  0  0
  -26.4267  -37.3774   23.9432 N   0  0  0  0  0  0
  -24.6971  -31.0512   22.0951 N   0  0  0  0  0  0
  -23.4173  -28.8157   23.3026 O   0  0  0  0  0  0
  -28.3359  -26.3720   20.2001 O   0  0  0  0  0  0
  -26.5607  -34.8926   22.4631 O   0  0  0  0  0  0
  -23.5466  -32.1380   23.7251 O   0  0  0  0  0  0
  -29.7871  -18.4665   17.9516 C   0  0  0  0  0  0
  -29.8633  -17.2550   18.6683 C   0  0  0  0  0  0
  -29.7569  -18.5269   20.7308 C   0  0  0  0  0  0
  -29.7055  -19.7232   18.5944 C   0  0  0  0  0  0
  -29.6568  -19.8016   20.0178 C   0  0  0  0  0  0
  -29.8775  -17.2253   20.0810 C   0  0  0  0  0  0
  -29.1197  -23.8030   20.4389 C   0  0  0  0  0  0
  -29.7136  -20.9593   17.7004 C   0  0  0  0  0  0
  -29.5955  -21.2145   20.7727 C   0  0  0  0  0  0
  -28.1081  -24.9136   19.8825 C   0  0  0  0  0  0
  -29.8901  -15.8941   20.7536 N   0  0  0  0  0  0
  -28.8928  -22.4508   20.2086 N   0  0  0  0  0  0
  -30.0975  -24.1719   21.0947 O   0  0  0  0  0  0
  -31.4718  -12.5651   19.1873 H   0  0  0  0  0  0
  -30.3519  -11.4794   19.9632 H   0  0  0  0  0  0
  -29.8027  -11.7700   17.5140 H   0  0  0  0  0  0
  -29.6564  -13.4909   17.7481 H   0  0  0  0  0  0
  -27.8728  -11.3072   18.8696 H   0  0  0  0  0  0
  -27.3794  -12.5841   17.7970 H   0  0  0  0  0  0
  -27.6413  -14.2683   19.4921 H   0  0  0  0  0  0
  -28.7238  -12.1853   21.4473 H   0  0  0  0  0  0
  -28.4254  -13.8731   21.7901 H   0  0  0  0  0  0
  -25.2736   -9.5767   22.4724 H   0  0  0  0  0  0
  -24.0023   -7.4664   22.7423 H   0  0  0  0  0  0
  -21.0828   -8.8702   19.8957 H   0  0  0  0  0  0
  -22.3562  -10.9652   19.6124 H   0  0  0  0  0  0
  -21.1974   -7.6147   23.9722 H   0  0  0  0  0  0
  -21.1509   -6.0520   25.9089 H   0  0  0  0  0  0
  -22.0592   -2.7617   23.2795 H   0  0  0  0  0  0
  -22.4039  -11.9864   22.4823 H   0  0  0  0  0  0
  -21.1127  -13.1284   22.2588 H   0  0  0  0  0  0
  -24.6567  -15.8492   20.5605 H   0  0  0  0  0  0
  -26.2389  -15.6301   20.0099 H   0  0  0  0  0  0
  -26.7210  -32.5375   23.1050 H   0  0  0  0  0  0
  -25.0197  -33.9707   25.0441 H   0  0  0  0  0  0
  -22.7298  -31.2983   21.3852 H   0  0  0  0  0  0
  -23.3802  -35.9536   23.3191 H   0  0  0  0  0  0
  -24.3606  -36.8995   22.2068 H   0  0  0  0  0  0
  -23.7175  -37.6406   23.6726 H   0  0  0  0  0  0
  -26.1090  -31.5278   20.6055 H   0  0  0  0  0  0
  -26.8536  -30.8188   22.0085 H   0  0  0  0  0  0
  -28.1180  -28.9354   21.2110 H   0  0  0  0  0  0
  -25.9690  -25.9344   18.9569 H   0  0  0  0  0  0
  -23.9859  -27.3056   18.9953 H   0  0  0  0  0  0
  -23.7637  -30.5704   19.3933 H   0  0  0  0  0  0
  -22.7720  -29.2237   19.8579 H   0  0  0  0  0  0
  -25.1293  -36.1873   25.0809 H   0  0  0  0  0  0
  -21.0043  -28.3292   24.1343 H   0  0  0  0  0  0
  -20.5653  -26.2345   23.3607 H   0  0  0  0  0  0
  -21.6659  -26.7411   22.1194 H   0  0  0  0  0  0
  -19.6901  -25.6278   21.1230 H   0  0  0  0  0  0
  -19.6688  -27.3180   20.6711 H   0  0  0  0  0  0
  -17.4224  -26.6701   21.4004 H   0  0  0  0  0  0
  -18.0349  -26.0078   22.8989 H   0  0  0  0  0  0
  -19.7970  -30.7302   24.2215 H   0  0  0  0  0  0
  -17.5043  -31.6271   24.5162 H   0  0  0  0  0  0
  -15.5373  -30.2970   23.7694 H   0  0  0  0  0  0
  -15.8709  -28.0821   22.7062 H   0  0  0  0  0  0
  -24.5987  -30.6988   25.7693 H   0  0  0  0  0  0
  -24.8884  -32.2843   26.4781 H   0  0  0  0  0  0
  -25.8071  -30.8888   27.0195 H   0  0  0  0  0  0
  -26.3009  -29.6694   24.1274 H   0  0  0  0  0  0
  -27.4161  -29.7308   25.4720 H   0  0  0  0  0  0
  -27.8854  -30.4271   23.9429 H   0  0  0  0  0  0
  -27.2769  -33.3654   26.1974 H   0  0  0  0  0  0
  -28.3965  -32.6774   25.0300 H   0  0  0  0  0  0
  -28.0740  -31.8457   26.5416 H   0  0  0  0  0  0
  -28.2512  -38.0158   24.7687 H   0  0  0  0  0  0
  -28.1202  -36.2716   24.6044 H   0  0  0  0  0  0
  -27.2343  -37.1127   25.8848 H   0  0  0  0  0  0
  -20.9399  -29.8768   21.6797 H   0  0  0  0  0  0
  -26.0133  -38.2815   24.1564 H   0  0  0  0  0  0
  -29.7994  -18.4244   16.8699 H   0  0  0  0  0  0
  -29.8967  -16.3385   18.0976 H   0  0  0  0  0  0
  -29.7519  -18.5619   21.8136 H   0  0  0  0  0  0
  -30.0029  -20.7122   16.6764 H   0  0  0  0  0  0
  -30.4270  -21.7057   18.0553 H   0  0  0  0  0  0
  -28.7246  -21.4126   17.6502 H   0  0  0  0  0  0
  -30.6260  -21.4864   21.0040 H   0  0  0  0  0  0
  -29.1344  -21.0298   21.7439 H   0  0  0  0  0  0
  -27.1344  -24.6093   20.2662 H   0  0  0  0  0  0
  -28.0786  -24.8138   18.7973 H   0  0  0  0  0  0
  -29.0981  -15.7226   21.3555 H   0  0  0  0  0  0
  -28.0643  -22.2470   19.6693 H   0  0  0  0  0  0
  1 25  1  0  0  0
  1 30  2  0  0  0
  1 81  1  0  0  0
  2  3  1  0  0  0
  2 25  1  0  0  0
  2 84  1  0  0  0
  2 85  1  0  0  0
  3  4  1  0  0  0
  3 86  1  0  0  0
  3 87  1  0  0  0
  4  5  1  0  0  0
  4 88  1  0  0  0
  4 89  1  0  0  0
  5  6  1  0  0  0
  5 26  1  0  0  0
  5 90  1  0  0  0
  6 25  1  0  0  0
  6 91  1  0  0  0
  6 92  1  0  0  0
  7  8  2  0  0  0
  7 26  1  0  0  0
  7 29  1  0  0  0
  8  9  1  0  0  0
  8 22  1  0  0  0
  9 10  1  0  0  0
  9 27  2  0  0  0
 10 11  2  0  0  0
 10 15  1  0  0  0
 11 12  1  0  0  0
 11 93  1  0  0  0
 12 13  2  0  0  0
 12 94  1  0  0  0
 13 14  1  0  0  0
 13 31  1  0  0  0
 14 15  2  0  0  0
 14 95  1  0  0  0
 15 96  1  0  0  0
 16 17  2  0  0  0
 16 21  1  0  0  0
 16 31  1  0  0  0
 17 18  1  0  0  0
 17 97  1  0  0  0
 18 19  2  0  0  0
 18 98  1  0  0  0
 19 20  1  0  0  0
 19 24  1  0  0  0
 20 21  2  0  0  0
 20 99  1  0  0  0
 21 23  1  0  0  0
 22 28  1  0  0  0
 22 32  2  0  0  0
 26 27  1  0  0  0
 28100  1  0  0  0
 28101  1  0  0  0
 29102  1  0  0  0
 29103  1  0  0  0
 33 34  1  0  0  0
 33 66  1  0  0  0
 33 70  2  0  0  0
 34 36  1  0  0  0
 34 59  1  0  0  0
 34104  1  0  0  0
 35 44  2  0  0  0
 35 45  1  0  0  0
 35 68  1  0  0  0
 36 56  1  0  0  0
 36105  1  0  0  0
 37 39  1  0  0  0
 37 47  1  0  0  0
 37 66  1  0  0  0
 37106  1  0  0  0
 38 43  2  0  0  0
 38 46  1  0  0  0
 38 47  1  0  0  0
 39 64  1  0  0  0
 39 67  2  0  0  0
 40 52  1  0  0  0
 40 53  2  0  0  0
 40 58  1  0  0  0
 41107  1  0  0  0
 41108  1  0  0  0
 41109  1  0  0  0
 41 48  1  0  0  0
 42 43  1  0  0  0
 42 66  1  0  0  0
 42110  1  0  0  0
 42111  1  0  0  0
 43 44  1  0  0  0
 44112  1  0  0  0
 45 46  2  0  0  0
 45113  1  0  0  0
 46114  1  0  0  0
 47115  1  0  0  0
 47116  1  0  0  0
 48 56  1  0  0  0
 48 65  1  0  0  0
 48117  1  0  0  0
 49 50  1  0  0  0
 49 53  1  0  0  0
 49 64  1  0  0  0
 49118  1  0  0  0
 50 51  1  0  0  0
 50119  1  0  0  0
 50120  1  0  0  0
 51 52  1  0  0  0
 51121  1  0  0  0
 51122  1  0  0  0
 52123  1  0  0  0
 52124  1  0  0  0
 53 54  1  0  0  0
 54 55  2  0  0  0
 54125  1  0  0  0
 55 57  1  0  0  0
 55126  1  0  0  0
 56 69  2  0  0  0
 57 58  2  0  0  0
 57127  1  0  0  0
 58128  1  0  0  0
 59 60  1  0  0  0
 59 61  1  0  0  0
 59 62  1  0  0  0
 60129  1  0  0  0
 60130  1  0  0  0
 60131  1  0  0  0
 61132  1  0  0  0
 61133  1  0  0  0
 61134  1  0  0  0
 62135  1  0  0  0
 62136  1  0  0  0
 62137  1  0  0  0
 63 65  1  0  0  0
 63138  1  0  0  0
 63139  1  0  0  0
 63140  1  0  0  0
 64141  1  0  0  0
 65142  1  0  0  0
 68 80  1  0  0  0
 71 72  2  0  0  0
 71 74  1  0  0  0
 71143  1  0  0  0
 72 76  1  0  0  0
 72144  1  0  0  0
 73 75  1  0  0  0
 73 76  2  0  0  0
 73145  1  0  0  0
 74 75  2  0  0  0
 74 78  1  0  0  0
 75 79  1  0  0  0
 76 81  1  0  0  0
 77 80  1  0  0  0
 77 82  1  0  0  0
 77 83  2  0  0  0
 78146  1  0  0  0
 78147  1  0  0  0
 78148  1  0  0  0
 79 82  1  0  0  0
 79149  1  0  0  0
 79150  1  0  0  0
 80151  1  0  0  0
 80152  1  0  0  0
 81153  1  0  0  0
 82154  1  0  0  0
M  ISO  4   1 100  68 101  80 101  81 100
M  END
> <chiral flag>
0

> <version>
0

> <s_m_source_file>
/data/baiqing/PycharmProjects/Reinvent-master-3.2/result/LINK_invent/BTK/process_docking_weight1_custom_product_contain_oxygen_bond_distance_aromatic_linkinvent_7_9_3/rearranged_h_0054.sdf

> <i_m_source_file_index>
44

> <r_mmod_Potential_Energy-OPLS-2005>
100.975120544434

> <r_mmod_Stretch_Energy-OPLS-2005>
128.956878662109

> <r_mmod_Bend_Energy-OPLS-2005>
159.108367919922

> <r_mmod_Torsional_Energy-OPLS-2005>
237.841979980469

> <r_mmod_Improper_Torsional_Energy-OPLS-2005>
4.69848155975342

> <r_mmod_Van_der_Waal_Energy-OPLS-2005>
139.847930908203

> <r_mmod_Electrostatic_Energy-OPLS-2005>
-404.097412109375

> <r_mmod_Solvation_Energy-OPLS-2005>
-251.028945922852

> <b_mmod_Minimization_Converged-OPLS-2005>
0

> <r_mmod_RMS_Derivative-OPLS-2005>
5.51674318313599

$$$$
44
                    3D
 Structure written by MMmdl.
160169  0  0  1  0            999 V2000
  -30.6122  -14.6461   20.4437 C   0  0  0  0  0  0
  -30.4272  -12.3796   19.4688 C   0  0  0  0  0  0
  -29.5109  -12.4964   18.2311 C   0  0  0  0  0  0
  -28.0275  -12.3499   18.6243 C   0  0  0  0  0  0
  -27.6464  -13.2222   19.8517 C   0  0  2  0  0  0
  -28.6852  -13.0977   20.9879 C   0  0  0  0  0  0
  -25.2537  -13.8207   20.5652 C   0  0  0  0  0  0
  -24.1822  -13.0462   20.9194 C   0  0  0  0  0  0
  -24.6398  -11.6934   20.8730 C   0  0  0  0  0  0
  -23.9081  -10.4311   21.0400 C   0  0  0  0  0  0
  -24.3645   -9.4224   21.9171 C   0  0  0  0  0  0
  -23.6312   -8.2267   22.0747 C   0  0  0  0  0  0
  -22.4290   -8.0308   21.3545 C   0  0  0  0  0  0
  -21.9932   -9.0282   20.4638 C   0  0  0  0  0  0
  -22.7264  -10.2157   20.3034 C   0  0  0  0  0  0
  -21.6870   -6.0741   22.5282 C   0  0  0  0  0  0
  -21.4020   -6.5639   23.8216 C   0  0  0  0  0  0
  -21.3673   -5.6787   24.9185 C   0  0  0  0  0  0
  -21.6063   -4.3050   24.7229 C   0  0  0  0  0  0
  -21.8811   -3.8148   23.4346 C   0  0  0  0  0  0
  -21.9201   -4.6970   22.3407 C   0  0  0  0  0  0
  -22.7832  -13.5227   21.1851 C   0  0  0  0  0  0
  -22.1639   -4.2161   21.0977 F   0  0  0  0  0  0
  -21.5661   -3.4515   25.7734 F   0  0  0  0  0  0
  -30.0029  -13.4207   20.4274 N   0  0  0  0  0  0
  -26.2948  -12.9378   20.3241 N   0  0  0  0  0  0
  -25.9315  -11.6531   20.5726 N   0  0  0  0  0  0
  -22.0479  -12.8247   22.0431 N   0  0  0  0  0  0
  -25.4262  -15.1926   20.4013 N   0  0  0  0  0  0
  -31.7920  -14.7724   20.0973 O   0  0  0  0  0  0
  -21.6656   -6.8899   21.4246 O   0  0  0  0  0  0
  -22.3497  -14.5502   20.6658 O   0  0  0  0  0  0
  -24.6286  -31.8546   23.1997 C   0  0  0  0  0  0
  -25.9115  -32.4757   23.8355 C   0  0  1  0  0  0
  -27.2256  -27.3080   20.1156 C   0  0  0  0  0  0
  -25.5912  -33.8557   24.2277 N   0  0  0  0  0  0
  -23.4242  -30.4775   21.5413 C   0  0  2  0  0  0
  -24.8677  -28.9200   20.1163 C   0  0  0  0  0  0
  -22.7489  -29.4594   22.4917 C   0  0  0  0  0  0
  -18.0292  -28.1379   22.8477 C   0  0  0  0  0  0
  -24.1489  -36.7304   23.2640 C   0  0  0  0  0  0
  -25.9658  -30.7799   21.3699 C   0  0  0  0  0  0
  -26.0364  -29.4043   20.7179 C   0  0  0  0  0  0
  -27.2181  -28.6079   20.7068 C   0  0  0  0  0  0
  -26.0338  -26.8659   19.5050 C   0  0  0  0  0  0
  -24.8655  -27.6540   19.5065 C   0  0  0  0  0  0
  -23.6407  -29.8062   20.1589 C   0  0  0  0  0  0
  -25.4107  -36.3079   24.0334 C   0  0  1  0  0  0
  -20.5891  -28.3676   23.1260 C   0  0  2  0  0  0
  -20.6769  -26.9381   22.5405 C   0  0  0  0  0  0
  -19.5754  -26.6359   21.5204 C   0  0  0  0  0  0
  -18.1937  -26.7929   22.1602 C   0  0  0  0  0  0
  -19.1548  -28.8844   23.2871 C   0  0  0  0  0  0
  -18.9457  -30.1446   23.8896 C   0  0  0  0  0  0
  -17.6452  -30.6568   24.0562 C   0  0  0  0  0  0
  -25.9038  -34.9440   23.5102 C   0  0  0  0  0  0
  -16.5342  -29.9061   23.6329 C   0  0  0  0  0  0
  -16.7281  -28.6482   23.0344 C   0  0  0  0  0  0
  -26.4500  -31.6577   25.0738 C   0  0  0  0  0  0
  -25.3762  -31.3673   26.1491 C   0  0  0  0  0  0
  -27.0338  -30.3008   24.6179 C   0  0  0  0  0  0
  -27.6066  -32.4305   25.7505 C   0  0  0  0  0  0
  -27.5582  -37.1799   24.8456 C   0  0  0  0  0  0
  -21.4199  -29.3028   22.3657 N   0  0  0  0  0  0
  -26.4288  -37.3766   23.9409 N   0  0  0  0  0  0
  -24.6926  -31.0549   22.0943 N   0  0  0  0  0  0
  -23.4210  -28.8122   23.2996 O   0  0  0  0  0  0
  -28.3713  -26.5036   20.1020 O   0  0  0  0  0  0
  -26.5597  -34.8908   22.4668 O   0  0  0  0  0  0
  -23.5432  -32.1342   23.7306 O   0  0  0  0  0  0
  -29.9400  -18.0144   17.6653 C   0  0  0  0  0  0
  -29.9083  -16.8726   18.4787 C   0  0  0  0  0  0
  -29.6890  -18.3232   20.4220 C   0  0  0  0  0  0
  -29.9244  -19.3153   18.2102 C   0  0  0  0  0  0
  -29.7454  -19.5276   19.6109 C   0  0  0  0  0  0
  -29.8277  -16.9884   19.8799 C   0  0  0  0  0  0
  -28.1459  -24.2797   21.1170 C   0  0  0  0  0  0
  -28.3375  -25.0884   20.0465 C   0  0  0  0  0  0
  -28.3321  -22.7929   21.0779 C   0  0  0  0  0  0
  -28.7336  -24.4834   18.7198 C   0  0  0  0  0  0
  -29.3548  -23.0554   18.8394 C   0  0  0  0  0  0
  -30.2094  -20.4220   17.2157 C   0  0  0  0  0  0
  -29.8774  -20.9653   20.2897 C   0  0  0  0  0  0
  -29.0369  -22.2323   20.0382 N   0  0  0  0  0  0
  -29.8240  -15.7505   20.6619 N   0  0  0  0  0  0
  -27.9548  -22.0832   22.0173 O   0  0  0  0  0  0
  -27.8181  -24.8383   22.2932 O   0  0  0  0  0  0
  -31.4717  -12.4912   19.1713 H   0  0  0  0  0  0
  -30.3543  -11.3884   19.9237 H   0  0  0  0  0  0
  -29.7822  -11.7430   17.4912 H   0  0  0  0  0  0
  -29.6686  -13.4634   17.7520 H   0  0  0  0  0  0
  -27.8459  -11.2992   18.8483 H   0  0  0  0  0  0
  -27.3928  -12.5936   17.7724 H   0  0  0  0  0  0
  -27.6558  -14.2538   19.5016 H   0  0  0  0  0  0
  -28.6938  -12.0862   21.3917 H   0  0  0  0  0  0
  -28.4363  -13.7564   21.8205 H   0  0  0  0  0  0
  -25.2788   -9.5700   22.4744 H   0  0  0  0  0  0
  -24.0048   -7.4650   22.7438 H   0  0  0  0  0  0
  -21.0892   -8.8805   19.8908 H   0  0  0  0  0  0
  -22.3748  -10.9713   19.6146 H   0  0  0  0  0  0
  -21.1974   -7.6136   23.9731 H   0  0  0  0  0  0
  -21.1511   -6.0505   25.9098 H   0  0  0  0  0  0
  -22.0573   -2.7613   23.2835 H   0  0  0  0  0  0
  -22.4049  -11.9919   22.4878 H   0  0  0  0  0  0
  -21.1066  -13.1245   22.2517 H   0  0  0  0  0  0
  -24.6593  -15.8497   20.4919 H   0  0  0  0  0  0
  -26.2776  -15.6293   20.0693 H   0  0  0  0  0  0
  -26.7198  -32.5421   23.1122 H   0  0  0  0  0  0
  -25.0125  -33.9688   25.0466 H   0  0  0  0  0  0
  -22.7218  -31.3004   21.3908 H   0  0  0  0  0  0
  -23.3742  -35.9637   23.3275 H   0  0  0  0  0  0
  -24.3620  -36.8953   22.2065 H   0  0  0  0  0  0
  -23.7233  -37.6495   23.6681 H   0  0  0  0  0  0
  -26.0966  -31.5335   20.5924 H   0  0  0  0  0  0
  -26.8490  -30.8310   21.9966 H   0  0  0  0  0  0
  -28.1249  -28.9788   21.1627 H   0  0  0  0  0  0
  -25.9970  -25.8960   19.0318 H   0  0  0  0  0  0
  -23.9675  -27.2723   19.0404 H   0  0  0  0  0  0
  -23.7712  -30.5787   19.4000 H   0  0  0  0  0  0
  -22.7602  -29.2386   19.8518 H   0  0  0  0  0  0
  -25.1282  -36.1942   25.0822 H   0  0  0  0  0  0
  -21.0005  -28.3257   24.1375 H   0  0  0  0  0  0
  -20.5632  -26.2287   23.3623 H   0  0  0  0  0  0
  -21.6641  -26.7376   22.1219 H   0  0  0  0  0  0
  -19.6891  -25.6261   21.1256 H   0  0  0  0  0  0
  -19.6720  -27.3155   20.6729 H   0  0  0  0  0  0
  -17.4209  -26.6700   21.3996 H   0  0  0  0  0  0
  -18.0306  -26.0072   22.8992 H   0  0  0  0  0  0
  -19.7928  -30.7264   24.2282 H   0  0  0  0  0  0
  -17.4989  -31.6259   24.5144 H   0  0  0  0  0  0
  -15.5338  -30.2940   23.7652 H   0  0  0  0  0  0
  -15.8693  -28.0791   22.7048 H   0  0  0  0  0  0
  -24.5954  -30.6989   25.7842 H   0  0  0  0  0  0
  -24.8944  -32.2806   26.4983 H   0  0  0  0  0  0
  -25.8144  -30.8840   27.0238 H   0  0  0  0  0  0
  -26.2886  -29.6756   24.1247 H   0  0  0  0  0  0
  -27.4078  -29.7267   25.4670 H   0  0  0  0  0  0
  -27.8744  -30.4303   23.9363 H   0  0  0  0  0  0
  -27.2680  -33.3574   26.2144 H   0  0  0  0  0  0
  -28.3853  -32.6910   25.0326 H   0  0  0  0  0  0
  -28.0777  -31.8409   26.5386 H   0  0  0  0  0  0
  -28.2573  -38.0118   24.7525 H   0  0  0  0  0  0
  -28.1107  -36.2656   24.6248 H   0  0  0  0  0  0
  -27.2329  -37.1406   25.8864 H   0  0  0  0  0  0
  -20.9372  -29.8811   21.6920 H   0  0  0  0  0  0
  -26.0177  -38.2833   24.1427 H   0  0  0  0  0  0
  -30.0332  -17.8817   16.5950 H   0  0  0  0  0  0
  -29.9680  -15.9018   18.0055 H   0  0  0  0  0  0
  -29.6062  -18.4269   21.4944 H   0  0  0  0  0  0
  -29.3950  -25.1505   18.1683 H   0  0  0  0  0  0
  -27.8191  -24.4174   18.1277 H   0  0  0  0  0  0
  -30.4383  -23.1389   18.7497 H   0  0  0  0  0  0
  -28.9910  -22.5284   17.9683 H   0  0  0  0  0  0
  -30.7597  -20.0433   16.3534 H   0  0  0  0  0  0
  -30.8426  -21.1921   17.6486 H   0  0  0  0  0  0
  -29.2831  -20.8319   16.8187 H   0  0  0  0  0  0
  -30.9066  -21.2686   20.0985 H   0  0  0  0  0  0
  -29.8950  -20.7664   21.3612 H   0  0  0  0  0  0
  -28.9642  -15.5656   21.1604 H   0  0  0  0  0  0
  -27.7433  -25.7719   22.1451 H   0  0  0  0  0  0
  1 25  1  0  0  0
  1 30  2  0  0  0
  1 85  1  0  0  0
  2  3  1  0  0  0
  2 25  1  0  0  0
  2 88  1  0  0  0
  2 89  1  0  0  0
  3  4  1  0  0  0
  3 90  1  0  0  0
  3 91  1  0  0  0
  4  5  1  0  0  0
  4 92  1  0  0  0
  4 93  1  0  0  0
  5  6  1  0  0  0
  5 26  1  0  0  0
  5 94  1  0  0  0
  6 25  1  0  0  0
  6 95  1  0  0  0
  6 96  1  0  0  0
  7  8  2  0  0  0
  7 26  1  0  0  0
  7 29  1  0  0  0
  8  9  1  0  0  0
  8 22  1  0  0  0
  9 10  1  0  0  0
  9 27  2  0  0  0
 10 11  2  0  0  0
 10 15  1  0  0  0
 11 12  1  0  0  0
 11 97  1  0  0  0
 12 13  2  0  0  0
 12 98  1  0  0  0
 13 14  1  0  0  0
 13 31  1  0  0  0
 14 15  2  0  0  0
 14 99  1  0  0  0
 15100  1  0  0  0
 16 17  2  0  0  0
 16 21  1  0  0  0
 16 31  1  0  0  0
 17 18  1  0  0  0
 17101  1  0  0  0
 18 19  2  0  0  0
 18102  1  0  0  0
 19 20  1  0  0  0
 19 24  1  0  0  0
 20 21  2  0  0  0
 20103  1  0  0  0
 21 23  1  0  0  0
 22 28  1  0  0  0
 22 32  2  0  0  0
 26 27  1  0  0  0
 28104  1  0  0  0
 28105  1  0  0  0
 29106  1  0  0  0
 29107  1  0  0  0
 33 34  1  0  0  0
 33 66  1  0  0  0
 33 70  2  0  0  0
 34 36  1  0  0  0
 34 59  1  0  0  0
 34108  1  0  0  0
 35 44  2  0  0  0
 35 45  1  0  0  0
 35 68  1  0  0  0
 36 56  1  0  0  0
 36109  1  0  0  0
 37 39  1  0  0  0
 37 47  1  0  0  0
 37 66  1  0  0  0
 37110  1  0  0  0
 38 43  2  0  0  0
 38 46  1  0  0  0
 38 47  1  0  0  0
 39 64  1  0  0  0
 39 67  2  0  0  0
 40 52  1  0  0  0
 40 53  2  0  0  0
 40 58  1  0  0  0
 41111  1  0  0  0
 41112  1  0  0  0
 41113  1  0  0  0
 41 48  1  0  0  0
 42 43  1  0  0  0
 42 66  1  0  0  0
 42114  1  0  0  0
 42115  1  0  0  0
 43 44  1  0  0  0
 44116  1  0  0  0
 45 46  2  0  0  0
 45117  1  0  0  0
 46118  1  0  0  0
 47119  1  0  0  0
 47120  1  0  0  0
 48 56  1  0  0  0
 48 65  1  0  0  0
 48121  1  0  0  0
 49 50  1  0  0  0
 49 53  1  0  0  0
 49 64  1  0  0  0
 49122  1  0  0  0
 50 51  1  0  0  0
 50123  1  0  0  0
 50124  1  0  0  0
 51 52  1  0  0  0
 51125  1  0  0  0
 51126  1  0  0  0
 52127  1  0  0  0
 52128  1  0  0  0
 53 54  1  0  0  0
 54 55  2  0  0  0
 54129  1  0  0  0
 55 57  1  0  0  0
 55130  1  0  0  0
 56 69  2  0  0  0
 57 58  2  0  0  0
 57131  1  0  0  0
 58132  1  0  0  0
 59 60  1  0  0  0
 59 61  1  0  0  0
 59 62  1  0  0  0
 60133  1  0  0  0
 60134  1  0  0  0
 60135  1  0  0  0
 61136  1  0  0  0
 61137  1  0  0  0
 61138  1  0  0  0
 62139  1  0  0  0
 62140  1  0  0  0
 62141  1  0  0  0
 63 65  1  0  0  0
 63142  1  0  0  0
 63143  1  0  0  0
 63144  1  0  0  0
 64145  1  0  0  0
 65146  1  0  0  0
 68 78  1  0  0  0
 71 72  2  0  0  0
 71 74  1  0  0  0
 71147  1  0  0  0
 72 76  1  0  0  0
 72148  1  0  0  0
 73 75  1  0  0  0
 73 76  2  0  0  0
 73149  1  0  0  0
 74 75  2  0  0  0
 74 82  1  0  0  0
 75 83  1  0  0  0
 76 85  1  0  0  0
 77 78  2  0  0  0
 77 79  1  0  0  0
 77 87  1  0  0  0
 78 80  1  0  0  0
 79 84  1  0  0  0
 79 86  2  0  0  0
 80 81  1  0  0  0
 80150  1  0  0  0
 80151  1  0  0  0
 81 84  1  0  0  0
 81152  1  0  0  0
 81153  1  0  0  0
 82154  1  0  0  0
 82155  1  0  0  0
 82156  1  0  0  0
 83 84  1  0  0  0
 83157  1  0  0  0
 83158  1  0  0  0
 85159  1  0  0  0
 87160  1  0  0  0
M  ISO  4   1 100  68 101  78 101  85 100
M  END
> <chiral flag>
0

> <version>
0

> <s_m_source_file>
/data/baiqing/PycharmProjects/Reinvent-master-3.2/result/LINK_invent/BTK/process_docking_weight1_custom_product_contain_oxygen_bond_distance_aromatic_linkinvent_7_9_3/rearranged_h_0054.sdf

> <i_m_source_file_index>
45

> <r_mmod_Potential_Energy-OPLS-2005>
170.056716918945

> <r_mmod_Stretch_Energy-OPLS-2005>
97.5648803710938

> <r_mmod_Bend_Energy-OPLS-2005>
168.298858642578

> <r_mmod_Torsional_Energy-OPLS-2005>
284.266448974609

> <r_mmod_Improper_Torsional_Energy-OPLS-2005>
9.88560676574707

> <r_mmod_Van_der_Waal_Energy-OPLS-2005>
157.686386108398

> <r_mmod_Electrostatic_Energy-OPLS-2005>
-358.984924316406

> <r_mmod_Solvation_Energy-OPLS-2005>
-238.970611572266

> <b_mmod_Minimization_Converged-OPLS-2005>
0

> <r_mmod_RMS_Derivative-OPLS-2005>
3.4840829372406

$$$$
45
                    3D
 Structure written by MMmdl.
166175  0  0  1  0            999 V2000
  -30.7036  -14.5282   20.5609 C   0  0  0  0  0  0
  -30.4189  -12.3429   19.4336 C   0  0  0  0  0  0
  -29.4933  -12.5035   18.2109 C   0  0  0  0  0  0
  -28.0171  -12.3555   18.6266 C   0  0  0  0  0  0
  -27.6543  -13.2161   19.8666 C   0  0  2  0  0  0
  -28.6979  -13.0468   20.9929 C   0  0  0  0  0  0
  -25.2557  -13.8182   20.5691 C   0  0  0  0  0  0
  -24.1824  -13.0443   20.9188 C   0  0  0  0  0  0
  -24.6390  -11.6914   20.8740 C   0  0  0  0  0  0
  -23.9062  -10.4295   21.0405 C   0  0  0  0  0  0
  -24.3613   -9.4210   21.9185 C   0  0  0  0  0  0
  -23.6290   -8.2245   22.0756 C   0  0  0  0  0  0
  -22.4273   -8.0280   21.3544 C   0  0  0  0  0  0
  -21.9907   -9.0254   20.4646 C   0  0  0  0  0  0
  -22.7234  -10.2134   20.3055 C   0  0  0  0  0  0
  -21.6852   -6.0735   22.5277 C   0  0  0  0  0  0
  -21.4014   -6.5639   23.8211 C   0  0  0  0  0  0
  -21.3659   -5.6793   24.9174 C   0  0  0  0  0  0
  -21.6045   -4.3055   24.7226 C   0  0  0  0  0  0
  -21.8819   -3.8147   23.4347 C   0  0  0  0  0  0
  -21.9192   -4.6963   22.3401 C   0  0  0  0  0  0
  -22.7846  -13.5232   21.1849 C   0  0  0  0  0  0
  -22.1661   -4.2149   21.0979 F   0  0  0  0  0  0
  -21.5628   -3.4539   25.7739 F   0  0  0  0  0  0
  -30.0196  -13.3554   20.4275 N   0  0  0  0  0  0
  -26.2990  -12.9366   20.3343 N   0  0  0  0  0  0
  -25.9318  -11.6516   20.5766 N   0  0  0  0  0  0
  -22.0490  -12.8223   22.0407 N   0  0  0  0  0  0
  -25.4278  -15.1902   20.4109 N   0  0  0  0  0  0
  -31.8453  -14.6678   20.1156 O   0  0  0  0  0  0
  -21.6637   -6.8876   21.4239 O   0  0  0  0  0  0
  -22.3529  -14.5539   20.6698 O   0  0  0  0  0  0
  -24.6194  -31.8647   23.2069 C   0  0  0  0  0  0
  -25.9070  -32.4802   23.8379 C   0  0  1  0  0  0
  -27.2250  -27.3837   20.1058 C   0  0  0  0  0  0
  -25.5912  -33.8603   24.2308 N   0  0  0  0  0  0
  -23.4087  -30.4891   21.5490 C   0  0  2  0  0  0
  -24.8533  -28.9511   20.1129 C   0  0  0  0  0  0
  -22.7436  -29.4646   22.4972 C   0  0  0  0  0  0
  -18.0279  -28.1374   22.8489 C   0  0  0  0  0  0
  -24.1485  -36.7302   23.2640 C   0  0  0  0  0  0
  -25.9436  -30.8160   21.3669 C   0  0  0  0  0  0
  -26.0187  -29.4488   20.7090 C   0  0  0  0  0  0
  -27.2091  -28.6765   20.6941 C   0  0  0  0  0  0
  -26.0379  -26.9174   19.4972 C   0  0  0  0  0  0
  -24.8610  -27.6877   19.5006 C   0  0  0  0  0  0
  -23.6184  -29.8239   20.1635 C   0  0  0  0  0  0
  -25.4109  -36.3099   24.0336 C   0  0  1  0  0  0
  -20.5873  -28.3669   23.1304 C   0  0  2  0  0  0
  -20.6769  -26.9400   22.5413 C   0  0  0  0  0  0
  -19.5748  -26.6382   21.5211 C   0  0  0  0  0  0
  -18.1925  -26.7922   22.1615 C   0  0  0  0  0  0
  -19.1529  -28.8839   23.2891 C   0  0  0  0  0  0
  -18.9458  -30.1446   23.8898 C   0  0  0  0  0  0
  -17.6460  -30.6581   24.0565 C   0  0  0  0  0  0
  -25.9041  -34.9465   23.5119 C   0  0  0  0  0  0
  -16.5350  -29.9082   23.6331 C   0  0  0  0  0  0
  -16.7269  -28.6499   23.0349 C   0  0  0  0  0  0
  -26.4480  -31.6598   25.0727 C   0  0  0  0  0  0
  -25.3732  -31.3716   26.1468 C   0  0  0  0  0  0
  -27.0324  -30.3036   24.6135 C   0  0  0  0  0  0
  -27.6049  -32.4327   25.7488 C   0  0  0  0  0  0
  -27.5580  -37.1805   24.8466 C   0  0  0  0  0  0
  -21.4159  -29.3033   22.3709 N   0  0  0  0  0  0
  -26.4293  -37.3786   23.9410 N   0  0  0  0  0  0
  -24.6757  -31.0716   22.0985 N   0  0  0  0  0  0
  -23.4193  -28.8189   23.3027 O   0  0  0  0  0  0
  -28.3744  -26.6020   20.1346 O   0  0  0  0  0  0
  -26.5605  -34.8922   22.4682 O   0  0  0  0  0  0
  -23.5377  -32.1421   23.7438 O   0  0  0  0  0  0
  -28.8197  -18.6612   21.4330 C   0  0  0  0  0  0
  -30.9293  -19.1057   20.3439 C   0  0  0  0  0  0
  -30.1010  -18.2041   21.0506 C   0  0  0  0  0  0
  -28.3991  -19.9948   21.1676 C   0  0  0  0  0  0
  -30.5253  -20.4389   20.0737 C   0  0  0  0  0  0
  -29.2570  -20.9183   20.5003 C   0  0  0  0  0  0
  -28.4499  -22.8401   19.0936 C   0  0  0  0  0  0
  -28.0521  -22.0742   18.0619 C   0  0  0  0  0  0
  -28.4218  -24.3782   18.9629 C   0  0  0  0  0  0
  -29.2504  -24.5971   21.2803 C   0  0  0  0  0  0
  -29.0193  -23.0873   21.5354 C   0  0  0  0  0  0
  -28.2243  -25.1568   20.2849 C   0  0  1  0  0  0
  -27.0118  -20.4126   21.6256 C   0  0  0  0  0  0
  -31.4916  -21.3619   19.3490 C   0  0  0  0  0  0
  -30.6737  -16.8489   21.5344 C   0  0  0  0  0  0
  -28.9015  -22.2885   20.3055 N   0  0  0  0  0  0
  -30.0427  -15.5755   21.1114 N   0  0  0  0  0  0
  -31.4630  -12.4387   19.1307 H   0  0  0  0  0  0
  -30.3253  -11.3424   19.8590 H   0  0  0  0  0  0
  -29.7428  -11.7638   17.4488 H   0  0  0  0  0  0
  -29.6511  -13.4812   17.7531 H   0  0  0  0  0  0
  -27.8411  -11.3015   18.8447 H   0  0  0  0  0  0
  -27.3626  -12.6048   17.7908 H   0  0  0  0  0  0
  -27.6838  -14.2567   19.5424 H   0  0  0  0  0  0
  -28.6888  -12.0243   21.3731 H   0  0  0  0  0  0
  -28.4548  -13.6812   21.8463 H   0  0  0  0  0  0
  -25.2758   -9.5688   22.4759 H   0  0  0  0  0  0
  -24.0001   -7.4638   22.7476 H   0  0  0  0  0  0
  -21.0839   -8.8768   19.8953 H   0  0  0  0  0  0
  -22.3690  -10.9671   19.6163 H   0  0  0  0  0  0
  -21.2008   -7.6149   23.9715 H   0  0  0  0  0  0
  -21.1480   -6.0523   25.9077 H   0  0  0  0  0  0
  -22.0599   -2.7609   23.2847 H   0  0  0  0  0  0
  -22.4106  -11.9880   22.4786 H   0  0  0  0  0  0
  -21.1110  -13.1250   22.2618 H   0  0  0  0  0  0
  -24.6623  -15.8465   20.5192 H   0  0  0  0  0  0
  -26.2812  -15.6283   20.0877 H   0  0  0  0  0  0
  -26.7139  -32.5494   23.1137 H   0  0  0  0  0  0
  -25.0081  -33.9762   25.0466 H   0  0  0  0  0  0
  -22.6992  -31.3073   21.4096 H   0  0  0  0  0  0
  -23.3747  -35.9634   23.3313 H   0  0  0  0  0  0
  -24.3573  -36.8912   22.2052 H   0  0  0  0  0  0
  -23.7243  -37.6510   23.6653 H   0  0  0  0  0  0
  -26.0656  -31.5826   20.6006 H   0  0  0  0  0  0
  -26.8276  -30.8642   21.9910 H   0  0  0  0  0  0
  -28.1076  -29.0565   21.1602 H   0  0  0  0  0  0
  -26.0011  -25.9497   19.0209 H   0  0  0  0  0  0
  -23.9660  -27.2992   19.0347 H   0  0  0  0  0  0
  -23.7307  -30.6002   19.4057 H   0  0  0  0  0  0
  -22.7399  -29.2484   19.8655 H   0  0  0  0  0  0
  -25.1285  -36.1959   25.0829 H   0  0  0  0  0  0
  -20.9963  -28.3238   24.1424 H   0  0  0  0  0  0
  -20.5669  -26.2277   23.3605 H   0  0  0  0  0  0
  -21.6641  -26.7436   22.1213 H   0  0  0  0  0  0
  -19.6912  -25.6292   21.1236 H   0  0  0  0  0  0
  -19.6690  -27.3191   20.6739 H   0  0  0  0  0  0
  -17.4200  -26.6681   21.4010 H   0  0  0  0  0  0
  -18.0317  -26.0053   22.9000 H   0  0  0  0  0  0
  -19.7936  -30.7262   24.2264 H   0  0  0  0  0  0
  -17.5017  -31.6261   24.5164 H   0  0  0  0  0  0
  -15.5352  -30.2985   23.7652 H   0  0  0  0  0  0
  -15.8670  -28.0824   22.7055 H   0  0  0  0  0  0
  -24.5920  -30.7040   25.7817 H   0  0  0  0  0  0
  -24.8897  -32.2868   26.4891 H   0  0  0  0  0  0
  -25.8079  -30.8918   27.0246 H   0  0  0  0  0  0
  -26.2884  -29.6785   24.1184 H   0  0  0  0  0  0
  -27.4084  -29.7288   25.4612 H   0  0  0  0  0  0
  -27.8719  -30.4355   23.9305 H   0  0  0  0  0  0
  -27.2676  -33.3640   26.2051 H   0  0  0  0  0  0
  -28.3860  -32.6869   25.0309 H   0  0  0  0  0  0
  -28.0712  -31.8458   26.5413 H   0  0  0  0  0  0
  -28.2606  -38.0095   24.7513 H   0  0  0  0  0  0
  -28.1071  -36.2630   24.6296 H   0  0  0  0  0  0
  -27.2299  -37.1466   25.8870 H   0  0  0  0  0  0
  -20.9323  -29.8766   21.6937 H   0  0  0  0  0  0
  -26.0181  -38.2865   24.1405 H   0  0  0  0  0  0
  -28.1694  -17.9959   21.9842 H   0  0  0  0  0  0
  -31.9186  -18.7855   20.0471 H   0  0  0  0  0  0
  -27.7121  -22.5180   17.1368 H   0  0  0  0  0  0
  -28.0538  -20.9944   18.1115 H   0  0  0  0  0  0
  -27.6391  -24.6583   18.2582 H   0  0  0  0  0  0
  -29.3594  -24.6846   18.4971 H   0  0  0  0  0  0
  -30.2602  -24.7583   20.9005 H   0  0  0  0  0  0
  -29.1870  -25.1372   22.2251 H   0  0  0  0  0  0
  -28.1024  -22.9671   22.1122 H   0  0  0  0  0  0
  -29.8273  -22.6999   22.1582 H   0  0  0  0  0  0
  -27.2392  -24.9232   20.6930 H   0  0  0  0  0  0
  -26.3557  -19.5479   21.7291 H   0  0  0  0  0  0
  -26.5478  -21.0909   20.9091 H   0  0  0  0  0  0
  -27.0652  -20.9127   22.5923 H   0  0  0  0  0  0
  -32.4586  -20.8871   19.1837 H   0  0  0  0  0  0
  -31.6595  -22.2711   19.9267 H   0  0  0  0  0  0
  -31.0857  -21.6454   18.3777 H   0  0  0  0  0  0
  -30.6285  -16.8646   22.6241 H   0  0  0  0  0  0
  -31.7424  -16.8361   21.3138 H   0  0  0  0  0  0
  -29.0913  -15.4133   21.4033 H   0  0  0  0  0  0
  1 25  1  0  0  0
  1 30  2  0  0  0
  1 87  1  0  0  0
  2  3  1  0  0  0
  2 25  1  0  0  0
  2 88  1  0  0  0
  2 89  1  0  0  0
  3  4  1  0  0  0
  3 90  1  0  0  0
  3 91  1  0  0  0
  4  5  1  0  0  0
  4 92  1  0  0  0
  4 93  1  0  0  0
  5  6  1  0  0  0
  5 26  1  0  0  0
  5 94  1  0  0  0
  6 25  1  0  0  0
  6 95  1  0  0  0
  6 96  1  0  0  0
  7  8  2  0  0  0
  7 26  1  0  0  0
  7 29  1  0  0  0
  8  9  1  0  0  0
  8 22  1  0  0  0
  9 10  1  0  0  0
  9 27  2  0  0  0
 10 11  2  0  0  0
 10 15  1  0  0  0
 11 12  1  0  0  0
 11 97  1  0  0  0
 12 13  2  0  0  0
 12 98  1  0  0  0
 13 14  1  0  0  0
 13 31  1  0  0  0
 14 15  2  0  0  0
 14 99  1  0  0  0
 15100  1  0  0  0
 16 17  2  0  0  0
 16 21  1  0  0  0
 16 31  1  0  0  0
 17 18  1  0  0  0
 17101  1  0  0  0
 18 19  2  0  0  0
 18102  1  0  0  0
 19 20  1  0  0  0
 19 24  1  0  0  0
 20 21  2  0  0  0
 20103  1  0  0  0
 21 23  1  0  0  0
 22 28  1  0  0  0
 22 32  2  0  0  0
 26 27  1  0  0  0
 28104  1  0  0  0
 28105  1  0  0  0
 29106  1  0  0  0
 29107  1  0  0  0
 33 34  1  0  0  0
 33 66  1  0  0  0
 33 70  2  0  0  0
 34 36  1  0  0  0
 34 59  1  0  0  0
 34108  1  0  0  0
 35 44  2  0  0  0
 35 45  1  0  0  0
 35 68  1  0  0  0
 36 56  1  0  0  0
 36109  1  0  0  0
 37 39  1  0  0  0
 37 47  1  0  0  0
 37 66  1  0  0  0
 37110  1  0  0  0
 38 43  2  0  0  0
 38 46  1  0  0  0
 38 47  1  0  0  0
 39 64  1  0  0  0
 39 67  2  0  0  0
 40 52  1  0  0  0
 40 53  2  0  0  0
 40 58  1  0  0  0
 41111  1  0  0  0
 41112  1  0  0  0
 41113  1  0  0  0
 41 48  1  0  0  0
 42 43  1  0  0  0
 42 66  1  0  0  0
 42114  1  0  0  0
 42115  1  0  0  0
 43 44  1  0  0  0
 44116  1  0  0  0
 45 46  2  0  0  0
 45117  1  0  0  0
 46118  1  0  0  0
 47119  1  0  0  0
 47120  1  0  0  0
 48 56  1  0  0  0
 48 65  1  0  0  0
 48121  1  0  0  0
 49 50  1  0  0  0
 49 53  1  0  0  0
 49 64  1  0  0  0
 49122  1  0  0  0
 50 51  1  0  0  0
 50123  1  0  0  0
 50124  1  0  0  0
 51 52  1  0  0  0
 51125  1  0  0  0
 51126  1  0  0  0
 52127  1  0  0  0
 52128  1  0  0  0
 53 54  1  0  0  0
 54 55  2  0  0  0
 54129  1  0  0  0
 55 57  1  0  0  0
 55130  1  0  0  0
 56 69  2  0  0  0
 57 58  2  0  0  0
 57131  1  0  0  0
 58132  1  0  0  0
 59 60  1  0  0  0
 59 61  1  0  0  0
 59 62  1  0  0  0
 60133  1  0  0  0
 60134  1  0  0  0
 60135  1  0  0  0
 61136  1  0  0  0
 61137  1  0  0  0
 61138  1  0  0  0
 62139  1  0  0  0
 62140  1  0  0  0
 62141  1  0  0  0
 63 65  1  0  0  0
 63142  1  0  0  0
 63143  1  0  0  0
 63144  1  0  0  0
 64145  1  0  0  0
 65146  1  0  0  0
 68 82  1  0  0  0
 71 73  2  0  0  0
 71 74  1  0  0  0
 71147  1  0  0  0
 72 73  1  0  0  0
 72 75  2  0  0  0
 72148  1  0  0  0
 73 85  1  0  0  0
 74 76  2  0  0  0
 74 83  1  0  0  0
 75 76  1  0  0  0
 75 84  1  0  0  0
 76 86  1  0  0  0
 77 78  2  0  0  0
 77 79  1  0  0  0
 77 86  1  0  0  0
 78149  1  0  0  0
 78150  1  0  0  0
 79 82  1  0  0  0
 79151  1  0  0  0
 79152  1  0  0  0
 80 81  1  0  0  0
 80 82  1  0  0  0
 80153  1  0  0  0
 80154  1  0  0  0
 81 86  1  0  0  0
 81155  1  0  0  0
 81156  1  0  0  0
 82157  1  0  0  0
 83158  1  0  0  0
 83159  1  0  0  0
 83160  1  0  0  0
 84161  1  0  0  0
 84162  1  0  0  0
 84163  1  0  0  0
 85 87  1  0  0  0
 85164  1  0  0  0
 85165  1  0  0  0
 87166  1  0  0  0
M  ISO  4   1 100  68 101  82 101  87 100
M  END
> <chiral flag>
0

> <version>
0

> <s_m_source_file>
/data/baiqing/PycharmProjects/Reinvent-master-3.2/result/LINK_invent/BTK/process_docking_weight1_custom_product_contain_oxygen_bond_distance_aromatic_linkinvent_7_9_3/rearranged_h_0054.sdf

> <i_m_source_file_index>
46

> <r_mmod_Potential_Energy-OPLS-2005>
-73.9893264770508

> <r_mmod_Stretch_Energy-OPLS-2005>
52.1678428649902

> <r_mmod_Bend_Energy-OPLS-2005>
109.680213928223

> <r_mmod_Torsional_Energy-OPLS-2005>
251.074188232422

> <r_mmod_Improper_Torsional_Energy-OPLS-2005>
3.51064109802246

> <r_mmod_Van_der_Waal_Energy-OPLS-2005>
155.264068603516

> <r_mmod_Electrostatic_Energy-OPLS-2005>
-466.931610107422

> <r_mmod_Solvation_Energy-OPLS-2005>
-201.569107055664

> <b_mmod_Minimization_Converged-OPLS-2005>
0

> <r_mmod_RMS_Derivative-OPLS-2005>
0.53382533788681

$$$$
46
                    3D
 Structure written by MMmdl.
160168  0  0  1  0            999 V2000
  -30.6432  -14.7782   20.4585 C   0  0  0  0  0  0
  -30.4151  -12.5008   19.4406 C   0  0  0  0  0  0
  -29.4852  -12.5091   18.2075 C   0  0  0  0  0  0
  -28.0121  -12.3385   18.6293 C   0  0  0  0  0  0
  -27.6273  -13.2389   19.8311 C   0  0  2  0  0  0
  -28.6787  -13.1906   20.9557 C   0  0  0  0  0  0
  -25.2507  -13.8212   20.5815 C   0  0  0  0  0  0
  -24.1755  -13.0438   20.9239 C   0  0  0  0  0  0
  -24.6341  -11.6936   20.8725 C   0  0  0  0  0  0
  -23.9008  -10.4293   21.0390 C   0  0  0  0  0  0
  -24.3555   -9.4208   21.9164 C   0  0  0  0  0  0
  -23.6269   -8.2224   22.0724 C   0  0  0  0  0  0
  -22.4266   -8.0240   21.3499 C   0  0  0  0  0  0
  -21.9870   -9.0210   20.4606 C   0  0  0  0  0  0
  -22.7182  -10.2111   20.3030 C   0  0  0  0  0  0
  -21.6825   -6.0709   22.5266 C   0  0  0  0  0  0
  -21.4018   -6.5627   23.8197 C   0  0  0  0  0  0
  -21.3683   -5.6783   24.9158 C   0  0  0  0  0  0
  -21.6079   -4.3051   24.7195 C   0  0  0  0  0  0
  -21.8803   -3.8125   23.4321 C   0  0  0  0  0  0
  -21.9171   -4.6938   22.3384 C   0  0  0  0  0  0
  -22.7790  -13.5237   21.1881 C   0  0  0  0  0  0
  -22.1637   -4.2156   21.0946 F   0  0  0  0  0  0
  -21.5626   -3.4507   25.7694 F   0  0  0  0  0  0
  -29.9574  -13.5798   20.3549 N   0  0  0  0  0  0
  -26.2873  -12.9401   20.3250 N   0  0  0  0  0  0
  -25.9265  -11.6544   20.5705 N   0  0  0  0  0  0
  -22.0383  -12.8230   22.0401 N   0  0  0  0  0  0
  -25.4269  -15.1943   20.4431 N   0  0  0  0  0  0
  -31.8592  -14.7748   20.2593 O   0  0  0  0  0  0
  -21.6616   -6.8854   21.4242 O   0  0  0  0  0  0
  -22.3517  -14.5527   20.6730 O   0  0  0  0  0  0
  -24.6242  -31.8603   23.2055 C   0  0  0  0  0  0
  -25.9122  -32.4759   23.8337 C   0  0  1  0  0  0
  -27.1972  -27.2917   20.0931 C   0  0  0  0  0  0
  -25.6014  -33.8557   24.2306 N   0  0  0  0  0  0
  -23.4136  -30.4961   21.5461 C   0  0  2  0  0  0
  -24.8574  -28.9568   20.0902 C   0  0  0  0  0  0
  -22.7412  -29.4683   22.4895 C   0  0  0  0  0  0
  -18.0301  -28.1354   22.8525 C   0  0  0  0  0  0
  -24.1518  -36.7286   23.2633 C   0  0  0  0  0  0
  -25.9578  -30.7785   21.3819 C   0  0  0  0  0  0
  -26.0218  -29.4054   20.7190 C   0  0  0  0  0  0
  -27.1905  -28.5830   20.7200 C   0  0  0  0  0  0
  -26.0130  -26.9110   19.4228 C   0  0  0  0  0  0
  -24.8604  -27.7200   19.4259 C   0  0  0  0  0  0
  -23.6284  -29.8465   20.1534 C   0  0  0  0  0  0
  -25.4136  -36.3073   24.0336 C   0  0  1  0  0  0
  -20.5908  -28.3679   23.1287 C   0  0  2  0  0  0
  -20.6819  -26.9415   22.5390 C   0  0  0  0  0  0
  -19.5794  -26.6411   21.5192 C   0  0  0  0  0  0
  -18.1974  -26.7942   22.1602 C   0  0  0  0  0  0
  -19.1543  -28.8832   23.2938 C   0  0  0  0  0  0
  -18.9475  -30.1447   23.8938 C   0  0  0  0  0  0
  -17.6472  -30.6587   24.0585 C   0  0  0  0  0  0
  -25.9070  -34.9433   23.5100 C   0  0  0  0  0  0
  -16.5367  -29.9089   23.6343 C   0  0  0  0  0  0
  -16.7292  -28.6493   23.0403 C   0  0  0  0  0  0
  -26.4571  -31.6509   25.0636 C   0  0  0  0  0  0
  -25.3848  -31.3568   26.1393 C   0  0  0  0  0  0
  -27.0457  -30.2958   24.6005 C   0  0  0  0  0  0
  -27.6178  -32.4189   25.7408 C   0  0  0  0  0  0
  -27.5604  -37.1802   24.8470 C   0  0  0  0  0  0
  -21.4134  -29.3036   22.3617 N   0  0  0  0  0  0
  -26.4318  -37.3770   23.9434 N   0  0  0  0  0  0
  -24.6840  -31.0607   22.1023 N   0  0  0  0  0  0
  -23.4189  -28.8224   23.2963 O   0  0  0  0  0  0
  -28.3126  -26.4284   20.1561 O   0  0  0  0  0  0
  -26.5562  -34.8918   22.4610 O   0  0  0  0  0  0
  -23.5417  -32.1411   23.7408 O   0  0  0  0  0  0
  -28.1627  -17.3212   23.2437 C   0  0  0  0  0  0
  -28.9356  -16.5313   22.3912 C   0  0  0  0  0  0
  -29.0645  -18.4273   20.8398 C   0  0  0  0  0  0
  -27.8445  -18.6648   22.9501 C   0  0  0  0  0  0
  -29.3496  -17.0051   21.1413 C   0  0  0  0  0  0
  -28.3254  -19.3117   21.7490 C   0  0  0  0  0  0
  -26.9670  -19.3125   24.0345 C   0  0  0  0  0  0
  -26.5478  -24.0776   21.3698 C   0  0  0  0  0  0
  -28.9139  -21.8557   23.0433 C   0  0  0  0  0  0
  -28.2936  -24.9770   19.7556 C   0  0  0  0  0  0
  -27.9921  -23.8449   20.8652 C   0  0  2  0  0  0
  -28.2620  -22.3364   20.5282 N   0  0  0  0  0  0
  -30.0125  -16.0105   20.2570 N   0  0  0  0  0  0
  -26.4694  -21.2648   22.0859 O   0  0  0  0  0  0
  -27.8772  -21.2254   21.6618 S   0  0  1  0  0  0
  -31.4432  -12.6517   19.1108 H   0  0  0  0  0  0
  -30.3892  -11.5312   19.9345 H   0  0  0  0  0  0
  -29.7636  -11.7174   17.5090 H   0  0  0  0  0  0
  -29.6086  -13.4487   17.6676 H   0  0  0  0  0  0
  -27.8628  -11.2869   18.8785 H   0  0  0  0  0  0
  -27.3460  -12.5442   17.7900 H   0  0  0  0  0  0
  -27.6075  -14.2621   19.4534 H   0  0  0  0  0  0
  -28.7454  -12.1887   21.3875 H   0  0  0  0  0  0
  -28.3883  -13.8550   21.7631 H   0  0  0  0  0  0
  -25.2680   -9.5712   22.4750 H   0  0  0  0  0  0
  -23.9950   -7.4638   22.7468 H   0  0  0  0  0  0
  -21.0780   -8.8703   19.8943 H   0  0  0  0  0  0
  -22.3576  -10.9626   19.6140 H   0  0  0  0  0  0
  -21.2021   -7.6140   23.9700 H   0  0  0  0  0  0
  -21.1545   -6.0507   25.9074 H   0  0  0  0  0  0
  -22.0566   -2.7593   23.2779 H   0  0  0  0  0  0
  -22.3971  -11.9933   22.4879 H   0  0  0  0  0  0
  -21.0991  -13.1283   22.2465 H   0  0  0  0  0  0
  -24.6941  -15.8573   20.6619 H   0  0  0  0  0  0
  -26.3038  -15.6413   20.2048 H   0  0  0  0  0  0
  -26.7164  -32.5444   23.1068 H   0  0  0  0  0  0
  -25.0350  -33.9705   25.0591 H   0  0  0  0  0  0
  -22.7037  -31.3188   21.4200 H   0  0  0  0  0  0
  -23.3768  -35.9628   23.3240 H   0  0  0  0  0  0
  -24.3639  -36.8926   22.2055 H   0  0  0  0  0  0
  -23.7260  -37.6475   23.6669 H   0  0  0  0  0  0
  -26.0861  -31.5410   20.6139 H   0  0  0  0  0  0
  -26.8366  -30.8291   22.0079 H   0  0  0  0  0  0
  -28.0762  -28.9229   21.2359 H   0  0  0  0  0  0
  -25.9426  -25.9700   18.8953 H   0  0  0  0  0  0
  -23.9757  -27.3873   18.9014 H   0  0  0  0  0  0
  -23.7501  -30.6381   19.4120 H   0  0  0  0  0  0
  -22.7400  -29.2943   19.8412 H   0  0  0  0  0  0
  -25.1305  -36.1917   25.0826 H   0  0  0  0  0  0
  -21.0075  -28.3278   24.1371 H   0  0  0  0  0  0
  -20.5776  -26.2258   23.3555 H   0  0  0  0  0  0
  -21.6696  -26.7497   22.1135 H   0  0  0  0  0  0
  -19.6945  -25.6327   21.1199 H   0  0  0  0  0  0
  -19.6761  -27.3247   20.6743 H   0  0  0  0  0  0
  -17.4264  -26.6773   21.3968 H   0  0  0  0  0  0
  -18.0357  -26.0015   22.8912 H   0  0  0  0  0  0
  -19.7942  -30.7290   24.2308 H   0  0  0  0  0  0
  -17.5014  -31.6271   24.5169 H   0  0  0  0  0  0
  -15.5367  -30.3007   23.7616 H   0  0  0  0  0  0
  -15.8699  -28.0796   22.7117 H   0  0  0  0  0  0
  -24.6120  -30.6807   25.7707 H   0  0  0  0  0  0
  -24.8955  -32.2700   26.4774 H   0  0  0  0  0  0
  -25.8260  -30.8793   27.0157 H   0  0  0  0  0  0
  -26.2977  -29.6585   24.1256 H   0  0  0  0  0  0
  -27.4495  -29.7310   25.4416 H   0  0  0  0  0  0
  -27.8717  -30.4288   23.9008 H   0  0  0  0  0  0
  -27.2882  -33.3551   26.1918 H   0  0  0  0  0  0
  -28.4065  -32.6569   25.0256 H   0  0  0  0  0  0
  -28.0752  -31.8278   26.5352 H   0  0  0  0  0  0
  -28.2592  -38.0121   24.7556 H   0  0  0  0  0  0
  -28.1143  -36.2657   24.6275 H   0  0  0  0  0  0
  -27.2339  -37.1411   25.8873 H   0  0  0  0  0  0
  -20.9218  -29.8665   21.6795 H   0  0  0  0  0  0
  -26.0163  -38.2845   24.1418 H   0  0  0  0  0  0
  -27.8077  -16.8596   24.1539 H   0  0  0  0  0  0
  -29.1827  -15.5371   22.7290 H   0  0  0  0  0  0
  -29.4088  -18.8471   19.9023 H   0  0  0  0  0  0
  -26.9396  -18.7047   24.9384 H   0  0  0  0  0  0
  -25.9330  -19.4361   23.7115 H   0  0  0  0  0  0
  -27.3001  -20.2813   24.3822 H   0  0  0  0  0  0
  -26.2697  -25.1279   21.3490 H   0  0  0  0  0  0
  -26.4286  -23.7964   22.4137 H   0  0  0  0  0  0
  -25.8071  -23.5429   20.7751 H   0  0  0  0  0  0
  -29.9081  -22.0633   22.6559 H   0  0  0  0  0  0
  -29.0580  -21.1047   23.8110 H   0  0  0  0  0  0
  -28.4769  -22.7502   23.4822 H   0  0  0  0  0  0
  -27.6868  -24.8178   18.8657 H   0  0  0  0  0  0
  -29.3034  -24.7854   19.3907 H   0  0  0  0  0  0
  -28.6524  -24.1451   21.6800 H   0  0  0  0  0  0
  -30.6004  -16.5073   19.5990 H   0  0  0  0  0  0
  1 25  1  0  0  0
  1 30  2  0  0  0
  1 83  1  0  0  0
  2  3  1  0  0  0
  2 25  1  0  0  0
  2 86  1  0  0  0
  2 87  1  0  0  0
  3  4  1  0  0  0
  3 88  1  0  0  0
  3 89  1  0  0  0
  4  5  1  0  0  0
  4 90  1  0  0  0
  4 91  1  0  0  0
  5  6  1  0  0  0
  5 26  1  0  0  0
  5 92  1  0  0  0
  6 25  1  0  0  0
  6 93  1  0  0  0
  6 94  1  0  0  0
  7  8  2  0  0  0
  7 26  1  0  0  0
  7 29  1  0  0  0
  8  9  1  0  0  0
  8 22  1  0  0  0
  9 10  1  0  0  0
  9 27  2  0  0  0
 10 11  2  0  0  0
 10 15  1  0  0  0
 11 12  1  0  0  0
 11 95  1  0  0  0
 12 13  2  0  0  0
 12 96  1  0  0  0
 13 14  1  0  0  0
 13 31  1  0  0  0
 14 15  2  0  0  0
 14 97  1  0  0  0
 15 98  1  0  0  0
 16 17  2  0  0  0
 16 21  1  0  0  0
 16 31  1  0  0  0
 17 18  1  0  0  0
 17 99  1  0  0  0
 18 19  2  0  0  0
 18100  1  0  0  0
 19 20  1  0  0  0
 19 24  1  0  0  0
 20 21  2  0  0  0
 20101  1  0  0  0
 21 23  1  0  0  0
 22 28  1  0  0  0
 22 32  2  0  0  0
 26 27  1  0  0  0
 28102  1  0  0  0
 28103  1  0  0  0
 29104  1  0  0  0
 29105  1  0  0  0
 33 34  1  0  0  0
 33 66  1  0  0  0
 33 70  2  0  0  0
 34 36  1  0  0  0
 34 59  1  0  0  0
 34106  1  0  0  0
 35 44  2  0  0  0
 35 45  1  0  0  0
 35 68  1  0  0  0
 36 56  1  0  0  0
 36107  1  0  0  0
 37 39  1  0  0  0
 37 47  1  0  0  0
 37 66  1  0  0  0
 37108  1  0  0  0
 38 43  2  0  0  0
 38 46  1  0  0  0
 38 47  1  0  0  0
 39 64  1  0  0  0
 39 67  2  0  0  0
 40 52  1  0  0  0
 40 53  2  0  0  0
 40 58  1  0  0  0
 41109  1  0  0  0
 41110  1  0  0  0
 41111  1  0  0  0
 41 48  1  0  0  0
 42 43  1  0  0  0
 42 66  1  0  0  0
 42112  1  0  0  0
 42113  1  0  0  0
 43 44  1  0  0  0
 44114  1  0  0  0
 45 46  2  0  0  0
 45115  1  0  0  0
 46116  1  0  0  0
 47117  1  0  0  0
 47118  1  0  0  0
 48 56  1  0  0  0
 48 65  1  0  0  0
 48119  1  0  0  0
 49 50  1  0  0  0
 49 53  1  0  0  0
 49 64  1  0  0  0
 49120  1  0  0  0
 50 51  1  0  0  0
 50121  1  0  0  0
 50122  1  0  0  0
 51 52  1  0  0  0
 51123  1  0  0  0
 51124  1  0  0  0
 52125  1  0  0  0
 52126  1  0  0  0
 53 54  1  0  0  0
 54 55  2  0  0  0
 54127  1  0  0  0
 55 57  1  0  0  0
 55128  1  0  0  0
 56 69  2  0  0  0
 57 58  2  0  0  0
 57129  1  0  0  0
 58130  1  0  0  0
 59 60  1  0  0  0
 59 61  1  0  0  0
 59 62  1  0  0  0
 60131  1  0  0  0
 60132  1  0  0  0
 60133  1  0  0  0
 61134  1  0  0  0
 61135  1  0  0  0
 61136  1  0  0  0
 62137  1  0  0  0
 62138  1  0  0  0
 62139  1  0  0  0
 63 65  1  0  0  0
 63140  1  0  0  0
 63141  1  0  0  0
 63142  1  0  0  0
 64143  1  0  0  0
 65144  1  0  0  0
 68 80  1  0  0  0
 71 72  2  0  0  0
 71 74  1  0  0  0
 71145  1  0  0  0
 72 75  1  0  0  0
 72146  1  0  0  0
 73 75  2  0  0  0
 73 76  1  0  0  0
 73147  1  0  0  0
 74 76  2  0  0  0
 74 77  1  0  0  0
 75 83  1  0  0  0
 76 85  1  0  0  0
 77148  1  0  0  0
 77149  1  0  0  0
 77150  1  0  0  0
 78151  1  0  0  0
 78152  1  0  0  0
 78153  1  0  0  0
 78 81  1  0  0  0
 79154  1  0  0  0
 79155  1  0  0  0
 79156  1  0  0  0
 79 85  1  0  0  0
 80 81  1  0  0  0
 80157  1  0  0  0
 80158  1  0  0  0
 81 82  1  0  0  0
 81159  1  0  0  0
 82 85  2  0  0  0
 83160  1  0  0  0
 84 85  2  0  0  0
M  ISO  4   1 100  68 101  80 101  83 100
M  END
> <chiral flag>
0

> <version>
0

> <s_m_source_file>
/data/baiqing/PycharmProjects/Reinvent-master-3.2/result/LINK_invent/BTK/process_docking_weight1_custom_product_contain_oxygen_bond_distance_aromatic_linkinvent_7_9_3/rearranged_h_0054.sdf

> <i_m_source_file_index>
47

> <r_mmod_Potential_Energy-OPLS-2005>
280.845794677734

> <r_mmod_Stretch_Energy-OPLS-2005>
170.067581176758

> <r_mmod_Bend_Energy-OPLS-2005>
291.270233154297

> <r_mmod_Torsional_Energy-OPLS-2005>
254.362396240234

> <r_mmod_Improper_Torsional_Energy-OPLS-2005>
20.4714469909668

> <r_mmod_Van_der_Waal_Energy-OPLS-2005>
152.036270141602

> <r_mmod_Electrostatic_Energy-OPLS-2005>
-467.175933837891

> <r_mmod_Solvation_Energy-OPLS-2005>
-230.804733276367

> <b_mmod_Minimization_Converged-OPLS-2005>
0

> <r_mmod_RMS_Derivative-OPLS-2005>
7.98167324066162

$$$$
47
                    3D
 Structure written by MMmdl.
158166  0  0  1  0            999 V2000
  -30.7023  -14.5162   20.4908 C   0  0  0  0  0  0
  -30.4147  -12.3150   19.4420 C   0  0  0  0  0  0
  -29.4976  -12.5012   18.2161 C   0  0  0  0  0  0
  -28.0110  -12.3925   18.6110 C   0  0  0  0  0  0
  -27.6607  -13.2248   19.8741 C   0  0  2  0  0  0
  -28.7095  -13.0405   20.9981 C   0  0  0  0  0  0
  -25.2557  -13.8223   20.5704 C   0  0  0  0  0  0
  -24.1848  -13.0466   20.9228 C   0  0  0  0  0  0
  -24.6444  -11.6936   20.8786 C   0  0  0  0  0  0
  -23.9127  -10.4300   21.0434 C   0  0  0  0  0  0
  -24.3642   -9.4200   21.9219 C   0  0  0  0  0  0
  -23.6306   -8.2246   22.0746 C   0  0  0  0  0  0
  -22.4308   -8.0296   21.3520 C   0  0  0  0  0  0
  -21.9957   -9.0291   20.4652 C   0  0  0  0  0  0
  -22.7293  -10.2159   20.3084 C   0  0  0  0  0  0
  -21.6860   -6.0767   22.5295 C   0  0  0  0  0  0
  -21.4023   -6.5663   23.8248 C   0  0  0  0  0  0
  -21.3643   -5.6804   24.9200 C   0  0  0  0  0  0
  -21.6029   -4.3078   24.7242 C   0  0  0  0  0  0
  -21.8821   -3.8172   23.4377 C   0  0  0  0  0  0
  -21.9184   -4.6984   22.3426 C   0  0  0  0  0  0
  -22.7837  -13.5221   21.1855 C   0  0  0  0  0  0
  -22.1657   -4.2179   21.0996 F   0  0  0  0  0  0
  -21.5598   -3.4550   25.7742 F   0  0  0  0  0  0
  -30.0386  -13.3277   20.4422 N   0  0  0  0  0  0
  -26.3038  -12.9425   20.3420 N   0  0  0  0  0  0
  -25.9396  -11.6567   20.5867 N   0  0  0  0  0  0
  -22.0470  -12.8212   22.0397 N   0  0  0  0  0  0
  -25.4151  -15.1947   20.3979 N   0  0  0  0  0  0
  -31.8653  -14.6215   20.0917 O   0  0  0  0  0  0
  -21.6639   -6.8912   21.4254 O   0  0  0  0  0  0
  -22.3525  -14.5509   20.6668 O   0  0  0  0  0  0
  -24.6154  -31.8711   23.2102 C   0  0  0  0  0  0
  -25.9048  -32.4846   23.8402 C   0  0  1  0  0  0
  -27.2248  -27.4299   20.1089 C   0  0  0  0  0  0
  -25.5878  -33.8632   24.2334 N   0  0  0  0  0  0
  -23.4007  -30.4966   21.5522 C   0  0  2  0  0  0
  -24.8464  -28.9651   20.1145 C   0  0  0  0  0  0
  -22.7385  -29.4720   22.5016 C   0  0  0  0  0  0
  -18.0276  -28.1386   22.8415 C   0  0  0  0  0  0
  -24.1477  -36.7309   23.2649 C   0  0  0  0  0  0
  -25.9324  -30.8406   21.3584 C   0  0  0  0  0  0
  -26.0091  -29.4758   20.7034 C   0  0  0  0  0  0
  -27.2040  -28.7195   20.6889 C   0  0  0  0  0  0
  -26.0455  -26.9455   19.4982 C   0  0  0  0  0  0
  -24.8597  -27.7009   19.5050 C   0  0  0  0  0  0
  -23.6037  -29.8226   20.1704 C   0  0  0  0  0  0
  -25.4105  -36.3134   24.0352 C   0  0  1  0  0  0
  -20.5843  -28.3709   23.1291 C   0  0  2  0  0  0
  -20.6749  -26.9458   22.5423 C   0  0  0  0  0  0
  -19.5784  -26.6296   21.5215 C   0  0  0  0  0  0
  -18.1888  -26.7953   22.1475 C   0  0  0  0  0  0
  -19.1515  -28.8858   23.2846 C   0  0  0  0  0  0
  -18.9442  -30.1454   23.8888 C   0  0  0  0  0  0
  -17.6444  -30.6553   24.0592 C   0  0  0  0  0  0
  -25.9034  -34.9504   23.5162 C   0  0  0  0  0  0
  -16.5339  -29.9057   23.6350 C   0  0  0  0  0  0
  -16.7270  -28.6499   23.0343 C   0  0  0  0  0  0
  -26.4428  -31.6613   25.0733 C   0  0  0  0  0  0
  -25.3644  -31.3731   26.1447 C   0  0  0  0  0  0
  -27.0290  -30.3074   24.6103 C   0  0  0  0  0  0
  -27.6000  -32.4350   25.7471 C   0  0  0  0  0  0
  -27.5587  -37.1805   24.8475 C   0  0  0  0  0  0
  -21.4110  -29.3069   22.3705 N   0  0  0  0  0  0
  -26.4306  -37.3810   23.9410 N   0  0  0  0  0  0
  -24.6682  -31.0848   22.0969 N   0  0  0  0  0  0
  -23.4136  -28.8251   23.3072 O   0  0  0  0  0  0
  -28.3675  -26.6563   20.1643 O   0  0  0  0  0  0
  -26.5609  -34.8946   22.4724 O   0  0  0  0  0  0
  -23.5343  -32.1440   23.7503 O   0  0  0  0  0  0
  -27.3465  -18.4852   22.4938 C   0  0  0  0  0  0
  -28.2370  -17.5616   21.9311 C   0  0  0  0  0  0
  -27.3785  -19.8262   22.0912 C   0  0  0  0  0  0
  -29.2205  -17.9566   20.9892 C   0  0  0  0  0  0
  -29.2962  -19.3627   20.6363 C   0  0  0  0  0  0
  -28.3210  -20.2796   21.1487 C   0  0  0  0  0  0
  -30.0944  -16.8619   20.3624 C   0  0  0  0  0  0
  -30.3861  -19.9194   19.7225 C   0  0  0  0  0  0
  -29.4519  -24.5210   20.8482 C   0  0  0  0  0  0
  -28.1389  -25.2879   20.5598 C   0  0  0  0  0  0
  -29.3148  -23.1041   21.4915 C   0  0  0  0  0  0
  -29.9562  -15.5934   20.8271 N   0  0  0  0  0  0
  -30.8277  -17.1312   19.4056 O   0  0  0  0  0  0
  -28.4491  -22.1164   19.1590 O   0  0  0  0  0  0
  -26.7858  -22.4931   20.9982 O   0  0  0  0  0  0
  -28.1235  -22.0257   20.5896 S   0  0  0  0  0  0
  -31.4605  -12.3923   19.1366 H   0  0  0  0  0  0
  -30.3039  -11.3167   19.8651 H   0  0  0  0  0  0
  -29.7372  -11.7666   17.4470 H   0  0  0  0  0  0
  -29.6749  -13.4792   17.7623 H   0  0  0  0  0  0
  -27.7728  -11.3418   18.7684 H   0  0  0  0  0  0
  -27.3865  -12.7224   17.7789 H   0  0  0  0  0  0
  -27.6921  -14.2706   19.5634 H   0  0  0  0  0  0
  -28.7001  -12.0204   21.3840 H   0  0  0  0  0  0
  -28.4846  -13.6851   21.8488 H   0  0  0  0  0  0
  -25.2785   -9.5663   22.4808 H   0  0  0  0  0  0
  -24.0019   -7.4627   22.7449 H   0  0  0  0  0  0
  -21.0899   -8.8853   19.8942 H   0  0  0  0  0  0
  -22.3801  -10.9720   19.6204 H   0  0  0  0  0  0
  -21.2050   -7.6181   23.9778 H   0  0  0  0  0  0
  -21.1440   -6.0521   25.9099 H   0  0  0  0  0  0
  -22.0605   -2.7642   23.2872 H   0  0  0  0  0  0
  -22.4093  -11.9909   22.4828 H   0  0  0  0  0  0
  -21.1058  -13.1218   22.2564 H   0  0  0  0  0  0
  -24.6185  -15.8177   20.4688 H   0  0  0  0  0  0
  -26.2320  -15.6425   20.0037 H   0  0  0  0  0  0
  -26.7156  -32.5551   23.1203 H   0  0  0  0  0  0
  -24.9969  -33.9776   25.0439 H   0  0  0  0  0  0
  -22.6888  -31.3141   21.4152 H   0  0  0  0  0  0
  -23.3763  -35.9622   23.3333 H   0  0  0  0  0  0
  -24.3577  -36.8879   22.2061 H   0  0  0  0  0  0
  -23.7189  -37.6511   23.6639 H   0  0  0  0  0  0
  -26.0471  -31.6072   20.5898 H   0  0  0  0  0  0
  -26.8184  -30.8937   21.9796 H   0  0  0  0  0  0
  -28.1008  -29.1074   21.1493 H   0  0  0  0  0  0
  -26.0202  -25.9811   19.0146 H   0  0  0  0  0  0
  -23.9597  -27.3034   19.0537 H   0  0  0  0  0  0
  -23.6784  -30.5917   19.4025 H   0  0  0  0  0  0
  -22.7350  -29.2240   19.8961 H   0  0  0  0  0  0
  -25.1282  -36.2030   25.0848 H   0  0  0  0  0  0
  -20.9900  -28.3334   24.1423 H   0  0  0  0  0  0
  -21.6656  -26.7578   22.1260 H   0  0  0  0  0  0
  -20.5715  -26.2380   23.3656 H   0  0  0  0  0  0
  -19.6967  -25.6128   21.1423 H   0  0  0  0  0  0
  -19.6806  -27.2883   20.6590 H   0  0  0  0  0  0
  -17.4252  -26.6788   21.3758 H   0  0  0  0  0  0
  -18.0109  -26.0056   22.8786 H   0  0  0  0  0  0
  -19.7909  -30.7267   24.2282 H   0  0  0  0  0  0
  -17.4966  -31.6216   24.5204 H   0  0  0  0  0  0
  -15.5337  -30.2934   23.7730 H   0  0  0  0  0  0
  -15.8673  -28.0834   22.7061 H   0  0  0  0  0  0
  -24.5796  -30.7126   25.7734 H   0  0  0  0  0  0
  -24.8852  -32.2913   26.4883 H   0  0  0  0  0  0
  -25.7919  -30.8869   27.0220 H   0  0  0  0  0  0
  -26.2887  -29.6829   24.1093 H   0  0  0  0  0  0
  -27.4037  -29.7308   25.4565 H   0  0  0  0  0  0
  -27.8712  -30.4449   23.9306 H   0  0  0  0  0  0
  -27.2619  -33.3646   26.2068 H   0  0  0  0  0  0
  -28.3758  -32.6901   25.0239 H   0  0  0  0  0  0
  -28.0731  -31.8462   26.5341 H   0  0  0  0  0  0
  -28.2630  -38.0076   24.7531 H   0  0  0  0  0  0
  -28.1049  -36.2619   24.6307 H   0  0  0  0  0  0
  -27.2312  -37.1470   25.8875 H   0  0  0  0  0  0
  -20.9241  -29.8777   21.6931 H   0  0  0  0  0  0
  -26.0218  -38.2905   24.1370 H   0  0  0  0  0  0
  -26.6060  -18.1505   23.2085 H   0  0  0  0  0  0
  -28.1317  -16.5332   22.2462 H   0  0  0  0  0  0
  -26.6446  -20.5094   22.4929 H   0  0  0  0  0  0
  -30.0882  -19.8407   18.6773 H   0  0  0  0  0  0
  -31.3422  -19.4190   19.8599 H   0  0  0  0  0  0
  -30.6019  -20.9633   19.9367 H   0  0  0  0  0  0
  -30.0921  -25.1359   21.4807 H   0  0  0  0  0  0
  -29.9896  -24.4162   19.9085 H   0  0  0  0  0  0
  -27.5024  -25.2744   21.4473 H   0  0  0  0  0  0
  -27.6058  -24.7567   19.7719 H   0  0  0  0  0  0
  -30.2800  -22.6006   21.4941 H   0  0  0  0  0  0
  -28.9922  -23.1612   22.5317 H   0  0  0  0  0  0
  -29.1498  -15.4160   21.3964 H   0  0  0  0  0  0
  1 25  1  0  0  0
  1 30  2  0  0  0
  1 82  1  0  0  0
  2  3  1  0  0  0
  2 25  1  0  0  0
  2 87  1  0  0  0
  2 88  1  0  0  0
  3  4  1  0  0  0
  3 89  1  0  0  0
  3 90  1  0  0  0
  4  5  1  0  0  0
  4 91  1  0  0  0
  4 92  1  0  0  0
  5  6  1  0  0  0
  5 26  1  0  0  0
  5 93  1  0  0  0
  6 25  1  0  0  0
  6 94  1  0  0  0
  6 95  1  0  0  0
  7  8  2  0  0  0
  7 26  1  0  0  0
  7 29  1  0  0  0
  8  9  1  0  0  0
  8 22  1  0  0  0
  9 10  1  0  0  0
  9 27  2  0  0  0
 10 11  2  0  0  0
 10 15  1  0  0  0
 11 12  1  0  0  0
 11 96  1  0  0  0
 12 13  2  0  0  0
 12 97  1  0  0  0
 13 14  1  0  0  0
 13 31  1  0  0  0
 14 15  2  0  0  0
 14 98  1  0  0  0
 15 99  1  0  0  0
 16 17  2  0  0  0
 16 21  1  0  0  0
 16 31  1  0  0  0
 17 18  1  0  0  0
 17100  1  0  0  0
 18 19  2  0  0  0
 18101  1  0  0  0
 19 20  1  0  0  0
 19 24  1  0  0  0
 20 21  2  0  0  0
 20102  1  0  0  0
 21 23  1  0  0  0
 22 28  1  0  0  0
 22 32  2  0  0  0
 26 27  1  0  0  0
 28103  1  0  0  0
 28104  1  0  0  0
 29105  1  0  0  0
 29106  1  0  0  0
 33 34  1  0  0  0
 33 66  1  0  0  0
 33 70  2  0  0  0
 34 36  1  0  0  0
 34 59  1  0  0  0
 34107  1  0  0  0
 35 44  2  0  0  0
 35 45  1  0  0  0
 35 68  1  0  0  0
 36 56  1  0  0  0
 36108  1  0  0  0
 37 39  1  0  0  0
 37 47  1  0  0  0
 37 66  1  0  0  0
 37109  1  0  0  0
 38 43  2  0  0  0
 38 46  1  0  0  0
 38 47  1  0  0  0
 39 64  1  0  0  0
 39 67  2  0  0  0
 40 52  1  0  0  0
 40 53  2  0  0  0
 40 58  1  0  0  0
 41110  1  0  0  0
 41111  1  0  0  0
 41112  1  0  0  0
 41 48  1  0  0  0
 42 43  1  0  0  0
 42 66  1  0  0  0
 42113  1  0  0  0
 42114  1  0  0  0
 43 44  1  0  0  0
 44115  1  0  0  0
 45 46  2  0  0  0
 45116  1  0  0  0
 46117  1  0  0  0
 47118  1  0  0  0
 47119  1  0  0  0
 48 56  1  0  0  0
 48 65  1  0  0  0
 48120  1  0  0  0
 49 50  1  0  0  0
 49 53  1  0  0  0
 49 64  1  0  0  0
 49121  1  0  0  0
 50 51  1  0  0  0
 50122  1  0  0  0
 50123  1  0  0  0
 51 52  1  0  0  0
 51124  1  0  0  0
 51125  1  0  0  0
 52126  1  0  0  0
 52127  1  0  0  0
 53 54  1  0  0  0
 54 55  2  0  0  0
 54128  1  0  0  0
 55 57  1  0  0  0
 55129  1  0  0  0
 56 69  2  0  0  0
 57 58  2  0  0  0
 57130  1  0  0  0
 58131  1  0  0  0
 59 60  1  0  0  0
 59 61  1  0  0  0
 59 62  1  0  0  0
 60132  1  0  0  0
 60133  1  0  0  0
 60134  1  0  0  0
 61135  1  0  0  0
 61136  1  0  0  0
 61137  1  0  0  0
 62138  1  0  0  0
 62139  1  0  0  0
 62140  1  0  0  0
 63 65  1  0  0  0
 63141  1  0  0  0
 63142  1  0  0  0
 63143  1  0  0  0
 64144  1  0  0  0
 65145  1  0  0  0
 68 80  1  0  0  0
 71 72  2  0  0  0
 71 73  1  0  0  0
 71146  1  0  0  0
 72 74  1  0  0  0
 72147  1  0  0  0
 73 76  2  0  0  0
 73148  1  0  0  0
 74 75  2  0  0  0
 74 77  1  0  0  0
 75 76  1  0  0  0
 75 78  1  0  0  0
 76 86  1  0  0  0
 77 82  1  0  0  0
 77 83  2  0  0  0
 78149  1  0  0  0
 78150  1  0  0  0
 78151  1  0  0  0
 79 80  1  0  0  0
 79 81  1  0  0  0
 79152  1  0  0  0
 79153  1  0  0  0
 80154  1  0  0  0
 80155  1  0  0  0
 81156  1  0  0  0
 81157  1  0  0  0
 81 86  1  0  0  0
 82158  1  0  0  0
 84 86  2  0  0  0
 85 86  2  0  0  0
M  ISO  4   1 100  68 101  80 101  82 100
M  END
> <chiral flag>
0

> <version>
0

> <s_m_source_file>
/data/baiqing/PycharmProjects/Reinvent-master-3.2/result/LINK_invent/BTK/process_docking_weight1_custom_product_contain_oxygen_bond_distance_aromatic_linkinvent_7_9_3/rearranged_h_0054.sdf

> <i_m_source_file_index>
48

> <r_mmod_Potential_Energy-OPLS-2005>
-151.693130493164

> <r_mmod_Stretch_Energy-OPLS-2005>
50.9722175598145

> <r_mmod_Bend_Energy-OPLS-2005>
105.648696899414

> <r_mmod_Torsional_Energy-OPLS-2005>
240.16813659668

> <r_mmod_Improper_Torsional_Energy-OPLS-2005>
5.71537637710571

> <r_mmod_Van_der_Waal_Energy-OPLS-2005>
166.065414428711

> <r_mmod_Electrostatic_Energy-OPLS-2005>
-482.375854492188

> <r_mmod_Solvation_Energy-OPLS-2005>
-258.303649902344

> <b_mmod_Minimization_Converged-OPLS-2005>
0

> <r_mmod_RMS_Derivative-OPLS-2005>
6.05427503585815

$$$$
48
                    3D
 Structure written by MMmdl.
158167  0  0  1  0            999 V2000
  -28.3108  -16.8472   20.0452 C   0  0  0  0  0  0
  -29.6808  -14.4361   19.4488 C   0  0  0  0  0  0
  -29.3836  -13.2289   18.5009 C   0  0  0  0  0  0
  -28.2410  -12.3630   19.0239 C   0  0  0  0  0  0
  -27.3285  -13.3010   19.7937 C   0  0  2  0  0  0
  -28.0073  -14.1749   20.8762 C   0  0  0  0  0  0
  -25.0615  -13.7835   20.5514 C   0  0  0  0  0  0
  -24.0482  -12.9941   20.9496 C   0  0  0  0  0  0
  -24.5474  -11.6557   20.9019 C   0  0  0  0  0  0
  -23.8523  -10.3987   21.0604 C   0  0  0  0  0  0
  -24.3300   -9.3965   21.9329 C   0  0  0  0  0  0
  -23.6111   -8.1952   22.0788 C   0  0  0  0  0  0
  -22.4131   -7.9999   21.3501 C   0  0  0  0  0  0
  -21.9618   -8.9902   20.4634 C   0  0  0  0  0  0
  -22.6790  -10.1823   20.3124 C   0  0  0  0  0  0
  -21.6756   -6.0596   22.5302 C   0  0  0  0  0  0
  -21.3940   -6.5542   23.8227 C   0  0  0  0  0  0
  -21.3637   -5.6718   24.9196 C   0  0  0  0  0  0
  -21.6058   -4.3003   24.7263 C   0  0  0  0  0  0
  -21.8830   -3.8052   23.4412 C   0  0  0  0  0  0
  -21.9170   -4.6841   22.3432 C   0  0  0  0  0  0
  -22.6642  -13.4722   21.2205 C   0  0  0  0  0  0
  -22.1659   -4.2019   21.1025 F   0  0  0  0  0  0
  -21.5653   -3.4517   25.7812 F   0  0  0  0  0  0
  -28.5195  -15.2964   20.0752 N   0  0  0  0  0  0
  -26.0916  -12.8975   20.3103 N   0  0  0  0  0  0
  -25.8276  -11.6146   20.5785 N   0  0  0  0  0  0
  -21.9468  -12.7802   22.0963 N   0  0  0  0  0  0
  -25.1550  -15.1599   20.3166 N   0  0  0  0  0  0
  -29.5935  -17.0018   19.9505 O   0  0  0  0  0  0
  -21.6487   -6.8627   21.4243 O   0  0  0  0  0  0
  -22.2437  -14.5074   20.7003 O   0  0  0  0  0  0
  -24.6477  -31.9110   22.7657 C   0  0  0  0  0  0
  -25.9638  -32.4901   23.5859 C   0  0  1  0  0  0
  -27.0742  -27.7148   20.4625 C   0  0  0  0  0  0
  -25.6596  -33.8362   24.0628 N   0  0  0  0  0  0
  -23.9365  -29.4119   21.2421 C   0  0  2  0  0  0
  -25.2596  -29.2307   19.3436 C   0  0  0  0  0  0
  -22.6705  -27.8134   22.9450 C   0  0  0  0  0  0
  -18.0904  -27.9391   23.0167 C   0  0  0  0  0  0
  -24.1609  -36.7321   23.2744 C   0  0  0  0  0  0
  -25.9151  -31.0391   20.9306 C   0  0  0  0  0  0
  -26.2294  -29.8290   20.1496 C   0  0  0  0  0  0
  -27.3759  -29.0684   20.4481 C   0  0  0  0  0  0
  -26.4829  -27.1833   19.3050 C   0  0  0  0  0  0
  -25.4598  -28.0021   18.7547 C   0  0  0  0  0  0
  -23.8983  -29.5493   19.5972 C   0  0  0  0  0  0
  -25.4385  -36.3083   24.0284 C   0  0  1  0  0  0
  -20.3817  -27.9719   24.2757 C   0  0  2  0  0  0
  -20.1771  -26.4233   24.3204 C   0  0  0  0  0  0
  -19.6883  -25.9918   22.8773 C   0  0  0  0  0  0
  -18.5845  -26.7462   22.1830 C   0  0  0  0  0  0
  -19.0176  -28.6403   23.8981 C   0  0  0  0  0  0
  -18.6141  -29.8988   24.4172 C   0  0  0  0  0  0
  -17.3159  -30.3943   24.1023 C   0  0  0  0  0  0
  -25.9518  -34.9843   23.4534 C   0  0  0  0  0  0
  -16.3419  -29.6115   23.3847 C   0  0  0  0  0  0
  -16.7292  -28.3520   22.9015 C   0  0  0  0  0  0
  -26.5299  -31.7127   24.8707 C   0  0  0  0  0  0
  -25.4699  -31.4710   26.0239 C   0  0  0  0  0  0
  -27.1771  -30.3927   24.5371 C   0  0  0  0  0  0
  -27.6186  -32.5643   25.5656 C   0  0  0  0  0  0
  -27.5845  -37.1778   24.8303 C   0  0  0  0  0  0
  -21.3856  -28.1353   23.3371 N   0  0  0  0  0  0
  -26.4261  -37.4159   23.9676 N   0  0  0  0  0  0
  -24.6734  -30.9098   21.7026 N   0  0  0  0  0  0
  -23.1464  -27.1049   23.6898 O   0  0  0  0  0  0
  -26.6330  -27.3768   21.7428 O   0  0  0  0  0  0
  -26.5370  -35.0136   22.3783 O   0  0  0  0  0  0
  -23.5224  -32.2089   23.3022 O   0  0  0  0  0  0
  -21.8955  -22.9212   19.1002 C   0  0  0  0  0  0
  -22.9765  -21.8614   19.2668 C   0  0  0  0  0  0
  -22.0156  -24.3388   19.4378 C   0  0  0  0  0  0
  -24.1145  -23.5383   20.3241 C   0  0  0  0  0  0
  -24.4162  -21.8301   19.8650 C   0  0  0  0  0  0
  -23.0850  -24.9063   20.1393 C   0  0  0  0  0  0
  -21.7874  -28.1542   20.5890 C   0  0  0  0  0  0
  -21.8674  -29.9377   22.0661 C   0  0  0  0  0  0
  -23.9829  -29.5036   23.4664 C   0  0  0  0  0  0
  -24.3401  -26.8239   21.2743 C   0  0  0  0  0  0
  -25.2319  -27.9238   22.4973 C   0  0  2  0  0  0
  -25.9283  -20.1419   19.8648 C   0  0  0  0  0  0
  -22.8781  -26.7244   20.6035 N   0  0  0  0  0  0
  -26.8938  -18.1215   19.9864 N   0  0  0  0  0  0
  -20.8095  -28.0975   19.8782 O   0  0  0  0  0  0
  -30.1284  -15.1647   18.7428 H   0  0  0  0  0  0
  -30.3839  -14.3614   20.2773 H   0  0  0  0  0  0
  -30.3622  -12.7539   18.3797 H   0  0  0  0  0  0
  -29.1015  -13.7130   17.5610 H   0  0  0  0  0  0
  -28.6431  -11.6263   19.7032 H   0  0  0  0  0  0
  -27.7116  -11.8874   18.2060 H   0  0  0  0  0  0
  -26.9641  -13.9201   18.9868 H   0  0  0  0  0  0
  -28.7391  -13.6772   21.4918 H   0  0  0  0  0  0
  -27.2799  -14.5657   21.6191 H   0  0  0  0  0  0
  -25.2431   -9.5541   22.4868 H   0  0  0  0  0  0
  -23.9855   -7.4329   22.7435 H   0  0  0  0  0  0
  -21.0588   -8.8324   19.8934 H   0  0  0  0  0  0
  -22.3232  -10.9358   19.6240 H   0  0  0  0  0  0
  -21.1889   -7.6050   23.9660 H   0  0  0  0  0  0
  -21.1466   -6.0494   25.9089 H   0  0  0  0  0  0
  -22.0640   -2.7520   23.2945 H   0  0  0  0  0  0
  -22.3115  -11.9476   22.5325 H   0  0  0  0  0  0
  -21.0135  -13.0853   22.3379 H   0  0  0  0  0  0
  -24.2184  -15.5581   20.2533 H   0  0  0  0  0  0
  -25.6860  -15.3982   19.4880 H   0  0  0  0  0  0
  -26.7682  -32.6778   22.8908 H   0  0  0  0  0  0
  -25.2448  -33.9054   24.9788 H   0  0  0  0  0  0
  -23.3952  -30.1570   20.6885 H   0  0  0  0  0  0
  -23.4300  -35.9215   23.2343 H   0  0  0  0  0  0
  -24.3848  -37.0099   22.2434 H   0  0  0  0  0  0
  -23.6623  -37.5904   23.7521 H   0  0  0  0  0  0
  -25.9767  -31.9342   20.2741 H   0  0  0  0  0  0
  -26.7613  -31.1471   21.5874 H   0  0  0  0  0  0
  -28.0308  -29.5471   21.1926 H   0  0  0  0  0  0
  -26.1836  -26.1641   19.2897 H   0  0  0  0  0  0
  -24.7314  -27.6499   18.0641 H   0  0  0  0  0  0
  -23.9238  -30.5474   19.1267 H   0  0  0  0  0  0
  -23.1444  -29.1008   18.9189 H   0  0  0  0  0  0
  -25.1440  -36.1453   25.0653 H   0  0  0  0  0  0
  -20.7952  -28.4397   25.1351 H   0  0  0  0  0  0
  -19.6741  -26.3680   25.4001 H   0  0  0  0  0  0
  -21.1998  -26.1249   24.6298 H   0  0  0  0  0  0
  -19.3777  -24.9428   23.0630 H   0  0  0  0  0  0
  -20.5951  -26.0910   22.3223 H   0  0  0  0  0  0
  -19.0543  -27.5407   21.6826 H   0  0  0  0  0  0
  -18.2996  -26.2422   21.1836 H   0  0  0  0  0  0
  -19.2804  -30.4605   25.0011 H   0  0  0  0  0  0
  -17.0720  -31.4121   24.3902 H   0  0  0  0  0  0
  -15.4672  -30.0763   22.8690 H   0  0  0  0  0  0
  -16.2802  -27.9664   21.9914 H   0  0  0  0  0  0
  -24.8529  -30.5543   25.9982 H   0  0  0  0  0  0
  -24.7100  -32.3041   26.0422 H   0  0  0  0  0  0
  -25.9543  -31.3983   27.0231 H   0  0  0  0  0  0
  -26.5489  -29.5912   24.8215 H   0  0  0  0  0  0
  -28.0666  -30.1831   25.0829 H   0  0  0  0  0  0
  -27.4118  -30.2415   23.4955 H   0  0  0  0  0  0
  -27.3221  -33.5268   25.9479 H   0  0  0  0  0  0
  -28.4272  -32.8018   24.8795 H   0  0  0  0  0  0
  -28.0898  -32.0541   26.4089 H   0  0  0  0  0  0
  -28.1785  -38.0900   24.8699 H   0  0  0  0  0  0
  -28.2193  -36.3819   24.4429 H   0  0  0  0  0  0
  -27.2861  -36.9305   25.8513 H   0  0  0  0  0  0
  -21.4560  -29.1199   23.4034 H   0  0  0  0  0  0
  -25.9856  -38.2871   24.2715 H   0  0  0  0  0  0
  -20.9447  -22.7002   18.7504 H   0  0  0  0  0  0
  -22.5930  -20.8873   19.0041 H   0  0  0  0  0  0
  -21.1346  -25.0365   19.3933 H   0  0  0  0  0  0
  -24.0619  -23.4836   21.3789 H   0  0  0  0  0  0
  -20.9729  -30.1099   22.6267 H   0  0  0  0  0  0
  -21.8666  -30.9031   21.5661 H   0  0  0  0  0  0
  -23.6730  -29.2918   24.5369 H   0  0  0  0  0  0
  -24.6337  -30.0866   24.0734 H   0  0  0  0  0  0
  -24.3709  -25.8140   21.7506 H   0  0  0  0  0  0
  -24.5022  -26.7752   20.2865 H   0  0  0  0  0  0
  -25.7950  -28.7813   22.2244 H   0  0  0  0  0  0
  -25.1454  -20.0155   20.5822 H   0  0  0  0  0  0
  -26.3496  -20.7699   19.0613 H   0  0  0  0  0  0
  -26.0331  -17.5540   20.0545 H   0  0  0  0  0  0
  1 25  1  0  0  0
  1 30  2  0  0  0
  1 84  1  0  0  0
  2  3  1  0  0  0
  2 25  1  0  0  0
  2 86  1  0  0  0
  2 87  1  0  0  0
  3  4  1  0  0  0
  3 88  1  0  0  0
  3 89  1  0  0  0
  4  5  1  0  0  0
  4 90  1  0  0  0
  4 91  1  0  0  0
  5  6  1  0  0  0
  5 26  1  0  0  0
  5 92  1  0  0  0
  6 25  1  0  0  0
  6 93  1  0  0  0
  6 94  1  0  0  0
  7  8  2  0  0  0
  7 26  1  0  0  0
  7 29  1  0  0  0
  8  9  1  0  0  0
  8 22  1  0  0  0
  9 10  1  0  0  0
  9 27  2  0  0  0
 10 11  2  0  0  0
 10 15  1  0  0  0
 11 12  1  0  0  0
 11 95  1  0  0  0
 12 13  2  0  0  0
 12 96  1  0  0  0
 13 14  1  0  0  0
 13 31  1  0  0  0
 14 15  2  0  0  0
 14 97  1  0  0  0
 15 98  1  0  0  0
 16 17  2  0  0  0
 16 21  1  0  0  0
 16 31  1  0  0  0
 17 18  1  0  0  0
 17 99  1  0  0  0
 18 19  2  0  0  0
 18100  1  0  0  0
 19 20  1  0  0  0
 19 24  1  0  0  0
 20 21  2  0  0  0
 20101  1  0  0  0
 21 23  1  0  0  0
 22 28  1  0  0  0
 22 32  2  0  0  0
 26 27  1  0  0  0
 28102  1  0  0  0
 28103  1  0  0  0
 29104  1  0  0  0
 29105  1  0  0  0
 33 34  1  0  0  0
 33 66  1  0  0  0
 33 70  2  0  0  0
 34 36  1  0  0  0
 34 59  1  0  0  0
 34106  1  0  0  0
 35 44  2  0  0  0
 35 45  1  0  0  0
 35 68  1  0  0  0
 36 56  1  0  0  0
 36107  1  0  0  0
 37 39  1  0  0  0
 37 47  1  0  0  0
 37 66  1  0  0  0
 37108  1  0  0  0
 38 43  2  0  0  0
 38 46  1  0  0  0
 38 47  1  0  0  0
 39 64  1  0  0  0
 39 67  2  0  0  0
 40 52  1  0  0  0
 40 53  2  0  0  0
 40 58  1  0  0  0
 41109  1  0  0  0
 41110  1  0  0  0
 41111  1  0  0  0
 41 48  1  0  0  0
 42 43  1  0  0  0
 42 66  1  0  0  0
 42112  1  0  0  0
 42113  1  0  0  0
 43 44  1  0  0  0
 44114  1  0  0  0
 45 46  2  0  0  0
 45115  1  0  0  0
 46116  1  0  0  0
 47117  1  0  0  0
 47118  1  0  0  0
 48 56  1  0  0  0
 48 65  1  0  0  0
 48119  1  0  0  0
 49 50  1  0  0  0
 49 53  1  0  0  0
 49 64  1  0  0  0
 49120  1  0  0  0
 50 51  1  0  0  0
 50121  1  0  0  0
 50122  1  0  0  0
 51 52  1  0  0  0
 51123  1  0  0  0
 51124  1  0  0  0
 52125  1  0  0  0
 52126  1  0  0  0
 53 54  1  0  0  0
 54 55  2  0  0  0
 54127  1  0  0  0
 55 57  1  0  0  0
 55128  1  0  0  0
 56 69  2  0  0  0
 57 58  2  0  0  0
 57129  1  0  0  0
 58130  1  0  0  0
 59 60  1  0  0  0
 59 61  1  0  0  0
 59 62  1  0  0  0
 60131  1  0  0  0
 60132  1  0  0  0
 60133  1  0  0  0
 61134  1  0  0  0
 61135  1  0  0  0
 61136  1  0  0  0
 62137  1  0  0  0
 62138  1  0  0  0
 62139  1  0  0  0
 63 65  1  0  0  0
 63140  1  0  0  0
 63141  1  0  0  0
 63142  1  0  0  0
 64143  1  0  0  0
 65144  1  0  0  0
 68 81  1  0  0  0
 71 72  2  0  0  0
 71 73  1  0  0  0
 71145  1  0  0  0
 72 75  1  0  0  0
 72146  1  0  0  0
 73 76  2  0  0  0
 73147  1  0  0  0
 74 75  2  0  0  0
 74 76  1  0  0  0
 74148  1  0  0  0
 75 82  1  0  0  0
 76 83  1  0  0  0
 77 78  1  0  0  0
 77 83  1  0  0  0
 77 85  2  0  0  0
 78 79  1  0  0  0
 78149  1  0  0  0
 78150  1  0  0  0
 79 81  1  0  0  0
 79151  1  0  0  0
 79152  1  0  0  0
 80 81  1  0  0  0
 80 83  1  0  0  0
 80153  1  0  0  0
 80154  1  0  0  0
 81155  1  0  0  0
 82 84  1  0  0  0
 82156  1  0  0  0
 82157  1  0  0  0
 84158  1  0  0  0
M  ISO  4   1 100  68 101  81 101  84 100
M  END
> <chiral flag>
0

> <version>
0

> <s_m_source_file>
/data/baiqing/PycharmProjects/Reinvent-master-3.2/result/LINK_invent/BTK/process_docking_weight1_custom_product_contain_oxygen_bond_distance_aromatic_linkinvent_7_9_3/rearranged_h_0054.sdf

> <i_m_source_file_index>
49

> <r_mmod_Potential_Energy-OPLS-2005>
21312.3984375

> <r_mmod_Stretch_Energy-OPLS-2005>
8800.384765625

> <r_mmod_Bend_Energy-OPLS-2005>
2685.3359375

> <r_mmod_Torsional_Energy-OPLS-2005>
784.275268554688

> <r_mmod_Improper_Torsional_Energy-OPLS-2005>
75.9695510864258

> <r_mmod_Van_der_Waal_Energy-OPLS-2005>
2728.7138671875

> <r_mmod_Electrostatic_Energy-OPLS-2005>
-397.42431640625

> <r_mmod_Solvation_Energy-OPLS-2005>
-214.295257568359

> <b_mmod_Minimization_Converged-OPLS-2005>
0

> <r_mmod_RMS_Derivative-OPLS-2005>
99.9990005493164

$$$$
49
                    3D
 Structure written by MMmdl.
160168  0  0  1  0            999 V2000
  -30.6898  -14.4821   20.5059 C   0  0  0  0  0  0
  -30.4268  -12.2880   19.4428 C   0  0  0  0  0  0
  -29.5087  -12.4867   18.2174 C   0  0  0  0  0  0
  -28.0250  -12.3580   18.6210 C   0  0  0  0  0  0
  -27.6650  -13.2036   19.8735 C   0  0  2  0  0  0
  -28.7073  -13.0045   21.0016 C   0  0  0  0  0  0
  -25.2596  -13.8152   20.5654 C   0  0  0  0  0  0
  -24.1840  -13.0437   20.9161 C   0  0  0  0  0  0
  -24.6396  -11.6905   20.8728 C   0  0  0  0  0  0
  -23.9070  -10.4288   21.0408 C   0  0  0  0  0  0
  -24.3621   -9.4201   21.9184 C   0  0  0  0  0  0
  -23.6284   -8.2245   22.0766 C   0  0  0  0  0  0
  -22.4259   -8.0289   21.3566 C   0  0  0  0  0  0
  -21.9897   -9.0265   20.4673 C   0  0  0  0  0  0
  -22.7237  -10.2134   20.3068 C   0  0  0  0  0  0
  -21.6838   -6.0736   22.5282 C   0  0  0  0  0  0
  -21.4012   -6.5638   23.8220 C   0  0  0  0  0  0
  -21.3660   -5.6789   24.9177 C   0  0  0  0  0  0
  -21.6043   -4.3051   24.7222 C   0  0  0  0  0  0
  -21.8818   -3.8148   23.4344 C   0  0  0  0  0  0
  -21.9181   -4.6970   22.3403 C   0  0  0  0  0  0
  -22.7860  -13.5247   21.1818 C   0  0  0  0  0  0
  -22.1648   -4.2168   21.0974 F   0  0  0  0  0  0
  -21.5630   -3.4535   25.7736 F   0  0  0  0  0  0
  -30.0436  -13.2880   20.4506 N   0  0  0  0  0  0
  -26.3039  -12.9321   20.3339 N   0  0  0  0  0  0
  -25.9326  -11.6486   20.5762 N   0  0  0  0  0  0
  -22.0482  -12.8271   22.0387 N   0  0  0  0  0  0
  -25.4303  -15.1875   20.4062 N   0  0  0  0  0  0
  -31.8413  -14.6444   20.0921 O   0  0  0  0  0  0
  -21.6630   -6.8881   21.4247 O   0  0  0  0  0  0
  -22.3551  -14.5549   20.6646 O   0  0  0  0  0  0
  -24.6151  -31.8662   23.2078 C   0  0  0  0  0  0
  -25.9043  -32.4810   23.8372 C   0  0  1  0  0  0
  -27.2378  -27.4301   20.1083 C   0  0  0  0  0  0
  -25.5896  -33.8605   24.2305 N   0  0  0  0  0  0
  -23.4036  -30.4886   21.5474 C   0  0  2  0  0  0
  -24.8529  -28.9513   20.1142 C   0  0  0  0  0  0
  -22.7411  -29.4649   22.4977 C   0  0  0  0  0  0
  -18.0274  -28.1377   22.8485 C   0  0  0  0  0  0
  -24.1489  -36.7316   23.2633 C   0  0  0  0  0  0
  -25.9317  -30.8332   21.3595 C   0  0  0  0  0  0
  -26.0125  -29.4667   20.7083 C   0  0  0  0  0  0
  -27.2114  -28.7156   20.6967 C   0  0  0  0  0  0
  -26.0641  -26.9291   19.5056 C   0  0  0  0  0  0
  -24.8748  -27.6825   19.5074 C   0  0  0  0  0  0
  -23.6131  -29.8169   20.1632 C   0  0  0  0  0  0
  -25.4106  -36.3100   24.0330 C   0  0  1  0  0  0
  -20.5864  -28.3663   23.1314 C   0  0  2  0  0  0
  -20.6766  -26.9395   22.5418 C   0  0  0  0  0  0
  -19.5749  -26.6381   21.5212 C   0  0  0  0  0  0
  -18.1925  -26.7926   22.1613 C   0  0  0  0  0  0
  -19.1524  -28.8835   23.2899 C   0  0  0  0  0  0
  -18.9455  -30.1441   23.8911 C   0  0  0  0  0  0
  -17.6457  -30.6577   24.0566 C   0  0  0  0  0  0
  -25.9036  -34.9470   23.5117 C   0  0  0  0  0  0
  -16.5349  -29.9081   23.6324 C   0  0  0  0  0  0
  -16.7263  -28.6501   23.0341 C   0  0  0  0  0  0
  -26.4479  -31.6590   25.0697 C   0  0  0  0  0  0
  -25.3752  -31.3724   26.1456 C   0  0  0  0  0  0
  -27.0290  -30.3020   24.6072 C   0  0  0  0  0  0
  -27.6054  -32.4311   25.7456 C   0  0  0  0  0  0
  -27.5587  -37.1799   24.8455 C   0  0  0  0  0  0
  -21.4138  -29.3029   22.3718 N   0  0  0  0  0  0
  -26.4289  -37.3789   23.9414 N   0  0  0  0  0  0
  -24.6680  -31.0767   22.0970 N   0  0  0  0  0  0
  -23.4181  -28.8196   23.3025 O   0  0  0  0  0  0
  -28.3916  -26.6747   20.1143 O   0  0  0  0  0  0
  -26.5604  -34.8927   22.4682 O   0  0  0  0  0  0
  -23.5345  -32.1410   23.7476 O   0  0  0  0  0  0
  -30.9024  -18.2594   21.6932 C   0  0  0  0  0  0
  -30.5764  -20.6884   21.5964 C   0  0  0  0  0  0
  -29.5376  -19.2500   19.9369 C   0  0  0  0  0  0
  -31.1429  -19.5504   22.2139 C   0  0  0  0  0  0
  -30.1022  -18.1014   20.5431 C   0  0  0  0  0  0
  -29.7553  -20.5501   20.4552 C   0  0  0  0  0  0
  -28.8112  -24.2167   20.0012 C   0  0  0  0  0  0
  -32.0239  -19.7266   23.4345 C   0  0  0  0  0  0
  -28.0687  -22.6847   21.7973 C   0  0  0  0  0  0
  -29.8978  -16.7358   19.8835 C   0  0  0  0  0  0
  -29.1525  -21.7663   19.7249 C   0  0  0  0  0  0
  -28.3047  -25.4238   20.8367 C   0  0  0  0  0  0
  -29.8914  -15.5377   20.7403 N   0  0  0  0  0  0
  -28.7375  -22.9545   20.5170 N   0  0  0  0  0  0
  -29.2719  -24.4362   18.8746 O   0  0  0  0  0  0
  -31.4772  -12.3644   19.1547 H   0  0  0  0  0  0
  -30.3062  -11.2838   19.8519 H   0  0  0  0  0  0
  -29.7492  -11.7553   17.4442 H   0  0  0  0  0  0
  -29.6887  -13.4662   17.7714 H   0  0  0  0  0  0
  -27.8267  -11.3038   18.8168 H   0  0  0  0  0  0
  -27.3836  -12.6340   17.7837 H   0  0  0  0  0  0
  -27.7024  -14.2460   19.5597 H   0  0  0  0  0  0
  -28.6767  -11.9802   21.3723 H   0  0  0  0  0  0
  -28.4817  -13.6385   21.8612 H   0  0  0  0  0  0
  -25.2785   -9.5652   22.4742 H   0  0  0  0  0  0
  -24.0000   -7.4617   22.7463 H   0  0  0  0  0  0
  -21.0834   -8.8789   19.8968 H   0  0  0  0  0  0
  -22.3718  -10.9671   19.6168 H   0  0  0  0  0  0
  -21.2016   -7.6147   23.9727 H   0  0  0  0  0  0
  -21.1478   -6.0517   25.9079 H   0  0  0  0  0  0
  -22.0596   -2.7612   23.2834 H   0  0  0  0  0  0
  -22.4068  -11.9959   22.4855 H   0  0  0  0  0  0
  -21.1108  -13.1331   22.2569 H   0  0  0  0  0  0
  -24.6636  -15.8414   20.5210 H   0  0  0  0  0  0
  -26.2799  -15.6310   20.0822 H   0  0  0  0  0  0
  -26.7112  -32.5530   23.1137 H   0  0  0  0  0  0
  -25.0061  -33.9766   25.0461 H   0  0  0  0  0  0
  -22.6921  -31.3047   21.4053 H   0  0  0  0  0  0
  -23.3744  -35.9655   23.3291 H   0  0  0  0  0  0
  -24.3594  -36.8938   22.2048 H   0  0  0  0  0  0
  -23.7250  -37.6521   23.6655 H   0  0  0  0  0  0
  -26.0419  -31.5989   20.5902 H   0  0  0  0  0  0
  -26.8198  -30.8890   21.9769 H   0  0  0  0  0  0
  -28.1082  -29.1092   21.1546 H   0  0  0  0  0  0
  -26.0707  -25.9542   19.0371 H   0  0  0  0  0  0
  -23.9841  -27.2809   19.0430 H   0  0  0  0  0  0
  -23.7190  -30.5888   19.4000 H   0  0  0  0  0  0
  -22.7382  -29.2334   19.8702 H   0  0  0  0  0  0
  -25.1281  -36.1958   25.0822 H   0  0  0  0  0  0
  -20.9958  -28.3238   24.1432 H   0  0  0  0  0  0
  -20.5663  -26.2271   23.3610 H   0  0  0  0  0  0
  -21.6640  -26.7440   22.1219 H   0  0  0  0  0  0
  -19.6917  -25.6294   21.1233 H   0  0  0  0  0  0
  -19.6695  -27.3198   20.6748 H   0  0  0  0  0  0
  -17.4198  -26.6671   21.4014 H   0  0  0  0  0  0
  -18.0327  -26.0064   22.9004 H   0  0  0  0  0  0
  -19.7932  -30.7256   24.2287 H   0  0  0  0  0  0
  -17.5012  -31.6261   24.5160 H   0  0  0  0  0  0
  -15.5351  -30.2990   23.7643 H   0  0  0  0  0  0
  -15.8659  -28.0828   22.7046 H   0  0  0  0  0  0
  -24.5903  -30.7088   25.7815 H   0  0  0  0  0  0
  -24.8976  -32.2897   26.4909 H   0  0  0  0  0  0
  -25.8109  -30.8891   27.0205 H   0  0  0  0  0  0
  -26.2817  -29.6788   24.1141 H   0  0  0  0  0  0
  -27.4069  -29.7258   25.4529 H   0  0  0  0  0  0
  -27.8660  -30.4325   23.9206 H   0  0  0  0  0  0
  -27.2658  -33.3586   26.2082 H   0  0  0  0  0  0
  -28.3837  -32.6908   25.0266 H   0  0  0  0  0  0
  -28.0751  -31.8406   26.5333 H   0  0  0  0  0  0
  -28.2589  -38.0110   24.7523 H   0  0  0  0  0  0
  -28.1097  -36.2647   24.6239 H   0  0  0  0  0  0
  -27.2320  -37.1404   25.8860 H   0  0  0  0  0  0
  -20.9298  -29.8746   21.6934 H   0  0  0  0  0  0
  -26.0177  -38.2862   24.1433 H   0  0  0  0  0  0
  -31.3541  -17.3909   22.1548 H   0  0  0  0  0  0
  -30.7806  -21.6718   21.9978 H   0  0  0  0  0  0
  -28.9392  -19.1301   19.0429 H   0  0  0  0  0  0
  -32.5772  -18.8155   23.6645 H   0  0  0  0  0  0
  -31.4178  -19.9873   24.3024 H   0  0  0  0  0  0
  -32.7462  -20.5272   23.2698 H   0  0  0  0  0  0
  -27.0650  -23.1079   21.8220 H   0  0  0  0  0  0
  -28.6421  -23.0990   22.6271 H   0  0  0  0  0  0
  -27.9432  -21.6195   21.9904 H   0  0  0  0  0  0
  -30.6403  -16.6441   19.0878 H   0  0  0  0  0  0
  -28.9358  -16.7481   19.3685 H   0  0  0  0  0  0
  -28.2784  -21.4360   19.1618 H   0  0  0  0  0  0
  -29.8898  -22.0472   18.9712 H   0  0  0  0  0  0
  -28.9281  -25.5070   21.7278 H   0  0  0  0  0  0
  -27.2897  -25.2321   21.1864 H   0  0  0  0  0  0
  -29.0007  -15.3145   21.1567 H   0  0  0  0  0  0
  1 25  1  0  0  0
  1 30  2  0  0  0
  1 83  1  0  0  0
  2  3  1  0  0  0
  2 25  1  0  0  0
  2 86  1  0  0  0
  2 87  1  0  0  0
  3  4  1  0  0  0
  3 88  1  0  0  0
  3 89  1  0  0  0
  4  5  1  0  0  0
  4 90  1  0  0  0
  4 91  1  0  0  0
  5  6  1  0  0  0
  5 26  1  0  0  0
  5 92  1  0  0  0
  6 25  1  0  0  0
  6 93  1  0  0  0
  6 94  1  0  0  0
  7  8  2  0  0  0
  7 26  1  0  0  0
  7 29  1  0  0  0
  8  9  1  0  0  0
  8 22  1  0  0  0
  9 10  1  0  0  0
  9 27  2  0  0  0
 10 11  2  0  0  0
 10 15  1  0  0  0
 11 12  1  0  0  0
 11 95  1  0  0  0
 12 13  2  0  0  0
 12 96  1  0  0  0
 13 14  1  0  0  0
 13 31  1  0  0  0
 14 15  2  0  0  0
 14 97  1  0  0  0
 15 98  1  0  0  0
 16 17  2  0  0  0
 16 21  1  0  0  0
 16 31  1  0  0  0
 17 18  1  0  0  0
 17 99  1  0  0  0
 18 19  2  0  0  0
 18100  1  0  0  0
 19 20  1  0  0  0
 19 24  1  0  0  0
 20 21  2  0  0  0
 20101  1  0  0  0
 21 23  1  0  0  0
 22 28  1  0  0  0
 22 32  2  0  0  0
 26 27  1  0  0  0
 28102  1  0  0  0
 28103  1  0  0  0
 29104  1  0  0  0
 29105  1  0  0  0
 33 34  1  0  0  0
 33 66  1  0  0  0
 33 70  2  0  0  0
 34 36  1  0  0  0
 34 59  1  0  0  0
 34106  1  0  0  0
 35 44  2  0  0  0
 35 45  1  0  0  0
 35 68  1  0  0  0
 36 56  1  0  0  0
 36107  1  0  0  0
 37 39  1  0  0  0
 37 47  1  0  0  0
 37 66  1  0  0  0
 37108  1  0  0  0
 38 43  2  0  0  0
 38 46  1  0  0  0
 38 47  1  0  0  0
 39 64  1  0  0  0
 39 67  2  0  0  0
 40 52  1  0  0  0
 40 53  2  0  0  0
 40 58  1  0  0  0
 41109  1  0  0  0
 41110  1  0  0  0
 41111  1  0  0  0
 41 48  1  0  0  0
 42 43  1  0  0  0
 42 66  1  0  0  0
 42112  1  0  0  0
 42113  1  0  0  0
 43 44  1  0  0  0
 44114  1  0  0  0
 45 46  2  0  0  0
 45115  1  0  0  0
 46116  1  0  0  0
 47117  1  0  0  0
 47118  1  0  0  0
 48 56  1  0  0  0
 48 65  1  0  0  0
 48119  1  0  0  0
 49 50  1  0  0  0
 49 53  1  0  0  0
 49 64  1  0  0  0
 49120  1  0  0  0
 50 51  1  0  0  0
 50121  1  0  0  0
 50122  1  0  0  0
 51 52  1  0  0  0
 51123  1  0  0  0
 51124  1  0  0  0
 52125  1  0  0  0
 52126  1  0  0  0
 53 54  1  0  0  0
 54 55  2  0  0  0
 54127  1  0  0  0
 55 57  1  0  0  0
 55128  1  0  0  0
 56 69  2  0  0  0
 57 58  2  0  0  0
 57129  1  0  0  0
 58130  1  0  0  0
 59 60  1  0  0  0
 59 61  1  0  0  0
 59 62  1  0  0  0
 60131  1  0  0  0
 60132  1  0  0  0
 60133  1  0  0  0
 61134  1  0  0  0
 61135  1  0  0  0
 61136  1  0  0  0
 62137  1  0  0  0
 62138  1  0  0  0
 62139  1  0  0  0
 63 65  1  0  0  0
 63140  1  0  0  0
 63141  1  0  0  0
 63142  1  0  0  0
 64143  1  0  0  0
 65144  1  0  0  0
 68 82  1  0  0  0
 71 74  2  0  0  0
 71 75  1  0  0  0
 71145  1  0  0  0
 72 74  1  0  0  0
 72 76  2  0  0  0
 72146  1  0  0  0
 73 75  2  0  0  0
 73 76  1  0  0  0
 73147  1  0  0  0
 74 78  1  0  0  0
 75 80  1  0  0  0
 76 81  1  0  0  0
 77 82  1  0  0  0
 77 84  1  0  0  0
 77 85  2  0  0  0
 78148  1  0  0  0
 78149  1  0  0  0
 78150  1  0  0  0
 79 84  1  0  0  0
 79151  1  0  0  0
 79152  1  0  0  0
 79153  1  0  0  0
 80 83  1  0  0  0
 80154  1  0  0  0
 80155  1  0  0  0
 81 84  1  0  0  0
 81156  1  0  0  0
 81157  1  0  0  0
 82158  1  0  0  0
 82159  1  0  0  0
 83160  1  0  0  0
M  ISO  4   1 100  68 101  82 101  83 100
M  END
> <chiral flag>
0

> <version>
0

> <s_m_source_file>
/data/baiqing/PycharmProjects/Reinvent-master-3.2/result/LINK_invent/BTK/process_docking_weight1_custom_product_contain_oxygen_bond_distance_aromatic_linkinvent_7_9_3/rearranged_h_0054.sdf

> <i_m_source_file_index>
50

> <r_mmod_Potential_Energy-OPLS-2005>
-55.9469032287598

> <r_mmod_Stretch_Energy-OPLS-2005>
42.7726020812988

> <r_mmod_Bend_Energy-OPLS-2005>
97.1415863037109

> <r_mmod_Torsional_Energy-OPLS-2005>
250.667861938477

> <r_mmod_Improper_Torsional_Energy-OPLS-2005>
10.8252849578857

> <r_mmod_Van_der_Waal_Energy-OPLS-2005>
158.58561706543

> <r_mmod_Electrostatic_Energy-OPLS-2005>
-389.749328613281

> <r_mmod_Solvation_Energy-OPLS-2005>
-241.715393066406

> <b_mmod_Minimization_Converged-OPLS-2005>
0

> <r_mmod_RMS_Derivative-OPLS-2005>
1.72363519668579

$$$$
50
                    3D
 Structure written by MMmdl.
158166  0  0  1  0            999 V2000
  -30.6380  -14.7383   20.4450 C   0  0  0  0  0  0
  -30.4227  -12.4463   19.4833 C   0  0  0  0  0  0
  -29.5096  -12.4986   18.2401 C   0  0  0  0  0  0
  -28.0365  -12.3268   18.6528 C   0  0  0  0  0  0
  -27.6392  -13.2360   19.8470 C   0  0  2  0  0  0
  -28.6809  -13.1913   20.9860 C   0  0  0  0  0  0
  -25.2487  -13.8184   20.5701 C   0  0  0  0  0  0
  -24.1782  -13.0431   20.9205 C   0  0  0  0  0  0
  -24.6388  -11.6914   20.8752 C   0  0  0  0  0  0
  -23.9065  -10.4288   21.0413 C   0  0  0  0  0  0
  -24.3619   -9.4200   21.9185 C   0  0  0  0  0  0
  -23.6295   -8.2238   22.0748 C   0  0  0  0  0  0
  -22.4272   -8.0281   21.3546 C   0  0  0  0  0  0
  -21.9904   -9.0251   20.4640 C   0  0  0  0  0  0
  -22.7238  -10.2132   20.3052 C   0  0  0  0  0  0
  -21.6847   -6.0737   22.5278 C   0  0  0  0  0  0
  -21.4017   -6.5641   23.8217 C   0  0  0  0  0  0
  -21.3657   -5.6790   24.9179 C   0  0  0  0  0  0
  -21.6036   -4.3052   24.7221 C   0  0  0  0  0  0
  -21.8821   -3.8145   23.4345 C   0  0  0  0  0  0
  -21.9193   -4.6964   22.3403 C   0  0  0  0  0  0
  -22.7805  -13.5211   21.1882 C   0  0  0  0  0  0
  -22.1659   -4.2152   21.0984 F   0  0  0  0  0  0
  -21.5623   -3.4535   25.7735 F   0  0  0  0  0  0
  -29.9847  -13.5259   20.4010 N   0  0  0  0  0  0
  -26.2922  -12.9410   20.3271 N   0  0  0  0  0  0
  -25.9317  -11.6545   20.5738 N   0  0  0  0  0  0
  -22.0454  -12.8205   22.0441 N   0  0  0  0  0  0
  -25.4157  -15.1902   20.4166 N   0  0  0  0  0  0
  -31.8375  -14.7678   20.1632 O   0  0  0  0  0  0
  -21.6633   -6.8882   21.4244 O   0  0  0  0  0  0
  -22.3499  -14.5528   20.6743 O   0  0  0  0  0  0
  -24.6301  -31.8567   23.2006 C   0  0  0  0  0  0
  -25.9134  -32.4759   23.8343 C   0  0  1  0  0  0
  -27.2159  -27.2600   20.1163 C   0  0  0  0  0  0
  -25.5938  -33.8565   24.2270 N   0  0  0  0  0  0
  -23.4258  -30.4818   21.5442 C   0  0  2  0  0  0
  -24.8714  -28.9333   20.1088 C   0  0  0  0  0  0
  -22.7488  -29.4612   22.4907 C   0  0  0  0  0  0
  -18.0282  -28.1385   22.8481 C   0  0  0  0  0  0
  -24.1493  -36.7293   23.2637 C   0  0  0  0  0  0
  -25.9725  -30.7692   21.3810 C   0  0  0  0  0  0
  -26.0430  -29.3915   20.7222 C   0  0  0  0  0  0
  -27.2127  -28.5642   20.7211 C   0  0  0  0  0  0
  -26.0187  -26.8802   19.4632 C   0  0  0  0  0  0
  -24.8647  -27.6861   19.4716 C   0  0  0  0  0  0
  -23.6433  -29.8216   20.1586 C   0  0  0  0  0  0
  -25.4118  -36.3076   24.0327 C   0  0  1  0  0  0
  -20.5886  -28.3696   23.1263 C   0  0  2  0  0  0
  -20.6771  -26.9413   22.5401 C   0  0  0  0  0  0
  -19.5752  -26.6380   21.5200 C   0  0  0  0  0  0
  -18.1931  -26.7922   22.1619 C   0  0  0  0  0  0
  -19.1537  -28.8852   23.2869 C   0  0  0  0  0  0
  -18.9467  -30.1448   23.8888 C   0  0  0  0  0  0
  -17.6471  -30.6585   24.0556 C   0  0  0  0  0  0
  -25.9056  -34.9443   23.5098 C   0  0  0  0  0  0
  -16.5357  -29.9089   23.6325 C   0  0  0  0  0  0
  -16.7269  -28.6505   23.0345 C   0  0  0  0  0  0
  -26.4500  -31.6576   25.0726 C   0  0  0  0  0  0
  -25.3719  -31.3731   26.1440 C   0  0  0  0  0  0
  -27.0333  -30.2988   24.6205 C   0  0  0  0  0  0
  -27.6057  -32.4308   25.7504 C   0  0  0  0  0  0
  -27.5578  -37.1807   24.8462 C   0  0  0  0  0  0
  -21.4194  -29.3052   22.3656 N   0  0  0  0  0  0
  -26.4290  -37.3776   23.9404 N   0  0  0  0  0  0
  -24.6951  -31.0536   22.0983 N   0  0  0  0  0  0
  -23.4195  -28.8135   23.2985 O   0  0  0  0  0  0
  -28.3257  -26.3828   20.2044 O   0  0  0  0  0  0
  -26.5626  -34.8913   22.4667 O   0  0  0  0  0  0
  -23.5452  -32.1394   23.7301 O   0  0  0  0  0  0
  -31.7874  -18.9950   19.3478 C   0  0  0  0  0  0
  -31.4201  -17.6654   19.6196 C   0  0  0  0  0  0
  -31.0086  -20.0925   19.7648 C   0  0  0  0  0  0
  -29.7743  -19.8866   20.4369 C   0  0  0  0  0  0
  -30.2429  -17.3414   20.3330 C   0  0  0  0  0  0
  -29.4159  -18.4863   20.7076 C   0  0  0  0  0  0
  -28.7216  -23.7726   20.6476 C   0  0  0  0  0  0
  -31.5721  -21.4812   19.4997 C   0  0  0  0  0  0
  -26.6191  -18.4190   20.2826 C   0  0  0  0  0  0
  -28.9577  -21.1631   20.9644 C   0  0  0  0  0  0
  -28.3179  -24.9717   19.6700 C   0  0  0  0  0  0
  -29.9032  -15.9097   20.6177 N   0  0  0  0  0  0
  -28.8192  -22.4701   20.1819 N   0  0  0  0  0  0
  -28.9129  -24.0229   21.8396 O   0  0  0  0  0  0
  -27.8977  -18.1309   21.5404 S   0  0  0  0  0  0
  -31.4668  -12.5476   19.1841 H   0  0  0  0  0  0
  -30.3495  -11.4750   19.9749 H   0  0  0  0  0  0
  -29.7928  -11.7188   17.5326 H   0  0  0  0  0  0
  -29.6437  -13.4484   17.7203 H   0  0  0  0  0  0
  -27.8990  -11.2804   18.9288 H   0  0  0  0  0  0
  -27.3780  -12.5072   17.8019 H   0  0  0  0  0  0
  -27.6285  -14.2543   19.4572 H   0  0  0  0  0  0
  -28.7093  -12.2045   21.4515 H   0  0  0  0  0  0
  -28.4157  -13.8964   21.7756 H   0  0  0  0  0  0
  -25.2766   -9.5674   22.4763 H   0  0  0  0  0  0
  -23.9996   -7.4622   22.7468 H   0  0  0  0  0  0
  -21.0829   -8.8776   19.8948 H   0  0  0  0  0  0
  -22.3698  -10.9674   19.6161 H   0  0  0  0  0  0
  -21.2019   -7.6151   23.9728 H   0  0  0  0  0  0
  -21.1471   -6.0519   25.9087 H   0  0  0  0  0  0
  -22.0602   -2.7605   23.2846 H   0  0  0  0  0  0
  -22.4044  -11.9864   22.4837 H   0  0  0  0  0  0
  -21.1068  -13.1232   22.2634 H   0  0  0  0  0  0
  -24.6513  -15.8420   20.5520 H   0  0  0  0  0  0
  -26.2767  -15.6378   20.1334 H   0  0  0  0  0  0
  -26.7188  -32.5411   23.1073 H   0  0  0  0  0  0
  -25.0060  -33.9713   25.0394 H   0  0  0  0  0  0
  -22.7219  -31.3040   21.4010 H   0  0  0  0  0  0
  -23.3755  -35.9625   23.3293 H   0  0  0  0  0  0
  -24.3574  -36.8921   22.2050 H   0  0  0  0  0  0
  -23.7252  -37.6497   23.6662 H   0  0  0  0  0  0
  -26.1081  -31.5295   20.6109 H   0  0  0  0  0  0
  -26.8517  -30.8205   22.0109 H   0  0  0  0  0  0
  -28.1071  -28.9073   21.2222 H   0  0  0  0  0  0
  -25.9072  -25.9475   18.9389 H   0  0  0  0  0  0
  -23.9695  -27.3344   18.9779 H   0  0  0  0  0  0
  -23.7671  -30.6011   19.4054 H   0  0  0  0  0  0
  -22.7611  -29.2571   19.8521 H   0  0  0  0  0  0
  -25.1300  -36.1925   25.0821 H   0  0  0  0  0  0
  -20.9976  -28.3269   24.1384 H   0  0  0  0  0  0
  -20.5658  -26.2304   23.3604 H   0  0  0  0  0  0
  -21.6644  -26.7426   22.1208 H   0  0  0  0  0  0
  -19.6919  -25.6290   21.1235 H   0  0  0  0  0  0
  -19.6692  -27.3178   20.6722 H   0  0  0  0  0  0
  -17.4196  -26.6638   21.4033 H   0  0  0  0  0  0
  -18.0358  -26.0069   22.9027 H   0  0  0  0  0  0
  -19.7942  -30.7259   24.2261 H   0  0  0  0  0  0
  -17.5027  -31.6266   24.5162 H   0  0  0  0  0  0
  -15.5361  -30.2996   23.7652 H   0  0  0  0  0  0
  -15.8662  -28.0825   22.7069 H   0  0  0  0  0  0
  -24.5918  -30.7047   25.7780 H   0  0  0  0  0  0
  -24.8877  -32.2892   26.4828 H   0  0  0  0  0  0
  -25.8034  -30.8950   27.0238 H   0  0  0  0  0  0
  -26.2907  -29.6748   24.1218 H   0  0  0  0  0  0
  -27.3991  -29.7246   25.4727 H   0  0  0  0  0  0
  -27.8797  -30.4256   23.9451 H   0  0  0  0  0  0
  -27.2673  -33.3618   26.2060 H   0  0  0  0  0  0
  -28.3882  -32.6842   25.0342 H   0  0  0  0  0  0
  -28.0695  -31.8435   26.5437 H   0  0  0  0  0  0
  -28.2596  -38.0105   24.7500 H   0  0  0  0  0  0
  -28.1071  -36.2632   24.6293 H   0  0  0  0  0  0
  -27.2283  -37.1458   25.8863 H   0  0  0  0  0  0
  -20.9360  -29.8806   21.6900 H   0  0  0  0  0  0
  -26.0167  -38.2847   24.1413 H   0  0  0  0  0  0
  -32.7160  -19.1675   18.8213 H   0  0  0  0  0  0
  -32.0912  -16.9065   19.2526 H   0  0  0  0  0  0
  -31.0424  -21.9605   18.6768 H   0  0  0  0  0  0
  -32.6280  -21.4402   19.2305 H   0  0  0  0  0  0
  -31.5005  -22.1175   20.3827 H   0  0  0  0  0  0
  -26.7855  -17.7679   19.4244 H   0  0  0  0  0  0
  -26.6247  -19.4506   19.9306 H   0  0  0  0  0  0
  -25.6303  -18.2043   20.6869 H   0  0  0  0  0  0
  -29.4052  -21.4093   21.9285 H   0  0  0  0  0  0
  -27.9422  -20.8607   21.2057 H   0  0  0  0  0  0
  -27.3721  -24.6596   19.2448 H   0  0  0  0  0  0
  -29.0205  -24.9503   18.8367 H   0  0  0  0  0  0
  -28.9547  -15.7629   20.9280 H   0  0  0  0  0  0
  -28.6651  -22.3553   19.1894 H   0  0  0  0  0  0
  1 25  1  0  0  0
  1 30  2  0  0  0
  1 82  1  0  0  0
  2  3  1  0  0  0
  2 25  1  0  0  0
  2 86  1  0  0  0
  2 87  1  0  0  0
  3  4  1  0  0  0
  3 88  1  0  0  0
  3 89  1  0  0  0
  4  5  1  0  0  0
  4 90  1  0  0  0
  4 91  1  0  0  0
  5  6  1  0  0  0
  5 26  1  0  0  0
  5 92  1  0  0  0
  6 25  1  0  0  0
  6 93  1  0  0  0
  6 94  1  0  0  0
  7  8  2  0  0  0
  7 26  1  0  0  0
  7 29  1  0  0  0
  8  9  1  0  0  0
  8 22  1  0  0  0
  9 10  1  0  0  0
  9 27  2  0  0  0
 10 11  2  0  0  0
 10 15  1  0  0  0
 11 12  1  0  0  0
 11 95  1  0  0  0
 12 13  2  0  0  0
 12 96  1  0  0  0
 13 14  1  0  0  0
 13 31  1  0  0  0
 14 15  2  0  0  0
 14 97  1  0  0  0
 15 98  1  0  0  0
 16 17  2  0  0  0
 16 21  1  0  0  0
 16 31  1  0  0  0
 17 18  1  0  0  0
 17 99  1  0  0  0
 18 19  2  0  0  0
 18100  1  0  0  0
 19 20  1  0  0  0
 19 24  1  0  0  0
 20 21  2  0  0  0
 20101  1  0  0  0
 21 23  1  0  0  0
 22 28  1  0  0  0
 22 32  2  0  0  0
 26 27  1  0  0  0
 28102  1  0  0  0
 28103  1  0  0  0
 29104  1  0  0  0
 29105  1  0  0  0
 33 34  1  0  0  0
 33 66  1  0  0  0
 33 70  2  0  0  0
 34 36  1  0  0  0
 34 59  1  0  0  0
 34106  1  0  0  0
 35 44  2  0  0  0
 35 45  1  0  0  0
 35 68  1  0  0  0
 36 56  1  0  0  0
 36107  1  0  0  0
 37 39  1  0  0  0
 37 47  1  0  0  0
 37 66  1  0  0  0
 37108  1  0  0  0
 38 43  2  0  0  0
 38 46  1  0  0  0
 38 47  1  0  0  0
 39 64  1  0  0  0
 39 67  2  0  0  0
 40 52  1  0  0  0
 40 53  2  0  0  0
 40 58  1  0  0  0
 41109  1  0  0  0
 41110  1  0  0  0
 41111  1  0  0  0
 41 48  1  0  0  0
 42 43  1  0  0  0
 42 66  1  0  0  0
 42112  1  0  0  0
 42113  1  0  0  0
 43 44  1  0  0  0
 44114  1  0  0  0
 45 46  2  0  0  0
 45115  1  0  0  0
 46116  1  0  0  0
 47117  1  0  0  0
 47118  1  0  0  0
 48 56  1  0  0  0
 48 65  1  0  0  0
 48119  1  0  0  0
 49 50  1  0  0  0
 49 53  1  0  0  0
 49 64  1  0  0  0
 49120  1  0  0  0
 50 51  1  0  0  0
 50121  1  0  0  0
 50122  1  0  0  0
 51 52  1  0  0  0
 51123  1  0  0  0
 51124  1  0  0  0
 52125  1  0  0  0
 52126  1  0  0  0
 53 54  1  0  0  0
 54 55  2  0  0  0
 54127  1  0  0  0
 55 57  1  0  0  0
 55128  1  0  0  0
 56 69  2  0  0  0
 57 58  2  0  0  0
 57129  1  0  0  0
 58130  1  0  0  0
 59 60  1  0  0  0
 59 61  1  0  0  0
 59 62  1  0  0  0
 60131  1  0  0  0
 60132  1  0  0  0
 60133  1  0  0  0
 61134  1  0  0  0
 61135  1  0  0  0
 61136  1  0  0  0
 62137  1  0  0  0
 62138  1  0  0  0
 62139  1  0  0  0
 63 65  1  0  0  0
 63140  1  0  0  0
 63141  1  0  0  0
 63142  1  0  0  0
 64143  1  0  0  0
 65144  1  0  0  0
 68 81  1  0  0  0
 71 72  2  0  0  0
 71 73  1  0  0  0
 71145  1  0  0  0
 72 75  1  0  0  0
 72146  1  0  0  0
 73 74  2  0  0  0
 73 78  1  0  0  0
 74 76  1  0  0  0
 74 80  1  0  0  0
 75 76  2  0  0  0
 75 82  1  0  0  0
 76 85  1  0  0  0
 77 81  1  0  0  0
 77 83  1  0  0  0
 77 84  2  0  0  0
 78147  1  0  0  0
 78148  1  0  0  0
 78149  1  0  0  0
 79 85  1  0  0  0
 79150  1  0  0  0
 79151  1  0  0  0
 79152  1  0  0  0
 80 83  1  0  0  0
 80153  1  0  0  0
 80154  1  0  0  0
 81155  1  0  0  0
 81156  1  0  0  0
 82157  1  0  0  0
 83158  1  0  0  0
M  ISO  4   1 100  68 101  81 101  82 100
M  END
> <chiral flag>
0

> <version>
0

> <s_m_source_file>
/data/baiqing/PycharmProjects/Reinvent-master-3.2/result/LINK_invent/BTK/process_docking_weight1_custom_product_contain_oxygen_bond_distance_aromatic_linkinvent_7_9_3/rearranged_h_0054.sdf

> <i_m_source_file_index>
51

> <r_mmod_Potential_Energy-OPLS-2005>
87.5472412109375

> <r_mmod_Stretch_Energy-OPLS-2005>
130.591430664062

> <r_mmod_Bend_Energy-OPLS-2005>
170.702575683594

> <r_mmod_Torsional_Energy-OPLS-2005>
220.543914794922

> <r_mmod_Improper_Torsional_Energy-OPLS-2005>
4.67908525466919

> <r_mmod_Van_der_Waal_Energy-OPLS-2005>
145.411544799805

> <r_mmod_Electrostatic_Energy-OPLS-2005>
-426.974273681641

> <r_mmod_Solvation_Energy-OPLS-2005>
-242.263290405273

> <b_mmod_Minimization_Converged-OPLS-2005>
0

> <r_mmod_RMS_Derivative-OPLS-2005>
1.67879891395569

$$$$
51
                    3D
 Structure written by MMmdl.
157165  0  0  1  0            999 V2000
  -30.5812  -14.7498   20.4582 C   0  0  0  0  0  0
  -30.4268  -12.4438   19.5016 C   0  0  0  0  0  0
  -29.5223  -12.5274   18.2520 C   0  0  0  0  0  0
  -28.0377  -12.3702   18.6412 C   0  0  0  0  0  0
  -27.6462  -13.2379   19.8658 C   0  0  2  0  0  0
  -28.6829  -13.1517   21.0076 C   0  0  0  0  0  0
  -25.2510  -13.8210   20.5727 C   0  0  0  0  0  0
  -24.1799  -13.0439   20.9209 C   0  0  0  0  0  0
  -24.6398  -11.6917   20.8740 C   0  0  0  0  0  0
  -23.9055  -10.4308   21.0386 C   0  0  0  0  0  0
  -24.3607   -9.4235   21.9163 C   0  0  0  0  0  0
  -23.6296   -8.2269   22.0728 C   0  0  0  0  0  0
  -22.4276   -8.0290   21.3547 C   0  0  0  0  0  0
  -21.9913   -9.0252   20.4641 C   0  0  0  0  0  0
  -22.7229  -10.2133   20.3038 C   0  0  0  0  0  0
  -21.6853   -6.0746   22.5283 C   0  0  0  0  0  0
  -21.4011   -6.5651   23.8222 C   0  0  0  0  0  0
  -21.3681   -5.6793   24.9180 C   0  0  0  0  0  0
  -21.6044   -4.3059   24.7221 C   0  0  0  0  0  0
  -21.8813   -3.8158   23.4336 C   0  0  0  0  0  0
  -21.9200   -4.6976   22.3398 C   0  0  0  0  0  0
  -22.7834  -13.5211   21.1902 C   0  0  0  0  0  0
  -22.1661   -4.2163   21.0979 F   0  0  0  0  0  0
  -21.5630   -3.4549   25.7742 F   0  0  0  0  0  0
  -29.9921  -13.5027   20.4462 N   0  0  0  0  0  0
  -26.2955  -12.9425   20.3333 N   0  0  0  0  0  0
  -25.9341  -11.6561   20.5757 N   0  0  0  0  0  0
  -22.0495  -12.8188   22.0451 N   0  0  0  0  0  0
  -25.4195  -15.1964   20.4170 N   0  0  0  0  0  0
  -31.7311  -14.8822   20.0283 O   0  0  0  0  0  0
  -21.6634   -6.8888   21.4250 O   0  0  0  0  0  0
  -22.3519  -14.5540   20.6776 O   0  0  0  0  0  0
  -24.6303  -31.8561   23.1975 C   0  0  0  0  0  0
  -25.9145  -32.4738   23.8319 C   0  0  1  0  0  0
  -27.2014  -27.2415   20.1134 C   0  0  0  0  0  0
  -25.5993  -33.8553   24.2256 N   0  0  0  0  0  0
  -23.4256  -30.4771   21.5423 C   0  0  2  0  0  0
  -24.8660  -28.9256   20.1021 C   0  0  0  0  0  0
  -22.7492  -29.4564   22.4895 C   0  0  0  0  0  0
  -18.0298  -28.1389   22.8483 C   0  0  0  0  0  0
  -24.1492  -36.7253   23.2643 C   0  0  0  0  0  0
  -25.9729  -30.7523   21.3871 C   0  0  0  0  0  0
  -26.0353  -29.3765   20.7243 C   0  0  0  0  0  0
  -27.1998  -28.5438   20.7236 C   0  0  0  0  0  0
  -26.0093  -26.8621   19.4605 C   0  0  0  0  0  0
  -24.8592  -27.6796   19.4582 C   0  0  0  0  0  0
  -23.6409  -29.8190   20.1527 C   0  0  0  0  0  0
  -25.4146  -36.3060   24.0305 C   0  0  1  0  0  0
  -20.5894  -28.3684   23.1288 C   0  0  2  0  0  0
  -20.6809  -26.9409   22.5428 C   0  0  0  0  0  0
  -19.5784  -26.6382   21.5234 C   0  0  0  0  0  0
  -18.1948  -26.7939   22.1614 C   0  0  0  0  0  0
  -19.1541  -28.8853   23.2881 C   0  0  0  0  0  0
  -18.9463  -30.1462   23.8887 C   0  0  0  0  0  0
  -17.6462  -30.6601   24.0551 C   0  0  0  0  0  0
  -25.9093  -34.9425   23.5071 C   0  0  0  0  0  0
  -16.5354  -29.9102   23.6333 C   0  0  0  0  0  0
  -16.7283  -28.6514   23.0364 C   0  0  0  0  0  0
  -26.4526  -31.6574   25.0706 C   0  0  0  0  0  0
  -25.3770  -31.3676   26.1431 C   0  0  0  0  0  0
  -27.0389  -30.3005   24.6181 C   0  0  0  0  0  0
  -27.6079  -32.4321   25.7486 C   0  0  0  0  0  0
  -27.5578  -37.1800   24.8472 C   0  0  0  0  0  0
  -21.4199  -29.3010   22.3650 N   0  0  0  0  0  0
  -26.4299  -37.3780   23.9400 N   0  0  0  0  0  0
  -24.6948  -31.0474   22.0978 N   0  0  0  0  0  0
  -23.4182  -28.8132   23.3017 O   0  0  0  0  0  0
  -28.3070  -26.3622   20.2038 O   0  0  0  0  0  0
  -26.5613  -34.8892   22.4607 O   0  0  0  0  0  0
  -23.5447  -32.1411   23.7229 O   0  0  0  0  0  0
  -29.4285  -18.4609   20.7719 C   0  0  0  0  0  0
  -29.0369  -17.0354   18.8516 C   0  0  0  0  0  0
  -28.8630  -19.6391   20.1099 C   0  0  0  0  0  0
  -28.2864  -19.3938   18.8323 C   0  0  0  0  0  0
  -29.5048  -17.1271   20.1779 C   0  0  0  0  0  0
  -28.4378  -18.1347   18.2027 C   0  0  0  0  0  0
  -28.2587  -23.6566   20.4025 C   0  0  0  0  0  0
  -27.4230  -20.4363   18.1305 C   0  0  0  0  0  0
  -29.9575  -22.4579   19.0704 C   0  0  0  0  0  0
  -28.7426  -21.0918   20.8017 C   0  0  0  0  0  0
  -28.4031  -25.0111   19.5342 C   0  0  0  0  0  0
  -29.8415  -15.8533   20.8789 N   0  0  0  0  0  0
  -28.8762  -22.4414   20.0570 N   0  0  0  0  0  0
  -27.5222  -23.7076   21.3913 O   0  0  0  0  0  0
  -27.9449  -17.9538   16.9525 F   0  0  0  0  0  0
  -31.4764  -12.5454   19.2198 H   0  0  0  0  0  0
  -30.3421  -11.4601   19.9648 H   0  0  0  0  0  0
  -29.8068  -11.7646   17.5236 H   0  0  0  0  0  0
  -29.6745  -13.4922   17.7644 H   0  0  0  0  0  0
  -27.8617  -11.3162   18.8599 H   0  0  0  0  0  0
  -27.3942  -12.6129   17.7948 H   0  0  0  0  0  0
  -27.6441  -14.2703   19.5156 H   0  0  0  0  0  0
  -28.7114  -12.1493   21.4403 H   0  0  0  0  0  0
  -28.4136  -13.8240   21.8230 H   0  0  0  0  0  0
  -25.2744   -9.5748   22.4743 H   0  0  0  0  0  0
  -24.0042   -7.4656   22.7398 H   0  0  0  0  0  0
  -21.0860   -8.8739   19.8926 H   0  0  0  0  0  0
  -22.3660  -10.9658   19.6153 H   0  0  0  0  0  0
  -21.1984   -7.6152   23.9747 H   0  0  0  0  0  0
  -21.1518   -6.0507   25.9082 H   0  0  0  0  0  0
  -22.0581   -2.7619   23.2818 H   0  0  0  0  0  0
  -22.4111  -11.9844   22.4840 H   0  0  0  0  0  0
  -21.1131  -13.1226   22.2710 H   0  0  0  0  0  0
  -24.6535  -15.8531   20.5216 H   0  0  0  0  0  0
  -26.2855  -15.6416   20.1396 H   0  0  0  0  0  0
  -26.7151  -32.5329   23.1009 H   0  0  0  0  0  0
  -25.0284  -33.9740   25.0484 H   0  0  0  0  0  0
  -22.7250  -31.3018   21.3999 H   0  0  0  0  0  0
  -23.3778  -35.9566   23.3337 H   0  0  0  0  0  0
  -24.3568  -36.8861   22.2051 H   0  0  0  0  0  0
  -23.7207  -37.6435   23.6668 H   0  0  0  0  0  0
  -26.1238  -31.5127   20.6196 H   0  0  0  0  0  0
  -26.8464  -30.7888   22.0260 H   0  0  0  0  0  0
  -28.0929  -28.8795   21.2326 H   0  0  0  0  0  0
  -25.9186  -25.9115   18.9613 H   0  0  0  0  0  0
  -23.9624  -27.3330   18.9620 H   0  0  0  0  0  0
  -23.7710  -30.6021   19.4048 H   0  0  0  0  0  0
  -22.7554  -29.2623   19.8412 H   0  0  0  0  0  0
  -25.1335  -36.1908   25.0794 H   0  0  0  0  0  0
  -20.9955  -28.3265   24.1422 H   0  0  0  0  0  0
  -20.5737  -26.2300   23.3642 H   0  0  0  0  0  0
  -21.6692  -26.7498   22.1194 H   0  0  0  0  0  0
  -19.6962  -25.6294   21.1278 H   0  0  0  0  0  0
  -19.6717  -27.3195   20.6765 H   0  0  0  0  0  0
  -17.4244  -26.6685   21.3985 H   0  0  0  0  0  0
  -18.0305  -26.0082   22.8992 H   0  0  0  0  0  0
  -19.7942  -30.7287   24.2232 H   0  0  0  0  0  0
  -17.5029  -31.6278   24.5172 H   0  0  0  0  0  0
  -15.5359  -30.3005   23.7680 H   0  0  0  0  0  0
  -15.8675  -28.0837   22.7091 H   0  0  0  0  0  0
  -24.5968  -30.7009   25.7748 H   0  0  0  0  0  0
  -24.8930  -32.2809   26.4885 H   0  0  0  0  0  0
  -25.8114  -30.8825   27.0182 H   0  0  0  0  0  0
  -26.2958  -29.6756   24.1208 H   0  0  0  0  0  0
  -27.4101  -29.7254   25.4673 H   0  0  0  0  0  0
  -27.8846  -30.4326   23.9431 H   0  0  0  0  0  0
  -27.2716  -33.3645   26.2038 H   0  0  0  0  0  0
  -28.3931  -32.6841   25.0348 H   0  0  0  0  0  0
  -28.0726  -31.8452   26.5418 H   0  0  0  0  0  0
  -28.2606  -38.0092   24.7552 H   0  0  0  0  0  0
  -28.1052  -36.2610   24.6299 H   0  0  0  0  0  0
  -27.2265  -37.1474   25.8867 H   0  0  0  0  0  0
  -20.9384  -29.8707   21.6839 H   0  0  0  0  0  0
  -26.0155  -38.2828   24.1451 H   0  0  0  0  0  0
  -29.7804  -18.5812   21.7864 H   0  0  0  0  0  0
  -29.0446  -16.0870   18.3362 H   0  0  0  0  0  0
  -26.9050  -21.0775   18.8421 H   0  0  0  0  0  0
  -26.6389  -19.9557   17.5420 H   0  0  0  0  0  0
  -28.0199  -21.0541   17.4618 H   0  0  0  0  0  0
  -30.8137  -22.9982   19.4789 H   0  0  0  0  0  0
  -29.6541  -22.9346   18.1376 H   0  0  0  0  0  0
  -30.3100  -21.4582   18.8229 H   0  0  0  0  0  0
  -29.4734  -21.1215   21.6099 H   0  0  0  0  0  0
  -27.7744  -21.0965   21.3046 H   0  0  0  0  0  0
  -27.7383  -24.9289   18.6770 H   0  0  0  0  0  0
  -29.3990  -25.0148   19.0946 H   0  0  0  0  0  0
  -29.1432  -15.5950   21.5603 H   0  0  0  0  0  0
  1 25  1  0  0  0
  1 30  2  0  0  0
  1 82  1  0  0  0
  2  3  1  0  0  0
  2 25  1  0  0  0
  2 86  1  0  0  0
  2 87  1  0  0  0
  3  4  1  0  0  0
  3 88  1  0  0  0
  3 89  1  0  0  0
  4  5  1  0  0  0
  4 90  1  0  0  0
  4 91  1  0  0  0
  5  6  1  0  0  0
  5 26  1  0  0  0
  5 92  1  0  0  0
  6 25  1  0  0  0
  6 93  1  0  0  0
  6 94  1  0  0  0
  7  8  2  0  0  0
  7 26  1  0  0  0
  7 29  1  0  0  0
  8  9  1  0  0  0
  8 22  1  0  0  0
  9 10  1  0  0  0
  9 27  2  0  0  0
 10 11  2  0  0  0
 10 15  1  0  0  0
 11 12  1  0  0  0
 11 95  1  0  0  0
 12 13  2  0  0  0
 12 96  1  0  0  0
 13 14  1  0  0  0
 13 31  1  0  0  0
 14 15  2  0  0  0
 14 97  1  0  0  0
 15 98  1  0  0  0
 16 17  2  0  0  0
 16 21  1  0  0  0
 16 31  1  0  0  0
 17 18  1  0  0  0
 17 99  1  0  0  0
 18 19  2  0  0  0
 18100  1  0  0  0
 19 20  1  0  0  0
 19 24  1  0  0  0
 20 21  2  0  0  0
 20101  1  0  0  0
 21 23  1  0  0  0
 22 28  1  0  0  0
 22 32  2  0  0  0
 26 27  1  0  0  0
 28102  1  0  0  0
 28103  1  0  0  0
 29104  1  0  0  0
 29105  1  0  0  0
 33 34  1  0  0  0
 33 66  1  0  0  0
 33 70  2  0  0  0
 34 36  1  0  0  0
 34 59  1  0  0  0
 34106  1  0  0  0
 35 44  2  0  0  0
 35 45  1  0  0  0
 35 68  1  0  0  0
 36 56  1  0  0  0
 36107  1  0  0  0
 37 39  1  0  0  0
 37 47  1  0  0  0
 37 66  1  0  0  0
 37108  1  0  0  0
 38 43  2  0  0  0
 38 46  1  0  0  0
 38 47  1  0  0  0
 39 64  1  0  0  0
 39 67  2  0  0  0
 40 52  1  0  0  0
 40 53  2  0  0  0
 40 58  1  0  0  0
 41109  1  0  0  0
 41110  1  0  0  0
 41111  1  0  0  0
 41 48  1  0  0  0
 42 43  1  0  0  0
 42 66  1  0  0  0
 42112  1  0  0  0
 42113  1  0  0  0
 43 44  1  0  0  0
 44114  1  0  0  0
 45 46  2  0  0  0
 45115  1  0  0  0
 46116  1  0  0  0
 47117  1  0  0  0
 47118  1  0  0  0
 48 56  1  0  0  0
 48 65  1  0  0  0
 48119  1  0  0  0
 49 50  1  0  0  0
 49 53  1  0  0  0
 49 64  1  0  0  0
 49120  1  0  0  0
 50 51  1  0  0  0
 50121  1  0  0  0
 50122  1  0  0  0
 51 52  1  0  0  0
 51123  1  0  0  0
 51124  1  0  0  0
 52125  1  0  0  0
 52126  1  0  0  0
 53 54  1  0  0  0
 54 55  2  0  0  0
 54127  1  0  0  0
 55 57  1  0  0  0
 55128  1  0  0  0
 56 69  2  0  0  0
 57 58  2  0  0  0
 57129  1  0  0  0
 58130  1  0  0  0
 59 60  1  0  0  0
 59 61  1  0  0  0
 59 62  1  0  0  0
 60131  1  0  0  0
 60132  1  0  0  0
 60133  1  0  0  0
 61134  1  0  0  0
 61135  1  0  0  0
 61136  1  0  0  0
 62137  1  0  0  0
 62138  1  0  0  0
 62139  1  0  0  0
 63 65  1  0  0  0
 63140  1  0  0  0
 63141  1  0  0  0
 63142  1  0  0  0
 64143  1  0  0  0
 65144  1  0  0  0
 68 81  1  0  0  0
 71 73  2  0  0  0
 71 75  1  0  0  0
 71145  1  0  0  0
 72 75  2  0  0  0
 72 76  1  0  0  0
 72146  1  0  0  0
 73 74  1  0  0  0
 73 80  1  0  0  0
 74 76  2  0  0  0
 74 78  1  0  0  0
 75 82  1  0  0  0
 76 85  1  0  0  0
 77 81  1  0  0  0
 77 83  1  0  0  0
 77 84  2  0  0  0
 78147  1  0  0  0
 78148  1  0  0  0
 78149  1  0  0  0
 79 83  1  0  0  0
 79150  1  0  0  0
 79151  1  0  0  0
 79152  1  0  0  0
 80 83  1  0  0  0
 80153  1  0  0  0
 80154  1  0  0  0
 81155  1  0  0  0
 81156  1  0  0  0
 82157  1  0  0  0
M  ISO  4   1 100  68 101  81 101  82 100
M  END
> <chiral flag>
0

> <version>
0

> <s_m_source_file>
/data/baiqing/PycharmProjects/Reinvent-master-3.2/result/LINK_invent/BTK/process_docking_weight1_custom_product_contain_oxygen_bond_distance_aromatic_linkinvent_7_9_3/rearranged_h_0054.sdf

> <i_m_source_file_index>
52

> <r_mmod_Potential_Energy-OPLS-2005>
257.448333740234

> <r_mmod_Stretch_Energy-OPLS-2005>
144.293884277344

> <r_mmod_Bend_Energy-OPLS-2005>
183.322204589844

> <r_mmod_Torsional_Energy-OPLS-2005>
264.858703613281

> <r_mmod_Improper_Torsional_Energy-OPLS-2005>
6.50964212417603

> <r_mmod_Van_der_Waal_Energy-OPLS-2005>
137.440582275391

> <r_mmod_Electrostatic_Energy-OPLS-2005>
-334.553314208984

> <r_mmod_Solvation_Energy-OPLS-2005>
-235.380249023438

> <b_mmod_Minimization_Converged-OPLS-2005>
0

> <r_mmod_RMS_Derivative-OPLS-2005>
4.28713512420654

$$$$
52
                    3D
 Structure written by MMmdl.
154162  0  0  1  0            999 V2000
  -30.6235  -14.7325   20.4538 C   0  0  0  0  0  0
  -30.4282  -12.4446   19.4797 C   0  0  0  0  0  0
  -29.5087  -12.5078   18.2398 C   0  0  0  0  0  0
  -28.0325  -12.3427   18.6466 C   0  0  0  0  0  0
  -27.6426  -13.2338   19.8547 C   0  0  2  0  0  0
  -28.6866  -13.1658   20.9922 C   0  0  0  0  0  0
  -25.2505  -13.8212   20.5705 C   0  0  0  0  0  0
  -24.1800  -13.0448   20.9215 C   0  0  0  0  0  0
  -24.6386  -11.6926   20.8739 C   0  0  0  0  0  0
  -23.9051  -10.4302   21.0401 C   0  0  0  0  0  0
  -24.3595   -9.4217   21.9181 C   0  0  0  0  0  0
  -23.6279   -8.2246   22.0747 C   0  0  0  0  0  0
  -22.4253   -8.0289   21.3550 C   0  0  0  0  0  0
  -21.9894   -9.0249   20.4642 C   0  0  0  0  0  0
  -22.7221  -10.2135   20.3050 C   0  0  0  0  0  0
  -21.6861   -6.0741   22.5283 C   0  0  0  0  0  0
  -21.4015   -6.5638   23.8221 C   0  0  0  0  0  0
  -21.3655   -5.6794   24.9178 C   0  0  0  0  0  0
  -21.6039   -4.3055   24.7228 C   0  0  0  0  0  0
  -21.8819   -3.8152   23.4351 C   0  0  0  0  0  0
  -21.9187   -4.6967   22.3417 C   0  0  0  0  0  0
  -22.7822  -13.5216   21.1886 C   0  0  0  0  0  0
  -22.1654   -4.2151   21.0997 F   0  0  0  0  0  0
  -21.5629   -3.4529   25.7728 F   0  0  0  0  0  0
  -29.9935  -13.5082   20.4160 N   0  0  0  0  0  0
  -26.2931  -12.9414   20.3289 N   0  0  0  0  0  0
  -25.9322  -11.6556   20.5756 N   0  0  0  0  0  0
  -22.0467  -12.8187   22.0433 N   0  0  0  0  0  0
  -25.4221  -15.1945   20.4147 N   0  0  0  0  0  0
  -31.8035  -14.8229   20.1045 O   0  0  0  0  0  0
  -21.6642   -6.8869   21.4241 O   0  0  0  0  0  0
  -22.3496  -14.5522   20.6744 O   0  0  0  0  0  0
  -24.6321  -31.8552   23.2004 C   0  0  0  0  0  0
  -25.9154  -32.4747   23.8350 C   0  0  1  0  0  0
  -27.2146  -27.2561   20.1267 C   0  0  0  0  0  0
  -25.5953  -33.8551   24.2280 N   0  0  0  0  0  0
  -23.4288  -30.4787   21.5442 C   0  0  2  0  0  0
  -24.8755  -28.9304   20.1074 C   0  0  0  0  0  0
  -22.7524  -29.4593   22.4931 C   0  0  0  0  0  0
  -18.0293  -28.1377   22.8488 C   0  0  0  0  0  0
  -24.1489  -36.7287   23.2639 C   0  0  0  0  0  0
  -25.9751  -30.7654   21.3825 C   0  0  0  0  0  0
  -26.0462  -29.3880   20.7241 C   0  0  0  0  0  0
  -27.2172  -28.5622   20.7271 C   0  0  0  0  0  0
  -26.0230  -26.8813   19.4629 C   0  0  0  0  0  0
  -24.8688  -27.6860   19.4641 C   0  0  0  0  0  0
  -23.6467  -29.8173   20.1586 C   0  0  0  0  0  0
  -25.4112  -36.3066   24.0329 C   0  0  1  0  0  0
  -20.5900  -28.3689   23.1280 C   0  0  2  0  0  0
  -20.6783  -26.9413   22.5409 C   0  0  0  0  0  0
  -19.5751  -26.6377   21.5220 C   0  0  0  0  0  0
  -18.1935  -26.7925   22.1634 C   0  0  0  0  0  0
  -19.1545  -28.8852   23.2873 C   0  0  0  0  0  0
  -18.9462  -30.1462   23.8880 C   0  0  0  0  0  0
  -17.6455  -30.6581   24.0557 C   0  0  0  0  0  0
  -25.9060  -34.9433   23.5111 C   0  0  0  0  0  0
  -16.5347  -29.9074   23.6330 C   0  0  0  0  0  0
  -16.7278  -28.6490   23.0356 C   0  0  0  0  0  0
  -26.4516  -31.6566   25.0745 C   0  0  0  0  0  0
  -25.3743  -31.3728   26.1472 C   0  0  0  0  0  0
  -27.0347  -30.2974   24.6237 C   0  0  0  0  0  0
  -27.6096  -32.4280   25.7499 C   0  0  0  0  0  0
  -27.5575  -37.1799   24.8461 C   0  0  0  0  0  0
  -21.4229  -29.3030   22.3676 N   0  0  0  0  0  0
  -26.4280  -37.3766   23.9415 N   0  0  0  0  0  0
  -24.6980  -31.0518   22.0986 N   0  0  0  0  0  0
  -23.4236  -28.8135   23.3028 O   0  0  0  0  0  0
  -28.2965  -26.3441   20.2121 O   0  0  0  0  0  0
  -26.5623  -34.8906   22.4680 O   0  0  0  0  0  0
  -23.5477  -32.1369   23.7307 O   0  0  0  0  0  0
  -30.1623  -20.0186   22.8832 C   0  0  0  0  0  0
  -29.7253  -21.1873   22.2272 C   0  0  0  0  0  0
  -29.4490  -19.8789   20.2102 C   0  0  0  0  0  0
  -30.2653  -18.7720   22.2251 C   0  0  0  0  0  0
  -29.8971  -18.6505   20.8601 C   0  0  0  0  0  0
  -29.3626  -21.1783   20.8637 C   0  0  0  0  0  0
  -28.9790  -23.7698   20.5859 C   0  0  0  0  0  0
  -30.8093  -17.5946   23.0166 C   0  0  0  0  0  0
  -30.1100  -17.2759   20.0723 C   0  0  0  0  0  0
  -28.0453  -24.8845   19.9162 C   0  0  0  0  0  0
  -28.8599  -22.4270   20.2272 N   0  0  0  0  0  0
  -29.8603  -15.8741   20.6405 N   0  0  0  0  0  0
  -29.8127  -24.1424   21.4174 O   0  0  0  0  0  0
  -31.4713  -12.5560   19.1764 H   0  0  0  0  0  0
  -30.3601  -11.4659   19.9571 H   0  0  0  0  0  0
  -29.7857  -11.7350   17.5210 H   0  0  0  0  0  0
  -29.6415  -13.4642   17.7311 H   0  0  0  0  0  0
  -27.8748  -11.2940   18.8975 H   0  0  0  0  0  0
  -27.3785  -12.5521   17.7988 H   0  0  0  0  0  0
  -27.6385  -14.2571   19.4794 H   0  0  0  0  0  0
  -28.7134  -12.1696   21.4363 H   0  0  0  0  0  0
  -28.4211  -13.8529   21.7965 H   0  0  0  0  0  0
  -25.2736   -9.5666   22.4766 H   0  0  0  0  0  0
  -24.0003   -7.4626   22.7453 H   0  0  0  0  0  0
  -21.0839   -8.8750   19.8945 H   0  0  0  0  0  0
  -22.3681  -10.9667   19.6159 H   0  0  0  0  0  0
  -21.2012   -7.6144   23.9706 H   0  0  0  0  0  0
  -21.1480   -6.0534   25.9084 H   0  0  0  0  0  0
  -22.0595   -2.7616   23.2849 H   0  0  0  0  0  0
  -22.4064  -11.9827   22.4805 H   0  0  0  0  0  0
  -21.1103  -13.1236   22.2662 H   0  0  0  0  0  0
  -24.6631  -15.8575   20.5306 H   0  0  0  0  0  0
  -26.2759  -15.6269   20.0874 H   0  0  0  0  0  0
  -26.7235  -32.5394   23.1106 H   0  0  0  0  0  0
  -25.0103  -33.9676   25.0423 H   0  0  0  0  0  0
  -22.7238  -31.2998   21.4003 H   0  0  0  0  0  0
  -23.3744  -35.9624   23.3283 H   0  0  0  0  0  0
  -24.3590  -36.8930   22.2058 H   0  0  0  0  0  0
  -23.7236  -37.6486   23.6670 H   0  0  0  0  0  0
  -26.1117  -31.5253   20.6115 H   0  0  0  0  0  0
  -26.8548  -30.8166   22.0128 H   0  0  0  0  0  0
  -28.1072  -28.8999   21.2377 H   0  0  0  0  0  0
  -25.9401  -25.9391   18.9428 H   0  0  0  0  0  0
  -23.9762  -27.3372   18.9631 H   0  0  0  0  0  0
  -23.7717  -30.5926   19.4023 H   0  0  0  0  0  0
  -22.7649  -29.2508   19.8547 H   0  0  0  0  0  0
  -25.1289  -36.1919   25.0820 H   0  0  0  0  0  0
  -20.9973  -28.3246   24.1407 H   0  0  0  0  0  0
  -20.5693  -26.2295   23.3607 H   0  0  0  0  0  0
  -21.6648  -26.7442   22.1187 H   0  0  0  0  0  0
  -19.6916  -25.6284   21.1250 H   0  0  0  0  0  0
  -19.6686  -27.3185   20.6750 H   0  0  0  0  0  0
  -17.4211  -26.6665   21.4038 H   0  0  0  0  0  0
  -18.0334  -26.0059   22.9026 H   0  0  0  0  0  0
  -19.7937  -30.7289   24.2229 H   0  0  0  0  0  0
  -17.5007  -31.6255   24.5173 H   0  0  0  0  0  0
  -15.5351  -30.2972   23.7646 H   0  0  0  0  0  0
  -15.8679  -28.0801   22.7078 H   0  0  0  0  0  0
  -24.5844  -30.7181   25.7779 H   0  0  0  0  0  0
  -24.9026  -32.2911   26.4987 H   0  0  0  0  0  0
  -25.8038  -30.8792   27.0203 H   0  0  0  0  0  0
  -26.2931  -29.6718   24.1256 H   0  0  0  0  0  0
  -27.4010  -29.7244   25.4769 H   0  0  0  0  0  0
  -27.8830  -30.4233   23.9502 H   0  0  0  0  0  0
  -27.2748  -33.3589   26.2087 H   0  0  0  0  0  0
  -28.3903  -32.6815   25.0316 H   0  0  0  0  0  0
  -28.0774  -31.8386   26.5396 H   0  0  0  0  0  0
  -28.2584  -38.0099   24.7508 H   0  0  0  0  0  0
  -28.1070  -36.2635   24.6278 H   0  0  0  0  0  0
  -27.2303  -37.1449   25.8863 H   0  0  0  0  0  0
  -20.9429  -29.8756   21.6873 H   0  0  0  0  0  0
  -26.0159  -38.2845   24.1399 H   0  0  0  0  0  0
  -30.4365  -20.0963   23.9264 H   0  0  0  0  0  0
  -29.6644  -22.0948   22.8081 H   0  0  0  0  0  0
  -29.1775  -19.8224   19.1662 H   0  0  0  0  0  0
  -31.3402  -17.9325   23.9072 H   0  0  0  0  0  0
  -31.5178  -17.0112   22.4285 H   0  0  0  0  0  0
  -29.9953  -16.9433   23.3380 H   0  0  0  0  0  0
  -31.1401  -17.3076   19.7144 H   0  0  0  0  0  0
  -29.5064  -17.3424   19.1677 H   0  0  0  0  0  0
  -27.0445  -24.6173   20.2595 H   0  0  0  0  0  0
  -28.0622  -24.7408   18.8361 H   0  0  0  0  0  0
  -28.2731  -22.2786   19.4167 H   0  0  0  0  0  0
  -28.9166  -15.7038   20.9523 H   0  0  0  0  0  0
  1 25  1  0  0  0
  1 30  2  0  0  0
  1 82  1  0  0  0
  2  3  1  0  0  0
  2 25  1  0  0  0
  2 84  1  0  0  0
  2 85  1  0  0  0
  3  4  1  0  0  0
  3 86  1  0  0  0
  3 87  1  0  0  0
  4  5  1  0  0  0
  4 88  1  0  0  0
  4 89  1  0  0  0
  5  6  1  0  0  0
  5 26  1  0  0  0
  5 90  1  0  0  0
  6 25  1  0  0  0
  6 91  1  0  0  0
  6 92  1  0  0  0
  7  8  2  0  0  0
  7 26  1  0  0  0
  7 29  1  0  0  0
  8  9  1  0  0  0
  8 22  1  0  0  0
  9 10  1  0  0  0
  9 27  2  0  0  0
 10 11  2  0  0  0
 10 15  1  0  0  0
 11 12  1  0  0  0
 11 93  1  0  0  0
 12 13  2  0  0  0
 12 94  1  0  0  0
 13 14  1  0  0  0
 13 31  1  0  0  0
 14 15  2  0  0  0
 14 95  1  0  0  0
 15 96  1  0  0  0
 16 17  2  0  0  0
 16 21  1  0  0  0
 16 31  1  0  0  0
 17 18  1  0  0  0
 17 97  1  0  0  0
 18 19  2  0  0  0
 18 98  1  0  0  0
 19 20  1  0  0  0
 19 24  1  0  0  0
 20 21  2  0  0  0
 20 99  1  0  0  0
 21 23  1  0  0  0
 22 28  1  0  0  0
 22 32  2  0  0  0
 26 27  1  0  0  0
 28100  1  0  0  0
 28101  1  0  0  0
 29102  1  0  0  0
 29103  1  0  0  0
 33 34  1  0  0  0
 33 66  1  0  0  0
 33 70  2  0  0  0
 34 36  1  0  0  0
 34 59  1  0  0  0
 34104  1  0  0  0
 35 44  2  0  0  0
 35 45  1  0  0  0
 35 68  1  0  0  0
 36 56  1  0  0  0
 36105  1  0  0  0
 37 39  1  0  0  0
 37 47  1  0  0  0
 37 66  1  0  0  0
 37106  1  0  0  0
 38 43  2  0  0  0
 38 46  1  0  0  0
 38 47  1  0  0  0
 39 64  1  0  0  0
 39 67  2  0  0  0
 40 52  1  0  0  0
 40 53  2  0  0  0
 40 58  1  0  0  0
 41107  1  0  0  0
 41108  1  0  0  0
 41109  1  0  0  0
 41 48  1  0  0  0
 42 43  1  0  0  0
 42 66  1  0  0  0
 42110  1  0  0  0
 42111  1  0  0  0
 43 44  1  0  0  0
 44112  1  0  0  0
 45 46  2  0  0  0
 45113  1  0  0  0
 46114  1  0  0  0
 47115  1  0  0  0
 47116  1  0  0  0
 48 56  1  0  0  0
 48 65  1  0  0  0
 48117  1  0  0  0
 49 50  1  0  0  0
 49 53  1  0  0  0
 49 64  1  0  0  0
 49118  1  0  0  0
 50 51  1  0  0  0
 50119  1  0  0  0
 50120  1  0  0  0
 51 52  1  0  0  0
 51121  1  0  0  0
 51122  1  0  0  0
 52123  1  0  0  0
 52124  1  0  0  0
 53 54  1  0  0  0
 54 55  2  0  0  0
 54125  1  0  0  0
 55 57  1  0  0  0
 55126  1  0  0  0
 56 69  2  0  0  0
 57 58  2  0  0  0
 57127  1  0  0  0
 58128  1  0  0  0
 59 60  1  0  0  0
 59 61  1  0  0  0
 59 62  1  0  0  0
 60129  1  0  0  0
 60130  1  0  0  0
 60131  1  0  0  0
 61132  1  0  0  0
 61133  1  0  0  0
 61134  1  0  0  0
 62135  1  0  0  0
 62136  1  0  0  0
 62137  1  0  0  0
 63 65  1  0  0  0
 63138  1  0  0  0
 63139  1  0  0  0
 63140  1  0  0  0
 64141  1  0  0  0
 65142  1  0  0  0
 68 80  1  0  0  0
 71 72  2  0  0  0
 71 74  1  0  0  0
 71143  1  0  0  0
 72 76  1  0  0  0
 72144  1  0  0  0
 73 75  1  0  0  0
 73 76  2  0  0  0
 73145  1  0  0  0
 74 75  2  0  0  0
 74 78  1  0  0  0
 75 79  1  0  0  0
 76 81  1  0  0  0
 77 80  1  0  0  0
 77 81  1  0  0  0
 77 83  2  0  0  0
 78146  1  0  0  0
 78147  1  0  0  0
 78148  1  0  0  0
 79 82  1  0  0  0
 79149  1  0  0  0
 79150  1  0  0  0
 80151  1  0  0  0
 80152  1  0  0  0
 81153  1  0  0  0
 82154  1  0  0  0
M  ISO  4   1 100  68 101  80 101  82 100
M  END
> <chiral flag>
0

> <version>
0

> <s_m_source_file>
/data/baiqing/PycharmProjects/Reinvent-master-3.2/result/LINK_invent/BTK/process_docking_weight1_custom_product_contain_oxygen_bond_distance_aromatic_linkinvent_7_9_3/rearranged_h_0054.sdf

> <i_m_source_file_index>
53

> <r_mmod_Potential_Energy-OPLS-2005>
84.2335357666016

> <r_mmod_Stretch_Energy-OPLS-2005>
124.447174072266

> <r_mmod_Bend_Energy-OPLS-2005>
160.001754760742

> <r_mmod_Torsional_Energy-OPLS-2005>
221.106399536133

> <r_mmod_Improper_Torsional_Energy-OPLS-2005>
7.25744485855103

> <r_mmod_Van_der_Waal_Energy-OPLS-2005>
146.2099609375

> <r_mmod_Electrostatic_Energy-OPLS-2005>
-413.336547851562

> <r_mmod_Solvation_Energy-OPLS-2005>
-247.392776489258

> <b_mmod_Minimization_Converged-OPLS-2005>
0

> <r_mmod_RMS_Derivative-OPLS-2005>
2.29441404342651

$$$$
53
                    3D
 Structure written by MMmdl.
151159  0  0  1  0            999 V2000
  -30.6280  -14.6849   20.5096 C   0  0  0  0  0  0
  -30.4371  -12.4294   19.4419 C   0  0  0  0  0  0
  -29.5025  -12.4851   18.2154 C   0  0  0  0  0  0
  -28.0327  -12.3062   18.6460 C   0  0  0  0  0  0
  -27.6418  -13.2186   19.8385 C   0  0  2  0  0  0
  -28.6876  -13.1302   20.9677 C   0  0  0  0  0  0
  -25.2515  -13.8173   20.5653 C   0  0  0  0  0  0
  -24.1804  -13.0425   20.9190 C   0  0  0  0  0  0
  -24.6380  -11.6899   20.8734 C   0  0  0  0  0  0
  -23.9055  -10.4279   21.0396 C   0  0  0  0  0  0
  -24.3601   -9.4188   21.9174 C   0  0  0  0  0  0
  -23.6276   -8.2231   22.0759 C   0  0  0  0  0  0
  -22.4259   -8.0274   21.3554 C   0  0  0  0  0  0
  -21.9885   -9.0251   20.4667 C   0  0  0  0  0  0
  -22.7216  -10.2126   20.3051 C   0  0  0  0  0  0
  -21.6855   -6.0723   22.5273 C   0  0  0  0  0  0
  -21.4036   -6.5624   23.8208 C   0  0  0  0  0  0
  -21.3653   -5.6776   24.9168 C   0  0  0  0  0  0
  -21.6027   -4.3033   24.7221 C   0  0  0  0  0  0
  -21.8817   -3.8129   23.4338 C   0  0  0  0  0  0
  -21.9190   -4.6953   22.3395 C   0  0  0  0  0  0
  -22.7817  -13.5215   21.1829 C   0  0  0  0  0  0
  -22.1655   -4.2135   21.0980 F   0  0  0  0  0  0
  -21.5608   -3.4523   25.7735 F   0  0  0  0  0  0
  -29.9903  -13.4765   20.3816 N   0  0  0  0  0  0
  -26.2930  -12.9361   20.3210 N   0  0  0  0  0  0
  -25.9299  -11.6515   20.5721 N   0  0  0  0  0  0
  -22.0466  -12.8253   22.0425 N   0  0  0  0  0  0
  -25.4163  -15.1905   20.4048 N   0  0  0  0  0  0
  -31.8300  -14.8005   20.2571 O   0  0  0  0  0  0
  -21.6629   -6.8862   21.4234 O   0  0  0  0  0  0
  -22.3486  -14.5493   20.6630 O   0  0  0  0  0  0
  -24.6281  -31.8597   23.2013 C   0  0  0  0  0  0
  -25.9130  -32.4785   23.8349 C   0  0  1  0  0  0
  -27.2223  -27.2974   20.1423 C   0  0  0  0  0  0
  -25.5941  -33.8580   24.2283 N   0  0  0  0  0  0
  -23.4225  -30.4828   21.5431 C   0  0  2  0  0  0
  -24.8729  -28.9252   20.1232 C   0  0  0  0  0  0
  -22.7484  -29.4634   22.4923 C   0  0  0  0  0  0
  -18.0295  -28.1392   22.8493 C   0  0  0  0  0  0
  -24.1487  -36.7292   23.2632 C   0  0  0  0  0  0
  -25.9657  -30.7841   21.3747 C   0  0  0  0  0  0
  -26.0415  -29.4018   20.7342 C   0  0  0  0  0  0
  -27.2241  -28.5977   20.7374 C   0  0  0  0  0  0
  -26.0347  -26.8726   19.5158 C   0  0  0  0  0  0
  -24.8695  -27.6627   19.5081 C   0  0  0  0  0  0
  -23.6435  -29.8132   20.1608 C   0  0  0  0  0  0
  -25.4104  -36.3083   24.0332 C   0  0  1  0  0  0
  -20.5900  -28.3711   23.1272 C   0  0  2  0  0  0
  -20.6786  -26.9430   22.5405 C   0  0  0  0  0  0
  -19.5754  -26.6391   21.5213 C   0  0  0  0  0  0
  -18.1936  -26.7930   22.1635 C   0  0  0  0  0  0
  -19.1545  -28.8866   23.2883 C   0  0  0  0  0  0
  -18.9468  -30.1465   23.8903 C   0  0  0  0  0  0
  -17.6463  -30.6590   24.0569 C   0  0  0  0  0  0
  -25.9053  -34.9461   23.5098 C   0  0  0  0  0  0
  -16.5363  -29.9095   23.6326 C   0  0  0  0  0  0
  -16.7283  -28.6512   23.0355 C   0  0  0  0  0  0
  -26.4510  -31.6584   25.0712 C   0  0  0  0  0  0
  -25.3752  -31.3736   26.1442 C   0  0  0  0  0  0
  -27.0327  -30.3004   24.6141 C   0  0  0  0  0  0
  -27.6061  -32.4318   25.7494 C   0  0  0  0  0  0
  -27.5572  -37.1793   24.8468 C   0  0  0  0  0  0
  -21.4199  -29.3057   22.3664 N   0  0  0  0  0  0
  -26.4280  -37.3780   23.9427 N   0  0  0  0  0  0
  -24.6908  -31.0606   22.0968 N   0  0  0  0  0  0
  -23.4195  -28.8180   23.3020 O   0  0  0  0  0  0
  -28.3156  -26.4278   20.0362 O   0  0  0  0  0  0
  -26.5610  -34.8931   22.4661 O   0  0  0  0  0  0
  -23.5446  -32.1407   23.7346 O   0  0  0  0  0  0
  -31.8830  -20.4034   21.0307 C   0  0  0  0  0  0
  -31.6202  -19.0266   21.1826 C   0  0  0  0  0  0
  -30.8565  -21.3184   20.7205 C   0  0  0  0  0  0
  -29.2811  -19.4553   20.7059 C   0  0  0  0  0  0
  -30.3142  -18.5035   21.0576 C   0  0  0  0  0  0
  -29.5322  -20.8760   20.5214 C   0  0  0  0  0  0
  -28.7431  -24.1309   21.0600 C   0  0  0  0  0  0
  -28.6420  -25.5145   21.0519 C   0  0  0  0  0  0
  -28.3601  -23.0735   20.0463 C   0  0  0  0  0  0
  -30.1106  -17.0147   21.5675 C   0  0  0  0  0  0
  -28.5507  -21.7721   19.9681 N   0  0  0  0  0  0
  -29.8360  -15.7863   20.7360 N   0  0  0  0  0  0
  -31.4749  -12.5650   19.1323 H   0  0  0  0  0  0
  -30.3893  -11.4488   19.9204 H   0  0  0  0  0  0
  -29.7756  -11.7122   17.4951 H   0  0  0  0  0  0
  -29.6224  -13.4400   17.7009 H   0  0  0  0  0  0
  -27.9118  -11.2610   18.9374 H   0  0  0  0  0  0
  -27.3633  -12.4668   17.7995 H   0  0  0  0  0  0
  -27.6423  -14.2402   19.4538 H   0  0  0  0  0  0
  -28.7144  -12.1259   21.3929 H   0  0  0  0  0  0
  -28.4250  -13.7992   21.7892 H   0  0  0  0  0  0
  -25.2750   -9.5647   22.4736 H   0  0  0  0  0  0
  -23.9965   -7.4619   22.7478 H   0  0  0  0  0  0
  -21.0807   -8.8773   19.9000 H   0  0  0  0  0  0
  -22.3666  -10.9660   19.6146 H   0  0  0  0  0  0
  -21.2066   -7.6138   23.9709 H   0  0  0  0  0  0
  -21.1467   -6.0512   25.9069 H   0  0  0  0  0  0
  -22.0607   -2.7597   23.2844 H   0  0  0  0  0  0
  -22.4092  -11.9933   22.4852 H   0  0  0  0  0  0
  -21.1086  -13.1301   22.2623 H   0  0  0  0  0  0
  -24.6336  -15.8289   20.4962 H   0  0  0  0  0  0
  -26.2445  -15.6368   20.0334 H   0  0  0  0  0  0
  -26.7192  -32.5471   23.1100 H   0  0  0  0  0  0
  -25.0130  -33.9721   25.0456 H   0  0  0  0  0  0
  -22.7173  -31.3040   21.3965 H   0  0  0  0  0  0
  -23.3751  -35.9618   23.3293 H   0  0  0  0  0  0
  -24.3591  -36.8919   22.2047 H   0  0  0  0  0  0
  -23.7244  -37.6498   23.6651 H   0  0  0  0  0  0
  -26.0908  -31.5353   20.5929 H   0  0  0  0  0  0
  -26.8495  -30.8473   21.9981 H   0  0  0  0  0  0
  -28.1287  -28.9624   21.2034 H   0  0  0  0  0  0
  -26.0127  -25.9047   19.0353 H   0  0  0  0  0  0
  -23.9751  -27.2905   19.0270 H   0  0  0  0  0  0
  -23.7758  -30.5897   19.4063 H   0  0  0  0  0  0
  -22.7612  -29.2511   19.8502 H   0  0  0  0  0  0
  -25.1285  -36.1903   25.0822 H   0  0  0  0  0  0
  -21.0025  -28.3280   24.1380 H   0  0  0  0  0  0
  -20.5700  -26.2323   23.3623 H   0  0  0  0  0  0
  -21.6649  -26.7450   22.1185 H   0  0  0  0  0  0
  -19.6926  -25.6301   21.1248 H   0  0  0  0  0  0
  -19.6672  -27.3199   20.6746 H   0  0  0  0  0  0
  -17.4207  -26.6691   21.4040 H   0  0  0  0  0  0
  -18.0324  -26.0066   22.9030 H   0  0  0  0  0  0
  -19.7943  -30.7280   24.2273 H   0  0  0  0  0  0
  -17.5023  -31.6263   24.5176 H   0  0  0  0  0  0
  -15.5369  -30.3010   23.7628 H   0  0  0  0  0  0
  -15.8688  -28.0837   22.7073 H   0  0  0  0  0  0
  -24.5911  -30.7094   25.7798 H   0  0  0  0  0  0
  -24.8958  -32.2916   26.4851 H   0  0  0  0  0  0
  -25.8078  -30.8933   27.0226 H   0  0  0  0  0  0
  -26.2873  -29.6776   24.1163 H   0  0  0  0  0  0
  -27.4053  -29.7231   25.4617 H   0  0  0  0  0  0
  -27.8752  -30.4317   23.9340 H   0  0  0  0  0  0
  -27.2649  -33.3618   26.2058 H   0  0  0  0  0  0
  -28.3872  -32.6874   25.0324 H   0  0  0  0  0  0
  -28.0716  -31.8450   26.5423 H   0  0  0  0  0  0
  -28.2582  -38.0097   24.7515 H   0  0  0  0  0  0
  -28.1075  -36.2626   24.6277 H   0  0  0  0  0  0
  -27.2307  -37.1438   25.8878 H   0  0  0  0  0  0
  -20.9379  -29.8798   21.6884 H   0  0  0  0  0  0
  -26.0155  -38.2852   24.1433 H   0  0  0  0  0  0
  -32.8951  -20.7647   21.1553 H   0  0  0  0  0  0
  -32.4403  -18.3759   21.4584 H   0  0  0  0  0  0
  -31.1167  -22.3577   20.5791 H   0  0  0  0  0  0
  -28.2703  -19.0878   20.5953 H   0  0  0  0  0  0
  -29.1075  -23.6862   21.9734 H   0  0  0  0  0  0
  -28.9021  -26.0620   21.9468 H   0  0  0  0  0  0
  -27.7105  -23.5193   19.2884 H   0  0  0  0  0  0
  -29.2845  -17.0618   22.2781 H   0  0  0  0  0  0
  -30.9708  -16.7706   22.1936 H   0  0  0  0  0  0
  -28.8532  -15.5780   20.6626 H   0  0  0  0  0  0
  1 25  1  0  0  0
  1 30  2  0  0  0
  1 82  1  0  0  0
  2  3  1  0  0  0
  2 25  1  0  0  0
  2 83  1  0  0  0
  2 84  1  0  0  0
  3  4  1  0  0  0
  3 85  1  0  0  0
  3 86  1  0  0  0
  4  5  1  0  0  0
  4 87  1  0  0  0
  4 88  1  0  0  0
  5  6  1  0  0  0
  5 26  1  0  0  0
  5 89  1  0  0  0
  6 25  1  0  0  0
  6 90  1  0  0  0
  6 91  1  0  0  0
  7  8  2  0  0  0
  7 26  1  0  0  0
  7 29  1  0  0  0
  8  9  1  0  0  0
  8 22  1  0  0  0
  9 10  1  0  0  0
  9 27  2  0  0  0
 10 11  2  0  0  0
 10 15  1  0  0  0
 11 12  1  0  0  0
 11 92  1  0  0  0
 12 13  2  0  0  0
 12 93  1  0  0  0
 13 14  1  0  0  0
 13 31  1  0  0  0
 14 15  2  0  0  0
 14 94  1  0  0  0
 15 95  1  0  0  0
 16 17  2  0  0  0
 16 21  1  0  0  0
 16 31  1  0  0  0
 17 18  1  0  0  0
 17 96  1  0  0  0
 18 19  2  0  0  0
 18 97  1  0  0  0
 19 20  1  0  0  0
 19 24  1  0  0  0
 20 21  2  0  0  0
 20 98  1  0  0  0
 21 23  1  0  0  0
 22 28  1  0  0  0
 22 32  2  0  0  0
 26 27  1  0  0  0
 28 99  1  0  0  0
 28100  1  0  0  0
 29101  1  0  0  0
 29102  1  0  0  0
 33 34  1  0  0  0
 33 66  1  0  0  0
 33 70  2  0  0  0
 34 36  1  0  0  0
 34 59  1  0  0  0
 34103  1  0  0  0
 35 44  2  0  0  0
 35 45  1  0  0  0
 35 68  1  0  0  0
 36 56  1  0  0  0
 36104  1  0  0  0
 37 39  1  0  0  0
 37 47  1  0  0  0
 37 66  1  0  0  0
 37105  1  0  0  0
 38 43  2  0  0  0
 38 46  1  0  0  0
 38 47  1  0  0  0
 39 64  1  0  0  0
 39 67  2  0  0  0
 40 52  1  0  0  0
 40 53  2  0  0  0
 40 58  1  0  0  0
 41106  1  0  0  0
 41107  1  0  0  0
 41108  1  0  0  0
 41 48  1  0  0  0
 42 43  1  0  0  0
 42 66  1  0  0  0
 42109  1  0  0  0
 42110  1  0  0  0
 43 44  1  0  0  0
 44111  1  0  0  0
 45 46  2  0  0  0
 45112  1  0  0  0
 46113  1  0  0  0
 47114  1  0  0  0
 47115  1  0  0  0
 48 56  1  0  0  0
 48 65  1  0  0  0
 48116  1  0  0  0
 49 50  1  0  0  0
 49 53  1  0  0  0
 49 64  1  0  0  0
 49117  1  0  0  0
 50 51  1  0  0  0
 50118  1  0  0  0
 50119  1  0  0  0
 51 52  1  0  0  0
 51120  1  0  0  0
 51121  1  0  0  0
 52122  1  0  0  0
 52123  1  0  0  0
 53 54  1  0  0  0
 54 55  2  0  0  0
 54124  1  0  0  0
 55 57  1  0  0  0
 55125  1  0  0  0
 56 69  2  0  0  0
 57 58  2  0  0  0
 57126  1  0  0  0
 58127  1  0  0  0
 59 60  1  0  0  0
 59 61  1  0  0  0
 59 62  1  0  0  0
 60128  1  0  0  0
 60129  1  0  0  0
 60130  1  0  0  0
 61131  1  0  0  0
 61132  1  0  0  0
 61133  1  0  0  0
 62134  1  0  0  0
 62135  1  0  0  0
 62136  1  0  0  0
 63 65  1  0  0  0
 63137  1  0  0  0
 63138  1  0  0  0
 63139  1  0  0  0
 64140  1  0  0  0
 65141  1  0  0  0
 68 78  1  0  0  0
 71 72  2  0  0  0
 71 73  1  0  0  0
 71142  1  0  0  0
 72 75  1  0  0  0
 72143  1  0  0  0
 73 76  2  0  0  0
 73144  1  0  0  0
 74 75  2  0  0  0
 74 76  1  0  0  0
 74145  1  0  0  0
 75 80  1  0  0  0
 76 81  1  0  0  0
 77 78  2  0  0  0
 77 79  1  0  0  0
 77146  1  0  0  0
 78147  1  0  0  0
 79 81  2  0  0  0
 79148  1  0  0  0
 80 82  1  0  0  0
 80149  1  0  0  0
 80150  1  0  0  0
 82151  1  0  0  0
M  ISO  4   1 100  68 101  78 101  82 100
M  END
> <chiral flag>
0

> <version>
0

> <s_m_source_file>
/data/baiqing/PycharmProjects/Reinvent-master-3.2/result/LINK_invent/BTK/process_docking_weight1_custom_product_contain_oxygen_bond_distance_aromatic_linkinvent_7_9_3/rearranged_h_0054.sdf

> <i_m_source_file_index>
54

> <r_mmod_Potential_Energy-OPLS-2005>
146.50276184082

> <r_mmod_Stretch_Energy-OPLS-2005>
88.7774276733398

> <r_mmod_Bend_Energy-OPLS-2005>
213.018127441406

> <r_mmod_Torsional_Energy-OPLS-2005>
267.019104003906

> <r_mmod_Improper_Torsional_Energy-OPLS-2005>
10.0526552200317

> <r_mmod_Van_der_Waal_Energy-OPLS-2005>
130.705291748047

> <r_mmod_Electrostatic_Energy-OPLS-2005>
-409.613403320312

> <r_mmod_Solvation_Energy-OPLS-2005>
-218.938735961914

> <b_mmod_Minimization_Converged-OPLS-2005>
0

> <r_mmod_RMS_Derivative-OPLS-2005>
2.8515510559082

$$$$
54
                    3D
 Structure written by MMmdl.
160168  0  0  1  0            999 V2000
  -30.5961  -14.6151   20.5032 C   0  0  0  0  0  0
  -30.4497  -12.3756   19.4388 C   0  0  0  0  0  0
  -29.5051  -12.4987   18.2234 C   0  0  0  0  0  0
  -28.0347  -12.3083   18.6539 C   0  0  0  0  0  0
  -27.6499  -13.1945   19.8662 C   0  0  2  0  0  0
  -28.6986  -13.0497   20.9911 C   0  0  0  0  0  0
  -25.2554  -13.8116   20.5691 C   0  0  0  0  0  0
  -24.1818  -13.0430   20.9163 C   0  0  0  0  0  0
  -24.6333  -11.6882   20.8728 C   0  0  0  0  0  0
  -23.9012  -10.4282   21.0388 C   0  0  0  0  0  0
  -24.3575   -9.4221   21.9159 C   0  0  0  0  0  0
  -23.6286   -8.2241   22.0728 C   0  0  0  0  0  0
  -22.4267   -8.0251   21.3536 C   0  0  0  0  0  0
  -21.9893   -9.0205   20.4632 C   0  0  0  0  0  0
  -22.7191  -10.2099   20.3048 C   0  0  0  0  0  0
  -21.6854   -6.0722   22.5258 C   0  0  0  0  0  0
  -21.4010   -6.5632   23.8202 C   0  0  0  0  0  0
  -21.3677   -5.6790   24.9170 C   0  0  0  0  0  0
  -21.6054   -4.3050   24.7223 C   0  0  0  0  0  0
  -21.8829   -3.8142   23.4345 C   0  0  0  0  0  0
  -21.9208   -4.6945   22.3406 C   0  0  0  0  0  0
  -22.7829  -13.5205   21.1882 C   0  0  0  0  0  0
  -22.1665   -4.2136   21.0976 F   0  0  0  0  0  0
  -21.5655   -3.4539   25.7738 F   0  0  0  0  0  0
  -30.0118  -13.3866   20.4089 N   0  0  0  0  0  0
  -26.2965  -12.9253   20.3342 N   0  0  0  0  0  0
  -25.9261  -11.6433   20.5759 N   0  0  0  0  0  0
  -22.0521  -12.8173   22.0439 N   0  0  0  0  0  0
  -25.4358  -15.1849   20.4096 N   0  0  0  0  0  0
  -31.8050  -14.7939   20.3362 O   0  0  0  0  0  0
  -21.6650   -6.8836   21.4225 O   0  0  0  0  0  0
  -22.3515  -14.5550   20.6768 O   0  0  0  0  0  0
  -24.6257  -31.8577   23.1971 C   0  0  0  0  0  0
  -25.9104  -32.4760   23.8288 C   0  0  1  0  0  0
  -27.2731  -27.3787   20.1485 C   0  0  0  0  0  0
  -25.5904  -33.8537   24.2201 N   0  0  0  0  0  0
  -23.4150  -30.4777   21.5323 C   0  0  2  0  0  0
  -24.8723  -28.9244   20.1062 C   0  0  0  0  0  0
  -22.7427  -29.4689   22.4934 C   0  0  0  0  0  0
  -18.0310  -28.1409   22.8529 C   0  0  0  0  0  0
  -24.1529  -36.7387   23.2608 C   0  0  0  0  0  0
  -25.9453  -30.8138   21.3512 C   0  0  0  0  0  0
  -26.0285  -29.4441   20.7016 C   0  0  0  0  0  0
  -27.2248  -28.6854   20.7023 C   0  0  0  0  0  0
  -26.1021  -26.8821   19.5332 C   0  0  0  0  0  0
  -24.9156  -27.6530   19.4977 C   0  0  0  0  0  0
  -23.6308  -29.7926   20.1512 C   0  0  0  0  0  0
  -25.4135  -36.3064   24.0262 C   0  0  1  0  0  0
  -20.5903  -28.3775   23.1308 C   0  0  2  0  0  0
  -20.6974  -26.9551   22.5402 C   0  0  0  0  0  0
  -19.5877  -26.6302   21.5348 C   0  0  0  0  0  0
  -18.2012  -26.7938   22.1712 C   0  0  0  0  0  0
  -19.1566  -28.8883   23.2903 C   0  0  0  0  0  0
  -18.9590  -30.1503   23.8893 C   0  0  0  0  0  0
  -17.6667  -30.6739   24.0498 C   0  0  0  0  0  0
  -25.9059  -34.9441   23.5039 C   0  0  0  0  0  0
  -16.5537  -29.9310   23.6244 C   0  0  0  0  0  0
  -16.7316  -28.6662   23.0340 C   0  0  0  0  0  0
  -26.4475  -31.6586   25.0667 C   0  0  0  0  0  0
  -25.3681  -31.3797   26.1399 C   0  0  0  0  0  0
  -27.0297  -30.2988   24.6108 C   0  0  0  0  0  0
  -27.5983  -32.4363   25.7473 C   0  0  0  0  0  0
  -27.5613  -37.1841   24.8421 C   0  0  0  0  0  0
  -21.4129  -29.3180   22.3686 N   0  0  0  0  0  0
  -26.4340  -37.3735   23.9330 N   0  0  0  0  0  0
  -24.6793  -31.0674   22.0871 N   0  0  0  0  0  0
  -23.4186  -28.8236   23.2999 O   0  0  0  0  0  0
  -28.4591  -26.6595   20.2698 O   0  0  0  0  0  0
  -26.5628  -34.8916   22.4625 O   0  0  0  0  0  0
  -23.5430  -32.1336   23.7364 O   0  0  0  0  0  0
  -31.5709  -20.2451   21.0403 C   0  0  0  0  0  0
  -32.7365  -19.7917   21.6853 C   0  0  0  0  0  0
  -31.6887  -17.6317   22.0005 C   0  0  0  0  0  0
  -30.4165  -19.4350   20.9050 C   0  0  0  0  0  0
  -30.5300  -18.0370   21.3029 C   0  0  0  0  0  0
  -32.7720  -18.4998   22.2146 C   0  0  0  0  0  0
  -29.0568  -22.6951   20.2157 C   0  0  0  0  0  0
  -27.5054  -21.3860   21.6018 C   0  0  0  0  0  0
  -29.2008  -20.1304   20.2185 C   0  0  0  0  0  0
  -29.4520  -16.9307   21.1730 C   0  0  0  0  0  0
  -28.3770  -24.0376   20.6858 C   0  0  0  0  0  0
  -28.6778  -25.3044   19.7786 C   0  0  0  0  0  0
  -29.6891  -15.6318   20.4591 N   0  0  0  0  0  0
  -28.6856  -21.4697   20.7200 N   0  0  0  0  0  0
  -29.9501  -22.7792   19.3696 O   0  0  0  0  0  0
  -34.1599  -17.9791   23.0956 Cl  0  0  0  0  0  0
  -31.4882  -12.5242   19.1359 H   0  0  0  0  0  0
  -30.3950  -11.3753   19.8700 H   0  0  0  0  0  0
  -29.7772  -11.7797   17.4494 H   0  0  0  0  0  0
  -29.6233  -13.4880   17.7760 H   0  0  0  0  0  0
  -27.9133  -11.2606   18.9357 H   0  0  0  0  0  0
  -27.3645  -12.4866   17.8156 H   0  0  0  0  0  0
  -27.6637  -14.2230   19.5119 H   0  0  0  0  0  0
  -28.6955  -12.0330   21.3918 H   0  0  0  0  0  0
  -28.4521  -13.7000   21.8345 H   0  0  0  0  0  0
  -25.2714   -9.5745   22.4716 H   0  0  0  0  0  0
  -24.0034   -7.4655   22.7437 H   0  0  0  0  0  0
  -21.0835   -8.8720   19.8919 H   0  0  0  0  0  0
  -22.3638  -10.9633   19.6167 H   0  0  0  0  0  0
  -21.1961   -7.6131   23.9702 H   0  0  0  0  0  0
  -21.1506   -6.0513   25.9079 H   0  0  0  0  0  0
  -22.0590   -2.7592   23.2858 H   0  0  0  0  0  0
  -22.4137  -11.9803   22.4778 H   0  0  0  0  0  0
  -21.1136  -13.1207   22.2714 H   0  0  0  0  0  0
  -24.6664  -15.8437   20.4733 H   0  0  0  0  0  0
  -26.3092  -15.6196   20.1461 H   0  0  0  0  0  0
  -26.7232  -32.5409   23.1090 H   0  0  0  0  0  0
  -25.0028  -33.9669   25.0322 H   0  0  0  0  0  0
  -22.7061  -31.2928   21.3778 H   0  0  0  0  0  0
  -23.3746  -35.9793   23.3258 H   0  0  0  0  0  0
  -24.3637  -36.9042   22.2041 H   0  0  0  0  0  0
  -23.7416  -37.6605   23.6711 H   0  0  0  0  0  0
  -26.0608  -31.5804   20.5805 H   0  0  0  0  0  0
  -26.8287  -30.8635   21.9768 H   0  0  0  0  0  0
  -28.1153  -29.0987   21.1554 H   0  0  0  0  0  0
  -26.0993  -25.8953   19.0931 H   0  0  0  0  0  0
  -24.0392  -27.2431   19.0108 H   0  0  0  0  0  0
  -23.7506  -30.5582   19.3839 H   0  0  0  0  0  0
  -22.7519  -29.2120   19.8596 H   0  0  0  0  0  0
  -25.1384  -36.1860   25.0763 H   0  0  0  0  0  0
  -20.9944  -28.3424   24.1452 H   0  0  0  0  0  0
  -20.6295  -26.2474   23.3681 H   0  0  0  0  0  0
  -21.6814  -26.7827   22.1027 H   0  0  0  0  0  0
  -19.7196  -25.6175   21.1619 H   0  0  0  0  0  0
  -19.6842  -27.2794   20.6667 H   0  0  0  0  0  0
  -17.4327  -26.6782   21.4078 H   0  0  0  0  0  0
  -18.0192  -26.0040   22.9059 H   0  0  0  0  0  0
  -19.8140  -30.7204   24.2214 H   0  0  0  0  0  0
  -17.5318  -31.6443   24.5023 H   0  0  0  0  0  0
  -15.5616  -30.3418   23.7432 H   0  0  0  0  0  0
  -15.8594  -28.1136   22.7082 H   0  0  0  0  0  0
  -24.5773  -30.7221   25.7805 H   0  0  0  0  0  0
  -24.8996  -32.3019   26.4836 H   0  0  0  0  0  0
  -25.7943  -30.8969   27.0182 H   0  0  0  0  0  0
  -26.2845  -29.6719   24.1198 H   0  0  0  0  0  0
  -27.4075  -29.7236   25.4572 H   0  0  0  0  0  0
  -27.8687  -30.4281   23.9250 H   0  0  0  0  0  0
  -27.2487  -33.3606   26.2095 H   0  0  0  0  0  0
  -28.3787  -32.7022   25.0333 H   0  0  0  0  0  0
  -28.0696  -31.8485   26.5353 H   0  0  0  0  0  0
  -28.2593  -38.0162   24.7453 H   0  0  0  0  0  0
  -28.1119  -36.2681   24.6272 H   0  0  0  0  0  0
  -27.2292  -37.1530   25.8800 H   0  0  0  0  0  0
  -20.9355  -29.8905   21.6873 H   0  0  0  0  0  0
  -26.0209  -38.2821   24.1231 H   0  0  0  0  0  0
  -31.5922  -21.2340   20.6118 H   0  0  0  0  0  0
  -33.6028  -20.4298   21.7823 H   0  0  0  0  0  0
  -31.7568  -16.6228   22.3808 H   0  0  0  0  0  0
  -27.4628  -20.4707   22.1860 H   0  0  0  0  0  0
  -26.5840  -21.4414   21.0119 H   0  0  0  0  0  0
  -27.4612  -22.1925   22.3322 H   0  0  0  0  0  0
  -28.3726  -19.4295   20.1374 H   0  0  0  0  0  0
  -29.5419  -20.2821   19.1896 H   0  0  0  0  0  0
  -28.5306  -17.3553   20.7735 H   0  0  0  0  0  0
  -29.1916  -16.6478   22.1995 H   0  0  0  0  0  0
  -28.7121  -24.2039   21.7120 H   0  0  0  0  0  0
  -27.3004  -23.8958   20.7319 H   0  0  0  0  0  0
  -28.2427  -25.1873   18.7877 H   0  0  0  0  0  0
  -29.7570  -25.3106   19.6141 H   0  0  0  0  0  0
  -28.8234  -15.2702   20.0929 H   0  0  0  0  0  0
  1 25  1  0  0  0
  1 30  2  0  0  0
  1 83  1  0  0  0
  2  3  1  0  0  0
  2 25  1  0  0  0
  2 87  1  0  0  0
  2 88  1  0  0  0
  3  4  1  0  0  0
  3 89  1  0  0  0
  3 90  1  0  0  0
  4  5  1  0  0  0
  4 91  1  0  0  0
  4 92  1  0  0  0
  5  6  1  0  0  0
  5 26  1  0  0  0
  5 93  1  0  0  0
  6 25  1  0  0  0
  6 94  1  0  0  0
  6 95  1  0  0  0
  7  8  2  0  0  0
  7 26  1  0  0  0
  7 29  1  0  0  0
  8  9  1  0  0  0
  8 22  1  0  0  0
  9 10  1  0  0  0
  9 27  2  0  0  0
 10 11  2  0  0  0
 10 15  1  0  0  0
 11 12  1  0  0  0
 11 96  1  0  0  0
 12 13  2  0  0  0
 12 97  1  0  0  0
 13 14  1  0  0  0
 13 31  1  0  0  0
 14 15  2  0  0  0
 14 98  1  0  0  0
 15 99  1  0  0  0
 16 17  2  0  0  0
 16 21  1  0  0  0
 16 31  1  0  0  0
 17 18  1  0  0  0
 17100  1  0  0  0
 18 19  2  0  0  0
 18101  1  0  0  0
 19 20  1  0  0  0
 19 24  1  0  0  0
 20 21  2  0  0  0
 20102  1  0  0  0
 21 23  1  0  0  0
 22 28  1  0  0  0
 22 32  2  0  0  0
 26 27  1  0  0  0
 28103  1  0  0  0
 28104  1  0  0  0
 29105  1  0  0  0
 29106  1  0  0  0
 33 34  1  0  0  0
 33 66  1  0  0  0
 33 70  2  0  0  0
 34 36  1  0  0  0
 34 59  1  0  0  0
 34107  1  0  0  0
 35 44  2  0  0  0
 35 45  1  0  0  0
 35 68  1  0  0  0
 36 56  1  0  0  0
 36108  1  0  0  0
 37 39  1  0  0  0
 37 47  1  0  0  0
 37 66  1  0  0  0
 37109  1  0  0  0
 38 43  2  0  0  0
 38 46  1  0  0  0
 38 47  1  0  0  0
 39 64  1  0  0  0
 39 67  2  0  0  0
 40 52  1  0  0  0
 40 53  2  0  0  0
 40 58  1  0  0  0
 41110  1  0  0  0
 41111  1  0  0  0
 41112  1  0  0  0
 41 48  1  0  0  0
 42 43  1  0  0  0
 42 66  1  0  0  0
 42113  1  0  0  0
 42114  1  0  0  0
 43 44  1  0  0  0
 44115  1  0  0  0
 45 46  2  0  0  0
 45116  1  0  0  0
 46117  1  0  0  0
 47118  1  0  0  0
 47119  1  0  0  0
 48 56  1  0  0  0
 48 65  1  0  0  0
 48120  1  0  0  0
 49 50  1  0  0  0
 49 53  1  0  0  0
 49 64  1  0  0  0
 49121  1  0  0  0
 50 51  1  0  0  0
 50122  1  0  0  0
 50123  1  0  0  0
 51 52  1  0  0  0
 51124  1  0  0  0
 51125  1  0  0  0
 52126  1  0  0  0
 52127  1  0  0  0
 53 54  1  0  0  0
 54 55  2  0  0  0
 54128  1  0  0  0
 55 57  1  0  0  0
 55129  1  0  0  0
 56 69  2  0  0  0
 57 58  2  0  0  0
 57130  1  0  0  0
 58131  1  0  0  0
 59 60  1  0  0  0
 59 61  1  0  0  0
 59 62  1  0  0  0
 60132  1  0  0  0
 60133  1  0  0  0
 60134  1  0  0  0
 61135  1  0  0  0
 61136  1  0  0  0
 61137  1  0  0  0
 62138  1  0  0  0
 62139  1  0  0  0
 62140  1  0  0  0
 63 65  1  0  0  0
 63141  1  0  0  0
 63142  1  0  0  0
 63143  1  0  0  0
 64144  1  0  0  0
 65145  1  0  0  0
 68 82  1  0  0  0
 71 72  2  0  0  0
 71 74  1  0  0  0
 71146  1  0  0  0
 72 76  1  0  0  0
 72147  1  0  0  0
 73 75  1  0  0  0
 73 76  2  0  0  0
 73148  1  0  0  0
 74 75  2  0  0  0
 74 79  1  0  0  0
 75 80  1  0  0  0
 76 86  1  0  0  0
 77 81  1  0  0  0
 77 84  1  0  0  0
 77 85  2  0  0  0
 78 84  1  0  0  0
 78149  1  0  0  0
 78150  1  0  0  0
 78151  1  0  0  0
 79 84  1  0  0  0
 79152  1  0  0  0
 79153  1  0  0  0
 80 83  1  0  0  0
 80154  1  0  0  0
 80155  1  0  0  0
 81 82  1  0  0  0
 81156  1  0  0  0
 81157  1  0  0  0
 82158  1  0  0  0
 82159  1  0  0  0
 83160  1  0  0  0
M  ISO  4   1 100  68 101  82 101  83 100
M  END
> <chiral flag>
0

> <version>
0

> <s_m_source_file>
/data/baiqing/PycharmProjects/Reinvent-master-3.2/result/LINK_invent/BTK/process_docking_weight1_custom_product_contain_oxygen_bond_distance_aromatic_linkinvent_7_9_3/rearranged_h_0054.sdf

> <i_m_source_file_index>
55

> <r_mmod_Potential_Energy-OPLS-2005>
46.0614356994629

> <r_mmod_Stretch_Energy-OPLS-2005>
73.7956848144531

> <r_mmod_Bend_Energy-OPLS-2005>
186.824172973633

> <r_mmod_Torsional_Energy-OPLS-2005>
246.092712402344

> <r_mmod_Improper_Torsional_Energy-OPLS-2005>
11.0076465606689

> <r_mmod_Van_der_Waal_Energy-OPLS-2005>
143.121185302734

> <r_mmod_Electrostatic_Energy-OPLS-2005>
-417.101745605469

> <r_mmod_Solvation_Energy-OPLS-2005>
-246.001770019531

> <b_mmod_Minimization_Converged-OPLS-2005>
0

> <r_mmod_RMS_Derivative-OPLS-2005>
10.022027015686

$$$$
55
                    3D
 Structure written by MMmdl.
168177  0  0  1  0            999 V2000
  -30.6578  -14.5979   20.5431 C   0  0  0  0  0  0
  -30.4370  -12.3774   19.4451 C   0  0  0  0  0  0
  -29.5043  -12.5107   18.2209 C   0  0  0  0  0  0
  -28.0272  -12.3486   18.6325 C   0  0  0  0  0  0
  -27.6518  -13.2115   19.8663 C   0  0  2  0  0  0
  -28.6996  -13.0529   20.9938 C   0  0  0  0  0  0
  -25.2386  -13.7952   20.5509 C   0  0  0  0  0  0
  -24.1744  -13.0266   20.9210 C   0  0  0  0  0  0
  -24.6390  -11.6786   20.8796 C   0  0  0  0  0  0
  -23.9069  -10.4199   21.0439 C   0  0  0  0  0  0
  -24.3616   -9.4124   21.9216 C   0  0  0  0  0  0
  -23.6275   -8.2178   22.0772 C   0  0  0  0  0  0
  -22.4261   -8.0240   21.3549 C   0  0  0  0  0  0
  -21.9905   -9.0215   20.4654 C   0  0  0  0  0  0
  -22.7249  -10.2078   20.3072 C   0  0  0  0  0  0
  -21.6832   -6.0719   22.5282 C   0  0  0  0  0  0
  -21.4000   -6.5630   23.8213 C   0  0  0  0  0  0
  -21.3653   -5.6788   24.9178 C   0  0  0  0  0  0
  -21.6044   -4.3051   24.7230 C   0  0  0  0  0  0
  -21.8820   -3.8139   23.4353 C   0  0  0  0  0  0
  -21.9186   -4.6952   22.3407 C   0  0  0  0  0  0
  -22.7778  -13.5101   21.1862 C   0  0  0  0  0  0
  -22.1657   -4.2141   21.0984 F   0  0  0  0  0  0
  -21.5632   -3.4537   25.7744 F   0  0  0  0  0  0
  -30.0227  -13.3884   20.4367 N   0  0  0  0  0  0
  -26.2952  -12.9256   20.3314 N   0  0  0  0  0  0
  -25.9336  -11.6416   20.5838 N   0  0  0  0  0  0
  -22.0426  -12.8141   22.0455 N   0  0  0  0  0  0
  -25.3683  -15.1568   20.3516 N   0  0  0  0  0  0
  -31.8084  -14.7636   20.1285 O   0  0  0  0  0  0
  -21.6610   -6.8855   21.4243 O   0  0  0  0  0  0
  -22.3475  -14.5416   20.6706 O   0  0  0  0  0  0
  -24.6183  -31.8636   23.2054 C   0  0  0  0  0  0
  -25.9058  -32.4799   23.8370 C   0  0  1  0  0  0
  -27.2473  -27.3803   20.1244 C   0  0  0  0  0  0
  -25.5902  -33.8599   24.2302 N   0  0  0  0  0  0
  -23.4109  -30.4822   21.5469 C   0  0  2  0  0  0
  -24.8617  -28.9305   20.1269 C   0  0  0  0  0  0
  -22.7434  -29.4629   22.4985 C   0  0  0  0  0  0
  -18.0275  -28.1374   22.8479 C   0  0  0  0  0  0
  -24.1490  -36.7307   23.2640 C   0  0  0  0  0  0
  -25.9433  -30.8108   21.3669 C   0  0  0  0  0  0
  -26.0228  -29.4360   20.7255 C   0  0  0  0  0  0
  -27.2180  -28.6715   20.7150 C   0  0  0  0  0  0
  -26.0689  -26.9013   19.5151 C   0  0  0  0  0  0
  -24.8818  -27.6627   19.5180 C   0  0  0  0  0  0
  -23.6258  -29.8050   20.1664 C   0  0  0  0  0  0
  -25.4111  -36.3095   24.0338 C   0  0  1  0  0  0
  -20.5870  -28.3662   23.1312 C   0  0  2  0  0  0
  -20.6765  -26.9395   22.5415 C   0  0  0  0  0  0
  -19.5749  -26.6379   21.5206 C   0  0  0  0  0  0
  -18.1925  -26.7919   22.1616 C   0  0  0  0  0  0
  -19.1525  -28.8835   23.2888 C   0  0  0  0  0  0
  -18.9454  -30.1439   23.8901 C   0  0  0  0  0  0
  -17.6458  -30.6578   24.0557 C   0  0  0  0  0  0
  -25.9042  -34.9462   23.5118 C   0  0  0  0  0  0
  -16.5348  -29.9078   23.6328 C   0  0  0  0  0  0
  -16.7265  -28.6497   23.0343 C   0  0  0  0  0  0
  -26.4472  -31.6593   25.0715 C   0  0  0  0  0  0
  -25.3727  -31.3713   26.1458 C   0  0  0  0  0  0
  -27.0307  -30.3035   24.6105 C   0  0  0  0  0  0
  -27.6040  -32.4319   25.7480 C   0  0  0  0  0  0
  -27.5579  -37.1803   24.8464 C   0  0  0  0  0  0
  -21.4156  -29.3027   22.3718 N   0  0  0  0  0  0
  -26.4293  -37.3783   23.9408 N   0  0  0  0  0  0
  -24.6760  -31.0687   22.0977 N   0  0  0  0  0  0
  -23.4178  -28.8177   23.3054 O   0  0  0  0  0  0
  -28.4301  -26.6611   20.0165 O   0  0  0  0  0  0
  -26.5608  -34.8918   22.4681 O   0  0  0  0  0  0
  -23.5363  -32.1413   23.7415 O   0  0  0  0  0  0
  -28.9846  -19.3122   21.2519 C   0  0  0  0  0  0
  -31.2844  -17.7520   20.9630 C   0  0  0  0  0  0
  -30.2204  -19.9815   21.2740 C   0  0  0  0  0  0
  -28.8787  -17.9061   21.0968 C   0  0  0  0  0  0
  -31.3824  -19.1712   21.0954 C   0  0  0  0  0  0
  -30.0354  -17.0788   20.9898 C   0  0  0  0  0  0
  -28.2402  -22.8952   21.0882 C   0  0  0  0  0  0
  -25.2224  -18.4502   21.1069 C   0  0  0  0  0  0
  -26.4020  -18.2125   20.5128 C   0  0  0  0  0  0
  -27.7294  -24.2015   20.4161 C   0  0  0  0  0  0
  -30.1310  -25.0017   20.5734 C   0  0  0  0  0  0
  -30.3679  -23.5156   20.1444 C   0  0  0  0  0  0
  -28.6385  -25.4184   20.7507 C   0  0  1  0  0  0
  -32.7673  -19.7955   21.0909 C   0  0  0  0  0  0
  -27.4867  -17.3034   21.0703 C   0  0  0  0  0  0
  -30.2694  -21.4912   21.6776 C   0  0  0  0  0  0
  -29.5440  -22.5527   20.9027 N   0  0  0  0  0  0
  -29.8760  -15.6275   20.9786 N   0  0  0  0  0  0
  -27.4632  -22.2430   21.7896 O   0  0  0  0  0  0
  -31.4781  -12.4999   19.1412 H   0  0  0  0  0  0
  -30.3676  -11.3774   19.8759 H   0  0  0  0  0  0
  -29.7643  -11.7669   17.4666 H   0  0  0  0  0  0
  -29.6491  -13.4851   17.7515 H   0  0  0  0  0  0
  -27.8613  -11.2945   18.8569 H   0  0  0  0  0  0
  -27.3731  -12.5859   17.7925 H   0  0  0  0  0  0
  -27.6709  -14.2485   19.5333 H   0  0  0  0  0  0
  -28.7043  -12.0276   21.3671 H   0  0  0  0  0  0
  -28.4438  -13.6747   21.8531 H   0  0  0  0  0  0
  -25.2756   -9.5589   22.4800 H   0  0  0  0  0  0
  -23.9964   -7.4561   22.7494 H   0  0  0  0  0  0
  -21.0836   -8.8747   19.8957 H   0  0  0  0  0  0
  -22.3728  -10.9631   19.6187 H   0  0  0  0  0  0
  -21.1990   -7.6138   23.9715 H   0  0  0  0  0  0
  -21.1476   -6.0518   25.9081 H   0  0  0  0  0  0
  -22.0608   -2.7603   23.2854 H   0  0  0  0  0  0
  -22.4032  -11.9805   22.4855 H   0  0  0  0  0  0
  -21.1057  -13.1204   22.2669 H   0  0  0  0  0  0
  -24.5774  -15.7846   20.4412 H   0  0  0  0  0  0
  -26.1665  -15.5981   19.9189 H   0  0  0  0  0  0
  -26.7125  -32.5500   23.1126 H   0  0  0  0  0  0
  -25.0048  -33.9757   25.0443 H   0  0  0  0  0  0
  -22.7022  -31.2995   21.3990 H   0  0  0  0  0  0
  -23.3749  -35.9643   23.3309 H   0  0  0  0  0  0
  -24.3580  -36.8919   22.2052 H   0  0  0  0  0  0
  -23.7248  -37.6514   23.6653 H   0  0  0  0  0  0
  -26.0591  -31.5678   20.5904 H   0  0  0  0  0  0
  -26.8300  -30.8716   21.9862 H   0  0  0  0  0  0
  -28.1212  -29.0698   21.1558 H   0  0  0  0  0  0
  -26.0719  -25.9458   19.0114 H   0  0  0  0  0  0
  -23.9937  -27.2710   19.0418 H   0  0  0  0  0  0
  -23.7404  -30.5745   19.4021 H   0  0  0  0  0  0
  -22.7491  -29.2264   19.8694 H   0  0  0  0  0  0
  -25.1287  -36.1956   25.0832 H   0  0  0  0  0  0
  -20.9948  -28.3215   24.1438 H   0  0  0  0  0  0
  -20.5666  -26.2262   23.3598 H   0  0  0  0  0  0
  -21.6635  -26.7432   22.1210 H   0  0  0  0  0  0
  -19.6919  -25.6293   21.1227 H   0  0  0  0  0  0
  -19.6701  -27.3192   20.6741 H   0  0  0  0  0  0
  -17.4199  -26.6663   21.4015 H   0  0  0  0  0  0
  -18.0325  -26.0059   22.9014 H   0  0  0  0  0  0
  -19.7932  -30.7243   24.2275 H   0  0  0  0  0  0
  -17.5017  -31.6261   24.5149 H   0  0  0  0  0  0
  -15.5349  -30.2981   23.7651 H   0  0  0  0  0  0
  -15.8664  -28.0817   22.7059 H   0  0  0  0  0  0
  -24.5901  -30.7060   25.7792 H   0  0  0  0  0  0
  -24.8914  -32.2872   26.4895 H   0  0  0  0  0  0
  -25.8069  -30.8885   27.0223 H   0  0  0  0  0  0
  -26.2854  -29.6798   24.1154 H   0  0  0  0  0  0
  -27.4073  -29.7270   25.4566 H   0  0  0  0  0  0
  -27.8691  -30.4360   23.9263 H   0  0  0  0  0  0
  -27.2657  -33.3618   26.2065 H   0  0  0  0  0  0
  -28.3841  -32.6887   25.0302 H   0  0  0  0  0  0
  -28.0715  -31.8443   26.5389 H   0  0  0  0  0  0
  -28.2594  -38.0101   24.7504 H   0  0  0  0  0  0
  -28.1079  -36.2631   24.6298 H   0  0  0  0  0  0
  -27.2297  -37.1458   25.8867 H   0  0  0  0  0  0
  -20.9327  -29.8742   21.6928 H   0  0  0  0  0  0
  -26.0185  -38.2864   24.1408 H   0  0  0  0  0  0
  -28.0902  -19.8930   21.4119 H   0  0  0  0  0  0
  -32.1936  -17.1739   20.8784 H   0  0  0  0  0  0
  -24.4939  -19.1054   20.6503 H   0  0  0  0  0  0
  -24.9653  -17.9975   22.0541 H   0  0  0  0  0  0
  -26.6175  -18.6822   19.5628 H   0  0  0  0  0  0
  -26.7075  -24.3945   20.7422 H   0  0  0  0  0  0
  -27.6925  -24.0417   19.3387 H   0  0  0  0  0  0
  -30.6171  -25.6534   19.8460 H   0  0  0  0  0  0
  -30.6545  -25.1837   21.5130 H   0  0  0  0  0  0
  -31.4302  -23.2810   20.2167 H   0  0  0  0  0  0
  -30.1219  -23.4008   19.0874 H   0  0  0  0  0  0
  -28.4848  -25.6566   21.8048 H   0  0  0  0  0  0
  -33.5280  -19.0808   20.7748 H   0  0  0  0  0  0
  -33.0339  -20.1473   22.0879 H   0  0  0  0  0  0
  -32.8076  -20.6389   20.4010 H   0  0  0  0  0  0
  -27.2197  -16.9436   22.0651 H   0  0  0  0  0  0
  -27.5331  -16.4452   20.4077 H   0  0  0  0  0  0
  -31.3035  -21.8009   21.8108 H   0  0  0  0  0  0
  -29.8798  -21.5278   22.6963 H   0  0  0  0  0  0
  -28.9547  -15.3128   21.2382 H   0  0  0  0  0  0
  1 25  1  0  0  0
  1 30  2  0  0  0
  1 88  1  0  0  0
  2  3  1  0  0  0
  2 25  1  0  0  0
  2 90  1  0  0  0
  2 91  1  0  0  0
  3  4  1  0  0  0
  3 92  1  0  0  0
  3 93  1  0  0  0
  4  5  1  0  0  0
  4 94  1  0  0  0
  4 95  1  0  0  0
  5  6  1  0  0  0
  5 26  1  0  0  0
  5 96  1  0  0  0
  6 25  1  0  0  0
  6 97  1  0  0  0
  6 98  1  0  0  0
  7  8  2  0  0  0
  7 26  1  0  0  0
  7 29  1  0  0  0
  8  9  1  0  0  0
  8 22  1  0  0  0
  9 10  1  0  0  0
  9 27  2  0  0  0
 10 11  2  0  0  0
 10 15  1  0  0  0
 11 12  1  0  0  0
 11 99  1  0  0  0
 12 13  2  0  0  0
 12100  1  0  0  0
 13 14  1  0  0  0
 13 31  1  0  0  0
 14 15  2  0  0  0
 14101  1  0  0  0
 15102  1  0  0  0
 16 17  2  0  0  0
 16 21  1  0  0  0
 16 31  1  0  0  0
 17 18  1  0  0  0
 17103  1  0  0  0
 18 19  2  0  0  0
 18104  1  0  0  0
 19 20  1  0  0  0
 19 24  1  0  0  0
 20 21  2  0  0  0
 20105  1  0  0  0
 21 23  1  0  0  0
 22 28  1  0  0  0
 22 32  2  0  0  0
 26 27  1  0  0  0
 28106  1  0  0  0
 28107  1  0  0  0
 29108  1  0  0  0
 29109  1  0  0  0
 33 34  1  0  0  0
 33 66  1  0  0  0
 33 70  2  0  0  0
 34 36  1  0  0  0
 34 59  1  0  0  0
 34110  1  0  0  0
 35 44  2  0  0  0
 35 45  1  0  0  0
 35 68  1  0  0  0
 36 56  1  0  0  0
 36111  1  0  0  0
 37 39  1  0  0  0
 37 47  1  0  0  0
 37 66  1  0  0  0
 37112  1  0  0  0
 38 43  2  0  0  0
 38 46  1  0  0  0
 38 47  1  0  0  0
 39 64  1  0  0  0
 39 67  2  0  0  0
 40 52  1  0  0  0
 40 53  2  0  0  0
 40 58  1  0  0  0
 41113  1  0  0  0
 41114  1  0  0  0
 41115  1  0  0  0
 41 48  1  0  0  0
 42 43  1  0  0  0
 42 66  1  0  0  0
 42116  1  0  0  0
 42117  1  0  0  0
 43 44  1  0  0  0
 44118  1  0  0  0
 45 46  2  0  0  0
 45119  1  0  0  0
 46120  1  0  0  0
 47121  1  0  0  0
 47122  1  0  0  0
 48 56  1  0  0  0
 48 65  1  0  0  0
 48123  1  0  0  0
 49 50  1  0  0  0
 49 53  1  0  0  0
 49 64  1  0  0  0
 49124  1  0  0  0
 50 51  1  0  0  0
 50125  1  0  0  0
 50126  1  0  0  0
 51 52  1  0  0  0
 51127  1  0  0  0
 51128  1  0  0  0
 52129  1  0  0  0
 52130  1  0  0  0
 53 54  1  0  0  0
 54 55  2  0  0  0
 54131  1  0  0  0
 55 57  1  0  0  0
 55132  1  0  0  0
 56 69  2  0  0  0
 57 58  2  0  0  0
 57133  1  0  0  0
 58134  1  0  0  0
 59 60  1  0  0  0
 59 61  1  0  0  0
 59 62  1  0  0  0
 60135  1  0  0  0
 60136  1  0  0  0
 60137  1  0  0  0
 61138  1  0  0  0
 61139  1  0  0  0
 61140  1  0  0  0
 62141  1  0  0  0
 62142  1  0  0  0
 62143  1  0  0  0
 63 65  1  0  0  0
 63144  1  0  0  0
 63145  1  0  0  0
 63146  1  0  0  0
 64147  1  0  0  0
 65148  1  0  0  0
 68 83  1  0  0  0
 71 73  2  0  0  0
 71 74  1  0  0  0
 71149  1  0  0  0
 72 75  2  0  0  0
 72 76  1  0  0  0
 72150  1  0  0  0
 73 75  1  0  0  0
 73 86  1  0  0  0
 74 76  2  0  0  0
 74 85  1  0  0  0
 75 84  1  0  0  0
 76 88  1  0  0  0
 77 80  1  0  0  0
 77 87  1  0  0  0
 77 89  2  0  0  0
 78 79  2  0  0  0
 78151  1  0  0  0
 78152  1  0  0  0
 79 85  1  0  0  0
 79153  1  0  0  0
 80 83  1  0  0  0
 80154  1  0  0  0
 80155  1  0  0  0
 81 82  1  0  0  0
 81 83  1  0  0  0
 81156  1  0  0  0
 81157  1  0  0  0
 82 87  1  0  0  0
 82158  1  0  0  0
 82159  1  0  0  0
 83160  1  0  0  0
 84161  1  0  0  0
 84162  1  0  0  0
 84163  1  0  0  0
 85164  1  0  0  0
 85165  1  0  0  0
 86 87  1  0  0  0
 86166  1  0  0  0
 86167  1  0  0  0
 88168  1  0  0  0
M  ISO  4   1 100  68 101  83 101  88 100
M  END
> <chiral flag>
0

> <version>
0

> <s_m_source_file>
/data/baiqing/PycharmProjects/Reinvent-master-3.2/result/LINK_invent/BTK/process_docking_weight1_custom_product_contain_oxygen_bond_distance_aromatic_linkinvent_7_9_3/rearranged_h_0054.sdf

> <i_m_source_file_index>
56

> <r_mmod_Potential_Energy-OPLS-2005>
57.8036117553711

> <r_mmod_Stretch_Energy-OPLS-2005>
63.9540214538574

> <r_mmod_Bend_Energy-OPLS-2005>
139.05224609375

> <r_mmod_Torsional_Energy-OPLS-2005>
275.449859619141

> <r_mmod_Improper_Torsional_Energy-OPLS-2005>
6.58525085449219

> <r_mmod_Van_der_Waal_Energy-OPLS-2005>
163.74365234375

> <r_mmod_Electrostatic_Energy-OPLS-2005>
-403.304748535156

> <r_mmod_Solvation_Energy-OPLS-2005>
-215.871490478516

> <b_mmod_Minimization_Converged-OPLS-2005>
0

> <r_mmod_RMS_Derivative-OPLS-2005>
0.74968695640564

$$$$
56
                    3D
 Structure written by MMmdl.
155163  0  0  1  0            999 V2000
  -30.5862  -14.7739   20.4993 C   0  0  0  0  0  0
  -30.4434  -12.4823   19.4670 C   0  0  0  0  0  0
  -29.5154  -12.5142   18.2341 C   0  0  0  0  0  0
  -28.0390  -12.3326   18.6426 C   0  0  0  0  0  0
  -27.6391  -13.2274   19.8456 C   0  0  2  0  0  0
  -28.6835  -13.1606   20.9780 C   0  0  0  0  0  0
  -25.2516  -13.8184   20.5664 C   0  0  0  0  0  0
  -24.1804  -13.0448   20.9203 C   0  0  0  0  0  0
  -24.6381  -11.6929   20.8758 C   0  0  0  0  0  0
  -23.9055  -10.4320   21.0414 C   0  0  0  0  0  0
  -24.3592   -9.4242   21.9186 C   0  0  0  0  0  0
  -23.6279   -8.2265   22.0755 C   0  0  0  0  0  0
  -22.4268   -8.0287   21.3546 C   0  0  0  0  0  0
  -21.9893   -9.0276   20.4664 C   0  0  0  0  0  0
  -22.7217  -10.2155   20.3079 C   0  0  0  0  0  0
  -21.6862   -6.0728   22.5277 C   0  0  0  0  0  0
  -21.4023   -6.5630   23.8209 C   0  0  0  0  0  0
  -21.3666   -5.6774   24.9167 C   0  0  0  0  0  0
  -21.6045   -4.3036   24.7209 C   0  0  0  0  0  0
  -21.8824   -3.8139   23.4333 C   0  0  0  0  0  0
  -21.9198   -4.6957   22.3401 C   0  0  0  0  0  0
  -22.7829  -13.5265   21.1812 C   0  0  0  0  0  0
  -22.1660   -4.2143   21.0971 F   0  0  0  0  0  0
  -21.5624   -3.4522   25.7726 F   0  0  0  0  0  0
  -29.9785  -13.5393   20.3935 N   0  0  0  0  0  0
  -26.2919  -12.9379   20.3241 N   0  0  0  0  0  0
  -25.9302  -11.6532   20.5746 N   0  0  0  0  0  0
  -22.0428  -12.8339   22.0384 N   0  0  0  0  0  0
  -25.4205  -15.1908   20.4043 N   0  0  0  0  0  0
  -31.7917  -14.8896   20.2611 O   0  0  0  0  0  0
  -21.6648   -6.8874   21.4239 O   0  0  0  0  0  0
  -22.3553  -14.5560   20.6613 O   0  0  0  0  0  0
  -24.6359  -31.8532   23.1951 C   0  0  0  0  0  0
  -25.9163  -32.4746   23.8321 C   0  0  1  0  0  0
  -27.2186  -27.2208   20.1460 C   0  0  0  0  0  0
  -25.5938  -33.8549   24.2242 N   0  0  0  0  0  0
  -23.4347  -30.4739   21.5421 C   0  0  2  0  0  0
  -24.8821  -28.9171   20.1116 C   0  0  0  0  0  0
  -22.7539  -29.4579   22.4926 C   0  0  0  0  0  0
  -18.0294  -28.1392   22.8495 C   0  0  0  0  0  0
  -24.1476  -36.7293   23.2639 C   0  0  0  0  0  0
  -25.9844  -30.7541   21.3796 C   0  0  0  0  0  0
  -26.0567  -29.3729   20.7231 C   0  0  0  0  0  0
  -27.2287  -28.5425   20.7214 C   0  0  0  0  0  0
  -26.0191  -26.8508   19.4929 C   0  0  0  0  0  0
  -24.8727  -27.6684   19.4782 C   0  0  0  0  0  0
  -23.6561  -29.8081   20.1580 C   0  0  0  0  0  0
  -25.4106  -36.3084   24.0334 C   0  0  1  0  0  0
  -20.5903  -28.3716   23.1274 C   0  0  2  0  0  0
  -20.6781  -26.9436   22.5406 C   0  0  0  0  0  0
  -19.5746  -26.6388   21.5224 C   0  0  0  0  0  0
  -18.1937  -26.7930   22.1643 C   0  0  0  0  0  0
  -19.1547  -28.8876   23.2874 C   0  0  0  0  0  0
  -18.9463  -30.1482   23.8883 C   0  0  0  0  0  0
  -17.6456  -30.6594   24.0564 C   0  0  0  0  0  0
  -25.9063  -34.9447   23.5097 C   0  0  0  0  0  0
  -16.5352  -29.9090   23.6323 C   0  0  0  0  0  0
  -16.7280  -28.6506   23.0352 C   0  0  0  0  0  0
  -26.4503  -31.6572   25.0723 C   0  0  0  0  0  0
  -25.3702  -31.3730   26.1434 C   0  0  0  0  0  0
  -27.0321  -30.2964   24.6232 C   0  0  0  0  0  0
  -27.6068  -32.4309   25.7491 C   0  0  0  0  0  0
  -27.5580  -37.1806   24.8471 C   0  0  0  0  0  0
  -21.4243  -29.3046   22.3666 N   0  0  0  0  0  0
  -26.4281  -37.3791   23.9426 N   0  0  0  0  0  0
  -24.7050  -31.0467   22.0944 N   0  0  0  0  0  0
  -23.4223  -28.8131   23.3045 O   0  0  0  0  0  0
  -28.2914  -26.2833   20.2290 O   0  0  0  0  0  0
  -26.5667  -34.8932   22.4685 O   0  0  0  0  0  0
  -23.5500  -32.1372   23.7226 O   0  0  0  0  0  0
  -29.7654  -18.5271   23.2250 C   0  0  0  0  0  0
  -29.8958  -17.3047   22.5376 C   0  0  0  0  0  0
  -29.7066  -18.5303   20.4499 C   0  0  0  0  0  0
  -29.6045  -19.8267   21.1288 C   0  0  0  0  0  0
  -29.6142  -19.7674   22.5550 C   0  0  0  0  0  0
  -29.8581  -17.2442   21.1309 C   0  0  0  0  0  0
  -29.6892  -21.2153   20.3892 C   0  0  0  0  0  0
  -29.0541  -23.6031   20.3850 C   0  0  0  0  0  0
  -29.4898  -21.0180   23.4159 C   0  0  0  0  0  0
  -30.4827  -24.1216   20.2838 C   0  0  0  0  0  0
  -27.9637  -24.7935   20.1965 C   0  0  0  0  0  0
  -28.7538  -22.3104   20.5780 N   0  0  0  0  0  0
  -29.7481  -15.8864   20.5326 N   0  0  0  0  0  0
  -30.6248  -21.2889   19.5914 O   0  0  0  0  0  0
  -31.4803  -12.6348   19.1605 H   0  0  0  0  0  0
  -30.4100  -11.5056   19.9532 H   0  0  0  0  0  0
  -29.8085  -11.7395   17.5254 H   0  0  0  0  0  0
  -29.6348  -13.4609   17.7075 H   0  0  0  0  0  0
  -27.8918  -11.2843   18.9003 H   0  0  0  0  0  0
  -27.3864  -12.5298   17.7912 H   0  0  0  0  0  0
  -27.6312  -14.2462   19.4604 H   0  0  0  0  0  0
  -28.7288  -12.1588   21.4098 H   0  0  0  0  0  0
  -28.4091  -13.8357   21.7907 H   0  0  0  0  0  0
  -25.2724   -9.5724   22.4762 H   0  0  0  0  0  0
  -23.9999   -7.4673   22.7478 H   0  0  0  0  0  0
  -21.0822   -8.8799   19.8989 H   0  0  0  0  0  0
  -22.3666  -10.9686   19.6201 H   0  0  0  0  0  0
  -21.2020   -7.6133   23.9716 H   0  0  0  0  0  0
  -21.1474   -6.0492   25.9069 H   0  0  0  0  0  0
  -22.0600   -2.7599   23.2833 H   0  0  0  0  0  0
  -22.4003  -12.0027   22.4855 H   0  0  0  0  0  0
  -21.1063  -13.1460   22.2547 H   0  0  0  0  0  0
  -24.6392  -15.8324   20.4839 H   0  0  0  0  0  0
  -26.2450  -15.6195   20.0031 H   0  0  0  0  0  0
  -26.7234  -32.5386   23.1069 H   0  0  0  0  0  0
  -25.0016  -33.9672   25.0341 H   0  0  0  0  0  0
  -22.7315  -31.2970   21.3944 H   0  0  0  0  0  0
  -23.3742  -35.9620   23.3300 H   0  0  0  0  0  0
  -24.3556  -36.8919   22.2051 H   0  0  0  0  0  0
  -23.7204  -37.6488   23.6657 H   0  0  0  0  0  0
  -26.1245  -31.5104   20.6065 H   0  0  0  0  0  0
  -26.8611  -30.8056   22.0135 H   0  0  0  0  0  0
  -28.1276  -28.8905   21.2115 H   0  0  0  0  0  0
  -25.9231  -25.9004   18.9926 H   0  0  0  0  0  0
  -23.9783  -27.3188   18.9812 H   0  0  0  0  0  0
  -23.7889  -30.5851   19.4041 H   0  0  0  0  0  0
  -22.7722  -29.2477   19.8485 H   0  0  0  0  0  0
  -25.1268  -36.1940   25.0825 H   0  0  0  0  0  0
  -20.9973  -28.3285   24.1408 H   0  0  0  0  0  0
  -20.5693  -26.2334   23.3619 H   0  0  0  0  0  0
  -21.6648  -26.7472   22.1192 H   0  0  0  0  0  0
  -19.6903  -25.6292   21.1279 H   0  0  0  0  0  0
  -19.6656  -27.3182   20.6741 H   0  0  0  0  0  0
  -17.4199  -26.6683   21.4055 H   0  0  0  0  0  0
  -18.0344  -26.0071   22.9038 H   0  0  0  0  0  0
  -19.7943  -30.7313   24.2228 H   0  0  0  0  0  0
  -17.5011  -31.6266   24.5182 H   0  0  0  0  0  0
  -15.5352  -30.2987   23.7641 H   0  0  0  0  0  0
  -15.8689  -28.0822   22.7054 H   0  0  0  0  0  0
  -24.5868  -30.7104   25.7742 H   0  0  0  0  0  0
  -24.8898  -32.2892   26.4873 H   0  0  0  0  0  0
  -25.7984  -30.8874   27.0210 H   0  0  0  0  0  0
  -26.2890  -29.6744   24.1225 H   0  0  0  0  0  0
  -27.3928  -29.7212   25.4774 H   0  0  0  0  0  0
  -27.8822  -30.4208   23.9518 H   0  0  0  0  0  0
  -27.2687  -33.3619   26.2063 H   0  0  0  0  0  0
  -28.3868  -32.6858   25.0299 H   0  0  0  0  0  0
  -28.0754  -31.8434   26.5404 H   0  0  0  0  0  0
  -28.2610  -38.0095   24.7529 H   0  0  0  0  0  0
  -28.1061  -36.2632   24.6266 H   0  0  0  0  0  0
  -27.2321  -37.1433   25.8883 H   0  0  0  0  0  0
  -20.9456  -29.8763   21.6850 H   0  0  0  0  0  0
  -26.0169  -38.2877   24.1400 H   0  0  0  0  0  0
  -29.7822  -18.4995   24.3087 H   0  0  0  0  0  0
  -29.9773  -16.3905   23.1106 H   0  0  0  0  0  0
  -29.6786  -18.5267   19.3683 H   0  0  0  0  0  0
  -29.5601  -20.7811   24.4787 H   0  0  0  0  0  0
  -28.5246  -21.4993   23.2593 H   0  0  0  0  0  0
  -30.2763  -21.7375   23.1916 H   0  0  0  0  0  0
  -30.5255  -25.1933   20.4743 H   0  0  0  0  0  0
  -30.8871  -23.9377   19.2895 H   0  0  0  0  0  0
  -31.1234  -23.6337   21.0188 H   0  0  0  0  0  0
  -27.1615  -24.6146   20.9128 H   0  0  0  0  0  0
  -27.5408  -24.5937   19.2138 H   0  0  0  0  0  0
  -28.7894  -15.6106   20.3923 H   0  0  0  0  0  0
  1 25  1  0  0  0
  1 30  2  0  0  0
  1 83  1  0  0  0
  2  3  1  0  0  0
  2 25  1  0  0  0
  2 85  1  0  0  0
  2 86  1  0  0  0
  3  4  1  0  0  0
  3 87  1  0  0  0
  3 88  1  0  0  0
  4  5  1  0  0  0
  4 89  1  0  0  0
  4 90  1  0  0  0
  5  6  1  0  0  0
  5 26  1  0  0  0
  5 91  1  0  0  0
  6 25  1  0  0  0
  6 92  1  0  0  0
  6 93  1  0  0  0
  7  8  2  0  0  0
  7 26  1  0  0  0
  7 29  1  0  0  0
  8  9  1  0  0  0
  8 22  1  0  0  0
  9 10  1  0  0  0
  9 27  2  0  0  0
 10 11  2  0  0  0
 10 15  1  0  0  0
 11 12  1  0  0  0
 11 94  1  0  0  0
 12 13  2  0  0  0
 12 95  1  0  0  0
 13 14  1  0  0  0
 13 31  1  0  0  0
 14 15  2  0  0  0
 14 96  1  0  0  0
 15 97  1  0  0  0
 16 17  2  0  0  0
 16 21  1  0  0  0
 16 31  1  0  0  0
 17 18  1  0  0  0
 17 98  1  0  0  0
 18 19  2  0  0  0
 18 99  1  0  0  0
 19 20  1  0  0  0
 19 24  1  0  0  0
 20 21  2  0  0  0
 20100  1  0  0  0
 21 23  1  0  0  0
 22 28  1  0  0  0
 22 32  2  0  0  0
 26 27  1  0  0  0
 28101  1  0  0  0
 28102  1  0  0  0
 29103  1  0  0  0
 29104  1  0  0  0
 33 34  1  0  0  0
 33 66  1  0  0  0
 33 70  2  0  0  0
 34 36  1  0  0  0
 34 59  1  0  0  0
 34105  1  0  0  0
 35 44  2  0  0  0
 35 45  1  0  0  0
 35 68  1  0  0  0
 36 56  1  0  0  0
 36106  1  0  0  0
 37 39  1  0  0  0
 37 47  1  0  0  0
 37 66  1  0  0  0
 37107  1  0  0  0
 38 43  2  0  0  0
 38 46  1  0  0  0
 38 47  1  0  0  0
 39 64  1  0  0  0
 39 67  2  0  0  0
 40 52  1  0  0  0
 40 53  2  0  0  0
 40 58  1  0  0  0
 41108  1  0  0  0
 41109  1  0  0  0
 41110  1  0  0  0
 41 48  1  0  0  0
 42 43  1  0  0  0
 42 66  1  0  0  0
 42111  1  0  0  0
 42112  1  0  0  0
 43 44  1  0  0  0
 44113  1  0  0  0
 45 46  2  0  0  0
 45114  1  0  0  0
 46115  1  0  0  0
 47116  1  0  0  0
 47117  1  0  0  0
 48 56  1  0  0  0
 48 65  1  0  0  0
 48118  1  0  0  0
 49 50  1  0  0  0
 49 53  1  0  0  0
 49 64  1  0  0  0
 49119  1  0  0  0
 50 51  1  0  0  0
 50120  1  0  0  0
 50121  1  0  0  0
 51 52  1  0  0  0
 51122  1  0  0  0
 51123  1  0  0  0
 52124  1  0  0  0
 52125  1  0  0  0
 53 54  1  0  0  0
 54 55  2  0  0  0
 54126  1  0  0  0
 55 57  1  0  0  0
 55127  1  0  0  0
 56 69  2  0  0  0
 57 58  2  0  0  0
 57128  1  0  0  0
 58129  1  0  0  0
 59 60  1  0  0  0
 59 61  1  0  0  0
 59 62  1  0  0  0
 60130  1  0  0  0
 60131  1  0  0  0
 60132  1  0  0  0
 61133  1  0  0  0
 61134  1  0  0  0
 61135  1  0  0  0
 62136  1  0  0  0
 62137  1  0  0  0
 62138  1  0  0  0
 63 65  1  0  0  0
 63139  1  0  0  0
 63140  1  0  0  0
 63141  1  0  0  0
 64142  1  0  0  0
 65143  1  0  0  0
 68 81  1  0  0  0
 71 72  2  0  0  0
 71 75  1  0  0  0
 71144  1  0  0  0
 72 76  1  0  0  0
 72145  1  0  0  0
 73 74  1  0  0  0
 73 76  2  0  0  0
 73146  1  0  0  0
 74 75  2  0  0  0
 74 77  1  0  0  0
 75 79  1  0  0  0
 76 83  1  0  0  0
 77 82  1  0  0  0
 77 84  2  0  0  0
 78 80  1  0  0  0
 78 81  1  0  0  0
 78 82  2  0  0  0
 79147  1  0  0  0
 79148  1  0  0  0
 79149  1  0  0  0
 80150  1  0  0  0
 80151  1  0  0  0
 80152  1  0  0  0
 81153  1  0  0  0
 81154  1  0  0  0
 83155  1  0  0  0
M  ISO  4   1 100  68 101  81 101  83 100
M  END
> <chiral flag>
0

> <version>
0

> <s_m_source_file>
/data/baiqing/PycharmProjects/Reinvent-master-3.2/result/LINK_invent/BTK/process_docking_weight1_custom_product_contain_oxygen_bond_distance_aromatic_linkinvent_7_9_3/rearranged_h_0054.sdf

> <i_m_source_file_index>
57

> <r_mmod_Potential_Energy-OPLS-2005>
277.170837402344

> <r_mmod_Stretch_Energy-OPLS-2005>
156.607070922852

> <r_mmod_Bend_Energy-OPLS-2005>
185.561828613281

> <r_mmod_Torsional_Energy-OPLS-2005>
269.388031005859

> <r_mmod_Improper_Torsional_Energy-OPLS-2005>
12.6534738540649

> <r_mmod_Van_der_Waal_Energy-OPLS-2005>
145.04948425293

> <r_mmod_Electrostatic_Energy-OPLS-2005>
-392.510345458984

> <r_mmod_Solvation_Energy-OPLS-2005>
-209.173309326172

> <b_mmod_Minimization_Converged-OPLS-2005>
0

> <r_mmod_RMS_Derivative-OPLS-2005>
2.94388866424561

$$$$
57
                    3D
 Structure written by MMmdl.
151159  0  0  1  0            999 V2000
  -30.5832  -14.7890   20.4404 C   0  0  0  0  0  0
  -30.4349  -12.4888   19.4725 C   0  0  0  0  0  0
  -29.5080  -12.5173   18.2364 C   0  0  0  0  0  0
  -28.0374  -12.3308   18.6562 C   0  0  0  0  0  0
  -27.6391  -13.2338   19.8529 C   0  0  2  0  0  0
  -28.6859  -13.1802   20.9858 C   0  0  0  0  0  0
  -25.2464  -13.8174   20.5697 C   0  0  0  0  0  0
  -24.1791  -13.0434   20.9272 C   0  0  0  0  0  0
  -24.6393  -11.6909   20.8784 C   0  0  0  0  0  0
  -23.9077  -10.4291   21.0417 C   0  0  0  0  0  0
  -24.3618   -9.4200   21.9194 C   0  0  0  0  0  0
  -23.6298   -8.2232   22.0748 C   0  0  0  0  0  0
  -22.4278   -8.0283   21.3535 C   0  0  0  0  0  0
  -21.9929   -9.0265   20.4637 C   0  0  0  0  0  0
  -22.7253  -10.2145   20.3060 C   0  0  0  0  0  0
  -21.6851   -6.0733   22.5283 C   0  0  0  0  0  0
  -21.4000   -6.5635   23.8222 C   0  0  0  0  0  0
  -21.3667   -5.6786   24.9189 C   0  0  0  0  0  0
  -21.6053   -4.3052   24.7232 C   0  0  0  0  0  0
  -21.8819   -3.8145   23.4352 C   0  0  0  0  0  0
  -21.9192   -4.6962   22.3410 C   0  0  0  0  0  0
  -22.7809  -13.5212   21.1909 C   0  0  0  0  0  0
  -22.1659   -4.2157   21.0985 F   0  0  0  0  0  0
  -21.5650   -3.4540   25.7743 F   0  0  0  0  0  0
  -29.9768  -13.5520   20.3984 N   0  0  0  0  0  0
  -26.2918  -12.9400   20.3314 N   0  0  0  0  0  0
  -25.9317  -11.6527   20.5760 N   0  0  0  0  0  0
  -22.0428  -12.8236   22.0462 N   0  0  0  0  0  0
  -25.4084  -15.1888   20.3948 N   0  0  0  0  0  0
  -31.7735  -14.8854   20.1273 O   0  0  0  0  0  0
  -21.6641   -6.8884   21.4243 O   0  0  0  0  0  0
  -22.3517  -14.5515   20.6729 O   0  0  0  0  0  0
  -24.6285  -31.8589   23.1957 C   0  0  0  0  0  0
  -25.9121  -32.4781   23.8313 C   0  0  1  0  0  0
  -27.2271  -27.2754   20.1370 C   0  0  0  0  0  0
  -25.5927  -33.8583   24.2258 N   0  0  0  0  0  0
  -23.4250  -30.4780   21.5388 C   0  0  2  0  0  0
  -24.8736  -28.9167   20.1208 C   0  0  0  0  0  0
  -22.7490  -29.4605   22.4886 C   0  0  0  0  0  0
  -18.0311  -28.1411   22.8361 C   0  0  0  0  0  0
  -24.1490  -36.7299   23.2637 C   0  0  0  0  0  0
  -25.9667  -30.7789   21.3689 C   0  0  0  0  0  0
  -26.0447  -29.3946   20.7234 C   0  0  0  0  0  0
  -27.2300  -28.5903   20.7131 C   0  0  0  0  0  0
  -26.0338  -26.8543   19.5206 C   0  0  0  0  0  0
  -24.8726  -27.6521   19.5096 C   0  0  0  0  0  0
  -23.6451  -29.8064   20.1593 C   0  0  0  0  0  0
  -25.4118  -36.3092   24.0331 C   0  0  1  0  0  0
  -20.5903  -28.3652   23.1248 C   0  0  2  0  0  0
  -20.6741  -26.9317   22.5509 C   0  0  0  0  0  0
  -19.5843  -26.6278   21.5194 C   0  0  0  0  0  0
  -18.1934  -26.8020   22.1363 C   0  0  0  0  0  0
  -19.1560  -28.8843   23.2852 C   0  0  0  0  0  0
  -18.9464  -30.1415   23.8942 C   0  0  0  0  0  0
  -17.6453  -30.6541   24.0606 C   0  0  0  0  0  0
  -25.9059  -34.9452   23.5094 C   0  0  0  0  0  0
  -16.5365  -29.9072   23.6282 C   0  0  0  0  0  0
  -16.7294  -28.6531   23.0228 C   0  0  0  0  0  0
  -26.4492  -31.6587   25.0691 C   0  0  0  0  0  0
  -25.3696  -31.3693   26.1387 C   0  0  0  0  0  0
  -27.0323  -30.3010   24.6135 C   0  0  0  0  0  0
  -27.6038  -32.4314   25.7492 C   0  0  0  0  0  0
  -27.5582  -37.1805   24.8471 C   0  0  0  0  0  0
  -21.4219  -29.2929   22.3543 N   0  0  0  0  0  0
  -26.4297  -37.3784   23.9413 N   0  0  0  0  0  0
  -24.6924  -31.0556   22.0925 N   0  0  0  0  0  0
  -23.4176  -28.8240   23.3075 O   0  0  0  0  0  0
  -28.3453  -26.4228   20.0631 O   0  0  0  0  0  0
  -26.5632  -34.8929   22.4661 O   0  0  0  0  0  0
  -23.5435  -32.1398   23.7265 O   0  0  0  0  0  0
  -29.4889  -20.0341   20.4008 C   0  0  0  0  0  0
  -27.7894  -18.3215   20.1056 C   0  0  0  0  0  0
  -27.1918  -20.7136   20.0035 C   0  0  0  0  0  0
  -29.1506  -18.6129   20.3310 C   0  0  0  0  0  0
  -28.5233  -21.1220   20.2530 C   0  0  0  0  0  0
  -26.8336  -19.3487   19.9412 C   0  0  0  0  0  0
  -28.1327  -23.7240   20.0923 C   0  0  0  0  0  0
  -30.2056  -17.4081   20.4538 C   0  0  0  0  0  0
  -28.4036  -25.1283   20.8217 C   0  0  0  0  0  0
  -28.8269  -22.5700   20.4540 N   0  0  0  0  0  0
  -29.8056  -15.9289   20.6210 N   0  0  0  0  0  0
  -27.2728  -23.6963   19.2096 O   0  0  0  0  0  0
  -25.1814  -18.9304   19.6633 Cl  0  0  0  0  0  0
  -31.4734  -12.6280   19.1621 H   0  0  0  0  0  0
  -30.4013  -11.5160   19.9666 H   0  0  0  0  0  0
  -29.7966  -11.7362   17.5332 H   0  0  0  0  0  0
  -29.6277  -13.4648   17.7074 H   0  0  0  0  0  0
  -27.9072  -11.2847   18.9316 H   0  0  0  0  0  0
  -27.3737  -12.5094   17.8104 H   0  0  0  0  0  0
  -27.6291  -14.2542   19.4688 H   0  0  0  0  0  0
  -28.7400  -12.1817   21.4204 H   0  0  0  0  0  0
  -28.4198  -13.8547   21.7999 H   0  0  0  0  0  0
  -25.2737   -9.5712   22.4802 H   0  0  0  0  0  0
  -24.0015   -7.4620   22.7454 H   0  0  0  0  0  0
  -21.0876   -8.8791   19.8926 H   0  0  0  0  0  0
  -22.3701  -10.9704   19.6201 H   0  0  0  0  0  0
  -21.1968   -7.6139   23.9738 H   0  0  0  0  0  0
  -21.1488   -6.0510   25.9103 H   0  0  0  0  0  0
  -22.0581   -2.7606   23.2854 H   0  0  0  0  0  0
  -22.4003  -11.9926   22.4946 H   0  0  0  0  0  0
  -21.1004  -13.1236   22.2529 H   0  0  0  0  0  0
  -24.6122  -15.8148   20.4455 H   0  0  0  0  0  0
  -26.2141  -15.6060   19.9539 H   0  0  0  0  0  0
  -26.7190  -32.5445   23.1059 H   0  0  0  0  0  0
  -25.0058  -33.9736   25.0395 H   0  0  0  0  0  0
  -22.7202  -31.2983   21.3904 H   0  0  0  0  0  0
  -23.3761  -35.9623   23.3300 H   0  0  0  0  0  0
  -24.3562  -36.8928   22.2049 H   0  0  0  0  0  0
  -23.7241  -37.6496   23.6665 H   0  0  0  0  0  0
  -26.0891  -31.5372   20.5931 H   0  0  0  0  0  0
  -26.8495  -30.8421   21.9937 H   0  0  0  0  0  0
  -28.1354  -28.9678   21.1682 H   0  0  0  0  0  0
  -26.0001  -25.8895   19.0355 H   0  0  0  0  0  0
  -23.9799  -27.2811   19.0260 H   0  0  0  0  0  0
  -23.7725  -30.5789   19.4006 H   0  0  0  0  0  0
  -22.7676  -29.2397   19.8491 H   0  0  0  0  0  0
  -25.1297  -36.1935   25.0824 H   0  0  0  0  0  0
  -21.0013  -28.3275   24.1368 H   0  0  0  0  0  0
  -20.5377  -26.2307   23.3762 H   0  0  0  0  0  0
  -21.6645  -26.7190   22.1476 H   0  0  0  0  0  0
  -19.6954  -25.6135   21.1330 H   0  0  0  0  0  0
  -19.7001  -27.2966   20.6629 H   0  0  0  0  0  0
  -17.4392  -26.7030   21.3527 H   0  0  0  0  0  0
  -18.0014  -26.0102   22.8617 H   0  0  0  0  0  0
  -19.7918  -30.7220   24.2383 H   0  0  0  0  0  0
  -17.4965  -31.6211   24.5242 H   0  0  0  0  0  0
  -15.5355  -30.2973   23.7518 H   0  0  0  0  0  0
  -15.8718  -28.0889   22.6826 H   0  0  0  0  0  0
  -24.5905  -30.7047   25.7648 H   0  0  0  0  0  0
  -24.8860  -32.2838   26.4818 H   0  0  0  0  0  0
  -25.7999  -30.8826   27.0147 H   0  0  0  0  0  0
  -26.2875  -29.6781   24.1172 H   0  0  0  0  0  0
  -27.4023  -29.7265   25.4634 H   0  0  0  0  0  0
  -27.8747  -30.4293   23.9337 H   0  0  0  0  0  0
  -27.2652  -33.3618   26.2059 H   0  0  0  0  0  0
  -28.3867  -32.6868   25.0344 H   0  0  0  0  0  0
  -28.0677  -31.8433   26.5421 H   0  0  0  0  0  0
  -28.2599  -38.0102   24.7509 H   0  0  0  0  0  0
  -28.1081  -36.2631   24.6311 H   0  0  0  0  0  0
  -27.2288  -37.1462   25.8869 H   0  0  0  0  0  0
  -20.9452  -29.8427   21.6510 H   0  0  0  0  0  0
  -26.0187  -38.2860   24.1414 H   0  0  0  0  0  0
  -30.5217  -20.2949   20.5744 H   0  0  0  0  0  0
  -27.4592  -17.2976   20.0422 H   0  0  0  0  0  0
  -26.3983  -21.4405   19.8844 H   0  0  0  0  0  0
  -30.8165  -17.4656   19.5521 H   0  0  0  0  0  0
  -30.8946  -17.6598   21.2608 H   0  0  0  0  0  0
  -27.7345  -25.1875   21.6837 H   0  0  0  0  0  0
  -29.4073  -25.0673   21.2402 H   0  0  0  0  0  0
  -29.6326  -22.7598   21.0352 H   0  0  0  0  0  0
  -28.8484  -15.7600   20.8879 H   0  0  0  0  0  0
  1 25  1  0  0  0
  1 30  2  0  0  0
  1 81  1  0  0  0
  2  3  1  0  0  0
  2 25  1  0  0  0
  2 84  1  0  0  0
  2 85  1  0  0  0
  3  4  1  0  0  0
  3 86  1  0  0  0
  3 87  1  0  0  0
  4  5  1  0  0  0
  4 88  1  0  0  0
  4 89  1  0  0  0
  5  6  1  0  0  0
  5 26  1  0  0  0
  5 90  1  0  0  0
  6 25  1  0  0  0
  6 91  1  0  0  0
  6 92  1  0  0  0
  7  8  2  0  0  0
  7 26  1  0  0  0
  7 29  1  0  0  0
  8  9  1  0  0  0
  8 22  1  0  0  0
  9 10  1  0  0  0
  9 27  2  0  0  0
 10 11  2  0  0  0
 10 15  1  0  0  0
 11 12  1  0  0  0
 11 93  1  0  0  0
 12 13  2  0  0  0
 12 94  1  0  0  0
 13 14  1  0  0  0
 13 31  1  0  0  0
 14 15  2  0  0  0
 14 95  1  0  0  0
 15 96  1  0  0  0
 16 17  2  0  0  0
 16 21  1  0  0  0
 16 31  1  0  0  0
 17 18  1  0  0  0
 17 97  1  0  0  0
 18 19  2  0  0  0
 18 98  1  0  0  0
 19 20  1  0  0  0
 19 24  1  0  0  0
 20 21  2  0  0  0
 20 99  1  0  0  0
 21 23  1  0  0  0
 22 28  1  0  0  0
 22 32  2  0  0  0
 26 27  1  0  0  0
 28100  1  0  0  0
 28101  1  0  0  0
 29102  1  0  0  0
 29103  1  0  0  0
 33 34  1  0  0  0
 33 66  1  0  0  0
 33 70  2  0  0  0
 34 36  1  0  0  0
 34 59  1  0  0  0
 34104  1  0  0  0
 35 44  2  0  0  0
 35 45  1  0  0  0
 35 68  1  0  0  0
 36 56  1  0  0  0
 36105  1  0  0  0
 37 39  1  0  0  0
 37 47  1  0  0  0
 37 66  1  0  0  0
 37106  1  0  0  0
 38 43  2  0  0  0
 38 46  1  0  0  0
 38 47  1  0  0  0
 39 64  1  0  0  0
 39 67  2  0  0  0
 40 52  1  0  0  0
 40 53  2  0  0  0
 40 58  1  0  0  0
 41107  1  0  0  0
 41108  1  0  0  0
 41109  1  0  0  0
 41 48  1  0  0  0
 42 43  1  0  0  0
 42 66  1  0  0  0
 42110  1  0  0  0
 42111  1  0  0  0
 43 44  1  0  0  0
 44112  1  0  0  0
 45 46  2  0  0  0
 45113  1  0  0  0
 46114  1  0  0  0
 47115  1  0  0  0
 47116  1  0  0  0
 48 56  1  0  0  0
 48 65  1  0  0  0
 48117  1  0  0  0
 49 50  1  0  0  0
 49 53  1  0  0  0
 49 64  1  0  0  0
 49118  1  0  0  0
 50 51  1  0  0  0
 50119  1  0  0  0
 50120  1  0  0  0
 51 52  1  0  0  0
 51121  1  0  0  0
 51122  1  0  0  0
 52123  1  0  0  0
 52124  1  0  0  0
 53 54  1  0  0  0
 54 55  2  0  0  0
 54125  1  0  0  0
 55 57  1  0  0  0
 55126  1  0  0  0
 56 69  2  0  0  0
 57 58  2  0  0  0
 57127  1  0  0  0
 58128  1  0  0  0
 59 60  1  0  0  0
 59 61  1  0  0  0
 59 62  1  0  0  0
 60129  1  0  0  0
 60130  1  0  0  0
 60131  1  0  0  0
 61132  1  0  0  0
 61133  1  0  0  0
 61134  1  0  0  0
 62135  1  0  0  0
 62136  1  0  0  0
 62137  1  0  0  0
 63 65  1  0  0  0
 63138  1  0  0  0
 63139  1  0  0  0
 63140  1  0  0  0
 64141  1  0  0  0
 65142  1  0  0  0
 68 79  1  0  0  0
 71 74  2  0  0  0
 71 75  1  0  0  0
 71143  1  0  0  0
 72 74  1  0  0  0
 72 76  2  0  0  0
 72144  1  0  0  0
 73 75  2  0  0  0
 73 76  1  0  0  0
 73145  1  0  0  0
 74 78  1  0  0  0
 75 80  1  0  0  0
 76 83  1  0  0  0
 77 79  1  0  0  0
 77 80  1  0  0  0
 77 82  2  0  0  0
 78 81  1  0  0  0
 78146  1  0  0  0
 78147  1  0  0  0
 79148  1  0  0  0
 79149  1  0  0  0
 80150  1  0  0  0
 81151  1  0  0  0
M  ISO  4   1 100  68 101  79 101  81 100
M  END
> <chiral flag>
0

> <version>
0

> <s_m_source_file>
/data/baiqing/PycharmProjects/Reinvent-master-3.2/result/LINK_invent/BTK/process_docking_weight1_custom_product_contain_oxygen_bond_distance_aromatic_linkinvent_7_9_3/rearranged_h_0054.sdf

> <i_m_source_file_index>
58

> <r_mmod_Potential_Energy-OPLS-2005>
106.162216186523

> <r_mmod_Stretch_Energy-OPLS-2005>
128.796264648438

> <r_mmod_Bend_Energy-OPLS-2005>
165.916732788086

> <r_mmod_Torsional_Energy-OPLS-2005>
240.835540771484

> <r_mmod_Improper_Torsional_Energy-OPLS-2005>
6.15863800048828

> <r_mmod_Van_der_Waal_Energy-OPLS-2005>
126.079849243164

> <r_mmod_Electrostatic_Energy-OPLS-2005>
-412.999450683594

> <r_mmod_Solvation_Energy-OPLS-2005>
-237.06787109375

> <b_mmod_Minimization_Converged-OPLS-2005>
0

> <r_mmod_RMS_Derivative-OPLS-2005>
4.58924674987793

$$$$
58
                    3D
 Structure written by MMmdl.
164172  0  0  1  0            999 V2000
  -30.7170  -14.4342   20.4315 C   0  0  0  0  0  0
  -30.4116  -12.2422   19.4419 C   0  0  0  0  0  0
  -29.4948  -12.4371   18.2158 C   0  0  0  0  0  0
  -28.0157  -12.3148   18.6312 C   0  0  0  0  0  0
  -27.6539  -13.1977   19.8557 C   0  0  2  0  0  0
  -28.6988  -13.0425   20.9885 C   0  0  0  0  0  0
  -25.2573  -13.8143   20.5689 C   0  0  0  0  0  0
  -24.1828  -13.0426   20.9214 C   0  0  0  0  0  0
  -24.6366  -11.6892   20.8764 C   0  0  0  0  0  0
  -23.9029  -10.4278   21.0423 C   0  0  0  0  0  0
  -24.3582   -9.4187   21.9197 C   0  0  0  0  0  0
  -23.6266   -8.2235   22.0755 C   0  0  0  0  0  0
  -22.4252   -8.0270   21.3542 C   0  0  0  0  0  0
  -21.9867   -9.0247   20.4656 C   0  0  0  0  0  0
  -22.7199  -10.2133   20.3075 C   0  0  0  0  0  0
  -21.6836   -6.0733   22.5280 C   0  0  0  0  0  0
  -21.4015   -6.5634   23.8229 C   0  0  0  0  0  0
  -21.3653   -5.6785   24.9180 C   0  0  0  0  0  0
  -21.6037   -4.3058   24.7234 C   0  0  0  0  0  0
  -21.8813   -3.8139   23.4369 C   0  0  0  0  0  0
  -21.9194   -4.6953   22.3410 C   0  0  0  0  0  0
  -22.7849  -13.5247   21.1855 C   0  0  0  0  0  0
  -22.1657   -4.2142   21.0988 F   0  0  0  0  0  0
  -21.5617   -3.4533   25.7748 F   0  0  0  0  0  0
  -30.0349  -13.2676   20.4205 N   0  0  0  0  0  0
  -26.2977  -12.9299   20.3310 N   0  0  0  0  0  0
  -25.9279  -11.6460   20.5775 N   0  0  0  0  0  0
  -22.0465  -12.8269   22.0407 N   0  0  0  0  0  0
  -25.4281  -15.1865   20.4120 N   0  0  0  0  0  0
  -31.9333  -14.5135   20.2480 O   0  0  0  0  0  0
  -21.6619   -6.8867   21.4242 O   0  0  0  0  0  0
  -22.3554  -14.5557   20.6691 O   0  0  0  0  0  0
  -24.6117  -31.8710   23.2123 C   0  0  0  0  0  0
  -25.9026  -32.4840   23.8401 C   0  0  1  0  0  0
  -27.2413  -27.4757   20.0711 C   0  0  0  0  0  0
  -25.5905  -33.8636   24.2345 N   0  0  0  0  0  0
  -23.3970  -30.4944   21.5540 C   0  0  2  0  0  0
  -24.8427  -28.9627   20.1173 C   0  0  0  0  0  0
  -22.7380  -29.4686   22.5025 C   0  0  0  0  0  0
  -18.0267  -28.1374   22.8496 C   0  0  0  0  0  0
  -24.1494  -36.7325   23.2635 C   0  0  0  0  0  0
  -25.9205  -30.8448   21.3592 C   0  0  0  0  0  0
  -25.9993  -29.4793   20.7139 C   0  0  0  0  0  0
  -27.1984  -28.7351   20.7028 C   0  0  0  0  0  0
  -26.0602  -26.9517   19.4993 C   0  0  0  0  0  0
  -24.8639  -27.6915   19.5170 C   0  0  0  0  0  0
  -23.6024  -29.8248   20.1683 C   0  0  0  0  0  0
  -25.4110  -36.3121   24.0339 C   0  0  1  0  0  0
  -20.5851  -28.3663   23.1335 C   0  0  2  0  0  0
  -20.6769  -26.9410   22.5420 C   0  0  0  0  0  0
  -19.5751  -26.6397   21.5213 C   0  0  0  0  0  0
  -18.1923  -26.7928   22.1619 C   0  0  0  0  0  0
  -19.1511  -28.8835   23.2911 C   0  0  0  0  0  0
  -18.9445  -30.1440   23.8919 C   0  0  0  0  0  0
  -17.6446  -30.6583   24.0574 C   0  0  0  0  0  0
  -25.9034  -34.9488   23.5129 C   0  0  0  0  0  0
  -16.5338  -29.9087   23.6325 C   0  0  0  0  0  0
  -16.7254  -28.6504   23.0348 C   0  0  0  0  0  0
  -26.4473  -31.6602   25.0705 C   0  0  0  0  0  0
  -25.3762  -31.3689   26.1469 C   0  0  0  0  0  0
  -27.0295  -30.3057   24.6037 C   0  0  0  0  0  0
  -27.6073  -32.4303   25.7442 C   0  0  0  0  0  0
  -27.5585  -37.1813   24.8463 C   0  0  0  0  0  0
  -21.4117  -29.3032   22.3744 N   0  0  0  0  0  0
  -26.4301  -37.3799   23.9404 N   0  0  0  0  0  0
  -24.6617  -31.0834   22.1014 N   0  0  0  0  0  0
  -23.4164  -28.8227   23.3061 O   0  0  0  0  0  0
  -28.4234  -26.7766   20.0509 O   0  0  0  0  0  0
  -26.5584  -34.8931   22.4685 O   0  0  0  0  0  0
  -23.5323  -32.1451   23.7549 O   0  0  0  0  0  0
  -31.3360  -17.4026   17.3406 C   0  0  0  0  0  0
  -30.9369  -16.3371   18.1567 C   0  0  0  0  0  0
  -29.8871  -17.9029   19.6865 C   0  0  0  0  0  0
  -31.0543  -18.7328   17.7025 C   0  0  0  0  0  0
  -30.2633  -18.9909   18.8609 C   0  0  0  0  0  0
  -30.2605  -16.5809   19.3762 C   0  0  0  0  0  0
  -29.3516  -23.8443   18.5510 C   0  0  0  0  0  0
  -29.7241  -25.0781   18.9415 C   0  0  0  0  0  0
  -30.2150  -22.6913   18.7588 C   0  0  0  0  0  0
  -31.6546  -19.8044   16.8162 C   0  0  0  0  0  0
  -28.9535  -22.0152   16.0035 C   0  0  0  0  0  0
  -29.8357  -20.3767   19.3598 C   0  0  0  0  0  0
  -28.8515  -26.3017   18.7767 C   0  0  0  0  0  0
  -28.6640  -21.2827   17.3407 C   0  0  0  0  0  0
  -29.9471  -15.5216   20.2777 N   0  0  0  0  0  0
  -29.6630  -21.4976   18.4129 N   0  0  0  0  0  0
  -31.3059  -22.7669   19.3341 O   0  0  0  0  0  0
  -31.4615  -12.3058   19.1469 H   0  0  0  0  0  0
  -30.2830  -11.2492   19.8751 H   0  0  0  0  0  0
  -29.7315  -11.6916   17.4560 H   0  0  0  0  0  0
  -29.6742  -13.4103   17.7583 H   0  0  0  0  0  0
  -27.8357  -11.2645   18.8724 H   0  0  0  0  0  0
  -27.3639  -12.5460   17.7878 H   0  0  0  0  0  0
  -27.6757  -14.2287   19.5051 H   0  0  0  0  0  0
  -28.6495  -12.0446   21.4249 H   0  0  0  0  0  0
  -28.4952  -13.7410   21.8011 H   0  0  0  0  0  0
  -25.2719   -9.5668   22.4773 H   0  0  0  0  0  0
  -23.9971   -7.4609   22.7453 H   0  0  0  0  0  0
  -21.0800   -8.8772   19.8957 H   0  0  0  0  0  0
  -22.3644  -10.9685   19.6194 H   0  0  0  0  0  0
  -21.2017   -7.6145   23.9730 H   0  0  0  0  0  0
  -21.1468   -6.0517   25.9085 H   0  0  0  0  0  0
  -22.0602   -2.7607   23.2865 H   0  0  0  0  0  0
  -22.4029  -11.9929   22.4848 H   0  0  0  0  0  0
  -21.1068  -13.1329   22.2578 H   0  0  0  0  0  0
  -24.6586  -15.8352   20.5320 H   0  0  0  0  0  0
  -26.2718  -15.6324   20.0743 H   0  0  0  0  0  0
  -26.7091  -32.5572   23.1166 H   0  0  0  0  0  0
  -25.0091  -33.9803   25.0513 H   0  0  0  0  0  0
  -22.6843  -31.3109   21.4171 H   0  0  0  0  0  0
  -23.3750  -35.9666   23.3312 H   0  0  0  0  0  0
  -24.3592  -36.8919   22.2045 H   0  0  0  0  0  0
  -23.7252  -37.6540   23.6632 H   0  0  0  0  0  0
  -26.0197  -31.6081   20.5863 H   0  0  0  0  0  0
  -26.8147  -30.9085   21.9670 H   0  0  0  0  0  0
  -28.0941  -29.1340   21.1590 H   0  0  0  0  0  0
  -26.0536  -25.9694   19.0488 H   0  0  0  0  0  0
  -23.9705  -27.2804   19.0685 H   0  0  0  0  0  0
  -23.7023  -30.5994   19.4066 H   0  0  0  0  0  0
  -22.7268  -29.2403   19.8786 H   0  0  0  0  0  0
  -25.1287  -36.1996   25.0833 H   0  0  0  0  0  0
  -20.9941  -28.3232   24.1457 H   0  0  0  0  0  0
  -20.5701  -26.2265   23.3598 H   0  0  0  0  0  0
  -21.6641  -26.7486   22.1198 H   0  0  0  0  0  0
  -19.6924  -25.6316   21.1223 H   0  0  0  0  0  0
  -19.6692  -27.3225   20.6759 H   0  0  0  0  0  0
  -17.4203  -26.6683   21.4010 H   0  0  0  0  0  0
  -18.0321  -26.0056   22.9001 H   0  0  0  0  0  0
  -19.7917  -30.7254   24.2301 H   0  0  0  0  0  0
  -17.5000  -31.6269   24.5169 H   0  0  0  0  0  0
  -15.5337  -30.2997   23.7645 H   0  0  0  0  0  0
  -15.8655  -28.0834   22.7051 H   0  0  0  0  0  0
  -24.5917  -30.7059   25.7792 H   0  0  0  0  0  0
  -24.8978  -32.2847   26.4960 H   0  0  0  0  0  0
  -25.8137  -30.8811   27.0192 H   0  0  0  0  0  0
  -26.2807  -29.6798   24.1164 H   0  0  0  0  0  0
  -27.4168  -29.7304   25.4455 H   0  0  0  0  0  0
  -27.8596  -30.4386   23.9094 H   0  0  0  0  0  0
  -27.2716  -33.3583   26.2082 H   0  0  0  0  0  0
  -28.3843  -32.6898   25.0235 H   0  0  0  0  0  0
  -28.0794  -31.8389   26.5299 H   0  0  0  0  0  0
  -28.2620  -38.0093   24.7506 H   0  0  0  0  0  0
  -28.1066  -36.2631   24.6304 H   0  0  0  0  0  0
  -27.2305  -37.1481   25.8866 H   0  0  0  0  0  0
  -20.9274  -29.8726   21.6943 H   0  0  0  0  0  0
  -26.0202  -38.2885   24.1395 H   0  0  0  0  0  0
  -31.8942  -17.1891   16.4397 H   0  0  0  0  0  0
  -31.2058  -15.3353   17.8522 H   0  0  0  0  0  0
  -29.3455  -18.0926   20.6038 H   0  0  0  0  0  0
  -28.3799  -23.7298   18.1010 H   0  0  0  0  0  0
  -30.6837  -25.2391   19.4117 H   0  0  0  0  0  0
  -32.5966  -19.4541   16.3902 H   0  0  0  0  0  0
  -31.8832  -20.7271   17.3480 H   0  0  0  0  0  0
  -30.9828  -20.0030   15.9846 H   0  0  0  0  0  0
  -28.3779  -21.5685   15.1929 H   0  0  0  0  0  0
  -30.0032  -21.9648   15.7154 H   0  0  0  0  0  0
  -28.6768  -23.0673   16.0251 H   0  0  0  0  0  0
  -28.8692  -20.2684   19.8577 H   0  0  0  0  0  0
  -30.5261  -20.6187   20.1725 H   0  0  0  0  0  0
  -28.0297  -26.0522   18.1058 H   0  0  0  0  0  0
  -29.4309  -27.0824   18.2822 H   0  0  0  0  0  0
  -28.5986  -20.2167   17.1140 H   0  0  0  0  0  0
  -27.6757  -21.5605   17.7079 H   0  0  0  0  0  0
  -28.9891  -15.4518   20.5860 H   0  0  0  0  0  0
  1 25  1  0  0  0
  1 30  2  0  0  0
  1 85  1  0  0  0
  2  3  1  0  0  0
  2 25  1  0  0  0
  2 88  1  0  0  0
  2 89  1  0  0  0
  3  4  1  0  0  0
  3 90  1  0  0  0
  3 91  1  0  0  0
  4  5  1  0  0  0
  4 92  1  0  0  0
  4 93  1  0  0  0
  5  6  1  0  0  0
  5 26  1  0  0  0
  5 94  1  0  0  0
  6 25  1  0  0  0
  6 95  1  0  0  0
  6 96  1  0  0  0
  7  8  2  0  0  0
  7 26  1  0  0  0
  7 29  1  0  0  0
  8  9  1  0  0  0
  8 22  1  0  0  0
  9 10  1  0  0  0
  9 27  2  0  0  0
 10 11  2  0  0  0
 10 15  1  0  0  0
 11 12  1  0  0  0
 11 97  1  0  0  0
 12 13  2  0  0  0
 12 98  1  0  0  0
 13 14  1  0  0  0
 13 31  1  0  0  0
 14 15  2  0  0  0
 14 99  1  0  0  0
 15100  1  0  0  0
 16 17  2  0  0  0
 16 21  1  0  0  0
 16 31  1  0  0  0
 17 18  1  0  0  0
 17101  1  0  0  0
 18 19  2  0  0  0
 18102  1  0  0  0
 19 20  1  0  0  0
 19 24  1  0  0  0
 20 21  2  0  0  0
 20103  1  0  0  0
 21 23  1  0  0  0
 22 28  1  0  0  0
 22 32  2  0  0  0
 26 27  1  0  0  0
 28104  1  0  0  0
 28105  1  0  0  0
 29106  1  0  0  0
 29107  1  0  0  0
 33 34  1  0  0  0
 33 66  1  0  0  0
 33 70  2  0  0  0
 34 36  1  0  0  0
 34 59  1  0  0  0
 34108  1  0  0  0
 35 44  2  0  0  0
 35 45  1  0  0  0
 35 68  1  0  0  0
 36 56  1  0  0  0
 36109  1  0  0  0
 37 39  1  0  0  0
 37 47  1  0  0  0
 37 66  1  0  0  0
 37110  1  0  0  0
 38 43  2  0  0  0
 38 46  1  0  0  0
 38 47  1  0  0  0
 39 64  1  0  0  0
 39 67  2  0  0  0
 40 52  1  0  0  0
 40 53  2  0  0  0
 40 58  1  0  0  0
 41111  1  0  0  0
 41112  1  0  0  0
 41113  1  0  0  0
 41 48  1  0  0  0
 42 43  1  0  0  0
 42 66  1  0  0  0
 42114  1  0  0  0
 42115  1  0  0  0
 43 44  1  0  0  0
 44116  1  0  0  0
 45 46  2  0  0  0
 45117  1  0  0  0
 46118  1  0  0  0
 47119  1  0  0  0
 47120  1  0  0  0
 48 56  1  0  0  0
 48 65  1  0  0  0
 48121  1  0  0  0
 49 50  1  0  0  0
 49 53  1  0  0  0
 49 64  1  0  0  0
 49122  1  0  0  0
 50 51  1  0  0  0
 50123  1  0  0  0
 50124  1  0  0  0
 51 52  1  0  0  0
 51125  1  0  0  0
 51126  1  0  0  0
 52127  1  0  0  0
 52128  1  0  0  0
 53 54  1  0  0  0
 54 55  2  0  0  0
 54129  1  0  0  0
 55 57  1  0  0  0
 55130  1  0  0  0
 56 69  2  0  0  0
 57 58  2  0  0  0
 57131  1  0  0  0
 58132  1  0  0  0
 59 60  1  0  0  0
 59 61  1  0  0  0
 59 62  1  0  0  0
 60133  1  0  0  0
 60134  1  0  0  0
 60135  1  0  0  0
 61136  1  0  0  0
 61137  1  0  0  0
 61138  1  0  0  0
 62139  1  0  0  0
 62140  1  0  0  0
 62141  1  0  0  0
 63 65  1  0  0  0
 63142  1  0  0  0
 63143  1  0  0  0
 63144  1  0  0  0
 64145  1  0  0  0
 65146  1  0  0  0
 68 83  1  0  0  0
 71 72  2  0  0  0
 71 74  1  0  0  0
 71147  1  0  0  0
 72 76  1  0  0  0
 72148  1  0  0  0
 73 75  1  0  0  0
 73 76  2  0  0  0
 73149  1  0  0  0
 74 75  2  0  0  0
 74 80  1  0  0  0
 75 82  1  0  0  0
 76 85  1  0  0  0
 77 78  2  0  0  0
 77 79  1  0  0  0
 77150  1  0  0  0
 78 83  1  0  0  0
 78151  1  0  0  0
 79 86  1  0  0  0
 79 87  2  0  0  0
 80152  1  0  0  0
 80153  1  0  0  0
 80154  1  0  0  0
 81 84  1  0  0  0
 81155  1  0  0  0
 81156  1  0  0  0
 81157  1  0  0  0
 82 86  1  0  0  0
 82158  1  0  0  0
 82159  1  0  0  0
 83160  1  0  0  0
 83161  1  0  0  0
 84 86  1  0  0  0
 84162  1  0  0  0
 84163  1  0  0  0
 85164  1  0  0  0
M  ISO  4   1 100  68 101  83 101  85 100
M  END
> <chiral flag>
0

> <version>
0

> <s_m_source_file>
/data/baiqing/PycharmProjects/Reinvent-master-3.2/result/LINK_invent/BTK/process_docking_weight1_custom_product_contain_oxygen_bond_distance_aromatic_linkinvent_7_9_3/rearranged_h_0054.sdf

> <i_m_source_file_index>
59

> <r_mmod_Potential_Energy-OPLS-2005>
51.2072372436523

> <r_mmod_Stretch_Energy-OPLS-2005>
36.7679138183594

> <r_mmod_Bend_Energy-OPLS-2005>
109.538505554199

> <r_mmod_Torsional_Energy-OPLS-2005>
297.480651855469

> <r_mmod_Improper_Torsional_Energy-OPLS-2005>
13.236141204834

> <r_mmod_Van_der_Waal_Energy-OPLS-2005>
177.472610473633

> <r_mmod_Electrostatic_Energy-OPLS-2005>
-381.017150878906

> <r_mmod_Solvation_Energy-OPLS-2005>
-226.742401123047

> <b_mmod_Minimization_Converged-OPLS-2005>
0

> <r_mmod_RMS_Derivative-OPLS-2005>
3.48009610176086

$$$$
59
                    3D
 Structure written by MMmdl.
153161  0  0  1  0            999 V2000
  -30.5703  -14.8760   20.4819 C   0  0  0  0  0  0
  -30.4372  -12.5562   19.4772 C   0  0  0  0  0  0
  -29.5115  -12.5194   18.2429 C   0  0  0  0  0  0
  -28.0482  -12.2989   18.6723 C   0  0  0  0  0  0
  -27.6292  -13.2372   19.8348 C   0  0  2  0  0  0
  -28.6742  -13.2401   20.9686 C   0  0  0  0  0  0
  -25.2491  -13.8191   20.5728 C   0  0  0  0  0  0
  -24.1786  -13.0421   20.9236 C   0  0  0  0  0  0
  -24.6394  -11.6909   20.8769 C   0  0  0  0  0  0
  -23.9082  -10.4274   21.0423 C   0  0  0  0  0  0
  -24.3632   -9.4184   21.9202 C   0  0  0  0  0  0
  -23.6295   -8.2225   22.0752 C   0  0  0  0  0  0
  -22.4283   -8.0275   21.3533 C   0  0  0  0  0  0
  -21.9929   -9.0255   20.4647 C   0  0  0  0  0  0
  -22.7262  -10.2132   20.3055 C   0  0  0  0  0  0
  -21.6852   -6.0746   22.5280 C   0  0  0  0  0  0
  -21.4019   -6.5644   23.8216 C   0  0  0  0  0  0
  -21.3648   -5.6789   24.9171 C   0  0  0  0  0  0
  -21.6032   -4.3053   24.7219 C   0  0  0  0  0  0
  -21.8821   -3.8153   23.4341 C   0  0  0  0  0  0
  -21.9195   -4.6975   22.3400 C   0  0  0  0  0  0
  -22.7800  -13.5193   21.1857 C   0  0  0  0  0  0
  -22.1659   -4.2161   21.0974 F   0  0  0  0  0  0
  -21.5624   -3.4535   25.7734 F   0  0  0  0  0  0
  -29.9458  -13.6444   20.3616 N   0  0  0  0  0  0
  -26.2893  -12.9404   20.3258 N   0  0  0  0  0  0
  -25.9322  -11.6542   20.5751 N   0  0  0  0  0  0
  -22.0443  -12.8193   22.0424 N   0  0  0  0  0  0
  -25.4178  -15.1922   20.4160 N   0  0  0  0  0  0
  -31.7821  -14.9303   20.2450 O   0  0  0  0  0  0
  -21.6622   -6.8896   21.4241 O   0  0  0  0  0  0
  -22.3472  -14.5474   20.6677 O   0  0  0  0  0  0
  -24.6401  -31.8491   23.1917 C   0  0  0  0  0  0
  -25.9188  -32.4724   23.8287 C   0  0  1  0  0  0
  -27.2137  -27.1764   20.1578 C   0  0  0  0  0  0
  -25.5971  -33.8527   24.2238 N   0  0  0  0  0  0
  -23.4406  -30.4718   21.5354 C   0  0  2  0  0  0
  -24.8889  -28.9030   20.1104 C   0  0  0  0  0  0
  -22.7530  -29.4581   22.4839 C   0  0  0  0  0  0
  -18.0294  -28.1357   22.8505 C   0  0  0  0  0  0
  -24.1496  -36.7275   23.2644 C   0  0  0  0  0  0
  -25.9933  -30.7350   21.3818 C   0  0  0  0  0  0
  -26.0631  -29.3493   20.7280 C   0  0  0  0  0  0
  -27.2283  -28.5026   20.7352 C   0  0  0  0  0  0
  -26.0150  -26.8199   19.5002 C   0  0  0  0  0  0
  -24.8759  -27.6509   19.4793 C   0  0  0  0  0  0
  -23.6662  -29.8031   20.1526 C   0  0  0  0  0  0
  -25.4122  -36.3057   24.0328 C   0  0  1  0  0  0
  -20.5918  -28.3637   23.1170 C   0  0  2  0  0  0
  -20.6809  -26.9394   22.5208 C   0  0  0  0  0  0
  -19.5664  -26.6285   21.5179 C   0  0  0  0  0  0
  -18.1860  -26.7898   22.1652 C   0  0  0  0  0  0
  -19.1584  -28.8787   23.2872 C   0  0  0  0  0  0
  -18.9536  -30.1341   23.9000 C   0  0  0  0  0  0
  -17.6547  -30.6511   24.0676 C   0  0  0  0  0  0
  -25.9072  -34.9431   23.5084 C   0  0  0  0  0  0
  -16.5413  -29.9086   23.6347 C   0  0  0  0  0  0
  -16.7302  -28.6513   23.0362 C   0  0  0  0  0  0
  -26.4534  -31.6562   25.0701 C   0  0  0  0  0  0
  -25.3738  -31.3722   26.1408 C   0  0  0  0  0  0
  -27.0403  -30.2979   24.6223 C   0  0  0  0  0  0
  -27.6076  -32.4304   25.7498 C   0  0  0  0  0  0
  -27.5582  -37.1804   24.8475 C   0  0  0  0  0  0
  -21.4221  -29.3081   22.3614 N   0  0  0  0  0  0
  -26.4297  -37.3761   23.9404 N   0  0  0  0  0  0
  -24.7110  -31.0381   22.0927 N   0  0  0  0  0  0
  -23.4207  -28.8076   23.2938 O   0  0  0  0  0  0
  -28.2796  -26.2230   20.2300 O   0  0  0  0  0  0
  -26.5643  -34.8925   22.4645 O   0  0  0  0  0  0
  -23.5536  -32.1336   23.7176 O   0  0  0  0  0  0
  -30.4840  -16.7822   22.7691 C   0  0  0  0  0  0
  -30.8009  -17.6119   23.8491 C   0  0  0  0  0  0
  -30.2162  -19.5295   22.5111 C   0  0  0  0  0  0
  -30.0551  -17.2571   21.4961 C   0  0  0  0  0  0
  -29.8405  -18.7519   21.3782 C   0  0  0  0  0  0
  -30.6900  -18.9917   23.7106 C   0  0  0  0  0  0
  -27.4514  -20.8912   20.7837 C   0  0  0  0  0  0
  -29.4810  -22.2607   20.4126 C   0  0  0  0  0  0
  -29.2152  -23.6514   20.3217 C   0  0  0  0  0  0
  -28.7616  -20.9098   20.5004 C   0  0  0  0  0  0
  -27.9995  -24.7061   20.1879 C   0  0  0  0  0  0
  -29.8179  -16.0702   20.6003 N   0  0  0  0  0  0
  -29.3868  -19.6072   20.3092 O   0  0  0  0  0  0
  -31.0369  -19.8092   24.7325 F   0  0  0  0  0  0
  -31.4698  -12.7097   19.1616 H   0  0  0  0  0  0
  -30.4211  -11.5993   20.0026 H   0  0  0  0  0  0
  -29.8295  -11.7358   17.5519 H   0  0  0  0  0  0
  -29.5931  -13.4637   17.7018 H   0  0  0  0  0  0
  -27.9567  -11.2590   18.9922 H   0  0  0  0  0  0
  -27.3748  -12.4172   17.8231 H   0  0  0  0  0  0
  -27.5999  -14.2399   19.4076 H   0  0  0  0  0  0
  -28.7560  -12.2506   21.4217 H   0  0  0  0  0  0
  -28.3862  -13.9300   21.7639 H   0  0  0  0  0  0
  -25.2783   -9.5639   22.4776 H   0  0  0  0  0  0
  -23.9996   -7.4601   22.7463 H   0  0  0  0  0  0
  -21.0860   -8.8778   19.8949 H   0  0  0  0  0  0
  -22.3734  -10.9673   19.6144 H   0  0  0  0  0  0
  -21.2010   -7.6151   23.9728 H   0  0  0  0  0  0
  -21.1468   -6.0515   25.9078 H   0  0  0  0  0  0
  -22.0616   -2.7619   23.2829 H   0  0  0  0  0  0
  -22.4068  -11.9876   22.4832 H   0  0  0  0  0  0
  -21.1046  -13.1206   22.2587 H   0  0  0  0  0  0
  -24.6504  -15.8456   20.5295 H   0  0  0  0  0  0
  -26.2625  -15.6387   20.0832 H   0  0  0  0  0  0
  -26.7249  -32.5351   23.1019 H   0  0  0  0  0  0
  -25.0126  -33.9648   25.0396 H   0  0  0  0  0  0
  -22.7413  -31.2961   21.3850 H   0  0  0  0  0  0
  -23.3759  -35.9606   23.3304 H   0  0  0  0  0  0
  -24.3593  -36.8909   22.2065 H   0  0  0  0  0  0
  -23.7251  -37.6478   23.6669 H   0  0  0  0  0  0
  -26.1401  -31.4828   20.6015 H   0  0  0  0  0  0
  -26.8709  -30.7899   22.0148 H   0  0  0  0  0  0
  -28.1231  -28.8437   21.2364 H   0  0  0  0  0  0
  -25.9262  -25.8629   19.0091 H   0  0  0  0  0  0
  -23.9788  -27.3095   18.9806 H   0  0  0  0  0  0
  -23.8135  -30.5826   19.4051 H   0  0  0  0  0  0
  -22.7826  -29.2500   19.8295 H   0  0  0  0  0  0
  -25.1305  -36.1901   25.0825 H   0  0  0  0  0  0
  -21.0035  -28.3090   24.1274 H   0  0  0  0  0  0
  -20.5919  -26.2236   23.3404 H   0  0  0  0  0  0
  -21.6629  -26.7508   22.0823 H   0  0  0  0  0  0
  -19.6783  -25.6150   21.1317 H   0  0  0  0  0  0
  -19.6536  -27.3023   20.6645 H   0  0  0  0  0  0
  -17.4049  -26.6702   21.4138 H   0  0  0  0  0  0
  -18.0216  -26.0078   22.9098 H   0  0  0  0  0  0
  -19.8022  -30.7061   24.2485 H   0  0  0  0  0  0
  -17.5142  -31.6149   24.5369 H   0  0  0  0  0  0
  -15.5434  -30.3023   23.7688 H   0  0  0  0  0  0
  -15.8681  -28.0903   22.7042 H   0  0  0  0  0  0
  -24.5924  -30.7066   25.7741 H   0  0  0  0  0  0
  -24.8915  -32.2886   26.4816 H   0  0  0  0  0  0
  -25.8039  -30.8923   27.0199 H   0  0  0  0  0  0
  -26.3003  -29.6691   24.1260 H   0  0  0  0  0  0
  -27.4105  -29.7284   25.4754 H   0  0  0  0  0  0
  -27.8868  -30.4269   23.9471 H   0  0  0  0  0  0
  -27.2687  -33.3615   26.2045 H   0  0  0  0  0  0
  -28.3912  -32.6829   25.0347 H   0  0  0  0  0  0
  -28.0694  -31.8425   26.5444 H   0  0  0  0  0  0
  -28.2608  -38.0093   24.7498 H   0  0  0  0  0  0
  -28.1066  -36.2622   24.6318 H   0  0  0  0  0  0
  -27.2302  -37.1490   25.8882 H   0  0  0  0  0  0
  -20.9350  -29.8991   21.7012 H   0  0  0  0  0  0
  -26.0177  -38.2841   24.1364 H   0  0  0  0  0  0
  -30.5753  -15.7244   22.9647 H   0  0  0  0  0  0
  -31.1339  -17.1875   24.7857 H   0  0  0  0  0  0
  -30.1607  -20.6067   22.4943 H   0  0  0  0  0  0
  -26.8983  -21.8013   20.9549 H   0  0  0  0  0  0
  -26.9103  -19.9584   20.8491 H   0  0  0  0  0  0
  -30.5463  -22.0881   20.4634 H   0  0  0  0  0  0
  -30.1344  -24.2199   20.3306 H   0  0  0  0  0  0
  -27.2550  -24.4750   20.9513 H   0  0  0  0  0  0
  -27.5403  -24.4733   19.2269 H   0  0  0  0  0  0
  -28.8535  -15.9626   20.3229 H   0  0  0  0  0  0
  1 25  1  0  0  0
  1 30  2  0  0  0
  1 82  1  0  0  0
  2  3  1  0  0  0
  2 25  1  0  0  0
  2 85  1  0  0  0
  2 86  1  0  0  0
  3  4  1  0  0  0
  3 87  1  0  0  0
  3 88  1  0  0  0
  4  5  1  0  0  0
  4 89  1  0  0  0
  4 90  1  0  0  0
  5  6  1  0  0  0
  5 26  1  0  0  0
  5 91  1  0  0  0
  6 25  1  0  0  0
  6 92  1  0  0  0
  6 93  1  0  0  0
  7  8  2  0  0  0
  7 26  1  0  0  0
  7 29  1  0  0  0
  8  9  1  0  0  0
  8 22  1  0  0  0
  9 10  1  0  0  0
  9 27  2  0  0  0
 10 11  2  0  0  0
 10 15  1  0  0  0
 11 12  1  0  0  0
 11 94  1  0  0  0
 12 13  2  0  0  0
 12 95  1  0  0  0
 13 14  1  0  0  0
 13 31  1  0  0  0
 14 15  2  0  0  0
 14 96  1  0  0  0
 15 97  1  0  0  0
 16 17  2  0  0  0
 16 21  1  0  0  0
 16 31  1  0  0  0
 17 18  1  0  0  0
 17 98  1  0  0  0
 18 19  2  0  0  0
 18 99  1  0  0  0
 19 20  1  0  0  0
 19 24  1  0  0  0
 20 21  2  0  0  0
 20100  1  0  0  0
 21 23  1  0  0  0
 22 28  1  0  0  0
 22 32  2  0  0  0
 26 27  1  0  0  0
 28101  1  0  0  0
 28102  1  0  0  0
 29103  1  0  0  0
 29104  1  0  0  0
 33 34  1  0  0  0
 33 66  1  0  0  0
 33 70  2  0  0  0
 34 36  1  0  0  0
 34 59  1  0  0  0
 34105  1  0  0  0
 35 44  2  0  0  0
 35 45  1  0  0  0
 35 68  1  0  0  0
 36 56  1  0  0  0
 36106  1  0  0  0
 37 39  1  0  0  0
 37 47  1  0  0  0
 37 66  1  0  0  0
 37107  1  0  0  0
 38 43  2  0  0  0
 38 46  1  0  0  0
 38 47  1  0  0  0
 39 64  1  0  0  0
 39 67  2  0  0  0
 40 52  1  0  0  0
 40 53  2  0  0  0
 40 58  1  0  0  0
 41108  1  0  0  0
 41109  1  0  0  0
 41110  1  0  0  0
 41 48  1  0  0  0
 42 43  1  0  0  0
 42 66  1  0  0  0
 42111  1  0  0  0
 42112  1  0  0  0
 43 44  1  0  0  0
 44113  1  0  0  0
 45 46  2  0  0  0
 45114  1  0  0  0
 46115  1  0  0  0
 47116  1  0  0  0
 47117  1  0  0  0
 48 56  1  0  0  0
 48 65  1  0  0  0
 48118  1  0  0  0
 49 50  1  0  0  0
 49 53  1  0  0  0
 49 64  1  0  0  0
 49119  1  0  0  0
 50 51  1  0  0  0
 50120  1  0  0  0
 50121  1  0  0  0
 51 52  1  0  0  0
 51122  1  0  0  0
 51123  1  0  0  0
 52124  1  0  0  0
 52125  1  0  0  0
 53 54  1  0  0  0
 54 55  2  0  0  0
 54126  1  0  0  0
 55 57  1  0  0  0
 55127  1  0  0  0
 56 69  2  0  0  0
 57 58  2  0  0  0
 57128  1  0  0  0
 58129  1  0  0  0
 59 60  1  0  0  0
 59 61  1  0  0  0
 59 62  1  0  0  0
 60130  1  0  0  0
 60131  1  0  0  0
 60132  1  0  0  0
 61133  1  0  0  0
 61134  1  0  0  0
 61135  1  0  0  0
 62136  1  0  0  0
 62137  1  0  0  0
 62138  1  0  0  0
 63 65  1  0  0  0
 63139  1  0  0  0
 63140  1  0  0  0
 63141  1  0  0  0
 64142  1  0  0  0
 65143  1  0  0  0
 68 81  1  0  0  0
 71 72  2  0  0  0
 71 74  1  0  0  0
 71144  1  0  0  0
 72 76  1  0  0  0
 72145  1  0  0  0
 73 75  1  0  0  0
 73 76  2  0  0  0
 73146  1  0  0  0
 74 75  2  0  0  0
 74 82  1  0  0  0
 75 83  1  0  0  0
 76 84  1  0  0  0
 77 80  2  0  0  0
 77147  1  0  0  0
 77148  1  0  0  0
 78 79  2  0  0  0
 78 80  1  0  0  0
 78149  1  0  0  0
 79 81  1  0  0  0
 79150  1  0  0  0
 80 83  1  0  0  0
 81151  1  0  0  0
 81152  1  0  0  0
 82153  1  0  0  0
M  ISO  4   1 100  68 101  81 101  82 100
M  END
> <chiral flag>
0

> <version>
0

> <s_m_source_file>
/data/baiqing/PycharmProjects/Reinvent-master-3.2/result/LINK_invent/BTK/process_docking_weight1_custom_product_contain_oxygen_bond_distance_aromatic_linkinvent_7_9_3/rearranged_h_0054.sdf

> <i_m_source_file_index>
60

> <r_mmod_Potential_Energy-OPLS-2005>
455.085998535156

> <r_mmod_Stretch_Energy-OPLS-2005>
204.637084960938

> <r_mmod_Bend_Energy-OPLS-2005>
287.509552001953

> <r_mmod_Torsional_Energy-OPLS-2005>
274.597991943359

> <r_mmod_Improper_Torsional_Energy-OPLS-2005>
7.86723899841309

> <r_mmod_Van_der_Waal_Energy-OPLS-2005>
146.969192504883

> <r_mmod_Electrostatic_Energy-OPLS-2005>
-410.963714599609

> <r_mmod_Solvation_Energy-OPLS-2005>
-209.682067871094

> <b_mmod_Minimization_Converged-OPLS-2005>
0

> <r_mmod_RMS_Derivative-OPLS-2005>
3.77235460281372

$$$$
60
                    3D
 Structure written by MMmdl.
155163  0  0  1  0            999 V2000
  -30.6743  -14.4894   20.5828 C   0  0  0  0  0  0
  -30.4352  -12.3213   19.4176 C   0  0  0  0  0  0
  -29.4984  -12.5091   18.2050 C   0  0  0  0  0  0
  -28.0188  -12.3645   18.6170 C   0  0  0  0  0  0
  -27.6634  -13.2003   19.8750 C   0  0  2  0  0  0
  -28.7052  -12.9672   20.9927 C   0  0  0  0  0  0
  -25.2606  -13.8147   20.5675 C   0  0  0  0  0  0
  -24.1851  -13.0437   20.9181 C   0  0  0  0  0  0
  -24.6385  -11.6899   20.8733 C   0  0  0  0  0  0
  -23.9044  -10.4293   21.0404 C   0  0  0  0  0  0
  -24.3603   -9.4210   21.9177 C   0  0  0  0  0  0
  -23.6285   -8.2244   22.0749 C   0  0  0  0  0  0
  -22.4265   -8.0280   21.3544 C   0  0  0  0  0  0
  -21.9893   -9.0253   20.4649 C   0  0  0  0  0  0
  -22.7215  -10.2136   20.3059 C   0  0  0  0  0  0
  -21.6853   -6.0731   22.5273 C   0  0  0  0  0  0
  -21.4014   -6.5633   23.8207 C   0  0  0  0  0  0
  -21.3657   -5.6787   24.9170 C   0  0  0  0  0  0
  -21.6042   -4.3051   24.7223 C   0  0  0  0  0  0
  -21.8822   -3.8143   23.4345 C   0  0  0  0  0  0
  -21.9198   -4.6960   22.3400 C   0  0  0  0  0  0
  -22.7879  -13.5252   21.1850 C   0  0  0  0  0  0
  -22.1670   -4.2150   21.0978 F   0  0  0  0  0  0
  -21.5626   -3.4536   25.7737 F   0  0  0  0  0  0
  -30.0361  -13.2938   20.4467 N   0  0  0  0  0  0
  -26.3028  -12.9298   20.3346 N   0  0  0  0  0  0
  -25.9304  -11.6466   20.5742 N   0  0  0  0  0  0
  -22.0516  -12.8261   22.0417 N   0  0  0  0  0  0
  -25.4358  -15.1858   20.4073 N   0  0  0  0  0  0
  -31.7983  -14.7002   20.1163 O   0  0  0  0  0  0
  -21.6639   -6.8873   21.4235 O   0  0  0  0  0  0
  -22.3575  -14.5558   20.6693 O   0  0  0  0  0  0
  -24.6154  -31.8667   23.2078 C   0  0  0  0  0  0
  -25.9043  -32.4818   23.8380 C   0  0  1  0  0  0
  -27.2410  -27.4277   20.1041 C   0  0  0  0  0  0
  -25.5900  -33.8615   24.2319 N   0  0  0  0  0  0
  -23.4050  -30.4873   21.5487 C   0  0  2  0  0  0
  -24.8549  -28.9467   20.1209 C   0  0  0  0  0  0
  -22.7411  -29.4649   22.4990 C   0  0  0  0  0  0
  -18.0270  -28.1376   22.8493 C   0  0  0  0  0  0
  -24.1485  -36.7310   23.2626 C   0  0  0  0  0  0
  -25.9334  -30.8297   21.3630 C   0  0  0  0  0  0
  -26.0146  -29.4602   20.7171 C   0  0  0  0  0  0
  -27.2131  -28.7075   20.7070 C   0  0  0  0  0  0
  -26.0660  -26.9245   19.5106 C   0  0  0  0  0  0
  -24.8744  -27.6766   19.5165 C   0  0  0  0  0  0
  -23.6163  -29.8140   20.1661 C   0  0  0  0  0  0
  -25.4096  -36.3106   24.0340 C   0  0  1  0  0  0
  -20.5860  -28.3667   23.1315 C   0  0  2  0  0  0
  -20.6763  -26.9401   22.5416 C   0  0  0  0  0  0
  -19.5742  -26.6386   21.5210 C   0  0  0  0  0  0
  -18.1922  -26.7921   22.1627 C   0  0  0  0  0  0
  -19.1520  -28.8836   23.2901 C   0  0  0  0  0  0
  -18.9454  -30.1444   23.8910 C   0  0  0  0  0  0
  -17.6456  -30.6584   24.0561 C   0  0  0  0  0  0
  -25.9034  -34.9476   23.5129 C   0  0  0  0  0  0
  -16.5347  -29.9088   23.6321 C   0  0  0  0  0  0
  -16.7259  -28.6502   23.0348 C   0  0  0  0  0  0
  -26.4476  -31.6595   25.0706 C   0  0  0  0  0  0
  -25.3752  -31.3747   26.1474 C   0  0  0  0  0  0
  -27.0267  -30.3016   24.6087 C   0  0  0  0  0  0
  -27.6076  -32.4293   25.7450 C   0  0  0  0  0  0
  -27.5603  -37.1763   24.8436 C   0  0  0  0  0  0
  -21.4136  -29.3033   22.3721 N   0  0  0  0  0  0
  -26.4268  -37.3811   23.9456 N   0  0  0  0  0  0
  -24.6693  -31.0759   22.0985 N   0  0  0  0  0  0
  -23.4173  -28.8191   23.3039 O   0  0  0  0  0  0
  -28.3963  -26.6788   20.0457 O   0  0  0  0  0  0
  -26.5597  -34.8934   22.4693 O   0  0  0  0  0  0
  -23.5344  -32.1430   23.7465 O   0  0  0  0  0  0
  -31.3697  -18.9573   21.2791 C   0  0  0  0  0  0
  -31.3043  -17.5567   21.0993 C   0  0  0  0  0  0
  -28.9133  -17.6475   21.4735 C   0  0  0  0  0  0
  -30.2172  -19.7231   21.5851 C   0  0  0  0  0  0
  -28.9619  -19.0555   21.6510 C   0  0  0  0  0  0
  -30.0705  -16.8772   21.2196 C   0  0  0  0  0  0
  -29.1517  -24.4554   20.5959 C   0  0  0  0  0  0
  -28.4983  -25.6036   20.9002 C   0  0  0  0  0  0
  -29.2976  -23.3979   21.5959 C   0  0  0  0  0  0
  -30.4029  -21.1972   22.0005 C   0  0  0  0  0  0
  -27.6652  -19.8097   21.9548 C   0  0  0  0  0  0
  -29.9164  -15.4525   21.1524 N   0  0  0  0  0  0
  -29.8638  -22.2621   21.1322 N   0  0  0  0  0  0
  -29.0006  -23.5349   22.7848 O   0  0  0  0  0  0
  -26.6094  -18.9949   21.9782 F   0  0  0  0  0  0
  -27.7357  -20.4049   23.1443 F   0  0  0  0  0  0
  -27.4329  -20.7274   21.0181 F   0  0  0  0  0  0
  -31.4757  -12.4441   19.1116 H   0  0  0  0  0  0
  -30.3583  -11.3070   19.8116 H   0  0  0  0  0  0
  -29.7404  -11.7828   17.4280 H   0  0  0  0  0  0
  -29.6614  -13.4938   17.7639 H   0  0  0  0  0  0
  -27.8290  -11.3077   18.8093 H   0  0  0  0  0  0
  -27.3693  -12.6427   17.7859 H   0  0  0  0  0  0
  -27.7106  -14.2492   19.5820 H   0  0  0  0  0  0
  -28.6898  -11.9240   21.3113 H   0  0  0  0  0  0
  -28.4571  -13.5396   21.8873 H   0  0  0  0  0  0
  -25.2753   -9.5689   22.4745 H   0  0  0  0  0  0
  -24.0001   -7.4635   22.7458 H   0  0  0  0  0  0
  -21.0826   -8.8770   19.8955 H   0  0  0  0  0  0
  -22.3668  -10.9676   19.6174 H   0  0  0  0  0  0
  -21.2002   -7.6140   23.9706 H   0  0  0  0  0  0
  -21.1474   -6.0519   25.9070 H   0  0  0  0  0  0
  -22.0605   -2.7605   23.2848 H   0  0  0  0  0  0
  -22.4125  -11.9928   22.4820 H   0  0  0  0  0  0
  -21.1141  -13.1306   22.2626 H   0  0  0  0  0  0
  -24.6685  -15.8418   20.5032 H   0  0  0  0  0  0
  -26.2782  -15.6133   20.0450 H   0  0  0  0  0  0
  -26.7113  -32.5536   23.1142 H   0  0  0  0  0  0
  -25.0054  -33.9771   25.0466 H   0  0  0  0  0  0
  -22.6937  -31.3030   21.4057 H   0  0  0  0  0  0
  -23.3772  -35.9610   23.3218 H   0  0  0  0  0  0
  -24.3609  -36.8995   22.2055 H   0  0  0  0  0  0
  -23.7189  -37.6474   23.6682 H   0  0  0  0  0  0
  -26.0417  -31.5912   20.5896 H   0  0  0  0  0  0
  -26.8224  -30.8900   21.9791 H   0  0  0  0  0  0
  -28.1130  -29.0999   21.1601 H   0  0  0  0  0  0
  -26.0789  -25.9513   19.0399 H   0  0  0  0  0  0
  -23.9828  -27.2737   19.0564 H   0  0  0  0  0  0
  -23.7245  -30.5851   19.4025 H   0  0  0  0  0  0
  -22.7410  -29.2317   19.8723 H   0  0  0  0  0  0
  -25.1250  -36.1954   25.0827 H   0  0  0  0  0  0
  -20.9948  -28.3236   24.1436 H   0  0  0  0  0  0
  -20.5671  -26.2266   23.3601 H   0  0  0  0  0  0
  -21.6637  -26.7449   22.1208 H   0  0  0  0  0  0
  -19.6905  -25.6302   21.1229 H   0  0  0  0  0  0
  -19.6673  -27.3201   20.6744 H   0  0  0  0  0  0
  -17.4184  -26.6650   21.4041 H   0  0  0  0  0  0
  -18.0337  -26.0069   22.9031 H   0  0  0  0  0  0
  -19.7933  -30.7255   24.2286 H   0  0  0  0  0  0
  -17.5016  -31.6266   24.5163 H   0  0  0  0  0  0
  -15.5350  -30.2998   23.7642 H   0  0  0  0  0  0
  -15.8655  -28.0824   22.7066 H   0  0  0  0  0  0
  -24.5841  -30.7194   25.7816 H   0  0  0  0  0  0
  -24.9057  -32.2938   26.4988 H   0  0  0  0  0  0
  -25.8091  -30.8832   27.0189 H   0  0  0  0  0  0
  -26.2785  -29.6791   24.1162 H   0  0  0  0  0  0
  -27.4035  -29.7245   25.4543 H   0  0  0  0  0  0
  -27.8637  -30.4297   23.9217 H   0  0  0  0  0  0
  -27.2724  -33.3595   26.2049 H   0  0  0  0  0  0
  -28.3870  -32.6843   25.0256 H   0  0  0  0  0  0
  -28.0756  -31.8397   26.5341 H   0  0  0  0  0  0
  -28.2514  -38.0168   24.7675 H   0  0  0  0  0  0
  -28.1208  -36.2724   24.6004 H   0  0  0  0  0  0
  -27.2367  -37.1107   25.8837 H   0  0  0  0  0  0
  -20.9295  -29.8746   21.6935 H   0  0  0  0  0  0
  -26.0151  -38.2858   24.1581 H   0  0  0  0  0  0
  -32.3379  -19.4364   21.2318 H   0  0  0  0  0  0
  -32.2221  -17.0171   20.9139 H   0  0  0  0  0  0
  -27.9619  -17.1436   21.5600 H   0  0  0  0  0  0
  -29.5877  -24.3378   19.6143 H   0  0  0  0  0  0
  -28.0204  -25.7874   21.8544 H   0  0  0  0  0  0
  -31.4710  -21.3940   22.0995 H   0  0  0  0  0  0
  -30.0246  -21.2901   23.0193 H   0  0  0  0  0  0
  -29.0206  -15.1040   21.4583 H   0  0  0  0  0  0
  -30.0807  -22.2083   20.1466 H   0  0  0  0  0  0
  1 25  1  0  0  0
  1 30  2  0  0  0
  1 82  1  0  0  0
  2  3  1  0  0  0
  2 25  1  0  0  0
  2 88  1  0  0  0
  2 89  1  0  0  0
  3  4  1  0  0  0
  3 90  1  0  0  0
  3 91  1  0  0  0
  4  5  1  0  0  0
  4 92  1  0  0  0
  4 93  1  0  0  0
  5  6  1  0  0  0
  5 26  1  0  0  0
  5 94  1  0  0  0
  6 25  1  0  0  0
  6 95  1  0  0  0
  6 96  1  0  0  0
  7  8  2  0  0  0
  7 26  1  0  0  0
  7 29  1  0  0  0
  8  9  1  0  0  0
  8 22  1  0  0  0
  9 10  1  0  0  0
  9 27  2  0  0  0
 10 11  2  0  0  0
 10 15  1  0  0  0
 11 12  1  0  0  0
 11 97  1  0  0  0
 12 13  2  0  0  0
 12 98  1  0  0  0
 13 14  1  0  0  0
 13 31  1  0  0  0
 14 15  2  0  0  0
 14 99  1  0  0  0
 15100  1  0  0  0
 16 17  2  0  0  0
 16 21  1  0  0  0
 16 31  1  0  0  0
 17 18  1  0  0  0
 17101  1  0  0  0
 18 19  2  0  0  0
 18102  1  0  0  0
 19 20  1  0  0  0
 19 24  1  0  0  0
 20 21  2  0  0  0
 20103  1  0  0  0
 21 23  1  0  0  0
 22 28  1  0  0  0
 22 32  2  0  0  0
 26 27  1  0  0  0
 28104  1  0  0  0
 28105  1  0  0  0
 29106  1  0  0  0
 29107  1  0  0  0
 33 34  1  0  0  0
 33 66  1  0  0  0
 33 70  2  0  0  0
 34 36  1  0  0  0
 34 59  1  0  0  0
 34108  1  0  0  0
 35 44  2  0  0  0
 35 45  1  0  0  0
 35 68  1  0  0  0
 36 56  1  0  0  0
 36109  1  0  0  0
 37 39  1  0  0  0
 37 47  1  0  0  0
 37 66  1  0  0  0
 37110  1  0  0  0
 38 43  2  0  0  0
 38 46  1  0  0  0
 38 47  1  0  0  0
 39 64  1  0  0  0
 39 67  2  0  0  0
 40 52  1  0  0  0
 40 53  2  0  0  0
 40 58  1  0  0  0
 41111  1  0  0  0
 41112  1  0  0  0
 41113  1  0  0  0
 41 48  1  0  0  0
 42 43  1  0  0  0
 42 66  1  0  0  0
 42114  1  0  0  0
 42115  1  0  0  0
 43 44  1  0  0  0
 44116  1  0  0  0
 45 46  2  0  0  0
 45117  1  0  0  0
 46118  1  0  0  0
 47119  1  0  0  0
 47120  1  0  0  0
 48 56  1  0  0  0
 48 65  1  0  0  0
 48121  1  0  0  0
 49 50  1  0  0  0
 49 53  1  0  0  0
 49 64  1  0  0  0
 49122  1  0  0  0
 50 51  1  0  0  0
 50123  1  0  0  0
 50124  1  0  0  0
 51 52  1  0  0  0
 51125  1  0  0  0
 51126  1  0  0  0
 52127  1  0  0  0
 52128  1  0  0  0
 53 54  1  0  0  0
 54 55  2  0  0  0
 54129  1  0  0  0
 55 57  1  0  0  0
 55130  1  0  0  0
 56 69  2  0  0  0
 57 58  2  0  0  0
 57131  1  0  0  0
 58132  1  0  0  0
 59 60  1  0  0  0
 59 61  1  0  0  0
 59 62  1  0  0  0
 60133  1  0  0  0
 60134  1  0  0  0
 60135  1  0  0  0
 61136  1  0  0  0
 61137  1  0  0  0
 61138  1  0  0  0
 62139  1  0  0  0
 62140  1  0  0  0
 62141  1  0  0  0
 63 65  1  0  0  0
 63142  1  0  0  0
 63143  1  0  0  0
 63144  1  0  0  0
 64145  1  0  0  0
 65146  1  0  0  0
 68 78  1  0  0  0
 71 72  2  0  0  0
 71 74  1  0  0  0
 71147  1  0  0  0
 72 76  1  0  0  0
 72148  1  0  0  0
 73 75  1  0  0  0
 73 76  2  0  0  0
 73149  1  0  0  0
 74 75  2  0  0  0
 74 80  1  0  0  0
 75 81  1  0  0  0
 76 82  1  0  0  0
 77 78  2  0  0  0
 77 79  1  0  0  0
 77150  1  0  0  0
 78151  1  0  0  0
 79 83  1  0  0  0
 79 84  2  0  0  0
 80 83  1  0  0  0
 80152  1  0  0  0
 80153  1  0  0  0
 81 85  1  0  0  0
 81 86  1  0  0  0
 81 87  1  0  0  0
 82154  1  0  0  0
 83155  1  0  0  0
M  ISO  4   1 100  68 101  78 101  82 100
M  END
> <chiral flag>
0

> <version>
0

> <s_m_source_file>
/data/baiqing/PycharmProjects/Reinvent-master-3.2/result/LINK_invent/BTK/process_docking_weight1_custom_product_contain_oxygen_bond_distance_aromatic_linkinvent_7_9_3/rearranged_h_0054.sdf

> <i_m_source_file_index>
61

> <r_mmod_Potential_Energy-OPLS-2005>
-106.434638977051

> <r_mmod_Stretch_Energy-OPLS-2005>
40.7420806884766

> <r_mmod_Bend_Energy-OPLS-2005>
105.510688781738

> <r_mmod_Torsional_Energy-OPLS-2005>
225.634994506836

> <r_mmod_Improper_Torsional_Energy-OPLS-2005>
5.14789390563965

> <r_mmod_Van_der_Waal_Energy-OPLS-2005>
154.811538696289

> <r_mmod_Electrostatic_Energy-OPLS-2005>
-424.678497314453

> <r_mmod_Solvation_Energy-OPLS-2005>
-226.737350463867

> <b_mmod_Minimization_Converged-OPLS-2005>
0

> <r_mmod_RMS_Derivative-OPLS-2005>
1.05081129074097

$$$$
61
                    3D
 Structure written by MMmdl.
160169  0  0  1  0            999 V2000
  -30.5431  -14.7671   20.5075 C   0  0  0  0  0  0
  -30.4440  -12.4820   19.4854 C   0  0  0  0  0  0
  -29.5063  -12.4856   18.2560 C   0  0  0  0  0  0
  -28.0376  -12.2779   18.6839 C   0  0  0  0  0  0
  -27.6332  -13.2078   19.8525 C   0  0  2  0  0  0
  -28.6678  -13.1370   20.9970 C   0  0  0  0  0  0
  -25.2489  -13.8148   20.5737 C   0  0  0  0  0  0
  -24.1759  -13.0411   20.9266 C   0  0  0  0  0  0
  -24.6294  -11.6877   20.8758 C   0  0  0  0  0  0
  -23.8963  -10.4274   21.0410 C   0  0  0  0  0  0
  -24.3531   -9.4210   21.9199 C   0  0  0  0  0  0
  -23.6266   -8.2218   22.0754 C   0  0  0  0  0  0
  -22.4251   -8.0234   21.3541 C   0  0  0  0  0  0
  -21.9840   -9.0188   20.4634 C   0  0  0  0  0  0
  -22.7119  -10.2106   20.3070 C   0  0  0  0  0  0
  -21.6839   -6.0721   22.5274 C   0  0  0  0  0  0
  -21.4010   -6.5641   23.8198 C   0  0  0  0  0  0
  -21.3649   -5.6809   24.9169 C   0  0  0  0  0  0
  -21.6048   -4.3065   24.7229 C   0  0  0  0  0  0
  -21.8808   -3.8138   23.4343 C   0  0  0  0  0  0
  -21.9188   -4.6955   22.3400 C   0  0  0  0  0  0
  -22.7783  -13.5211   21.1934 C   0  0  0  0  0  0
  -22.1656   -4.2133   21.0977 F   0  0  0  0  0  0
  -21.5619   -3.4537   25.7744 F   0  0  0  0  0  0
  -29.9624  -13.5225   20.4317 N   0  0  0  0  0  0
  -26.2837  -12.9285   20.3263 N   0  0  0  0  0  0
  -25.9193  -11.6452   20.5740 N   0  0  0  0  0  0
  -22.0391  -12.8226   22.0462 N   0  0  0  0  0  0
  -25.4297  -15.1830   20.4070 N   0  0  0  0  0  0
  -31.7216  -14.9060   20.1726 O   0  0  0  0  0  0
  -21.6633   -6.8824   21.4223 O   0  0  0  0  0  0
  -22.3531  -14.5528   20.6763 O   0  0  0  0  0  0
  -24.6302  -31.8491   23.1914 C   0  0  0  0  0  0
  -25.9150  -32.4696   23.8218 C   0  0  1  0  0  0
  -27.2029  -27.2487   20.1730 C   0  0  0  0  0  0
  -25.5921  -33.8499   24.2163 N   0  0  0  0  0  0
  -23.4257  -30.4770   21.5286 C   0  0  2  0  0  0
  -24.8728  -28.9143   20.1074 C   0  0  0  0  0  0
  -22.7431  -29.4615   22.4853 C   0  0  0  0  0  0
  -18.0267  -28.1519   22.8213 C   0  0  0  0  0  0
  -24.1498  -36.7265   23.2628 C   0  0  0  0  0  0
  -25.9647  -30.7728   21.3614 C   0  0  0  0  0  0
  -26.0377  -29.3884   20.7214 C   0  0  0  0  0  0
  -27.2074  -28.5643   20.7460 C   0  0  0  0  0  0
  -26.0224  -26.8371   19.5265 C   0  0  0  0  0  0
  -24.8661  -27.6434   19.5062 C   0  0  0  0  0  0
  -23.6455  -29.7999   20.1453 C   0  0  0  0  0  0
  -25.4122  -36.3011   24.0301 C   0  0  1  0  0  0
  -20.5797  -28.3672   23.1050 C   0  0  2  0  0  0
  -20.6679  -26.9459   22.4942 C   0  0  0  0  0  0
  -19.5551  -26.6212   21.4840 C   0  0  0  0  0  0
  -18.1710  -26.8201   22.1032 C   0  0  0  0  0  0
  -19.1483  -28.8892   23.2733 C   0  0  0  0  0  0
  -18.9347  -30.1355   23.9019 C   0  0  0  0  0  0
  -17.6337  -30.6469   24.0817 C   0  0  0  0  0  0
  -25.9062  -34.9391   23.5030 C   0  0  0  0  0  0
  -16.5200  -29.9026   23.6411 C   0  0  0  0  0  0
  -16.7231  -28.6632   23.0146 C   0  0  0  0  0  0
  -26.4507  -31.6530   25.0613 C   0  0  0  0  0  0
  -25.3737  -31.3741   26.1356 C   0  0  0  0  0  0
  -27.0414  -30.2967   24.6121 C   0  0  0  0  0  0
  -27.6037  -32.4250   25.7469 C   0  0  0  0  0  0
  -27.5578  -37.1783   24.8466 C   0  0  0  0  0  0
  -21.4143  -29.2978   22.3477 N   0  0  0  0  0  0
  -26.4276  -37.3750   23.9415 N   0  0  0  0  0  0
  -24.6902  -31.0558   22.0834 N   0  0  0  0  0  0
  -23.4043  -28.8211   23.3065 O   0  0  0  0  0  0
  -28.3000  -26.3604   20.1933 O   0  0  0  0  0  0
  -26.5670  -34.8839   22.4640 O   0  0  0  0  0  0
  -23.5475  -32.1275   23.7209 O   0  0  0  0  0  0
  -26.7537  -19.3382   20.1069 C   0  0  0  0  0  0
  -27.7079  -18.2988   20.1931 C   0  0  0  0  0  0
  -27.0674  -20.6769   20.4250 C   0  0  0  0  0  0
  -29.3241  -19.9573   20.9618 C   0  0  0  0  0  0
  -29.0230  -18.5571   20.6491 C   0  0  0  0  0  0
  -28.3568  -21.0486   20.8557 C   0  0  0  0  0  0
  -28.1106  -22.6295   22.6987 C   0  0  0  0  0  0
  -28.1762  -21.6754   23.6412 C   0  0  0  0  0  0
  -27.5305  -23.9894   23.1108 C   0  0  0  0  0  0
  -27.1380  -24.9514   21.9838 C   0  0  0  0  0  0
  -28.4403  -23.5783   20.3634 C   0  0  0  0  0  0
  -28.2848  -25.0707   20.9845 C   0  0  1  0  0  0
  -30.0888  -17.3624   20.7621 C   0  0  0  0  0  0
  -28.4953  -22.4108   21.3571 N   0  0  0  0  0  0
  -29.7297  -15.8684   20.7843 N   0  0  0  0  0  0
  -31.4681  -12.6608   19.1650 H   0  0  0  0  0  0
  -30.4596  -11.5027   19.9659 H   0  0  0  0  0  0
  -29.7873  -11.6979   17.5553 H   0  0  0  0  0  0
  -29.6042  -13.4290   17.7213 H   0  0  0  0  0  0
  -27.9326  -11.2361   19.0038 H   0  0  0  0  0  0
  -27.3602  -12.3981   17.8364 H   0  0  0  0  0  0
  -27.6312  -14.2213   19.4469 H   0  0  0  0  0  0
  -28.7247  -12.1281   21.4131 H   0  0  0  0  0  0
  -28.3849  -13.7879   21.8248 H   0  0  0  0  0  0
  -25.2649   -9.5739   22.4792 H   0  0  0  0  0  0
  -23.9966   -7.4640   22.7480 H   0  0  0  0  0  0
  -21.0765   -8.8660   19.8972 H   0  0  0  0  0  0
  -22.3503  -10.9640   19.6197 H   0  0  0  0  0  0
  -21.2007   -7.6141   23.9694 H   0  0  0  0  0  0
  -21.1490   -6.0537   25.9070 H   0  0  0  0  0  0
  -22.0604   -2.7593   23.2849 H   0  0  0  0  0  0
  -22.3972  -11.9854   22.4817 H   0  0  0  0  0  0
  -21.1027  -13.1277   22.2659 H   0  0  0  0  0  0
  -24.6683  -15.8427   20.5185 H   0  0  0  0  0  0
  -26.2264  -15.5760   19.9245 H   0  0  0  0  0  0
  -26.7189  -32.5298   23.0920 H   0  0  0  0  0  0
  -25.0047  -33.9626   25.0290 H   0  0  0  0  0  0
  -22.7137  -31.2951   21.3708 H   0  0  0  0  0  0
  -23.3745  -35.9636   23.3275 H   0  0  0  0  0  0
  -24.3569  -36.8917   22.2045 H   0  0  0  0  0  0
  -23.7278  -37.6454   23.6687 H   0  0  0  0  0  0
  -26.1055  -31.5312   20.5893 H   0  0  0  0  0  0
  -26.8496  -30.8259   21.9809 H   0  0  0  0  0  0
  -28.1044  -28.9169   21.2335 H   0  0  0  0  0  0
  -25.9851  -25.8641   19.0575 H   0  0  0  0  0  0
  -23.9667  -27.2687   19.0364 H   0  0  0  0  0  0
  -23.7560  -30.5661   19.3769 H   0  0  0  0  0  0
  -22.7686  -29.2193   19.8499 H   0  0  0  0  0  0
  -25.1319  -36.1823   25.0807 H   0  0  0  0  0  0
  -20.9933  -28.3006   24.1126 H   0  0  0  0  0  0
  -21.6515  -26.7835   22.0544 H   0  0  0  0  0  0
  -20.5885  -26.2309   23.3142 H   0  0  0  0  0  0
  -19.6485  -27.2536   20.6022 H   0  0  0  0  0  0
  -19.6444  -25.5996   21.1224 H   0  0  0  0  0  0
  -17.4229  -26.7575   21.3077 H   0  0  0  0  0  0
  -17.9596  -26.0177   22.8093 H   0  0  0  0  0  0
  -19.7913  -30.6983   24.2472 H   0  0  0  0  0  0
  -17.4693  -31.5982   24.5608 H   0  0  0  0  0  0
  -15.5168  -30.2804   23.7717 H   0  0  0  0  0  0
  -15.8644  -28.1178   22.6483 H   0  0  0  0  0  0
  -24.5919  -30.7068   25.7706 H   0  0  0  0  0  0
  -24.8925  -32.2946   26.4667 H   0  0  0  0  0  0
  -25.8050  -30.8997   27.0194 H   0  0  0  0  0  0
  -26.3039  -29.6653   24.1160 H   0  0  0  0  0  0
  -27.4156  -29.7274   25.4634 H   0  0  0  0  0  0
  -27.8858  -30.4255   23.9367 H   0  0  0  0  0  0
  -27.2649  -33.3563   26.2045 H   0  0  0  0  0  0
  -28.3942  -32.6779   25.0387 H   0  0  0  0  0  0
  -28.0619  -31.8352   26.5417 H   0  0  0  0  0  0
  -28.2584  -38.0077   24.7502 H   0  0  0  0  0  0
  -28.1063  -36.2603   24.6312 H   0  0  0  0  0  0
  -27.2288  -37.1471   25.8861 H   0  0  0  0  0  0
  -20.9458  -29.8288   21.6321 H   0  0  0  0  0  0
  -26.0111  -38.2819   24.1451 H   0  0  0  0  0  0
  -25.7461  -19.1054   19.8010 H   0  0  0  0  0  0
  -27.4217  -17.2981   19.9063 H   0  0  0  0  0  0
  -26.2795  -21.4155   20.3981 H   0  0  0  0  0  0
  -30.3147  -20.1938   21.3360 H   0  0  0  0  0  0
  -27.8341  -21.8765   24.6474 H   0  0  0  0  0  0
  -28.5632  -20.6840   23.4575 H   0  0  0  0  0  0
  -28.2663  -24.4613   23.7687 H   0  0  0  0  0  0
  -26.6450  -23.8192   23.7303 H   0  0  0  0  0  0
  -26.8690  -25.9102   22.4246 H   0  0  0  0  0  0
  -26.2466  -24.5866   21.4628 H   0  0  0  0  0  0
  -29.3401  -23.5635   19.7436 H   0  0  0  0  0  0
  -27.6031  -23.3836   19.6868 H   0  0  0  0  0  0
  -29.1922  -25.1928   21.5780 H   0  0  0  0  0  0
  -30.7551  -17.4966   19.9116 H   0  0  0  0  0  0
  -30.6956  -17.5675   21.6425 H   0  0  0  0  0  0
  -28.7854  -15.6381   21.0585 H   0  0  0  0  0  0
  1 25  1  0  0  0
  1 30  2  0  0  0
  1 85  1  0  0  0
  2  3  1  0  0  0
  2 25  1  0  0  0
  2 86  1  0  0  0
  2 87  1  0  0  0
  3  4  1  0  0  0
  3 88  1  0  0  0
  3 89  1  0  0  0
  4  5  1  0  0  0
  4 90  1  0  0  0
  4 91  1  0  0  0
  5  6  1  0  0  0
  5 26  1  0  0  0
  5 92  1  0  0  0
  6 25  1  0  0  0
  6 93  1  0  0  0
  6 94  1  0  0  0
  7  8  2  0  0  0
  7 26  1  0  0  0
  7 29  1  0  0  0
  8  9  1  0  0  0
  8 22  1  0  0  0
  9 10  1  0  0  0
  9 27  2  0  0  0
 10 11  2  0  0  0
 10 15  1  0  0  0
 11 12  1  0  0  0
 11 95  1  0  0  0
 12 13  2  0  0  0
 12 96  1  0  0  0
 13 14  1  0  0  0
 13 31  1  0  0  0
 14 15  2  0  0  0
 14 97  1  0  0  0
 15 98  1  0  0  0
 16 17  2  0  0  0
 16 21  1  0  0  0
 16 31  1  0  0  0
 17 18  1  0  0  0
 17 99  1  0  0  0
 18 19  2  0  0  0
 18100  1  0  0  0
 19 20  1  0  0  0
 19 24  1  0  0  0
 20 21  2  0  0  0
 20101  1  0  0  0
 21 23  1  0  0  0
 22 28  1  0  0  0
 22 32  2  0  0  0
 26 27  1  0  0  0
 28102  1  0  0  0
 28103  1  0  0  0
 29104  1  0  0  0
 29105  1  0  0  0
 33 34  1  0  0  0
 33 66  1  0  0  0
 33 70  2  0  0  0
 34 36  1  0  0  0
 34 59  1  0  0  0
 34106  1  0  0  0
 35 44  2  0  0  0
 35 45  1  0  0  0
 35 68  1  0  0  0
 36 56  1  0  0  0
 36107  1  0  0  0
 37 39  1  0  0  0
 37 47  1  0  0  0
 37 66  1  0  0  0
 37108  1  0  0  0
 38 43  2  0  0  0
 38 46  1  0  0  0
 38 47  1  0  0  0
 39 64  1  0  0  0
 39 67  2  0  0  0
 40 52  1  0  0  0
 40 53  2  0  0  0
 40 58  1  0  0  0
 41109  1  0  0  0
 41110  1  0  0  0
 41111  1  0  0  0
 41 48  1  0  0  0
 42 43  1  0  0  0
 42 66  1  0  0  0
 42112  1  0  0  0
 42113  1  0  0  0
 43 44  1  0  0  0
 44114  1  0  0  0
 45 46  2  0  0  0
 45115  1  0  0  0
 46116  1  0  0  0
 47117  1  0  0  0
 47118  1  0  0  0
 48 56  1  0  0  0
 48 65  1  0  0  0
 48119  1  0  0  0
 49 50  1  0  0  0
 49 53  1  0  0  0
 49 64  1  0  0  0
 49120  1  0  0  0
 50 51  1  0  0  0
 50121  1  0  0  0
 50122  1  0  0  0
 51 52  1  0  0  0
 51123  1  0  0  0
 51124  1  0  0  0
 52125  1  0  0  0
 52126  1  0  0  0
 53 54  1  0  0  0
 54 55  2  0  0  0
 54127  1  0  0  0
 55 57  1  0  0  0
 55128  1  0  0  0
 56 69  2  0  0  0
 57 58  2  0  0  0
 57129  1  0  0  0
 58130  1  0  0  0
 59 60  1  0  0  0
 59 61  1  0  0  0
 59 62  1  0  0  0
 60131  1  0  0  0
 60132  1  0  0  0
 60133  1  0  0  0
 61134  1  0  0  0
 61135  1  0  0  0
 61136  1  0  0  0
 62137  1  0  0  0
 62138  1  0  0  0
 62139  1  0  0  0
 63 65  1  0  0  0
 63140  1  0  0  0
 63141  1  0  0  0
 63142  1  0  0  0
 64143  1  0  0  0
 65144  1  0  0  0
 68 82  1  0  0  0
 71 72  2  0  0  0
 71 73  1  0  0  0
 71145  1  0  0  0
 72 75  1  0  0  0
 72146  1  0  0  0
 73 76  2  0  0  0
 73147  1  0  0  0
 74 75  2  0  0  0
 74 76  1  0  0  0
 74148  1  0  0  0
 75 83  1  0  0  0
 76 84  1  0  0  0
 77 78  2  0  0  0
 77 79  1  0  0  0
 77 84  1  0  0  0
 78149  1  0  0  0
 78150  1  0  0  0
 79 80  1  0  0  0
 79151  1  0  0  0
 79152  1  0  0  0
 80 82  1  0  0  0
 80153  1  0  0  0
 80154  1  0  0  0
 81 82  1  0  0  0
 81 84  1  0  0  0
 81155  1  0  0  0
 81156  1  0  0  0
 82157  1  0  0  0
 83 85  1  0  0  0
 83158  1  0  0  0
 83159  1  0  0  0
 85160  1  0  0  0
M  ISO  4   1 100  68 101  82 101  85 100
M  END
> <chiral flag>
0

> <version>
0

> <s_m_source_file>
/data/baiqing/PycharmProjects/Reinvent-master-3.2/result/LINK_invent/BTK/process_docking_weight1_custom_product_contain_oxygen_bond_distance_aromatic_linkinvent_7_9_3/rearranged_h_0054.sdf

> <i_m_source_file_index>
62

> <r_mmod_Potential_Energy-OPLS-2005>
206.806243896484

> <r_mmod_Stretch_Energy-OPLS-2005>
137.752410888672

> <r_mmod_Bend_Energy-OPLS-2005>
187.666244506836

> <r_mmod_Torsional_Energy-OPLS-2005>
274.922424316406

> <r_mmod_Improper_Torsional_Energy-OPLS-2005>
7.82207250595093

> <r_mmod_Van_der_Waal_Energy-OPLS-2005>
139.736068725586

> <r_mmod_Electrostatic_Energy-OPLS-2005>
-434.824066162109

> <r_mmod_Solvation_Energy-OPLS-2005>
-205.036483764648

> <b_mmod_Minimization_Converged-OPLS-2005>
0

> <r_mmod_RMS_Derivative-OPLS-2005>
10.5935039520264

$$$$
62
                    3D
 Structure written by MMmdl.
164173  0  0  1  0            999 V2000
  -30.7033  -14.4893   20.6323 C   0  0  0  0  0  0
  -30.4245  -12.3399   19.4475 C   0  0  0  0  0  0
  -29.5001  -12.5304   18.2263 C   0  0  0  0  0  0
  -28.0219  -12.3655   18.6273 C   0  0  0  0  0  0
  -27.6550  -13.2058   19.8755 C   0  0  2  0  0  0
  -28.6915  -12.9943   21.0039 C   0  0  0  0  0  0
  -25.2361  -13.8049   20.5432 C   0  0  0  0  0  0
  -24.1727  -13.0333   20.9201 C   0  0  0  0  0  0
  -24.6375  -11.6841   20.8830 C   0  0  0  0  0  0
  -23.9053  -10.4245   21.0464 C   0  0  0  0  0  0
  -24.3612   -9.4156   21.9215 C   0  0  0  0  0  0
  -23.6295   -8.2195   22.0749 C   0  0  0  0  0  0
  -22.4271   -8.0252   21.3532 C   0  0  0  0  0  0
  -21.9921   -9.0226   20.4637 C   0  0  0  0  0  0
  -22.7248  -10.2110   20.3082 C   0  0  0  0  0  0
  -21.6835   -6.0724   22.5274 C   0  0  0  0  0  0
  -21.3998   -6.5631   23.8210 C   0  0  0  0  0  0
  -21.3659   -5.6789   24.9180 C   0  0  0  0  0  0
  -21.6041   -4.3049   24.7227 C   0  0  0  0  0  0
  -21.8821   -3.8134   23.4351 C   0  0  0  0  0  0
  -21.9191   -4.6954   22.3407 C   0  0  0  0  0  0
  -22.7758  -13.5139   21.1856 C   0  0  0  0  0  0
  -22.1664   -4.2141   21.0988 F   0  0  0  0  0  0
  -21.5638   -3.4537   25.7744 F   0  0  0  0  0  0
  -30.0309  -13.3139   20.4739 N   0  0  0  0  0  0
  -26.2923  -12.9314   20.3313 N   0  0  0  0  0  0
  -25.9292  -11.6459   20.5817 N   0  0  0  0  0  0
  -22.0428  -12.8169   22.0484 N   0  0  0  0  0  0
  -25.3620  -15.1694   20.3250 N   0  0  0  0  0  0
  -31.7927  -14.7061   20.0879 O   0  0  0  0  0  0
  -21.6619   -6.8858   21.4227 O   0  0  0  0  0  0
  -22.3459  -14.5424   20.6667 O   0  0  0  0  0  0
  -24.6150  -31.8719   23.2091 C   0  0  0  0  0  0
  -25.9074  -32.4830   23.8378 C   0  0  1  0  0  0
  -27.2310  -27.4385   20.1054 C   0  0  0  0  0  0
  -25.5942  -33.8615   24.2341 N   0  0  0  0  0  0
  -23.4014  -30.4979   21.5439 C   0  0  2  0  0  0
  -24.8500  -28.9597   20.1136 C   0  0  0  0  0  0
  -22.7408  -29.4706   22.4923 C   0  0  0  0  0  0
  -18.0321  -28.1352   22.8418 C   0  0  0  0  0  0
  -24.1494  -36.7323   23.2629 C   0  0  0  0  0  0
  -25.9291  -30.8371   21.3626 C   0  0  0  0  0  0
  -26.0080  -29.4681   20.7187 C   0  0  0  0  0  0
  -27.2007  -28.7105   20.7201 C   0  0  0  0  0  0
  -26.0613  -26.9465   19.4929 C   0  0  0  0  0  0
  -24.8696  -27.6955   19.5016 C   0  0  0  0  0  0
  -23.6123  -29.8254   20.1597 C   0  0  0  0  0  0
  -25.4110  -36.3110   24.0329 C   0  0  1  0  0  0
  -20.5911  -28.3702   23.1266 C   0  0  2  0  0  0
  -20.6817  -26.9432   22.5440 C   0  0  0  0  0  0
  -19.5799  -26.6302   21.5274 C   0  0  0  0  0  0
  -18.1951  -26.7853   22.1590 C   0  0  0  0  0  0
  -19.1549  -28.8839   23.2829 C   0  0  0  0  0  0
  -18.9424  -30.1422   23.8871 C   0  0  0  0  0  0
  -17.6420  -30.6502   24.0568 C   0  0  0  0  0  0
  -25.9045  -34.9470   23.5133 C   0  0  0  0  0  0
  -16.5337  -29.9020   23.6265 C   0  0  0  0  0  0
  -16.7329  -28.6486   23.0229 C   0  0  0  0  0  0
  -26.4500  -31.6605   25.0695 C   0  0  0  0  0  0
  -25.3770  -31.3684   26.1439 C   0  0  0  0  0  0
  -27.0314  -30.3052   24.6059 C   0  0  0  0  0  0
  -27.6086  -32.4306   25.7475 C   0  0  0  0  0  0
  -27.5586  -37.1808   24.8455 C   0  0  0  0  0  0
  -21.4141  -29.3024   22.3617 N   0  0  0  0  0  0
  -26.4313  -37.3791   23.9390 N   0  0  0  0  0  0
  -24.6659  -31.0847   22.0971 N   0  0  0  0  0  0
  -23.4190  -28.8305   23.3008 O   0  0  0  0  0  0
  -28.4002  -26.7144   20.0609 O   0  0  0  0  0  0
  -26.5561  -34.8937   22.4677 O   0  0  0  0  0  0
  -23.5359  -32.1466   23.7510 O   0  0  0  0  0  0
  -30.3105  -19.6778   21.1663 C   0  0  0  0  0  0
  -31.4147  -17.4999   21.2862 C   0  0  0  0  0  0
  -29.0401  -19.0599   21.1737 C   0  0  0  0  0  0
  -28.9780  -17.6388   21.2960 C   0  0  0  0  0  0
  -30.1633  -16.8456   21.2978 C   0  0  0  0  0  0
  -31.4846  -18.9048   21.2211 C   0  0  0  0  0  0
  -26.9511  -22.2162   21.4135 C   0  0  0  0  0  0
  -26.7021  -23.5807   20.7405 C   0  0  0  0  0  0
  -29.0707  -23.2223   19.8020 C   0  0  0  0  0  0
  -28.4783  -21.8134   19.5700 C   0  0  0  0  0  0
  -27.9468  -24.2459   20.0837 C   0  0  1  0  0  0
  -27.6343  -16.9480   21.4696 C   0  0  0  0  0  0
  -27.7395  -19.8902   21.0733 C   0  0  0  0  0  0
  -28.4315  -25.5127   20.8448 C   0  0  0  0  0  0
  -27.7814  -21.3453   20.7800 N   0  0  0  0  0  0
  -30.0651  -15.4156   21.3770 N   0  0  0  0  0  0
  -26.3264  -21.9417   22.4424 O   0  0  0  0  0  0
  -33.0205  -19.6867   21.1828 Cl  0  0  0  0  0  0
  -31.4679  -12.4570   19.1526 H   0  0  0  0  0  0
  -30.3334  -11.3324   19.8526 H   0  0  0  0  0  0
  -29.7675  -11.8084   17.4536 H   0  0  0  0  0  0
  -29.6490  -13.5224   17.7966 H   0  0  0  0  0  0
  -27.8524  -11.3107   18.8378 H   0  0  0  0  0  0
  -27.3710  -12.6266   17.7916 H   0  0  0  0  0  0
  -27.6983  -14.2488   19.5695 H   0  0  0  0  0  0
  -28.6797  -11.9567   21.3426 H   0  0  0  0  0  0
  -28.4150  -13.5798   21.8806 H   0  0  0  0  0  0
  -25.2749   -9.5618   22.4798 H   0  0  0  0  0  0
  -23.9980   -7.4580   22.7471 H   0  0  0  0  0  0
  -21.0848   -8.8745   19.8963 H   0  0  0  0  0  0
  -22.3697  -10.9650   19.6207 H   0  0  0  0  0  0
  -21.1971   -7.6134   23.9712 H   0  0  0  0  0  0
  -21.1487   -6.0517   25.9084 H   0  0  0  0  0  0
  -22.0603   -2.7592   23.2856 H   0  0  0  0  0  0
  -22.4060  -11.9837   22.4861 H   0  0  0  0  0  0
  -21.1049  -13.1184   22.2697 H   0  0  0  0  0  0
  -24.5204  -15.7364   20.2923 H   0  0  0  0  0  0
  -26.1091  -15.5516   19.7605 H   0  0  0  0  0  0
  -26.7161  -32.5567   23.1162 H   0  0  0  0  0  0
  -25.0145  -33.9770   25.0523 H   0  0  0  0  0  0
  -22.6885  -31.3113   21.4002 H   0  0  0  0  0  0
  -23.3757  -35.9663   23.3304 H   0  0  0  0  0  0
  -24.3599  -36.8929   22.2046 H   0  0  0  0  0  0
  -23.7266  -37.6538   23.6640 H   0  0  0  0  0  0
  -26.0314  -31.5970   20.5842 H   0  0  0  0  0  0
  -26.8196  -30.9000   21.9796 H   0  0  0  0  0  0
  -28.0921  -29.0942   21.1974 H   0  0  0  0  0  0
  -26.0568  -25.9951   18.9840 H   0  0  0  0  0  0
  -23.9827  -27.2937   19.0299 H   0  0  0  0  0  0
  -23.7166  -30.5872   19.3880 H   0  0  0  0  0  0
  -22.7347  -29.2408   19.8735 H   0  0  0  0  0  0
  -25.1296  -36.1970   25.0822 H   0  0  0  0  0  0
  -20.9995  -28.3285   24.1377 H   0  0  0  0  0  0
  -21.6651  -26.7488   22.1170 H   0  0  0  0  0  0
  -20.5867  -26.2325   23.3644 H   0  0  0  0  0  0
  -19.7004  -25.6205   21.1379 H   0  0  0  0  0  0
  -19.6712  -27.3066   20.6779 H   0  0  0  0  0  0
  -17.4318  -26.6585   21.3893 H   0  0  0  0  0  0
  -18.0262  -25.9957   22.8939 H   0  0  0  0  0  0
  -19.7868  -30.7244   24.2249 H   0  0  0  0  0  0
  -17.4926  -31.6115   24.5299 H   0  0  0  0  0  0
  -15.5311  -30.2817   23.7626 H   0  0  0  0  0  0
  -15.8772  -28.0825   22.6825 H   0  0  0  0  0  0
  -24.5971  -30.7020   25.7754 H   0  0  0  0  0  0
  -24.8945  -32.2823   26.4893 H   0  0  0  0  0  0
  -25.8134  -30.8840   27.0186 H   0  0  0  0  0  0
  -26.2838  -29.6821   24.1155 H   0  0  0  0  0  0
  -27.4126  -29.7276   25.4490 H   0  0  0  0  0  0
  -27.8656  -30.4368   23.9174 H   0  0  0  0  0  0
  -27.2723  -33.3588   26.2108 H   0  0  0  0  0  0
  -28.3885  -32.6896   25.0299 H   0  0  0  0  0  0
  -28.0786  -31.8394   26.5347 H   0  0  0  0  0  0
  -28.2585  -38.0115   24.7493 H   0  0  0  0  0  0
  -28.1091  -36.2639   24.6294 H   0  0  0  0  0  0
  -27.2286  -37.1473   25.8853 H   0  0  0  0  0  0
  -20.9326  -29.8621   21.6718 H   0  0  0  0  0  0
  -26.0193  -38.2870   24.1399 H   0  0  0  0  0  0
  -30.4088  -20.7539   21.1217 H   0  0  0  0  0  0
  -32.3263  -16.9247   21.3439 H   0  0  0  0  0  0
  -26.2063  -24.2585   21.4387 H   0  0  0  0  0  0
  -25.9706  -23.3894   19.9514 H   0  0  0  0  0  0
  -29.6609  -23.5438   18.9412 H   0  0  0  0  0  0
  -29.7691  -23.1773   20.6425 H   0  0  0  0  0  0
  -29.2524  -21.1214   19.2550 H   0  0  0  0  0  0
  -27.7665  -21.8439   18.7429 H   0  0  0  0  0  0
  -27.6274  -24.5691   19.0941 H   0  0  0  0  0  0
  -27.6626  -15.9246   21.1120 H   0  0  0  0  0  0
  -26.8296  -17.4341   20.9257 H   0  0  0  0  0  0
  -27.3546  -16.9067   22.5228 H   0  0  0  0  0  0
  -27.1979  -19.7026   21.9994 H   0  0  0  0  0  0
  -27.1108  -19.4684   20.2907 H   0  0  0  0  0  0
  -29.4665  -25.3721   21.1532 H   0  0  0  0  0  0
  -27.8763  -25.6617   21.7744 H   0  0  0  0  0  0
  -29.1946  -15.0738   21.7511 H   0  0  0  0  0  0
  1 25  1  0  0  0
  1 30  2  0  0  0
  1 86  1  0  0  0
  2  3  1  0  0  0
  2 25  1  0  0  0
  2 89  1  0  0  0
  2 90  1  0  0  0
  3  4  1  0  0  0
  3 91  1  0  0  0
  3 92  1  0  0  0
  4  5  1  0  0  0
  4 93  1  0  0  0
  4 94  1  0  0  0
  5  6  1  0  0  0
  5 26  1  0  0  0
  5 95  1  0  0  0
  6 25  1  0  0  0
  6 96  1  0  0  0
  6 97  1  0  0  0
  7  8  2  0  0  0
  7 26  1  0  0  0
  7 29  1  0  0  0
  8  9  1  0  0  0
  8 22  1  0  0  0
  9 10  1  0  0  0
  9 27  2  0  0  0
 10 11  2  0  0  0
 10 15  1  0  0  0
 11 12  1  0  0  0
 11 98  1  0  0  0
 12 13  2  0  0  0
 12 99  1  0  0  0
 13 14  1  0  0  0
 13 31  1  0  0  0
 14 15  2  0  0  0
 14100  1  0  0  0
 15101  1  0  0  0
 16 17  2  0  0  0
 16 21  1  0  0  0
 16 31  1  0  0  0
 17 18  1  0  0  0
 17102  1  0  0  0
 18 19  2  0  0  0
 18103  1  0  0  0
 19 20  1  0  0  0
 19 24  1  0  0  0
 20 21  2  0  0  0
 20104  1  0  0  0
 21 23  1  0  0  0
 22 28  1  0  0  0
 22 32  2  0  0  0
 26 27  1  0  0  0
 28105  1  0  0  0
 28106  1  0  0  0
 29107  1  0  0  0
 29108  1  0  0  0
 33 34  1  0  0  0
 33 66  1  0  0  0
 33 70  2  0  0  0
 34 36  1  0  0  0
 34 59  1  0  0  0
 34109  1  0  0  0
 35 44  2  0  0  0
 35 45  1  0  0  0
 35 68  1  0  0  0
 36 56  1  0  0  0
 36110  1  0  0  0
 37 39  1  0  0  0
 37 47  1  0  0  0
 37 66  1  0  0  0
 37111  1  0  0  0
 38 43  2  0  0  0
 38 46  1  0  0  0
 38 47  1  0  0  0
 39 64  1  0  0  0
 39 67  2  0  0  0
 40 52  1  0  0  0
 40 53  2  0  0  0
 40 58  1  0  0  0
 41112  1  0  0  0
 41113  1  0  0  0
 41114  1  0  0  0
 41 48  1  0  0  0
 42 43  1  0  0  0
 42 66  1  0  0  0
 42115  1  0  0  0
 42116  1  0  0  0
 43 44  1  0  0  0
 44117  1  0  0  0
 45 46  2  0  0  0
 45118  1  0  0  0
 46119  1  0  0  0
 47120  1  0  0  0
 47121  1  0  0  0
 48 56  1  0  0  0
 48 65  1  0  0  0
 48122  1  0  0  0
 49 50  1  0  0  0
 49 53  1  0  0  0
 49 64  1  0  0  0
 49123  1  0  0  0
 50 51  1  0  0  0
 50124  1  0  0  0
 50125  1  0  0  0
 51 52  1  0  0  0
 51126  1  0  0  0
 51127  1  0  0  0
 52128  1  0  0  0
 52129  1  0  0  0
 53 54  1  0  0  0
 54 55  2  0  0  0
 54130  1  0  0  0
 55 57  1  0  0  0
 55131  1  0  0  0
 56 69  2  0  0  0
 57 58  2  0  0  0
 57132  1  0  0  0
 58133  1  0  0  0
 59 60  1  0  0  0
 59 61  1  0  0  0
 59 62  1  0  0  0
 60134  1  0  0  0
 60135  1  0  0  0
 60136  1  0  0  0
 61137  1  0  0  0
 61138  1  0  0  0
 61139  1  0  0  0
 62140  1  0  0  0
 62141  1  0  0  0
 62142  1  0  0  0
 63 65  1  0  0  0
 63143  1  0  0  0
 63144  1  0  0  0
 63145  1  0  0  0
 64146  1  0  0  0
 65147  1  0  0  0
 68 84  1  0  0  0
 71 73  2  0  0  0
 71 76  1  0  0  0
 71148  1  0  0  0
 72 75  1  0  0  0
 72 76  2  0  0  0
 72149  1  0  0  0
 73 74  1  0  0  0
 73 83  1  0  0  0
 74 75  2  0  0  0
 74 82  1  0  0  0
 75 86  1  0  0  0
 76 88  1  0  0  0
 77 78  1  0  0  0
 77 85  1  0  0  0
 77 87  2  0  0  0
 78 81  1  0  0  0
 78150  1  0  0  0
 78151  1  0  0  0
 79 80  1  0  0  0
 79 81  1  0  0  0
 79152  1  0  0  0
 79153  1  0  0  0
 80 85  1  0  0  0
 80154  1  0  0  0
 80155  1  0  0  0
 81 84  1  0  0  0
 81156  1  0  0  0
 82157  1  0  0  0
 82158  1  0  0  0
 82159  1  0  0  0
 83 85  1  0  0  0
 83160  1  0  0  0
 83161  1  0  0  0
 84162  1  0  0  0
 84163  1  0  0  0
 86164  1  0  0  0
M  ISO  4   1 100  68 101  84 101  86 100
M  END
> <chiral flag>
0

> <version>
0

> <s_m_source_file>
/data/baiqing/PycharmProjects/Reinvent-master-3.2/result/LINK_invent/BTK/process_docking_weight1_custom_product_contain_oxygen_bond_distance_aromatic_linkinvent_7_9_3/rearranged_h_0054.sdf

> <i_m_source_file_index>
63

> <r_mmod_Potential_Energy-OPLS-2005>
6.58956623077393

> <r_mmod_Stretch_Energy-OPLS-2005>
44.4142265319824

> <r_mmod_Bend_Energy-OPLS-2005>
106.816299438477

> <r_mmod_Torsional_Energy-OPLS-2005>
284.03369140625

> <r_mmod_Improper_Torsional_Energy-OPLS-2005>
7.46310138702393

> <r_mmod_Van_der_Waal_Energy-OPLS-2005>
181.013641357422

> <r_mmod_Electrostatic_Energy-OPLS-2005>
-406.445343017578

> <r_mmod_Solvation_Energy-OPLS-2005>
-224.505111694336

> <b_mmod_Minimization_Converged-OPLS-2005>
0

> <r_mmod_RMS_Derivative-OPLS-2005>
6.0529522895813

$$$$
63
                    3D
 Structure written by MMmdl.
178187  0  0  1  0            999 V2000
  -30.7474  -14.3144   20.7362 C   0  0  0  0  0  0
  -30.4125  -12.2664   19.3835 C   0  0  0  0  0  0
  -29.4901  -12.5343   18.1811 C   0  0  0  0  0  0
  -28.0074  -12.3975   18.5908 C   0  0  0  0  0  0
  -27.6686  -13.1911   19.8781 C   0  0  2  0  0  0
  -28.6985  -12.8751   20.9822 C   0  0  0  0  0  0
  -25.2634  -13.8042   20.5559 C   0  0  0  0  0  0
  -24.1890  -13.0394   20.9160 C   0  0  0  0  0  0
  -24.6409  -11.6841   20.8765 C   0  0  0  0  0  0
  -23.9070  -10.4250   21.0401 C   0  0  0  0  0  0
  -24.3616   -9.4174   21.9205 C   0  0  0  0  0  0
  -23.6282   -8.2217   22.0780 C   0  0  0  0  0  0
  -22.4275   -8.0255   21.3557 C   0  0  0  0  0  0
  -21.9918   -9.0222   20.4648 C   0  0  0  0  0  0
  -22.7245  -10.2100   20.3043 C   0  0  0  0  0  0
  -21.6835   -6.0740   22.5300 C   0  0  0  0  0  0
  -21.4000   -6.5653   23.8237 C   0  0  0  0  0  0
  -21.3647   -5.6802   24.9196 C   0  0  0  0  0  0
  -21.6036   -4.3062   24.7241 C   0  0  0  0  0  0
  -21.8796   -3.8159   23.4356 C   0  0  0  0  0  0
  -21.9162   -4.6970   22.3415 C   0  0  0  0  0  0
  -22.7899  -13.5212   21.1790 C   0  0  0  0  0  0
  -22.1614   -4.2151   21.0990 F   0  0  0  0  0  0
  -21.5657   -3.4540   25.7757 F   0  0  0  0  0  0
  -30.0448  -13.1886   20.4648 N   0  0  0  0  0  0
  -26.3074  -12.9209   20.3336 N   0  0  0  0  0  0
  -25.9332  -11.6390   20.5769 N   0  0  0  0  0  0
  -22.0476  -12.8270   22.0325 N   0  0  0  0  0  0
  -25.4305  -15.1733   20.3704 N   0  0  0  0  0  0
  -31.7871  -14.6361   20.1474 O   0  0  0  0  0  0
  -21.6642   -6.8857   21.4251 O   0  0  0  0  0  0
  -22.3639  -14.5541   20.6620 O   0  0  0  0  0  0
  -24.6102  -31.8733   23.2104 C   0  0  0  0  0  0
  -25.8998  -32.4852   23.8416 C   0  0  1  0  0  0
  -27.2525  -27.4890   20.0698 C   0  0  0  0  0  0
  -25.5856  -33.8654   24.2331 N   0  0  0  0  0  0
  -23.3971  -30.4938   21.5505 C   0  0  2  0  0  0
  -24.8445  -28.9649   20.1214 C   0  0  0  0  0  0
  -22.7382  -29.4678   22.5015 C   0  0  0  0  0  0
  -18.0268  -28.1391   22.8504 C   0  0  0  0  0  0
  -24.1482  -36.7320   23.2643 C   0  0  0  0  0  0
  -25.9231  -30.8564   21.3535 C   0  0  0  0  0  0
  -26.0033  -29.4935   20.7025 C   0  0  0  0  0  0
  -27.2079  -28.7624   20.6727 C   0  0  0  0  0  0
  -26.0696  -26.9616   19.4965 C   0  0  0  0  0  0
  -24.8698  -27.6964   19.5200 C   0  0  0  0  0  0
  -23.6016  -29.8194   20.1690 C   0  0  0  0  0  0
  -25.4102  -36.3123   24.0334 C   0  0  1  0  0  0
  -20.5855  -28.3643   23.1338 C   0  0  2  0  0  0
  -20.6735  -26.9373   22.5448 C   0  0  0  0  0  0
  -19.5703  -26.6366   21.5244 C   0  0  0  0  0  0
  -18.1881  -26.7936   22.1639 C   0  0  0  0  0  0
  -19.1519  -28.8827   23.2922 C   0  0  0  0  0  0
  -18.9437  -30.1443   23.8925 C   0  0  0  0  0  0
  -17.6441  -30.6574   24.0596 C   0  0  0  0  0  0
  -25.9014  -34.9499   23.5114 C   0  0  0  0  0  0
  -16.5334  -29.9082   23.6348 C   0  0  0  0  0  0
  -16.7251  -28.6522   23.0344 C   0  0  0  0  0  0
  -26.4448  -31.6627   25.0734 C   0  0  0  0  0  0
  -25.3733  -31.3718   26.1487 C   0  0  0  0  0  0
  -27.0300  -30.3088   24.6118 C   0  0  0  0  0  0
  -27.6046  -32.4345   25.7465 C   0  0  0  0  0  0
  -27.5575  -37.1797   24.8464 C   0  0  0  0  0  0
  -21.4111  -29.3032   22.3758 N   0  0  0  0  0  0
  -26.4294  -37.3802   23.9414 N   0  0  0  0  0  0
  -24.6617  -31.0898   22.0960 N   0  0  0  0  0  0
  -23.4174  -28.8209   23.3032 O   0  0  0  0  0  0
  -28.4667  -26.8405   20.0609 O   0  0  0  0  0  0
  -26.5571  -34.8943   22.4674 O   0  0  0  0  0  0
  -23.5299  -32.1461   23.7513 O   0  0  0  0  0  0
  -31.2741  -18.8961   23.0888 C   0  0  0  0  0  0
  -32.1352  -17.8037   23.2917 C   0  0  0  0  0  0
  -30.0711  -18.7302   22.3759 C   0  0  0  0  0  0
  -31.7687  -16.5349   22.8084 C   0  0  0  0  0  0
  -25.6320  -19.1678   19.8487 C   0  0  0  0  0  0
  -24.8885  -21.0770   21.1600 C   0  0  0  0  0  0
  -26.9562  -19.6532   19.8681 C   0  0  0  0  0  0
  -29.7107  -17.4753   21.8372 C   0  0  0  0  0  0
  -24.5950  -19.8779   20.4849 C   0  0  0  0  0  0
  -26.2028  -21.5887   21.1761 C   0  0  0  0  0  0
  -27.2528  -20.8806   20.5210 C   0  0  0  0  0  0
  -30.5706  -16.3679   22.0801 C   0  0  0  0  0  0
  -28.8609  -16.4993   17.5037 C   0  0  0  0  0  0
  -29.1493  -16.7990   18.7865 C   0  0  0  0  0  0
  -28.0029  -18.8939   19.1010 C   0  0  0  0  0  0
  -27.9873  -24.7049   21.0987 C   0  0  0  0  0  0
  -23.1683  -19.3701   20.4163 C   0  0  0  0  0  0
  -28.6752  -21.4461   20.4945 C   0  0  0  0  0  0
  -28.3929  -17.3566   21.0509 C   0  0  0  0  0  0
  -26.4389  -22.9319   21.8579 C   0  0  0  0  0  0
  -28.5191  -25.4313   19.8608 C   0  0  0  0  0  0
  -30.1988  -15.0631   21.7012 N   0  0  0  0  0  0
  -26.9345  -23.9097   20.9030 N   0  0  0  0  0  0
  -28.4632  -17.7140   19.6091 N   0  0  0  0  0  0
  -28.3631  -19.3690   18.0151 O   0  0  0  0  0  0
  -28.5371  -24.8425   22.1938 O   0  0  0  0  0  0
  -31.4598  -12.3524   19.0994 H   0  0  0  0  0  0
  -30.2788  -11.2356   19.7165 H   0  0  0  0  0  0
  -29.7199  -11.8353   17.3757 H   0  0  0  0  0  0
  -29.6900  -13.5298   17.7820 H   0  0  0  0  0  0
  -27.8027  -11.3373   18.7499 H   0  0  0  0  0  0
  -27.3558  -12.7126   17.7745 H   0  0  0  0  0  0
  -27.7367  -14.2530   19.6396 H   0  0  0  0  0  0
  -28.6626  -11.8132   21.2312 H   0  0  0  0  0  0
  -28.4350  -13.3816   21.9104 H   0  0  0  0  0  0
  -25.2731   -9.5677   22.4830 H   0  0  0  0  0  0
  -23.9979   -7.4620   22.7519 H   0  0  0  0  0  0
  -21.0856   -8.8699   19.8950 H   0  0  0  0  0  0
  -22.3679  -10.9642   19.6157 H   0  0  0  0  0  0
  -21.1995   -7.6175   23.9723 H   0  0  0  0  0  0
  -21.1496   -6.0559   25.9098 H   0  0  0  0  0  0
  -22.0590   -2.7626   23.2860 H   0  0  0  0  0  0
  -22.4057  -11.9961   22.4792 H   0  0  0  0  0  0
  -21.1057  -13.1255   22.2411 H   0  0  0  0  0  0
  -24.5956  -15.7444   20.3148 H   0  0  0  0  0  0
  -26.1920  -15.5296   19.8106 H   0  0  0  0  0  0
  -26.7075  -32.5596   23.1205 H   0  0  0  0  0  0
  -25.0016  -33.9842   25.0474 H   0  0  0  0  0  0
  -22.6840  -31.3068   21.4046 H   0  0  0  0  0  0
  -23.3756  -35.9641   23.3315 H   0  0  0  0  0  0
  -24.3592  -36.8937   22.2064 H   0  0  0  0  0  0
  -23.7220  -37.6516   23.6661 H   0  0  0  0  0  0
  -26.0244  -31.6199   20.5820 H   0  0  0  0  0  0
  -26.8167  -30.9184   21.9626 H   0  0  0  0  0  0
  -28.1100  -29.1731   21.1080 H   0  0  0  0  0  0
  -26.0513  -25.9946   19.0171 H   0  0  0  0  0  0
  -23.9762  -27.2794   19.0757 H   0  0  0  0  0  0
  -23.6986  -30.5843   19.3977 H   0  0  0  0  0  0
  -22.7326  -29.2226   19.8868 H   0  0  0  0  0  0
  -25.1294  -36.1983   25.0829 H   0  0  0  0  0  0
  -20.9953  -28.3180   24.1460 H   0  0  0  0  0  0
  -20.5656  -26.2240   23.3645 H   0  0  0  0  0  0
  -21.6583  -26.7427   22.1190 H   0  0  0  0  0  0
  -19.6849  -25.6311   21.1213 H   0  0  0  0  0  0
  -19.6665  -27.3219   20.6813 H   0  0  0  0  0  0
  -17.4179  -26.6716   21.4018 H   0  0  0  0  0  0
  -18.0224  -26.0094   22.9047 H   0  0  0  0  0  0
  -19.7918  -30.7265   24.2267 H   0  0  0  0  0  0
  -17.4980  -31.6249   24.5176 H   0  0  0  0  0  0
  -15.5321  -30.2965   23.7671 H   0  0  0  0  0  0
  -15.8657  -28.0857   22.7015 H   0  0  0  0  0  0
  -24.5854  -30.7139   25.7804 H   0  0  0  0  0  0
  -24.8986  -32.2874   26.5033 H   0  0  0  0  0  0
  -25.8088  -30.8790   27.0187 H   0  0  0  0  0  0
  -26.2856  -29.6807   24.1211 H   0  0  0  0  0  0
  -27.4126  -29.7370   25.4587 H   0  0  0  0  0  0
  -27.8665  -30.4455   23.9254 H   0  0  0  0  0  0
  -27.2692  -33.3637   26.2095 H   0  0  0  0  0  0
  -28.3800  -32.6915   25.0229 H   0  0  0  0  0  0
  -28.0790  -31.8447   26.5326 H   0  0  0  0  0  0
  -28.2582  -38.0103   24.7511 H   0  0  0  0  0  0
  -28.1057  -36.2622   24.6268 H   0  0  0  0  0  0
  -27.2291  -37.1441   25.8866 H   0  0  0  0  0  0
  -20.9249  -29.8773   21.7014 H   0  0  0  0  0  0
  -26.0173  -38.2873   24.1443 H   0  0  0  0  0  0
  -31.5342  -19.8630   23.4963 H   0  0  0  0  0  0
  -33.0620  -17.9311   23.8375 H   0  0  0  0  0  0
  -29.4112  -19.5765   22.2705 H   0  0  0  0  0  0
  -32.4068  -15.6879   23.0229 H   0  0  0  0  0  0
  -25.3978  -18.2607   19.3061 H   0  0  0  0  0  0
  -24.0900  -21.6241   21.6454 H   0  0  0  0  0  0
  -29.4477  -15.7800   16.9521 H   0  0  0  0  0  0
  -28.0366  -16.9561   16.9732 H   0  0  0  0  0  0
  -29.9741  -16.3256   19.2861 H   0  0  0  0  0  0
  -23.1405  -18.3083   20.1679 H   0  0  0  0  0  0
  -22.6190  -19.9108   19.6450 H   0  0  0  0  0  0
  -22.6459  -19.5057   21.3643 H   0  0  0  0  0  0
  -28.9479  -21.8899   21.4522 H   0  0  0  0  0  0
  -28.7622  -22.2028   19.7157 H   0  0  0  0  0  0
  -29.4398  -20.7014   20.2824 H   0  0  0  0  0  0
  -27.6393  -17.9327   21.5892 H   0  0  0  0  0  0
  -28.0203  -16.3343   21.1181 H   0  0  0  0  0  0
  -27.1320  -22.7802   22.6868 H   0  0  0  0  0  0
  -25.5273  -23.3300   22.3058 H   0  0  0  0  0  0
  -28.0215  -25.1192   18.9439 H   0  0  0  0  0  0
  -29.5645  -25.1408   19.7450 H   0  0  0  0  0  0
  -29.3425  -14.6990   22.0937 H   0  0  0  0  0  0
  -26.5462  -23.8732   19.9703 H   0  0  0  0  0  0
  1 25  1  0  0  0
  1 30  2  0  0  0
  1 92  1  0  0  0
  2  3  1  0  0  0
  2 25  1  0  0  0
  2 97  1  0  0  0
  2 98  1  0  0  0
  3  4  1  0  0  0
  3 99  1  0  0  0
  3100  1  0  0  0
  4  5  1  0  0  0
  4101  1  0  0  0
  4102  1  0  0  0
  5  6  1  0  0  0
  5 26  1  0  0  0
  5103  1  0  0  0
  6 25  1  0  0  0
  6104  1  0  0  0
  6105  1  0  0  0
  7  8  2  0  0  0
  7 26  1  0  0  0
  7 29  1  0  0  0
  8  9  1  0  0  0
  8 22  1  0  0  0
  9 10  1  0  0  0
  9 27  2  0  0  0
 10 11  2  0  0  0
 10 15  1  0  0  0
 11 12  1  0  0  0
 11106  1  0  0  0
 12 13  2  0  0  0
 12107  1  0  0  0
 13 14  1  0  0  0
 13 31  1  0  0  0
 14 15  2  0  0  0
 14108  1  0  0  0
 15109  1  0  0  0
 16 17  2  0  0  0
 16 21  1  0  0  0
 16 31  1  0  0  0
 17 18  1  0  0  0
 17110  1  0  0  0
 18 19  2  0  0  0
 18111  1  0  0  0
 19 20  1  0  0  0
 19 24  1  0  0  0
 20 21  2  0  0  0
 20112  1  0  0  0
 21 23  1  0  0  0
 22 28  1  0  0  0
 22 32  2  0  0  0
 26 27  1  0  0  0
 28113  1  0  0  0
 28114  1  0  0  0
 29115  1  0  0  0
 29116  1  0  0  0
 33 34  1  0  0  0
 33 66  1  0  0  0
 33 70  2  0  0  0
 34 36  1  0  0  0
 34 59  1  0  0  0
 34117  1  0  0  0
 35 44  2  0  0  0
 35 45  1  0  0  0
 35 68  1  0  0  0
 36 56  1  0  0  0
 36118  1  0  0  0
 37 39  1  0  0  0
 37 47  1  0  0  0
 37 66  1  0  0  0
 37119  1  0  0  0
 38 43  2  0  0  0
 38 46  1  0  0  0
 38 47  1  0  0  0
 39 64  1  0  0  0
 39 67  2  0  0  0
 40 52  1  0  0  0
 40 53  2  0  0  0
 40 58  1  0  0  0
 41120  1  0  0  0
 41121  1  0  0  0
 41122  1  0  0  0
 41 48  1  0  0  0
 42 43  1  0  0  0
 42 66  1  0  0  0
 42123  1  0  0  0
 42124  1  0  0  0
 43 44  1  0  0  0
 44125  1  0  0  0
 45 46  2  0  0  0
 45126  1  0  0  0
 46127  1  0  0  0
 47128  1  0  0  0
 47129  1  0  0  0
 48 56  1  0  0  0
 48 65  1  0  0  0
 48130  1  0  0  0
 49 50  1  0  0  0
 49 53  1  0  0  0
 49 64  1  0  0  0
 49131  1  0  0  0
 50 51  1  0  0  0
 50132  1  0  0  0
 50133  1  0  0  0
 51 52  1  0  0  0
 51134  1  0  0  0
 51135  1  0  0  0
 52136  1  0  0  0
 52137  1  0  0  0
 53 54  1  0  0  0
 54 55  2  0  0  0
 54138  1  0  0  0
 55 57  1  0  0  0
 55139  1  0  0  0
 56 69  2  0  0  0
 57 58  2  0  0  0
 57140  1  0  0  0
 58141  1  0  0  0
 59 60  1  0  0  0
 59 61  1  0  0  0
 59 62  1  0  0  0
 60142  1  0  0  0
 60143  1  0  0  0
 60144  1  0  0  0
 61145  1  0  0  0
 61146  1  0  0  0
 61147  1  0  0  0
 62148  1  0  0  0
 62149  1  0  0  0
 62150  1  0  0  0
 63 65  1  0  0  0
 63151  1  0  0  0
 63152  1  0  0  0
 63153  1  0  0  0
 64154  1  0  0  0
 65155  1  0  0  0
 68 91  1  0  0  0
 71 72  2  0  0  0
 71 73  1  0  0  0
 71156  1  0  0  0
 72 74  1  0  0  0
 72157  1  0  0  0
 73 78  2  0  0  0
 73158  1  0  0  0
 74 82  2  0  0  0
 74159  1  0  0  0
 75 77  2  0  0  0
 75 79  1  0  0  0
 75160  1  0  0  0
 76 79  2  0  0  0
 76 80  1  0  0  0
 76161  1  0  0  0
 77 81  1  0  0  0
 77 85  1  0  0  0
 78 82  1  0  0  0
 78 89  1  0  0  0
 79 87  1  0  0  0
 80 81  2  0  0  0
 80 90  1  0  0  0
 81 88  1  0  0  0
 82 92  1  0  0  0
 83 84  2  0  0  0
 83162  1  0  0  0
 83163  1  0  0  0
 84 94  1  0  0  0
 84164  1  0  0  0
 85 94  1  0  0  0
 85 95  2  0  0  0
 86 91  1  0  0  0
 86 93  1  0  0  0
 86 96  2  0  0  0
 87165  1  0  0  0
 87166  1  0  0  0
 87167  1  0  0  0
 88168  1  0  0  0
 88169  1  0  0  0
 88170  1  0  0  0
 89 94  1  0  0  0
 89171  1  0  0  0
 89172  1  0  0  0
 90 93  1  0  0  0
 90173  1  0  0  0
 90174  1  0  0  0
 91175  1  0  0  0
 91176  1  0  0  0
 92177  1  0  0  0
 93178  1  0  0  0
M  ISO  4   1 100  68 101  91 101  92 100
M  END
> <chiral flag>
0

> <version>
0

> <s_m_source_file>
/data/baiqing/PycharmProjects/Reinvent-master-3.2/result/LINK_invent/BTK/process_docking_weight1_custom_product_contain_oxygen_bond_distance_aromatic_linkinvent_7_9_3/rearranged_h_0054.sdf

> <i_m_source_file_index>
64

> <r_mmod_Potential_Energy-OPLS-2005>
56.7327919006348

> <r_mmod_Stretch_Energy-OPLS-2005>
41.4402694702148

> <r_mmod_Bend_Energy-OPLS-2005>
107.122787475586

> <r_mmod_Torsional_Energy-OPLS-2005>
298.666748046875

> <r_mmod_Improper_Torsional_Energy-OPLS-2005>
5.89364242553711

> <r_mmod_Van_der_Waal_Energy-OPLS-2005>
174.203384399414

> <r_mmod_Electrostatic_Energy-OPLS-2005>
-337.933410644531

> <r_mmod_Solvation_Energy-OPLS-2005>
-243.249755859375

> <b_mmod_Minimization_Converged-OPLS-2005>
0

> <r_mmod_RMS_Derivative-OPLS-2005>
5.0517201423645

$$$$
64
                    3D
 Structure written by MMmdl.
159167  0  0  1  0            999 V2000
  -30.7320  -14.5824   20.3775 C   0  0  0  0  0  0
  -30.4128  -12.3356   19.4358 C   0  0  0  0  0  0
  -29.4625  -12.3724   18.2137 C   0  0  0  0  0  0
  -27.9939  -12.2962   18.6435 C   0  0  0  0  0  0
  -27.6442  -13.2281   19.8354 C   0  0  2  0  0  0
  -28.7059  -13.1632   20.9570 C   0  0  0  0  0  0
  -25.2590  -13.8307   20.5618 C   0  0  0  0  0  0
  -24.1882  -13.0553   20.9178 C   0  0  0  0  0  0
  -24.6458  -11.7025   20.8789 C   0  0  0  0  0  0
  -23.9145  -10.4383   21.0450 C   0  0  0  0  0  0
  -24.3718   -9.4301   21.9218 C   0  0  0  0  0  0
  -23.6391   -8.2351   22.0780 C   0  0  0  0  0  0
  -22.4379   -8.0354   21.3572 C   0  0  0  0  0  0
  -22.0006   -9.0332   20.4690 C   0  0  0  0  0  0
  -22.7322  -10.2211   20.3097 C   0  0  0  0  0  0
  -21.6906   -6.0755   22.5205 C   0  0  0  0  0  0
  -21.4042   -6.5662   23.8129 C   0  0  0  0  0  0
  -21.3690   -5.6801   24.9094 C   0  0  0  0  0  0
  -21.6077   -4.3066   24.7132 C   0  0  0  0  0  0
  -21.8863   -3.8153   23.4248 C   0  0  0  0  0  0
  -21.9256   -4.6983   22.3302 C   0  0  0  0  0  0
  -22.7902  -13.5302   21.1770 C   0  0  0  0  0  0
  -22.1715   -4.2151   21.0898 F   0  0  0  0  0  0
  -21.5650   -3.4572   25.7654 F   0  0  0  0  0  0
  -30.0146  -13.4208   20.3497 N   0  0  0  0  0  0
  -26.3011  -12.9475   20.3297 N   0  0  0  0  0  0
  -25.9375  -11.6639   20.5860 N   0  0  0  0  0  0
  -22.0571  -12.8256   22.0322 N   0  0  0  0  0  0
  -25.4359  -15.2013   20.3947 N   0  0  0  0  0  0
  -31.9504  -14.6011   20.2517 O   0  0  0  0  0  0
  -21.6780   -6.8929   21.4189 O   0  0  0  0  0  0
  -22.3545  -14.5569   20.6578 O   0  0  0  0  0  0
  -24.6222  -31.8691   23.2117 C   0  0  0  0  0  0
  -25.9089  -32.4838   23.8409 C   0  0  1  0  0  0
  -27.1961  -27.3609   20.1026 C   0  0  0  0  0  0
  -25.5926  -33.8649   24.2331 N   0  0  0  0  0  0
  -23.4134  -30.4959   21.5558 C   0  0  2  0  0  0
  -24.8530  -28.9687   20.1091 C   0  0  0  0  0  0
  -22.7491  -29.4669   22.5006 C   0  0  0  0  0  0
  -18.0291  -28.1405   22.8485 C   0  0  0  0  0  0
  -24.1500  -36.7322   23.2633 C   0  0  0  0  0  0
  -25.9550  -30.8043   21.3841 C   0  0  0  0  0  0
  -26.0224  -29.4413   20.7178 C   0  0  0  0  0  0
  -27.2011  -28.6464   20.7094 C   0  0  0  0  0  0
  -26.0096  -26.9489   19.4476 C   0  0  0  0  0  0
  -24.8441  -27.7265   19.4679 C   0  0  0  0  0  0
  -23.6242  -29.8458   20.1660 C   0  0  0  0  0  0
  -25.4127  -36.3139   24.0345 C   0  0  1  0  0  0
  -20.5895  -28.3703   23.1309 C   0  0  2  0  0  0
  -20.6808  -26.9440   22.5417 C   0  0  0  0  0  0
  -19.5766  -26.6401   21.5233 C   0  0  0  0  0  0
  -18.1945  -26.7949   22.1637 C   0  0  0  0  0  0
  -19.1546  -28.8870   23.2881 C   0  0  0  0  0  0
  -18.9463  -30.1478   23.8891 C   0  0  0  0  0  0
  -17.6462  -30.6602   24.0575 C   0  0  0  0  0  0
  -25.9053  -34.9498   23.5140 C   0  0  0  0  0  0
  -16.5351  -29.9107   23.6325 C   0  0  0  0  0  0
  -16.7284  -28.6530   23.0335 C   0  0  0  0  0  0
  -26.4445  -31.6630   25.0778 C   0  0  0  0  0  0
  -25.3647  -31.3785   26.1477 C   0  0  0  0  0  0
  -27.0275  -30.3054   24.6229 C   0  0  0  0  0  0
  -27.6025  -32.4349   25.7537 C   0  0  0  0  0  0
  -27.5599  -37.1829   24.8465 C   0  0  0  0  0  0
  -21.4215  -29.3054   22.3729 N   0  0  0  0  0  0
  -26.4310  -37.3821   23.9403 N   0  0  0  0  0  0
  -24.6825  -31.0713   22.1066 N   0  0  0  0  0  0
  -23.4230  -28.8204   23.3056 O   0  0  0  0  0  0
  -28.2853  -26.4938   20.1856 O   0  0  0  0  0  0
  -26.5630  -34.8937   22.4698 O   0  0  0  0  0  0
  -23.5392  -32.1519   23.7407 O   0  0  0  0  0  0
  -30.9943  -18.3774   16.8554 C   0  0  0  0  0  0
  -30.6034  -18.9448   18.0753 C   0  0  0  0  0  0
  -31.1219  -16.9952   16.7666 C   0  0  0  0  0  0
  -30.2810  -18.1639   19.2267 C   0  0  0  0  0  0
  -30.3920  -16.7156   19.1323 C   0  0  0  0  0  0
  -30.8381  -16.1906   17.8749 C   0  0  0  0  0  0
  -29.9206  -19.0007   20.4186 C   0  0  0  0  0  0
  -28.3808  -22.5669   20.6585 C   0  0  0  0  0  0
  -29.0007  -24.0124   20.6681 C   0  0  0  0  0  0
  -29.2325  -21.3800   21.2218 C   0  0  0  0  0  0
  -27.9117  -25.0857   20.3287 C   0  0  0  0  0  0
  -30.1183  -18.5690   21.6609 N   0  0  0  0  0  0
  -30.0468  -15.7474   20.1801 N   0  0  0  0  0  0
  -29.4605  -20.2715   20.2476 N   0  3  0  0  0  0
  -31.0124  -14.8718   17.6700 F   0  0  0  0  0  0
  -31.4508  -12.4206   19.1053 H   0  0  0  0  0  0
  -30.3418  -11.3766   19.9522 H   0  0  0  0  0  0
  -29.6910  -11.5476   17.5377 H   0  0  0  0  0  0
  -29.5705  -13.2601   17.6072 H   0  0  0  0  0  0
  -27.8022  -11.2572   18.9169 H   0  0  0  0  0  0
  -27.3444  -12.5199   17.7944 H   0  0  0  0  0  0
  -27.6393  -14.2402   19.4349 H   0  0  0  0  0  0
  -28.7062  -12.1845   21.4329 H   0  0  0  0  0  0
  -28.4894  -13.8945   21.7382 H   0  0  0  0  0  0
  -25.2906   -9.5809   22.4741 H   0  0  0  0  0  0
  -24.0143   -7.4780   22.7533 H   0  0  0  0  0  0
  -21.0923   -8.8855   19.9004 H   0  0  0  0  0  0
  -22.3818  -10.9746   19.6187 H   0  0  0  0  0  0
  -21.2000   -7.6165   23.9560 H   0  0  0  0  0  0
  -21.1484   -6.0562   25.8971 H   0  0  0  0  0  0
  -22.0618   -2.7596   23.2715 H   0  0  0  0  0  0
  -22.4247  -11.9935   22.4685 H   0  0  0  0  0  0
  -21.1156  -13.1177   22.2492 H   0  0  0  0  0  0
  -24.6755  -15.8674   20.4947 H   0  0  0  0  0  0
  -26.2960  -15.6256   20.0676 H   0  0  0  0  0  0
  -26.7166  -32.5508   23.1165 H   0  0  0  0  0  0
  -25.0049  -33.9797   25.0460 H   0  0  0  0  0  0
  -22.7055  -31.3164   21.4239 H   0  0  0  0  0  0
  -23.3782  -35.9625   23.3301 H   0  0  0  0  0  0
  -24.3590  -36.8934   22.2039 H   0  0  0  0  0  0
  -23.7210  -37.6522   23.6632 H   0  0  0  0  0  0
  -26.0920  -31.5691   20.6182 H   0  0  0  0  0  0
  -26.8358  -30.8417   22.0153 H   0  0  0  0  0  0
  -28.0952  -28.9914   21.2074 H   0  0  0  0  0  0
  -25.9349  -26.0175   18.9116 H   0  0  0  0  0  0
  -23.9469  -27.3740   18.9774 H   0  0  0  0  0  0
  -23.7541  -30.6329   19.4232 H   0  0  0  0  0  0
  -22.7430  -29.2823   19.8543 H   0  0  0  0  0  0
  -25.1292  -36.2020   25.0841 H   0  0  0  0  0  0
  -20.9949  -28.3254   24.1443 H   0  0  0  0  0  0
  -20.5780  -26.2302   23.3609 H   0  0  0  0  0  0
  -21.6667  -26.7540   22.1148 H   0  0  0  0  0  0
  -19.6936  -25.6308   21.1272 H   0  0  0  0  0  0
  -19.6698  -27.3215   20.6760 H   0  0  0  0  0  0
  -17.4234  -26.6709   21.4030 H   0  0  0  0  0  0
  -18.0330  -26.0095   22.9030 H   0  0  0  0  0  0
  -19.7939  -30.7299   24.2264 H   0  0  0  0  0  0
  -17.5015  -31.6282   24.5187 H   0  0  0  0  0  0
  -15.5352  -30.3000   23.7655 H   0  0  0  0  0  0
  -15.8700  -28.0858   22.7022 H   0  0  0  0  0  0
  -24.5793  -30.7185   25.7777 H   0  0  0  0  0  0
  -24.8847  -32.2961   26.4899 H   0  0  0  0  0  0
  -25.7893  -30.8935   27.0274 H   0  0  0  0  0  0
  -26.2883  -29.6864   24.1140 H   0  0  0  0  0  0
  -27.3857  -29.7241   25.4734 H   0  0  0  0  0  0
  -27.8790  -30.4360   23.9551 H   0  0  0  0  0  0
  -27.2656  -33.3643   26.2143 H   0  0  0  0  0  0
  -28.3798  -32.6933   25.0336 H   0  0  0  0  0  0
  -28.0733  -31.8464   26.5425 H   0  0  0  0  0  0
  -28.2626  -38.0123   24.7538 H   0  0  0  0  0  0
  -28.1094  -36.2664   24.6268 H   0  0  0  0  0  0
  -27.2325  -37.1450   25.8870 H   0  0  0  0  0  0
  -20.9429  -29.8742   21.6900 H   0  0  0  0  0  0
  -26.0226  -38.2915   24.1370 H   0  0  0  0  0  0
  -31.2055  -18.9989   15.9967 H   0  0  0  0  0  0
  -30.5616  -20.0229   18.0814 H   0  0  0  0  0  0
  -31.4358  -16.5327   15.8432 H   0  0  0  0  0  0
  -28.0142  -22.3330   19.6565 H   0  0  0  0  0  0
  -27.4704  -22.6097   21.2613 H   0  0  0  0  0  0
  -29.8169  -24.0595   19.9392 H   0  0  0  0  0  0
  -29.4500  -24.2202   21.6451 H   0  0  0  0  0  0
  -28.7159  -20.9725   22.0936 H   0  0  0  0  0  0
  -30.1944  -21.7470   21.5866 H   0  0  0  0  0  0
  -27.1366  -25.0241   21.1055 H   0  0  0  0  0  0
  -27.4639  -24.7307   19.3982 H   0  0  0  0  0  0
  -30.5037  -17.6493   21.8118 H   0  0  0  0  0  0
  -30.0184  -19.1842   22.4514 H   0  0  0  0  0  0
  -29.0806  -15.7421   20.4671 H   0  0  0  0  0  0
  -29.4433  -20.5607   19.2776 H   0  0  0  0  0  0
  1 25  1  0  0  0
  1 30  2  0  0  0
  1 83  1  0  0  0
  2  3  1  0  0  0
  2 25  1  0  0  0
  2 86  1  0  0  0
  2 87  1  0  0  0
  3  4  1  0  0  0
  3 88  1  0  0  0
  3 89  1  0  0  0
  4  5  1  0  0  0
  4 90  1  0  0  0
  4 91  1  0  0  0
  5  6  1  0  0  0
  5 26  1  0  0  0
  5 92  1  0  0  0
  6 25  1  0  0  0
  6 93  1  0  0  0
  6 94  1  0  0  0
  7  8  2  0  0  0
  7 26  1  0  0  0
  7 29  1  0  0  0
  8  9  1  0  0  0
  8 22  1  0  0  0
  9 10  1  0  0  0
  9 27  2  0  0  0
 10 11  2  0  0  0
 10 15  1  0  0  0
 11 12  1  0  0  0
 11 95  1  0  0  0
 12 13  2  0  0  0
 12 96  1  0  0  0
 13 14  1  0  0  0
 13 31  1  0  0  0
 14 15  2  0  0  0
 14 97  1  0  0  0
 15 98  1  0  0  0
 16 17  2  0  0  0
 16 21  1  0  0  0
 16 31  1  0  0  0
 17 18  1  0  0  0
 17 99  1  0  0  0
 18 19  2  0  0  0
 18100  1  0  0  0
 19 20  1  0  0  0
 19 24  1  0  0  0
 20 21  2  0  0  0
 20101  1  0  0  0
 21 23  1  0  0  0
 22 28  1  0  0  0
 22 32  2  0  0  0
 26 27  1  0  0  0
 28102  1  0  0  0
 28103  1  0  0  0
 29104  1  0  0  0
 29105  1  0  0  0
 33 34  1  0  0  0
 33 66  1  0  0  0
 33 70  2  0  0  0
 34 36  1  0  0  0
 34 59  1  0  0  0
 34106  1  0  0  0
 35 44  2  0  0  0
 35 45  1  0  0  0
 35 68  1  0  0  0
 36 56  1  0  0  0
 36107  1  0  0  0
 37 39  1  0  0  0
 37 47  1  0  0  0
 37 66  1  0  0  0
 37108  1  0  0  0
 38 43  2  0  0  0
 38 46  1  0  0  0
 38 47  1  0  0  0
 39 64  1  0  0  0
 39 67  2  0  0  0
 40 52  1  0  0  0
 40 53  2  0  0  0
 40 58  1  0  0  0
 41109  1  0  0  0
 41110  1  0  0  0
 41111  1  0  0  0
 41 48  1  0  0  0
 42 43  1  0  0  0
 42 66  1  0  0  0
 42112  1  0  0  0
 42113  1  0  0  0
 43 44  1  0  0  0
 44114  1  0  0  0
 45 46  2  0  0  0
 45115  1  0  0  0
 46116  1  0  0  0
 47117  1  0  0  0
 47118  1  0  0  0
 48 56  1  0  0  0
 48 65  1  0  0  0
 48119  1  0  0  0
 49 50  1  0  0  0
 49 53  1  0  0  0
 49 64  1  0  0  0
 49120  1  0  0  0
 50 51  1  0  0  0
 50121  1  0  0  0
 50122  1  0  0  0
 51 52  1  0  0  0
 51123  1  0  0  0
 51124  1  0  0  0
 52125  1  0  0  0
 52126  1  0  0  0
 53 54  1  0  0  0
 54 55  2  0  0  0
 54127  1  0  0  0
 55 57  1  0  0  0
 55128  1  0  0  0
 56 69  2  0  0  0
 57 58  2  0  0  0
 57129  1  0  0  0
 58130  1  0  0  0
 59 60  1  0  0  0
 59 61  1  0  0  0
 59 62  1  0  0  0
 60131  1  0  0  0
 60132  1  0  0  0
 60133  1  0  0  0
 61134  1  0  0  0
 61135  1  0  0  0
 61136  1  0  0  0
 62137  1  0  0  0
 62138  1  0  0  0
 62139  1  0  0  0
 63 65  1  0  0  0
 63140  1  0  0  0
 63141  1  0  0  0
 63142  1  0  0  0
 64143  1  0  0  0
 65144  1  0  0  0
 68 81  1  0  0  0
 71 72  2  0  0  0
 71 73  1  0  0  0
 71145  1  0  0  0
 72 74  1  0  0  0
 72146  1  0  0  0
 73 76  2  0  0  0
 73147  1  0  0  0
 74 75  2  0  0  0
 74 77  1  0  0  0
 75 76  1  0  0  0
 75 83  1  0  0  0
 76 85  1  0  0  0
 77 82  1  0  0  0
 77 84  2  0  0  0
 78 79  1  0  0  0
 78 80  1  0  0  0
 78148  1  0  0  0
 78149  1  0  0  0
 79 81  1  0  0  0
 79150  1  0  0  0
 79151  1  0  0  0
 80 84  1  0  0  0
 80152  1  0  0  0
 80153  1  0  0  0
 81154  1  0  0  0
 81155  1  0  0  0
 82156  1  0  0  0
 82157  1  0  0  0
 83158  1  0  0  0
 84159  1  0  0  0
M  CHG  1  84   1
M  ISO  4   1 100  68 101  81 101  83 100
M  END
> <chiral flag>
0

> <version>
0

> <s_m_source_file>
/data/baiqing/PycharmProjects/Reinvent-master-3.2/result/LINK_invent/BTK/process_docking_weight1_custom_product_contain_oxygen_bond_distance_aromatic_linkinvent_7_9_3/rearranged_h_0054.sdf

> <i_m_source_file_index>
65

> <r_mmod_Potential_Energy-OPLS-2005>
-69.7704391479492

> <r_mmod_Stretch_Energy-OPLS-2005>
66.1120071411133

> <r_mmod_Bend_Energy-OPLS-2005>
134.357727050781

> <r_mmod_Torsional_Energy-OPLS-2005>
273.487274169922

> <r_mmod_Improper_Torsional_Energy-OPLS-2005>
12.119969367981

> <r_mmod_Van_der_Waal_Energy-OPLS-2005>
176.658706665039

> <r_mmod_Electrostatic_Energy-OPLS-2005>
-355.198883056641

> <r_mmod_Solvation_Energy-OPLS-2005>
-436.921875

> <b_mmod_Minimization_Converged-OPLS-2005>
0

> <r_mmod_RMS_Derivative-OPLS-2005>
6.18897771835327

$$$$
65
                    3D
 Structure written by MMmdl.
167176  0  0  1  0            999 V2000
  -30.7212  -14.4717   20.5778 C   0  0  0  0  0  0
  -30.4127  -12.3076   19.4307 C   0  0  0  0  0  0
  -29.4906  -12.5075   18.2113 C   0  0  0  0  0  0
  -28.0126  -12.3689   18.6228 C   0  0  0  0  0  0
  -27.6575  -13.2134   19.8763 C   0  0  2  0  0  0
  -28.6993  -13.0101   21.0009 C   0  0  0  0  0  0
  -25.2531  -13.8161   20.5680 C   0  0  0  0  0  0
  -24.1818  -13.0425   20.9201 C   0  0  0  0  0  0
  -24.6393  -11.6902   20.8752 C   0  0  0  0  0  0
  -23.9063  -10.4286   21.0410 C   0  0  0  0  0  0
  -24.3618   -9.4196   21.9179 C   0  0  0  0  0  0
  -23.6290   -8.2235   22.0753 C   0  0  0  0  0  0
  -22.4271   -8.0276   21.3547 C   0  0  0  0  0  0
  -21.9907   -9.0249   20.4645 C   0  0  0  0  0  0
  -22.7241  -10.2127   20.3053 C   0  0  0  0  0  0
  -21.6847   -6.0734   22.5279 C   0  0  0  0  0  0
  -21.4013   -6.5637   23.8212 C   0  0  0  0  0  0
  -21.3663   -5.6792   24.9174 C   0  0  0  0  0  0
  -21.6048   -4.3056   24.7223 C   0  0  0  0  0  0
  -21.8818   -3.8146   23.4342 C   0  0  0  0  0  0
  -21.9190   -4.6963   22.3401 C   0  0  0  0  0  0
  -22.7838  -13.5219   21.1867 C   0  0  0  0  0  0
  -22.1656   -4.2152   21.0975 F   0  0  0  0  0  0
  -21.5633   -3.4536   25.7733 F   0  0  0  0  0  0
  -30.0314  -13.3042   20.4469 N   0  0  0  0  0  0
  -26.2994  -12.9364   20.3377 N   0  0  0  0  0  0
  -25.9323  -11.6514   20.5792 N   0  0  0  0  0  0
  -22.0495  -12.8193   22.0417 N   0  0  0  0  0  0
  -25.4158  -15.1874   20.4018 N   0  0  0  0  0  0
  -31.8388  -14.6226   20.0770 O   0  0  0  0  0  0
  -21.6634   -6.8877   21.4243 O   0  0  0  0  0  0
  -22.3522  -14.5534   20.6727 O   0  0  0  0  0  0
  -24.6152  -31.8669   23.2097 C   0  0  0  0  0  0
  -25.9036  -32.4823   23.8399 C   0  0  1  0  0  0
  -27.2340  -27.4346   20.1008 C   0  0  0  0  0  0
  -25.5889  -33.8621   24.2326 N   0  0  0  0  0  0
  -23.4042  -30.4894   21.5500 C   0  0  2  0  0  0
  -24.8527  -28.9551   20.1135 C   0  0  0  0  0  0
  -22.7420  -29.4646   22.4984 C   0  0  0  0  0  0
  -18.0270  -28.1392   22.8502 C   0  0  0  0  0  0
  -24.1483  -36.7319   23.2641 C   0  0  0  0  0  0
  -25.9324  -30.8351   21.3606 C   0  0  0  0  0  0
  -26.0133  -29.4699   20.7061 C   0  0  0  0  0  0
  -27.2116  -28.7184   20.6924 C   0  0  0  0  0  0
  -26.0596  -26.9309   19.5053 C   0  0  0  0  0  0
  -24.8706  -27.6852   19.5092 C   0  0  0  0  0  0
  -23.6131  -29.8207   20.1650 C   0  0  0  0  0  0
  -25.4103  -36.3109   24.0336 C   0  0  1  0  0  0
  -20.5861  -28.3677   23.1319 C   0  0  2  0  0  0
  -20.6763  -26.9411   22.5419 C   0  0  0  0  0  0
  -19.5736  -26.6396   21.5220 C   0  0  0  0  0  0
  -18.1913  -26.7940   22.1628 C   0  0  0  0  0  0
  -19.1521  -28.8852   23.2907 C   0  0  0  0  0  0
  -18.9448  -30.1456   23.8917 C   0  0  0  0  0  0
  -17.6448  -30.6594   24.0569 C   0  0  0  0  0  0
  -25.9032  -34.9474   23.5131 C   0  0  0  0  0  0
  -16.5342  -29.9093   23.6333 C   0  0  0  0  0  0
  -16.7259  -28.6514   23.0353 C   0  0  0  0  0  0
  -26.4462  -31.6610   25.0733 C   0  0  0  0  0  0
  -25.3729  -31.3678   26.1479 C   0  0  0  0  0  0
  -27.0322  -30.3068   24.6109 C   0  0  0  0  0  0
  -27.6047  -32.4329   25.7485 C   0  0  0  0  0  0
  -27.5578  -37.1810   24.8466 C   0  0  0  0  0  0
  -21.4146  -29.3036   22.3729 N   0  0  0  0  0  0
  -26.4291  -37.3798   23.9409 N   0  0  0  0  0  0
  -24.6690  -31.0776   22.0989 N   0  0  0  0  0  0
  -23.4188  -28.8184   23.3024 O   0  0  0  0  0  0
  -28.3733  -26.6621   20.1218 O   0  0  0  0  0  0
  -26.5600  -34.8922   22.4697 O   0  0  0  0  0  0
  -23.5343  -32.1410   23.7489 O   0  0  0  0  0  0
  -32.1939  -18.5811   21.5053 C   0  0  0  0  0  0
  -31.2252  -19.5966   21.4969 C   0  0  0  0  0  0
  -31.8060  -17.2359   21.4057 C   0  0  0  0  0  0
  -29.8536  -19.2849   21.3910 C   0  0  0  0  0  0
  -29.4593  -17.9139   21.2607 C   0  0  0  0  0  0
  -30.4442  -16.8759   21.2600 C   0  0  0  0  0  0
  -29.6206  -22.0282   19.6620 C   0  0  0  0  0  0
  -30.4428  -21.5711   18.7028 C   0  0  0  0  0  0
  -29.6304  -23.4481   20.2453 C   0  0  0  0  0  0
  -27.2342  -23.1861   20.9368 C   0  0  0  0  0  0
  -27.2094  -21.8156   20.2304 C   0  0  0  0  0  0
  -28.2471  -24.1433   20.2790 C   0  0  1  0  0  0
  -27.9832  -17.5509   21.1448 C   0  0  0  0  0  0
  -28.8555  -20.4551   21.5116 C   0  0  0  0  0  0
  -28.2859  -25.5245   20.9997 C   0  0  0  0  0  0
  -30.0578  -15.4919   21.1696 N   0  0  0  0  0  0
  -28.5398  -21.1515   20.2282 N   0  3  2  0  0  0
  -31.4586  -12.3891   19.1296 H   0  0  0  0  0  0
  -30.3004  -11.3006   19.8353 H   0  0  0  0  0  0
  -29.7300  -11.7837   17.4312 H   0  0  0  0  0  0
  -29.6613  -13.4938   17.7772 H   0  0  0  0  0  0
  -27.8218  -11.3135   18.8199 H   0  0  0  0  0  0
  -27.3637  -12.6437   17.7907 H   0  0  0  0  0  0
  -27.6971  -14.2595   19.5729 H   0  0  0  0  0  0
  -28.6734  -11.9801   21.3597 H   0  0  0  0  0  0
  -28.4615  -13.6262   21.8688 H   0  0  0  0  0  0
  -25.2764   -9.5669   22.4747 H   0  0  0  0  0  0
  -24.0004   -7.4625   22.7466 H   0  0  0  0  0  0
  -21.0844   -8.8771   19.8939 H   0  0  0  0  0  0
  -22.3707  -10.9668   19.6162 H   0  0  0  0  0  0
  -21.2007   -7.6147   23.9716 H   0  0  0  0  0  0
  -21.1487   -6.0521   25.9079 H   0  0  0  0  0  0
  -22.0593   -2.7607   23.2845 H   0  0  0  0  0  0
  -22.4134  -11.9845   22.4774 H   0  0  0  0  0  0
  -21.1114  -13.1204   22.2653 H   0  0  0  0  0  0
  -24.6333  -15.8269   20.4869 H   0  0  0  0  0  0
  -26.2401  -15.6178   20.0066 H   0  0  0  0  0  0
  -26.7117  -32.5536   23.1174 H   0  0  0  0  0  0
  -25.0038  -33.9788   25.0469 H   0  0  0  0  0  0
  -22.6917  -31.3053   21.4101 H   0  0  0  0  0  0
  -23.3744  -35.9658   23.3313 H   0  0  0  0  0  0
  -24.3572  -36.8937   22.2056 H   0  0  0  0  0  0
  -23.7243  -37.6522   23.6662 H   0  0  0  0  0  0
  -26.0422  -31.6016   20.5924 H   0  0  0  0  0  0
  -26.8207  -30.8899   21.9791 H   0  0  0  0  0  0
  -28.1091  -29.1083   21.1529 H   0  0  0  0  0  0
  -26.0634  -25.9515   19.0479 H   0  0  0  0  0  0
  -23.9767  -27.2818   19.0532 H   0  0  0  0  0  0
  -23.7181  -30.5951   19.4042 H   0  0  0  0  0  0
  -22.7387  -29.2381   19.8708 H   0  0  0  0  0  0
  -25.1277  -36.1976   25.0830 H   0  0  0  0  0  0
  -20.9943  -28.3257   24.1444 H   0  0  0  0  0  0
  -20.5684  -26.2283   23.3609 H   0  0  0  0  0  0
  -21.6635  -26.7464   22.1207 H   0  0  0  0  0  0
  -19.6894  -25.6307   21.1250 H   0  0  0  0  0  0
  -19.6681  -27.3220   20.6762 H   0  0  0  0  0  0
  -17.4181  -26.6709   21.4022 H   0  0  0  0  0  0
  -18.0298  -26.0074   22.9014 H   0  0  0  0  0  0
  -19.7918  -30.7272   24.2302 H   0  0  0  0  0  0
  -17.4999  -31.6270   24.5180 H   0  0  0  0  0  0
  -15.5344  -30.3001   23.7645 H   0  0  0  0  0  0
  -15.8658  -28.0836   22.7060 H   0  0  0  0  0  0
  -24.5930  -30.6997   25.7799 H   0  0  0  0  0  0
  -24.8875  -32.2809   26.4935 H   0  0  0  0  0  0
  -25.8087  -30.8844   27.0235 H   0  0  0  0  0  0
  -26.2875  -29.6796   24.1197 H   0  0  0  0  0  0
  -27.4147  -29.7327   25.4561 H   0  0  0  0  0  0
  -27.8673  -30.4407   23.9231 H   0  0  0  0  0  0
  -27.2692  -33.3635   26.2073 H   0  0  0  0  0  0
  -28.3844  -32.6886   25.0297 H   0  0  0  0  0  0
  -28.0735  -31.8447   26.5386 H   0  0  0  0  0  0
  -28.2592  -38.0109   24.7518 H   0  0  0  0  0  0
  -28.1076  -36.2642   24.6288 H   0  0  0  0  0  0
  -27.2292  -37.1454   25.8867 H   0  0  0  0  0  0
  -20.9310  -29.8752   21.6942 H   0  0  0  0  0  0
  -26.0178  -38.2874   24.1427 H   0  0  0  0  0  0
  -33.2399  -18.8339   21.6073 H   0  0  0  0  0  0
  -31.5466  -20.6249   21.5988 H   0  0  0  0  0  0
  -32.5827  -16.4866   21.4529 H   0  0  0  0  0  0
  -31.2080  -22.2047   18.2785 H   0  0  0  0  0  0
  -30.3725  -20.5614   18.3240 H   0  0  0  0  0  0
  -30.3254  -24.0629   19.6710 H   0  0  0  0  0  0
  -30.0465  -23.3912   21.2522 H   0  0  0  0  0  0
  -27.4674  -23.0586   21.9945 H   0  0  0  0  0  0
  -26.2356  -23.6233   20.8979 H   0  0  0  0  0  0
  -26.9027  -21.9564   19.1927 H   0  0  0  0  0  0
  -26.4522  -21.1682   20.6755 H   0  0  0  0  0  0
  -27.9203  -24.3092   19.2510 H   0  0  0  0  0  0
  -27.4230  -18.2942   20.5801 H   0  0  0  0  0  0
  -27.5343  -17.4621   22.1344 H   0  0  0  0  0  0
  -27.8364  -16.6083   20.6227 H   0  0  0  0  0  0
  -29.2446  -21.1848   22.2226 H   0  0  0  0  0  0
  -27.9435  -20.0841   21.9782 H   0  0  0  0  0  0
  -29.1390  -25.5640   21.6771 H   0  0  0  0  0  0
  -27.4184  -25.6194   21.6585 H   0  0  0  0  0  0
  -29.1185  -15.2704   21.4602 H   0  0  0  0  0  0
  -28.4142  -20.3871   19.5831 H   0  0  0  0  0  0
  1 25  1  0  0  0
  1 30  2  0  0  0
  1 86  1  0  0  0
  2  3  1  0  0  0
  2 25  1  0  0  0
  2 88  1  0  0  0
  2 89  1  0  0  0
  3  4  1  0  0  0
  3 90  1  0  0  0
  3 91  1  0  0  0
  4  5  1  0  0  0
  4 92  1  0  0  0
  4 93  1  0  0  0
  5  6  1  0  0  0
  5 26  1  0  0  0
  5 94  1  0  0  0
  6 25  1  0  0  0
  6 95  1  0  0  0
  6 96  1  0  0  0
  7  8  2  0  0  0
  7 26  1  0  0  0
  7 29  1  0  0  0
  8  9  1  0  0  0
  8 22  1  0  0  0
  9 10  1  0  0  0
  9 27  2  0  0  0
 10 11  2  0  0  0
 10 15  1  0  0  0
 11 12  1  0  0  0
 11 97  1  0  0  0
 12 13  2  0  0  0
 12 98  1  0  0  0
 13 14  1  0  0  0
 13 31  1  0  0  0
 14 15  2  0  0  0
 14 99  1  0  0  0
 15100  1  0  0  0
 16 17  2  0  0  0
 16 21  1  0  0  0
 16 31  1  0  0  0
 17 18  1  0  0  0
 17101  1  0  0  0
 18 19  2  0  0  0
 18102  1  0  0  0
 19 20  1  0  0  0
 19 24  1  0  0  0
 20 21  2  0  0  0
 20103  1  0  0  0
 21 23  1  0  0  0
 22 28  1  0  0  0
 22 32  2  0  0  0
 26 27  1  0  0  0
 28104  1  0  0  0
 28105  1  0  0  0
 29106  1  0  0  0
 29107  1  0  0  0
 33 34  1  0  0  0
 33 66  1  0  0  0
 33 70  2  0  0  0
 34 36  1  0  0  0
 34 59  1  0  0  0
 34108  1  0  0  0
 35 44  2  0  0  0
 35 45  1  0  0  0
 35 68  1  0  0  0
 36 56  1  0  0  0
 36109  1  0  0  0
 37 39  1  0  0  0
 37 47  1  0  0  0
 37 66  1  0  0  0
 37110  1  0  0  0
 38 43  2  0  0  0
 38 46  1  0  0  0
 38 47  1  0  0  0
 39 64  1  0  0  0
 39 67  2  0  0  0
 40 52  1  0  0  0
 40 53  2  0  0  0
 40 58  1  0  0  0
 41111  1  0  0  0
 41112  1  0  0  0
 41113  1  0  0  0
 41 48  1  0  0  0
 42 43  1  0  0  0
 42 66  1  0  0  0
 42114  1  0  0  0
 42115  1  0  0  0
 43 44  1  0  0  0
 44116  1  0  0  0
 45 46  2  0  0  0
 45117  1  0  0  0
 46118  1  0  0  0
 47119  1  0  0  0
 47120  1  0  0  0
 48 56  1  0  0  0
 48 65  1  0  0  0
 48121  1  0  0  0
 49 50  1  0  0  0
 49 53  1  0  0  0
 49 64  1  0  0  0
 49122  1  0  0  0
 50 51  1  0  0  0
 50123  1  0  0  0
 50124  1  0  0  0
 51 52  1  0  0  0
 51125  1  0  0  0
 51126  1  0  0  0
 52127  1  0  0  0
 52128  1  0  0  0
 53 54  1  0  0  0
 54 55  2  0  0  0
 54129  1  0  0  0
 55 57  1  0  0  0
 55130  1  0  0  0
 56 69  2  0  0  0
 57 58  2  0  0  0
 57131  1  0  0  0
 58132  1  0  0  0
 59 60  1  0  0  0
 59 61  1  0  0  0
 59 62  1  0  0  0
 60133  1  0  0  0
 60134  1  0  0  0
 60135  1  0  0  0
 61136  1  0  0  0
 61137  1  0  0  0
 61138  1  0  0  0
 62139  1  0  0  0
 62140  1  0  0  0
 62141  1  0  0  0
 63 65  1  0  0  0
 63142  1  0  0  0
 63143  1  0  0  0
 63144  1  0  0  0
 64145  1  0  0  0
 65146  1  0  0  0
 68 85  1  0  0  0
 71 72  2  0  0  0
 71 73  1  0  0  0
 71147  1  0  0  0
 72 74  1  0  0  0
 72148  1  0  0  0
 73 76  2  0  0  0
 73149  1  0  0  0
 74 75  2  0  0  0
 74 84  1  0  0  0
 75 76  1  0  0  0
 75 83  1  0  0  0
 76 86  1  0  0  0
 77 78  2  0  0  0
 77 79  1  0  0  0
 77 87  1  0  0  0
 78150  1  0  0  0
 78151  1  0  0  0
 79 82  1  0  0  0
 79152  1  0  0  0
 79153  1  0  0  0
 80 81  1  0  0  0
 80 82  1  0  0  0
 80154  1  0  0  0
 80155  1  0  0  0
 81 87  1  0  0  0
 81156  1  0  0  0
 81157  1  0  0  0
 82 85  1  0  0  0
 82158  1  0  0  0
 83159  1  0  0  0
 83160  1  0  0  0
 83161  1  0  0  0
 84162  1  0  0  0
 84163  1  0  0  0
 84 87  1  0  0  0
 85164  1  0  0  0
 85165  1  0  0  0
 86166  1  0  0  0
 87167  1  0  0  0
M  CHG  1  87   1
M  ISO  4   1 100  68 101  85 101  86 100
M  END
> <chiral flag>
0

> <version>
0

> <s_m_source_file>
/data/baiqing/PycharmProjects/Reinvent-master-3.2/result/LINK_invent/BTK/process_docking_weight1_custom_product_contain_oxygen_bond_distance_aromatic_linkinvent_7_9_3/rearranged_h_0054.sdf

> <i_m_source_file_index>
66

> <r_mmod_Potential_Energy-OPLS-2005>
-136.675003051758

> <r_mmod_Stretch_Energy-OPLS-2005>
44.6990165710449

> <r_mmod_Bend_Energy-OPLS-2005>
105.467887878418

> <r_mmod_Torsional_Energy-OPLS-2005>
256.712249755859

> <r_mmod_Improper_Torsional_Energy-OPLS-2005>
3.77121496200562

> <r_mmod_Van_der_Waal_Energy-OPLS-2005>
153.80632019043

> <r_mmod_Electrostatic_Energy-OPLS-2005>
-270.980346679688

> <r_mmod_Solvation_Energy-OPLS-2005>
-443.666442871094

> <b_mmod_Minimization_Converged-OPLS-2005>
0

> <r_mmod_RMS_Derivative-OPLS-2005>
1.15747320652008

$$$$
66
                    3D
 Structure written by MMmdl.
157166  0  0  1  0            999 V2000
  -30.4885  -14.9087   20.4119 C   0  0  0  0  0  0
  -30.4461  -12.5559   19.4722 C   0  0  0  0  0  0
  -29.5132  -12.5220   18.2368 C   0  0  0  0  0  0
  -28.0425  -12.3155   18.6578 C   0  0  0  0  0  0
  -27.6298  -13.2299   19.8394 C   0  0  2  0  0  0
  -28.6775  -13.2016   20.9722 C   0  0  0  0  0  0
  -25.2453  -13.8176   20.5718 C   0  0  0  0  0  0
  -24.1742  -13.0440   20.9260 C   0  0  0  0  0  0
  -24.6322  -11.6918   20.8757 C   0  0  0  0  0  0
  -23.9011  -10.4286   21.0400 C   0  0  0  0  0  0
  -24.3583   -9.4187   21.9160 C   0  0  0  0  0  0
  -23.6261   -8.2219   22.0729 C   0  0  0  0  0  0
  -22.4240   -8.0246   21.3525 C   0  0  0  0  0  0
  -21.9857   -9.0227   20.4650 C   0  0  0  0  0  0
  -22.7181  -10.2109   20.3046 C   0  0  0  0  0  0
  -21.6845   -6.0698   22.5263 C   0  0  0  0  0  0
  -21.4026   -6.5616   23.8198 C   0  0  0  0  0  0
  -21.3669   -5.6776   24.9166 C   0  0  0  0  0  0
  -21.6031   -4.3032   24.7236 C   0  0  0  0  0  0
  -21.8816   -3.8123   23.4357 C   0  0  0  0  0  0
  -21.9202   -4.6937   22.3410 C   0  0  0  0  0  0
  -22.7776  -13.5226   21.1907 C   0  0  0  0  0  0
  -22.1663   -4.2126   21.0990 F   0  0  0  0  0  0
  -21.5632   -3.4529   25.7755 F   0  0  0  0  0  0
  -29.9507  -13.6270   20.3776 N   0  0  0  0  0  0
  -26.2857  -12.9368   20.3232 N   0  0  0  0  0  0
  -25.9246  -11.6516   20.5702 N   0  0  0  0  0  0
  -22.0432  -12.8215   22.0479 N   0  0  0  0  0  0
  -25.4175  -15.1892   20.4095 N   0  0  0  0  0  0
  -31.6960  -15.0390   20.1709 O   0  0  0  0  0  0
  -21.6627   -6.8832   21.4214 O   0  0  0  0  0  0
  -22.3453  -14.5551   20.6766 O   0  0  0  0  0  0
  -24.6426  -31.8436   23.1898 C   0  0  0  0  0  0
  -25.9203  -32.4693   23.8288 C   0  0  1  0  0  0
  -27.2105  -27.1412   20.1630 C   0  0  0  0  0  0
  -25.5935  -33.8498   24.2173 N   0  0  0  0  0  0
  -23.4458  -30.4638   21.5337 C   0  0  2  0  0  0
  -24.8930  -28.8828   20.1190 C   0  0  0  0  0  0
  -22.7561  -29.4558   22.4859 C   0  0  0  0  0  0
  -18.0299  -28.1404   22.8474 C   0  0  0  0  0  0
  -24.1475  -36.7256   23.2628 C   0  0  0  0  0  0
  -26.0020  -30.7157   21.3916 C   0  0  0  0  0  0
  -26.0699  -29.3282   20.7340 C   0  0  0  0  0  0
  -27.2333  -28.4747   20.7333 C   0  0  0  0  0  0
  -26.0078  -26.7811   19.5235 C   0  0  0  0  0  0
  -24.8737  -27.6217   19.4990 C   0  0  0  0  0  0
  -23.6739  -29.7913   20.1547 C   0  0  0  0  0  0
  -25.4098  -36.3020   24.0308 C   0  0  1  0  0  0
  -20.5914  -28.3725   23.1236 C   0  0  2  0  0  0
  -20.6781  -26.9428   22.5398 C   0  0  0  0  0  0
  -19.5756  -26.6385   21.5209 C   0  0  0  0  0  0
  -18.1940  -26.7935   22.1628 C   0  0  0  0  0  0
  -19.1554  -28.8879   23.2847 C   0  0  0  0  0  0
  -18.9475  -30.1475   23.8884 C   0  0  0  0  0  0
  -17.6469  -30.6595   24.0565 C   0  0  0  0  0  0
  -25.9075  -34.9410   23.5057 C   0  0  0  0  0  0
  -16.5363  -29.9093   23.6340 C   0  0  0  0  0  0
  -16.7283  -28.6508   23.0368 C   0  0  0  0  0  0
  -26.4527  -31.6594   25.0753 C   0  0  0  0  0  0
  -25.3715  -31.3820   26.1459 C   0  0  0  0  0  0
  -27.0395  -30.2971   24.6394 C   0  0  0  0  0  0
  -27.6041  -32.4401   25.7515 C   0  0  0  0  0  0
  -27.5609  -37.1703   24.8409 C   0  0  0  0  0  0
  -21.4251  -29.3046   22.3611 N   0  0  0  0  0  0
  -26.4229  -37.3776   23.9498 N   0  0  0  0  0  0
  -24.7161  -31.0290   22.0923 N   0  0  0  0  0  0
  -23.4191  -28.8100   23.3016 O   0  0  0  0  0  0
  -28.2908  -26.2001   20.1086 O   0  0  0  0  0  0
  -26.5686  -34.8913   22.4648 O   0  0  0  0  0  0
  -23.5546  -32.1317   23.7128 O   0  0  0  0  0  0
  -30.4878  -19.8292   21.0244 C   0  0  0  0  0  0
  -28.4176  -19.7780   19.9320 C   0  0  0  0  0  0
  -30.6120  -18.3858   20.9562 C   0  0  0  0  0  0
  -28.5117  -18.3188   19.9037 C   0  0  0  0  0  0
  -29.3986  -20.6456   20.5233 C   0  0  0  0  0  0
  -29.6103  -17.5295   20.4129 C   0  0  0  0  0  0
  -30.3044  -22.7711   21.4919 C   0  0  0  0  0  0
  -31.6228  -22.7393   21.2301 C   0  0  0  0  0  0
  -29.7198  -23.6871   22.5464 C   0  0  0  0  0  0
  -29.2628  -24.9853   21.8768 C   0  0  0  0  0  0
  -28.5501  -23.2686   19.9848 C   0  0  0  0  0  0
  -28.2574  -24.7765   20.7259 C   0  0  2  0  0  0
  -29.3469  -22.1391   20.7111 N   0  0  0  0  0  0
  -29.5878  -16.0006   20.4690 N   0  0  0  0  0  0
  -31.4770  -12.7347   19.1613 H   0  0  0  0  0  0
  -30.4511  -11.5906   19.9789 H   0  0  0  0  0  0
  -29.8175  -11.7293   17.5501 H   0  0  0  0  0  0
  -29.6040  -13.4599   17.6872 H   0  0  0  0  0  0
  -27.9192  -11.2703   18.9456 H   0  0  0  0  0  0
  -27.3773  -12.4779   17.8083 H   0  0  0  0  0  0
  -27.6075  -14.2397   19.4293 H   0  0  0  0  0  0
  -28.7584  -12.1998   21.4012 H   0  0  0  0  0  0
  -28.3911  -13.8631   21.7907 H   0  0  0  0  0  0
  -25.2713   -9.5706   22.4741 H   0  0  0  0  0  0
  -23.9993   -7.4614   22.7419 H   0  0  0  0  0  0
  -21.0789   -8.8731   19.8957 H   0  0  0  0  0  0
  -22.3593  -10.9650   19.6178 H   0  0  0  0  0  0
  -21.2010   -7.6117   23.9694 H   0  0  0  0  0  0
  -21.1496   -6.0507   25.9070 H   0  0  0  0  0  0
  -22.0595   -2.7586   23.2867 H   0  0  0  0  0  0
  -22.4070  -11.9933   22.4942 H   0  0  0  0  0  0
  -21.1051  -13.1228   22.2695 H   0  0  0  0  0  0
  -24.6468  -15.8399   20.5161 H   0  0  0  0  0  0
  -26.2421  -15.6188   20.0168 H   0  0  0  0  0  0
  -26.7268  -32.5279   23.1012 H   0  0  0  0  0  0
  -25.0006  -33.9612   25.0271 H   0  0  0  0  0  0
  -22.7471  -31.2896   21.3804 H   0  0  0  0  0  0
  -23.3795  -35.9514   23.3108 H   0  0  0  0  0  0
  -24.3617  -36.9089   22.2085 H   0  0  0  0  0  0
  -23.7127  -37.6346   23.6795 H   0  0  0  0  0  0
  -26.1684  -31.4715   20.6244 H   0  0  0  0  0  0
  -26.8669  -30.7572   22.0421 H   0  0  0  0  0  0
  -28.1404  -28.8159   21.2113 H   0  0  0  0  0  0
  -25.9412  -25.8160   19.0398 H   0  0  0  0  0  0
  -23.9735  -27.2785   19.0082 H   0  0  0  0  0  0
  -23.8176  -30.5661   19.4001 H   0  0  0  0  0  0
  -22.7864  -29.2388   19.8412 H   0  0  0  0  0  0
  -25.1245  -36.1801   25.0784 H   0  0  0  0  0  0
  -20.9996  -28.3317   24.1365 H   0  0  0  0  0  0
  -20.5694  -26.2334   23.3621 H   0  0  0  0  0  0
  -21.6654  -26.7449   22.1195 H   0  0  0  0  0  0
  -19.6919  -25.6288   21.1275 H   0  0  0  0  0  0
  -19.6690  -27.3172   20.6726 H   0  0  0  0  0  0
  -17.4199  -26.6670   21.4046 H   0  0  0  0  0  0
  -18.0350  -26.0095   22.9045 H   0  0  0  0  0  0
  -19.7949  -30.7298   24.2252 H   0  0  0  0  0  0
  -17.5030  -31.6284   24.5158 H   0  0  0  0  0  0
  -15.5369  -30.2997   23.7682 H   0  0  0  0  0  0
  -15.8680  -28.0830   22.7109 H   0  0  0  0  0  0
  -24.5805  -30.7268   25.7789 H   0  0  0  0  0  0
  -24.9010  -32.3027   26.4914 H   0  0  0  0  0  0
  -25.7977  -30.8943   27.0234 H   0  0  0  0  0  0
  -26.3029  -29.6686   24.1360 H   0  0  0  0  0  0
  -27.3919  -29.7289   25.5021 H   0  0  0  0  0  0
  -27.8984  -30.4176   23.9784 H   0  0  0  0  0  0
  -27.2576  -33.3670   26.2102 H   0  0  0  0  0  0
  -28.3809  -32.7046   25.0327 H   0  0  0  0  0  0
  -28.0773  -31.8565   26.5423 H   0  0  0  0  0  0
  -28.2392  -38.0227   24.7809 H   0  0  0  0  0  0
  -28.1327  -36.2797   24.5744 H   0  0  0  0  0  0
  -27.2417  -37.0750   25.8805 H   0  0  0  0  0  0
  -20.9465  -29.8736   21.6770 H   0  0  0  0  0  0
  -26.0068  -38.2774   24.1744 H   0  0  0  0  0  0
  -31.3135  -20.3008   21.5292 H   0  0  0  0  0  0
  -27.5192  -20.2216   19.5245 H   0  0  0  0  0  0
  -31.4963  -17.9331   21.3818 H   0  0  0  0  0  0
  -27.6661  -17.7938   19.4774 H   0  0  0  0  0  0
  -32.3270  -23.3159   21.8109 H   0  0  0  0  0  0
  -32.0195  -22.1530   20.4123 H   0  0  0  0  0  0
  -30.4479  -23.8872   23.3333 H   0  0  0  0  0  0
  -28.8725  -23.2005   23.0316 H   0  0  0  0  0  0
  -30.1514  -25.4783   21.4795 H   0  0  0  0  0  0
  -28.8435  -25.6676   22.6168 H   0  0  0  0  0  0
  -29.1189  -23.4712   19.0766 H   0  0  0  0  0  0
  -27.6046  -22.8549   19.6357 H   0  0  0  0  0  0
  -27.2759  -24.6693   21.1939 H   0  0  0  0  0  0
  -28.6448  -15.6432   20.5129 H   0  0  0  0  0  0
  1 25  1  0  0  0
  1 30  2  0  0  0
  1 84  1  0  0  0
  2  3  1  0  0  0
  2 25  1  0  0  0
  2 85  1  0  0  0
  2 86  1  0  0  0
  3  4  1  0  0  0
  3 87  1  0  0  0
  3 88  1  0  0  0
  4  5  1  0  0  0
  4 89  1  0  0  0
  4 90  1  0  0  0
  5  6  1  0  0  0
  5 26  1  0  0  0
  5 91  1  0  0  0
  6 25  1  0  0  0
  6 92  1  0  0  0
  6 93  1  0  0  0
  7  8  2  0  0  0
  7 26  1  0  0  0
  7 29  1  0  0  0
  8  9  1  0  0  0
  8 22  1  0  0  0
  9 10  1  0  0  0
  9 27  2  0  0  0
 10 11  2  0  0  0
 10 15  1  0  0  0
 11 12  1  0  0  0
 11 94  1  0  0  0
 12 13  2  0  0  0
 12 95  1  0  0  0
 13 14  1  0  0  0
 13 31  1  0  0  0
 14 15  2  0  0  0
 14 96  1  0  0  0
 15 97  1  0  0  0
 16 17  2  0  0  0
 16 21  1  0  0  0
 16 31  1  0  0  0
 17 18  1  0  0  0
 17 98  1  0  0  0
 18 19  2  0  0  0
 18 99  1  0  0  0
 19 20  1  0  0  0
 19 24  1  0  0  0
 20 21  2  0  0  0
 20100  1  0  0  0
 21 23  1  0  0  0
 22 28  1  0  0  0
 22 32  2  0  0  0
 26 27  1  0  0  0
 28101  1  0  0  0
 28102  1  0  0  0
 29103  1  0  0  0
 29104  1  0  0  0
 33 34  1  0  0  0
 33 66  1  0  0  0
 33 70  2  0  0  0
 34 36  1  0  0  0
 34 59  1  0  0  0
 34105  1  0  0  0
 35 44  2  0  0  0
 35 45  1  0  0  0
 35 68  1  0  0  0
 36 56  1  0  0  0
 36106  1  0  0  0
 37 39  1  0  0  0
 37 47  1  0  0  0
 37 66  1  0  0  0
 37107  1  0  0  0
 38 43  2  0  0  0
 38 46  1  0  0  0
 38 47  1  0  0  0
 39 64  1  0  0  0
 39 67  2  0  0  0
 40 52  1  0  0  0
 40 53  2  0  0  0
 40 58  1  0  0  0
 41108  1  0  0  0
 41109  1  0  0  0
 41110  1  0  0  0
 41 48  1  0  0  0
 42 43  1  0  0  0
 42 66  1  0  0  0
 42111  1  0  0  0
 42112  1  0  0  0
 43 44  1  0  0  0
 44113  1  0  0  0
 45 46  2  0  0  0
 45114  1  0  0  0
 46115  1  0  0  0
 47116  1  0  0  0
 47117  1  0  0  0
 48 56  1  0  0  0
 48 65  1  0  0  0
 48118  1  0  0  0
 49 50  1  0  0  0
 49 53  1  0  0  0
 49 64  1  0  0  0
 49119  1  0  0  0
 50 51  1  0  0  0
 50120  1  0  0  0
 50121  1  0  0  0
 51 52  1  0  0  0
 51122  1  0  0  0
 51123  1  0  0  0
 52124  1  0  0  0
 52125  1  0  0  0
 53 54  1  0  0  0
 54 55  2  0  0  0
 54126  1  0  0  0
 55 57  1  0  0  0
 55127  1  0  0  0
 56 69  2  0  0  0
 57 58  2  0  0  0
 57128  1  0  0  0
 58129  1  0  0  0
 59 60  1  0  0  0
 59 61  1  0  0  0
 59 62  1  0  0  0
 60130  1  0  0  0
 60131  1  0  0  0
 60132  1  0  0  0
 61133  1  0  0  0
 61134  1  0  0  0
 61135  1  0  0  0
 62136  1  0  0  0
 62137  1  0  0  0
 62138  1  0  0  0
 63 65  1  0  0  0
 63139  1  0  0  0
 63140  1  0  0  0
 63141  1  0  0  0
 64142  1  0  0  0
 65143  1  0  0  0
 68 82  1  0  0  0
 71 73  2  0  0  0
 71 75  1  0  0  0
 71144  1  0  0  0
 72 74  1  0  0  0
 72 75  2  0  0  0
 72145  1  0  0  0
 73 76  1  0  0  0
 73146  1  0  0  0
 74 76  2  0  0  0
 74147  1  0  0  0
 75 83  1  0  0  0
 76 84  1  0  0  0
 77 78  2  0  0  0
 77 79  1  0  0  0
 77 83  1  0  0  0
 78148  1  0  0  0
 78149  1  0  0  0
 79 80  1  0  0  0
 79150  1  0  0  0
 79151  1  0  0  0
 80 82  1  0  0  0
 80152  1  0  0  0
 80153  1  0  0  0
 81 82  1  0  0  0
 81 83  1  0  0  0
 81154  1  0  0  0
 81155  1  0  0  0
 82156  1  0  0  0
 84157  1  0  0  0
M  ISO  4   1 100  68 101  82 101  84 100
M  END
> <chiral flag>
0

> <version>
0

> <s_m_source_file>
/data/baiqing/PycharmProjects/Reinvent-master-3.2/result/LINK_invent/BTK/process_docking_weight1_custom_product_contain_oxygen_bond_distance_aromatic_linkinvent_7_9_3/rearranged_h_0054.sdf

> <i_m_source_file_index>
67

> <r_mmod_Potential_Energy-OPLS-2005>
514.285339355469

> <r_mmod_Stretch_Energy-OPLS-2005>
228.467407226562

> <r_mmod_Bend_Energy-OPLS-2005>
290.483062744141

> <r_mmod_Torsional_Energy-OPLS-2005>
291.111083984375

> <r_mmod_Improper_Torsional_Energy-OPLS-2005>
7.43417978286743

> <r_mmod_Van_der_Waal_Energy-OPLS-2005>
141.244857788086

> <r_mmod_Electrostatic_Energy-OPLS-2005>
-407.808715820312

> <r_mmod_Solvation_Energy-OPLS-2005>
-209.107299804688

> <b_mmod_Minimization_Converged-OPLS-2005>
0

> <r_mmod_RMS_Derivative-OPLS-2005>
3.70316290855408

$$$$
67
                    3D
 Structure written by MMmdl.
165174  0  0  1  0            999 V2000
  -30.7506  -14.5011   20.5555 C   0  0  0  0  0  0
  -30.4232  -12.3274   19.4360 C   0  0  0  0  0  0
  -29.5023  -12.4874   18.2117 C   0  0  0  0  0  0
  -28.0288  -12.3353   18.6324 C   0  0  0  0  0  0
  -27.6590  -13.2182   19.8550 C   0  0  2  0  0  0
  -28.7007  -13.0724   20.9892 C   0  0  0  0  0  0
  -25.2555  -13.8191   20.5580 C   0  0  0  0  0  0
  -24.1840  -13.0451   20.9155 C   0  0  0  0  0  0
  -24.6445  -11.6934   20.8795 C   0  0  0  0  0  0
  -23.9139  -10.4296   21.0496 C   0  0  0  0  0  0
  -24.3680   -9.4181   21.9252 C   0  0  0  0  0  0
  -23.6308   -8.2233   22.0790 C   0  0  0  0  0  0
  -22.4286   -8.0308   21.3576 C   0  0  0  0  0  0
  -21.9955   -9.0308   20.4691 C   0  0  0  0  0  0
  -22.7328  -10.2159   20.3122 C   0  0  0  0  0  0
  -21.6827   -6.0766   22.5287 C   0  0  0  0  0  0
  -21.4005   -6.5648   23.8225 C   0  0  0  0  0  0
  -21.3657   -5.6786   24.9181 C   0  0  0  0  0  0
  -21.6055   -4.3058   24.7208 C   0  0  0  0  0  0
  -21.8816   -3.8165   23.4319 C   0  0  0  0  0  0
  -21.9169   -4.6997   22.3402 C   0  0  0  0  0  0
  -22.7851  -13.5254   21.1784 C   0  0  0  0  0  0
  -22.1633   -4.2195   21.0968 F   0  0  0  0  0  0
  -21.5638   -3.4534   25.7715 F   0  0  0  0  0  0
  -30.0320  -13.3500   20.4237 N   0  0  0  0  0  0
  -26.3018  -12.9393   20.3272 N   0  0  0  0  0  0
  -25.9364  -11.6544   20.5770 N   0  0  0  0  0  0
  -22.0460  -12.8324   22.0379 N   0  0  0  0  0  0
  -25.4178  -15.1928   20.3904 N   0  0  0  0  0  0
  -31.8970  -14.6041   20.1148 O   0  0  0  0  0  0
  -21.6621   -6.8928   21.4254 O   0  0  0  0  0  0
  -22.3545  -14.5546   20.6592 O   0  0  0  0  0  0
  -24.6169  -31.8693   23.2046 C   0  0  0  0  0  0
  -25.9083  -32.4836   23.8345 C   0  0  1  0  0  0
  -27.2612  -27.4459   20.0748 C   0  0  0  0  0  0
  -25.6014  -33.8629   24.2342 N   0  0  0  0  0  0
  -23.4032  -30.4838   21.5510 C   0  0  2  0  0  0
  -24.8523  -28.9469   20.1147 C   0  0  0  0  0  0
  -22.7437  -29.4624   22.5036 C   0  0  0  0  0  0
  -18.0266  -28.1385   22.8495 C   0  0  0  0  0  0
  -24.1508  -36.7294   23.2610 C   0  0  0  0  0  0
  -25.9225  -30.8417   21.3374 C   0  0  0  0  0  0
  -26.0086  -29.4629   20.7123 C   0  0  0  0  0  0
  -27.2072  -28.7112   20.7076 C   0  0  0  0  0  0
  -26.0817  -26.9417   19.4823 C   0  0  0  0  0  0
  -24.8793  -27.6808   19.5053 C   0  0  0  0  0  0
  -23.6126  -29.8137   20.1655 C   0  0  0  0  0  0
  -25.4115  -36.3091   24.0324 C   0  0  1  0  0  0
  -20.5863  -28.3650   23.1373 C   0  0  2  0  0  0
  -20.6798  -26.9400   22.5451 C   0  0  0  0  0  0
  -19.5748  -26.6399   21.5262 C   0  0  0  0  0  0
  -18.1913  -26.7938   22.1629 C   0  0  0  0  0  0
  -19.1521  -28.8825   23.2924 C   0  0  0  0  0  0
  -18.9447  -30.1459   23.8886 C   0  0  0  0  0  0
  -17.6444  -30.6585   24.0556 C   0  0  0  0  0  0
  -25.9064  -34.9486   23.5112 C   0  0  0  0  0  0
  -16.5332  -29.9086   23.6309 C   0  0  0  0  0  0
  -16.7255  -28.6516   23.0299 C   0  0  0  0  0  0
  -26.4558  -31.6531   25.0590 C   0  0  0  0  0  0
  -25.3896  -31.3569   26.1380 C   0  0  0  0  0  0
  -27.0344  -30.3015   24.5756 C   0  0  0  0  0  0
  -27.6183  -32.4175   25.7358 C   0  0  0  0  0  0
  -27.5571  -37.1773   24.8466 C   0  0  0  0  0  0
  -21.4162  -29.2990   22.3781 N   0  0  0  0  0  0
  -26.4274  -37.3789   23.9438 N   0  0  0  0  0  0
  -24.6692  -31.0796   22.0939 N   0  0  0  0  0  0
  -23.4219  -28.8201   23.3088 O   0  0  0  0  0  0
  -28.4537  -26.7364   20.0993 O   0  0  0  0  0  0
  -26.5568  -34.8935   22.4629 O   0  0  0  0  0  0
  -23.5368  -32.1437   23.7476 O   0  0  0  0  0  0
  -30.1650  -18.0221   20.4283 C   0  0  0  0  0  0
  -31.7877  -17.1252   21.9890 C   0  0  0  0  0  0
  -30.7718  -19.3154   20.4834 C   0  0  0  0  0  0
  -31.9245  -19.4906   21.3077 C   0  0  0  0  0  0
  -30.6798  -16.9113   21.1421 C   0  0  0  0  0  0
  -32.4002  -18.3922   22.0707 C   0  0  0  0  0  0
  -31.0624  -22.7024   19.1839 C   0  0  0  0  0  0
  -30.7856  -24.2145   19.2549 C   0  0  0  0  0  0
  -28.7479  -23.8439   20.5908 C   0  0  0  0  0  0
  -29.1686  -22.3489   20.7625 C   0  0  0  0  0  0
  -29.2658  -24.4643   19.2851 C   0  0  1  0  0  0
  -32.7004  -20.8081   21.3455 C   0  0  0  0  0  0
  -30.1855  -20.3979   19.5387 C   0  0  0  0  0  0
  -28.8212  -25.9277   18.9691 C   0  0  0  0  0  0
  -30.2429  -21.8533   19.8665 N   0  0  0  0  0  0
  -30.1025  -15.5944   21.0186 N   0  0  0  0  0  0
  -31.9833  -22.3152   18.4595 O   0  0  0  0  0  0
  -33.4943  -18.5246   22.8798 O   0  0  0  0  0  0
  -31.4701  -12.4039   19.1357 H   0  0  0  0  0  0
  -30.3119  -11.3322   19.8673 H   0  0  0  0  0  0
  -29.7518  -11.7462   17.4509 H   0  0  0  0  0  0
  -29.6543  -13.4656   17.7513 H   0  0  0  0  0  0
  -27.8693  -11.2863   18.8802 H   0  0  0  0  0  0
  -27.3705  -12.5463   17.7907 H   0  0  0  0  0  0
  -27.6868  -14.2535   19.5109 H   0  0  0  0  0  0
  -28.6728  -12.0677   21.4098 H   0  0  0  0  0  0
  -28.4632  -13.7426   21.8171 H   0  0  0  0  0  0
  -25.2853   -9.5585   22.4807 H   0  0  0  0  0  0
  -24.0003   -7.4603   22.7502 H   0  0  0  0  0  0
  -21.0873   -8.8901   19.8981 H   0  0  0  0  0  0
  -22.3890  -10.9721   19.6218 H   0  0  0  0  0  0
  -21.2016   -7.6154   23.9762 H   0  0  0  0  0  0
  -21.1475   -6.0500   25.9091 H   0  0  0  0  0  0
  -22.0605   -2.7626   23.2799 H   0  0  0  0  0  0
  -22.3950  -12.0019   22.4912 H   0  0  0  0  0  0
  -21.1091  -13.1431   22.2509 H   0  0  0  0  0  0
  -24.6404  -15.8367   20.4823 H   0  0  0  0  0  0
  -26.2645  -15.6382   20.0611 H   0  0  0  0  0  0
  -26.7169  -32.5567   23.1125 H   0  0  0  0  0  0
  -25.0384  -33.9850   25.0641 H   0  0  0  0  0  0
  -22.6842  -31.2947   21.4168 H   0  0  0  0  0  0
  -23.3767  -35.9634   23.3266 H   0  0  0  0  0  0
  -24.3584  -36.8896   22.2022 H   0  0  0  0  0  0
  -23.7304  -37.6508   23.6631 H   0  0  0  0  0  0
  -25.9822  -31.5822   20.5396 H   0  0  0  0  0  0
  -26.8315  -30.9484   21.9156 H   0  0  0  0  0  0
  -28.0981  -29.1132   21.1679 H   0  0  0  0  0  0
  -26.0626  -25.9716   19.0099 H   0  0  0  0  0  0
  -23.9907  -27.2675   19.0507 H   0  0  0  0  0  0
  -23.7360  -30.5927   19.4129 H   0  0  0  0  0  0
  -22.7319  -29.2436   19.8616 H   0  0  0  0  0  0
  -25.1292  -36.1904   25.0808 H   0  0  0  0  0  0
  -20.9902  -28.3231   24.1521 H   0  0  0  0  0  0
  -20.5799  -26.2242   23.3628 H   0  0  0  0  0  0
  -21.6670  -26.7544   22.1186 H   0  0  0  0  0  0
  -19.6925  -25.6339   21.1235 H   0  0  0  0  0  0
  -19.6686  -27.3265   20.6839 H   0  0  0  0  0  0
  -17.4235  -26.6721   21.3980 H   0  0  0  0  0  0
  -18.0234  -26.0095   22.9016 H   0  0  0  0  0  0
  -19.7926  -30.7308   24.2204 H   0  0  0  0  0  0
  -17.4987  -31.6240   24.5212 H   0  0  0  0  0  0
  -15.5325  -30.2961   23.7650 H   0  0  0  0  0  0
  -15.8679  -28.0868   22.6916 H   0  0  0  0  0  0
  -24.6188  -30.6760   25.7742 H   0  0  0  0  0  0
  -24.8970  -32.2693   26.4744 H   0  0  0  0  0  0
  -25.8369  -30.8861   27.0154 H   0  0  0  0  0  0
  -26.2779  -29.6739   24.1022 H   0  0  0  0  0  0
  -27.4491  -29.7216   25.4006 H   0  0  0  0  0  0
  -27.8448  -30.4394   23.8593 H   0  0  0  0  0  0
  -27.2906  -33.3517   26.1923 H   0  0  0  0  0  0
  -28.4044  -32.6605   25.0201 H   0  0  0  0  0  0
  -28.0816  -31.8266   26.5267 H   0  0  0  0  0  0
  -28.2586  -38.0060   24.7512 H   0  0  0  0  0  0
  -28.1068  -36.2595   24.6306 H   0  0  0  0  0  0
  -27.2292  -37.1459   25.8863 H   0  0  0  0  0  0
  -20.9342  -29.8652   21.6946 H   0  0  0  0  0  0
  -26.0136  -38.2852   24.1460 H   0  0  0  0  0  0
  -29.3158  -17.8692   19.7743 H   0  0  0  0  0  0
  -32.1890  -16.3009   22.5622 H   0  0  0  0  0  0
  -31.2386  -24.7008   18.3918 H   0  0  0  0  0  0
  -31.2798  -24.6318   20.1344 H   0  0  0  0  0  0
  -29.1448  -24.4203   21.4286 H   0  0  0  0  0  0
  -27.6640  -23.9395   20.6490 H   0  0  0  0  0  0
  -28.2790  -21.7361   20.6211 H   0  0  0  0  0  0
  -29.4731  -22.1717   21.7950 H   0  0  0  0  0  0
  -28.8422  -23.8722   18.4727 H   0  0  0  0  0  0
  -33.0187  -21.0710   20.3391 H   0  0  0  0  0  0
  -33.6213  -20.7670   21.9235 H   0  0  0  0  0  0
  -32.1034  -21.6188   21.7638 H   0  0  0  0  0  0
  -29.1311  -20.1539   19.3921 H   0  0  0  0  0  0
  -30.6184  -20.2197   18.5528 H   0  0  0  0  0  0
  -28.0506  -25.9069   18.2003 H   0  0  0  0  0  0
  -29.6438  -26.4529   18.4792 H   0  0  0  0  0  0
  -29.1074  -15.5006   21.1676 H   0  0  0  0  0  0
  -33.8230  -19.4171   22.8960 H   0  0  0  0  0  0
  1 25  1  0  0  0
  1 30  2  0  0  0
  1 86  1  0  0  0
  2  3  1  0  0  0
  2 25  1  0  0  0
  2 89  1  0  0  0
  2 90  1  0  0  0
  3  4  1  0  0  0
  3 91  1  0  0  0
  3 92  1  0  0  0
  4  5  1  0  0  0
  4 93  1  0  0  0
  4 94  1  0  0  0
  5  6  1  0  0  0
  5 26  1  0  0  0
  5 95  1  0  0  0
  6 25  1  0  0  0
  6 96  1  0  0  0
  6 97  1  0  0  0
  7  8  2  0  0  0
  7 26  1  0  0  0
  7 29  1  0  0  0
  8  9  1  0  0  0
  8 22  1  0  0  0
  9 10  1  0  0  0
  9 27  2  0  0  0
 10 11  2  0  0  0
 10 15  1  0  0  0
 11 12  1  0  0  0
 11 98  1  0  0  0
 12 13  2  0  0  0
 12 99  1  0  0  0
 13 14  1  0  0  0
 13 31  1  0  0  0
 14 15  2  0  0  0
 14100  1  0  0  0
 15101  1  0  0  0
 16 17  2  0  0  0
 16 21  1  0  0  0
 16 31  1  0  0  0
 17 18  1  0  0  0
 17102  1  0  0  0
 18 19  2  0  0  0
 18103  1  0  0  0
 19 20  1  0  0  0
 19 24  1  0  0  0
 20 21  2  0  0  0
 20104  1  0  0  0
 21 23  1  0  0  0
 22 28  1  0  0  0
 22 32  2  0  0  0
 26 27  1  0  0  0
 28105  1  0  0  0
 28106  1  0  0  0
 29107  1  0  0  0
 29108  1  0  0  0
 33 34  1  0  0  0
 33 66  1  0  0  0
 33 70  2  0  0  0
 34 36  1  0  0  0
 34 59  1  0  0  0
 34109  1  0  0  0
 35 44  2  0  0  0
 35 45  1  0  0  0
 35 68  1  0  0  0
 36 56  1  0  0  0
 36110  1  0  0  0
 37 39  1  0  0  0
 37 47  1  0  0  0
 37 66  1  0  0  0
 37111  1  0  0  0
 38 43  2  0  0  0
 38 46  1  0  0  0
 38 47  1  0  0  0
 39 64  1  0  0  0
 39 67  2  0  0  0
 40 52  1  0  0  0
 40 53  2  0  0  0
 40 58  1  0  0  0
 41112  1  0  0  0
 41113  1  0  0  0
 41114  1  0  0  0
 41 48  1  0  0  0
 42 43  1  0  0  0
 42 66  1  0  0  0
 42115  1  0  0  0
 42116  1  0  0  0
 43 44  1  0  0  0
 44117  1  0  0  0
 45 46  2  0  0  0
 45118  1  0  0  0
 46119  1  0  0  0
 47120  1  0  0  0
 47121  1  0  0  0
 48 56  1  0  0  0
 48 65  1  0  0  0
 48122  1  0  0  0
 49 50  1  0  0  0
 49 53  1  0  0  0
 49 64  1  0  0  0
 49123  1  0  0  0
 50 51  1  0  0  0
 50124  1  0  0  0
 50125  1  0  0  0
 51 52  1  0  0  0
 51126  1  0  0  0
 51127  1  0  0  0
 52128  1  0  0  0
 52129  1  0  0  0
 53 54  1  0  0  0
 54 55  2  0  0  0
 54130  1  0  0  0
 55 57  1  0  0  0
 55131  1  0  0  0
 56 69  2  0  0  0
 57 58  2  0  0  0
 57132  1  0  0  0
 58133  1  0  0  0
 59 60  1  0  0  0
 59 61  1  0  0  0
 59 62  1  0  0  0
 60134  1  0  0  0
 60135  1  0  0  0
 60136  1  0  0  0
 61137  1  0  0  0
 61138  1  0  0  0
 61139  1  0  0  0
 62140  1  0  0  0
 62141  1  0  0  0
 62142  1  0  0  0
 63 65  1  0  0  0
 63143  1  0  0  0
 63144  1  0  0  0
 63145  1  0  0  0
 64146  1  0  0  0
 65147  1  0  0  0
 68 84  1  0  0  0
 71 73  2  0  0  0
 71 75  1  0  0  0
 71148  1  0  0  0
 72 75  2  0  0  0
 72 76  1  0  0  0
 72149  1  0  0  0
 73 74  1  0  0  0
 73 83  1  0  0  0
 74 76  2  0  0  0
 74 82  1  0  0  0
 75 86  1  0  0  0
 76 88  1  0  0  0
 77 78  1  0  0  0
 77 85  1  0  0  0
 77 87  2  0  0  0
 78 81  1  0  0  0
 78150  1  0  0  0
 78151  1  0  0  0
 79 80  1  0  0  0
 79 81  1  0  0  0
 79152  1  0  0  0
 79153  1  0  0  0
 80 85  1  0  0  0
 80154  1  0  0  0
 80155  1  0  0  0
 81 84  1  0  0  0
 81156  1  0  0  0
 82157  1  0  0  0
 82158  1  0  0  0
 82159  1  0  0  0
 83 85  1  0  0  0
 83160  1  0  0  0
 83161  1  0  0  0
 84162  1  0  0  0
 84163  1  0  0  0
 86164  1  0  0  0
 88165  1  0  0  0
M  ISO  4   1 100  68 101  84 101  86 100
M  END
> <chiral flag>
0

> <version>
0

> <s_m_source_file>
/data/baiqing/PycharmProjects/Reinvent-master-3.2/result/LINK_invent/BTK/process_docking_weight1_custom_product_contain_oxygen_bond_distance_aromatic_linkinvent_7_9_3/rearranged_h_0054.sdf

> <i_m_source_file_index>
68

> <r_mmod_Potential_Energy-OPLS-2005>
8.23648548126221

> <r_mmod_Stretch_Energy-OPLS-2005>
52.7361106872559

> <r_mmod_Bend_Energy-OPLS-2005>
130.214172363281

> <r_mmod_Torsional_Energy-OPLS-2005>
279.161560058594

> <r_mmod_Improper_Torsional_Energy-OPLS-2005>
5.25983619689941

> <r_mmod_Van_der_Waal_Energy-OPLS-2005>
172.12873840332

> <r_mmod_Electrostatic_Energy-OPLS-2005>
-400.603698730469

> <r_mmod_Solvation_Energy-OPLS-2005>
-249.251831054688

> <b_mmod_Minimization_Converged-OPLS-2005>
0

> <r_mmod_RMS_Derivative-OPLS-2005>
5.13916254043579

$$$$
68
                    3D
 Structure written by MMmdl.
151159  0  0  1  0            999 V2000
  -30.5236  -15.0295   20.3232 C   0  0  0  0  0  0
  -30.4258  -12.6354   19.4581 C   0  0  0  0  0  0
  -29.5046  -12.4984   18.2222 C   0  0  0  0  0  0
  -28.0357  -12.3061   18.6454 C   0  0  0  0  0  0
  -27.6085  -13.2613   19.7893 C   0  0  2  0  0  0
  -28.6570  -13.3680   20.9104 C   0  0  0  0  0  0
  -25.2433  -13.8266   20.5745 C   0  0  0  0  0  0
  -24.1759  -13.0479   20.9283 C   0  0  0  0  0  0
  -24.6384  -11.6951   20.8748 C   0  0  0  0  0  0
  -23.9073  -10.4303   21.0387 C   0  0  0  0  0  0
  -24.3616   -9.4224   21.9171 C   0  0  0  0  0  0
  -23.6311   -8.2249   22.0737 C   0  0  0  0  0  0
  -22.4294   -8.0280   21.3527 C   0  0  0  0  0  0
  -21.9917   -9.0248   20.4623 C   0  0  0  0  0  0
  -22.7238  -10.2142   20.3039 C   0  0  0  0  0  0
  -21.6869   -6.0730   22.5281 C   0  0  0  0  0  0
  -21.4025   -6.5636   23.8210 C   0  0  0  0  0  0
  -21.3657   -5.6790   24.9171 C   0  0  0  0  0  0
  -21.6048   -4.3053   24.7225 C   0  0  0  0  0  0
  -21.8811   -3.8145   23.4344 C   0  0  0  0  0  0
  -21.9190   -4.6957   22.3400 C   0  0  0  0  0  0
  -22.7769  -13.5253   21.1903 C   0  0  0  0  0  0
  -22.1659   -4.2138   21.0976 F   0  0  0  0  0  0
  -21.5621   -3.4538   25.7734 F   0  0  0  0  0  0
  -29.9186  -13.7706   20.2849 N   0  0  0  0  0  0
  -26.2820  -12.9499   20.3088 N   0  0  0  0  0  0
  -25.9311  -11.6622   20.5672 N   0  0  0  0  0  0
  -22.0395  -12.8250   22.0436 N   0  0  0  0  0  0
  -25.4122  -15.2002   20.4201 N   0  0  0  0  0  0
  -31.7596  -15.0151   20.2877 O   0  0  0  0  0  0
  -21.6665   -6.8872   21.4237 O   0  0  0  0  0  0
  -22.3419  -14.5509   20.6688 O   0  0  0  0  0  0
  -24.6461  -31.8406   23.1808 C   0  0  0  0  0  0
  -25.9220  -32.4671   23.8227 C   0  0  1  0  0  0
  -27.2205  -27.0891   20.1662 C   0  0  0  0  0  0
  -25.5925  -33.8471   24.2122 N   0  0  0  0  0  0
  -23.4504  -30.4575   21.5272 C   0  0  2  0  0  0
  -24.9016  -28.8619   20.1193 C   0  0  0  0  0  0
  -22.7577  -29.4566   22.4850 C   0  0  0  0  0  0
  -18.0307  -28.1453   22.8485 C   0  0  0  0  0  0
  -24.1478  -36.7274   23.2634 C   0  0  0  0  0  0
  -26.0076  -30.7017   21.3802 C   0  0  0  0  0  0
  -26.0798  -29.3003   20.7386 C   0  0  0  0  0  0
  -27.2410  -28.4310   20.7409 C   0  0  0  0  0  0
  -26.0198  -26.7621   19.5090 C   0  0  0  0  0  0
  -24.8857  -27.6085   19.4864 C   0  0  0  0  0  0
  -23.6798  -29.7745   20.1512 C   0  0  0  0  0  0
  -25.4106  -36.3013   24.0290 C   0  0  1  0  0  0
  -20.5925  -28.3765   23.1251 C   0  0  2  0  0  0
  -20.6805  -26.9474   22.5425 C   0  0  0  0  0  0
  -19.5757  -26.6417   21.5255 C   0  0  0  0  0  0
  -18.1937  -26.7979   22.1652 C   0  0  0  0  0  0
  -19.1562  -28.8932   23.2854 C   0  0  0  0  0  0
  -18.9466  -30.1534   23.8878 C   0  0  0  0  0  0
  -17.6452  -30.6627   24.0595 C   0  0  0  0  0  0
  -25.9074  -34.9388   23.5032 C   0  0  0  0  0  0
  -16.5354  -29.9124   23.6355 C   0  0  0  0  0  0
  -16.7284  -28.6563   23.0343 C   0  0  0  0  0  0
  -26.4504  -31.6547   25.0689 C   0  0  0  0  0  0
  -25.3651  -31.3794   26.1365 C   0  0  0  0  0  0
  -27.0325  -30.2907   24.6299 C   0  0  0  0  0  0
  -27.6018  -32.4310   25.7497 C   0  0  0  0  0  0
  -27.5572  -37.1772   24.8427 C   0  0  0  0  0  0
  -21.4268  -29.3058   22.3595 N   0  0  0  0  0  0
  -26.4259  -37.3736   23.9405 N   0  0  0  0  0  0
  -24.7221  -31.0228   22.0852 N   0  0  0  0  0  0
  -23.4189  -28.8160   23.3065 O   0  0  0  0  0  0
  -28.3078  -26.1350   20.1032 O   0  0  0  0  0  0
  -26.5701  -34.8891   22.4632 O   0  0  0  0  0  0
  -23.5567  -32.1318   23.7000 O   0  0  0  0  0  0
  -29.2224  -17.6726   17.7727 C   0  0  0  0  0  0
  -29.5904  -16.4850   18.4415 C   0  0  0  0  0  0
  -29.0389  -18.9004   18.4409 C   0  0  0  0  0  0
  -29.6261  -17.7608   20.5035 C   0  0  0  0  0  0
  -29.8377  -16.4271   19.8326 C   0  0  0  0  0  0
  -29.2036  -19.0507   19.8368 C   0  0  0  0  0  0
  -29.0242  -21.6574   19.9089 C   0  0  0  0  0  0
  -26.6616  -22.7986   19.6625 C   0  0  0  0  0  0
  -28.3524  -24.6231   20.5783 C   0  0  0  0  0  0
  -28.1622  -23.1288   19.7695 C   0  0  1  0  0  0
  -28.7633  -20.4021   20.3835 N   0  0  0  0  0  0
  -31.4520  -12.7985   19.1252 H   0  0  0  0  0  0
  -30.4377  -11.7107   20.0358 H   0  0  0  0  0  0
  -29.8254  -11.6572   17.6042 H   0  0  0  0  0  0
  -29.5869  -13.3804   17.5854 H   0  0  0  0  0  0
  -27.9163  -11.2714   18.9641 H   0  0  0  0  0  0
  -27.3748  -12.4341   17.7856 H   0  0  0  0  0  0
  -27.5390  -14.2455   19.3223 H   0  0  0  0  0  0
  -28.7631  -12.4360   21.4652 H   0  0  0  0  0  0
  -28.3525  -14.1310   21.6273 H   0  0  0  0  0  0
  -25.2752   -9.5737   22.4748 H   0  0  0  0  0  0
  -24.0026   -7.4654   22.7477 H   0  0  0  0  0  0
  -21.0843   -8.8777   19.8934 H   0  0  0  0  0  0
  -22.3694  -10.9674   19.6148 H   0  0  0  0  0  0
  -21.2033   -7.6148   23.9716 H   0  0  0  0  0  0
  -21.1486   -6.0520   25.9075 H   0  0  0  0  0  0
  -22.0588   -2.7610   23.2854 H   0  0  0  0  0  0
  -22.4025  -11.9976   22.4929 H   0  0  0  0  0  0
  -21.0953  -13.1215   22.2489 H   0  0  0  0  0  0
  -24.6571  -15.8646   20.5454 H   0  0  0  0  0  0
  -26.2755  -15.6336   20.1163 H   0  0  0  0  0  0
  -26.7295  -32.5276   23.0966 H   0  0  0  0  0  0
  -24.9912  -33.9545   25.0165 H   0  0  0  0  0  0
  -22.7553  -31.2847   21.3675 H   0  0  0  0  0  0
  -23.3724  -35.9615   23.3223 H   0  0  0  0  0  0
  -24.3605  -36.8997   22.2069 H   0  0  0  0  0  0
  -23.7232  -37.6436   23.6755 H   0  0  0  0  0  0
  -26.1510  -31.4461   20.5949 H   0  0  0  0  0  0
  -26.8843  -30.7785   22.0131 H   0  0  0  0  0  0
  -28.1477  -28.7718   21.2217 H   0  0  0  0  0  0
  -25.9618  -25.8201   18.9881 H   0  0  0  0  0  0
  -23.9972  -27.2774   18.9668 H   0  0  0  0  0  0
  -23.8117  -30.5428   19.3877 H   0  0  0  0  0  0
  -22.7940  -29.2135   19.8498 H   0  0  0  0  0  0
  -25.1302  -36.1811   25.0778 H   0  0  0  0  0  0
  -21.0040  -28.3393   24.1369 H   0  0  0  0  0  0
  -20.5770  -26.2388   23.3647 H   0  0  0  0  0  0
  -21.6662  -26.7520   22.1196 H   0  0  0  0  0  0
  -19.6913  -25.6331   21.1302 H   0  0  0  0  0  0
  -19.6692  -27.3237   20.6791 H   0  0  0  0  0  0
  -17.4223  -26.6758   21.4035 H   0  0  0  0  0  0
  -18.0296  -26.0155   22.9077 H   0  0  0  0  0  0
  -19.7928  -30.7392   24.2214 H   0  0  0  0  0  0
  -17.4988  -31.6293   24.5236 H   0  0  0  0  0  0
  -15.5353  -30.3013   23.7679 H   0  0  0  0  0  0
  -15.8692  -28.0894   22.7004 H   0  0  0  0  0  0
  -24.5836  -30.7123   25.7714 H   0  0  0  0  0  0
  -24.8818  -32.2987   26.4675 H   0  0  0  0  0  0
  -25.7905  -30.9059   27.0216 H   0  0  0  0  0  0
  -26.2925  -29.6638   24.1303 H   0  0  0  0  0  0
  -27.3876  -29.7217   25.4903 H   0  0  0  0  0  0
  -27.8873  -30.4075   23.9633 H   0  0  0  0  0  0
  -27.2603  -33.3625   26.2018 H   0  0  0  0  0  0
  -28.3886  -32.6834   25.0384 H   0  0  0  0  0  0
  -28.0618  -31.8455   26.5463 H   0  0  0  0  0  0
  -28.2522  -38.0139   24.7575 H   0  0  0  0  0  0
  -28.1133  -36.2676   24.6118 H   0  0  0  0  0  0
  -27.2327  -37.1267   25.8835 H   0  0  0  0  0  0
  -20.9500  -29.8669   21.6674 H   0  0  0  0  0  0
  -26.0096  -38.2775   24.1467 H   0  0  0  0  0  0
  -29.0812  -17.6456   16.7006 H   0  0  0  0  0  0
  -29.7533  -15.6026   17.8387 H   0  0  0  0  0  0
  -28.7157  -19.7400   17.8413 H   0  0  0  0  0  0
  -29.7924  -17.7966   21.5707 H   0  0  0  0  0  0
  -29.9371  -21.7586   19.3162 H   0  0  0  0  0  0
  -26.4833  -22.0147   18.9252 H   0  0  0  0  0  0
  -26.0824  -23.6625   19.3443 H   0  0  0  0  0  0
  -26.2567  -22.4616   20.6186 H   0  0  0  0  0  0
  -29.3718  -24.5599   20.9588 H   0  0  0  0  0  0
  -27.7457  -24.5750   21.4826 H   0  0  0  0  0  0
  -28.4498  -23.4215   18.7589 H   0  0  0  0  0  0
  1 25  1  0  0  0
  1 30  2  0  0  0
  1 75  1  0  0  0
  2  3  1  0  0  0
  2 25  1  0  0  0
  2 82  1  0  0  0
  2 83  1  0  0  0
  3  4  1  0  0  0
  3 84  1  0  0  0
  3 85  1  0  0  0
  4  5  1  0  0  0
  4 86  1  0  0  0
  4 87  1  0  0  0
  5  6  1  0  0  0
  5 26  1  0  0  0
  5 88  1  0  0  0
  6 25  1  0  0  0
  6 89  1  0  0  0
  6 90  1  0  0  0
  7  8  2  0  0  0
  7 26  1  0  0  0
  7 29  1  0  0  0
  8  9  1  0  0  0
  8 22  1  0  0  0
  9 10  1  0  0  0
  9 27  2  0  0  0
 10 11  2  0  0  0
 10 15  1  0  0  0
 11 12  1  0  0  0
 11 91  1  0  0  0
 12 13  2  0  0  0
 12 92  1  0  0  0
 13 14  1  0  0  0
 13 31  1  0  0  0
 14 15  2  0  0  0
 14 93  1  0  0  0
 15 94  1  0  0  0
 16 17  2  0  0  0
 16 21  1  0  0  0
 16 31  1  0  0  0
 17 18  1  0  0  0
 17 95  1  0  0  0
 18 19  2  0  0  0
 18 96  1  0  0  0
 19 20  1  0  0  0
 19 24  1  0  0  0
 20 21  2  0  0  0
 20 97  1  0  0  0
 21 23  1  0  0  0
 22 28  1  0  0  0
 22 32  2  0  0  0
 26 27  1  0  0  0
 28 98  1  0  0  0
 28 99  1  0  0  0
 29100  1  0  0  0
 29101  1  0  0  0
 33 34  1  0  0  0
 33 66  1  0  0  0
 33 70  2  0  0  0
 34 36  1  0  0  0
 34 59  1  0  0  0
 34102  1  0  0  0
 35 44  2  0  0  0
 35 45  1  0  0  0
 35 68  1  0  0  0
 36 56  1  0  0  0
 36103  1  0  0  0
 37 39  1  0  0  0
 37 47  1  0  0  0
 37 66  1  0  0  0
 37104  1  0  0  0
 38 43  2  0  0  0
 38 46  1  0  0  0
 38 47  1  0  0  0
 39 64  1  0  0  0
 39 67  2  0  0  0
 40 52  1  0  0  0
 40 53  2  0  0  0
 40 58  1  0  0  0
 41105  1  0  0  0
 41106  1  0  0  0
 41107  1  0  0  0
 41 48  1  0  0  0
 42 43  1  0  0  0
 42 66  1  0  0  0
 42108  1  0  0  0
 42109  1  0  0  0
 43 44  1  0  0  0
 44110  1  0  0  0
 45 46  2  0  0  0
 45111  1  0  0  0
 46112  1  0  0  0
 47113  1  0  0  0
 47114  1  0  0  0
 48 56  1  0  0  0
 48 65  1  0  0  0
 48115  1  0  0  0
 49 50  1  0  0  0
 49 53  1  0  0  0
 49 64  1  0  0  0
 49116  1  0  0  0
 50 51  1  0  0  0
 50117  1  0  0  0
 50118  1  0  0  0
 51 52  1  0  0  0
 51119  1  0  0  0
 51120  1  0  0  0
 52121  1  0  0  0
 52122  1  0  0  0
 53 54  1  0  0  0
 54 55  2  0  0  0
 54123  1  0  0  0
 55 57  1  0  0  0
 55124  1  0  0  0
 56 69  2  0  0  0
 57 58  2  0  0  0
 57125  1  0  0  0
 58126  1  0  0  0
 59 60  1  0  0  0
 59 61  1  0  0  0
 59 62  1  0  0  0
 60127  1  0  0  0
 60128  1  0  0  0
 60129  1  0  0  0
 61130  1  0  0  0
 61131  1  0  0  0
 61132  1  0  0  0
 62133  1  0  0  0
 62134  1  0  0  0
 62135  1  0  0  0
 63 65  1  0  0  0
 63136  1  0  0  0
 63137  1  0  0  0
 63138  1  0  0  0
 64139  1  0  0  0
 65140  1  0  0  0
 68 79  1  0  0  0
 71 72  2  0  0  0
 71 73  1  0  0  0
 71141  1  0  0  0
 72 75  1  0  0  0
 72142  1  0  0  0
 73 76  2  0  0  0
 73143  1  0  0  0
 74 75  2  0  0  0
 74 76  1  0  0  0
 74144  1  0  0  0
 76 81  1  0  0  0
 77 80  1  0  0  0
 77 81  2  0  0  0
 77145  1  0  0  0
 78146  1  0  0  0
 78147  1  0  0  0
 78148  1  0  0  0
 78 80  1  0  0  0
 79 80  1  0  0  0
 79149  1  0  0  0
 79150  1  0  0  0
 80151  1  0  0  0
M  ISO  4   1 100  68 101  75 100  79 101
M  END
> <chiral flag>
0

> <version>
0

> <s_m_source_file>
/data/baiqing/PycharmProjects/Reinvent-master-3.2/result/LINK_invent/BTK/process_docking_weight1_custom_product_contain_oxygen_bond_distance_aromatic_linkinvent_7_9_3/rearranged_h_0054.sdf

> <i_m_source_file_index>
69

> <r_mmod_Potential_Energy-OPLS-2005>
831.411010742188

> <r_mmod_Stretch_Energy-OPLS-2005>
330.243865966797

> <r_mmod_Bend_Energy-OPLS-2005>
339.406707763672

> <r_mmod_Torsional_Energy-OPLS-2005>
290.912017822266

> <r_mmod_Improper_Torsional_Energy-OPLS-2005>
22.44211769104

> <r_mmod_Van_der_Waal_Energy-OPLS-2005>
119.111450195312

> <r_mmod_Electrostatic_Energy-OPLS-2005>
-316.976531982422

> <r_mmod_Solvation_Energy-OPLS-2005>
-199.075469970703

> <b_mmod_Minimization_Converged-OPLS-2005>
0

> <r_mmod_RMS_Derivative-OPLS-2005>
3.8795063495636

$$$$
69
                    3D
 Structure written by MMmdl.
157165  0  0  1  0            999 V2000
  -30.6790  -14.6140   20.5390 C   0  0  0  0  0  0
  -30.4195  -12.3817   19.4601 C   0  0  0  0  0  0
  -29.5077  -12.5518   18.2252 C   0  0  0  0  0  0
  -28.0262  -12.4053   18.6256 C   0  0  0  0  0  0
  -27.6611  -13.2345   19.8888 C   0  0  2  0  0  0
  -28.7107  -13.0696   21.0156 C   0  0  0  0  0  0
  -25.2557  -13.8206   20.5698 C   0  0  0  0  0  0
  -24.1842  -13.0421   20.9174 C   0  0  0  0  0  0
  -24.6452  -11.6909   20.8723 C   0  0  0  0  0  0
  -23.9138  -10.4289   21.0400 C   0  0  0  0  0  0
  -24.3670   -9.4215   21.9189 C   0  0  0  0  0  0
  -23.6313   -8.2261   22.0758 C   0  0  0  0  0  0
  -22.4277   -8.0316   21.3577 C   0  0  0  0  0  0
  -21.9937   -9.0283   20.4662 C   0  0  0  0  0  0
  -22.7291  -10.2152   20.3069 C   0  0  0  0  0  0
  -21.6872   -6.0774   22.5294 C   0  0  0  0  0  0
  -21.4025   -6.5668   23.8229 C   0  0  0  0  0  0
  -21.3661   -5.6811   24.9185 C   0  0  0  0  0  0
  -21.6053   -4.3077   24.7232 C   0  0  0  0  0  0
  -21.8817   -3.8190   23.4349 C   0  0  0  0  0  0
  -21.9189   -4.7007   22.3416 C   0  0  0  0  0  0
  -22.7884  -13.5237   21.1871 C   0  0  0  0  0  0
  -22.1653   -4.2208   21.0980 F   0  0  0  0  0  0
  -21.5627   -3.4532   25.7736 F   0  0  0  0  0  0
  -30.0296  -13.4044   20.4546 N   0  0  0  0  0  0
  -26.3045  -12.9410   20.3463 N   0  0  0  0  0  0
  -25.9412  -11.6542   20.5838 N   0  0  0  0  0  0
  -22.0536  -12.8179   22.0418 N   0  0  0  0  0  0
  -25.4109  -15.1919   20.4097 N   0  0  0  0  0  0
  -31.8116  -14.7599   20.0703 O   0  0  0  0  0  0
  -21.6660   -6.8897   21.4255 O   0  0  0  0  0  0
  -22.3565  -14.5566   20.6776 O   0  0  0  0  0  0
  -24.6261  -31.8583   23.1980 C   0  0  0  0  0  0
  -25.9098  -32.4766   23.8325 C   0  0  1  0  0  0
  -27.2356  -27.3065   20.1279 C   0  0  0  0  0  0
  -25.5944  -33.8570   24.2273 N   0  0  0  0  0  0
  -23.4236  -30.4765   21.5424 C   0  0  2  0  0  0
  -24.8721  -28.9296   20.1187 C   0  0  0  0  0  0
  -22.7498  -29.4582   22.4937 C   0  0  0  0  0  0
  -18.0288  -28.1393   22.8442 C   0  0  0  0  0  0
  -24.1494  -36.7291   23.2642 C   0  0  0  0  0  0
  -25.9627  -30.7933   21.3635 C   0  0  0  0  0  0
  -26.0427  -29.4146   20.7159 C   0  0  0  0  0  0
  -27.2276  -28.6162   20.7055 C   0  0  0  0  0  0
  -26.0357  -26.8811   19.5089 C   0  0  0  0  0  0
  -24.8708  -27.6699   19.5060 C   0  0  0  0  0  0
  -23.6394  -29.8084   20.1602 C   0  0  0  0  0  0
  -25.4119  -36.3089   24.0329 C   0  0  1  0  0  0
  -20.5884  -28.3687   23.1306 C   0  0  2  0  0  0
  -20.6756  -26.9408   22.5431 C   0  0  0  0  0  0
  -19.5755  -26.6378   21.5214 C   0  0  0  0  0  0
  -18.1935  -26.7931   22.1599 C   0  0  0  0  0  0
  -19.1530  -28.8855   23.2858 C   0  0  0  0  0  0
  -18.9463  -30.1460   23.8877 C   0  0  0  0  0  0
  -17.6462  -30.6595   24.0553 C   0  0  0  0  0  0
  -25.9062  -34.9457   23.5106 C   0  0  0  0  0  0
  -16.5349  -29.9082   23.6332 C   0  0  0  0  0  0
  -16.7279  -28.6502   23.0332 C   0  0  0  0  0  0
  -26.4485  -31.6552   25.0687 C   0  0  0  0  0  0
  -25.3726  -31.3640   26.1415 C   0  0  0  0  0  0
  -27.0298  -30.3001   24.6062 C   0  0  0  0  0  0
  -27.6087  -32.4245   25.7443 C   0  0  0  0  0  0
  -27.5578  -37.1808   24.8471 C   0  0  0  0  0  0
  -21.4200  -29.3039   22.3707 N   0  0  0  0  0  0
  -26.4294  -37.3792   23.9416 N   0  0  0  0  0  0
  -24.6905  -31.0576   22.0945 N   0  0  0  0  0  0
  -23.4203  -28.8148   23.3048 O   0  0  0  0  0  0
  -28.3555  -26.4508   20.1803 O   0  0  0  0  0  0
  -26.5633  -34.8940   22.4675 O   0  0  0  0  0  0
  -23.5420  -32.1369   23.7318 O   0  0  0  0  0  0
  -30.8620  -19.1878   19.7369 C   0  0  0  0  0  0
  -30.8556  -17.7658   19.8867 C   0  0  0  0  0  0
  -29.4511  -18.0022   21.8186 C   0  0  0  0  0  0
  -30.1662  -20.0661   20.6194 C   0  0  0  0  0  0
  -29.4820  -19.4274   21.6906 C   0  0  0  0  0  0
  -30.1275  -17.1247   20.9238 C   0  0  0  0  0  0
  -29.2976  -23.9916   20.4201 C   0  0  0  0  0  0
  -28.7954  -20.2794   22.7433 C   0  0  0  0  0  0
  -27.8625  -22.0367   19.9076 C   0  0  0  0  0  0
  -30.3080  -21.6413   20.4789 C   0  0  0  0  0  0
  -28.0881  -24.9839   20.1489 C   0  0  0  0  0  0
  -29.9880  -15.6684   21.0782 N   0  0  0  0  0  0
  -29.1464  -22.6115   20.3256 N   0  0  0  0  0  0
  -30.3931  -24.4840   20.7066 O   0  0  0  0  0  0
  -31.4690  -12.4534   19.1752 H   0  0  0  0  0  0
  -30.2930  -11.3795   19.8753 H   0  0  0  0  0  0
  -29.7633  -11.8222   17.4547 H   0  0  0  0  0  0
  -29.6753  -13.5314   17.7735 H   0  0  0  0  0  0
  -27.8319  -11.3475   18.8012 H   0  0  0  0  0  0
  -27.3840  -12.6992   17.7928 H   0  0  0  0  0  0
  -27.6783  -14.2841   19.5933 H   0  0  0  0  0  0
  -28.7176  -12.0449   21.3925 H   0  0  0  0  0  0
  -28.4668  -13.6983   21.8714 H   0  0  0  0  0  0
  -25.2819   -9.5718   22.4749 H   0  0  0  0  0  0
  -24.0060   -7.4677   22.7474 H   0  0  0  0  0  0
  -21.0876   -8.8826   19.8952 H   0  0  0  0  0  0
  -22.3773  -10.9703   19.6181 H   0  0  0  0  0  0
  -21.2007   -7.6168   23.9751 H   0  0  0  0  0  0
  -21.1482   -6.0539   25.9083 H   0  0  0  0  0  0
  -22.0584   -2.7652   23.2847 H   0  0  0  0  0  0
  -22.4163  -11.9840   22.4792 H   0  0  0  0  0  0
  -21.1178  -13.1251   22.2638 H   0  0  0  0  0  0
  -24.6207  -15.8200   20.5121 H   0  0  0  0  0  0
  -26.2508  -15.6579   20.0864 H   0  0  0  0  0  0
  -26.7160  -32.5446   23.1066 H   0  0  0  0  0  0
  -25.0106  -33.9729   25.0424 H   0  0  0  0  0  0
  -22.7170  -31.2951   21.3919 H   0  0  0  0  0  0
  -23.3779  -35.9606   23.3297 H   0  0  0  0  0  0
  -24.3581  -36.8921   22.2061 H   0  0  0  0  0  0
  -23.7207  -37.6476   23.6653 H   0  0  0  0  0  0
  -26.0777  -31.5478   20.5825 H   0  0  0  0  0  0
  -26.8481  -30.8581   21.9826 H   0  0  0  0  0  0
  -28.1253  -28.9875   21.1790 H   0  0  0  0  0  0
  -25.9558  -25.9194   19.0269 H   0  0  0  0  0  0
  -23.9735  -27.2899   19.0365 H   0  0  0  0  0  0
  -23.7580  -30.5795   19.3978 H   0  0  0  0  0  0
  -22.7615  -29.2313   19.8626 H   0  0  0  0  0  0
  -25.1284  -36.1940   25.0815 H   0  0  0  0  0  0
  -20.9916  -28.3230   24.1457 H   0  0  0  0  0  0
  -20.5649  -26.2302   23.3640 H   0  0  0  0  0  0
  -21.6632  -26.7451   22.1244 H   0  0  0  0  0  0
  -19.6937  -25.6289   21.1264 H   0  0  0  0  0  0
  -19.6689  -27.3172   20.6738 H   0  0  0  0  0  0
  -17.4200  -26.6675   21.4002 H   0  0  0  0  0  0
  -18.0318  -26.0086   22.9003 H   0  0  0  0  0  0
  -19.7942  -30.7266   24.2241 H   0  0  0  0  0  0
  -17.5026  -31.6280   24.5159 H   0  0  0  0  0  0
  -15.5354  -30.2984   23.7681 H   0  0  0  0  0  0
  -15.8669  -28.0839   22.7051 H   0  0  0  0  0  0
  -24.6070  -30.6775   25.7771 H   0  0  0  0  0  0
  -24.8717  -32.2755   26.4702 H   0  0  0  0  0  0
  -25.8127  -30.9002   27.0249 H   0  0  0  0  0  0
  -26.2840  -29.6793   24.1110 H   0  0  0  0  0  0
  -27.4053  -29.7197   25.4481 H   0  0  0  0  0  0
  -27.8659  -30.4329   23.9204 H   0  0  0  0  0  0
  -27.2802  -33.3630   26.1916 H   0  0  0  0  0  0
  -28.3966  -32.6641   25.0286 H   0  0  0  0  0  0
  -28.0645  -31.8384   26.5433 H   0  0  0  0  0  0
  -28.2584  -38.0126   24.7558 H   0  0  0  0  0  0
  -28.1089  -36.2659   24.6235 H   0  0  0  0  0  0
  -27.2309  -37.1370   25.8882 H   0  0  0  0  0  0
  -20.9399  -29.8773   21.6903 H   0  0  0  0  0  0
  -26.0170  -38.2856   24.1454 H   0  0  0  0  0  0
  -31.4430  -19.6036   18.9257 H   0  0  0  0  0  0
  -31.4123  -17.1700   19.1771 H   0  0  0  0  0  0
  -28.9045  -17.5722   22.6455 H   0  0  0  0  0  0
  -28.3275  -19.6764   23.5202 H   0  0  0  0  0  0
  -28.0171  -20.8870   22.2907 H   0  0  0  0  0  0
  -29.5090  -20.9505   23.2206 H   0  0  0  0  0  0
  -27.6671  -22.2521   18.8575 H   0  0  0  0  0  0
  -27.0330  -22.4377   20.4934 H   0  0  0  0  0  0
  -27.8253  -20.9536   20.0160 H   0  0  0  0  0  0
  -30.9668  -21.8227   19.6293 H   0  0  0  0  0  0
  -30.8849  -21.9637   21.3469 H   0  0  0  0  0  0
  -27.3176  -24.7659   20.8900 H   0  0  0  0  0  0
  -27.6871  -24.7080   19.1739 H   0  0  0  0  0  0
  -29.1625  -15.3805   21.5802 H   0  0  0  0  0  0
  1 25  1  0  0  0
  1 30  2  0  0  0
  1 82  1  0  0  0
  2  3  1  0  0  0
  2 25  1  0  0  0
  2 85  1  0  0  0
  2 86  1  0  0  0
  3  4  1  0  0  0
  3 87  1  0  0  0
  3 88  1  0  0  0
  4  5  1  0  0  0
  4 89  1  0  0  0
  4 90  1  0  0  0
  5  6  1  0  0  0
  5 26  1  0  0  0
  5 91  1  0  0  0
  6 25  1  0  0  0
  6 92  1  0  0  0
  6 93  1  0  0  0
  7  8  2  0  0  0
  7 26  1  0  0  0
  7 29  1  0  0  0
  8  9  1  0  0  0
  8 22  1  0  0  0
  9 10  1  0  0  0
  9 27  2  0  0  0
 10 11  2  0  0  0
 10 15  1  0  0  0
 11 12  1  0  0  0
 11 94  1  0  0  0
 12 13  2  0  0  0
 12 95  1  0  0  0
 13 14  1  0  0  0
 13 31  1  0  0  0
 14 15  2  0  0  0
 14 96  1  0  0  0
 15 97  1  0  0  0
 16 17  2  0  0  0
 16 21  1  0  0  0
 16 31  1  0  0  0
 17 18  1  0  0  0
 17 98  1  0  0  0
 18 19  2  0  0  0
 18 99  1  0  0  0
 19 20  1  0  0  0
 19 24  1  0  0  0
 20 21  2  0  0  0
 20100  1  0  0  0
 21 23  1  0  0  0
 22 28  1  0  0  0
 22 32  2  0  0  0
 26 27  1  0  0  0
 28101  1  0  0  0
 28102  1  0  0  0
 29103  1  0  0  0
 29104  1  0  0  0
 33 34  1  0  0  0
 33 66  1  0  0  0
 33 70  2  0  0  0
 34 36  1  0  0  0
 34 59  1  0  0  0
 34105  1  0  0  0
 35 44  2  0  0  0
 35 45  1  0  0  0
 35 68  1  0  0  0
 36 56  1  0  0  0
 36106  1  0  0  0
 37 39  1  0  0  0
 37 47  1  0  0  0
 37 66  1  0  0  0
 37107  1  0  0  0
 38 43  2  0  0  0
 38 46  1  0  0  0
 38 47  1  0  0  0
 39 64  1  0  0  0
 39 67  2  0  0  0
 40 52  1  0  0  0
 40 53  2  0  0  0
 40 58  1  0  0  0
 41108  1  0  0  0
 41109  1  0  0  0
 41110  1  0  0  0
 41 48  1  0  0  0
 42 43  1  0  0  0
 42 66  1  0  0  0
 42111  1  0  0  0
 42112  1  0  0  0
 43 44  1  0  0  0
 44113  1  0  0  0
 45 46  2  0  0  0
 45114  1  0  0  0
 46115  1  0  0  0
 47116  1  0  0  0
 47117  1  0  0  0
 48 56  1  0  0  0
 48 65  1  0  0  0
 48118  1  0  0  0
 49 50  1  0  0  0
 49 53  1  0  0  0
 49 64  1  0  0  0
 49119  1  0  0  0
 50 51  1  0  0  0
 50120  1  0  0  0
 50121  1  0  0  0
 51 52  1  0  0  0
 51122  1  0  0  0
 51123  1  0  0  0
 52124  1  0  0  0
 52125  1  0  0  0
 53 54  1  0  0  0
 54 55  2  0  0  0
 54126  1  0  0  0
 55 57  1  0  0  0
 55127  1  0  0  0
 56 69  2  0  0  0
 57 58  2  0  0  0
 57128  1  0  0  0
 58129  1  0  0  0
 59 60  1  0  0  0
 59 61  1  0  0  0
 59 62  1  0  0  0
 60130  1  0  0  0
 60131  1  0  0  0
 60132  1  0  0  0
 61133  1  0  0  0
 61134  1  0  0  0
 61135  1  0  0  0
 62136  1  0  0  0
 62137  1  0  0  0
 62138  1  0  0  0
 63 65  1  0  0  0
 63139  1  0  0  0
 63140  1  0  0  0
 63141  1  0  0  0
 64142  1  0  0  0
 65143  1  0  0  0
 68 81  1  0  0  0
 71 72  2  0  0  0
 71 74  1  0  0  0
 71144  1  0  0  0
 72 76  1  0  0  0
 72145  1  0  0  0
 73 75  1  0  0  0
 73 76  2  0  0  0
 73146  1  0  0  0
 74 75  2  0  0  0
 74 80  1  0  0  0
 75 78  1  0  0  0
 76 82  1  0  0  0
 77 81  1  0  0  0
 77 83  1  0  0  0
 77 84  2  0  0  0
 78147  1  0  0  0
 78148  1  0  0  0
 78149  1  0  0  0
 79 83  1  0  0  0
 79150  1  0  0  0
 79151  1  0  0  0
 79152  1  0  0  0
 80 83  1  0  0  0
 80153  1  0  0  0
 80154  1  0  0  0
 81155  1  0  0  0
 81156  1  0  0  0
 82157  1  0  0  0
M  ISO  4   1 100  68 101  81 101  82 100
M  END
> <chiral flag>
0

> <version>
0

> <s_m_source_file>
/data/baiqing/PycharmProjects/Reinvent-master-3.2/result/LINK_invent/BTK/process_docking_weight1_custom_product_contain_oxygen_bond_distance_aromatic_linkinvent_7_9_3/rearranged_h_0054.sdf

> <i_m_source_file_index>
70

> <r_mmod_Potential_Energy-OPLS-2005>
85.275390625

> <r_mmod_Stretch_Energy-OPLS-2005>
95.2056350708008

> <r_mmod_Bend_Energy-OPLS-2005>
145.886856079102

> <r_mmod_Torsional_Energy-OPLS-2005>
229.166549682617

> <r_mmod_Improper_Torsional_Energy-OPLS-2005>
3.45018768310547

> <r_mmod_Van_der_Waal_Energy-OPLS-2005>
152.145874023438

> <r_mmod_Electrostatic_Energy-OPLS-2005>
-347.9052734375

> <r_mmod_Solvation_Energy-OPLS-2005>
-237.319717407227

> <b_mmod_Minimization_Converged-OPLS-2005>
0

> <r_mmod_RMS_Derivative-OPLS-2005>
4.9051775932312

$$$$
70
                    3D
 Structure written by MMmdl.
164173  0  0  1  0            999 V2000
  -30.6501  -14.5274   20.4314 C   0  0  0  0  0  0
  -30.4422  -12.2692   19.4779 C   0  0  0  0  0  0
  -29.5267  -12.3538   18.2394 C   0  0  0  0  0  0
  -28.0252  -12.3341   18.6225 C   0  0  0  0  0  0
  -27.6617  -13.1844   19.8762 C   0  0  2  0  0  0
  -28.7088  -13.0180   20.9978 C   0  0  0  0  0  0
  -25.2625  -13.8089   20.5637 C   0  0  0  0  0  0
  -24.1850  -13.0418   20.9178 C   0  0  0  0  0  0
  -24.6376  -11.6873   20.8760 C   0  0  0  0  0  0
  -23.9037  -10.4284   21.0420 C   0  0  0  0  0  0
  -24.3601   -9.4202   21.9188 C   0  0  0  0  0  0
  -23.6292   -8.2234   22.0747 C   0  0  0  0  0  0
  -22.4279   -8.0268   21.3535 C   0  0  0  0  0  0
  -21.9909   -9.0243   20.4642 C   0  0  0  0  0  0
  -22.7218  -10.2128   20.3060 C   0  0  0  0  0  0
  -21.6851   -6.0733   22.5273 C   0  0  0  0  0  0
  -21.4007   -6.5642   23.8206 C   0  0  0  0  0  0
  -21.3652   -5.6791   24.9166 C   0  0  0  0  0  0
  -21.6052   -4.3057   24.7218 C   0  0  0  0  0  0
  -21.8816   -3.8143   23.4336 C   0  0  0  0  0  0
  -21.9192   -4.6962   22.3393 C   0  0  0  0  0  0
  -22.7885  -13.5246   21.1822 C   0  0  0  0  0  0
  -22.1661   -4.2146   21.0972 F   0  0  0  0  0  0
  -21.5647   -3.4539   25.7731 F   0  0  0  0  0  0
  -30.0296  -13.3156   20.4225 N   0  0  0  0  0  0
  -26.3032  -12.9197   20.3383 N   0  0  0  0  0  0
  -25.9300  -11.6397   20.5850 N   0  0  0  0  0  0
  -22.0501  -12.8256   22.0369 N   0  0  0  0  0  0
  -25.4397  -15.1784   20.3930 N   0  0  0  0  0  0
  -31.8222  -14.6875   20.0822 O   0  0  0  0  0  0
  -21.6636   -6.8868   21.4234 O   0  0  0  0  0  0
  -22.3593  -14.5563   20.6665 O   0  0  0  0  0  0
  -24.6111  -31.8666   23.2072 C   0  0  0  0  0  0
  -25.9014  -32.4811   23.8370 C   0  0  1  0  0  0
  -27.2580  -27.4537   20.0848 C   0  0  0  0  0  0
  -25.5884  -33.8610   24.2308 N   0  0  0  0  0  0
  -23.4000  -30.4848   21.5457 C   0  0  2  0  0  0
  -24.8538  -28.9486   20.1070 C   0  0  0  0  0  0
  -22.7393  -29.4637   22.4982 C   0  0  0  0  0  0
  -18.0266  -28.1358   22.8498 C   0  0  0  0  0  0
  -24.1490  -36.7305   23.2640 C   0  0  0  0  0  0
  -25.9245  -30.8320   21.3627 C   0  0  0  0  0  0
  -26.0039  -29.4663   20.7127 C   0  0  0  0  0  0
  -27.2001  -28.7175   20.7126 C   0  0  0  0  0  0
  -26.0922  -26.9415   19.4742 C   0  0  0  0  0  0
  -24.8915  -27.6843   19.4876 C   0  0  0  0  0  0
  -23.6081  -29.8062   20.1623 C   0  0  0  0  0  0
  -25.4111  -36.3103   24.0337 C   0  0  1  0  0  0
  -20.5858  -28.3646   23.1323 C   0  0  2  0  0  0
  -20.6752  -26.9385   22.5415 C   0  0  0  0  0  0
  -19.5731  -26.6371   21.5209 C   0  0  0  0  0  0
  -18.1913  -26.7909   22.1624 C   0  0  0  0  0  0
  -19.1517  -28.8819   23.2908 C   0  0  0  0  0  0
  -18.9447  -30.1432   23.8907 C   0  0  0  0  0  0
  -17.6452  -30.6576   24.0553 C   0  0  0  0  0  0
  -25.9034  -34.9468   23.5122 C   0  0  0  0  0  0
  -16.5343  -29.9076   23.6325 C   0  0  0  0  0  0
  -16.7255  -28.6486   23.0360 C   0  0  0  0  0  0
  -26.4464  -31.6592   25.0692 C   0  0  0  0  0  0
  -25.3740  -31.3705   26.1451 C   0  0  0  0  0  0
  -27.0305  -30.3034   24.6075 C   0  0  0  0  0  0
  -27.6045  -32.4317   25.7449 C   0  0  0  0  0  0
  -27.5583  -37.1804   24.8465 C   0  0  0  0  0  0
  -21.4123  -29.3014   22.3727 N   0  0  0  0  0  0
  -26.4299  -37.3784   23.9406 N   0  0  0  0  0  0
  -24.6623  -31.0771   22.0966 N   0  0  0  0  0  0
  -23.4168  -28.8197   23.3035 O   0  0  0  0  0  0
  -28.4480  -26.7601   20.1461 O   0  0  0  0  0  0
  -26.5599  -34.8924   22.4684 O   0  0  0  0  0  0
  -23.5311  -32.1419   23.7477 O   0  0  0  0  0  0
  -29.6582  -19.3481   18.6668 C   0  0  0  0  0  0
  -30.2552  -18.0208   20.6205 C   0  0  0  0  0  0
  -30.1602  -19.2896   19.9838 C   0  0  0  0  0  0
  -29.2797  -18.1851   17.9845 C   0  0  0  0  0  0
  -29.8573  -16.8290   19.9567 C   0  0  0  0  0  0
  -29.3678  -16.9326   18.6232 C   0  0  0  0  0  0
  -30.5994  -22.4530   19.0748 C   0  0  0  0  0  0
  -29.8233  -23.6265   18.4354 C   0  0  0  0  0  0
  -29.0468  -24.0421   20.8281 C   0  0  0  0  0  0
  -29.0606  -22.5072   20.9965 C   0  0  0  0  0  0
  -28.8310  -24.4059   19.3498 C   0  0  1  0  0  0
  -28.7577  -18.3026   16.5602 C   0  0  0  0  0  0
  -30.6225  -20.5662   20.7092 C   0  0  0  0  0  0
  -28.8738  -25.9339   19.0613 C   0  0  0  0  0  0
  -30.1059  -21.8591   20.1909 N   0  0  0  0  0  0
  -29.8372  -15.5795   20.6680 N   0  0  0  0  0  0
  -31.6135  -22.0457   18.5022 O   0  0  0  0  0  0
  -28.8171  -15.5718   17.7250 Cl  0  0  0  0  0  0
  -31.4900  -12.3604   19.1852 H   0  0  0  0  0  0
  -30.3530  -11.2910   19.9528 H   0  0  0  0  0  0
  -29.7373  -11.5096   17.5824 H   0  0  0  0  0  0
  -29.7878  -13.2261   17.6507 H   0  0  0  0  0  0
  -27.7615  -11.2916   18.8012 H   0  0  0  0  0  0
  -27.4208  -12.6489   17.7707 H   0  0  0  0  0  0
  -27.6787  -14.2259   19.5816 H   0  0  0  0  0  0
  -28.6936  -12.0006   21.3922 H   0  0  0  0  0  0
  -28.4821  -13.6688   21.8437 H   0  0  0  0  0  0
  -25.2745   -9.5701   22.4756 H   0  0  0  0  0  0
  -24.0014   -7.4630   22.7463 H   0  0  0  0  0  0
  -21.0841   -8.8757   19.8946 H   0  0  0  0  0  0
  -22.3671  -10.9674   19.6176 H   0  0  0  0  0  0
  -21.1993   -7.6147   23.9706 H   0  0  0  0  0  0
  -21.1483   -6.0522   25.9073 H   0  0  0  0  0  0
  -22.0605   -2.7611   23.2828 H   0  0  0  0  0  0
  -22.4114  -11.9938   22.4794 H   0  0  0  0  0  0
  -21.1113  -13.1295   22.2542 H   0  0  0  0  0  0
  -24.6721  -15.8364   20.4729 H   0  0  0  0  0  0
  -26.2756  -15.5937   20.0021 H   0  0  0  0  0  0
  -26.7078  -32.5535   23.1133 H   0  0  0  0  0  0
  -25.0041  -33.9773   25.0457 H   0  0  0  0  0  0
  -22.6879  -31.3000   21.4018 H   0  0  0  0  0  0
  -23.3754  -35.9638   23.3312 H   0  0  0  0  0  0
  -24.3583  -36.8908   22.2053 H   0  0  0  0  0  0
  -23.7243  -37.6513   23.6648 H   0  0  0  0  0  0
  -26.0381  -31.5990   20.5956 H   0  0  0  0  0  0
  -26.8110  -30.8856   21.9823 H   0  0  0  0  0  0
  -28.0862  -29.1104   21.1915 H   0  0  0  0  0  0
  -26.1021  -25.9676   19.0057 H   0  0  0  0  0  0
  -24.0067  -27.2791   19.0171 H   0  0  0  0  0  0
  -23.6971  -30.5728   19.3918 H   0  0  0  0  0  0
  -22.7381  -29.2102   19.8815 H   0  0  0  0  0  0
  -25.1291  -36.1965   25.0832 H   0  0  0  0  0  0
  -20.9953  -28.3206   24.1444 H   0  0  0  0  0  0
  -20.5652  -26.2252   23.3597 H   0  0  0  0  0  0
  -21.6624  -26.7421   22.1212 H   0  0  0  0  0  0
  -19.6893  -25.6285   21.1230 H   0  0  0  0  0  0
  -19.6674  -27.3189   20.6746 H   0  0  0  0  0  0
  -17.4185  -26.6668   21.4022 H   0  0  0  0  0  0
  -18.0312  -26.0038   22.9007 H   0  0  0  0  0  0
  -19.7930  -30.7240   24.2280 H   0  0  0  0  0  0
  -17.5013  -31.6268   24.5138 H   0  0  0  0  0  0
  -15.5342  -30.2982   23.7637 H   0  0  0  0  0  0
  -15.8658  -28.0801   22.7080 H   0  0  0  0  0  0
  -24.5865  -30.7119   25.7767 H   0  0  0  0  0  0
  -24.8998  -32.2878   26.4953 H   0  0  0  0  0  0
  -25.8089  -30.8801   27.0168 H   0  0  0  0  0  0
  -26.2844  -29.6775   24.1163 H   0  0  0  0  0  0
  -27.4114  -29.7291   25.4530 H   0  0  0  0  0  0
  -27.8662  -30.4351   23.9195 H   0  0  0  0  0  0
  -27.2660  -33.3603   26.2058 H   0  0  0  0  0  0
  -28.3833  -32.6901   25.0259 H   0  0  0  0  0  0
  -28.0739  -31.8423   26.5336 H   0  0  0  0  0  0
  -28.2606  -38.0095   24.7509 H   0  0  0  0  0  0
  -28.1072  -36.2627   24.6297 H   0  0  0  0  0  0
  -27.2300  -37.1461   25.8867 H   0  0  0  0  0  0
  -20.9276  -29.8730   21.6951 H   0  0  0  0  0  0
  -26.0190  -38.2868   24.1392 H   0  0  0  0  0  0
  -29.5517  -20.2817   18.1402 H   0  0  0  0  0  0
  -30.6257  -17.9666   21.6343 H   0  0  0  0  0  0
  -29.2832  -23.2304   17.5744 H   0  0  0  0  0  0
  -30.5700  -24.3017   18.0169 H   0  0  0  0  0  0
  -29.9815  -24.4754   21.1882 H   0  0  0  0  0  0
  -28.2522  -24.4695   21.4413 H   0  0  0  0  0  0
  -28.0970  -22.0881   20.7031 H   0  0  0  0  0  0
  -29.1920  -22.2727   22.0539 H   0  0  0  0  0  0
  -27.8234  -24.0678   19.1033 H   0  0  0  0  0  0
  -28.8383  -19.3207   16.1817 H   0  0  0  0  0  0
  -27.7081  -18.0080   16.5127 H   0  0  0  0  0  0
  -29.3253  -17.6599   15.8867 H   0  0  0  0  0  0
  -31.7128  -20.5879   20.6876 H   0  0  0  0  0  0
  -30.3683  -20.4550   21.7635 H   0  0  0  0  0  0
  -28.3557  -26.1731   18.1313 H   0  0  0  0  0  0
  -29.9095  -26.2317   18.8934 H   0  0  0  0  0  0
  -28.9310  -15.3097   21.0184 H   0  0  0  0  0  0
  1 25  1  0  0  0
  1 30  2  0  0  0
  1 86  1  0  0  0
  2  3  1  0  0  0
  2 25  1  0  0  0
  2 89  1  0  0  0
  2 90  1  0  0  0
  3  4  1  0  0  0
  3 91  1  0  0  0
  3 92  1  0  0  0
  4  5  1  0  0  0
  4 93  1  0  0  0
  4 94  1  0  0  0
  5  6  1  0  0  0
  5 26  1  0  0  0
  5 95  1  0  0  0
  6 25  1  0  0  0
  6 96  1  0  0  0
  6 97  1  0  0  0
  7  8  2  0  0  0
  7 26  1  0  0  0
  7 29  1  0  0  0
  8  9  1  0  0  0
  8 22  1  0  0  0
  9 10  1  0  0  0
  9 27  2  0  0  0
 10 11  2  0  0  0
 10 15  1  0  0  0
 11 12  1  0  0  0
 11 98  1  0  0  0
 12 13  2  0  0  0
 12 99  1  0  0  0
 13 14  1  0  0  0
 13 31  1  0  0  0
 14 15  2  0  0  0
 14100  1  0  0  0
 15101  1  0  0  0
 16 17  2  0  0  0
 16 21  1  0  0  0
 16 31  1  0  0  0
 17 18  1  0  0  0
 17102  1  0  0  0
 18 19  2  0  0  0
 18103  1  0  0  0
 19 20  1  0  0  0
 19 24  1  0  0  0
 20 21  2  0  0  0
 20104  1  0  0  0
 21 23  1  0  0  0
 22 28  1  0  0  0
 22 32  2  0  0  0
 26 27  1  0  0  0
 28105  1  0  0  0
 28106  1  0  0  0
 29107  1  0  0  0
 29108  1  0  0  0
 33 34  1  0  0  0
 33 66  1  0  0  0
 33 70  2  0  0  0
 34 36  1  0  0  0
 34 59  1  0  0  0
 34109  1  0  0  0
 35 44  2  0  0  0
 35 45  1  0  0  0
 35 68  1  0  0  0
 36 56  1  0  0  0
 36110  1  0  0  0
 37 39  1  0  0  0
 37 47  1  0  0  0
 37 66  1  0  0  0
 37111  1  0  0  0
 38 43  2  0  0  0
 38 46  1  0  0  0
 38 47  1  0  0  0
 39 64  1  0  0  0
 39 67  2  0  0  0
 40 52  1  0  0  0
 40 53  2  0  0  0
 40 58  1  0  0  0
 41112  1  0  0  0
 41113  1  0  0  0
 41114  1  0  0  0
 41 48  1  0  0  0
 42 43  1  0  0  0
 42 66  1  0  0  0
 42115  1  0  0  0
 42116  1  0  0  0
 43 44  1  0  0  0
 44117  1  0  0  0
 45 46  2  0  0  0
 45118  1  0  0  0
 46119  1  0  0  0
 47120  1  0  0  0
 47121  1  0  0  0
 48 56  1  0  0  0
 48 65  1  0  0  0
 48122  1  0  0  0
 49 50  1  0  0  0
 49 53  1  0  0  0
 49 64  1  0  0  0
 49123  1  0  0  0
 50 51  1  0  0  0
 50124  1  0  0  0
 50125  1  0  0  0
 51 52  1  0  0  0
 51126  1  0  0  0
 51127  1  0  0  0
 52128  1  0  0  0
 52129  1  0  0  0
 53 54  1  0  0  0
 54 55  2  0  0  0
 54130  1  0  0  0
 55 57  1  0  0  0
 55131  1  0  0  0
 56 69  2  0  0  0
 57 58  2  0  0  0
 57132  1  0  0  0
 58133  1  0  0  0
 59 60  1  0  0  0
 59 61  1  0  0  0
 59 62  1  0  0  0
 60134  1  0  0  0
 60135  1  0  0  0
 60136  1  0  0  0
 61137  1  0  0  0
 61138  1  0  0  0
 61139  1  0  0  0
 62140  1  0  0  0
 62141  1  0  0  0
 62142  1  0  0  0
 63 65  1  0  0  0
 63143  1  0  0  0
 63144  1  0  0  0
 63145  1  0  0  0
 64146  1  0  0  0
 65147  1  0  0  0
 68 84  1  0  0  0
 71 73  2  0  0  0
 71 74  1  0  0  0
 71148  1  0  0  0
 72 73  1  0  0  0
 72 75  2  0  0  0
 72149  1  0  0  0
 73 83  1  0  0  0
 74 76  2  0  0  0
 74 82  1  0  0  0
 75 76  1  0  0  0
 75 86  1  0  0  0
 76 88  1  0  0  0
 77 78  1  0  0  0
 77 85  1  0  0  0
 77 87  2  0  0  0
 78 81  1  0  0  0
 78150  1  0  0  0
 78151  1  0  0  0
 79 80  1  0  0  0
 79 81  1  0  0  0
 79152  1  0  0  0
 79153  1  0  0  0
 80 85  1  0  0  0
 80154  1  0  0  0
 80155  1  0  0  0
 81 84  1  0  0  0
 81156  1  0  0  0
 82157  1  0  0  0
 82158  1  0  0  0
 82159  1  0  0  0
 83 85  1  0  0  0
 83160  1  0  0  0
 83161  1  0  0  0
 84162  1  0  0  0
 84163  1  0  0  0
 86164  1  0  0  0
M  ISO  4   1 100  68 101  84 101  86 100
M  END
> <chiral flag>
0

> <version>
0

> <s_m_source_file>
/data/baiqing/PycharmProjects/Reinvent-master-3.2/result/LINK_invent/BTK/process_docking_weight1_custom_product_contain_oxygen_bond_distance_aromatic_linkinvent_7_9_3/rearranged_h_0054.sdf

> <i_m_source_file_index>
71

> <r_mmod_Potential_Energy-OPLS-2005>
10.9320983886719

> <r_mmod_Stretch_Energy-OPLS-2005>
43.6440849304199

> <r_mmod_Bend_Energy-OPLS-2005>
112.559661865234

> <r_mmod_Torsional_Energy-OPLS-2005>
289.16796875

> <r_mmod_Improper_Torsional_Energy-OPLS-2005>
7.53226709365845

> <r_mmod_Van_der_Waal_Energy-OPLS-2005>
172.336822509766

> <r_mmod_Electrostatic_Energy-OPLS-2005>
-414.237640380859

> <r_mmod_Solvation_Energy-OPLS-2005>
-225.469497680664

> <b_mmod_Minimization_Converged-OPLS-2005>
0

> <r_mmod_RMS_Derivative-OPLS-2005>
1.84848594665527

$$$$
71
                    3D
 Structure written by MMmdl.
163171  0  0  1  0            999 V2000
  -31.5134  -13.2303   20.2276 C   0  0  0  0  0  0
  -30.2800  -13.8381   18.1977 C   0  0  0  0  0  0
  -29.3227  -16.9016   18.7389 C   0  0  0  0  0  0
  -27.6744  -16.0581   20.2011 C   0  0  0  0  0  0
  -27.5666  -14.0830   20.4914 C   0  0  2  0  0  0
  -28.8209  -12.8386   20.3849 C   0  0  0  0  0  0
  -25.0414  -14.0092   20.5246 C   0  0  0  0  0  0
  -24.0861  -13.1225   20.8595 C   0  0  0  0  0  0
  -24.6734  -11.8243   20.8364 C   0  0  0  0  0  0
  -23.9838  -10.4991   20.9846 C   0  0  0  0  0  0
  -24.4249   -9.4775   21.8623 C   0  0  0  0  0  0
  -23.6642   -8.2925   22.0581 C   0  0  0  0  0  0
  -22.4472   -8.0762   21.3703 C   0  0  0  0  0  0
  -22.0218   -9.0736   20.4707 C   0  0  0  0  0  0
  -22.7839  -10.2463   20.2787 C   0  0  0  0  0  0
  -21.6939   -6.0848   22.5335 C   0  0  0  0  0  0
  -21.3981   -6.5588   23.8330 C   0  0  0  0  0  0
  -21.3668   -5.6707   24.9257 C   0  0  0  0  0  0
  -21.6134   -4.2996   24.7325 C   0  0  0  0  0  0
  -21.8878   -3.8134   23.4424 C   0  0  0  0  0  0
  -21.9209   -4.7012   22.3485 C   0  0  0  0  0  0
  -22.6945  -13.5321   21.1827 C   0  0  0  0  0  0
  -22.1584   -4.2060   21.1114 F   0  0  0  0  0  0
  -21.5765   -3.4468   25.7838 F   0  0  0  0  0  0
  -30.2584  -12.9015   19.6052 N   0  0  0  0  0  0
  -26.2390  -13.3586   20.4797 N   0  0  0  0  0  0
  -26.0167  -11.9854   20.6629 N   0  0  0  0  0  0
  -22.0227  -12.7689   22.0285 N   0  0  0  0  0  0
  -24.9543  -15.3650   20.3462 N   0  0  0  0  0  0
  -32.5506  -13.2063   19.6049 O   0  0  0  0  0  0
  -21.6862   -6.9192   21.4374 O   0  0  0  0  0  0
  -22.2154  -14.5783   20.7503 O   0  0  0  0  0  0
  -24.6850  -31.8011   23.1770 C   0  0  0  0  0  0
  -25.9455  -32.4499   23.8181 C   0  0  1  0  0  0
  -27.0751  -26.6395   20.0915 C   0  0  0  0  0  0
  -25.6102  -33.8358   24.1967 N   0  0  0  0  0  0
  -23.5083  -30.4323   21.5259 C   0  0  2  0  0  0
  -24.9297  -28.7780   20.1049 C   0  0  0  0  0  0
  -22.7775  -29.4382   22.4699 C   0  0  0  0  0  0
  -18.0398  -28.1437   22.8472 C   0  0  0  0  0  0
  -24.1453  -36.7076   23.2660 C   0  0  0  0  0  0
  -26.0933  -30.5065   21.4592 C   0  0  0  0  0  0
  -26.1343  -29.0824   20.7583 C   0  0  0  0  0  0
  -27.2052  -28.0245   20.7379 C   0  0  0  0  0  0
  -25.8741  -26.5982   19.3987 C   0  0  0  0  0  0
  -24.8395  -27.5605   19.4110 C   0  0  0  0  0  0
  -23.7646  -29.7678   20.1430 C   0  0  0  0  0  0
  -25.4116  -36.2841   24.0251 C   0  0  1  0  0  0
  -20.6038  -28.3787   23.1113 C   0  0  2  0  0  0
  -20.6813  -26.9438   22.5394 C   0  0  0  0  0  0
  -19.5745  -26.6328   21.5262 C   0  0  0  0  0  0
  -18.1951  -26.7965   22.1662 C   0  0  0  0  0  0
  -19.1678  -28.8919   23.2799 C   0  0  0  0  0  0
  -18.9545  -30.1523   23.8808 C   0  0  0  0  0  0
  -17.6517  -30.6595   24.0545 C   0  0  0  0  0  0
  -25.9156  -34.9302   23.4923 C   0  0  0  0  0  0
  -16.5416  -29.9059   23.6369 C   0  0  0  0  0  0
  -16.7374  -28.6515   23.0338 C   0  0  0  0  0  0
  -26.4647  -31.6698   25.0919 C   0  0  0  0  0  0
  -25.3681  -31.4131   26.1542 C   0  0  0  0  0  0
  -27.0626  -30.3008   24.7031 C   0  0  0  0  0  0
  -27.5973  -32.4701   25.7728 C   0  0  0  0  0  0
  -27.5546  -37.1709   24.8435 C   0  0  0  0  0  0
  -21.4403  -29.3121   22.3452 N   0  0  0  0  0  0
  -26.4179  -37.3651   23.9494 N   0  0  0  0  0  0
  -24.7856  -30.9446   22.1030 N   0  0  0  0  0  0
  -23.4198  -28.7875   23.2969 O   0  0  0  0  0  0
  -27.8130  -25.2662   20.0567 O   0  0  0  0  0  0
  -26.5724  -34.8861   22.4507 O   0  0  0  0  0  0
  -23.5909  -32.1069   23.6795 O   0  0  0  0  0  0
  -31.4731  -16.0470   17.8835 C   0  0  0  0  0  0
  -30.4358  -15.8880   16.7189 C   0  0  0  0  0  0
  -29.7085  -15.1608   19.8560 C   0  0  0  0  0  0
  -31.2119  -15.6940   19.4054 C   0  0  0  0  0  0
  -28.9811  -15.3521   16.8247 C   0  0  0  0  0  0
  -28.2995  -15.0702   18.2081 C   0  0  0  0  0  0
  -27.6287  -20.0170   18.5255 C   0  0  0  0  0  0
  -28.2810  -14.8214   15.5835 C   0  0  0  0  0  0
  -25.9121  -18.8857   19.4984 C   0  0  0  0  0  0
  -32.2512  -15.5566   20.4877 C   0  0  0  0  0  0
  -27.0708  -16.7756   17.9331 C   0  0  0  0  0  0
  -27.4629  -21.6469   19.5039 C   0  0  0  0  0  0
  -27.4130  -23.6342   19.3756 C   0  0  0  0  0  0
  -31.6787  -14.2957   21.0627 N   0  0  0  0  0  0
  -27.0563  -18.5528   18.6198 N   0  0  0  0  0  0
  -28.4604  -20.1333   17.6348 O   0  0  0  0  0  0
  -31.2934  -13.6707   17.8305 H   0  0  0  0  0  0
  -29.8058  -13.2008   17.4374 H   0  0  0  0  0  0
  -29.2215  -17.6054   17.8848 H   0  0  0  0  0  0
  -29.9172  -17.6487   19.2609 H   0  0  0  0  0  0
  -26.7940  -16.6870   20.3043 H   0  0  0  0  0  0
  -28.0005  -16.5370   21.1427 H   0  0  0  0  0  0
  -27.6443  -14.1966   21.5716 H   0  0  0  0  0  0
  -28.4105  -12.0211   19.7888 H   0  0  0  0  0  0
  -28.9560  -12.4125   21.3828 H   0  0  0  0  0  0
  -25.3616   -9.6110   22.3765 H   0  0  0  0  0  0
  -24.0380   -7.5364   22.7379 H   0  0  0  0  0  0
  -21.1079   -8.9456   19.8989 H   0  0  0  0  0  0
  -22.4408  -10.9848   19.5613 H   0  0  0  0  0  0
  -21.1717   -7.6038   23.9867 H   0  0  0  0  0  0
  -21.1377   -6.0320   25.9181 H   0  0  0  0  0  0
  -22.0505   -2.7569   23.3151 H   0  0  0  0  0  0
  -22.4428  -11.9510   22.4186 H   0  0  0  0  0  0
  -21.0762  -13.0089   22.2897 H   0  0  0  0  0  0
  -24.0296  -15.7546   20.1242 H   0  0  0  0  0  0
  -25.7167  -16.0146   20.1974 H   0  0  0  0  0  0
  -26.7541  -32.4801   23.0917 H   0  0  0  0  0  0
  -25.0297  -33.9411   25.0143 H   0  0  0  0  0  0
  -22.8309  -31.2681   21.3686 H   0  0  0  0  0  0
  -23.3803  -35.9316   23.3153 H   0  0  0  0  0  0
  -24.3533  -36.8942   22.2115 H   0  0  0  0  0  0
  -23.7088  -37.6147   23.6870 H   0  0  0  0  0  0
  -26.3496  -31.2693   20.7127 H   0  0  0  0  0  0
  -26.9150  -30.5294   22.1648 H   0  0  0  0  0  0
  -28.0928  -28.2569   21.3214 H   0  0  0  0  0  0
  -25.6808  -25.6719   18.8915 H   0  0  0  0  0  0
  -23.9308  -27.3043   18.8958 H   0  0  0  0  0  0
  -23.9977  -30.5536   19.4312 H   0  0  0  0  0  0
  -22.8458  -29.2997   19.7783 H   0  0  0  0  0  0
  -25.1318  -36.1541   25.0707 H   0  0  0  0  0  0
  -21.0180  -28.3481   24.1222 H   0  0  0  0  0  0
  -20.5695  -26.2422   23.3712 H   0  0  0  0  0  0
  -21.6643  -26.7297   22.1219 H   0  0  0  0  0  0
  -19.6826  -25.6198   21.1348 H   0  0  0  0  0  0
  -19.6709  -27.3075   20.6761 H   0  0  0  0  0  0
  -17.4236  -26.6835   21.4055 H   0  0  0  0  0  0
  -18.0271  -26.0147   22.9060 H   0  0  0  0  0  0
  -19.8002  -30.7405   24.2122 H   0  0  0  0  0  0
  -17.5039  -31.6256   24.5152 H   0  0  0  0  0  0
  -15.5399  -30.2855   23.7706 H   0  0  0  0  0  0
  -15.8828  -28.0734   22.7022 H   0  0  0  0  0  0
  -24.5773  -30.7556   25.7958 H   0  0  0  0  0  0
  -24.9002  -32.3447   26.4749 H   0  0  0  0  0  0
  -25.7848  -30.9472   27.0486 H   0  0  0  0  0  0
  -26.3284  -29.6454   24.2365 H   0  0  0  0  0  0
  -27.4287  -29.7713   25.5842 H   0  0  0  0  0  0
  -27.9235  -30.4074   24.0418 H   0  0  0  0  0  0
  -27.2360  -33.4059   26.2038 H   0  0  0  0  0  0
  -28.3980  -32.7308   25.0768 H   0  0  0  0  0  0
  -28.0505  -31.9140   26.5964 H   0  0  0  0  0  0
  -28.2363  -38.0184   24.7678 H   0  0  0  0  0  0
  -28.1217  -36.2740   24.5952 H   0  0  0  0  0  0
  -27.2366  -37.0971   25.8842 H   0  0  0  0  0  0
  -20.9632  -29.9005   21.6764 H   0  0  0  0  0  0
  -25.9951  -38.2636   24.1677 H   0  0  0  0  0  0
  -32.4237  -16.4501   17.5465 H   0  0  0  0  0  0
  -30.7176  -16.2072   15.7177 H   0  0  0  0  0  0
  -29.5620  -15.1559   20.9511 H   0  0  0  0  0  0
  -28.9290  -14.0837   15.1025 H   0  0  0  0  0  0
  -28.1544  -15.5568   14.7968 H   0  0  0  0  0  0
  -27.2954  -14.4036   15.8180 H   0  0  0  0  0  0
  -25.1576  -19.5232   19.0149 H   0  0  0  0  0  0
  -26.3078  -19.3295   20.4176 H   0  0  0  0  0  0
  -25.3169  -18.0635   19.8491 H   0  0  0  0  0  0
  -33.3338  -15.5234   20.2125 H   0  0  0  0  0  0
  -32.1302  -16.3910   21.1790 H   0  0  0  0  0  0
  -26.0898  -16.4416   18.2179 H   0  0  0  0  0  0
  -26.9520  -17.0133   16.8720 H   0  0  0  0  0  0
  -28.3148  -21.5274   20.1654 H   0  0  0  0  0  0
  -26.6462  -21.4199   20.1859 H   0  0  0  0  0  0
  -26.3339  -23.7262   19.2384 H   0  0  0  0  0  0
  -27.8543  -23.7979   18.3971 H   0  0  0  0  0  0
  -30.8167  -14.5601   21.5096 H   0  0  0  0  0  0
  1 25  1  0  0  0
  1 30  2  0  0  0
  1 84  1  0  0  0
  2  3  1  0  0  0
  2 25  1  0  0  0
  2 87  1  0  0  0
  2 88  1  0  0  0
  3  4  1  0  0  0
  3 89  1  0  0  0
  3 90  1  0  0  0
  4  5  1  0  0  0
  4 91  1  0  0  0
  4 92  1  0  0  0
  5  6  1  0  0  0
  5 26  1  0  0  0
  5 93  1  0  0  0
  6 25  1  0  0  0
  6 94  1  0  0  0
  6 95  1  0  0  0
  7  8  2  0  0  0
  7 26  1  0  0  0
  7 29  1  0  0  0
  8  9  1  0  0  0
  8 22  1  0  0  0
  9 10  1  0  0  0
  9 27  2  0  0  0
 10 11  2  0  0  0
 10 15  1  0  0  0
 11 12  1  0  0  0
 11 96  1  0  0  0
 12 13  2  0  0  0
 12 97  1  0  0  0
 13 14  1  0  0  0
 13 31  1  0  0  0
 14 15  2  0  0  0
 14 98  1  0  0  0
 15 99  1  0  0  0
 16 17  2  0  0  0
 16 21  1  0  0  0
 16 31  1  0  0  0
 17 18  1  0  0  0
 17100  1  0  0  0
 18 19  2  0  0  0
 18101  1  0  0  0
 19 20  1  0  0  0
 19 24  1  0  0  0
 20 21  2  0  0  0
 20102  1  0  0  0
 21 23  1  0  0  0
 22 28  1  0  0  0
 22 32  2  0  0  0
 26 27  1  0  0  0
 28103  1  0  0  0
 28104  1  0  0  0
 29105  1  0  0  0
 29106  1  0  0  0
 33 34  1  0  0  0
 33 66  1  0  0  0
 33 70  2  0  0  0
 34 36  1  0  0  0
 34 59  1  0  0  0
 34107  1  0  0  0
 35 44  2  0  0  0
 35 45  1  0  0  0
 35 68  1  0  0  0
 36 56  1  0  0  0
 36108  1  0  0  0
 37 39  1  0  0  0
 37 47  1  0  0  0
 37 66  1  0  0  0
 37109  1  0  0  0
 38 43  2  0  0  0
 38 46  1  0  0  0
 38 47  1  0  0  0
 39 64  1  0  0  0
 39 67  2  0  0  0
 40 52  1  0  0  0
 40 53  2  0  0  0
 40 58  1  0  0  0
 41110  1  0  0  0
 41111  1  0  0  0
 41112  1  0  0  0
 41 48  1  0  0  0
 42 43  1  0  0  0
 42 66  1  0  0  0
 42113  1  0  0  0
 42114  1  0  0  0
 43 44  1  0  0  0
 44115  1  0  0  0
 45 46  2  0  0  0
 45116  1  0  0  0
 46117  1  0  0  0
 47118  1  0  0  0
 47119  1  0  0  0
 48 56  1  0  0  0
 48 65  1  0  0  0
 48120  1  0  0  0
 49 50  1  0  0  0
 49 53  1  0  0  0
 49 64  1  0  0  0
 49121  1  0  0  0
 50 51  1  0  0  0
 50122  1  0  0  0
 50123  1  0  0  0
 51 52  1  0  0  0
 51124  1  0  0  0
 51125  1  0  0  0
 52126  1  0  0  0
 52127  1  0  0  0
 53 54  1  0  0  0
 54 55  2  0  0  0
 54128  1  0  0  0
 55 57  1  0  0  0
 55129  1  0  0  0
 56 69  2  0  0  0
 57 58  2  0  0  0
 57130  1  0  0  0
 58131  1  0  0  0
 59 60  1  0  0  0
 59 61  1  0  0  0
 59 62  1  0  0  0
 60132  1  0  0  0
 60133  1  0  0  0
 60134  1  0  0  0
 61135  1  0  0  0
 61136  1  0  0  0
 61137  1  0  0  0
 62138  1  0  0  0
 62139  1  0  0  0
 62140  1  0  0  0
 63 65  1  0  0  0
 63141  1  0  0  0
 63142  1  0  0  0
 63143  1  0  0  0
 64144  1  0  0  0
 65145  1  0  0  0
 68 83  1  0  0  0
 71 72  2  0  0  0
 71 74  1  0  0  0
 71146  1  0  0  0
 72 75  1  0  0  0
 72147  1  0  0  0
 73 74  2  0  0  0
 73 76  1  0  0  0
 73148  1  0  0  0
 74 80  1  0  0  0
 75 76  2  0  0  0
 75 78  1  0  0  0
 76 81  1  0  0  0
 77 82  1  0  0  0
 77 85  1  0  0  0
 77 86  2  0  0  0
 78149  1  0  0  0
 78150  1  0  0  0
 78151  1  0  0  0
 79 85  1  0  0  0
 79152  1  0  0  0
 79153  1  0  0  0
 79154  1  0  0  0
 80 84  1  0  0  0
 80155  1  0  0  0
 80156  1  0  0  0
 81 85  1  0  0  0
 81157  1  0  0  0
 81158  1  0  0  0
 82 83  1  0  0  0
 82159  1  0  0  0
 82160  1  0  0  0
 83161  1  0  0  0
 83162  1  0  0  0
 84163  1  0  0  0
M  ISO  4   1 100  68 101  83 101  84 100
M  END
> <chiral flag>
0

> <version>
0

> <s_m_source_file>
/data/baiqing/PycharmProjects/Reinvent-master-3.2/result/LINK_invent/BTK/process_docking_weight1_custom_product_contain_oxygen_bond_distance_aromatic_linkinvent_7_9_3/rearranged_h_0054.sdf

> <i_m_source_file_index>
72

> <r_mmod_Potential_Energy-OPLS-2005>
17410.162109375

> <r_mmod_Stretch_Energy-OPLS-2005>
7863.5546875

> <r_mmod_Bend_Energy-OPLS-2005>
1176.3369140625

> <r_mmod_Torsional_Energy-OPLS-2005>
453.306732177734

> <r_mmod_Improper_Torsional_Energy-OPLS-2005>
78.9697341918945

> <r_mmod_Van_der_Waal_Energy-OPLS-2005>
3282.73315429688

> <r_mmod_Electrostatic_Energy-OPLS-2005>
-416.0234375

> <r_mmod_Solvation_Energy-OPLS-2005>
-254.907897949219

> <b_mmod_Minimization_Converged-OPLS-2005>
0

> <r_mmod_RMS_Derivative-OPLS-2005>
51.400634765625

$$$$
72
                    3D
 Structure written by MMmdl.
165174  0  0  1  0            999 V2000
  -30.6373  -14.4738   20.5266 C   0  0  0  0  0  0
  -30.4432  -12.2877   19.4062 C   0  0  0  0  0  0
  -29.4998  -12.4821   18.1965 C   0  0  0  0  0  0
  -28.0110  -12.3642   18.5966 C   0  0  0  0  0  0
  -27.6624  -13.1824   19.8697 C   0  0  2  0  0  0
  -28.7101  -12.9331   20.9820 C   0  0  0  0  0  0
  -25.2602  -13.8095   20.5614 C   0  0  0  0  0  0
  -24.1852  -13.0399   20.9152 C   0  0  0  0  0  0
  -24.6397  -11.6872   20.8782 C   0  0  0  0  0  0
  -23.9079  -10.4267   21.0457 C   0  0  0  0  0  0
  -24.3623   -9.4161   21.9225 C   0  0  0  0  0  0
  -23.6271   -8.2219   22.0782 C   0  0  0  0  0  0
  -22.4265   -8.0279   21.3569 C   0  0  0  0  0  0
  -21.9918   -9.0258   20.4680 C   0  0  0  0  0  0
  -22.7262  -10.2123   20.3090 C   0  0  0  0  0  0
  -21.6822   -6.0750   22.5296 C   0  0  0  0  0  0
  -21.4027   -6.5658   23.8231 C   0  0  0  0  0  0
  -21.3656   -5.6813   24.9191 C   0  0  0  0  0  0
  -21.6022   -4.3073   24.7239 C   0  0  0  0  0  0
  -21.8807   -3.8154   23.4362 C   0  0  0  0  0  0
  -21.9165   -4.6976   22.3414 C   0  0  0  0  0  0
  -22.7869  -13.5200   21.1790 C   0  0  0  0  0  0
  -22.1622   -4.2133   21.0991 F   0  0  0  0  0  0
  -21.5605   -3.4568   25.7765 F   0  0  0  0  0  0
  -30.0410  -13.2559   20.4290 N   0  0  0  0  0  0
  -26.3023  -12.9211   20.3318 N   0  0  0  0  0  0
  -25.9305  -11.6398   20.5804 N   0  0  0  0  0  0
  -22.0498  -12.8234   22.0380 N   0  0  0  0  0  0
  -25.4237  -15.1832   20.3997 N   0  0  0  0  0  0
  -31.7943  -14.7181   20.1706 O   0  0  0  0  0  0
  -21.6607   -6.8889   21.4266 O   0  0  0  0  0  0
  -22.3569  -14.5497   20.6611 O   0  0  0  0  0  0
  -24.6090  -31.8718   23.2094 C   0  0  0  0  0  0
  -25.8994  -32.4826   23.8388 C   0  0  1  0  0  0
  -27.2489  -27.4980   20.0858 C   0  0  0  0  0  0
  -25.5920  -33.8620   24.2362 N   0  0  0  0  0  0
  -23.3972  -30.4932   21.5470 C   0  0  2  0  0  0
  -24.8449  -28.9604   20.1119 C   0  0  0  0  0  0
  -22.7415  -29.4688   22.4991 C   0  0  0  0  0  0
  -18.0314  -28.1380   22.8512 C   0  0  0  0  0  0
  -24.1481  -36.7324   23.2621 C   0  0  0  0  0  0
  -25.9156  -30.8556   21.3502 C   0  0  0  0  0  0
  -25.9949  -29.4889   20.7137 C   0  0  0  0  0  0
  -27.1977  -28.7629   20.7050 C   0  0  0  0  0  0
  -26.0950  -26.9759   19.4696 C   0  0  0  0  0  0
  -24.8851  -27.7008   19.4885 C   0  0  0  0  0  0
  -23.6051  -29.8191   20.1620 C   0  0  0  0  0  0
  -25.4079  -36.3093   24.0321 C   0  0  1  0  0  0
  -20.5887  -28.3708   23.1370 C   0  0  2  0  0  0
  -20.6827  -26.9459   22.5469 C   0  0  0  0  0  0
  -19.5895  -26.6604   21.5146 C   0  0  0  0  0  0
  -18.2070  -26.7990   22.1514 C   0  0  0  0  0  0
  -19.1526  -28.8851   23.2967 C   0  0  0  0  0  0
  -18.9438  -30.1468   23.8940 C   0  0  0  0  0  0
  -17.6430  -30.6577   24.0559 C   0  0  0  0  0  0
  -25.9041  -34.9470   23.5139 C   0  0  0  0  0  0
  -16.5356  -29.9043   23.6311 C   0  0  0  0  0  0
  -16.7280  -28.6430   23.0347 C   0  0  0  0  0  0
  -26.4501  -31.6561   25.0688 C   0  0  0  0  0  0
  -25.3803  -31.3649   26.1471 C   0  0  0  0  0  0
  -27.0357  -30.3040   24.5982 C   0  0  0  0  0  0
  -27.6131  -32.4226   25.7447 C   0  0  0  0  0  0
  -27.5546  -37.1797   24.8468 C   0  0  0  0  0  0
  -21.4133  -29.3087   22.3758 N   0  0  0  0  0  0
  -26.4268  -37.3764   23.9425 N   0  0  0  0  0  0
  -24.6578  -31.0918   22.0943 N   0  0  0  0  0  0
  -23.4203  -28.8144   23.2940 O   0  0  0  0  0  0
  -28.3999  -26.7542   20.0531 O   0  0  0  0  0  0
  -26.5590  -34.8920   22.4684 O   0  0  0  0  0  0
  -23.5295  -32.1444   23.7525 O   0  0  0  0  0  0
  -30.1397  -18.6559   22.5358 C   0  0  0  0  0  0
  -30.4427  -17.3505   22.1031 C   0  0  0  0  0  0
  -28.7510  -20.6517   22.4313 C   0  0  0  0  0  0
  -27.2014  -20.9814   20.5868 C   0  0  0  0  0  0
  -29.1675  -19.4228   21.8641 C   0  0  0  0  0  0
  -28.5830  -18.9455   20.6552 C   0  0  0  0  0  0
  -27.7576  -21.4251   21.7964 C   0  0  0  0  0  0
  -28.9725  -17.6583   20.1645 C   0  0  0  0  0  0
  -29.8056  -16.8308   20.9615 C   0  0  0  0  0  0
  -27.5952  -19.7529   20.0269 C   0  0  0  0  0  0
  -27.2638  -22.6646   22.3849 C   0  0  0  0  0  0
  -28.4987  -17.1158   18.8151 C   0  0  0  0  0  0
  -29.7175  -25.2701   21.4119 C   0  0  0  0  0  0
  -28.7833  -24.1075   21.0117 C   0  0  0  0  0  0
  -29.0855  -26.6611   21.3004 C   0  0  0  0  0  0
  -26.3194  -22.6090   23.3155 N   0  0  0  0  0  0
  -29.7292  -15.4258   20.7847 N   0  0  0  0  0  0
  -27.7073  -23.8679   21.9934 N   0  3  0  0  0  0
  -26.9431  -19.3627   18.9061 F   0  0  0  0  0  0
  -31.4836  -12.4234   19.1020 H   0  0  0  0  0  0
  -30.3706  -11.2697   19.7969 H   0  0  0  0  0  0
  -29.7393  -11.7507   17.4244 H   0  0  0  0  0  0
  -29.6730  -13.4617   17.7469 H   0  0  0  0  0  0
  -27.7892  -11.3059   18.7562 H   0  0  0  0  0  0
  -27.3812  -12.6850   17.7622 H   0  0  0  0  0  0
  -27.7031  -14.2294   19.5766 H   0  0  0  0  0  0
  -28.6902  -11.8893   21.3044 H   0  0  0  0  0  0
  -28.4782  -13.5145   21.8754 H   0  0  0  0  0  0
  -25.2793   -9.5584   22.4780 H   0  0  0  0  0  0
  -23.9946   -7.4611   22.7517 H   0  0  0  0  0  0
  -21.0826   -8.8809   19.9000 H   0  0  0  0  0  0
  -22.3764  -10.9664   19.6182 H   0  0  0  0  0  0
  -21.2075   -7.6166   23.9734 H   0  0  0  0  0  0
  -21.1477   -6.0550   25.9085 H   0  0  0  0  0  0
  -22.0587   -2.7605   23.2876 H   0  0  0  0  0  0
  -22.4052  -11.9894   22.4811 H   0  0  0  0  0  0
  -21.1130  -13.1307   22.2561 H   0  0  0  0  0  0
  -24.6528  -15.8268   20.5466 H   0  0  0  0  0  0
  -26.2540  -15.6474   20.0593 H   0  0  0  0  0  0
  -26.7041  -32.5634   23.1129 H   0  0  0  0  0  0
  -25.0195  -33.9803   25.0594 H   0  0  0  0  0  0
  -22.6796  -31.3027   21.4021 H   0  0  0  0  0  0
  -23.3718  -35.9698   23.3316 H   0  0  0  0  0  0
  -24.3596  -36.8897   22.2038 H   0  0  0  0  0  0
  -23.7253  -37.6532   23.6641 H   0  0  0  0  0  0
  -26.0165  -31.5982   20.5592 H   0  0  0  0  0  0
  -26.8115  -30.9351   21.9501 H   0  0  0  0  0  0
  -28.0878  -29.1871   21.1490 H   0  0  0  0  0  0
  -26.1320  -26.0123   18.9824 H   0  0  0  0  0  0
  -24.0059  -27.2881   19.0183 H   0  0  0  0  0  0
  -23.7028  -30.5983   19.4076 H   0  0  0  0  0  0
  -22.7382  -29.2234   19.8710 H   0  0  0  0  0  0
  -25.1201  -36.1955   25.0793 H   0  0  0  0  0  0
  -21.0028  -28.3302   24.1484 H   0  0  0  0  0  0
  -20.5708  -26.2333   23.3681 H   0  0  0  0  0  0
  -21.6716  -26.7572   22.1321 H   0  0  0  0  0  0
  -19.7125  -25.6627   21.0958 H   0  0  0  0  0  0
  -19.6912  -27.3568   20.6763 H   0  0  0  0  0  0
  -17.4388  -26.6676   21.3875 H   0  0  0  0  0  0
  -18.0516  -25.9990   22.8798 H   0  0  0  0  0  0
  -19.7908  -30.7317   24.2272 H   0  0  0  0  0  0
  -17.4950  -31.6256   24.5120 H   0  0  0  0  0  0
  -15.5324  -30.2922   23.7572 H   0  0  0  0  0  0
  -15.8697  -28.0732   22.7026 H   0  0  0  0  0  0
  -24.5998  -30.6956   25.7830 H   0  0  0  0  0  0
  -24.8991  -32.2825   26.4906 H   0  0  0  0  0  0
  -25.8195  -30.8841   27.0230 H   0  0  0  0  0  0
  -26.2894  -29.6772   24.1117 H   0  0  0  0  0  0
  -27.4300  -29.7264   25.4353 H   0  0  0  0  0  0
  -27.8618  -30.4429   23.8999 H   0  0  0  0  0  0
  -27.2813  -33.3513   26.2099 H   0  0  0  0  0  0
  -28.3947  -32.6768   25.0274 H   0  0  0  0  0  0
  -28.0843  -31.8301   26.5305 H   0  0  0  0  0  0
  -28.2554  -38.0096   24.7442 H   0  0  0  0  0  0
  -28.1017  -36.2600   24.6323 H   0  0  0  0  0  0
  -27.2326  -37.1477   25.8896 H   0  0  0  0  0  0
  -20.9167  -29.8964   21.7198 H   0  0  0  0  0  0
  -26.0145  -38.2844   24.1409 H   0  0  0  0  0  0
  -30.5971  -19.0311   23.4398 H   0  0  0  0  0  0
  -31.0898  -16.7270   22.7019 H   0  0  0  0  0  0
  -29.1651  -20.9977   23.3700 H   0  0  0  0  0  0
  -26.4281  -21.5586   20.0961 H   0  0  0  0  0  0
  -27.5416  -16.6015   18.8986 H   0  0  0  0  0  0
  -29.2200  -16.4091   18.4006 H   0  0  0  0  0  0
  -28.4306  -17.8984   18.0606 H   0  0  0  0  0  0
  -30.5898  -25.2329   20.7608 H   0  0  0  0  0  0
  -30.0900  -25.1223   22.4279 H   0  0  0  0  0  0
  -29.4068  -23.2200   20.8969 H   0  0  0  0  0  0
  -28.3323  -24.2733   20.0331 H   0  0  0  0  0  0
  -29.8519  -27.4357   21.3626 H   0  0  0  0  0  0
  -28.4062  -26.8124   22.1424 H   0  0  0  0  0  0
  -25.9724  -21.7062   23.6098 H   0  0  0  0  0  0
  -25.9028  -23.4270   23.7308 H   0  0  0  0  0  0
  -28.7976  -15.0409   20.8443 H   0  0  0  0  0  0
  -27.1419  -24.6722   22.2212 H   0  0  0  0  0  0
  1 25  1  0  0  0
  1 30  2  0  0  0
  1 87  1  0  0  0
  2  3  1  0  0  0
  2 25  1  0  0  0
  2 90  1  0  0  0
  2 91  1  0  0  0
  3  4  1  0  0  0
  3 92  1  0  0  0
  3 93  1  0  0  0
  4  5  1  0  0  0
  4 94  1  0  0  0
  4 95  1  0  0  0
  5  6  1  0  0  0
  5 26  1  0  0  0
  5 96  1  0  0  0
  6 25  1  0  0  0
  6 97  1  0  0  0
  6 98  1  0  0  0
  7  8  2  0  0  0
  7 26  1  0  0  0
  7 29  1  0  0  0
  8  9  1  0  0  0
  8 22  1  0  0  0
  9 10  1  0  0  0
  9 27  2  0  0  0
 10 11  2  0  0  0
 10 15  1  0  0  0
 11 12  1  0  0  0
 11 99  1  0  0  0
 12 13  2  0  0  0
 12100  1  0  0  0
 13 14  1  0  0  0
 13 31  1  0  0  0
 14 15  2  0  0  0
 14101  1  0  0  0
 15102  1  0  0  0
 16 17  2  0  0  0
 16 21  1  0  0  0
 16 31  1  0  0  0
 17 18  1  0  0  0
 17103  1  0  0  0
 18 19  2  0  0  0
 18104  1  0  0  0
 19 20  1  0  0  0
 19 24  1  0  0  0
 20 21  2  0  0  0
 20105  1  0  0  0
 21 23  1  0  0  0
 22 28  1  0  0  0
 22 32  2  0  0  0
 26 27  1  0  0  0
 28106  1  0  0  0
 28107  1  0  0  0
 29108  1  0  0  0
 29109  1  0  0  0
 33 34  1  0  0  0
 33 66  1  0  0  0
 33 70  2  0  0  0
 34 36  1  0  0  0
 34 59  1  0  0  0
 34110  1  0  0  0
 35 44  2  0  0  0
 35 45  1  0  0  0
 35 68  1  0  0  0
 36 56  1  0  0  0
 36111  1  0  0  0
 37 39  1  0  0  0
 37 47  1  0  0  0
 37 66  1  0  0  0
 37112  1  0  0  0
 38 43  2  0  0  0
 38 46  1  0  0  0
 38 47  1  0  0  0
 39 64  1  0  0  0
 39 67  2  0  0  0
 40 52  1  0  0  0
 40 53  2  0  0  0
 40 58  1  0  0  0
 41113  1  0  0  0
 41114  1  0  0  0
 41115  1  0  0  0
 41 48  1  0  0  0
 42 43  1  0  0  0
 42 66  1  0  0  0
 42116  1  0  0  0
 42117  1  0  0  0
 43 44  1  0  0  0
 44118  1  0  0  0
 45 46  2  0  0  0
 45119  1  0  0  0
 46120  1  0  0  0
 47121  1  0  0  0
 47122  1  0  0  0
 48 56  1  0  0  0
 48 65  1  0  0  0
 48123  1  0  0  0
 49 50  1  0  0  0
 49 53  1  0  0  0
 49 64  1  0  0  0
 49124  1  0  0  0
 50 51  1  0  0  0
 50125  1  0  0  0
 50126  1  0  0  0
 51 52  1  0  0  0
 51127  1  0  0  0
 51128  1  0  0  0
 52129  1  0  0  0
 52130  1  0  0  0
 53 54  1  0  0  0
 54 55  2  0  0  0
 54131  1  0  0  0
 55 57  1  0  0  0
 55132  1  0  0  0
 56 69  2  0  0  0
 57 58  2  0  0  0
 57133  1  0  0  0
 58134  1  0  0  0
 59 60  1  0  0  0
 59 61  1  0  0  0
 59 62  1  0  0  0
 60135  1  0  0  0
 60136  1  0  0  0
 60137  1  0  0  0
 61138  1  0  0  0
 61139  1  0  0  0
 61140  1  0  0  0
 62141  1  0  0  0
 62142  1  0  0  0
 62143  1  0  0  0
 63 65  1  0  0  0
 63144  1  0  0  0
 63145  1  0  0  0
 63146  1  0  0  0
 64147  1  0  0  0
 65148  1  0  0  0
 68 85  1  0  0  0
 71 72  2  0  0  0
 71 75  1  0  0  0
 71149  1  0  0  0
 72 79  1  0  0  0
 72150  1  0  0  0
 73 75  2  0  0  0
 73 77  1  0  0  0
 73151  1  0  0  0
 74 77  2  0  0  0
 74 80  1  0  0  0
 74152  1  0  0  0
 75 76  1  0  0  0
 76 78  1  0  0  0
 76 80  2  0  0  0
 77 81  1  0  0  0
 78 79  2  0  0  0
 78 82  1  0  0  0
 79 87  1  0  0  0
 80 89  1  0  0  0
 81 86  1  0  0  0
 81 88  2  0  0  0
 82153  1  0  0  0
 82154  1  0  0  0
 82155  1  0  0  0
 83 84  1  0  0  0
 83 85  1  0  0  0
 83156  1  0  0  0
 83157  1  0  0  0
 84 88  1  0  0  0
 84158  1  0  0  0
 84159  1  0  0  0
 85160  1  0  0  0
 85161  1  0  0  0
 86162  1  0  0  0
 86163  1  0  0  0
 87164  1  0  0  0
 88165  1  0  0  0
M  CHG  1  88   1
M  ISO  4   1 100  68 101  85 101  87 100
M  END
> <chiral flag>
0

> <version>
0

> <s_m_source_file>
/data/baiqing/PycharmProjects/Reinvent-master-3.2/result/LINK_invent/BTK/process_docking_weight1_custom_product_contain_oxygen_bond_distance_aromatic_linkinvent_7_9_3/rearranged_h_0054.sdf

> <i_m_source_file_index>
73

> <r_mmod_Potential_Energy-OPLS-2005>
-196.691284179688

> <r_mmod_Stretch_Energy-OPLS-2005>
36.7773361206055

> <r_mmod_Bend_Energy-OPLS-2005>
103.97289276123

> <r_mmod_Torsional_Energy-OPLS-2005>
300.805480957031

> <r_mmod_Improper_Torsional_Energy-OPLS-2005>
10.0062818527222

> <r_mmod_Van_der_Waal_Energy-OPLS-2005>
171.480407714844

> <r_mmod_Electrostatic_Energy-OPLS-2005>
-424.720123291016

> <r_mmod_Solvation_Energy-OPLS-2005>
-408.514617919922

> <b_mmod_Minimization_Converged-OPLS-2005>
0

> <r_mmod_RMS_Derivative-OPLS-2005>
6.69828748703003

$$$$
73
                    3D
 Structure written by MMmdl.
166175  0  0  1  0            999 V2000
  -30.7066  -14.6829   20.5547 C   0  0  0  0  0  0
  -30.4419  -12.4548   19.4763 C   0  0  0  0  0  0
  -29.5039  -12.4953   18.2516 C   0  0  0  0  0  0
  -28.0480  -12.2875   18.6974 C   0  0  0  0  0  0
  -27.6505  -13.2240   19.8643 C   0  0  2  0  0  0
  -28.6974  -13.1875   21.0012 C   0  0  0  0  0  0
  -25.2558  -13.8222   20.5759 C   0  0  0  0  0  0
  -24.1828  -13.0491   20.9257 C   0  0  0  0  0  0
  -24.6393  -11.6946   20.8807 C   0  0  0  0  0  0
  -23.9045  -10.4321   21.0435 C   0  0  0  0  0  0
  -24.3599   -9.4221   21.9185 C   0  0  0  0  0  0
  -23.6287   -8.2231   22.0739 C   0  0  0  0  0  0
  -22.4268   -8.0266   21.3522 C   0  0  0  0  0  0
  -21.9895   -9.0258   20.4649 C   0  0  0  0  0  0
  -22.7213  -10.2152   20.3085 C   0  0  0  0  0  0
  -21.6830   -6.0735   22.5263 C   0  0  0  0  0  0
  -21.4002   -6.5637   23.8194 C   0  0  0  0  0  0
  -21.3680   -5.6790   24.9158 C   0  0  0  0  0  0
  -21.6039   -4.3045   24.7214 C   0  0  0  0  0  0
  -21.8827   -3.8145   23.4333 C   0  0  0  0  0  0
  -21.9189   -4.6970   22.3392 C   0  0  0  0  0  0
  -22.7847  -13.5275   21.1897 C   0  0  0  0  0  0
  -22.1663   -4.2152   21.0973 F   0  0  0  0  0  0
  -21.5652   -3.4538   25.7736 F   0  0  0  0  0  0
  -30.0093  -13.5096   20.4195 N   0  0  0  0  0  0
  -26.2992  -12.9390   20.3400 N   0  0  0  0  0  0
  -25.9332  -11.6554   20.5881 N   0  0  0  0  0  0
  -22.0483  -12.8258   22.0458 N   0  0  0  0  0  0
  -25.4331  -15.1928   20.4170 N   0  0  0  0  0  0
  -31.8722  -14.7550   20.1540 O   0  0  0  0  0  0
  -21.6624   -6.8867   21.4216 O   0  0  0  0  0  0
  -22.3504  -14.5575   20.6746 O   0  0  0  0  0  0
  -24.6225  -31.8583   23.2202 C   0  0  0  0  0  0
  -25.9097  -32.4823   23.8450 C   0  0  1  0  0  0
  -27.2054  -27.3150   20.1038 C   0  0  0  0  0  0
  -25.5908  -33.8635   24.2306 N   0  0  0  0  0  0
  -23.4230  -30.4909   21.5621 C   0  0  2  0  0  0
  -24.8615  -28.9559   20.1219 C   0  0  0  0  0  0
  -22.7434  -29.4655   22.4967 C   0  0  0  0  0  0
  -18.0243  -28.1413   22.8449 C   0  0  0  0  0  0
  -24.1496  -36.7326   23.2597 C   0  0  0  0  0  0
  -25.9666  -30.7771   21.4113 C   0  0  0  0  0  0
  -26.0325  -29.4071   20.7479 C   0  0  0  0  0  0
  -27.2067  -28.5935   20.7439 C   0  0  0  0  0  0
  -26.0258  -26.9546   19.4289 C   0  0  0  0  0  0
  -24.8600  -27.7305   19.4514 C   0  0  0  0  0  0
  -23.6352  -29.8380   20.1758 C   0  0  0  0  0  0
  -25.4114  -36.3081   24.0267 C   0  0  1  0  0  0
  -20.5830  -28.3735   23.1248 C   0  0  2  0  0  0
  -20.6726  -26.9446   22.5439 C   0  0  0  0  0  0
  -19.5740  -26.6367   21.5239 C   0  0  0  0  0  0
  -18.1885  -26.7934   22.1602 C   0  0  0  0  0  0
  -19.1505  -28.8862   23.2840 C   0  0  0  0  0  0
  -18.9416  -30.1421   23.8931 C   0  0  0  0  0  0
  -17.6442  -30.6619   24.0554 C   0  0  0  0  0  0
  -25.9041  -34.9444   23.5069 C   0  0  0  0  0  0
  -16.5336  -29.9128   23.6321 C   0  0  0  0  0  0
  -16.7216  -28.6521   23.0368 C   0  0  0  0  0  0
  -26.4524  -31.6638   25.0865 C   0  0  0  0  0  0
  -25.3781  -31.3796   26.1609 C   0  0  0  0  0  0
  -27.0381  -30.3009   24.6455 C   0  0  0  0  0  0
  -27.6046  -32.4454   25.7648 C   0  0  0  0  0  0
  -27.5576  -37.1818   24.8422 C   0  0  0  0  0  0
  -21.4145  -29.3096   22.3613 N   0  0  0  0  0  0
  -26.4301  -37.3754   23.9369 N   0  0  0  0  0  0
  -24.6894  -31.0568   22.1206 N   0  0  0  0  0  0
  -23.4103  -28.8150   23.3060 O   0  0  0  0  0  0
  -28.3214  -26.4770   20.0157 O   0  0  0  0  0  0
  -26.5640  -34.8884   22.4660 O   0  0  0  0  0  0
  -23.5393  -32.1492   23.7427 O   0  0  0  0  0  0
  -26.8530  -23.7804   18.7736 C   0  0  0  0  0  0
  -26.3070  -23.8124   17.6872 C   0  0  0  0  0  0
  -32.2591  -18.8065   21.7221 C   0  0  0  0  0  0
  -31.8492  -17.4973   21.3976 C   0  0  0  0  0  0
  -29.5881  -18.3199   21.2001 C   0  0  0  0  0  0
  -31.3577  -19.8889   21.8271 C   0  0  0  0  0  0
  -29.9813  -19.6827   21.5038 C   0  0  0  0  0  0
  -30.4906  -17.1972   21.1566 C   0  0  0  0  0  0
  -27.4291  -22.6706   20.9712 C   0  0  0  0  0  0
  -29.6989  -24.3988   20.3568 C   0  0  0  0  0  0
  -29.7117  -22.8223   20.2548 C   0  0  0  0  0  0
  -27.2052  -24.0134   20.1972 C   0  0  1  0  0  0
  -28.3062  -25.0803   20.5325 C   0  0  2  0  0  0
  -25.4839  -24.1157   16.4963 C   0  0  0  0  0  0
  -31.9265  -21.1738   22.4481 C   0  0  0  0  0  0
  -28.8716  -20.7792   21.7454 C   0  0  0  0  0  0
  -28.6714  -22.1035   21.0146 N   0  0  0  0  0  0
  -30.0252  -15.8108   20.9536 N   0  0  0  0  0  0
  -26.4526  -22.1631   21.5268 O   0  0  0  0  0  0
  -31.4722  -12.5965   19.1420 H   0  0  0  0  0  0
  -30.4170  -11.4895   19.9810 H   0  0  0  0  0  0
  -29.7966  -11.7186   17.5451 H   0  0  0  0  0  0
  -29.5937  -13.4496   17.7295 H   0  0  0  0  0  0
  -27.9613  -11.2516   19.0271 H   0  0  0  0  0  0
  -27.3589  -12.4030   17.8594 H   0  0  0  0  0  0
  -27.6431  -14.2344   19.4525 H   0  0  0  0  0  0
  -28.7333  -12.2141   21.4880 H   0  0  0  0  0  0
  -28.4320  -13.9072   21.7765 H   0  0  0  0  0  0
  -25.2751   -9.5701   22.4749 H   0  0  0  0  0  0
  -24.0021   -7.4619   22.7460 H   0  0  0  0  0  0
  -21.0806   -8.8769   19.8965 H   0  0  0  0  0  0
  -22.3637  -10.9697   19.6211 H   0  0  0  0  0  0
  -21.1963   -7.6140   23.9692 H   0  0  0  0  0  0
  -21.1510   -6.0522   25.9057 H   0  0  0  0  0  0
  -22.0594   -2.7613   23.2819 H   0  0  0  0  0  0
  -22.4115  -11.9948   22.4874 H   0  0  0  0  0  0
  -21.1138  -13.1318   22.2770 H   0  0  0  0  0  0
  -24.6737  -15.8615   20.5072 H   0  0  0  0  0  0
  -26.2962  -15.6133   20.0909 H   0  0  0  0  0  0
  -26.7159  -32.5551   23.1183 H   0  0  0  0  0  0
  -25.0028  -33.9772   25.0428 H   0  0  0  0  0  0
  -22.7257  -31.3115   21.4227 H   0  0  0  0  0  0
  -23.3753  -35.9682   23.3267 H   0  0  0  0  0  0
  -24.3553  -36.9004   22.2014 H   0  0  0  0  0  0
  -23.7276  -37.6533   23.6661 H   0  0  0  0  0  0
  -26.1109  -31.5445   20.6506 H   0  0  0  0  0  0
  -26.8391  -30.8181   22.0545 H   0  0  0  0  0  0
  -28.1051  -28.9317   21.2386 H   0  0  0  0  0  0
  -25.9903  -26.0963   18.7997 H   0  0  0  0  0  0
  -23.9779  -27.4066   18.9145 H   0  0  0  0  0  0
  -23.7585  -30.6198   19.4295 H   0  0  0  0  0  0
  -22.7485  -29.2798   19.8699 H   0  0  0  0  0  0
  -25.1287  -36.1942   25.0757 H   0  0  0  0  0  0
  -20.9911  -28.3358   24.1366 H   0  0  0  0  0  0
  -20.5580  -26.2366   23.3641 H   0  0  0  0  0  0
  -21.6601  -26.7443   22.1279 H   0  0  0  0  0  0
  -19.6954  -25.6281   21.1251 H   0  0  0  0  0  0
  -19.6699  -27.3171   20.6786 H   0  0  0  0  0  0
  -17.4128  -26.6602   21.4025 H   0  0  0  0  0  0
  -18.0324  -26.0142   22.9057 H   0  0  0  0  0  0
  -19.7911  -30.7163   24.2404 H   0  0  0  0  0  0
  -17.5043  -31.6308   24.5114 H   0  0  0  0  0  0
  -15.5359  -30.3054   23.7639 H   0  0  0  0  0  0
  -15.8596  -28.0815   22.7189 H   0  0  0  0  0  0
  -24.5807  -30.7362   25.7865 H   0  0  0  0  0  0
  -24.9168  -32.3002   26.5156 H   0  0  0  0  0  0
  -25.8067  -30.8753   27.0284 H   0  0  0  0  0  0
  -26.2929  -29.6741   24.1523 H   0  0  0  0  0  0
  -27.4065  -29.7289   25.4999 H   0  0  0  0  0  0
  -27.8855  -30.4264   23.9739 H   0  0  0  0  0  0
  -27.2517  -33.3681   26.2235 H   0  0  0  0  0  0
  -28.3844  -32.7161   25.0537 H   0  0  0  0  0  0
  -28.0826  -31.8677   26.5562 H   0  0  0  0  0  0
  -28.2552  -38.0155   24.7394 H   0  0  0  0  0  0
  -28.1083  -36.2642   24.6285 H   0  0  0  0  0  0
  -27.2264  -37.1491   25.8822 H   0  0  0  0  0  0
  -20.9296  -29.8845   21.6817 H   0  0  0  0  0  0
  -26.0196  -38.2831   24.1412 H   0  0  0  0  0  0
  -33.2998  -18.9665   21.9652 H   0  0  0  0  0  0
  -32.6042  -16.7238   21.4016 H   0  0  0  0  0  0
  -28.5368  -18.1211   21.0456 H   0  0  0  0  0  0
  -30.1930  -24.7696   19.4594 H   0  0  0  0  0  0
  -30.3247  -24.7420   21.1860 H   0  0  0  0  0  0
  -30.7057  -22.4728   20.4175 H   0  0  0  0  0  0
  -29.5752  -22.5073   19.2256 H   0  0  0  0  0  0
  -26.2706  -24.4044   20.5976 H   0  0  0  0  0  0
  -28.1920  -25.2241   21.6097 H   0  0  0  0  0  0
  -25.8215  -23.5427   15.6364 H   0  0  0  0  0  0
  -25.5613  -25.1809   16.2662 H   0  0  0  0  0  0
  -24.4306  -23.8893   16.6799 H   0  0  0  0  0  0
  -33.0108  -21.1156   22.5496 H   0  0  0  0  0  0
  -31.5062  -21.3612   23.4340 H   0  0  0  0  0  0
  -31.8136  -22.0888   21.9022 H   0  0  0  0  0  0
  -28.9105  -21.0464   22.8017 H   0  0  0  0  0  0
  -27.9401  -20.2207   21.6244 H   0  0  0  0  0  0
  -29.0396  -15.6532   21.0914 H   0  0  0  0  0  0
  1 25  1  0  0  0
  1 30  2  0  0  0
  1 88  1  0  0  0
  2  3  1  0  0  0
  2 25  1  0  0  0
  2 90  1  0  0  0
  2 91  1  0  0  0
  3  4  1  0  0  0
  3 92  1  0  0  0
  3 93  1  0  0  0
  4  5  1  0  0  0
  4 94  1  0  0  0
  4 95  1  0  0  0
  5  6  1  0  0  0
  5 26  1  0  0  0
  5 96  1  0  0  0
  6 25  1  0  0  0
  6 97  1  0  0  0
  6 98  1  0  0  0
  7  8  2  0  0  0
  7 26  1  0  0  0
  7 29  1  0  0  0
  8  9  1  0  0  0
  8 22  1  0  0  0
  9 10  1  0  0  0
  9 27  2  0  0  0
 10 11  2  0  0  0
 10 15  1  0  0  0
 11 12  1  0  0  0
 11 99  1  0  0  0
 12 13  2  0  0  0
 12100  1  0  0  0
 13 14  1  0  0  0
 13 31  1  0  0  0
 14 15  2  0  0  0
 14101  1  0  0  0
 15102  1  0  0  0
 16 17  2  0  0  0
 16 21  1  0  0  0
 16 31  1  0  0  0
 17 18  1  0  0  0
 17103  1  0  0  0
 18 19  2  0  0  0
 18104  1  0  0  0
 19 20  1  0  0  0
 19 24  1  0  0  0
 20 21  2  0  0  0
 20105  1  0  0  0
 21 23  1  0  0  0
 22 28  1  0  0  0
 22 32  2  0  0  0
 26 27  1  0  0  0
 28106  1  0  0  0
 28107  1  0  0  0
 29108  1  0  0  0
 29109  1  0  0  0
 33 34  1  0  0  0
 33 66  1  0  0  0
 33 70  2  0  0  0
 34 36  1  0  0  0
 34 59  1  0  0  0
 34110  1  0  0  0
 35 44  2  0  0  0
 35 45  1  0  0  0
 35 68  1  0  0  0
 36 56  1  0  0  0
 36111  1  0  0  0
 37 39  1  0  0  0
 37 47  1  0  0  0
 37 66  1  0  0  0
 37112  1  0  0  0
 38 43  2  0  0  0
 38 46  1  0  0  0
 38 47  1  0  0  0
 39 64  1  0  0  0
 39 67  2  0  0  0
 40 52  1  0  0  0
 40 53  2  0  0  0
 40 58  1  0  0  0
 41113  1  0  0  0
 41114  1  0  0  0
 41115  1  0  0  0
 41 48  1  0  0  0
 42 43  1  0  0  0
 42 66  1  0  0  0
 42116  1  0  0  0
 42117  1  0  0  0
 43 44  1  0  0  0
 44118  1  0  0  0
 45 46  2  0  0  0
 45119  1  0  0  0
 46120  1  0  0  0
 47121  1  0  0  0
 47122  1  0  0  0
 48 56  1  0  0  0
 48 65  1  0  0  0
 48123  1  0  0  0
 49 50  1  0  0  0
 49 53  1  0  0  0
 49 64  1  0  0  0
 49124  1  0  0  0
 50 51  1  0  0  0
 50125  1  0  0  0
 50126  1  0  0  0
 51 52  1  0  0  0
 51127  1  0  0  0
 51128  1  0  0  0
 52129  1  0  0  0
 52130  1  0  0  0
 53 54  1  0  0  0
 54 55  2  0  0  0
 54131  1  0  0  0
 55 57  1  0  0  0
 55132  1  0  0  0
 56 69  2  0  0  0
 57 58  2  0  0  0
 57133  1  0  0  0
 58134  1  0  0  0
 59 60  1  0  0  0
 59 61  1  0  0  0
 59 62  1  0  0  0
 60135  1  0  0  0
 60136  1  0  0  0
 60137  1  0  0  0
 61138  1  0  0  0
 61139  1  0  0  0
 61140  1  0  0  0
 62141  1  0  0  0
 62142  1  0  0  0
 62143  1  0  0  0
 63 65  1  0  0  0
 63144  1  0  0  0
 63145  1  0  0  0
 63146  1  0  0  0
 64147  1  0  0  0
 65148  1  0  0  0
 68 83  1  0  0  0
 71 72  3  0  0  0
 71 82  1  0  0  0
 72 84  1  0  0  0
 73 74  2  0  0  0
 73 76  1  0  0  0
 73149  1  0  0  0
 74 78  1  0  0  0
 74150  1  0  0  0
 75 77  1  0  0  0
 75 78  2  0  0  0
 75151  1  0  0  0
 76 77  2  0  0  0
 76 85  1  0  0  0
 77 86  1  0  0  0
 78 88  1  0  0  0
 79 82  1  0  0  0
 79 87  1  0  0  0
 79 89  2  0  0  0
 80 81  1  0  0  0
 80 83  1  0  0  0
 80152  1  0  0  0
 80153  1  0  0  0
 81 87  1  0  0  0
 81154  1  0  0  0
 81155  1  0  0  0
 82 83  1  0  0  0
 82156  1  0  0  0
 83157  1  0  0  0
 84158  1  0  0  0
 84159  1  0  0  0
 84160  1  0  0  0
 85161  1  0  0  0
 85162  1  0  0  0
 85163  1  0  0  0
 86 87  1  0  0  0
 86164  1  0  0  0
 86165  1  0  0  0
 88166  1  0  0  0
M  ISO  4   1 100  68 101  83 101  88 100
M  END
> <chiral flag>
0

> <version>
0

> <s_m_source_file>
/data/baiqing/PycharmProjects/Reinvent-master-3.2/result/LINK_invent/BTK/process_docking_weight1_custom_product_contain_oxygen_bond_distance_aromatic_linkinvent_7_9_3/rearranged_h_0054.sdf

> <i_m_source_file_index>
74

> <r_mmod_Potential_Energy-OPLS-2005>
219.385025024414

> <r_mmod_Stretch_Energy-OPLS-2005>
95.6102676391602

> <r_mmod_Bend_Energy-OPLS-2005>
220.692169189453

> <r_mmod_Torsional_Energy-OPLS-2005>
272.146087646484

> <r_mmod_Improper_Torsional_Energy-OPLS-2005>
6.899489402771

> <r_mmod_Van_der_Waal_Energy-OPLS-2005>
175.875289916992

> <r_mmod_Electrostatic_Energy-OPLS-2005>
-393.73779296875

> <r_mmod_Solvation_Energy-OPLS-2005>
-220.75373840332

> <b_mmod_Minimization_Converged-OPLS-2005>
0

> <r_mmod_RMS_Derivative-OPLS-2005>
10.6133804321289

$$$$
74
                    3D
 Structure written by MMmdl.
152160  0  0  1  0            999 V2000
  -30.6350  -14.7260   20.3832 C   0  0  0  0  0  0
  -30.4328  -12.4198   19.4786 C   0  0  0  0  0  0
  -29.5121  -12.4348   18.2382 C   0  0  0  0  0  0
  -28.0314  -12.2948   18.6511 C   0  0  0  0  0  0
  -27.6302  -13.2098   19.8394 C   0  0  2  0  0  0
  -28.6845  -13.2026   20.9647 C   0  0  0  0  0  0
  -25.2519  -13.8128   20.5739 C   0  0  0  0  0  0
  -24.1784  -13.0407   20.9229 C   0  0  0  0  0  0
  -24.6349  -11.6876   20.8779 C   0  0  0  0  0  0
  -23.9024  -10.4270   21.0427 C   0  0  0  0  0  0
  -24.3588   -9.4187   21.9197 C   0  0  0  0  0  0
  -23.6272   -8.2221   22.0756 C   0  0  0  0  0  0
  -22.4255   -8.0263   21.3542 C   0  0  0  0  0  0
  -21.9884   -9.0235   20.4646 C   0  0  0  0  0  0
  -22.7205  -10.2118   20.3064 C   0  0  0  0  0  0
  -21.6844   -6.0720   22.5275 C   0  0  0  0  0  0
  -21.4006   -6.5629   23.8207 C   0  0  0  0  0  0
  -21.3657   -5.6785   24.9171 C   0  0  0  0  0  0
  -21.6045   -4.3049   24.7225 C   0  0  0  0  0  0
  -21.8821   -3.8137   23.4347 C   0  0  0  0  0  0
  -21.9191   -4.6950   22.3401 C   0  0  0  0  0  0
  -22.7814  -13.5218   21.1878 C   0  0  0  0  0  0
  -22.1664   -4.2137   21.0979 F   0  0  0  0  0  0
  -21.5633   -3.4535   25.7740 F   0  0  0  0  0  0
  -29.9925  -13.5094   20.3737 N   0  0  0  0  0  0
  -26.2897  -12.9265   20.3313 N   0  0  0  0  0  0
  -25.9271  -11.6441   20.5806 N   0  0  0  0  0  0
  -22.0451  -12.8217   22.0433 N   0  0  0  0  0  0
  -25.4265  -15.1854   20.4184 N   0  0  0  0  0  0
  -31.8590  -14.7754   20.2480 O   0  0  0  0  0  0
  -21.6628   -6.8857   21.4234 O   0  0  0  0  0  0
  -22.3511  -14.5527   20.6720 O   0  0  0  0  0  0
  -24.6269  -31.8586   23.2007 C   0  0  0  0  0  0
  -25.9113  -32.4776   23.8342 C   0  0  1  0  0  0
  -27.2245  -27.3058   20.1370 C   0  0  0  0  0  0
  -25.5925  -33.8575   24.2272 N   0  0  0  0  0  0
  -23.4217  -30.4801   21.5433 C   0  0  2  0  0  0
  -24.8709  -28.9297   20.1135 C   0  0  0  0  0  0
  -22.7481  -29.4613   22.4934 C   0  0  0  0  0  0
  -18.0288  -28.1385   22.8486 C   0  0  0  0  0  0
  -24.1488  -36.7290   23.2639 C   0  0  0  0  0  0
  -25.9628  -30.7870   21.3728 C   0  0  0  0  0  0
  -26.0391  -29.4114   20.7190 C   0  0  0  0  0  0
  -27.2219  -28.6126   20.7171 C   0  0  0  0  0  0
  -26.0391  -26.8781   19.5030 C   0  0  0  0  0  0
  -24.8733  -27.6691   19.4937 C   0  0  0  0  0  0
  -23.6388  -29.8115   20.1596 C   0  0  0  0  0  0
  -25.4114  -36.3082   24.0328 C   0  0  1  0  0  0
  -20.5887  -28.3688   23.1284 C   0  0  2  0  0  0
  -20.6776  -26.9411   22.5412 C   0  0  0  0  0  0
  -19.5753  -26.6383   21.5214 C   0  0  0  0  0  0
  -18.1932  -26.7927   22.1625 C   0  0  0  0  0  0
  -19.1539  -28.8854   23.2879 C   0  0  0  0  0  0
  -18.9463  -30.1456   23.8895 C   0  0  0  0  0  0
  -17.6462  -30.6587   24.0562 C   0  0  0  0  0  0
  -25.9051  -34.9453   23.5101 C   0  0  0  0  0  0
  -16.5353  -29.9085   23.6330 C   0  0  0  0  0  0
  -16.7274  -28.6502   23.0352 C   0  0  0  0  0  0
  -26.4496  -31.6589   25.0715 C   0  0  0  0  0  0
  -25.3729  -31.3731   26.1442 C   0  0  0  0  0  0
  -27.0341  -30.3015   24.6169 C   0  0  0  0  0  0
  -27.6053  -32.4324   25.7492 C   0  0  0  0  0  0
  -27.5578  -37.1801   24.8465 C   0  0  0  0  0  0
  -21.4192  -29.3038   22.3677 N   0  0  0  0  0  0
  -26.4293  -37.3776   23.9407 N   0  0  0  0  0  0
  -24.6892  -31.0589   22.0960 N   0  0  0  0  0  0
  -23.4199  -28.8159   23.3022 O   0  0  0  0  0  0
  -28.3312  -26.4433   20.1566 O   0  0  0  0  0  0
  -26.5621  -34.8921   22.4669 O   0  0  0  0  0  0
  -23.5429  -32.1387   23.7331 O   0  0  0  0  0  0
  -28.4690  -17.3282   18.5064 C   0  0  0  0  0  0
  -29.0978  -16.1390   18.9210 C   0  0  0  0  0  0
  -28.6314  -18.5217   19.2293 C   0  0  0  0  0  0
  -30.0476  -17.3100   20.8114 C   0  0  0  0  0  0
  -29.8676  -16.0554   20.1042 C   0  0  0  0  0  0
  -29.4400  -18.5608   20.3815 C   0  0  0  0  0  0
  -28.8954  -22.4423   20.9383 C   0  0  0  0  0  0
  -29.5987  -19.9427   21.1261 C   0  0  0  0  0  0
  -28.8841  -23.7976   20.1032 C   0  0  0  0  0  0
  -28.1382  -25.0787   20.7247 C   0  0  0  0  0  0
  -29.3241  -21.2491   20.3999 N   0  0  0  0  0  0
  -28.5383  -22.4851   22.1165 O   0  0  0  0  0  0
  -31.4752  -12.5297   19.1746 H   0  0  0  0  0  0
  -30.3699  -11.4610   19.9951 H   0  0  0  0  0  0
  -29.7822  -11.6162   17.5697 H   0  0  0  0  0  0
  -29.6684  -13.3440   17.6609 H   0  0  0  0  0  0
  -27.8767  -11.2519   18.9297 H   0  0  0  0  0  0
  -27.3797  -12.4763   17.7959 H   0  0  0  0  0  0
  -27.5743  -14.2110   19.4364 H   0  0  0  0  0  0
  -28.7139  -12.2340   21.4657 H   0  0  0  0  0  0
  -28.4314  -13.9406   21.7278 H   0  0  0  0  0  0
  -25.2730   -9.5669   22.4775 H   0  0  0  0  0  0
  -23.9983   -7.4605   22.7467 H   0  0  0  0  0  0
  -21.0818   -8.8747   19.8946 H   0  0  0  0  0  0
  -22.3660  -10.9662   19.6179 H   0  0  0  0  0  0
  -21.1993   -7.6136   23.9707 H   0  0  0  0  0  0
  -21.1482   -6.0515   25.9075 H   0  0  0  0  0  0
  -22.0605   -2.7599   23.2849 H   0  0  0  0  0  0
  -22.4061  -11.9874   22.4821 H   0  0  0  0  0  0
  -21.1074  -13.1255   22.2646 H   0  0  0  0  0  0
  -24.6686  -15.8470   20.5435 H   0  0  0  0  0  0
  -26.2944  -15.6256   20.1364 H   0  0  0  0  0  0
  -26.7181  -32.5448   23.1090 H   0  0  0  0  0  0
  -25.0073  -33.9715   25.0418 H   0  0  0  0  0  0
  -22.7155  -31.3002   21.3979 H   0  0  0  0  0  0
  -23.3751  -35.9621   23.3307 H   0  0  0  0  0  0
  -24.3573  -36.8906   22.2051 H   0  0  0  0  0  0
  -23.7240  -37.6493   23.6657 H   0  0  0  0  0  0
  -26.0925  -31.5477   20.6019 H   0  0  0  0  0  0
  -26.8436  -30.8393   22.0012 H   0  0  0  0  0  0
  -28.1197  -28.9777   21.1961 H   0  0  0  0  0  0
  -26.0079  -25.9111   19.0211 H   0  0  0  0  0  0
  -23.9797  -27.2956   19.0131 H   0  0  0  0  0  0
  -23.7594  -30.5867   19.4018 H   0  0  0  0  0  0
  -22.7586  -29.2411   19.8575 H   0  0  0  0  0  0
  -25.1295  -36.1932   25.0821 H   0  0  0  0  0  0
  -20.9976  -28.3263   24.1407 H   0  0  0  0  0  0
  -20.5679  -26.2296   23.3611 H   0  0  0  0  0  0
  -21.6645  -26.7441   22.1204 H   0  0  0  0  0  0
  -19.6913  -25.6294   21.1243 H   0  0  0  0  0  0
  -19.6692  -27.3195   20.6746 H   0  0  0  0  0  0
  -17.4201  -26.6675   21.4027 H   0  0  0  0  0  0
  -18.0332  -26.0069   22.9023 H   0  0  0  0  0  0
  -19.7939  -30.7274   24.2263 H   0  0  0  0  0  0
  -17.5017  -31.6267   24.5165 H   0  0  0  0  0  0
  -15.5353  -30.2989   23.7653 H   0  0  0  0  0  0
  -15.8674  -28.0822   22.7069 H   0  0  0  0  0  0
  -24.5899  -30.7084   25.7771 H   0  0  0  0  0  0
  -24.8925  -32.2902   26.4865 H   0  0  0  0  0  0
  -25.8051  -30.8908   27.0218 H   0  0  0  0  0  0
  -26.2918  -29.6767   24.1188 H   0  0  0  0  0  0
  -27.4039  -29.7266   25.4670 H   0  0  0  0  0  0
  -27.8784  -30.4306   23.9393 H   0  0  0  0  0  0
  -27.2659  -33.3619   26.2076 H   0  0  0  0  0  0
  -28.3865  -32.6895   25.0325 H   0  0  0  0  0  0
  -28.0722  -31.8446   26.5405 H   0  0  0  0  0  0
  -28.2602  -38.0092   24.7507 H   0  0  0  0  0  0
  -28.1067  -36.2623   24.6301 H   0  0  0  0  0  0
  -27.2292  -37.1463   25.8868 H   0  0  0  0  0  0
  -20.9374  -29.8755   21.6881 H   0  0  0  0  0  0
  -26.0175  -38.2851   24.1407 H   0  0  0  0  0  0
  -27.8750  -17.3304   17.6026 H   0  0  0  0  0  0
  -29.0024  -15.2802   18.2777 H   0  0  0  0  0  0
  -28.1376  -19.4168   18.8777 H   0  0  0  0  0  0
  -30.6849  -17.3167   21.6850 H   0  0  0  0  0  0
  -30.6195  -19.9939   21.5077 H   0  0  0  0  0  0
  -28.9605  -19.8944   22.0097 H   0  0  0  0  0  0
  -28.4647  -23.5880   19.1193 H   0  0  0  0  0  0
  -29.9272  -24.0634   19.9338 H   0  0  0  0  0  0
  -27.0771  -24.8353   20.7828 H   0  0  0  0  0  0
  -28.4480  -25.1656   21.7666 H   0  0  0  0  0  0
  -29.6020  -21.2706   19.4277 H   0  0  0  0  0  0
  1 25  1  0  0  0
  1 30  2  0  0  0
  1 75  1  0  0  0
  2  3  1  0  0  0
  2 25  1  0  0  0
  2 83  1  0  0  0
  2 84  1  0  0  0
  3  4  1  0  0  0
  3 85  1  0  0  0
  3 86  1  0  0  0
  4  5  1  0  0  0
  4 87  1  0  0  0
  4 88  1  0  0  0
  5  6  1  0  0  0
  5 26  1  0  0  0
  5 89  1  0  0  0
  6 25  1  0  0  0
  6 90  1  0  0  0
  6 91  1  0  0  0
  7  8  2  0  0  0
  7 26  1  0  0  0
  7 29  1  0  0  0
  8  9  1  0  0  0
  8 22  1  0  0  0
  9 10  1  0  0  0
  9 27  2  0  0  0
 10 11  2  0  0  0
 10 15  1  0  0  0
 11 12  1  0  0  0
 11 92  1  0  0  0
 12 13  2  0  0  0
 12 93  1  0  0  0
 13 14  1  0  0  0
 13 31  1  0  0  0
 14 15  2  0  0  0
 14 94  1  0  0  0
 15 95  1  0  0  0
 16 17  2  0  0  0
 16 21  1  0  0  0
 16 31  1  0  0  0
 17 18  1  0  0  0
 17 96  1  0  0  0
 18 19  2  0  0  0
 18 97  1  0  0  0
 19 20  1  0  0  0
 19 24  1  0  0  0
 20 21  2  0  0  0
 20 98  1  0  0  0
 21 23  1  0  0  0
 22 28  1  0  0  0
 22 32  2  0  0  0
 26 27  1  0  0  0
 28 99  1  0  0  0
 28100  1  0  0  0
 29101  1  0  0  0
 29102  1  0  0  0
 33 34  1  0  0  0
 33 66  1  0  0  0
 33 70  2  0  0  0
 34 36  1  0  0  0
 34 59  1  0  0  0
 34103  1  0  0  0
 35 44  2  0  0  0
 35 45  1  0  0  0
 35 68  1  0  0  0
 36 56  1  0  0  0
 36104  1  0  0  0
 37 39  1  0  0  0
 37 47  1  0  0  0
 37 66  1  0  0  0
 37105  1  0  0  0
 38 43  2  0  0  0
 38 46  1  0  0  0
 38 47  1  0  0  0
 39 64  1  0  0  0
 39 67  2  0  0  0
 40 52  1  0  0  0
 40 53  2  0  0  0
 40 58  1  0  0  0
 41106  1  0  0  0
 41107  1  0  0  0
 41108  1  0  0  0
 41 48  1  0  0  0
 42 43  1  0  0  0
 42 66  1  0  0  0
 42109  1  0  0  0
 42110  1  0  0  0
 43 44  1  0  0  0
 44111  1  0  0  0
 45 46  2  0  0  0
 45112  1  0  0  0
 46113  1  0  0  0
 47114  1  0  0  0
 47115  1  0  0  0
 48 56  1  0  0  0
 48 65  1  0  0  0
 48116  1  0  0  0
 49 50  1  0  0  0
 49 53  1  0  0  0
 49 64  1  0  0  0
 49117  1  0  0  0
 50 51  1  0  0  0
 50118  1  0  0  0
 50119  1  0  0  0
 51 52  1  0  0  0
 51120  1  0  0  0
 51121  1  0  0  0
 52122  1  0  0  0
 52123  1  0  0  0
 53 54  1  0  0  0
 54 55  2  0  0  0
 54124  1  0  0  0
 55 57  1  0  0  0
 55125  1  0  0  0
 56 69  2  0  0  0
 57 58  2  0  0  0
 57126  1  0  0  0
 58127  1  0  0  0
 59 60  1  0  0  0
 59 61  1  0  0  0
 59 62  1  0  0  0
 60128  1  0  0  0
 60129  1  0  0  0
 60130  1  0  0  0
 61131  1  0  0  0
 61132  1  0  0  0
 61133  1  0  0  0
 62134  1  0  0  0
 62135  1  0  0  0
 62136  1  0  0  0
 63 65  1  0  0  0
 63137  1  0  0  0
 63138  1  0  0  0
 63139  1  0  0  0
 64140  1  0  0  0
 65141  1  0  0  0
 68 80  1  0  0  0
 71 72  2  0  0  0
 71 73  1  0  0  0
 71142  1  0  0  0
 72 75  1  0  0  0
 72143  1  0  0  0
 73 76  2  0  0  0
 73144  1  0  0  0
 74 75  2  0  0  0
 74 76  1  0  0  0
 74145  1  0  0  0
 76 78  1  0  0  0
 77 79  1  0  0  0
 77 81  1  0  0  0
 77 82  2  0  0  0
 78 81  1  0  0  0
 78146  1  0  0  0
 78147  1  0  0  0
 79 80  1  0  0  0
 79148  1  0  0  0
 79149  1  0  0  0
 80150  1  0  0  0
 80151  1  0  0  0
 81152  1  0  0  0
M  ISO  4   1 100  68 101  75 100  80 101
M  END
> <chiral flag>
0

> <version>
0

> <s_m_source_file>
/data/baiqing/PycharmProjects/Reinvent-master-3.2/result/LINK_invent/BTK/process_docking_weight1_custom_product_contain_oxygen_bond_distance_aromatic_linkinvent_7_9_3/rearranged_h_0054.sdf

> <i_m_source_file_index>
75

> <r_mmod_Potential_Energy-OPLS-2005>
117.895523071289

> <r_mmod_Stretch_Energy-OPLS-2005>
96.9700012207031

> <r_mmod_Bend_Energy-OPLS-2005>
136.435806274414

> <r_mmod_Torsional_Energy-OPLS-2005>
234.546188354492

> <r_mmod_Improper_Torsional_Energy-OPLS-2005>
12.6969766616821

> <r_mmod_Van_der_Waal_Energy-OPLS-2005>
137.359893798828

> <r_mmod_Electrostatic_Energy-OPLS-2005>
-359.687255859375

> <r_mmod_Solvation_Energy-OPLS-2005>
-219.622283935547

> <b_mmod_Minimization_Converged-OPLS-2005>
0

> <r_mmod_RMS_Derivative-OPLS-2005>
0.472249209880829

$$$$
75
                    3D
 Structure written by MMmdl.
157165  0  0  1  0            999 V2000
  -30.5843  -14.6468   20.4689 C   0  0  0  0  0  0
  -30.4367  -12.3807   19.4476 C   0  0  0  0  0  0
  -29.5073  -12.4894   18.2185 C   0  0  0  0  0  0
  -28.0244  -12.3422   18.6270 C   0  0  0  0  0  0
  -27.6473  -13.2099   19.8563 C   0  0  2  0  0  0
  -28.6923  -13.0619   20.9835 C   0  0  0  0  0  0
  -25.2520  -13.8145   20.5620 C   0  0  0  0  0  0
  -24.1816  -13.0424   20.9155 C   0  0  0  0  0  0
  -24.6379  -11.6890   20.8722 C   0  0  0  0  0  0
  -23.9057  -10.4278   21.0407 C   0  0  0  0  0  0
  -24.3611   -9.4195   21.9192 C   0  0  0  0  0  0
  -23.6288   -8.2230   22.0762 C   0  0  0  0  0  0
  -22.4270   -8.0274   21.3544 C   0  0  0  0  0  0
  -21.9894   -9.0251   20.4657 C   0  0  0  0  0  0
  -22.7221  -10.2129   20.3065 C   0  0  0  0  0  0
  -21.6847   -6.0733   22.5273 C   0  0  0  0  0  0
  -21.4007   -6.5632   23.8215 C   0  0  0  0  0  0
  -21.3664   -5.6789   24.9177 C   0  0  0  0  0  0
  -21.6043   -4.3053   24.7220 C   0  0  0  0  0  0
  -21.8823   -3.8144   23.4335 C   0  0  0  0  0  0
  -21.9188   -4.6955   22.3396 C   0  0  0  0  0  0
  -22.7831  -13.5227   21.1835 C   0  0  0  0  0  0
  -22.1659   -4.2147   21.0967 F   0  0  0  0  0  0
  -21.5629   -3.4542   25.7728 F   0  0  0  0  0  0
  -30.0036  -13.4082   20.4145 N   0  0  0  0  0  0
  -26.2953  -12.9313   20.3286 N   0  0  0  0  0  0
  -25.9300  -11.6478   20.5769 N   0  0  0  0  0  0
  -22.0479  -12.8252   22.0401 N   0  0  0  0  0  0
  -25.4159  -15.1877   20.3962 N   0  0  0  0  0  0
  -31.7690  -14.8174   20.1660 O   0  0  0  0  0  0
  -21.6634   -6.8866   21.4227 O   0  0  0  0  0  0
  -22.3504  -14.5533   20.6689 O   0  0  0  0  0  0
  -24.6290  -31.8558   23.1998 C   0  0  0  0  0  0
  -25.9139  -32.4746   23.8325 C   0  0  1  0  0  0
  -27.2107  -27.2767   20.1118 C   0  0  0  0  0  0
  -25.5948  -33.8542   24.2244 N   0  0  0  0  0  0
  -23.4252  -30.4775   21.5436 C   0  0  2  0  0  0
  -24.8664  -28.9282   20.1149 C   0  0  0  0  0  0
  -22.7518  -29.4585   22.4949 C   0  0  0  0  0  0
  -18.0286  -28.1406   22.8482 C   0  0  0  0  0  0
  -24.1492  -36.7278   23.2633 C   0  0  0  0  0  0
  -25.9720  -30.7683   21.3848 C   0  0  0  0  0  0
  -26.0382  -29.3948   20.7227 C   0  0  0  0  0  0
  -27.2130  -28.5794   20.7082 C   0  0  0  0  0  0
  -26.0179  -26.8814   19.4648 C   0  0  0  0  0  0
  -24.8588  -27.6807   19.4765 C   0  0  0  0  0  0
  -23.6413  -29.8145   20.1593 C   0  0  0  0  0  0
  -25.4129  -36.3065   24.0308 C   0  0  1  0  0  0
  -20.5890  -28.3709   23.1295 C   0  0  2  0  0  0
  -20.6789  -26.9440   22.5419 C   0  0  0  0  0  0
  -19.5755  -26.6408   21.5219 C   0  0  0  0  0  0
  -18.1937  -26.7953   22.1626 C   0  0  0  0  0  0
  -19.1547  -28.8882   23.2870 C   0  0  0  0  0  0
  -18.9451  -30.1492   23.8889 C   0  0  0  0  0  0
  -17.6442  -30.6604   24.0570 C   0  0  0  0  0  0
  -25.9073  -34.9428   23.5076 C   0  0  0  0  0  0
  -16.5341  -29.9109   23.6345 C   0  0  0  0  0  0
  -16.7267  -28.6530   23.0364 C   0  0  0  0  0  0
  -26.4506  -31.6586   25.0725 C   0  0  0  0  0  0
  -25.3719  -31.3741   26.1445 C   0  0  0  0  0  0
  -27.0323  -30.2969   24.6249 C   0  0  0  0  0  0
  -27.6066  -32.4339   25.7497 C   0  0  0  0  0  0
  -27.5578  -37.1803   24.8474 C   0  0  0  0  0  0
  -21.4229  -29.3014   22.3676 N   0  0  0  0  0  0
  -26.4314  -37.3757   23.9383 N   0  0  0  0  0  0
  -24.6931  -31.0542   22.0969 N   0  0  0  0  0  0
  -23.4237  -28.8177   23.3083 O   0  0  0  0  0  0
  -28.3369  -26.4302   20.1767 O   0  0  0  0  0  0
  -26.5653  -34.8908   22.4649 O   0  0  0  0  0  0
  -23.5448  -32.1388   23.7310 O   0  0  0  0  0  0
  -28.6090  -19.3212   20.2494 C   0  0  0  0  0  0
  -30.9958  -17.9066   20.6973 C   0  0  0  0  0  0
  -29.7874  -20.0954   20.4019 C   0  0  0  0  0  0
  -29.8114  -17.1431   20.5369 C   0  0  0  0  0  0
  -28.6251  -17.8944   20.3194 C   0  0  0  0  0  0
  -30.9815  -19.3361   20.6387 C   0  0  0  0  0  0
  -29.8104  -21.6344   20.1981 C   0  0  0  0  0  0
  -27.8505  -24.1008   22.2074 C   0  0  0  0  0  0
  -30.2093  -24.4134   21.5066 C   0  0  0  0  0  0
  -28.2755  -24.9588   19.9003 C   0  0  0  0  0  0
  -28.8195  -23.9500   21.0248 C   0  0  0  0  0  0
  -29.7057  -15.6836   20.6317 N   0  0  0  0  0  0
  -28.8382  -22.4485   20.7277 N   0  0  0  0  0  0
  -30.7527  -22.1223   19.5726 O   0  0  0  0  0  0
  -27.4604  -17.2249   20.1575 F   0  0  0  0  0  0
  -32.1576  -19.9784   20.8367 F   0  0  0  0  0  0
  -31.4817  -12.5011   19.1512 H   0  0  0  0  0  0
  -30.3617  -11.3866   19.8926 H   0  0  0  0  0  0
  -29.7652  -11.7238   17.4852 H   0  0  0  0  0  0
  -29.6604  -13.4505   17.7249 H   0  0  0  0  0  0
  -27.8448  -11.2903   18.8520 H   0  0  0  0  0  0
  -27.3782  -12.5860   17.7825 H   0  0  0  0  0  0
  -27.6612  -14.2448   19.5149 H   0  0  0  0  0  0
  -28.7050  -12.0428   21.3733 H   0  0  0  0  0  0
  -28.4484  -13.7043   21.8308 H   0  0  0  0  0  0
  -25.2758   -9.5666   22.4778 H   0  0  0  0  0  0
  -23.9986   -7.4613   22.7493 H   0  0  0  0  0  0
  -21.0822   -8.8781   19.8969 H   0  0  0  0  0  0
  -22.3686  -10.9676   19.6191 H   0  0  0  0  0  0
  -21.2001   -7.6150   23.9709 H   0  0  0  0  0  0
  -21.1487   -6.0524   25.9078 H   0  0  0  0  0  0
  -22.0595   -2.7604   23.2838 H   0  0  0  0  0  0
  -22.4086  -11.9940   22.4834 H   0  0  0  0  0  0
  -21.1114  -13.1334   22.2625 H   0  0  0  0  0  0
  -24.6395  -15.8312   20.5018 H   0  0  0  0  0  0
  -26.2633  -15.6557   20.0917 H   0  0  0  0  0  0
  -26.7219  -32.5405   23.1077 H   0  0  0  0  0  0
  -25.0091  -33.9670   25.0387 H   0  0  0  0  0  0
  -22.7178  -31.2957   21.3963 H   0  0  0  0  0  0
  -23.3741  -35.9622   23.3333 H   0  0  0  0  0  0
  -24.3581  -36.8865   22.2042 H   0  0  0  0  0  0
  -23.7255  -37.6483   23.6647 H   0  0  0  0  0  0
  -26.1290  -31.5359   20.6260 H   0  0  0  0  0  0
  -26.8422  -30.8005   22.0299 H   0  0  0  0  0  0
  -28.1181  -28.9251   21.1869 H   0  0  0  0  0  0
  -25.9400  -25.9547   18.9250 H   0  0  0  0  0  0
  -23.9672  -27.3279   18.9759 H   0  0  0  0  0  0
  -23.7725  -30.5859   19.3985 H   0  0  0  0  0  0
  -22.7611  -29.2438   19.8542 H   0  0  0  0  0  0
  -25.1311  -36.1908   25.0798 H   0  0  0  0  0  0
  -20.9939  -28.3277   24.1434 H   0  0  0  0  0  0
  -20.5709  -26.2310   23.3612 H   0  0  0  0  0  0
  -21.6659  -26.7494   22.1186 H   0  0  0  0  0  0
  -19.6914  -25.6319   21.1268 H   0  0  0  0  0  0
  -19.6696  -27.3207   20.6737 H   0  0  0  0  0  0
  -17.4203  -26.6694   21.4028 H   0  0  0  0  0  0
  -18.0341  -26.0099   22.9026 H   0  0  0  0  0  0
  -19.7923  -30.7321   24.2253 H   0  0  0  0  0  0
  -17.4995  -31.6286   24.5188 H   0  0  0  0  0  0
  -15.5345  -30.3000   23.7678 H   0  0  0  0  0  0
  -15.8676  -28.0844   22.7092 H   0  0  0  0  0  0
  -24.5911  -30.7074   25.7763 H   0  0  0  0  0  0
  -24.8906  -32.2907   26.4859 H   0  0  0  0  0  0
  -25.8043  -30.8926   27.0227 H   0  0  0  0  0  0
  -26.2880  -29.6749   24.1264 H   0  0  0  0  0  0
  -27.3911  -29.7225   25.4801 H   0  0  0  0  0  0
  -27.8829  -30.4169   23.9536 H   0  0  0  0  0  0
  -27.2654  -33.3627   26.2086 H   0  0  0  0  0  0
  -28.3869  -32.6929   25.0323 H   0  0  0  0  0  0
  -28.0750  -31.8469   26.5405 H   0  0  0  0  0  0
  -28.2634  -38.0067   24.7484 H   0  0  0  0  0  0
  -28.1038  -36.2592   24.6365 H   0  0  0  0  0  0
  -27.2303  -37.1543   25.8886 H   0  0  0  0  0  0
  -20.9475  -29.8670   21.6793 H   0  0  0  0  0  0
  -26.0192  -38.2830   24.1351 H   0  0  0  0  0  0
  -27.6738  -19.8212   20.0447 H   0  0  0  0  0  0
  -31.9327  -17.3975   20.8812 H   0  0  0  0  0  0
  -27.7998  -25.1379   22.5414 H   0  0  0  0  0  0
  -28.1544  -23.4993   23.0635 H   0  0  0  0  0  0
  -26.8406  -23.7906   21.9287 H   0  0  0  0  0  0
  -30.1757  -25.4368   21.8831 H   0  0  0  0  0  0
  -30.9471  -24.3972   20.7045 H   0  0  0  0  0  0
  -30.5699  -23.7893   22.3266 H   0  0  0  0  0  0
  -28.8227  -24.7863   18.9733 H   0  0  0  0  0  0
  -27.2636  -24.6284   19.6877 H   0  0  0  0  0  0
  -28.7526  -15.3592   20.7070 H   0  0  0  0  0  0
  -28.0970  -21.9321   21.1802 H   0  0  0  0  0  0
  1 25  1  0  0  0
  1 30  2  0  0  0
  1 82  1  0  0  0
  2  3  1  0  0  0
  2 25  1  0  0  0
  2 87  1  0  0  0
  2 88  1  0  0  0
  3  4  1  0  0  0
  3 89  1  0  0  0
  3 90  1  0  0  0
  4  5  1  0  0  0
  4 91  1  0  0  0
  4 92  1  0  0  0
  5  6  1  0  0  0
  5 26  1  0  0  0
  5 93  1  0  0  0
  6 25  1  0  0  0
  6 94  1  0  0  0
  6 95  1  0  0  0
  7  8  2  0  0  0
  7 26  1  0  0  0
  7 29  1  0  0  0
  8  9  1  0  0  0
  8 22  1  0  0  0
  9 10  1  0  0  0
  9 27  2  0  0  0
 10 11  2  0  0  0
 10 15  1  0  0  0
 11 12  1  0  0  0
 11 96  1  0  0  0
 12 13  2  0  0  0
 12 97  1  0  0  0
 13 14  1  0  0  0
 13 31  1  0  0  0
 14 15  2  0  0  0
 14 98  1  0  0  0
 15 99  1  0  0  0
 16 17  2  0  0  0
 16 21  1  0  0  0
 16 31  1  0  0  0
 17 18  1  0  0  0
 17100  1  0  0  0
 18 19  2  0  0  0
 18101  1  0  0  0
 19 20  1  0  0  0
 19 24  1  0  0  0
 20 21  2  0  0  0
 20102  1  0  0  0
 21 23  1  0  0  0
 22 28  1  0  0  0
 22 32  2  0  0  0
 26 27  1  0  0  0
 28103  1  0  0  0
 28104  1  0  0  0
 29105  1  0  0  0
 29106  1  0  0  0
 33 34  1  0  0  0
 33 66  1  0  0  0
 33 70  2  0  0  0
 34 36  1  0  0  0
 34 59  1  0  0  0
 34107  1  0  0  0
 35 44  2  0  0  0
 35 45  1  0  0  0
 35 68  1  0  0  0
 36 56  1  0  0  0
 36108  1  0  0  0
 37 39  1  0  0  0
 37 47  1  0  0  0
 37 66  1  0  0  0
 37109  1  0  0  0
 38 43  2  0  0  0
 38 46  1  0  0  0
 38 47  1  0  0  0
 39 64  1  0  0  0
 39 67  2  0  0  0
 40 52  1  0  0  0
 40 53  2  0  0  0
 40 58  1  0  0  0
 41110  1  0  0  0
 41111  1  0  0  0
 41112  1  0  0  0
 41 48  1  0  0  0
 42 43  1  0  0  0
 42 66  1  0  0  0
 42113  1  0  0  0
 42114  1  0  0  0
 43 44  1  0  0  0
 44115  1  0  0  0
 45 46  2  0  0  0
 45116  1  0  0  0
 46117  1  0  0  0
 47118  1  0  0  0
 47119  1  0  0  0
 48 56  1  0  0  0
 48 65  1  0  0  0
 48120  1  0  0  0
 49 50  1  0  0  0
 49 53  1  0  0  0
 49 64  1  0  0  0
 49121  1  0  0  0
 50 51  1  0  0  0
 50122  1  0  0  0
 50123  1  0  0  0
 51 52  1  0  0  0
 51124  1  0  0  0
 51125  1  0  0  0
 52126  1  0  0  0
 52127  1  0  0  0
 53 54  1  0  0  0
 54 55  2  0  0  0
 54128  1  0  0  0
 55 57  1  0  0  0
 55129  1  0  0  0
 56 69  2  0  0  0
 57 58  2  0  0  0
 57130  1  0  0  0
 58131  1  0  0  0
 59 60  1  0  0  0
 59 61  1  0  0  0
 59 62  1  0  0  0
 60132  1  0  0  0
 60133  1  0  0  0
 60134  1  0  0  0
 61135  1  0  0  0
 61136  1  0  0  0
 61137  1  0  0  0
 62138  1  0  0  0
 62139  1  0  0  0
 62140  1  0  0  0
 63 65  1  0  0  0
 63141  1  0  0  0
 63142  1  0  0  0
 63143  1  0  0  0
 64144  1  0  0  0
 65145  1  0  0  0
 68 80  1  0  0  0
 71 73  2  0  0  0
 71 75  1  0  0  0
 71146  1  0  0  0
 72 74  1  0  0  0
 72 76  2  0  0  0
 72147  1  0  0  0
 73 76  1  0  0  0
 73 77  1  0  0  0
 74 75  2  0  0  0
 74 82  1  0  0  0
 75 85  1  0  0  0
 76 86  1  0  0  0
 77 83  1  0  0  0
 77 84  2  0  0  0
 78148  1  0  0  0
 78149  1  0  0  0
 78150  1  0  0  0
 78 81  1  0  0  0
 79 81  1  0  0  0
 79151  1  0  0  0
 79152  1  0  0  0
 79153  1  0  0  0
 80 81  1  0  0  0
 80154  1  0  0  0
 80155  1  0  0  0
 81 83  1  0  0  0
 82156  1  0  0  0
 83157  1  0  0  0
M  ISO  4   1 100  68 101  80 101  82 100
M  END
> <chiral flag>
0

> <version>
0

> <s_m_source_file>
/data/baiqing/PycharmProjects/Reinvent-master-3.2/result/LINK_invent/BTK/process_docking_weight1_custom_product_contain_oxygen_bond_distance_aromatic_linkinvent_7_9_3/rearranged_h_0054.sdf

> <i_m_source_file_index>
76

> <r_mmod_Potential_Energy-OPLS-2005>
13.8182945251465

> <r_mmod_Stretch_Energy-OPLS-2005>
92.3197174072266

> <r_mmod_Bend_Energy-OPLS-2005>
164.107467651367

> <r_mmod_Torsional_Energy-OPLS-2005>
228.854782104492

> <r_mmod_Improper_Torsional_Energy-OPLS-2005>
7.10716009140015

> <r_mmod_Van_der_Waal_Energy-OPLS-2005>
143.639770507812

> <r_mmod_Electrostatic_Energy-OPLS-2005>
-462.809692382812

> <r_mmod_Solvation_Energy-OPLS-2005>
-219.907867431641

> <b_mmod_Minimization_Converged-OPLS-2005>
0

> <r_mmod_RMS_Derivative-OPLS-2005>
4.3827166557312

$$$$
76
                    3D
 Structure written by MMmdl.
161169  0  0  1  0            999 V2000
  -30.7655  -14.3438   20.6595 C   0  0  0  0  0  0
  -30.4151  -12.2682   19.3820 C   0  0  0  0  0  0
  -29.4794  -12.5205   18.1838 C   0  0  0  0  0  0
  -28.0055  -12.3821   18.6075 C   0  0  0  0  0  0
  -27.6689  -13.1983   19.8830 C   0  0  2  0  0  0
  -28.7086  -12.9228   20.9927 C   0  0  0  0  0  0
  -25.2642  -13.8157   20.5686 C   0  0  0  0  0  0
  -24.1886  -13.0432   20.9162 C   0  0  0  0  0  0
  -24.6424  -11.6892   20.8727 C   0  0  0  0  0  0
  -23.9090  -10.4296   21.0440 C   0  0  0  0  0  0
  -24.3614   -9.4199   21.9226 C   0  0  0  0  0  0
  -23.6277   -8.2248   22.0805 C   0  0  0  0  0  0
  -22.4265   -8.0300   21.3573 C   0  0  0  0  0  0
  -21.9923   -9.0281   20.4656 C   0  0  0  0  0  0
  -22.7262  -10.2144   20.3084 C   0  0  0  0  0  0
  -21.6862   -6.0724   22.5291 C   0  0  0  0  0  0
  -21.4013   -6.5639   23.8214 C   0  0  0  0  0  0
  -21.3651   -5.6783   24.9180 C   0  0  0  0  0  0
  -21.6051   -4.3056   24.7219 C   0  0  0  0  0  0
  -21.8828   -3.8136   23.4346 C   0  0  0  0  0  0
  -21.9196   -4.6957   22.3386 C   0  0  0  0  0  0
  -22.7894  -13.5244   21.1805 C   0  0  0  0  0  0
  -22.1680   -4.2136   21.0961 F   0  0  0  0  0  0
  -21.5612   -3.4521   25.7734 F   0  0  0  0  0  0
  -30.0507  -13.2106   20.4507 N   0  0  0  0  0  0
  -26.3080  -12.9310   20.3412 N   0  0  0  0  0  0
  -25.9346  -11.6469   20.5745 N   0  0  0  0  0  0
  -22.0533  -12.8243   22.0361 N   0  0  0  0  0  0
  -25.4392  -15.1870   20.4091 N   0  0  0  0  0  0
  -31.7948  -14.6167   20.0335 O   0  0  0  0  0  0
  -21.6637   -6.8896   21.4263 O   0  0  0  0  0  0
  -22.3589  -14.5534   20.6638 O   0  0  0  0  0  0
  -24.6069  -31.8649   23.2111 C   0  0  0  0  0  0
  -25.8977  -32.4787   23.8391 C   0  0  1  0  0  0
  -27.2474  -27.4673   20.0726 C   0  0  0  0  0  0
  -25.5857  -33.8600   24.2308 N   0  0  0  0  0  0
  -23.3940  -30.4830   21.5528 C   0  0  2  0  0  0
  -24.8424  -28.9479   20.1144 C   0  0  0  0  0  0
  -22.7365  -29.4589   22.5044 C   0  0  0  0  0  0
  -18.0230  -28.1369   22.8473 C   0  0  0  0  0  0
  -24.1490  -36.7323   23.2639 C   0  0  0  0  0  0
  -25.9157  -30.8396   21.3558 C   0  0  0  0  0  0
  -25.9950  -29.4736   20.7078 C   0  0  0  0  0  0
  -27.1963  -28.7382   20.6830 C   0  0  0  0  0  0
  -26.0740  -26.9377   19.4870 C   0  0  0  0  0  0
  -24.8745  -27.6796   19.5037 C   0  0  0  0  0  0
  -23.5983  -29.8053   20.1688 C   0  0  0  0  0  0
  -25.4103  -36.3074   24.0329 C   0  0  1  0  0  0
  -20.5815  -28.3608   23.1376 C   0  0  2  0  0  0
  -20.6709  -26.9356   22.5436 C   0  0  0  0  0  0
  -19.5700  -26.6361   21.5209 C   0  0  0  0  0  0
  -18.1878  -26.7901   22.1610 C   0  0  0  0  0  0
  -19.1490  -28.8819   23.2897 C   0  0  0  0  0  0
  -18.9423  -30.1443   23.8874 C   0  0  0  0  0  0
  -17.6419  -30.6582   24.0550 C   0  0  0  0  0  0
  -25.9028  -34.9450   23.5113 C   0  0  0  0  0  0
  -16.5300  -29.9081   23.6335 C   0  0  0  0  0  0
  -16.7214  -28.6515   23.0323 C   0  0  0  0  0  0
  -26.4439  -31.6546   25.0692 C   0  0  0  0  0  0
  -25.3773  -31.3598   26.1478 C   0  0  0  0  0  0
  -27.0240  -30.3002   24.5998 C   0  0  0  0  0  0
  -27.5990  -32.4271   25.7479 C   0  0  0  0  0  0
  -27.5573  -37.1794   24.8463 C   0  0  0  0  0  0
  -21.4090  -29.2969   22.3808 N   0  0  0  0  0  0
  -26.4281  -37.3766   23.9413 N   0  0  0  0  0  0
  -24.6574  -31.0765   22.0997 N   0  0  0  0  0  0
  -23.4167  -28.8138   23.3067 O   0  0  0  0  0  0
  -28.4697  -26.8391   20.0665 O   0  0  0  0  0  0
  -26.5587  -34.8895   22.4684 O   0  0  0  0  0  0
  -23.5276  -32.1368   23.7548 O   0  0  0  0  0  0
  -31.9596  -19.0002   22.1790 C   0  0  0  0  0  0
  -32.3510  -17.9276   23.0109 C   0  0  0  0  0  0
  -30.4009  -17.5208   21.0252 C   0  0  0  0  0  0
  -30.9843  -18.7939   21.1729 C   0  0  0  0  0  0
  -30.8144  -16.4473   21.8335 C   0  0  0  0  0  0
  -31.7871  -16.6477   22.8340 C   0  0  0  0  0  0
  -31.7597  -21.9115   19.5501 C   0  0  0  0  0  0
  -30.0356  -25.0440   20.0329 C   0  0  0  0  0  0
  -30.3910  -21.8659   21.6288 C   0  0  0  0  0  0
  -30.5463  -19.8633   20.1804 C   0  0  0  0  0  0
  -31.8959  -23.4343   19.6614 C   0  0  0  0  0  0
  -28.6103  -25.4833   19.6542 C   0  0  0  0  0  0
  -30.2812  -15.1644   21.5967 N   0  0  0  0  0  0
  -30.6199  -24.0759   19.3177 N   0  0  0  0  0  0
  -30.9757  -21.2444   20.4330 N   0  0  0  0  0  0
  -32.3287  -21.3535   18.6069 O   0  0  0  0  0  0
  -30.6093  -25.5726   20.9902 O   0  0  0  0  0  0
  -32.1812  -15.6129   23.6172 F   0  0  0  0  0  0
  -31.4556  -12.3670   19.0684 H   0  0  0  0  0  0
  -30.3083  -11.2429   19.7354 H   0  0  0  0  0  0
  -29.6985  -11.8226   17.3731 H   0  0  0  0  0  0
  -29.6618  -13.5189   17.7845 H   0  0  0  0  0  0
  -27.8143  -11.3230   18.7869 H   0  0  0  0  0  0
  -27.3470  -12.6805   17.7902 H   0  0  0  0  0  0
  -27.7332  -14.2533   19.6187 H   0  0  0  0  0  0
  -28.6621  -11.8753   21.3029 H   0  0  0  0  0  0
  -28.4617  -13.4966   21.8872 H   0  0  0  0  0  0
  -25.2785   -9.5632   22.4762 H   0  0  0  0  0  0
  -23.9967   -7.4641   22.7548 H   0  0  0  0  0  0
  -21.0873   -8.8813   19.8927 H   0  0  0  0  0  0
  -22.3801  -10.9681   19.6155 H   0  0  0  0  0  0
  -21.2031   -7.6162   23.9702 H   0  0  0  0  0  0
  -21.1461   -6.0528   25.9075 H   0  0  0  0  0  0
  -22.0611   -2.7599   23.2842 H   0  0  0  0  0  0
  -22.4125  -11.9875   22.4694 H   0  0  0  0  0  0
  -21.1179  -13.1295   22.2559 H   0  0  0  0  0  0
  -24.6819  -15.8511   20.5262 H   0  0  0  0  0  0
  -26.2999  -15.6240   20.1021 H   0  0  0  0  0  0
  -26.7033  -32.5526   23.1153 H   0  0  0  0  0  0
  -24.9969  -33.9764   25.0426 H   0  0  0  0  0  0
  -22.6770  -31.2952   21.4136 H   0  0  0  0  0  0
  -23.3728  -35.9687   23.3281 H   0  0  0  0  0  0
  -24.3582  -36.8977   22.2067 H   0  0  0  0  0  0
  -23.7290  -37.6534   23.6697 H   0  0  0  0  0  0
  -26.0113  -31.6039   20.5820 H   0  0  0  0  0  0
  -26.8107  -30.9030   21.9627 H   0  0  0  0  0  0
  -28.0952  -29.1436   21.1253 H   0  0  0  0  0  0
  -26.0764  -25.9715   19.0022 H   0  0  0  0  0  0
  -23.9855  -27.2761   19.0380 H   0  0  0  0  0  0
  -23.6873  -30.5733   19.3991 H   0  0  0  0  0  0
  -22.7271  -29.2083   19.8891 H   0  0  0  0  0  0
  -25.1282  -36.1913   25.0821 H   0  0  0  0  0  0
  -20.9851  -28.3141   24.1508 H   0  0  0  0  0  0
  -20.5608  -26.2185   23.3590 H   0  0  0  0  0  0
  -21.6590  -26.7391   22.1238 H   0  0  0  0  0  0
  -19.6848  -25.6284   21.1228 H   0  0  0  0  0  0
  -19.6666  -27.3181   20.6765 H   0  0  0  0  0  0
  -17.4138  -26.6632   21.4029 H   0  0  0  0  0  0
  -18.0275  -26.0072   22.9035 H   0  0  0  0  0  0
  -19.7903  -30.7277   24.2206 H   0  0  0  0  0  0
  -17.4981  -31.6272   24.5155 H   0  0  0  0  0  0
  -15.5313  -30.2972   23.7709 H   0  0  0  0  0  0
  -15.8605  -28.0873   22.6990 H   0  0  0  0  0  0
  -24.6015  -30.6819   25.7895 H   0  0  0  0  0  0
  -24.8872  -32.2714   26.4928 H   0  0  0  0  0  0
  -25.8239  -30.8856   27.0234 H   0  0  0  0  0  0
  -26.2723  -29.6792   24.1112 H   0  0  0  0  0  0
  -27.4078  -29.7205   25.4396 H   0  0  0  0  0  0
  -27.8533  -30.4320   23.9048 H   0  0  0  0  0  0
  -27.2554  -33.3562   26.2077 H   0  0  0  0  0  0
  -28.3818  -32.6861   25.0329 H   0  0  0  0  0  0
  -28.0629  -31.8383   26.5406 H   0  0  0  0  0  0
  -28.2555  -38.0118   24.7510 H   0  0  0  0  0  0
  -28.1084  -36.2639   24.6272 H   0  0  0  0  0  0
  -27.2280  -37.1438   25.8859 H   0  0  0  0  0  0
  -20.9243  -29.8726   21.7070 H   0  0  0  0  0  0
  -26.0139  -38.2826   24.1472 H   0  0  0  0  0  0
  -32.4144  -19.9710   22.3199 H   0  0  0  0  0  0
  -33.0976  -18.0824   23.7780 H   0  0  0  0  0  0
  -29.6590  -17.3619   20.2535 H   0  0  0  0  0  0
  -29.6538  -22.6242   21.3699 H   0  0  0  0  0  0
  -31.1625  -22.3291   22.2450 H   0  0  0  0  0  0
  -29.8824  -21.1359   22.2566 H   0  0  0  0  0  0
  -29.4549  -19.8541   20.1384 H   0  0  0  0  0  0
  -30.8610  -19.5162   19.1935 H   0  0  0  0  0  0
  -32.6671  -23.7795   18.9730 H   0  0  0  0  0  0
  -32.2530  -23.6876   20.6605 H   0  0  0  0  0  0
  -27.9024  -24.8413   20.1813 H   0  0  0  0  0  0
  -28.4414  -25.3751   18.5818 H   0  0  0  0  0  0
  -29.4455  -14.8918   22.0949 H   0  0  0  0  0  0
  -30.1031  -23.6689   18.5485 H   0  0  0  0  0  0
  1 25  1  0  0  0
  1 30  2  0  0  0
  1 83  1  0  0  0
  2  3  1  0  0  0
  2 25  1  0  0  0
  2 89  1  0  0  0
  2 90  1  0  0  0
  3  4  1  0  0  0
  3 91  1  0  0  0
  3 92  1  0  0  0
  4  5  1  0  0  0
  4 93  1  0  0  0
  4 94  1  0  0  0
  5  6  1  0  0  0
  5 26  1  0  0  0
  5 95  1  0  0  0
  6 25  1  0  0  0
  6 96  1  0  0  0
  6 97  1  0  0  0
  7  8  2  0  0  0
  7 26  1  0  0  0
  7 29  1  0  0  0
  8  9  1  0  0  0
  8 22  1  0  0  0
  9 10  1  0  0  0
  9 27  2  0  0  0
 10 11  2  0  0  0
 10 15  1  0  0  0
 11 12  1  0  0  0
 11 98  1  0  0  0
 12 13  2  0  0  0
 12 99  1  0  0  0
 13 14  1  0  0  0
 13 31  1  0  0  0
 14 15  2  0  0  0
 14100  1  0  0  0
 15101  1  0  0  0
 16 17  2  0  0  0
 16 21  1  0  0  0
 16 31  1  0  0  0
 17 18  1  0  0  0
 17102  1  0  0  0
 18 19  2  0  0  0
 18103  1  0  0  0
 19 20  1  0  0  0
 19 24  1  0  0  0
 20 21  2  0  0  0
 20104  1  0  0  0
 21 23  1  0  0  0
 22 28  1  0  0  0
 22 32  2  0  0  0
 26 27  1  0  0  0
 28105  1  0  0  0
 28106  1  0  0  0
 29107  1  0  0  0
 29108  1  0  0  0
 33 34  1  0  0  0
 33 66  1  0  0  0
 33 70  2  0  0  0
 34 36  1  0  0  0
 34 59  1  0  0  0
 34109  1  0  0  0
 35 44  2  0  0  0
 35 45  1  0  0  0
 35 68  1  0  0  0
 36 56  1  0  0  0
 36110  1  0  0  0
 37 39  1  0  0  0
 37 47  1  0  0  0
 37 66  1  0  0  0
 37111  1  0  0  0
 38 43  2  0  0  0
 38 46  1  0  0  0
 38 47  1  0  0  0
 39 64  1  0  0  0
 39 67  2  0  0  0
 40 52  1  0  0  0
 40 53  2  0  0  0
 40 58  1  0  0  0
 41112  1  0  0  0
 41113  1  0  0  0
 41114  1  0  0  0
 41 48  1  0  0  0
 42 43  1  0  0  0
 42 66  1  0  0  0
 42115  1  0  0  0
 42116  1  0  0  0
 43 44  1  0  0  0
 44117  1  0  0  0
 45 46  2  0  0  0
 45118  1  0  0  0
 46119  1  0  0  0
 47120  1  0  0  0
 47121  1  0  0  0
 48 56  1  0  0  0
 48 65  1  0  0  0
 48122  1  0  0  0
 49 50  1  0  0  0
 49 53  1  0  0  0
 49 64  1  0  0  0
 49123  1  0  0  0
 50 51  1  0  0  0
 50124  1  0  0  0
 50125  1  0  0  0
 51 52  1  0  0  0
 51126  1  0  0  0
 51127  1  0  0  0
 52128  1  0  0  0
 52129  1  0  0  0
 53 54  1  0  0  0
 54 55  2  0  0  0
 54130  1  0  0  0
 55 57  1  0  0  0
 55131  1  0  0  0
 56 69  2  0  0  0
 57 58  2  0  0  0
 57132  1  0  0  0
 58133  1  0  0  0
 59 60  1  0  0  0
 59 61  1  0  0  0
 59 62  1  0  0  0
 60134  1  0  0  0
 60135  1  0  0  0
 60136  1  0  0  0
 61137  1  0  0  0
 61138  1  0  0  0
 61139  1  0  0  0
 62140  1  0  0  0
 62141  1  0  0  0
 62142  1  0  0  0
 63 65  1  0  0  0
 63143  1  0  0  0
 63144  1  0  0  0
 63145  1  0  0  0
 64146  1  0  0  0
 65147  1  0  0  0
 68 82  1  0  0  0
 71 72  2  0  0  0
 71 74  1  0  0  0
 71148  1  0  0  0
 72 76  1  0  0  0
 72149  1  0  0  0
 73 74  2  0  0  0
 73 75  1  0  0  0
 73150  1  0  0  0
 74 80  1  0  0  0
 75 76  2  0  0  0
 75 83  1  0  0  0
 76 88  1  0  0  0
 77 81  1  0  0  0
 77 85  1  0  0  0
 77 86  2  0  0  0
 78 82  1  0  0  0
 78 84  1  0  0  0
 78 87  2  0  0  0
 79 85  1  0  0  0
 79151  1  0  0  0
 79152  1  0  0  0
 79153  1  0  0  0
 80 85  1  0  0  0
 80154  1  0  0  0
 80155  1  0  0  0
 81 84  1  0  0  0
 81156  1  0  0  0
 81157  1  0  0  0
 82158  1  0  0  0
 82159  1  0  0  0
 83160  1  0  0  0
 84161  1  0  0  0
M  ISO  4   1 100  68 101  82 101  83 100
M  END
> <chiral flag>
0

> <version>
0

> <s_m_source_file>
/data/baiqing/PycharmProjects/Reinvent-master-3.2/result/LINK_invent/BTK/process_docking_weight1_custom_product_contain_oxygen_bond_distance_aromatic_linkinvent_7_9_3/rearranged_h_0054.sdf

> <i_m_source_file_index>
77

> <r_mmod_Potential_Energy-OPLS-2005>
-159.473846435547

> <r_mmod_Stretch_Energy-OPLS-2005>
34.1909484863281

> <r_mmod_Bend_Energy-OPLS-2005>
103.376831054688

> <r_mmod_Torsional_Energy-OPLS-2005>
244.45393371582

> <r_mmod_Improper_Torsional_Energy-OPLS-2005>
2.57597947120667

> <r_mmod_Van_der_Waal_Energy-OPLS-2005>
166.124206542969

> <r_mmod_Electrostatic_Energy-OPLS-2005>
-452.091369628906

> <r_mmod_Solvation_Energy-OPLS-2005>
-266.672302246094

> <b_mmod_Minimization_Converged-OPLS-2005>
0

> <r_mmod_RMS_Derivative-OPLS-2005>
4.24891233444214

$$$$
77
                    3D
 Structure written by MMmdl.
158167  0  0  1  0            999 V2000
  -30.6577  -14.5468   20.4929 C   0  0  0  0  0  0
  -30.4367  -12.3046   19.4714 C   0  0  0  0  0  0
  -29.5182  -12.4135   18.2354 C   0  0  0  0  0  0
  -28.0256  -12.3449   18.6298 C   0  0  0  0  0  0
  -27.6622  -13.2078   19.8702 C   0  0  2  0  0  0
  -28.7016  -13.0296   20.9984 C   0  0  0  0  0  0
  -25.2610  -13.8176   20.5696 C   0  0  0  0  0  0
  -24.1855  -13.0448   20.9175 C   0  0  0  0  0  0
  -24.6413  -11.6913   20.8747 C   0  0  0  0  0  0
  -23.9079  -10.4298   21.0408 C   0  0  0  0  0  0
  -24.3622   -9.4201   21.9184 C   0  0  0  0  0  0
  -23.6297   -8.2238   22.0739 C   0  0  0  0  0  0
  -22.4278   -8.0293   21.3529 C   0  0  0  0  0  0
  -21.9919   -9.0273   20.4642 C   0  0  0  0  0  0
  -22.7246  -10.2155   20.3049 C   0  0  0  0  0  0
  -21.6867   -6.0745   22.5277 C   0  0  0  0  0  0
  -21.4024   -6.5647   23.8214 C   0  0  0  0  0  0
  -21.3655   -5.6788   24.9173 C   0  0  0  0  0  0
  -21.6036   -4.3049   24.7215 C   0  0  0  0  0  0
  -21.8824   -3.8150   23.4338 C   0  0  0  0  0  0
  -21.9191   -4.6967   22.3393 C   0  0  0  0  0  0
  -22.7880  -13.5241   21.1851 C   0  0  0  0  0  0
  -22.1656   -4.2149   21.0973 F   0  0  0  0  0  0
  -21.5619   -3.4532   25.7723 F   0  0  0  0  0  0
  -30.0290  -13.3364   20.4407 N   0  0  0  0  0  0
  -26.3035  -12.9339   20.3348 N   0  0  0  0  0  0
  -25.9337  -11.6500   20.5794 N   0  0  0  0  0  0
  -22.0522  -12.8233   22.0414 N   0  0  0  0  0  0
  -25.4361  -15.1896   20.4132 N   0  0  0  0  0  0
  -31.8095  -14.7151   20.0817 O   0  0  0  0  0  0
  -21.6636   -6.8896   21.4240 O   0  0  0  0  0  0
  -22.3544  -14.5536   20.6693 O   0  0  0  0  0  0
  -24.6170  -31.8648   23.2059 C   0  0  0  0  0  0
  -25.9050  -32.4805   23.8369 C   0  0  1  0  0  0
  -27.2413  -27.3934   20.1164 C   0  0  0  0  0  0
  -25.5900  -33.8602   24.2310 N   0  0  0  0  0  0
  -23.4082  -30.4867   21.5458 C   0  0  2  0  0  0
  -24.8599  -28.9515   20.1105 C   0  0  0  0  0  0
  -22.7426  -29.4636   22.4949 C   0  0  0  0  0  0
  -18.0274  -28.1371   22.8478 C   0  0  0  0  0  0
  -24.1495  -36.7303   23.2637 C   0  0  0  0  0  0
  -25.9402  -30.8224   21.3634 C   0  0  0  0  0  0
  -26.0214  -29.4540   20.7100 C   0  0  0  0  0  0
  -27.2147  -28.6860   20.7043 C   0  0  0  0  0  0
  -26.0588  -26.9257   19.4942 C   0  0  0  0  0  0
  -24.8775  -27.6906   19.4926 C   0  0  0  0  0  0
  -23.6202  -29.8177   20.1609 C   0  0  0  0  0  0
  -25.4116  -36.3093   24.0334 C   0  0  1  0  0  0
  -20.5866  -28.3671   23.1298 C   0  0  2  0  0  0
  -20.6767  -26.9400   22.5412 C   0  0  0  0  0  0
  -19.5755  -26.6378   21.5197 C   0  0  0  0  0  0
  -18.1930  -26.7919   22.1606 C   0  0  0  0  0  0
  -19.1524  -28.8835   23.2888 C   0  0  0  0  0  0
  -18.9448  -30.1436   23.8905 C   0  0  0  0  0  0
  -17.6453  -30.6579   24.0548 C   0  0  0  0  0  0
  -25.9044  -34.9462   23.5121 C   0  0  0  0  0  0
  -16.5344  -29.9077   23.6320 C   0  0  0  0  0  0
  -16.7262  -28.6491   23.0346 C   0  0  0  0  0  0
  -26.4475  -31.6588   25.0700 C   0  0  0  0  0  0
  -25.3746  -31.3676   26.1447 C   0  0  0  0  0  0
  -27.0311  -30.3040   24.6063 C   0  0  0  0  0  0
  -27.6050  -32.4302   25.7460 C   0  0  0  0  0  0
  -27.5584  -37.1804   24.8460 C   0  0  0  0  0  0
  -21.4148  -29.3036   22.3705 N   0  0  0  0  0  0
  -26.4292  -37.3786   23.9404 N   0  0  0  0  0  0
  -24.6731  -31.0726   22.0972 N   0  0  0  0  0  0
  -23.4182  -28.8174   23.3001 O   0  0  0  0  0  0
  -28.3902  -26.6082   20.1731 O   0  0  0  0  0  0
  -26.5597  -34.8917   22.4676 O   0  0  0  0  0  0
  -23.5353  -32.1405   23.7443 O   0  0  0  0  0  0
  -29.6667  -19.5800   19.2967 C   0  0  0  0  0  0
  -29.5268  -18.4681   18.4533 C   0  0  0  0  0  0
  -30.0236  -18.0686   21.1772 C   0  0  0  0  0  0
  -29.9103  -19.4005   20.6725 C   0  0  0  0  0  0
  -29.8874  -16.9265   20.3349 C   0  0  0  0  0  0
  -29.6110  -17.1574   18.9579 C   0  0  0  0  0  0
  -28.9757  -22.9057   21.3119 C   0  0  0  0  0  0
  -30.5329  -23.9735   19.8627 C   0  0  0  0  0  0
  -31.0285  -22.5772   20.2969 C   0  0  0  0  0  0
  -29.3639  -24.3112   20.8015 C   0  0  1  0  0  0
  -30.0342  -20.6151   21.6149 C   0  0  0  0  0  0
  -28.1976  -25.1640   20.1895 C   0  0  0  0  0  0
  -29.9203  -21.9818   21.0354 N   0  0  0  0  0  0
  -29.8932  -15.5930   20.8923 N   0  0  0  0  0  0
  -27.9414  -22.6911   21.9503 O   0  0  0  0  0  0
  -29.2931  -15.8853   17.8408 Cl  0  0  0  0  0  0
  -31.4854  -12.4001   19.1806 H   0  0  0  0  0  0
  -30.3466  -11.3153   19.9249 H   0  0  0  0  0  0
  -29.7483  -11.6029   17.5406 H   0  0  0  0  0  0
  -29.7337  -13.3270   17.6911 H   0  0  0  0  0  0
  -27.8050  -11.2979   18.8398 H   0  0  0  0  0  0
  -27.3973  -12.6212   17.7814 H   0  0  0  0  0  0
  -27.6941  -14.2490   19.5502 H   0  0  0  0  0  0
  -28.6849  -12.0049   21.3735 H   0  0  0  0  0  0
  -28.4620  -13.6608   21.8548 H   0  0  0  0  0  0
  -25.2772   -9.5673   22.4758 H   0  0  0  0  0  0
  -24.0010   -7.4624   22.7459 H   0  0  0  0  0  0
  -21.0835   -8.8810   19.8962 H   0  0  0  0  0  0
  -22.3716  -10.9697   19.6156 H   0  0  0  0  0  0
  -21.2040   -7.6154   23.9722 H   0  0  0  0  0  0
  -21.1465   -6.0513   25.9080 H   0  0  0  0  0  0
  -22.0608   -2.7607   23.2830 H   0  0  0  0  0  0
  -22.4109  -11.9880   22.4787 H   0  0  0  0  0  0
  -21.1150  -13.1279   22.2651 H   0  0  0  0  0  0
  -24.6795  -15.8525   20.5419 H   0  0  0  0  0  0
  -26.2927  -15.6247   20.0979 H   0  0  0  0  0  0
  -26.7107  -32.5516   23.1119 H   0  0  0  0  0  0
  -25.0063  -33.9770   25.0459 H   0  0  0  0  0  0
  -22.6973  -31.3032   21.4027 H   0  0  0  0  0  0
  -23.3758  -35.9634   23.3299 H   0  0  0  0  0  0
  -24.3584  -36.8920   22.2050 H   0  0  0  0  0  0
  -23.7254  -37.6509   23.6653 H   0  0  0  0  0  0
  -26.0545  -31.5867   20.5935 H   0  0  0  0  0  0
  -26.8268  -30.8781   21.9831 H   0  0  0  0  0  0
  -28.1069  -29.0690   21.1803 H   0  0  0  0  0  0
  -26.0286  -25.9600   19.0108 H   0  0  0  0  0  0
  -23.9890  -27.3011   19.0147 H   0  0  0  0  0  0
  -23.7237  -30.5903   19.3978 H   0  0  0  0  0  0
  -22.7465  -29.2326   19.8680 H   0  0  0  0  0  0
  -25.1299  -36.1945   25.0827 H   0  0  0  0  0  0
  -20.9956  -28.3234   24.1418 H   0  0  0  0  0  0
  -20.5652  -26.2273   23.3601 H   0  0  0  0  0  0
  -21.6643  -26.7433   22.1216 H   0  0  0  0  0  0
  -19.6925  -25.6286   21.1233 H   0  0  0  0  0  0
  -19.6713  -27.3177   20.6718 H   0  0  0  0  0  0
  -17.4207  -26.6649   21.4004 H   0  0  0  0  0  0
  -18.0342  -26.0057   22.8999 H   0  0  0  0  0  0
  -19.7930  -30.7231   24.2295 H   0  0  0  0  0  0
  -17.5017  -31.6268   24.5136 H   0  0  0  0  0  0
  -15.5349  -30.2983   23.7650 H   0  0  0  0  0  0
  -15.8658  -28.0811   22.7072 H   0  0  0  0  0  0
  -24.5907  -30.7049   25.7764 H   0  0  0  0  0  0
  -24.8957  -32.2827   26.4935 H   0  0  0  0  0  0
  -25.8104  -30.8798   27.0175 H   0  0  0  0  0  0
  -26.2852  -29.6790   24.1143 H   0  0  0  0  0  0
  -27.4128  -29.7273   25.4497 H   0  0  0  0  0  0
  -27.8660  -30.4371   23.9181 H   0  0  0  0  0  0
  -27.2672  -33.3579   26.2083 H   0  0  0  0  0  0
  -28.3836  -32.6899   25.0277 H   0  0  0  0  0  0
  -28.0748  -31.8400   26.5336 H   0  0  0  0  0  0
  -28.2593  -38.0109   24.7511 H   0  0  0  0  0  0
  -28.1087  -36.2639   24.6277 H   0  0  0  0  0  0
  -27.2296  -37.1442   25.8860 H   0  0  0  0  0  0
  -20.9301  -29.8762   21.6937 H   0  0  0  0  0  0
  -26.0178  -38.2857   24.1413 H   0  0  0  0  0  0
  -29.5671  -20.5670   18.8680 H   0  0  0  0  0  0
  -29.3235  -18.6179   17.4022 H   0  0  0  0  0  0
  -30.2029  -17.9251   22.2334 H   0  0  0  0  0  0
  -30.1897  -23.9313   18.8283 H   0  0  0  0  0  0
  -31.3280  -24.7188   19.9104 H   0  0  0  0  0  0
  -31.8917  -22.6571   20.9588 H   0  0  0  0  0  0
  -31.3213  -21.9711   19.4391 H   0  0  0  0  0  0
  -29.7525  -24.8356   21.6751 H   0  0  0  0  0  0
  -31.0014  -20.5473   22.1142 H   0  0  0  0  0  0
  -29.2936  -20.4933   22.4070 H   0  0  0  0  0  0
  -27.2989  -24.9485   20.7705 H   0  0  0  0  0  0
  -27.9979  -24.8226   19.1734 H   0  0  0  0  0  0
  -29.0382  -15.3230   21.3519 H   0  0  0  0  0  0
  1 25  1  0  0  0
  1 30  2  0  0  0
  1 84  1  0  0  0
  2  3  1  0  0  0
  2 25  1  0  0  0
  2 87  1  0  0  0
  2 88  1  0  0  0
  3  4  1  0  0  0
  3 89  1  0  0  0
  3 90  1  0  0  0
  4  5  1  0  0  0
  4 91  1  0  0  0
  4 92  1  0  0  0
  5  6  1  0  0  0
  5 26  1  0  0  0
  5 93  1  0  0  0
  6 25  1  0  0  0
  6 94  1  0  0  0
  6 95  1  0  0  0
  7  8  2  0  0  0
  7 26  1  0  0  0
  7 29  1  0  0  0
  8  9  1  0  0  0
  8 22  1  0  0  0
  9 10  1  0  0  0
  9 27  2  0  0  0
 10 11  2  0  0  0
 10 15  1  0  0  0
 11 12  1  0  0  0
 11 96  1  0  0  0
 12 13  2  0  0  0
 12 97  1  0  0  0
 13 14  1  0  0  0
 13 31  1  0  0  0
 14 15  2  0  0  0
 14 98  1  0  0  0
 15 99  1  0  0  0
 16 17  2  0  0  0
 16 21  1  0  0  0
 16 31  1  0  0  0
 17 18  1  0  0  0
 17100  1  0  0  0
 18 19  2  0  0  0
 18101  1  0  0  0
 19 20  1  0  0  0
 19 24  1  0  0  0
 20 21  2  0  0  0
 20102  1  0  0  0
 21 23  1  0  0  0
 22 28  1  0  0  0
 22 32  2  0  0  0
 26 27  1  0  0  0
 28103  1  0  0  0
 28104  1  0  0  0
 29105  1  0  0  0
 29106  1  0  0  0
 33 34  1  0  0  0
 33 66  1  0  0  0
 33 70  2  0  0  0
 34 36  1  0  0  0
 34 59  1  0  0  0
 34107  1  0  0  0
 35 44  2  0  0  0
 35 45  1  0  0  0
 35 68  1  0  0  0
 36 56  1  0  0  0
 36108  1  0  0  0
 37 39  1  0  0  0
 37 47  1  0  0  0
 37 66  1  0  0  0
 37109  1  0  0  0
 38 43  2  0  0  0
 38 46  1  0  0  0
 38 47  1  0  0  0
 39 64  1  0  0  0
 39 67  2  0  0  0
 40 52  1  0  0  0
 40 53  2  0  0  0
 40 58  1  0  0  0
 41110  1  0  0  0
 41111  1  0  0  0
 41112  1  0  0  0
 41 48  1  0  0  0
 42 43  1  0  0  0
 42 66  1  0  0  0
 42113  1  0  0  0
 42114  1  0  0  0
 43 44  1  0  0  0
 44115  1  0  0  0
 45 46  2  0  0  0
 45116  1  0  0  0
 46117  1  0  0  0
 47118  1  0  0  0
 47119  1  0  0  0
 48 56  1  0  0  0
 48 65  1  0  0  0
 48120  1  0  0  0
 49 50  1  0  0  0
 49 53  1  0  0  0
 49 64  1  0  0  0
 49121  1  0  0  0
 50 51  1  0  0  0
 50122  1  0  0  0
 50123  1  0  0  0
 51 52  1  0  0  0
 51124  1  0  0  0
 51125  1  0  0  0
 52126  1  0  0  0
 52127  1  0  0  0
 53 54  1  0  0  0
 54 55  2  0  0  0
 54128  1  0  0  0
 55 57  1  0  0  0
 55129  1  0  0  0
 56 69  2  0  0  0
 57 58  2  0  0  0
 57130  1  0  0  0
 58131  1  0  0  0
 59 60  1  0  0  0
 59 61  1  0  0  0
 59 62  1  0  0  0
 60132  1  0  0  0
 60133  1  0  0  0
 60134  1  0  0  0
 61135  1  0  0  0
 61136  1  0  0  0
 61137  1  0  0  0
 62138  1  0  0  0
 62139  1  0  0  0
 62140  1  0  0  0
 63 65  1  0  0  0
 63141  1  0  0  0
 63142  1  0  0  0
 63143  1  0  0  0
 64144  1  0  0  0
 65145  1  0  0  0
 68 82  1  0  0  0
 71 72  2  0  0  0
 71 74  1  0  0  0
 71146  1  0  0  0
 72 76  1  0  0  0
 72147  1  0  0  0
 73 74  2  0  0  0
 73 75  1  0  0  0
 73148  1  0  0  0
 74 81  1  0  0  0
 75 76  2  0  0  0
 75 84  1  0  0  0
 76 86  1  0  0  0
 77 80  1  0  0  0
 77 83  1  0  0  0
 77 85  2  0  0  0
 78 79  1  0  0  0
 78 80  1  0  0  0
 78149  1  0  0  0
 78150  1  0  0  0
 79 83  1  0  0  0
 79151  1  0  0  0
 79152  1  0  0  0
 80 82  1  0  0  0
 80153  1  0  0  0
 81 83  1  0  0  0
 81154  1  0  0  0
 81155  1  0  0  0
 82156  1  0  0  0
 82157  1  0  0  0
 84158  1  0  0  0
M  ISO  4   1 100  68 101  82 101  84 100
M  END
> <chiral flag>
0

> <version>
0

> <s_m_source_file>
/data/baiqing/PycharmProjects/Reinvent-master-3.2/result/LINK_invent/BTK/process_docking_weight1_custom_product_contain_oxygen_bond_distance_aromatic_linkinvent_7_9_3/rearranged_h_0054.sdf

> <i_m_source_file_index>
78

> <r_mmod_Potential_Energy-OPLS-2005>
2.17458820343018

> <r_mmod_Stretch_Energy-OPLS-2005>
50.7825775146484

> <r_mmod_Bend_Energy-OPLS-2005>
129.819915771484

> <r_mmod_Torsional_Energy-OPLS-2005>
273.151458740234

> <r_mmod_Improper_Torsional_Energy-OPLS-2005>
5.82397127151489

> <r_mmod_Van_der_Waal_Energy-OPLS-2005>
145.555603027344

> <r_mmod_Electrostatic_Energy-OPLS-2005>
-398.932525634766

> <r_mmod_Solvation_Energy-OPLS-2005>
-230.285446166992

> <b_mmod_Minimization_Converged-OPLS-2005>
0

> <r_mmod_RMS_Derivative-OPLS-2005>
2.13382411003113

$$$$
78
                    3D
 Structure written by MMmdl.
157165  0  0  1  0            999 V2000
  -29.7341  -14.6334   19.9325 C   0  0  0  0  0  0
  -30.4613  -12.3756   19.3464 C   0  0  0  0  0  0
  -29.4341  -12.0368   18.2368 C   0  0  0  0  0  0
  -28.0460  -11.5909   18.8850 C   0  0  0  0  0  0
  -27.6692  -12.5096   20.0874 C   0  0  2  0  0  0
  -28.8238  -12.7385   21.0685 C   0  0  0  0  0  0
  -24.8610  -14.5260   20.6189 C   0  0  0  0  0  0
  -24.2338  -14.0756   20.8757 C   0  0  0  0  0  0
  -25.4301  -12.1644   20.8063 C   0  0  0  0  0  0
  -24.6493  -10.4734   20.8385 C   0  0  0  0  0  0
  -24.6830   -9.5505   21.9634 C   0  0  0  0  0  0
  -23.8069   -8.4124   22.2076 C   0  0  0  0  0  0
  -22.6724   -8.1128   21.4042 C   0  0  0  0  0  0
  -22.5165   -8.9686   20.3213 C   0  0  0  0  0  0
  -23.5179   -9.9401   20.0288 C   0  0  0  0  0  0
  -21.7620   -6.1477   22.5527 C   0  0  0  0  0  0
  -21.4513   -6.6003   23.8521 C   0  0  0  0  0  0
  -21.3773   -5.6906   24.9265 C   0  0  0  0  0  0
  -21.6013   -4.3190   24.7094 C   0  0  0  0  0  0
  -21.8744   -3.8519   23.4121 C   0  0  0  0  0  0
  -21.9433   -4.7583   22.3351 C   0  0  0  0  0  0
  -22.6122  -14.4577   20.9819 C   0  0  0  0  0  0
  -22.1769   -4.2801   21.0882 F   0  0  0  0  0  0
  -21.5493   -3.4512   25.7483 F   0  0  0  0  0  0
  -29.8199  -13.3330   20.2609 N   0  0  0  0  0  0
  -26.1721  -12.9045   20.7266 N   0  0  0  0  0  0
  -26.3605  -11.8796   21.4544 N   0  0  0  0  0  0
  -21.6776  -13.8065   21.7323 N   0  0  0  0  0  0
  -24.7551  -15.9039   20.1958 N   0  0  0  0  0  0
  -30.8653  -15.1795   19.8606 O   0  0  0  0  0  0
  -21.7937   -7.0306   21.4933 O   0  0  0  0  0  0
  -22.1258  -15.2784   20.2537 O   0  0  0  0  0  0
  -24.6802  -31.8022   23.1597 C   0  0  0  0  0  0
  -25.9420  -32.4452   23.8087 C   0  0  1  0  0  0
  -26.9574  -26.5791   20.3741 C   0  0  0  0  0  0
  -25.6027  -33.8289   24.1965 N   0  0  0  0  0  0
  -23.4946  -30.4227   21.5101 C   0  0  2  0  0  0
  -24.9158  -28.7661   20.1020 C   0  0  0  0  0  0
  -22.7704  -29.4361   22.4665 C   0  0  0  0  0  0
  -18.0329  -28.1413   22.8456 C   0  0  0  0  0  0
  -24.1498  -36.7141   23.2652 C   0  0  0  0  0  0
  -26.0719  -30.5017   21.4390 C   0  0  0  0  0  0
  -26.0895  -29.0609   20.8030 C   0  0  0  0  0  0
  -27.1143  -27.9873   20.9081 C   0  0  0  0  0  0
  -25.8419  -26.5390   19.5158 C   0  0  0  0  0  0
  -24.8476  -27.5475   19.4110 C   0  0  0  0  0  0
  -23.7414  -29.7501   20.1287 C   0  0  0  0  0  0
  -25.4151  -36.2888   24.0280 C   0  0  1  0  0  0
  -20.5959  -28.3773   23.1134 C   0  0  2  0  0  0
  -20.6796  -26.9437   22.5390 C   0  0  0  0  0  0
  -19.5774  -26.6367   21.5204 C   0  0  0  0  0  0
  -18.1958  -26.7942   22.1613 C   0  0  0  0  0  0
  -19.1594  -28.8915   23.2785 C   0  0  0  0  0  0
  -18.9506  -30.1499   23.8830 C   0  0  0  0  0  0
  -17.6501  -30.6601   24.0551 C   0  0  0  0  0  0
  -25.9138  -34.9279   23.4955 C   0  0  0  0  0  0
  -16.5390  -29.9085   23.6349 C   0  0  0  0  0  0
  -16.7310  -28.6503   23.0370 C   0  0  0  0  0  0
  -26.4603  -31.6499   25.0712 C   0  0  0  0  0  0
  -25.3672  -31.3828   26.1330 C   0  0  0  0  0  0
  -27.0547  -30.2831   24.6653 C   0  0  0  0  0  0
  -27.6041  -32.4377   25.7526 C   0  0  0  0  0  0
  -27.5562  -37.1732   24.8465 C   0  0  0  0  0  0
  -21.4360  -29.3034   22.3438 N   0  0  0  0  0  0
  -26.4271  -37.3653   23.9406 N   0  0  0  0  0  0
  -24.7737  -30.9462   22.0866 N   0  0  0  0  0  0
  -23.4190  -28.7948   23.2969 O   0  0  0  0  0  0
  -27.6722  -25.2365   20.6631 O   0  0  0  0  0  0
  -26.5769  -34.8857   22.4567 O   0  0  0  0  0  0
  -23.5841  -32.1153   23.6550 O   0  0  0  0  0  0
  -25.3320  -13.5246   18.6686 C   0  0  0  0  0  0
  -23.6362  -12.4546   19.5869 C   0  0  0  0  0  0
  -25.3148  -13.7200   22.8427 C   0  0  0  0  0  0
  -26.7175  -14.9772   21.7494 C   0  0  0  0  0  0
  -26.8901  -14.7896   19.7123 C   0  0  0  0  0  0
  -23.6925  -12.3919   22.0926 C   0  0  0  0  0  0
  -27.4182  -19.8740   21.2023 C   0  0  0  0  0  0
  -25.4290  -18.7001   22.1354 C   0  0  0  0  0  0
  -27.2094  -16.7787   22.0318 C   0  0  0  0  0  0
  -27.0679  -21.7321   21.3642 C   0  0  0  0  0  0
  -27.2937  -23.4899   20.4835 C   0  0  0  0  0  0
  -28.4273  -15.1255   19.4325 N   0  0  0  0  0  0
  -26.7910  -18.5001   21.6547 N   0  0  0  0  0  0
  -28.4981  -19.7102   20.6311 O   0  0  0  0  0  0
  -22.7952  -11.7544   22.8873 F   0  0  0  0  0  0
  -31.3716  -12.7911   18.9094 H   0  0  0  0  0  0
  -30.7651  -11.4745   19.8818 H   0  0  0  0  0  0
  -29.8214  -11.2379   17.6034 H   0  0  0  0  0  0
  -29.2948  -12.8934   17.5744 H   0  0  0  0  0  0
  -28.1821  -10.5888   19.2932 H   0  0  0  0  0  0
  -27.2628  -11.4544   18.1249 H   0  0  0  0  0  0
  -27.7374  -12.9707   19.1352 H   0  0  0  0  0  0
  -29.1686  -11.7907   21.4847 H   0  0  0  0  0  0
  -28.5914  -13.3657   21.9263 H   0  0  0  0  0  0
  -25.4247   -9.7512   22.7236 H   0  0  0  0  0  0
  -24.0047   -7.7995   23.0752 H   0  0  0  0  0  0
  -21.7447   -8.7605   19.5931 H   0  0  0  0  0  0
  -23.4274  -10.2360   18.9976 H   0  0  0  0  0  0
  -21.2752   -7.6516   24.0287 H   0  0  0  0  0  0
  -21.1532   -6.0469   25.9214 H   0  0  0  0  0  0
  -22.0279   -2.7978   23.2397 H   0  0  0  0  0  0
  -21.9247  -13.0260   22.3331 H   0  0  0  0  0  0
  -20.7108  -14.0876   21.6743 H   0  0  0  0  0  0
  -23.8397  -16.3318   20.0963 H   0  0  0  0  0  0
  -25.4950  -16.4089   19.7276 H   0  0  0  0  0  0
  -26.7469  -32.4881   23.0759 H   0  0  0  0  0  0
  -25.0102  -33.9335   25.0069 H   0  0  0  0  0  0
  -22.8210  -31.2655   21.3396 H   0  0  0  0  0  0
  -23.3779  -35.9450   23.3269 H   0  0  0  0  0  0
  -24.3560  -36.8847   22.2073 H   0  0  0  0  0  0
  -23.7243  -37.6304   23.6756 H   0  0  0  0  0  0
  -26.2963  -31.2128   20.6429 H   0  0  0  0  0  0
  -26.9228  -30.5558   22.1043 H   0  0  0  0  0  0
  -27.9723  -28.1815   21.5358 H   0  0  0  0  0  0
  -25.6394  -25.6102   19.0029 H   0  0  0  0  0  0
  -23.9725  -27.3330   18.8126 H   0  0  0  0  0  0
  -23.9434  -30.5233   19.3868 H   0  0  0  0  0  0
  -22.8341  -29.2500   19.7850 H   0  0  0  0  0  0
  -25.1361  -36.1648   25.0769 H   0  0  0  0  0  0
  -21.0064  -28.3406   24.1253 H   0  0  0  0  0  0
  -20.5652  -26.2407   23.3654 H   0  0  0  0  0  0
  -21.6662  -26.7383   22.1220 H   0  0  0  0  0  0
  -19.6933  -25.6258   21.1286 H   0  0  0  0  0  0
  -19.6709  -27.3135   20.6700 H   0  0  0  0  0  0
  -17.4223  -26.6680   21.4022 H   0  0  0  0  0  0
  -18.0355  -26.0094   22.9019 H   0  0  0  0  0  0
  -19.7985  -30.7324   24.2171 H   0  0  0  0  0  0
  -17.5057  -31.6275   24.5168 H   0  0  0  0  0  0
  -15.5391  -30.2972   23.7708 H   0  0  0  0  0  0
  -15.8706  -28.0800   22.7132 H   0  0  0  0  0  0
  -24.5880  -30.7141   25.7652 H   0  0  0  0  0  0
  -24.8837  -32.3054   26.4550 H   0  0  0  0  0  0
  -25.7859  -30.9141   27.0244 H   0  0  0  0  0  0
  -26.3266  -29.6409   24.1688 H   0  0  0  0  0  0
  -27.3988  -29.7317   25.5414 H   0  0  0  0  0  0
  -27.9253  -30.3940   24.0187 H   0  0  0  0  0  0
  -27.2556  -33.3736   26.1910 H   0  0  0  0  0  0
  -28.3952  -32.6851   25.0434 H   0  0  0  0  0  0
  -28.0603  -31.8648   26.5611 H   0  0  0  0  0  0
  -28.2547  -38.0057   24.7520 H   0  0  0  0  0  0
  -28.1092  -36.2582   24.6290 H   0  0  0  0  0  0
  -27.2273  -37.1363   25.8865 H   0  0  0  0  0  0
  -20.9630  -29.8719   21.6551 H   0  0  0  0  0  0
  -26.0094  -38.2696   24.1427 H   0  0  0  0  0  0
  -25.4301  -13.4302   17.5965 H   0  0  0  0  0  0
  -22.8232  -12.0774   18.9828 H   0  0  0  0  0  0
  -25.2697  -13.9028   23.9058 H   0  0  0  0  0  0
  -24.8824  -19.4185   21.5219 H   0  0  0  0  0  0
  -25.4436  -19.0649   23.1624 H   0  0  0  0  0  0
  -24.8623  -17.7700   22.1220 H   0  0  0  0  0  0
  -28.2549  -16.7581   21.7259 H   0  0  0  0  0  0
  -27.2764  -16.8070   23.1190 H   0  0  0  0  0  0
  -27.6058  -21.9053   22.2949 H   0  0  0  0  0  0
  -26.0278  -21.7399   21.6858 H   0  0  0  0  0  0
  -26.3600  -23.5597   19.9251 H   0  0  0  0  0  0
  -28.0176  -23.2366   19.7090 H   0  0  0  0  0  0
  -28.5455  -15.9970   18.9349 H   0  0  0  0  0  0
  1 25  1  0  0  0
  1 30  2  0  0  0
  1 82  1  0  0  0
  2  3  1  0  0  0
  2 25  1  0  0  0
  2 86  1  0  0  0
  2 87  1  0  0  0
  3  4  1  0  0  0
  3 88  1  0  0  0
  3 89  1  0  0  0
  4  5  1  0  0  0
  4 90  1  0  0  0
  4 91  1  0  0  0
  5  6  1  0  0  0
  5 26  1  0  0  0
  5 92  1  0  0  0
  6 25  1  0  0  0
  6 93  1  0  0  0
  6 94  1  0  0  0
  7  8  2  0  0  0
  7 26  1  0  0  0
  7 29  1  0  0  0
  8  9  1  0  0  0
  8 22  1  0  0  0
  9 10  1  0  0  0
  9 27  2  0  0  0
 10 11  2  0  0  0
 10 15  1  0  0  0
 11 12  1  0  0  0
 11 95  1  0  0  0
 12 13  2  0  0  0
 12 96  1  0  0  0
 13 14  1  0  0  0
 13 31  1  0  0  0
 14 15  2  0  0  0
 14 97  1  0  0  0
 15 98  1  0  0  0
 16 17  2  0  0  0
 16 21  1  0  0  0
 16 31  1  0  0  0
 17 18  1  0  0  0
 17 99  1  0  0  0
 18 19  2  0  0  0
 18100  1  0  0  0
 19 20  1  0  0  0
 19 24  1  0  0  0
 20 21  2  0  0  0
 20101  1  0  0  0
 21 23  1  0  0  0
 22 28  1  0  0  0
 22 32  2  0  0  0
 26 27  1  0  0  0
 28102  1  0  0  0
 28103  1  0  0  0
 29104  1  0  0  0
 29105  1  0  0  0
 33 34  1  0  0  0
 33 66  1  0  0  0
 33 70  2  0  0  0
 34 36  1  0  0  0
 34 59  1  0  0  0
 34106  1  0  0  0
 35 44  2  0  0  0
 35 45  1  0  0  0
 35 68  1  0  0  0
 36 56  1  0  0  0
 36107  1  0  0  0
 37 39  1  0  0  0
 37 47  1  0  0  0
 37 66  1  0  0  0
 37108  1  0  0  0
 38 43  2  0  0  0
 38 46  1  0  0  0
 38 47  1  0  0  0
 39 64  1  0  0  0
 39 67  2  0  0  0
 40 52  1  0  0  0
 40 53  2  0  0  0
 40 58  1  0  0  0
 41109  1  0  0  0
 41110  1  0  0  0
 41111  1  0  0  0
 41 48  1  0  0  0
 42 43  1  0  0  0
 42 66  1  0  0  0
 42112  1  0  0  0
 42113  1  0  0  0
 43 44  1  0  0  0
 44114  1  0  0  0
 45 46  2  0  0  0
 45115  1  0  0  0
 46116  1  0  0  0
 47117  1  0  0  0
 47118  1  0  0  0
 48 56  1  0  0  0
 48 65  1  0  0  0
 48119  1  0  0  0
 49 50  1  0  0  0
 49 53  1  0  0  0
 49 64  1  0  0  0
 49120  1  0  0  0
 50 51  1  0  0  0
 50121  1  0  0  0
 50122  1  0  0  0
 51 52  1  0  0  0
 51123  1  0  0  0
 51124  1  0  0  0
 52125  1  0  0  0
 52126  1  0  0  0
 53 54  1  0  0  0
 54 55  2  0  0  0
 54127  1  0  0  0
 55 57  1  0  0  0
 55128  1  0  0  0
 56 69  2  0  0  0
 57 58  2  0  0  0
 57129  1  0  0  0
 58130  1  0  0  0
 59 60  1  0  0  0
 59 61  1  0  0  0
 59 62  1  0  0  0
 60131  1  0  0  0
 60132  1  0  0  0
 60133  1  0  0  0
 61134  1  0  0  0
 61135  1  0  0  0
 61136  1  0  0  0
 62137  1  0  0  0
 62138  1  0  0  0
 62139  1  0  0  0
 63 65  1  0  0  0
 63140  1  0  0  0
 63141  1  0  0  0
 63142  1  0  0  0
 64143  1  0  0  0
 65144  1  0  0  0
 68 81  1  0  0  0
 71 72  2  0  0  0
 71 75  1  0  0  0
 71145  1  0  0  0
 72 76  1  0  0  0
 72146  1  0  0  0
 73 74  1  0  0  0
 73 76  2  0  0  0
 73147  1  0  0  0
 74 75  2  0  0  0
 74 79  1  0  0  0
 75 82  1  0  0  0
 76 85  1  0  0  0
 77 80  1  0  0  0
 77 83  1  0  0  0
 77 84  2  0  0  0
 78 83  1  0  0  0
 78148  1  0  0  0
 78149  1  0  0  0
 78150  1  0  0  0
 79 83  1  0  0  0
 79151  1  0  0  0
 79152  1  0  0  0
 80 81  1  0  0  0
 80153  1  0  0  0
 80154  1  0  0  0
 81155  1  0  0  0
 81156  1  0  0  0
 82157  1  0  0  0
M  ISO  4   1 100  68 101  81 101  82 100
M  END
> <chiral flag>
0

> <version>
0

> <s_m_source_file>
/data/baiqing/PycharmProjects/Reinvent-master-3.2/result/LINK_invent/BTK/process_docking_weight1_custom_product_contain_oxygen_bond_distance_aromatic_linkinvent_7_9_3/rearranged_h_0054.sdf

> <i_m_source_file_index>
79

> <r_mmod_Potential_Energy-OPLS-2005>
21660.564453125

> <r_mmod_Stretch_Energy-OPLS-2005>
13276.552734375

> <r_mmod_Bend_Energy-OPLS-2005>
1649.13891601562

> <r_mmod_Torsional_Energy-OPLS-2005>
594.104309082031

> <r_mmod_Improper_Torsional_Energy-OPLS-2005>
55.1069412231445

> <r_mmod_Van_der_Waal_Energy-OPLS-2005>
4737.49560546875

> <r_mmod_Electrostatic_Energy-OPLS-2005>
-422.727447509766

> <r_mmod_Solvation_Energy-OPLS-2005>
-223.305450439453

> <b_mmod_Minimization_Converged-OPLS-2005>
0

> <r_mmod_RMS_Derivative-OPLS-2005>
3.52889776229858

$$$$
79
                    3D
 Structure written by MMmdl.
166174  0  0  1  0            999 V2000
  -30.7357  -14.4885   20.5815 C   0  0  0  0  0  0
  -30.4065  -12.3248   19.4313 C   0  0  0  0  0  0
  -29.4890  -12.5051   18.2072 C   0  0  0  0  0  0
  -28.0120  -12.3633   18.6196 C   0  0  0  0  0  0
  -27.6517  -13.2194   19.8633 C   0  0  2  0  0  0
  -28.6911  -13.0454   20.9892 C   0  0  0  0  0  0
  -25.2553  -13.8198   20.5686 C   0  0  0  0  0  0
  -24.1821  -13.0454   20.9183 C   0  0  0  0  0  0
  -24.6391  -11.6924   20.8734 C   0  0  0  0  0  0
  -23.9065  -10.4301   21.0402 C   0  0  0  0  0  0
  -24.3617   -9.4214   21.9180 C   0  0  0  0  0  0
  -23.6293   -8.2248   22.0755 C   0  0  0  0  0  0
  -22.4275   -8.0285   21.3547 C   0  0  0  0  0  0
  -21.9909   -9.0259   20.4651 C   0  0  0  0  0  0
  -22.7238  -10.2137   20.3054 C   0  0  0  0  0  0
  -21.6855   -6.0735   22.5279 C   0  0  0  0  0  0
  -21.4016   -6.5640   23.8212 C   0  0  0  0  0  0
  -21.3657   -5.6794   24.9173 C   0  0  0  0  0  0
  -21.6045   -4.3057   24.7225 C   0  0  0  0  0  0
  -21.8818   -3.8147   23.4347 C   0  0  0  0  0  0
  -21.9192   -4.6960   22.3402 C   0  0  0  0  0  0
  -22.7845  -13.5241   21.1845 C   0  0  0  0  0  0
  -22.1660   -4.2145   21.0979 F   0  0  0  0  0  0
  -21.5628   -3.4541   25.7737 F   0  0  0  0  0  0
  -30.0165  -13.3393   20.4273 N   0  0  0  0  0  0
  -26.2978  -12.9384   20.3321 N   0  0  0  0  0  0
  -25.9317  -11.6534   20.5751 N   0  0  0  0  0  0
  -22.0491  -12.8232   22.0399 N   0  0  0  0  0  0
  -25.4281  -15.1916   20.4101 N   0  0  0  0  0  0
  -31.8815  -14.5850   20.1313 O   0  0  0  0  0  0
  -21.6642   -6.8878   21.4240 O   0  0  0  0  0  0
  -22.3522  -14.5542   20.6688 O   0  0  0  0  0  0
  -24.6165  -31.8669   23.2078 C   0  0  0  0  0  0
  -25.9052  -32.4814   23.8383 C   0  0  1  0  0  0
  -27.2240  -27.4167   20.1056 C   0  0  0  0  0  0
  -25.5904  -33.8613   24.2321 N   0  0  0  0  0  0
  -23.4043  -30.4910   21.5493 C   0  0  2  0  0  0
  -24.8487  -28.9509   20.1166 C   0  0  0  0  0  0
  -22.7414  -29.4666   22.4986 C   0  0  0  0  0  0
  -18.0278  -28.1383   22.8494 C   0  0  0  0  0  0
  -24.1487  -36.7315   23.2638 C   0  0  0  0  0  0
  -25.9340  -30.8290   21.3602 C   0  0  0  0  0  0
  -26.0108  -29.4604   20.7106 C   0  0  0  0  0  0
  -27.2053  -28.7019   20.6987 C   0  0  0  0  0  0
  -26.0486  -26.9240   19.5049 C   0  0  0  0  0  0
  -24.8623  -27.6822   19.5106 C   0  0  0  0  0  0
  -23.6129  -29.8213   20.1647 C   0  0  0  0  0  0
  -25.4107  -36.3109   24.0338 C   0  0  1  0  0  0
  -20.5870  -28.3673   23.1319 C   0  0  2  0  0  0
  -20.6773  -26.9411   22.5420 C   0  0  0  0  0  0
  -19.5750  -26.6392   21.5218 C   0  0  0  0  0  0
  -18.1926  -26.7931   22.1627 C   0  0  0  0  0  0
  -19.1526  -28.8845   23.2902 C   0  0  0  0  0  0
  -18.9450  -30.1450   23.8915 C   0  0  0  0  0  0
  -17.6451  -30.6587   24.0573 C   0  0  0  0  0  0
  -25.9036  -34.9472   23.5127 C   0  0  0  0  0  0
  -16.5344  -29.9092   23.6326 C   0  0  0  0  0  0
  -16.7267  -28.6509   23.0345 C   0  0  0  0  0  0
  -26.4477  -31.6588   25.0710 C   0  0  0  0  0  0
  -25.3746  -31.3683   26.1458 C   0  0  0  0  0  0
  -27.0298  -30.3032   24.6074 C   0  0  0  0  0  0
  -27.6064  -32.4294   25.7467 C   0  0  0  0  0  0
  -27.5578  -37.1811   24.8464 C   0  0  0  0  0  0
  -21.4142  -29.3036   22.3718 N   0  0  0  0  0  0
  -26.4294  -37.3792   23.9405 N   0  0  0  0  0  0
  -24.6705  -31.0765   22.0980 N   0  0  0  0  0  0
  -23.4180  -28.8215   23.3038 O   0  0  0  0  0  0
  -28.3725  -26.6548   20.0920 O   0  0  0  0  0  0
  -26.5594  -34.8929   22.4688 O   0  0  0  0  0  0
  -23.5354  -32.1423   23.7469 O   0  0  0  0  0  0
  -30.7314  -18.5441   18.9717 C   0  0  0  0  0  0
  -29.8988  -19.5172   19.5300 C   0  0  0  0  0  0
  -30.7539  -17.2478   19.4997 C   0  0  0  0  0  0
  -29.0186  -19.1959   20.5833 C   0  0  0  0  0  0
  -29.0206  -17.8532   21.1106 C   0  0  0  0  0  0
  -29.9518  -16.8662   20.6100 C   0  0  0  0  0  0
  -28.4178  -22.8081   20.8695 C   0  0  0  0  0  0
  -28.1929  -17.9595   23.5759 C   0  0  0  0  0  0
  -30.3662  -15.5177   22.6781 C   0  0  0  0  0  0
  -27.3238  -21.4903   19.0822 C   0  0  0  0  0  0
  -27.9534  -17.4572   22.1397 C   0  0  0  0  0  0
  -28.1045  -20.3217   21.1357 C   0  0  0  0  0  0
  -28.2095  -24.1133   20.0428 C   0  0  0  0  0  0
  -28.3263  -25.4349   20.8653 C   0  0  0  0  0  0
  -30.1474  -15.5445   21.2228 N   0  0  0  0  0  0
  -28.0113  -21.6014   20.3729 N   0  0  0  0  0  0
  -28.9593  -22.8989   21.9754 O   0  0  0  0  0  0
  -31.4533  -12.3991   19.1318 H   0  0  0  0  0  0
  -30.2939  -11.3249   19.8535 H   0  0  0  0  0  0
  -29.7357  -11.7713   17.4390 H   0  0  0  0  0  0
  -29.6551  -13.4863   17.7596 H   0  0  0  0  0  0
  -27.8288  -11.3091   18.8304 H   0  0  0  0  0  0
  -27.3607  -12.6229   17.7842 H   0  0  0  0  0  0
  -27.6833  -14.2618   19.5458 H   0  0  0  0  0  0
  -28.6741  -12.0261   21.3771 H   0  0  0  0  0  0
  -28.4423  -13.6879   21.8330 H   0  0  0  0  0  0
  -25.2762   -9.5689   22.4756 H   0  0  0  0  0  0
  -24.0004   -7.4637   22.7475 H   0  0  0  0  0  0
  -21.0841   -8.8777   19.8959 H   0  0  0  0  0  0
  -22.3697  -10.9674   19.6163 H   0  0  0  0  0  0
  -21.2012   -7.6151   23.9712 H   0  0  0  0  0  0
  -21.1482   -6.0527   25.9075 H   0  0  0  0  0  0
  -22.0600   -2.7609   23.2849 H   0  0  0  0  0  0
  -22.4112  -11.9894   22.4786 H   0  0  0  0  0  0
  -21.1109  -13.1259   22.2604 H   0  0  0  0  0  0
  -24.6652  -15.8504   20.5191 H   0  0  0  0  0  0
  -26.2858  -15.6256   20.0939 H   0  0  0  0  0  0
  -26.7132  -32.5524   23.1154 H   0  0  0  0  0  0
  -25.0062  -33.9774   25.0472 H   0  0  0  0  0  0
  -22.6944  -31.3089   21.4092 H   0  0  0  0  0  0
  -23.3745  -35.9652   23.3302 H   0  0  0  0  0  0
  -24.3585  -36.8922   22.2051 H   0  0  0  0  0  0
  -23.7242  -37.6524   23.6648 H   0  0  0  0  0  0
  -26.0419  -31.5917   20.5875 H   0  0  0  0  0  0
  -26.8239  -30.8875   21.9752 H   0  0  0  0  0  0
  -28.1042  -29.0901   21.1578 H   0  0  0  0  0  0
  -26.0469  -25.9556   19.0276 H   0  0  0  0  0  0
  -23.9684  -27.2851   19.0485 H   0  0  0  0  0  0
  -23.7251  -30.5957   19.4051 H   0  0  0  0  0  0
  -22.7350  -29.2440   19.8681 H   0  0  0  0  0  0
  -25.1283  -36.1974   25.0832 H   0  0  0  0  0  0
  -20.9966  -28.3244   24.1437 H   0  0  0  0  0  0
  -20.5686  -26.2283   23.3608 H   0  0  0  0  0  0
  -21.6643  -26.7459   22.1204 H   0  0  0  0  0  0
  -19.6911  -25.6305   21.1235 H   0  0  0  0  0  0
  -19.6689  -27.3219   20.6761 H   0  0  0  0  0  0
  -17.4200  -26.6687   21.4025 H   0  0  0  0  0  0
  -18.0319  -26.0072   22.9020 H   0  0  0  0  0  0
  -19.7928  -30.7261   24.2288 H   0  0  0  0  0  0
  -17.5010  -31.6269   24.5173 H   0  0  0  0  0  0
  -15.5344  -30.3002   23.7634 H   0  0  0  0  0  0
  -15.8671  -28.0836   22.7040 H   0  0  0  0  0  0
  -24.5941  -30.7003   25.7796 H   0  0  0  0  0  0
  -24.8914  -32.2829   26.4903 H   0  0  0  0  0  0
  -25.8111  -30.8863   27.0216 H   0  0  0  0  0  0
  -26.2832  -29.6798   24.1143 H   0  0  0  0  0  0
  -27.4088  -29.7257   25.4513 H   0  0  0  0  0  0
  -27.8658  -30.4343   23.9201 H   0  0  0  0  0  0
  -27.2700  -33.3589   26.2068 H   0  0  0  0  0  0
  -28.3865  -32.6851   25.0285 H   0  0  0  0  0  0
  -28.0747  -31.8398   26.5358 H   0  0  0  0  0  0
  -28.2602  -38.0103   24.7510 H   0  0  0  0  0  0
  -28.1067  -36.2635   24.6292 H   0  0  0  0  0  0
  -27.2298  -37.1465   25.8869 H   0  0  0  0  0  0
  -20.9301  -29.8749   21.6935 H   0  0  0  0  0  0
  -26.0181  -38.2869   24.1409 H   0  0  0  0  0  0
  -31.3810  -18.8002   18.1464 H   0  0  0  0  0  0
  -29.9389  -20.5139   19.1158 H   0  0  0  0  0  0
  -31.4554  -16.5801   19.0270 H   0  0  0  0  0  0
  -27.4341  -17.5557   24.2470 H   0  0  0  0  0  0
  -28.1352  -19.0415   23.6590 H   0  0  0  0  0  0
  -29.1614  -17.6597   23.9686 H   0  0  0  0  0  0
  -30.7778  -16.4674   23.0192 H   0  0  0  0  0  0
  -31.0816  -14.7551   22.9966 H   0  0  0  0  0  0
  -29.4448  -15.3178   23.2221 H   0  0  0  0  0  0
  -27.9062  -21.9515   18.2833 H   0  0  0  0  0  0
  -26.3469  -21.9730   19.1208 H   0  0  0  0  0  0
  -27.1571  -20.4501   18.7992 H   0  0  0  0  0  0
  -27.8255  -16.3758   22.1436 H   0  0  0  0  0  0
  -26.9840  -17.8153   21.7958 H   0  0  0  0  0  0
  -28.4379  -20.5285   22.1507 H   0  0  0  0  0  0
  -27.0873  -19.9454   21.2348 H   0  0  0  0  0  0
  -27.2363  -24.0887   19.5575 H   0  0  0  0  0  0
  -28.9563  -24.1187   19.2500 H   0  0  0  0  0  0
  -29.2534  -25.4188   21.4397 H   0  0  0  0  0  0
  -27.5260  -25.4770   21.6075 H   0  0  0  0  0  0
  1 25  1  0  0  0
  1 30  2  0  0  0
  1 85  1  0  0  0
  2  3  1  0  0  0
  2 25  1  0  0  0
  2 88  1  0  0  0
  2 89  1  0  0  0
  3  4  1  0  0  0
  3 90  1  0  0  0
  3 91  1  0  0  0
  4  5  1  0  0  0
  4 92  1  0  0  0
  4 93  1  0  0  0
  5  6  1  0  0  0
  5 26  1  0  0  0
  5 94  1  0  0  0
  6 25  1  0  0  0
  6 95  1  0  0  0
  6 96  1  0  0  0
  7  8  2  0  0  0
  7 26  1  0  0  0
  7 29  1  0  0  0
  8  9  1  0  0  0
  8 22  1  0  0  0
  9 10  1  0  0  0
  9 27  2  0  0  0
 10 11  2  0  0  0
 10 15  1  0  0  0
 11 12  1  0  0  0
 11 97  1  0  0  0
 12 13  2  0  0  0
 12 98  1  0  0  0
 13 14  1  0  0  0
 13 31  1  0  0  0
 14 15  2  0  0  0
 14 99  1  0  0  0
 15100  1  0  0  0
 16 17  2  0  0  0
 16 21  1  0  0  0
 16 31  1  0  0  0
 17 18  1  0  0  0
 17101  1  0  0  0
 18 19  2  0  0  0
 18102  1  0  0  0
 19 20  1  0  0  0
 19 24  1  0  0  0
 20 21  2  0  0  0
 20103  1  0  0  0
 21 23  1  0  0  0
 22 28  1  0  0  0
 22 32  2  0  0  0
 26 27  1  0  0  0
 28104  1  0  0  0
 28105  1  0  0  0
 29106  1  0  0  0
 29107  1  0  0  0
 33 34  1  0  0  0
 33 66  1  0  0  0
 33 70  2  0  0  0
 34 36  1  0  0  0
 34 59  1  0  0  0
 34108  1  0  0  0
 35 44  2  0  0  0
 35 45  1  0  0  0
 35 68  1  0  0  0
 36 56  1  0  0  0
 36109  1  0  0  0
 37 39  1  0  0  0
 37 47  1  0  0  0
 37 66  1  0  0  0
 37110  1  0  0  0
 38 43  2  0  0  0
 38 46  1  0  0  0
 38 47  1  0  0  0
 39 64  1  0  0  0
 39 67  2  0  0  0
 40 52  1  0  0  0
 40 53  2  0  0  0
 40 58  1  0  0  0
 41111  1  0  0  0
 41112  1  0  0  0
 41113  1  0  0  0
 41 48  1  0  0  0
 42 43  1  0  0  0
 42 66  1  0  0  0
 42114  1  0  0  0
 42115  1  0  0  0
 43 44  1  0  0  0
 44116  1  0  0  0
 45 46  2  0  0  0
 45117  1  0  0  0
 46118  1  0  0  0
 47119  1  0  0  0
 47120  1  0  0  0
 48 56  1  0  0  0
 48 65  1  0  0  0
 48121  1  0  0  0
 49 50  1  0  0  0
 49 53  1  0  0  0
 49 64  1  0  0  0
 49122  1  0  0  0
 50 51  1  0  0  0
 50123  1  0  0  0
 50124  1  0  0  0
 51 52  1  0  0  0
 51125  1  0  0  0
 51126  1  0  0  0
 52127  1  0  0  0
 52128  1  0  0  0
 53 54  1  0  0  0
 54 55  2  0  0  0
 54129  1  0  0  0
 55 57  1  0  0  0
 55130  1  0  0  0
 56 69  2  0  0  0
 57 58  2  0  0  0
 57131  1  0  0  0
 58132  1  0  0  0
 59 60  1  0  0  0
 59 61  1  0  0  0
 59 62  1  0  0  0
 60133  1  0  0  0
 60134  1  0  0  0
 60135  1  0  0  0
 61136  1  0  0  0
 61137  1  0  0  0
 61138  1  0  0  0
 62139  1  0  0  0
 62140  1  0  0  0
 62141  1  0  0  0
 63 65  1  0  0  0
 63142  1  0  0  0
 63143  1  0  0  0
 63144  1  0  0  0
 64145  1  0  0  0
 65146  1  0  0  0
 68 84  1  0  0  0
 71 72  2  0  0  0
 71 73  1  0  0  0
 71147  1  0  0  0
 72 74  1  0  0  0
 72148  1  0  0  0
 73 76  2  0  0  0
 73149  1  0  0  0
 74 75  2  0  0  0
 74 82  1  0  0  0
 75 76  1  0  0  0
 75 81  1  0  0  0
 76 85  1  0  0  0
 77 83  1  0  0  0
 77 86  1  0  0  0
 77 87  2  0  0  0
 78 81  1  0  0  0
 78150  1  0  0  0
 78151  1  0  0  0
 78152  1  0  0  0
 79 85  1  0  0  0
 79153  1  0  0  0
 79154  1  0  0  0
 79155  1  0  0  0
 80 86  1  0  0  0
 80156  1  0  0  0
 80157  1  0  0  0
 80158  1  0  0  0
 81159  1  0  0  0
 81160  1  0  0  0
 82 86  1  0  0  0
 82161  1  0  0  0
 82162  1  0  0  0
 83 84  1  0  0  0
 83163  1  0  0  0
 83164  1  0  0  0
 84165  1  0  0  0
 84166  1  0  0  0
M  ISO  4   1 100  68 101  84 101  85 100
M  END
> <chiral flag>
0

> <version>
0

> <s_m_source_file>
/data/baiqing/PycharmProjects/Reinvent-master-3.2/result/LINK_invent/BTK/process_docking_weight1_custom_product_contain_oxygen_bond_distance_aromatic_linkinvent_7_9_3/rearranged_h_0054.sdf

> <i_m_source_file_index>
80

> <r_mmod_Potential_Energy-OPLS-2005>
159.091690063477

> <r_mmod_Stretch_Energy-OPLS-2005>
61.5855560302734

> <r_mmod_Bend_Energy-OPLS-2005>
115.411849975586

> <r_mmod_Torsional_Energy-OPLS-2005>
321.729248046875

> <r_mmod_Improper_Torsional_Energy-OPLS-2005>
4.14215707778931

> <r_mmod_Van_der_Waal_Energy-OPLS-2005>
172.640579223633

> <r_mmod_Electrostatic_Energy-OPLS-2005>
-328.786102294922

> <r_mmod_Solvation_Energy-OPLS-2005>
-205.286392211914

> <b_mmod_Minimization_Converged-OPLS-2005>
0

> <r_mmod_RMS_Derivative-OPLS-2005>
0.810441493988037

$$$$
80
                    3D
 Structure written by MMmdl.
158167  0  0  1  0            999 V2000
  -30.7071  -14.5174   20.5604 C   0  0  0  0  0  0
  -30.4178  -12.3373   19.4262 C   0  0  0  0  0  0
  -29.4900  -12.4983   18.2060 C   0  0  0  0  0  0
  -28.0146  -12.3532   18.6249 C   0  0  0  0  0  0
  -27.6543  -13.2134   19.8663 C   0  0  2  0  0  0
  -28.6995  -13.0389   20.9902 C   0  0  0  0  0  0
  -25.2562  -13.8181   20.5690 C   0  0  0  0  0  0
  -24.1824  -13.0443   20.9186 C   0  0  0  0  0  0
  -24.6390  -11.6913   20.8743 C   0  0  0  0  0  0
  -23.9066  -10.4293   21.0407 C   0  0  0  0  0  0
  -24.3615   -9.4210   21.9188 C   0  0  0  0  0  0
  -23.6287   -8.2248   22.0761 C   0  0  0  0  0  0
  -22.4272   -8.0285   21.3549 C   0  0  0  0  0  0
  -21.9909   -9.0260   20.4653 C   0  0  0  0  0  0
  -22.7237  -10.2139   20.3060 C   0  0  0  0  0  0
  -21.6853   -6.0739   22.5284 C   0  0  0  0  0  0
  -21.4011   -6.5643   23.8216 C   0  0  0  0  0  0
  -21.3654   -5.6795   24.9179 C   0  0  0  0  0  0
  -21.6042   -4.3058   24.7234 C   0  0  0  0  0  0
  -21.8817   -3.8151   23.4353 C   0  0  0  0  0  0
  -21.9191   -4.6964   22.3406 C   0  0  0  0  0  0
  -22.7846  -13.5234   21.1849 C   0  0  0  0  0  0
  -22.1660   -4.2149   21.0983 F   0  0  0  0  0  0
  -21.5627   -3.4541   25.7747 F   0  0  0  0  0  0
  -30.0210  -13.3468   20.4231 N   0  0  0  0  0  0
  -26.2988  -12.9356   20.3340 N   0  0  0  0  0  0
  -25.9317  -11.6511   20.5769 N   0  0  0  0  0  0
  -22.0493  -12.8229   22.0413 N   0  0  0  0  0  0
  -25.4281  -15.1902   20.4114 N   0  0  0  0  0  0
  -31.8471  -14.6620   20.1124 O   0  0  0  0  0  0
  -21.6637   -6.8882   21.4244 O   0  0  0  0  0  0
  -22.3527  -14.5535   20.6696 O   0  0  0  0  0  0
  -24.6187  -31.8656   23.2076 C   0  0  0  0  0  0
  -25.9061  -32.4811   23.8383 C   0  0  1  0  0  0
  -27.2291  -27.3891   20.1011 C   0  0  0  0  0  0
  -25.5912  -33.8613   24.2313 N   0  0  0  0  0  0
  -23.4087  -30.4878   21.5497 C   0  0  2  0  0  0
  -24.8547  -28.9505   20.1125 C   0  0  0  0  0  0
  -22.7437  -29.4637   22.4981 C   0  0  0  0  0  0
  -18.0275  -28.1377   22.8489 C   0  0  0  0  0  0
  -24.1481  -36.7296   23.2639 C   0  0  0  0  0  0
  -25.9428  -30.8145   21.3705 C   0  0  0  0  0  0
  -26.0178  -29.4474   20.7135 C   0  0  0  0  0  0
  -27.2078  -28.6753   20.7021 C   0  0  0  0  0  0
  -26.0491  -26.9295   19.4726 C   0  0  0  0  0  0
  -24.8678  -27.6931   19.4869 C   0  0  0  0  0  0
  -23.6192  -29.8214   20.1647 C   0  0  0  0  0  0
  -25.4106  -36.3099   24.0333 C   0  0  1  0  0  0
  -20.5869  -28.3668   23.1309 C   0  0  2  0  0  0
  -20.6765  -26.9405   22.5418 C   0  0  0  0  0  0
  -19.5740  -26.6377   21.5213 C   0  0  0  0  0  0
  -18.1914  -26.7921   22.1617 C   0  0  0  0  0  0
  -19.1526  -28.8836   23.2894 C   0  0  0  0  0  0
  -18.9459  -30.1442   23.8904 C   0  0  0  0  0  0
  -17.6466  -30.6591   24.0554 C   0  0  0  0  0  0
  -25.9041  -34.9468   23.5119 C   0  0  0  0  0  0
  -16.5354  -29.9090   23.6327 C   0  0  0  0  0  0
  -16.7268  -28.6502   23.0354 C   0  0  0  0  0  0
  -26.4471  -31.6608   25.0731 C   0  0  0  0  0  0
  -25.3725  -31.3729   26.1470 C   0  0  0  0  0  0
  -27.0321  -30.3044   24.6149 C   0  0  0  0  0  0
  -27.6040  -32.4339   25.7499 C   0  0  0  0  0  0
  -27.5579  -37.1801   24.8463 C   0  0  0  0  0  0
  -21.4160  -29.3034   22.3717 N   0  0  0  0  0  0
  -26.4289  -37.3787   23.9413 N   0  0  0  0  0  0
  -24.6750  -31.0710   22.1006 N   0  0  0  0  0  0
  -23.4193  -28.8182   23.3040 O   0  0  0  0  0  0
  -28.3827  -26.6161   20.1289 O   0  0  0  0  0  0
  -26.5606  -34.8922   22.4683 O   0  0  0  0  0  0
  -23.5370  -32.1430   23.7444 O   0  0  0  0  0  0
  -28.9611  -18.7432   21.6219 C   0  0  0  0  0  0
  -30.9070  -18.9749   20.2013 C   0  0  0  0  0  0
  -28.6096  -20.0920   21.3544 C   0  0  0  0  0  0
  -30.5483  -20.3169   19.9209 C   0  0  0  0  0  0
  -30.1365  -18.1748   21.0784 C   0  0  0  0  0  0
  -29.4064  -20.9124   20.5143 C   0  0  0  0  0  0
  -28.9752  -22.9013   19.1103 C   0  0  0  0  0  0
  -28.7562  -24.4349   18.9693 C   0  0  0  0  0  0
  -29.0384  -24.6335   21.4321 C   0  0  0  0  0  0
  -28.8289  -23.1047   21.5644 C   0  0  0  0  0  0
  -28.2515  -25.1669   20.2326 C   0  0  1  0  0  0
  -30.6816  -16.8162   21.5748 C   0  0  0  0  0  0
  -29.1090  -22.3237   20.3420 N   0  0  0  0  0  0
  -30.0485  -15.5565   21.1233 N   0  0  0  0  0  0
  -29.0495  -22.2475   18.0628 O   0  0  0  0  0  0
  -31.4607  -12.4339   19.1202 H   0  0  0  0  0  0
  -30.3264  -11.3359   19.8501 H   0  0  0  0  0  0
  -29.7361  -11.7565   17.4453 H   0  0  0  0  0  0
  -29.6476  -13.4747   17.7445 H   0  0  0  0  0  0
  -27.8374  -11.2993   18.8425 H   0  0  0  0  0  0
  -27.3586  -12.6026   17.7900 H   0  0  0  0  0  0
  -27.6856  -14.2544   19.5441 H   0  0  0  0  0  0
  -28.6895  -12.0151   21.3673 H   0  0  0  0  0  0
  -28.4582  -13.6702   21.8463 H   0  0  0  0  0  0
  -25.2762   -9.5690   22.4762 H   0  0  0  0  0  0
  -24.0003   -7.4641   22.7482 H   0  0  0  0  0  0
  -21.0842   -8.8780   19.8956 H   0  0  0  0  0  0
  -22.3700  -10.9679   19.6171 H   0  0  0  0  0  0
  -21.2006   -7.6154   23.9721 H   0  0  0  0  0  0
  -21.1472   -6.0527   25.9081 H   0  0  0  0  0  0
  -22.0599   -2.7615   23.2857 H   0  0  0  0  0  0
  -22.4106  -11.9888   22.4796 H   0  0  0  0  0  0
  -21.1122  -13.1265   22.2638 H   0  0  0  0  0  0
  -24.6640  -15.8470   20.5258 H   0  0  0  0  0  0
  -26.2847  -15.6307   20.1000 H   0  0  0  0  0  0
  -26.7129  -32.5505   23.1143 H   0  0  0  0  0  0
  -25.0061  -33.9766   25.0459 H   0  0  0  0  0  0
  -22.6996  -31.3059   21.4096 H   0  0  0  0  0  0
  -23.3744  -35.9628   23.3304 H   0  0  0  0  0  0
  -24.3570  -36.8918   22.2055 H   0  0  0  0  0  0
  -23.7233  -37.6496   23.6667 H   0  0  0  0  0  0
  -26.0648  -31.5811   20.6045 H   0  0  0  0  0  0
  -26.8263  -30.8636   21.9952 H   0  0  0  0  0  0
  -28.1037  -29.0515   21.1767 H   0  0  0  0  0  0
  -26.0276  -25.9779   18.9622 H   0  0  0  0  0  0
  -23.9777  -27.3091   19.0074 H   0  0  0  0  0  0
  -23.7329  -30.5975   19.4067 H   0  0  0  0  0  0
  -22.7416  -29.2455   19.8663 H   0  0  0  0  0  0
  -25.1283  -36.1959   25.0825 H   0  0  0  0  0  0
  -20.9957  -28.3246   24.1431 H   0  0  0  0  0  0
  -20.5669  -26.2285   23.3607 H   0  0  0  0  0  0
  -21.6634  -26.7446   22.1214 H   0  0  0  0  0  0
  -19.6900  -25.6285   21.1250 H   0  0  0  0  0  0
  -19.6677  -27.3176   20.6734 H   0  0  0  0  0  0
  -17.4192  -26.6677   21.4015 H   0  0  0  0  0  0
  -18.0295  -26.0065   22.9006 H   0  0  0  0  0  0
  -19.7940  -30.7243   24.2293 H   0  0  0  0  0  0
  -17.5027  -31.6277   24.5149 H   0  0  0  0  0  0
  -15.5355  -30.2997   23.7651 H   0  0  0  0  0  0
  -15.8659  -28.0827   22.7074 H   0  0  0  0  0  0
  -24.5910  -30.7059   25.7804 H   0  0  0  0  0  0
  -24.8888  -32.2886   26.4882 H   0  0  0  0  0  0
  -25.8059  -30.8930   27.0251 H   0  0  0  0  0  0
  -26.2884  -29.6798   24.1183 H   0  0  0  0  0  0
  -27.4046  -29.7297   25.4637 H   0  0  0  0  0  0
  -27.8736  -30.4341   23.9339 H   0  0  0  0  0  0
  -27.2657  -33.3646   26.2064 H   0  0  0  0  0  0
  -28.3854  -32.6893   25.0332 H   0  0  0  0  0  0
  -28.0694  -31.8470   26.5426 H   0  0  0  0  0  0
  -28.2596  -38.0102   24.7534 H   0  0  0  0  0  0
  -28.1080  -36.2637   24.6270 H   0  0  0  0  0  0
  -27.2294  -37.1427   25.8864 H   0  0  0  0  0  0
  -20.9328  -29.8783   21.6959 H   0  0  0  0  0  0
  -26.0173  -38.2861   24.1434 H   0  0  0  0  0  0
  -28.3542  -18.1667   22.3069 H   0  0  0  0  0  0
  -31.8236  -18.5817   19.7838 H   0  0  0  0  0  0
  -27.7264  -20.5009   21.8265 H   0  0  0  0  0  0
  -31.1949  -20.9067   19.2856 H   0  0  0  0  0  0
  -28.0712  -24.6200   18.1419 H   0  0  0  0  0  0
  -29.7136  -24.8605   18.6716 H   0  0  0  0  0  0
  -30.1002  -24.8573   21.3183 H   0  0  0  0  0  0
  -28.7127  -25.1315   22.3457 H   0  0  0  0  0  0
  -27.7952  -22.9121   21.8538 H   0  0  0  0  0  0
  -29.4532  -22.7309   22.3777 H   0  0  0  0  0  0
  -27.2169  -24.8756   20.4145 H   0  0  0  0  0  0
  -30.6051  -16.8248   22.6629 H   0  0  0  0  0  0
  -31.7561  -16.7980   21.3825 H   0  0  0  0  0  0
  -29.0960  -15.3912   21.4107 H   0  0  0  0  0  0
  1 25  1  0  0  0
  1 30  2  0  0  0
  1 84  1  0  0  0
  2  3  1  0  0  0
  2 25  1  0  0  0
  2 86  1  0  0  0
  2 87  1  0  0  0
  3  4  1  0  0  0
  3 88  1  0  0  0
  3 89  1  0  0  0
  4  5  1  0  0  0
  4 90  1  0  0  0
  4 91  1  0  0  0
  5  6  1  0  0  0
  5 26  1  0  0  0
  5 92  1  0  0  0
  6 25  1  0  0  0
  6 93  1  0  0  0
  6 94  1  0  0  0
  7  8  2  0  0  0
  7 26  1  0  0  0
  7 29  1  0  0  0
  8  9  1  0  0  0
  8 22  1  0  0  0
  9 10  1  0  0  0
  9 27  2  0  0  0
 10 11  2  0  0  0
 10 15  1  0  0  0
 11 12  1  0  0  0
 11 95  1  0  0  0
 12 13  2  0  0  0
 12 96  1  0  0  0
 13 14  1  0  0  0
 13 31  1  0  0  0
 14 15  2  0  0  0
 14 97  1  0  0  0
 15 98  1  0  0  0
 16 17  2  0  0  0
 16 21  1  0  0  0
 16 31  1  0  0  0
 17 18  1  0  0  0
 17 99  1  0  0  0
 18 19  2  0  0  0
 18100  1  0  0  0
 19 20  1  0  0  0
 19 24  1  0  0  0
 20 21  2  0  0  0
 20101  1  0  0  0
 21 23  1  0  0  0
 22 28  1  0  0  0
 22 32  2  0  0  0
 26 27  1  0  0  0
 28102  1  0  0  0
 28103  1  0  0  0
 29104  1  0  0  0
 29105  1  0  0  0
 33 34  1  0  0  0
 33 66  1  0  0  0
 33 70  2  0  0  0
 34 36  1  0  0  0
 34 59  1  0  0  0
 34106  1  0  0  0
 35 44  2  0  0  0
 35 45  1  0  0  0
 35 68  1  0  0  0
 36 56  1  0  0  0
 36107  1  0  0  0
 37 39  1  0  0  0
 37 47  1  0  0  0
 37 66  1  0  0  0
 37108  1  0  0  0
 38 43  2  0  0  0
 38 46  1  0  0  0
 38 47  1  0  0  0
 39 64  1  0  0  0
 39 67  2  0  0  0
 40 52  1  0  0  0
 40 53  2  0  0  0
 40 58  1  0  0  0
 41109  1  0  0  0
 41110  1  0  0  0
 41111  1  0  0  0
 41 48  1  0  0  0
 42 43  1  0  0  0
 42 66  1  0  0  0
 42112  1  0  0  0
 42113  1  0  0  0
 43 44  1  0  0  0
 44114  1  0  0  0
 45 46  2  0  0  0
 45115  1  0  0  0
 46116  1  0  0  0
 47117  1  0  0  0
 47118  1  0  0  0
 48 56  1  0  0  0
 48 65  1  0  0  0
 48119  1  0  0  0
 49 50  1  0  0  0
 49 53  1  0  0  0
 49 64  1  0  0  0
 49120  1  0  0  0
 50 51  1  0  0  0
 50121  1  0  0  0
 50122  1  0  0  0
 51 52  1  0  0  0
 51123  1  0  0  0
 51124  1  0  0  0
 52125  1  0  0  0
 52126  1  0  0  0
 53 54  1  0  0  0
 54 55  2  0  0  0
 54127  1  0  0  0
 55 57  1  0  0  0
 55128  1  0  0  0
 56 69  2  0  0  0
 57 58  2  0  0  0
 57129  1  0  0  0
 58130  1  0  0  0
 59 60  1  0  0  0
 59 61  1  0  0  0
 59 62  1  0  0  0
 60131  1  0  0  0
 60132  1  0  0  0
 60133  1  0  0  0
 61134  1  0  0  0
 61135  1  0  0  0
 61136  1  0  0  0
 62137  1  0  0  0
 62138  1  0  0  0
 62139  1  0  0  0
 63 65  1  0  0  0
 63140  1  0  0  0
 63141  1  0  0  0
 63142  1  0  0  0
 64143  1  0  0  0
 65144  1  0  0  0
 68 81  1  0  0  0
 71 73  2  0  0  0
 71 75  1  0  0  0
 71145  1  0  0  0
 72 74  1  0  0  0
 72 75  2  0  0  0
 72146  1  0  0  0
 73 76  1  0  0  0
 73147  1  0  0  0
 74 76  2  0  0  0
 74148  1  0  0  0
 75 82  1  0  0  0
 76 83  1  0  0  0
 77 78  1  0  0  0
 77 83  1  0  0  0
 77 85  2  0  0  0
 78 81  1  0  0  0
 78149  1  0  0  0
 78150  1  0  0  0
 79 80  1  0  0  0
 79 81  1  0  0  0
 79151  1  0  0  0
 79152  1  0  0  0
 80 83  1  0  0  0
 80153  1  0  0  0
 80154  1  0  0  0
 81155  1  0  0  0
 82 84  1  0  0  0
 82156  1  0  0  0
 82157  1  0  0  0
 84158  1  0  0  0
M  ISO  4   1 100  68 101  81 101  84 100
M  END
> <chiral flag>
0

> <version>
0

> <s_m_source_file>
/data/baiqing/PycharmProjects/Reinvent-master-3.2/result/LINK_invent/BTK/process_docking_weight1_custom_product_contain_oxygen_bond_distance_aromatic_linkinvent_7_9_3/rearranged_h_0054.sdf

> <i_m_source_file_index>
81

> <r_mmod_Potential_Energy-OPLS-2005>
-3.0789966583252

> <r_mmod_Stretch_Energy-OPLS-2005>
51.1264801025391

> <r_mmod_Bend_Energy-OPLS-2005>
110.63500213623

> <r_mmod_Torsional_Energy-OPLS-2005>
269.760345458984

> <r_mmod_Improper_Torsional_Energy-OPLS-2005>
3.86946177482605

> <r_mmod_Van_der_Waal_Energy-OPLS-2005>
162.073226928711

> <r_mmod_Electrostatic_Energy-OPLS-2005>
-397.854675292969

> <r_mmod_Solvation_Energy-OPLS-2005>
-223.887023925781

> <b_mmod_Minimization_Converged-OPLS-2005>
0

> <r_mmod_RMS_Derivative-OPLS-2005>
1.26644206047058

$$$$
81
                    3D
 Structure written by MMmdl.
165174  0  0  1  0            999 V2000
  -30.7915  -14.5261   20.4502 C   0  0  0  0  0  0
  -30.4149  -12.3110   19.4507 C   0  0  0  0  0  0
  -29.4871  -12.3388   18.2187 C   0  0  0  0  0  0
  -28.0051  -12.3241   18.6390 C   0  0  0  0  0  0
  -27.6551  -13.2107   19.8684 C   0  0  2  0  0  0
  -28.7270  -13.1474   20.9836 C   0  0  0  0  0  0
  -25.2630  -13.8194   20.5842 C   0  0  0  0  0  0
  -24.1840  -13.0449   20.9273 C   0  0  0  0  0  0
  -24.6393  -11.6961   20.8860 C   0  0  0  0  0  0
  -23.9083  -10.4302   21.0453 C   0  0  0  0  0  0
  -24.3630   -9.4197   21.9207 C   0  0  0  0  0  0
  -23.6288   -8.2240   22.0775 C   0  0  0  0  0  0
  -22.4279   -8.0288   21.3564 C   0  0  0  0  0  0
  -21.9905   -9.0279   20.4689 C   0  0  0  0  0  0
  -22.7250  -10.2154   20.3100 C   0  0  0  0  0  0
  -21.6835   -6.0746   22.5299 C   0  0  0  0  0  0
  -21.3972   -6.5632   23.8231 C   0  0  0  0  0  0
  -21.3653   -5.6773   24.9182 C   0  0  0  0  0  0
  -21.6052   -4.3045   24.7223 C   0  0  0  0  0  0
  -21.8828   -3.8159   23.4337 C   0  0  0  0  0  0
  -21.9191   -4.6978   22.3397 C   0  0  0  0  0  0
  -22.7887  -13.5304   21.1854 C   0  0  0  0  0  0
  -22.1669   -4.2136   21.0983 F   0  0  0  0  0  0
  -21.5635   -3.4550   25.7753 F   0  0  0  0  0  0
  -30.0275  -13.4006   20.3581 N   0  0  0  0  0  0
  -26.3054  -12.9345   20.3537 N   0  0  0  0  0  0
  -25.9344  -11.6549   20.6027 N   0  0  0  0  0  0
  -22.0463  -12.8261   22.0362 N   0  0  0  0  0  0
  -25.4328  -15.1870   20.4234 N   0  0  0  0  0  0
  -32.0024  -14.4720   20.2651 O   0  0  0  0  0  0
  -21.6638   -6.8888   21.4276 O   0  0  0  0  0  0
  -22.3607  -14.5589   20.6683 O   0  0  0  0  0  0
  -24.6160  -31.8688   23.2096 C   0  0  0  0  0  0
  -25.9060  -32.4884   23.8415 C   0  0  1  0  0  0
  -27.2165  -27.3914   20.1088 C   0  0  0  0  0  0
  -25.5926  -33.8652   24.2399 N   0  0  0  0  0  0
  -23.4115  -30.4839   21.5573 C   0  0  2  0  0  0
  -24.8500  -28.9479   20.1328 C   0  0  0  0  0  0
  -22.7449  -29.4603   22.5038 C   0  0  0  0  0  0
  -18.0284  -28.1317   22.8495 C   0  0  0  0  0  0
  -24.1508  -36.7344   23.2635 C   0  0  0  0  0  0
  -25.9404  -30.8183   21.3675 C   0  0  0  0  0  0
  -26.0141  -29.4390   20.7429 C   0  0  0  0  0  0
  -27.1956  -28.6578   20.7466 C   0  0  0  0  0  0
  -26.0446  -26.9644   19.4445 C   0  0  0  0  0  0
  -24.8596  -27.7116   19.4879 C   0  0  0  0  0  0
  -23.6189  -29.8171   20.1740 C   0  0  0  0  0  0
  -25.4110  -36.3148   24.0377 C   0  0  1  0  0  0
  -20.5891  -28.3674   23.1344 C   0  0  2  0  0  0
  -20.6789  -26.9430   22.5404 C   0  0  0  0  0  0
  -19.5757  -26.6390   21.5191 C   0  0  0  0  0  0
  -18.1928  -26.7861   22.1606 C   0  0  0  0  0  0
  -19.1530  -28.8791   23.2924 C   0  0  0  0  0  0
  -18.9433  -30.1397   23.8944 C   0  0  0  0  0  0
  -17.6421  -30.6558   24.0553 C   0  0  0  0  0  0
  -25.9007  -34.9517   23.5141 C   0  0  0  0  0  0
  -16.5339  -29.9056   23.6308 C   0  0  0  0  0  0
  -16.7262  -28.6453   23.0375 C   0  0  0  0  0  0
  -26.4437  -31.6612   25.0722 C   0  0  0  0  0  0
  -25.3698  -31.3697   26.1512 C   0  0  0  0  0  0
  -27.0224  -30.3088   24.5949 C   0  0  0  0  0  0
  -27.6075  -32.4284   25.7454 C   0  0  0  0  0  0
  -27.5592  -37.1829   24.8450 C   0  0  0  0  0  0
  -21.4159  -29.3027   22.3757 N   0  0  0  0  0  0
  -26.4299  -37.3827   23.9381 N   0  0  0  0  0  0
  -24.6772  -31.0672   22.1073 N   0  0  0  0  0  0
  -23.4164  -28.8106   23.3075 O   0  0  0  0  0  0
  -28.3790  -26.6421   20.0305 O   0  0  0  0  0  0
  -26.5541  -34.8964   22.4685 O   0  0  0  0  0  0
  -23.5354  -32.1435   23.7496 O   0  0  0  0  0  0
  -31.2454  -18.8622   21.9960 C   0  0  0  0  0  0
  -30.0834  -19.6222   21.8612 C   0  0  0  0  0  0
  -29.0801  -17.8176   20.5788 C   0  0  0  0  0  0
  -31.3573  -17.5749   21.4171 C   0  0  0  0  0  0
  -29.0314  -19.1432   21.0727 C   0  0  0  0  0  0
  -30.2220  -16.9841   20.7563 C   0  0  0  0  0  0
  -28.0393  -20.5664   19.4384 C   0  0  0  0  0  0
  -27.2793  -22.3344   21.6467 C   0  0  0  0  0  0
  -27.5846  -22.0171   19.2252 C   0  0  0  0  0  0
  -27.3367  -20.8060   21.7930 C   0  0  0  0  0  0
  -32.7424  -16.9512   21.4323 C   0  0  0  0  0  0
  -29.8825  -15.7855   18.6420 C   0  0  0  0  0  0
  -27.2950  -24.3147   20.1833 C   0  0  0  0  0  0
  -28.4240  -25.3003   20.5926 C   0  0  0  0  0  0
  -28.0299  -20.0847   20.7048 N   0  0  0  0  0  0
  -27.4979  -22.8739   20.4281 N   0  0  0  0  0  0
  -30.1760  -15.6929   20.0859 N   0  0  0  0  0  0
  -28.4025  -19.9101   18.4578 O   0  0  0  0  0  0
  -27.0161  -23.0168   22.6377 O   0  0  0  0  0  0
  -31.4564  -12.3608   19.1285 H   0  0  0  0  0  0
  -30.3242  -11.3629   19.9837 H   0  0  0  0  0  0
  -29.6816  -11.4314   17.6354 H   0  0  0  0  0  0
  -29.6953  -13.1691   17.5441 H   0  0  0  0  0  0
  -27.7556  -11.2882   18.8482 H   0  0  0  0  0  0
  -27.3751  -12.5998   17.7949 H   0  0  0  0  0  0
  -27.6363  -14.2301   19.5101 H   0  0  0  0  0  0
  -28.7395  -12.1773   21.4867 H   0  0  0  0  0  0
  -28.5375  -13.8978   21.7532 H   0  0  0  0  0  0
  -25.2781   -9.5641   22.4782 H   0  0  0  0  0  0
  -23.9995   -7.4628   22.7452 H   0  0  0  0  0  0
  -21.0843   -8.8857   19.8976 H   0  0  0  0  0  0
  -22.3754  -10.9733   19.6221 H   0  0  0  0  0  0
  -21.1957   -7.6149   23.9715 H   0  0  0  0  0  0
  -21.1450   -6.0517   25.9065 H   0  0  0  0  0  0
  -22.0615   -2.7633   23.2864 H   0  0  0  0  0  0
  -22.4050  -11.9970   22.4823 H   0  0  0  0  0  0
  -21.1105  -13.1357   22.2562 H   0  0  0  0  0  0
  -24.6786  -15.8501   20.5695 H   0  0  0  0  0  0
  -26.2921  -15.6259   20.1153 H   0  0  0  0  0  0
  -26.7121  -32.5627   23.1194 H   0  0  0  0  0  0
  -25.0161  -33.9764   25.0625 H   0  0  0  0  0  0
  -22.7072  -31.3026   21.4109 H   0  0  0  0  0  0
  -23.3795  -35.9643   23.3266 H   0  0  0  0  0  0
  -24.3583  -36.8945   22.2025 H   0  0  0  0  0  0
  -23.7236  -37.6563   23.6607 H   0  0  0  0  0  0
  -26.0133  -31.5573   20.5716 H   0  0  0  0  0  0
  -26.8500  -30.9142   21.9458 H   0  0  0  0  0  0
  -28.0962  -29.0257   21.2221 H   0  0  0  0  0  0
  -26.0251  -26.0788   18.8395 H   0  0  0  0  0  0
  -23.9844  -27.3434   18.9844 H   0  0  0  0  0  0
  -23.7476  -30.5876   19.4125 H   0  0  0  0  0  0
  -22.7376  -29.2427   19.8727 H   0  0  0  0  0  0
  -25.1282  -36.2031   25.0870 H   0  0  0  0  0  0
  -20.9976  -28.3145   24.1464 H   0  0  0  0  0  0
  -20.5695  -26.2219   23.3537 H   0  0  0  0  0  0
  -21.6642  -26.7439   22.1163 H   0  0  0  0  0  0
  -19.6953  -25.6302   21.1175 H   0  0  0  0  0  0
  -19.6689  -27.3236   20.6728 H   0  0  0  0  0  0
  -17.4199  -26.6651   21.4021 H   0  0  0  0  0  0
  -18.0363  -25.9972   22.8947 H   0  0  0  0  0  0
  -19.7909  -30.7207   24.2343 H   0  0  0  0  0  0
  -17.4978  -31.6244   24.5125 H   0  0  0  0  0  0
  -15.5332  -30.2955   23.7587 H   0  0  0  0  0  0
  -15.8678  -28.0756   22.7106 H   0  0  0  0  0  0
  -24.5952  -30.6906   25.7925 H   0  0  0  0  0  0
  -24.8795  -32.2815   26.4898 H   0  0  0  0  0  0
  -25.8110  -30.8996   27.0310 H   0  0  0  0  0  0
  -26.2675  -29.6944   24.1023 H   0  0  0  0  0  0
  -27.4058  -29.7217   25.4296 H   0  0  0  0  0  0
  -27.8492  -30.4534   23.9004 H   0  0  0  0  0  0
  -27.2789  -33.3638   26.2014 H   0  0  0  0  0  0
  -28.3901  -32.6727   25.0248 H   0  0  0  0  0  0
  -28.0727  -31.8397   26.5378 H   0  0  0  0  0  0
  -28.2629  -38.0132   24.7548 H   0  0  0  0  0  0
  -28.1099  -36.2646   24.6246 H   0  0  0  0  0  0
  -27.2279  -37.1465   25.8863 H   0  0  0  0  0  0
  -20.9282  -29.8779   21.7050 H   0  0  0  0  0  0
  -26.0222  -38.2916   24.1397 H   0  0  0  0  0  0
  -32.0831  -19.3537   22.4719 H   0  0  0  0  0  0
  -30.0507  -20.6380   22.2391 H   0  0  0  0  0  0
  -28.2573  -17.4623   19.9753 H   0  0  0  0  0  0
  -26.6188  -21.9614   18.7342 H   0  0  0  0  0  0
  -28.2579  -22.4821   18.5101 H   0  0  0  0  0  0
  -26.3145  -20.4313   21.8455 H   0  0  0  0  0  0
  -27.7770  -20.5647   22.7599 H   0  0  0  0  0  0
  -33.4793  -17.6057   21.9040 H   0  0  0  0  0  0
  -33.0960  -16.7620   20.4142 H   0  0  0  0  0  0
  -32.7287  -16.0277   22.0073 H   0  0  0  0  0  0
  -30.1288  -16.7670   18.2336 H   0  0  0  0  0  0
  -28.8355  -15.5820   18.4463 H   0  0  0  0  0  0
  -30.4636  -15.0835   18.0505 H   0  0  0  0  0  0
  -27.1032  -24.4064   19.1187 H   0  0  0  0  0  0
  -26.3918  -24.6257   20.7096 H   0  0  0  0  0  0
  -29.3751  -24.8694   20.2821 H   0  0  0  0  0  0
  -28.4641  -25.3807   21.6839 H   0  0  0  0  0  0
  1 25  1  0  0  0
  1 30  2  0  0  0
  1 87  1  0  0  0
  2  3  1  0  0  0
  2 25  1  0  0  0
  2 90  1  0  0  0
  2 91  1  0  0  0
  3  4  1  0  0  0
  3 92  1  0  0  0
  3 93  1  0  0  0
  4  5  1  0  0  0
  4 94  1  0  0  0
  4 95  1  0  0  0
  5  6  1  0  0  0
  5 26  1  0  0  0
  5 96  1  0  0  0
  6 25  1  0  0  0
  6 97  1  0  0  0
  6 98  1  0  0  0
  7  8  2  0  0  0
  7 26  1  0  0  0
  7 29  1  0  0  0
  8  9  1  0  0  0
  8 22  1  0  0  0
  9 10  1  0  0  0
  9 27  2  0  0  0
 10 11  2  0  0  0
 10 15  1  0  0  0
 11 12  1  0  0  0
 11 99  1  0  0  0
 12 13  2  0  0  0
 12100  1  0  0  0
 13 14  1  0  0  0
 13 31  1  0  0  0
 14 15  2  0  0  0
 14101  1  0  0  0
 15102  1  0  0  0
 16 17  2  0  0  0
 16 21  1  0  0  0
 16 31  1  0  0  0
 17 18  1  0  0  0
 17103  1  0  0  0
 18 19  2  0  0  0
 18104  1  0  0  0
 19 20  1  0  0  0
 19 24  1  0  0  0
 20 21  2  0  0  0
 20105  1  0  0  0
 21 23  1  0  0  0
 22 28  1  0  0  0
 22 32  2  0  0  0
 26 27  1  0  0  0
 28106  1  0  0  0
 28107  1  0  0  0
 29108  1  0  0  0
 29109  1  0  0  0
 33 34  1  0  0  0
 33 66  1  0  0  0
 33 70  2  0  0  0
 34 36  1  0  0  0
 34 59  1  0  0  0
 34110  1  0  0  0
 35 44  2  0  0  0
 35 45  1  0  0  0
 35 68  1  0  0  0
 36 56  1  0  0  0
 36111  1  0  0  0
 37 39  1  0  0  0
 37 47  1  0  0  0
 37 66  1  0  0  0
 37112  1  0  0  0
 38 43  2  0  0  0
 38 46  1  0  0  0
 38 47  1  0  0  0
 39 64  1  0  0  0
 39 67  2  0  0  0
 40 52  1  0  0  0
 40 53  2  0  0  0
 40 58  1  0  0  0
 41113  1  0  0  0
 41114  1  0  0  0
 41115  1  0  0  0
 41 48  1  0  0  0
 42 43  1  0  0  0
 42 66  1  0  0  0
 42116  1  0  0  0
 42117  1  0  0  0
 43 44  1  0  0  0
 44118  1  0  0  0
 45 46  2  0  0  0
 45119  1  0  0  0
 46120  1  0  0  0
 47121  1  0  0  0
 47122  1  0  0  0
 48 56  1  0  0  0
 48 65  1  0  0  0
 48123  1  0  0  0
 49 50  1  0  0  0
 49 53  1  0  0  0
 49 64  1  0  0  0
 49124  1  0  0  0
 50 51  1  0  0  0
 50125  1  0  0  0
 50126  1  0  0  0
 51 52  1  0  0  0
 51127  1  0  0  0
 51128  1  0  0  0
 52129  1  0  0  0
 52130  1  0  0  0
 53 54  1  0  0  0
 54 55  2  0  0  0
 54131  1  0  0  0
 55 57  1  0  0  0
 55132  1  0  0  0
 56 69  2  0  0  0
 57 58  2  0  0  0
 57133  1  0  0  0
 58134  1  0  0  0
 59 60  1  0  0  0
 59 61  1  0  0  0
 59 62  1  0  0  0
 60135  1  0  0  0
 60136  1  0  0  0
 60137  1  0  0  0
 61138  1  0  0  0
 61139  1  0  0  0
 61140  1  0  0  0
 62141  1  0  0  0
 62142  1  0  0  0
 62143  1  0  0  0
 63 65  1  0  0  0
 63144  1  0  0  0
 63145  1  0  0  0
 63146  1  0  0  0
 64147  1  0  0  0
 65148  1  0  0  0
 68 84  1  0  0  0
 71 72  2  0  0  0
 71 74  1  0  0  0
 71149  1  0  0  0
 72 75  1  0  0  0
 72150  1  0  0  0
 73 75  2  0  0  0
 73 76  1  0  0  0
 73151  1  0  0  0
 74 76  2  0  0  0
 74 81  1  0  0  0
 75 85  1  0  0  0
 76 87  1  0  0  0
 77 79  1  0  0  0
 77 85  1  0  0  0
 77 88  2  0  0  0
 78 80  1  0  0  0
 78 86  1  0  0  0
 78 89  2  0  0  0
 79 86  1  0  0  0
 79152  1  0  0  0
 79153  1  0  0  0
 80 85  1  0  0  0
 80154  1  0  0  0
 80155  1  0  0  0
 81156  1  0  0  0
 81157  1  0  0  0
 81158  1  0  0  0
 82 87  1  0  0  0
 82159  1  0  0  0
 82160  1  0  0  0
 82161  1  0  0  0
 83 84  1  0  0  0
 83 86  1  0  0  0
 83162  1  0  0  0
 83163  1  0  0  0
 84164  1  0  0  0
 84165  1  0  0  0
M  ISO  4   1 100  68 101  84 101  87 100
M  END
> <chiral flag>
0

> <version>
0

> <s_m_source_file>
/data/baiqing/PycharmProjects/Reinvent-master-3.2/result/LINK_invent/BTK/process_docking_weight1_custom_product_contain_oxygen_bond_distance_aromatic_linkinvent_7_9_3/rearranged_h_0054.sdf

> <i_m_source_file_index>
82

> <r_mmod_Potential_Energy-OPLS-2005>
288.771118164062

> <r_mmod_Stretch_Energy-OPLS-2005>
53.8501853942871

> <r_mmod_Bend_Energy-OPLS-2005>
146.215209960938

> <r_mmod_Torsional_Energy-OPLS-2005>
400.723663330078

> <r_mmod_Improper_Torsional_Energy-OPLS-2005>
29.1386966705322

> <r_mmod_Van_der_Waal_Energy-OPLS-2005>
191.805435180664

> <r_mmod_Electrostatic_Energy-OPLS-2005>
-350.005767822266

> <r_mmod_Solvation_Energy-OPLS-2005>
-228.260437011719

> <b_mmod_Minimization_Converged-OPLS-2005>
0

> <r_mmod_RMS_Derivative-OPLS-2005>
11.5555286407471

$$$$
82
                    3D
 Structure written by MMmdl.
175184  0  0  1  0            999 V2000
  -30.7151  -14.4845   20.6533 C   0  0  0  0  0  0
  -30.4344  -12.3531   19.4128 C   0  0  0  0  0  0
  -29.4959  -12.5466   18.2005 C   0  0  0  0  0  0
  -28.0113  -12.4040   18.5994 C   0  0  0  0  0  0
  -27.6648  -13.2001   19.8844 C   0  0  2  0  0  0
  -28.7058  -12.8766   20.9719 C   0  0  0  0  0  0
  -25.2601  -13.8142   20.5668 C   0  0  0  0  0  0
  -24.1842  -13.0430   20.9165 C   0  0  0  0  0  0
  -24.6386  -11.6893   20.8726 C   0  0  0  0  0  0
  -23.9054  -10.4287   21.0405 C   0  0  0  0  0  0
  -24.3606   -9.4206   21.9189 C   0  0  0  0  0  0
  -23.6281   -8.2241   22.0760 C   0  0  0  0  0  0
  -22.4269   -8.0277   21.3545 C   0  0  0  0  0  0
  -21.9905   -9.0248   20.4644 C   0  0  0  0  0  0
  -22.7231  -10.2129   20.3050 C   0  0  0  0  0  0
  -21.6845   -6.0735   22.5277 C   0  0  0  0  0  0
  -21.4008   -6.5637   23.8213 C   0  0  0  0  0  0
  -21.3660   -5.6792   24.9175 C   0  0  0  0  0  0
  -21.6044   -4.3053   24.7226 C   0  0  0  0  0  0
  -21.8818   -3.8147   23.4347 C   0  0  0  0  0  0
  -21.9188   -4.6965   22.3401 C   0  0  0  0  0  0
  -22.7869  -13.5238   21.1833 C   0  0  0  0  0  0
  -22.1657   -4.2149   21.0979 F   0  0  0  0  0  0
  -21.5632   -3.4538   25.7741 F   0  0  0  0  0  0
  -30.0256  -13.3059   20.4705 N   0  0  0  0  0  0
  -26.3033  -12.9292   20.3385 N   0  0  0  0  0  0
  -25.9305  -11.6458   20.5737 N   0  0  0  0  0  0
  -22.0501  -12.8229   22.0383 N   0  0  0  0  0  0
  -25.4346  -15.1859   20.4082 N   0  0  0  0  0  0
  -31.8075  -14.6430   20.0925 O   0  0  0  0  0  0
  -21.6630   -6.8879   21.4241 O   0  0  0  0  0  0
  -22.3563  -14.5551   20.6692 O   0  0  0  0  0  0
  -24.6164  -31.8680   23.2093 C   0  0  0  0  0  0
  -25.9050  -32.4824   23.8388 C   0  0  1  0  0  0
  -27.2353  -27.4232   20.0678 C   0  0  0  0  0  0
  -25.5901  -33.8626   24.2312 N   0  0  0  0  0  0
  -23.4029  -30.4945   21.5527 C   0  0  2  0  0  0
  -24.8440  -28.9616   20.1175 C   0  0  0  0  0  0
  -22.7410  -29.4672   22.4991 C   0  0  0  0  0  0
  -18.0272  -28.1386   22.8491 C   0  0  0  0  0  0
  -24.1478  -36.7312   23.2631 C   0  0  0  0  0  0
  -25.9347  -30.8288   21.3628 C   0  0  0  0  0  0
  -26.0094  -29.4626   20.7091 C   0  0  0  0  0  0
  -27.2030  -28.7002   20.6838 C   0  0  0  0  0  0
  -26.0308  -26.9358   19.4995 C   0  0  0  0  0  0
  -24.8496  -27.6956   19.5175 C   0  0  0  0  0  0
  -23.6085  -29.8306   20.1670 C   0  0  0  0  0  0
  -25.4097  -36.3109   24.0332 C   0  0  1  0  0  0
  -20.5861  -28.3680   23.1304 C   0  0  2  0  0  0
  -20.6760  -26.9416   22.5409 C   0  0  0  0  0  0
  -19.5731  -26.6392   21.5212 C   0  0  0  0  0  0
  -18.1914  -26.7932   22.1626 C   0  0  0  0  0  0
  -19.1524  -28.8848   23.2895 C   0  0  0  0  0  0
  -18.9459  -30.1453   23.8905 C   0  0  0  0  0  0
  -17.6463  -30.6594   24.0573 C   0  0  0  0  0  0
  -25.9042  -34.9482   23.5120 C   0  0  0  0  0  0
  -16.5351  -29.9101   23.6336 C   0  0  0  0  0  0
  -16.7265  -28.6520   23.0346 C   0  0  0  0  0  0
  -26.4469  -31.6613   25.0725 C   0  0  0  0  0  0
  -25.3729  -31.3703   26.1465 C   0  0  0  0  0  0
  -27.0319  -30.3065   24.6100 C   0  0  0  0  0  0
  -27.6023  -32.4354   25.7504 C   0  0  0  0  0  0
  -27.5590  -37.1779   24.8443 C   0  0  0  0  0  0
  -21.4138  -29.3052   22.3718 N   0  0  0  0  0  0
  -26.4261  -37.3818   23.9451 N   0  0  0  0  0  0
  -24.6706  -31.0772   22.1003 N   0  0  0  0  0  0
  -23.4179  -28.8198   23.3022 O   0  0  0  0  0  0
  -28.4269  -26.7056   20.0720 O   0  0  0  0  0  0
  -26.5618  -34.8937   22.4690 O   0  0  0  0  0  0
  -23.5353  -32.1447   23.7478 O   0  0  0  0  0  0
  -32.2185  -18.4600   22.3868 C   0  0  0  0  0  0
  -31.9190  -19.4189   21.4066 C   0  0  0  0  0  0
  -31.6477  -17.1817   22.3121 C   0  0  0  0  0  0
  -31.0440  -19.1231   20.3389 C   0  0  0  0  0  0
  -30.4471  -17.8239   20.2703 C   0  0  0  0  0  0
  -30.7658  -16.8450   21.2615 C   0  0  0  0  0  0
  -31.0893  -22.5787   19.9842 C   0  0  0  0  0  0
  -28.2819  -24.1144   21.4035 C   0  0  0  0  0  0
  -30.4914  -24.0028   20.1082 C   0  0  0  0  0  0
  -28.3883  -22.9980   19.1329 C   0  0  0  0  0  0
  -28.8397  -21.6183   19.6468 C   0  0  0  0  0  0
  -28.9345  -24.1685   19.9946 C   0  0  1  0  0  0
  -29.4688  -17.4845   19.1508 C   0  0  0  0  0  0
  -26.1036  -23.4251   22.5520 C   0  0  0  0  0  0
  -29.1651  -15.4675   22.4066 C   0  0  0  0  0  0
  -30.8505  -20.2010   19.2549 C   0  0  0  0  0  0
  -26.7744  -24.3591   21.5329 C   0  0  0  0  0  0
  -28.5754  -25.5172   19.2610 C   0  0  0  0  0  0
  -30.3012  -21.5088   19.6932 N   0  0  0  0  0  0
  -30.1499  -15.5495   21.3210 N   0  0  0  0  0  0
  -32.3150  -22.4790   20.0863 O   0  0  0  0  0  0
  -28.9420  -23.8331   22.4090 O   0  0  0  0  0  0
  -31.4708  -12.4815   19.0973 H   0  0  0  0  0  0
  -30.3825  -11.3264   19.7783 H   0  0  0  0  0  0
  -29.7413  -11.8307   17.4149 H   0  0  0  0  0  0
  -29.6608  -13.5364   17.7721 H   0  0  0  0  0  0
  -27.8058  -11.3444   18.7544 H   0  0  0  0  0  0
  -27.3686  -12.7196   17.7767 H   0  0  0  0  0  0
  -27.7338  -14.2624   19.6496 H   0  0  0  0  0  0
  -28.7189  -11.7968   21.1295 H   0  0  0  0  0  0
  -28.4137  -13.2242   21.9518 H   0  0  0  0  0  0
  -25.2749   -9.5683   22.4767 H   0  0  0  0  0  0
  -23.9987   -7.4638   22.7485 H   0  0  0  0  0  0
  -21.0839   -8.8769   19.8947 H   0  0  0  0  0  0
  -22.3697  -10.9668   19.6154 H   0  0  0  0  0  0
  -21.1995   -7.6144   23.9716 H   0  0  0  0  0  0
  -21.1481   -6.0521   25.9079 H   0  0  0  0  0  0
  -22.0594   -2.7609   23.2846 H   0  0  0  0  0  0
  -22.4097  -11.9873   22.4750 H   0  0  0  0  0  0
  -21.1124  -13.1274   22.2591 H   0  0  0  0  0  0
  -24.6752  -15.8473   20.5261 H   0  0  0  0  0  0
  -26.2948  -15.6222   20.1015 H   0  0  0  0  0  0
  -26.7118  -32.5522   23.1150 H   0  0  0  0  0  0
  -25.0041  -33.9790   25.0447 H   0  0  0  0  0  0
  -22.6926  -31.3126   21.4155 H   0  0  0  0  0  0
  -23.3771  -35.9605   23.3212 H   0  0  0  0  0  0
  -24.3589  -36.9026   22.2063 H   0  0  0  0  0  0
  -23.7180  -37.6464   23.6712 H   0  0  0  0  0  0
  -26.0436  -31.5921   20.5911 H   0  0  0  0  0  0
  -26.8247  -30.8835   21.9780 H   0  0  0  0  0  0
  -28.1049  -29.0915   21.1337 H   0  0  0  0  0  0
  -25.9397  -25.9619   19.0487 H   0  0  0  0  0  0
  -23.9487  -27.2945   19.0746 H   0  0  0  0  0  0
  -23.7162  -30.6065   19.4078 H   0  0  0  0  0  0
  -22.7307  -29.2529   19.8709 H   0  0  0  0  0  0
  -25.1256  -36.1947   25.0818 H   0  0  0  0  0  0
  -20.9959  -28.3256   24.1421 H   0  0  0  0  0  0
  -20.5669  -26.2298   23.3604 H   0  0  0  0  0  0
  -21.6632  -26.7452   22.1203 H   0  0  0  0  0  0
  -19.6891  -25.6306   21.1239 H   0  0  0  0  0  0
  -19.6659  -27.3205   20.6743 H   0  0  0  0  0  0
  -17.4181  -26.6685   21.4029 H   0  0  0  0  0  0
  -18.0306  -26.0070   22.9016 H   0  0  0  0  0  0
  -19.7937  -30.7264   24.2274 H   0  0  0  0  0  0
  -17.5027  -31.6271   24.5179 H   0  0  0  0  0  0
  -15.5357  -30.3010   23.7658 H   0  0  0  0  0  0
  -15.8661  -28.0854   22.7042 H   0  0  0  0  0  0
  -24.5894  -30.7066   25.7792 H   0  0  0  0  0  0
  -24.8920  -32.2849   26.4941 H   0  0  0  0  0  0
  -25.8073  -30.8846   27.0211 H   0  0  0  0  0  0
  -26.2866  -29.6820   24.1156 H   0  0  0  0  0  0
  -27.4107  -29.7303   25.4553 H   0  0  0  0  0  0
  -27.8687  -30.4404   23.9240 H   0  0  0  0  0  0
  -27.2623  -33.3660   26.2063 H   0  0  0  0  0  0
  -28.3842  -32.6919   25.0345 H   0  0  0  0  0  0
  -28.0678  -31.8498   26.5442 H   0  0  0  0  0  0
  -28.2499  -38.0187   24.7681 H   0  0  0  0  0  0
  -28.1200  -36.2735   24.6031 H   0  0  0  0  0  0
  -27.2341  -37.1140   25.8844 H   0  0  0  0  0  0
  -20.9296  -29.8816   21.6976 H   0  0  0  0  0  0
  -26.0134  -38.2860   24.1578 H   0  0  0  0  0  0
  -32.8920  -18.7049   23.1960 H   0  0  0  0  0  0
  -32.3930  -20.3867   21.4749 H   0  0  0  0  0  0
  -31.8786  -16.4566   23.0804 H   0  0  0  0  0  0
  -30.9785  -24.5622   19.3111 H   0  0  0  0  0  0
  -30.8791  -24.4617   21.0184 H   0  0  0  0  0  0
  -27.2996  -23.0206   19.0765 H   0  0  0  0  0  0
  -28.7292  -23.1151   18.1024 H   0  0  0  0  0  0
  -28.4079  -20.8501   19.0044 H   0  0  0  0  0  0
  -28.4443  -21.4201   20.6437 H   0  0  0  0  0  0
  -28.7197  -18.2685   19.0414 H   0  0  0  0  0  0
  -28.9207  -16.5609   19.3278 H   0  0  0  0  0  0
  -29.9999  -17.3762   18.2049 H   0  0  0  0  0  0
  -25.0290  -23.6023   22.5884 H   0  0  0  0  0  0
  -26.4969  -23.5835   23.5568 H   0  0  0  0  0  0
  -26.2589  -22.3777   22.2903 H   0  0  0  0  0  0
  -29.1178  -16.3898   22.9884 H   0  0  0  0  0  0
  -29.4167  -14.6813   23.1197 H   0  0  0  0  0  0
  -28.1581  -15.3313   22.0124 H   0  0  0  0  0  0
  -30.2579  -19.8257   18.4231 H   0  0  0  0  0  0
  -31.8288  -20.3574   18.7959 H   0  0  0  0  0  0
  -26.2950  -24.2456   20.5626 H   0  0  0  0  0  0
  -26.6235  -25.3943   21.8382 H   0  0  0  0  0  0
  -27.7659  -25.3492   18.5587 H   0  0  0  0  0  0
  -29.3807  -25.7669   18.5712 H   0  0  0  0  0  0
  1 25  1  0  0  0
  1 30  2  0  0  0
  1 90  1  0  0  0
  2  3  1  0  0  0
  2 25  1  0  0  0
  2 93  1  0  0  0
  2 94  1  0  0  0
  3  4  1  0  0  0
  3 95  1  0  0  0
  3 96  1  0  0  0
  4  5  1  0  0  0
  4 97  1  0  0  0
  4 98  1  0  0  0
  5  6  1  0  0  0
  5 26  1  0  0  0
  5 99  1  0  0  0
  6 25  1  0  0  0
  6100  1  0  0  0
  6101  1  0  0  0
  7  8  2  0  0  0
  7 26  1  0  0  0
  7 29  1  0  0  0
  8  9  1  0  0  0
  8 22  1  0  0  0
  9 10  1  0  0  0
  9 27  2  0  0  0
 10 11  2  0  0  0
 10 15  1  0  0  0
 11 12  1  0  0  0
 11102  1  0  0  0
 12 13  2  0  0  0
 12103  1  0  0  0
 13 14  1  0  0  0
 13 31  1  0  0  0
 14 15  2  0  0  0
 14104  1  0  0  0
 15105  1  0  0  0
 16 17  2  0  0  0
 16 21  1  0  0  0
 16 31  1  0  0  0
 17 18  1  0  0  0
 17106  1  0  0  0
 18 19  2  0  0  0
 18107  1  0  0  0
 19 20  1  0  0  0
 19 24  1  0  0  0
 20 21  2  0  0  0
 20108  1  0  0  0
 21 23  1  0  0  0
 22 28  1  0  0  0
 22 32  2  0  0  0
 26 27  1  0  0  0
 28109  1  0  0  0
 28110  1  0  0  0
 29111  1  0  0  0
 29112  1  0  0  0
 33 34  1  0  0  0
 33 66  1  0  0  0
 33 70  2  0  0  0
 34 36  1  0  0  0
 34 59  1  0  0  0
 34113  1  0  0  0
 35 44  2  0  0  0
 35 45  1  0  0  0
 35 68  1  0  0  0
 36 56  1  0  0  0
 36114  1  0  0  0
 37 39  1  0  0  0
 37 47  1  0  0  0
 37 66  1  0  0  0
 37115  1  0  0  0
 38 43  2  0  0  0
 38 46  1  0  0  0
 38 47  1  0  0  0
 39 64  1  0  0  0
 39 67  2  0  0  0
 40 52  1  0  0  0
 40 53  2  0  0  0
 40 58  1  0  0  0
 41116  1  0  0  0
 41117  1  0  0  0
 41118  1  0  0  0
 41 48  1  0  0  0
 42 43  1  0  0  0
 42 66  1  0  0  0
 42119  1  0  0  0
 42120  1  0  0  0
 43 44  1  0  0  0
 44121  1  0  0  0
 45 46  2  0  0  0
 45122  1  0  0  0
 46123  1  0  0  0
 47124  1  0  0  0
 47125  1  0  0  0
 48 56  1  0  0  0
 48 65  1  0  0  0
 48126  1  0  0  0
 49 50  1  0  0  0
 49 53  1  0  0  0
 49 64  1  0  0  0
 49127  1  0  0  0
 50 51  1  0  0  0
 50128  1  0  0  0
 50129  1  0  0  0
 51 52  1  0  0  0
 51130  1  0  0  0
 51131  1  0  0  0
 52132  1  0  0  0
 52133  1  0  0  0
 53 54  1  0  0  0
 54 55  2  0  0  0
 54134  1  0  0  0
 55 57  1  0  0  0
 55135  1  0  0  0
 56 69  2  0  0  0
 57 58  2  0  0  0
 57136  1  0  0  0
 58137  1  0  0  0
 59 60  1  0  0  0
 59 61  1  0  0  0
 59 62  1  0  0  0
 60138  1  0  0  0
 60139  1  0  0  0
 60140  1  0  0  0
 61141  1  0  0  0
 61142  1  0  0  0
 61143  1  0  0  0
 62144  1  0  0  0
 62145  1  0  0  0
 62146  1  0  0  0
 63 65  1  0  0  0
 63147  1  0  0  0
 63148  1  0  0  0
 63149  1  0  0  0
 64150  1  0  0  0
 65151  1  0  0  0
 68 88  1  0  0  0
 71 72  2  0  0  0
 71 73  1  0  0  0
 71152  1  0  0  0
 72 74  1  0  0  0
 72153  1  0  0  0
 73 76  2  0  0  0
 73154  1  0  0  0
 74 75  2  0  0  0
 74 86  1  0  0  0
 75 76  1  0  0  0
 75 83  1  0  0  0
 76 90  1  0  0  0
 77 79  1  0  0  0
 77 89  1  0  0  0
 77 91  2  0  0  0
 78 87  1  0  0  0
 78 92  2  0  0  0
 78 82  1  0  0  0
 79 82  1  0  0  0
 79155  1  0  0  0
 79156  1  0  0  0
 80 81  1  0  0  0
 80 82  1  0  0  0
 80157  1  0  0  0
 80158  1  0  0  0
 81 89  1  0  0  0
 81159  1  0  0  0
 81160  1  0  0  0
 82 88  1  0  0  0
 83161  1  0  0  0
 83162  1  0  0  0
 83163  1  0  0  0
 84 87  1  0  0  0
 84164  1  0  0  0
 84165  1  0  0  0
 84166  1  0  0  0
 85 90  1  0  0  0
 85167  1  0  0  0
 85168  1  0  0  0
 85169  1  0  0  0
 86 89  1  0  0  0
 86170  1  0  0  0
 86171  1  0  0  0
 87172  1  0  0  0
 87173  1  0  0  0
 88174  1  0  0  0
 88175  1  0  0  0
M  ISO  4   1 100  68 101  88 101  90 100
M  END
> <chiral flag>
0

> <version>
0

> <s_m_source_file>
/data/baiqing/PycharmProjects/Reinvent-master-3.2/result/LINK_invent/BTK/process_docking_weight1_custom_product_contain_oxygen_bond_distance_aromatic_linkinvent_7_9_3/rearranged_h_0054.sdf

> <i_m_source_file_index>
83

> <r_mmod_Potential_Energy-OPLS-2005>
163.42366027832

> <r_mmod_Stretch_Energy-OPLS-2005>
59.3697624206543

> <r_mmod_Bend_Energy-OPLS-2005>
159.084121704102

> <r_mmod_Torsional_Energy-OPLS-2005>
317.908569335938

> <r_mmod_Improper_Torsional_Energy-OPLS-2005>
5.15878391265869

> <r_mmod_Van_der_Waal_Energy-OPLS-2005>
193.130142211914

> <r_mmod_Electrostatic_Energy-OPLS-2005>
-357.497131347656

> <r_mmod_Solvation_Energy-OPLS-2005>
-227.730972290039

> <b_mmod_Minimization_Converged-OPLS-2005>
0

> <r_mmod_RMS_Derivative-OPLS-2005>
0.972455203533173

$$$$
83
                    3D
 Structure written by MMmdl.
161169  0  0  1  0            999 V2000
  -30.6211  -13.8506   20.4944 C   0  0  0  0  0  0
  -30.5476  -11.6651   19.1481 C   0  0  0  0  0  0
  -29.3430  -12.2962   17.7539 C   0  0  0  0  0  0
  -27.8214  -13.4117   18.2676 C   0  0  0  0  0  0
  -27.4997  -14.0341   20.2401 C   0  0  2  0  0  0
  -28.7074  -13.3320   21.6096 C   0  0  0  0  0  0
  -25.1878  -14.7035   21.2472 C   0  0  0  0  0  0
  -24.2063  -13.8591   21.6021 C   0  0  0  0  0  0
  -24.9451  -12.6572   21.3521 C   0  0  0  0  0  0
  -24.4470  -10.2435   20.0120 C   0  0  0  0  0  0
  -24.7088   -8.8466   20.5972 C   0  0  0  0  0  0
  -23.8438   -8.0282   21.4225 C   0  0  0  0  0  0
  -22.4838   -8.0217   21.1180 C   0  0  0  0  0  0
  -22.1490   -8.9099   20.0796 C   0  0  0  0  0  0
  -23.1361   -9.7575   19.4447 C   0  0  0  0  0  0
  -21.7140   -6.1508   22.5254 C   0  0  0  0  0  0
  -21.4376   -6.6075   23.8313 C   0  0  0  0  0  0
  -21.3895   -5.7038   24.9138 C   0  0  0  0  0  0
  -21.6171   -4.3312   24.7024 C   0  0  0  0  0  0
  -21.8935   -3.8632   23.4058 C   0  0  0  0  0  0
  -21.9347   -4.7638   22.3212 C   0  0  0  0  0  0
  -22.7241  -14.1810   21.6071 C   0  0  0  0  0  0
  -22.1582   -4.2778   21.0763 F   0  0  0  0  0  0
  -21.5659   -3.4646   25.7433 F   0  0  0  0  0  0
  -30.1914  -12.6695   20.7085 N   0  0  0  0  0  0
  -26.2700  -13.9663   20.9591 N   0  0  0  0  0  0
  -26.0717  -13.0894   21.8745 N   0  0  0  0  0  0
  -21.9297  -13.5436   22.4654 N   0  0  0  0  0  0
  -25.2785  -16.0395   21.2964 N   0  0  0  0  0  0
  -31.6266  -14.4093   20.0267 O   0  0  0  0  0  0
  -21.5868   -7.0142   21.4523 O   0  0  0  0  0  0
  -22.2571  -14.9532   20.7838 O   0  0  0  0  0  0
  -24.7140  -31.7701   23.1387 C   0  0  0  0  0  0
  -25.9634  -32.4268   23.7945 C   0  0  1  0  0  0
  -26.7690  -26.3326   20.0413 C   0  0  0  0  0  0
  -25.6119  -33.8130   24.1789 N   0  0  0  0  0  0
  -23.5150  -30.4079   21.5157 C   0  0  2  0  0  0
  -24.8635  -28.7240   20.0643 C   0  0  0  0  0  0
  -22.7772  -29.4244   22.4655 C   0  0  0  0  0  0
  -18.0334  -28.1419   22.8448 C   0  0  0  0  0  0
  -24.1509  -36.7056   23.2652 C   0  0  0  0  0  0
  -26.1075  -30.3467   21.4453 C   0  0  0  0  0  0
  -26.0726  -28.9015   20.7409 C   0  0  0  0  0  0
  -27.0375  -27.7225   20.7017 C   0  0  0  0  0  0
  -25.6064  -26.4842   19.2934 C   0  0  0  0  0  0
  -24.6945  -27.5594   19.3176 C   0  0  0  0  0  0
  -23.7390  -29.7616   20.1281 C   0  0  0  0  0  0
  -25.4174  -36.2779   24.0250 C   0  0  1  0  0  0
  -20.5971  -28.3780   23.1116 C   0  0  2  0  0  0
  -20.6798  -26.9432   22.5395 C   0  0  0  0  0  0
  -19.5774  -26.6359   21.5211 C   0  0  0  0  0  0
  -18.1958  -26.7943   22.1614 C   0  0  0  0  0  0
  -19.1603  -28.8925   23.2764 C   0  0  0  0  0  0
  -18.9512  -30.1508   23.8814 C   0  0  0  0  0  0
  -17.6504  -30.6604   24.0545 C   0  0  0  0  0  0
  -25.9198  -34.9184   23.4865 C   0  0  0  0  0  0
  -16.5391  -29.9086   23.6355 C   0  0  0  0  0  0
  -16.7315  -28.6507   23.0372 C   0  0  0  0  0  0
  -26.4677  -31.6454   25.0715 C   0  0  0  0  0  0
  -25.3655  -31.3886   26.1275 C   0  0  0  0  0  0
  -27.0638  -30.2748   24.6883 C   0  0  0  0  0  0
  -27.6072  -32.4392   25.7531 C   0  0  0  0  0  0
  -27.5567  -37.1685   24.8459 C   0  0  0  0  0  0
  -21.4414  -29.3017   22.3422 N   0  0  0  0  0  0
  -26.4259  -37.3590   23.9419 N   0  0  0  0  0  0
  -24.8145  -30.8848   22.0807 N   0  0  0  0  0  0
  -23.4182  -28.7791   23.2986 O   0  0  0  0  0  0
  -27.3182  -24.8213   19.9295 O   0  0  0  0  0  0
  -26.5852  -34.8822   22.4495 O   0  0  0  0  0  0
  -23.6147  -32.0999   23.6224 O   0  0  0  0  0  0
  -24.4138  -10.6729   22.3013 C   0  0  0  0  0  0
  -23.0236  -11.4297   21.3386 C   0  0  0  0  0  0
  -26.1265  -10.6821   21.5385 C   0  0  0  0  0  0
  -23.4013  -12.3096   19.6764 C   0  0  0  0  0  0
  -26.4579  -11.5677   19.9263 C   0  0  0  0  0  0
  -25.0898  -12.6290   19.0630 C   0  0  0  0  0  0
  -26.1011  -19.6484   19.2974 C   0  0  0  0  0  0
  -26.6289  -21.1857   19.1495 C   0  0  0  0  0  0
  -26.1392  -17.9795   18.5539 C   0  0  0  0  0  0
  -22.2357  -12.7845   18.8126 C   0  0  0  0  0  0
  -28.2244  -11.7484   19.8938 C   0  0  0  0  0  0
  -25.2858  -14.5843   18.4094 C   0  0  0  0  0  0
  -26.4896  -23.1036   19.7546 C   0  0  0  0  0  0
  -25.6316  -16.4405   18.8492 N   0  0  0  0  0  0
  -29.6539  -13.5177   19.7012 N   0  0  0  0  0  0
  -26.6963  -17.9950   17.4558 O   0  0  0  0  0  0
  -31.5828  -11.8229   18.8380 H   0  0  0  0  0  0
  -30.4698  -10.5925   19.3372 H   0  0  0  0  0  0
  -29.0027  -11.4554   17.1463 H   0  0  0  0  0  0
  -29.9413  -12.8833   17.0549 H   0  0  0  0  0  0
  -27.0204  -12.8956   17.7568 H   0  0  0  0  0  0
  -27.9261  -14.3287   17.6852 H   0  0  0  0  0  0
  -27.7092  -15.1053   20.1959 H   0  0  0  0  0  0
  -28.3439  -12.5495   22.2772 H   0  0  0  0  0  0
  -28.9612  -14.1375   22.3052 H   0  0  0  0  0  0
  -25.7372   -8.5433   20.7360 H   0  0  0  0  0  0
  -24.2625   -7.2337   22.0228 H   0  0  0  0  0  0
  -21.1656   -8.8399   19.6373 H   0  0  0  0  0  0
  -22.7251  -10.2768   18.5955 H   0  0  0  0  0  0
  -21.2308   -7.6544   23.9991 H   0  0  0  0  0  0
  -21.1690   -6.0641   25.9084 H   0  0  0  0  0  0
  -22.0602   -2.8100   23.2374 H   0  0  0  0  0  0
  -22.3231  -12.8923   23.1283 H   0  0  0  0  0  0
  -20.9363  -13.7207   22.4664 H   0  0  0  0  0  0
  -24.5567  -16.5029   21.8378 H   0  0  0  0  0  0
  -26.1987  -16.3776   21.5591 H   0  0  0  0  0  0
  -26.7704  -32.4542   23.0613 H   0  0  0  0  0  0
  -25.0137  -33.9118   24.9860 H   0  0  0  0  0  0
  -22.8567  -31.2654   21.3596 H   0  0  0  0  0  0
  -23.3821  -35.9330   23.3195 H   0  0  0  0  0  0
  -24.3575  -36.8866   22.2093 H   0  0  0  0  0  0
  -23.7211  -37.6162   23.6838 H   0  0  0  0  0  0
  -26.3983  -31.0642   20.6772 H   0  0  0  0  0  0
  -26.9390  -30.3423   22.1362 H   0  0  0  0  0  0
  -27.9462  -27.8207   21.2784 H   0  0  0  0  0  0
  -25.2988  -25.6358   18.6998 H   0  0  0  0  0  0
  -23.7855  -27.4454   18.7428 H   0  0  0  0  0  0
  -23.9766  -30.5446   19.4071 H   0  0  0  0  0  0
  -22.8073  -29.3172   19.7737 H   0  0  0  0  0  0
  -25.1393  -36.1483   25.0735 H   0  0  0  0  0  0
  -21.0053  -28.3413   24.1243 H   0  0  0  0  0  0
  -20.5662  -26.2403   23.3662 H   0  0  0  0  0  0
  -21.6657  -26.7365   22.1210 H   0  0  0  0  0  0
  -19.6929  -25.6249   21.1293 H   0  0  0  0  0  0
  -19.6721  -27.3124   20.6706 H   0  0  0  0  0  0
  -17.4224  -26.6682   21.4021 H   0  0  0  0  0  0
  -18.0348  -26.0106   22.9031 H   0  0  0  0  0  0
  -19.7992  -30.7340   24.2146 H   0  0  0  0  0  0
  -17.5060  -31.6276   24.5161 H   0  0  0  0  0  0
  -15.5390  -30.2965   23.7731 H   0  0  0  0  0  0
  -15.8711  -28.0800   22.7141 H   0  0  0  0  0  0
  -24.5876  -30.7193   25.7581 H   0  0  0  0  0  0
  -24.8808  -32.3144   26.4386 H   0  0  0  0  0  0
  -25.7757  -30.9252   27.0257 H   0  0  0  0  0  0
  -26.3353  -29.6212   24.2076 H   0  0  0  0  0  0
  -27.4090  -29.7396   25.5740 H   0  0  0  0  0  0
  -27.9351  -30.3776   24.0415 H   0  0  0  0  0  0
  -27.2583  -33.3811   26.1777 H   0  0  0  0  0  0
  -28.4038  -32.6763   25.0467 H   0  0  0  0  0  0
  -28.0567  -31.8753   26.5715 H   0  0  0  0  0  0
  -28.2491  -38.0067   24.7572 H   0  0  0  0  0  0
  -28.1157  -36.2589   24.6208 H   0  0  0  0  0  0
  -27.2291  -37.1211   25.8860 H   0  0  0  0  0  0
  -20.9715  -29.8727   21.6536 H   0  0  0  0  0  0
  -26.0046  -38.2610   24.1475 H   0  0  0  0  0  0
  -24.2280  -10.1650   23.2374 H   0  0  0  0  0  0
  -22.0044  -11.2593   21.6582 H   0  0  0  0  0  0
  -26.9405  -10.2254   22.0837 H   0  0  0  0  0  0
  -25.4211  -19.6055   20.1361 H   0  0  0  0  0  0
  -27.2986  -21.2171   18.3018 H   0  0  0  0  0  0
  -21.2881  -12.5651   19.3044 H   0  0  0  0  0  0
  -22.2417  -12.2765   17.8489 H   0  0  0  0  0  0
  -22.2712  -13.8496   18.6002 H   0  0  0  0  0  0
  -28.3098  -10.9147   19.1928 H   0  0  0  0  0  0
  -28.4930  -11.0957   20.7335 H   0  0  0  0  0  0
  -24.2355  -14.7378   18.1767 H   0  0  0  0  0  0
  -25.6740  -14.5114   17.3950 H   0  0  0  0  0  0
  -26.0378  -22.9840   20.7394 H   0  0  0  0  0  0
  -25.6474  -23.3941   19.1275 H   0  0  0  0  0  0
  -25.3343  -16.4645   19.8386 H   0  0  0  0  0  0
  -29.5978  -14.0223   18.8320 H   0  0  0  0  0  0
  1 25  1  0  0  0
  1 30  2  0  0  0
  1 85  1  0  0  0
  2  3  1  0  0  0
  2 25  1  0  0  0
  2 87  1  0  0  0
  2 88  1  0  0  0
  3  4  1  0  0  0
  3 89  1  0  0  0
  3 90  1  0  0  0
  4  5  1  0  0  0
  4 91  1  0  0  0
  4 92  1  0  0  0
  5  6  1  0  0  0
  5 26  1  0  0  0
  5 93  1  0  0  0
  6 25  1  0  0  0
  6 94  1  0  0  0
  6 95  1  0  0  0
  7  8  2  0  0  0
  7 26  1  0  0  0
  7 29  1  0  0  0
  8  9  1  0  0  0
  8 22  1  0  0  0
  9 10  1  0  0  0
  9 27  2  0  0  0
 10 11  2  0  0  0
 10 15  1  0  0  0
 11 12  1  0  0  0
 11 96  1  0  0  0
 12 13  2  0  0  0
 12 97  1  0  0  0
 13 14  1  0  0  0
 13 31  1  0  0  0
 14 15  2  0  0  0
 14 98  1  0  0  0
 15 99  1  0  0  0
 16 17  2  0  0  0
 16 21  1  0  0  0
 16 31  1  0  0  0
 17 18  1  0  0  0
 17100  1  0  0  0
 18 19  2  0  0  0
 18101  1  0  0  0
 19 20  1  0  0  0
 19 24  1  0  0  0
 20 21  2  0  0  0
 20102  1  0  0  0
 21 23  1  0  0  0
 22 28  1  0  0  0
 22 32  2  0  0  0
 26 27  1  0  0  0
 28103  1  0  0  0
 28104  1  0  0  0
 29105  1  0  0  0
 29106  1  0  0  0
 33 34  1  0  0  0
 33 66  1  0  0  0
 33 70  2  0  0  0
 34 36  1  0  0  0
 34 59  1  0  0  0
 34107  1  0  0  0
 35 44  2  0  0  0
 35 45  1  0  0  0
 35 68  1  0  0  0
 36 56  1  0  0  0
 36108  1  0  0  0
 37 39  1  0  0  0
 37 47  1  0  0  0
 37 66  1  0  0  0
 37109  1  0  0  0
 38 43  2  0  0  0
 38 46  1  0  0  0
 38 47  1  0  0  0
 39 64  1  0  0  0
 39 67  2  0  0  0
 40 52  1  0  0  0
 40 53  2  0  0  0
 40 58  1  0  0  0
 41110  1  0  0  0
 41111  1  0  0  0
 41112  1  0  0  0
 41 48  1  0  0  0
 42 43  1  0  0  0
 42 66  1  0  0  0
 42113  1  0  0  0
 42114  1  0  0  0
 43 44  1  0  0  0
 44115  1  0  0  0
 45 46  2  0  0  0
 45116  1  0  0  0
 46117  1  0  0  0
 47118  1  0  0  0
 47119  1  0  0  0
 48 56  1  0  0  0
 48 65  1  0  0  0
 48120  1  0  0  0
 49 50  1  0  0  0
 49 53  1  0  0  0
 49 64  1  0  0  0
 49121  1  0  0  0
 50 51  1  0  0  0
 50122  1  0  0  0
 50123  1  0  0  0
 51 52  1  0  0  0
 51124  1  0  0  0
 51125  1  0  0  0
 52126  1  0  0  0
 52127  1  0  0  0
 53 54  1  0  0  0
 54 55  2  0  0  0
 54128  1  0  0  0
 55 57  1  0  0  0
 55129  1  0  0  0
 56 69  2  0  0  0
 57 58  2  0  0  0
 57130  1  0  0  0
 58131  1  0  0  0
 59 60  1  0  0  0
 59 61  1  0  0  0
 59 62  1  0  0  0
 60132  1  0  0  0
 60133  1  0  0  0
 60134  1  0  0  0
 61135  1  0  0  0
 61136  1  0  0  0
 61137  1  0  0  0
 62138  1  0  0  0
 62139  1  0  0  0
 62140  1  0  0  0
 63 65  1  0  0  0
 63141  1  0  0  0
 63142  1  0  0  0
 63143  1  0  0  0
 64144  1  0  0  0
 65145  1  0  0  0
 68 83  1  0  0  0
 71 72  2  0  0  0
 71 73  1  0  0  0
 71146  1  0  0  0
 72 74  1  0  0  0
 72147  1  0  0  0
 73 75  2  0  0  0
 73148  1  0  0  0
 74 76  2  0  0  0
 74 80  1  0  0  0
 75 76  1  0  0  0
 75 81  1  0  0  0
 76 82  1  0  0  0
 77 78  2  0  0  0
 77 79  1  0  0  0
 77149  1  0  0  0
 78 83  1  0  0  0
 78150  1  0  0  0
 79 84  1  0  0  0
 79 86  2  0  0  0
 80151  1  0  0  0
 80152  1  0  0  0
 80153  1  0  0  0
 81 85  1  0  0  0
 81154  1  0  0  0
 81155  1  0  0  0
 82 84  1  0  0  0
 82156  1  0  0  0
 82157  1  0  0  0
 83158  1  0  0  0
 83159  1  0  0  0
 84160  1  0  0  0
 85161  1  0  0  0
M  ISO  4   1 100  68 101  83 101  85 100
M  END
> <chiral flag>
0

> <version>
0

> <s_m_source_file>
/data/baiqing/PycharmProjects/Reinvent-master-3.2/result/LINK_invent/BTK/process_docking_weight1_custom_product_contain_oxygen_bond_distance_aromatic_linkinvent_7_9_3/rearranged_h_0054.sdf

> <i_m_source_file_index>
84

> <r_mmod_Potential_Energy-OPLS-2005>
19492.408203125

> <r_mmod_Stretch_Energy-OPLS-2005>
10219.0283203125

> <r_mmod_Bend_Energy-OPLS-2005>
1688.84814453125

> <r_mmod_Torsional_Energy-OPLS-2005>
794.009521484375

> <r_mmod_Improper_Torsional_Energy-OPLS-2005>
108.558090209961

> <r_mmod_Van_der_Waal_Energy-OPLS-2005>
4426.31103515625

> <r_mmod_Electrostatic_Energy-OPLS-2005>
-556.919128417969

> <r_mmod_Solvation_Energy-OPLS-2005>
-237.140441894531

> <b_mmod_Minimization_Converged-OPLS-2005>
0

> <r_mmod_RMS_Derivative-OPLS-2005>
1.20542728900909

$$$$
84
                    3D
 Structure written by MMmdl.
158166  0  0  1  0            999 V2000
  -30.7911  -14.6092   20.4290 C   0  0  0  0  0  0
  -30.3872  -12.3917   19.4360 C   0  0  0  0  0  0
  -29.4826  -12.4773   18.1991 C   0  0  0  0  0  0
  -28.0074  -12.3439   18.6190 C   0  0  0  0  0  0
  -27.6307  -13.2541   19.8220 C   0  0  2  0  0  0
  -28.6923  -13.2386   20.9433 C   0  0  0  0  0  0
  -25.2465  -13.8262   20.5722 C   0  0  0  0  0  0
  -24.1787  -13.0464   20.9236 C   0  0  0  0  0  0
  -24.6432  -11.6946   20.8766 C   0  0  0  0  0  0
  -23.9123  -10.4306   21.0412 C   0  0  0  0  0  0
  -24.3656   -9.4215   21.9191 C   0  0  0  0  0  0
  -23.6327   -8.2255   22.0753 C   0  0  0  0  0  0
  -22.4317   -8.0299   21.3536 C   0  0  0  0  0  0
  -21.9968   -9.0285   20.4648 C   0  0  0  0  0  0
  -22.7303  -10.2160   20.3057 C   0  0  0  0  0  0
  -21.6850   -6.0760   22.5286 C   0  0  0  0  0  0
  -21.4009   -6.5642   23.8222 C   0  0  0  0  0  0
  -21.3667   -5.6780   24.9175 C   0  0  0  0  0  0
  -21.6054   -4.3045   24.7213 C   0  0  0  0  0  0
  -21.8809   -3.8161   23.4320 C   0  0  0  0  0  0
  -21.9179   -4.6991   22.3390 C   0  0  0  0  0  0
  -22.7777  -13.5230   21.1841 C   0  0  0  0  0  0
  -22.1642   -4.2170   21.0961 F   0  0  0  0  0  0
  -21.5649   -3.4523   25.7719 F   0  0  0  0  0  0
  -29.9834  -13.5128   20.3104 N   0  0  0  0  0  0
  -26.2915  -12.9535   20.3232 N   0  0  0  0  0  0
  -25.9369  -11.6648   20.5758 N   0  0  0  0  0  0
  -22.0385  -12.8266   22.0409 N   0  0  0  0  0  0
  -25.4102  -15.2001   20.4145 N   0  0  0  0  0  0
  -31.9967  -14.4006   20.3970 O   0  0  0  0  0  0
  -21.6633   -6.8931   21.4263 O   0  0  0  0  0  0
  -22.3456  -14.5518   20.6669 O   0  0  0  0  0  0
  -24.6227  -31.8616   23.1996 C   0  0  0  0  0  0
  -25.9113  -32.4756   23.8309 C   0  0  1  0  0  0
  -27.2133  -27.3548   20.1315 C   0  0  0  0  0  0
  -25.5957  -33.8554   24.2262 N   0  0  0  0  0  0
  -23.4103  -30.4880   21.5402 C   0  0  2  0  0  0
  -24.8527  -28.9370   20.1098 C   0  0  0  0  0  0
  -22.7453  -29.4655   22.4916 C   0  0  0  0  0  0
  -18.0296  -28.1392   22.8512 C   0  0  0  0  0  0
  -24.1496  -36.7302   23.2644 C   0  0  0  0  0  0
  -25.9456  -30.8053   21.3585 C   0  0  0  0  0  0
  -26.0203  -29.4332   20.7090 C   0  0  0  0  0  0
  -27.2066  -28.6544   20.7080 C   0  0  0  0  0  0
  -26.0322  -26.8891   19.5200 C   0  0  0  0  0  0
  -24.8593  -27.6696   19.5031 C   0  0  0  0  0  0
  -23.6212  -29.8169   20.1544 C   0  0  0  0  0  0
  -25.4114  -36.3055   24.0336 C   0  0  1  0  0  0
  -20.5901  -28.3683   23.1311 C   0  0  2  0  0  0
  -20.6792  -26.9419   22.5412 C   0  0  0  0  0  0
  -19.5747  -26.6401   21.5233 C   0  0  0  0  0  0
  -18.1936  -26.7935   22.1644 C   0  0  0  0  0  0
  -19.1553  -28.8856   23.2909 C   0  0  0  0  0  0
  -18.9462  -30.1475   23.8885 C   0  0  0  0  0  0
  -17.6453  -30.6588   24.0598 C   0  0  0  0  0  0
  -25.9050  -34.9433   23.5088 C   0  0  0  0  0  0
  -16.5348  -29.9083   23.6344 C   0  0  0  0  0  0
  -16.7288  -28.6520   23.0341 C   0  0  0  0  0  0
  -26.4521  -31.6536   25.0663 C   0  0  0  0  0  0
  -25.3806  -31.3656   26.1414 C   0  0  0  0  0  0
  -27.0346  -30.2963   24.6062 C   0  0  0  0  0  0
  -27.6058  -32.4265   25.7454 C   0  0  0  0  0  0
  -27.5574  -37.1802   24.8472 C   0  0  0  0  0  0
  -21.4178  -29.3036   22.3693 N   0  0  0  0  0  0
  -26.4276  -37.3768   23.9418 N   0  0  0  0  0  0
  -24.6790  -31.0684   22.0908 N   0  0  0  0  0  0
  -23.4224  -28.8238   23.3000 O   0  0  0  0  0  0
  -28.3382  -26.5426   20.1361 O   0  0  0  0  0  0
  -26.5591  -34.8909   22.4634 O   0  0  0  0  0  0
  -23.5414  -32.1364   23.7385 O   0  0  0  0  0  0
  -33.3185  -18.9907   20.5455 C   0  0  0  0  0  0
  -33.5611  -17.8020   19.8612 C   0  0  0  0  0  0
  -31.9903  -19.3482   20.8018 C   0  0  0  0  0  0
  -32.4976  -16.9204   19.6272 C   0  0  0  0  0  0
  -30.8848  -18.4873   20.5423 C   0  0  0  0  0  0
  -31.1835  -17.1084   20.1642 C   0  0  0  0  0  0
  -29.6059  -19.2846   20.4122 C   0  0  0  0  0  0
  -29.2407  -20.4159   21.1112 C   0  0  0  0  0  0
  -28.3087  -21.3974   20.4985 C   0  0  0  0  0  0
  -29.7913  -20.7617   22.4945 C   0  0  0  0  0  0
  -28.2543  -23.9264   19.9712 C   0  0  0  0  0  0
  -28.2340  -25.2532   20.8249 C   0  0  0  0  0  0
  -30.3163  -15.9086   20.2904 N   0  0  0  0  0  0
  -28.6717  -22.6943   20.7134 N   0  0  0  0  0  0
  -27.3429  -21.1068   19.7932 O   0  0  0  0  0  0
  -31.4306  -12.4308   19.1197 H   0  0  0  0  0  0
  -30.2688  -11.4373   19.9522 H   0  0  0  0  0  0
  -29.7518  -11.6980   17.4838 H   0  0  0  0  0  0
  -29.6356  -13.4319   17.6914 H   0  0  0  0  0  0
  -27.8332  -11.2989   18.8741 H   0  0  0  0  0  0
  -27.3573  -12.5527   17.7688 H   0  0  0  0  0  0
  -27.6102  -14.2699   19.4216 H   0  0  0  0  0  0
  -28.7138  -12.2766   21.4565 H   0  0  0  0  0  0
  -28.4730  -13.9963   21.6969 H   0  0  0  0  0  0
  -25.2808   -9.5666   22.4759 H   0  0  0  0  0  0
  -24.0011   -7.4650   22.7472 H   0  0  0  0  0  0
  -21.0892   -8.8863   19.8957 H   0  0  0  0  0  0
  -22.3808  -10.9714   19.6163 H   0  0  0  0  0  0
  -21.2000   -7.6144   23.9752 H   0  0  0  0  0  0
  -21.1503   -6.0484   25.9084 H   0  0  0  0  0  0
  -22.0590   -2.7626   23.2791 H   0  0  0  0  0  0
  -22.3985  -11.9962   22.4867 H   0  0  0  0  0  0
  -21.0999  -13.1323   22.2536 H   0  0  0  0  0  0
  -24.6457  -15.8543   20.5475 H   0  0  0  0  0  0
  -26.2624  -15.6499   20.1072 H   0  0  0  0  0  0
  -26.7226  -32.5456   23.1101 H   0  0  0  0  0  0
  -25.0173  -33.9695   25.0451 H   0  0  0  0  0  0
  -22.6997  -31.3057   21.3996 H   0  0  0  0  0  0
  -23.3715  -35.9679   23.3283 H   0  0  0  0  0  0
  -24.3596  -36.8910   22.2059 H   0  0  0  0  0  0
  -23.7281  -37.6529   23.6646 H   0  0  0  0  0  0
  -26.0705  -31.5623   20.5815 H   0  0  0  0  0  0
  -26.8316  -30.8590   21.9779 H   0  0  0  0  0  0
  -28.1036  -29.0329   21.1798 H   0  0  0  0  0  0
  -26.0171  -25.9142   19.0554 H   0  0  0  0  0  0
  -23.9685  -27.2848   19.0212 H   0  0  0  0  0  0
  -23.7333  -30.5876   19.3905 H   0  0  0  0  0  0
  -22.7410  -29.2433   19.8588 H   0  0  0  0  0  0
  -25.1296  -36.1887   25.0832 H   0  0  0  0  0  0
  -21.0042  -28.3259   24.1415 H   0  0  0  0  0  0
  -20.5745  -26.2302   23.3614 H   0  0  0  0  0  0
  -21.6665  -26.7473   22.1194 H   0  0  0  0  0  0
  -19.6889  -25.6323   21.1242 H   0  0  0  0  0  0
  -19.6657  -27.3241   20.6792 H   0  0  0  0  0  0
  -17.4226  -26.6750   21.4022 H   0  0  0  0  0  0
  -18.0288  -26.0060   22.9016 H   0  0  0  0  0  0
  -19.7936  -30.7364   24.2188 H   0  0  0  0  0  0
  -17.4983  -31.6257   24.5241 H   0  0  0  0  0  0
  -15.5350  -30.2981   23.7644 H   0  0  0  0  0  0
  -15.8702  -28.0866   22.6965 H   0  0  0  0  0  0
  -24.6006  -30.6955   25.7787 H   0  0  0  0  0  0
  -24.9004  -32.2829   26.4823 H   0  0  0  0  0  0
  -25.8207  -30.8883   27.0179 H   0  0  0  0  0  0
  -26.2870  -29.6687   24.1189 H   0  0  0  0  0  0
  -27.4183  -29.7220   25.4505 H   0  0  0  0  0  0
  -27.8689  -30.4240   23.9153 H   0  0  0  0  0  0
  -27.2631  -33.3559   26.2002 H   0  0  0  0  0  0
  -28.3896  -32.6806   25.0314 H   0  0  0  0  0  0
  -28.0690  -31.8414   26.5398 H   0  0  0  0  0  0
  -28.2597  -38.0095   24.7493 H   0  0  0  0  0  0
  -28.1049  -36.2613   24.6304 H   0  0  0  0  0  0
  -27.2299  -37.1485   25.8880 H   0  0  0  0  0  0
  -20.9313  -29.8747   21.6921 H   0  0  0  0  0  0
  -26.0129  -38.2845   24.1370 H   0  0  0  0  0  0
  -34.1272  -19.6769   20.7599 H   0  0  0  0  0  0
  -34.5619  -17.5518   19.5362 H   0  0  0  0  0  0
  -31.8523  -20.3750   21.0974 H   0  0  0  0  0  0
  -32.7756  -16.0360   19.0710 H   0  0  0  0  0  0
  -29.0406  -19.0408   19.5237 H   0  0  0  0  0  0
  -30.4679  -21.6149   22.4661 H   0  0  0  0  0  0
  -30.3253  -19.9177   22.9307 H   0  0  0  0  0  0
  -28.9747  -21.0028   23.1777 H   0  0  0  0  0  0
  -28.9754  -24.0566   19.1634 H   0  0  0  0  0  0
  -27.2918  -23.7767   19.4827 H   0  0  0  0  0  0
  -29.0935  -25.2198   21.4947 H   0  0  0  0  0  0
  -27.3662  -25.2459   21.4869 H   0  0  0  0  0  0
  -29.3184  -16.0547   20.3232 H   0  0  0  0  0  0
  -29.4614  -22.8074   21.3310 H   0  0  0  0  0  0
  1 25  1  0  0  0
  1 30  2  0  0  0
  1 83  1  0  0  0
  2  3  1  0  0  0
  2 25  1  0  0  0
  2 86  1  0  0  0
  2 87  1  0  0  0
  3  4  1  0  0  0
  3 88  1  0  0  0
  3 89  1  0  0  0
  4  5  1  0  0  0
  4 90  1  0  0  0
  4 91  1  0  0  0
  5  6  1  0  0  0
  5 26  1  0  0  0
  5 92  1  0  0  0
  6 25  1  0  0  0
  6 93  1  0  0  0
  6 94  1  0  0  0
  7  8  2  0  0  0
  7 26  1  0  0  0
  7 29  1  0  0  0
  8  9  1  0  0  0
  8 22  1  0  0  0
  9 10  1  0  0  0
  9 27  2  0  0  0
 10 11  2  0  0  0
 10 15  1  0  0  0
 11 12  1  0  0  0
 11 95  1  0  0  0
 12 13  2  0  0  0
 12 96  1  0  0  0
 13 14  1  0  0  0
 13 31  1  0  0  0
 14 15  2  0  0  0
 14 97  1  0  0  0
 15 98  1  0  0  0
 16 17  2  0  0  0
 16 21  1  0  0  0
 16 31  1  0  0  0
 17 18  1  0  0  0
 17 99  1  0  0  0
 18 19  2  0  0  0
 18100  1  0  0  0
 19 20  1  0  0  0
 19 24  1  0  0  0
 20 21  2  0  0  0
 20101  1  0  0  0
 21 23  1  0  0  0
 22 28  1  0  0  0
 22 32  2  0  0  0
 26 27  1  0  0  0
 28102  1  0  0  0
 28103  1  0  0  0
 29104  1  0  0  0
 29105  1  0  0  0
 33 34  1  0  0  0
 33 66  1  0  0  0
 33 70  2  0  0  0
 34 36  1  0  0  0
 34 59  1  0  0  0
 34106  1  0  0  0
 35 44  2  0  0  0
 35 45  1  0  0  0
 35 68  1  0  0  0
 36 56  1  0  0  0
 36107  1  0  0  0
 37 39  1  0  0  0
 37 47  1  0  0  0
 37 66  1  0  0  0
 37108  1  0  0  0
 38 43  2  0  0  0
 38 46  1  0  0  0
 38 47  1  0  0  0
 39 64  1  0  0  0
 39 67  2  0  0  0
 40 52  1  0  0  0
 40 53  2  0  0  0
 40 58  1  0  0  0
 41109  1  0  0  0
 41110  1  0  0  0
 41111  1  0  0  0
 41 48  1  0  0  0
 42 43  1  0  0  0
 42 66  1  0  0  0
 42112  1  0  0  0
 42113  1  0  0  0
 43 44  1  0  0  0
 44114  1  0  0  0
 45 46  2  0  0  0
 45115  1  0  0  0
 46116  1  0  0  0
 47117  1  0  0  0
 47118  1  0  0  0
 48 56  1  0  0  0
 48 65  1  0  0  0
 48119  1  0  0  0
 49 50  1  0  0  0
 49 53  1  0  0  0
 49 64  1  0  0  0
 49120  1  0  0  0
 50 51  1  0  0  0
 50121  1  0  0  0
 50122  1  0  0  0
 51 52  1  0  0  0
 51123  1  0  0  0
 51124  1  0  0  0
 52125  1  0  0  0
 52126  1  0  0  0
 53 54  1  0  0  0
 54 55  2  0  0  0
 54127  1  0  0  0
 55 57  1  0  0  0
 55128  1  0  0  0
 56 69  2  0  0  0
 57 58  2  0  0  0
 57129  1  0  0  0
 58130  1  0  0  0
 59 60  1  0  0  0
 59 61  1  0  0  0
 59 62  1  0  0  0
 60131  1  0  0  0
 60132  1  0  0  0
 60133  1  0  0  0
 61134  1  0  0  0
 61135  1  0  0  0
 61136  1  0  0  0
 62137  1  0  0  0
 62138  1  0  0  0
 62139  1  0  0  0
 63 65  1  0  0  0
 63140  1  0  0  0
 63141  1  0  0  0
 63142  1  0  0  0
 64143  1  0  0  0
 65144  1  0  0  0
 68 82  1  0  0  0
 71 72  2  0  0  0
 71 73  1  0  0  0
 71145  1  0  0  0
 72 74  1  0  0  0
 72146  1  0  0  0
 73 75  2  0  0  0
 73147  1  0  0  0
 74 76  2  0  0  0
 74148  1  0  0  0
 75 76  1  0  0  0
 75 77  1  0  0  0
 76 83  1  0  0  0
 77 78  2  0  0  0
 77149  1  0  0  0
 78 79  1  0  0  0
 78 80  1  0  0  0
 79 84  1  0  0  0
 79 85  2  0  0  0
 80150  1  0  0  0
 80151  1  0  0  0
 80152  1  0  0  0
 81 82  1  0  0  0
 81 84  1  0  0  0
 81153  1  0  0  0
 81154  1  0  0  0
 82155  1  0  0  0
 82156  1  0  0  0
 83157  1  0  0  0
 84158  1  0  0  0
M  ISO  4   1 100  68 101  82 101  83 100
M  END
> <chiral flag>
0

> <version>
0

> <s_m_source_file>
/data/baiqing/PycharmProjects/Reinvent-master-3.2/result/LINK_invent/BTK/process_docking_weight1_custom_product_contain_oxygen_bond_distance_aromatic_linkinvent_7_9_3/rearranged_h_0054.sdf

> <i_m_source_file_index>
85

> <r_mmod_Potential_Energy-OPLS-2005>
187.822479248047

> <r_mmod_Stretch_Energy-OPLS-2005>
82.4494323730469

> <r_mmod_Bend_Energy-OPLS-2005>
157.447021484375

> <r_mmod_Torsional_Energy-OPLS-2005>
367.296569824219

> <r_mmod_Improper_Torsional_Energy-OPLS-2005>
16.5990161895752

> <r_mmod_Van_der_Waal_Energy-OPLS-2005>
177.96240234375

> <r_mmod_Electrostatic_Energy-OPLS-2005>
-465.830169677734

> <r_mmod_Solvation_Energy-OPLS-2005>
-225.662078857422

> <b_mmod_Minimization_Converged-OPLS-2005>
0

> <r_mmod_RMS_Derivative-OPLS-2005>
4.47212028503418

$$$$
85
                    3D
 Structure written by MMmdl.
167176  0  0  1  0            999 V2000
  -30.6573  -14.5884   20.5607 C   0  0  0  0  0  0
  -30.4474  -12.3928   19.4437 C   0  0  0  0  0  0
  -29.5144  -12.5486   18.2215 C   0  0  0  0  0  0
  -28.0295  -12.4035   18.6180 C   0  0  0  0  0  0
  -27.6650  -13.2258   19.8831 C   0  0  2  0  0  0
  -28.7079  -13.0418   21.0055 C   0  0  0  0  0  0
  -25.2605  -13.8206   20.5672 C   0  0  0  0  0  0
  -24.1842  -13.0464   20.9173 C   0  0  0  0  0  0
  -24.6447  -11.6956   20.8757 C   0  0  0  0  0  0
  -23.9072  -10.4349   21.0389 C   0  0  0  0  0  0
  -24.3623   -9.4250   21.9153 C   0  0  0  0  0  0
  -23.6330   -8.2255   22.0692 C   0  0  0  0  0  0
  -22.4308   -8.0262   21.3469 C   0  0  0  0  0  0
  -21.9951   -9.0257   20.4577 C   0  0  0  0  0  0
  -22.7260  -10.2165   20.3034 C   0  0  0  0  0  0
  -21.6865   -6.0710   22.5273 C   0  0  0  0  0  0
  -21.4015   -6.5607   23.8197 C   0  0  0  0  0  0
  -21.3677   -5.6751   24.9165 C   0  0  0  0  0  0
  -21.6079   -4.3024   24.7194 C   0  0  0  0  0  0
  -21.8825   -3.8096   23.4321 C   0  0  0  0  0  0
  -21.9215   -4.6936   22.3368 C   0  0  0  0  0  0
  -22.7885  -13.5256   21.1761 C   0  0  0  0  0  0
  -22.1642   -4.2108   21.0941 F   0  0  0  0  0  0
  -21.5682   -3.4512   25.7726 F   0  0  0  0  0  0
  -30.0277  -13.3801   20.4500 N   0  0  0  0  0  0
  -26.3060  -12.9414   20.3423 N   0  0  0  0  0  0
  -25.9393  -11.6562   20.5814 N   0  0  0  0  0  0
  -22.0457  -12.8328   22.0394 N   0  0  0  0  0  0
  -25.4324  -15.1920   20.4100 N   0  0  0  0  0  0
  -31.8263  -14.7426   20.1988 O   0  0  0  0  0  0
  -21.6622   -6.8887   21.4252 O   0  0  0  0  0  0
  -22.3614  -14.5527   20.6570 O   0  0  0  0  0  0
  -24.6381  -31.8532   23.1954 C   0  0  0  0  0  0
  -25.9210  -32.4714   23.8290 C   0  0  1  0  0  0
  -27.2009  -27.2607   20.1080 C   0  0  0  0  0  0
  -25.5969  -33.8486   24.2180 N   0  0  0  0  0  0
  -23.4301  -30.4888   21.5400 C   0  0  2  0  0  0
  -24.8644  -28.9340   20.1195 C   0  0  0  0  0  0
  -22.7531  -29.4653   22.4834 C   0  0  0  0  0  0
  -18.0329  -28.1446   22.8461 C   0  0  0  0  0  0
  -24.1494  -36.7245   23.2639 C   0  0  0  0  0  0
  -25.9871  -30.7628   21.3843 C   0  0  0  0  0  0
  -26.0465  -29.3899   20.7200 C   0  0  0  0  0  0
  -27.2206  -28.5684   20.7043 C   0  0  0  0  0  0
  -25.9959  -26.8756   19.4802 C   0  0  0  0  0  0
  -24.8448  -27.6790   19.5011 C   0  0  0  0  0  0
  -23.6400  -29.8258   20.1577 C   0  0  0  0  0  0
  -25.4122  -36.3009   24.0299 C   0  0  1  0  0  0
  -20.5934  -28.3749   23.1240 C   0  0  2  0  0  0
  -20.6815  -26.9450   22.5397 C   0  0  0  0  0  0
  -19.5776  -26.6397   21.5217 C   0  0  0  0  0  0
  -18.1961  -26.7978   22.1613 C   0  0  0  0  0  0
  -19.1583  -28.8901   23.2853 C   0  0  0  0  0  0
  -18.9481  -30.1517   23.8855 C   0  0  0  0  0  0
  -17.6464  -30.6611   24.0578 C   0  0  0  0  0  0
  -25.9085  -34.9392   23.5040 C   0  0  0  0  0  0
  -16.5360  -29.9119   23.6340 C   0  0  0  0  0  0
  -16.7308  -28.6563   23.0305 C   0  0  0  0  0  0
  -26.4517  -31.6579   25.0721 C   0  0  0  0  0  0
  -25.3697  -31.3810   26.1443 C   0  0  0  0  0  0
  -27.0388  -30.2956   24.6367 C   0  0  0  0  0  0
  -27.6042  -32.4373   25.7507 C   0  0  0  0  0  0
  -27.5591  -37.1776   24.8447 C   0  0  0  0  0  0
  -21.4228  -29.3081   22.3610 N   0  0  0  0  0  0
  -26.4291  -37.3720   23.9414 N   0  0  0  0  0  0
  -24.7058  -31.0539   22.0925 N   0  0  0  0  0  0
  -23.4232  -28.8152   23.2903 O   0  0  0  0  0  0
  -28.2974  -26.3658   20.0973 O   0  0  0  0  0  0
  -26.5632  -34.8896   22.4615 O   0  0  0  0  0  0
  -23.5537  -32.1331   23.7250 O   0  0  0  0  0  0
  -29.3983  -19.2748   21.7386 C   0  0  0  0  0  0
  -29.4526  -17.8685   21.8280 C   0  0  0  0  0  0
  -29.9618  -19.9859   20.6579 C   0  0  0  0  0  0
  -30.5853  -19.2059   19.6244 C   0  0  0  0  0  0
  -30.5164  -17.7669   19.6539 C   0  0  0  0  0  0
  -29.9977  -17.0727   20.7950 C   0  0  0  0  0  0
  -27.8004  -21.7420   19.4477 C   0  0  0  0  0  0
  -27.4735  -22.2027   18.0287 C   0  0  0  0  0  0
  -28.6400  -22.9548   17.3515 C   0  0  0  0  0  0
  -29.4631  -23.9018   18.2592 C   0  0  0  0  0  0
  -29.1484  -23.8091   19.7678 C   0  0  1  0  0  0
  -31.3825  -19.8801   18.4963 C   0  0  0  0  0  0
  -30.9619  -16.9710   18.4271 C   0  0  0  0  0  0
  -29.9205  -21.5538   20.7291 C   0  0  0  0  0  0
  -28.0614  -24.8872   20.2815 C   0  0  0  0  0  0
  -28.8437  -22.3521   20.0608 N   0  0  0  0  0  0
  -29.8634  -15.6292   20.9398 N   0  0  0  0  0  0
  -27.1769  -20.7833   19.9172 O   0  0  0  0  0  0
  -31.4872  -12.5429   19.1362 H   0  0  0  0  0  0
  -30.3960  -11.3872   19.8609 H   0  0  0  0  0  0
  -29.7745  -11.8046   17.4667 H   0  0  0  0  0  0
  -29.6772  -13.5282   17.7627 H   0  0  0  0  0  0
  -27.8361  -11.3453   18.7970 H   0  0  0  0  0  0
  -27.3842  -12.6906   17.7841 H   0  0  0  0  0  0
  -27.7014  -14.2762   19.5885 H   0  0  0  0  0  0
  -28.7213  -12.0126   21.3695 H   0  0  0  0  0  0
  -28.4611  -13.6650   21.8675 H   0  0  0  0  0  0
  -25.2763   -9.5765   22.4746 H   0  0  0  0  0  0
  -24.0046   -7.4675   22.7450 H   0  0  0  0  0  0
  -21.0849   -8.8819   19.8909 H   0  0  0  0  0  0
  -22.3692  -10.9724   19.6173 H   0  0  0  0  0  0
  -21.1947   -7.6098   23.9742 H   0  0  0  0  0  0
  -21.1522   -6.0408   25.9091 H   0  0  0  0  0  0
  -22.0603   -2.7565   23.2789 H   0  0  0  0  0  0
  -22.3960  -12.0032   22.4942 H   0  0  0  0  0  0
  -21.1069  -13.1430   22.2387 H   0  0  0  0  0  0
  -24.6839  -15.8653   20.5225 H   0  0  0  0  0  0
  -26.3035  -15.6303   20.1415 H   0  0  0  0  0  0
  -26.7289  -32.5277   23.1018 H   0  0  0  0  0  0
  -25.0089  -33.9590   25.0321 H   0  0  0  0  0  0
  -22.7358  -31.3201   21.3977 H   0  0  0  0  0  0
  -23.3736  -35.9599   23.3261 H   0  0  0  0  0  0
  -24.3593  -36.8887   22.2051 H   0  0  0  0  0  0
  -23.7263  -37.6437   23.6705 H   0  0  0  0  0  0
  -26.1639  -31.5304   20.6275 H   0  0  0  0  0  0
  -26.8545  -30.7647   22.0361 H   0  0  0  0  0  0
  -28.1262  -28.9216   21.1819 H   0  0  0  0  0  0
  -25.9045  -25.9402   18.9531 H   0  0  0  0  0  0
  -23.9429  -27.3157   19.0283 H   0  0  0  0  0  0
  -23.7769  -30.6009   19.4057 H   0  0  0  0  0  0
  -22.7507  -29.2769   19.8430 H   0  0  0  0  0  0
  -25.1322  -36.1817   25.0798 H   0  0  0  0  0  0
  -21.0056  -28.3332   24.1346 H   0  0  0  0  0  0
  -20.5721  -26.2348   23.3605 H   0  0  0  0  0  0
  -21.6689  -26.7481   22.1180 H   0  0  0  0  0  0
  -19.6920  -25.6304   21.1269 H   0  0  0  0  0  0
  -19.6740  -27.3189   20.6729 H   0  0  0  0  0  0
  -17.4246  -26.6719   21.4008 H   0  0  0  0  0  0
  -18.0363  -26.0172   22.9053 H   0  0  0  0  0  0
  -19.7958  -30.7396   24.2136 H   0  0  0  0  0  0
  -17.5024  -31.6275   24.5226 H   0  0  0  0  0  0
  -15.5365  -30.3002   23.7719 H   0  0  0  0  0  0
  -15.8712  -28.0929   22.6934 H   0  0  0  0  0  0
  -24.5857  -30.7159   25.7800 H   0  0  0  0  0  0
  -24.8900  -32.3005   26.4806 H   0  0  0  0  0  0
  -25.7962  -30.9036   27.0268 H   0  0  0  0  0  0
  -26.3014  -29.6667   24.1359 H   0  0  0  0  0  0
  -27.3914  -29.7304   25.4998 H   0  0  0  0  0  0
  -27.8975  -30.4123   23.9746 H   0  0  0  0  0  0
  -27.2584  -33.3664   26.2062 H   0  0  0  0  0  0
  -28.3867  -32.6943   25.0354 H   0  0  0  0  0  0
  -28.0730  -31.8529   26.5436 H   0  0  0  0  0  0
  -28.2568  -38.0107   24.7546 H   0  0  0  0  0  0
  -28.1123  -36.2636   24.6223 H   0  0  0  0  0  0
  -27.2329  -37.1381   25.8851 H   0  0  0  0  0  0
  -20.9432  -29.8785   21.6786 H   0  0  0  0  0  0
  -26.0121  -38.2772   24.1452 H   0  0  0  0  0  0
  -28.9123  -19.8113   22.5401 H   0  0  0  0  0  0
  -29.0421  -17.4092   22.7152 H   0  0  0  0  0  0
  -26.5546  -22.7876   18.0391 H   0  0  0  0  0  0
  -27.2638  -21.2994   17.4444 H   0  0  0  0  0  0
  -28.2861  -23.5028   16.4781 H   0  0  0  0  0  0
  -29.3113  -22.1849   16.9669 H   0  0  0  0  0  0
  -29.3973  -24.9384   17.9199 H   0  0  0  0  0  0
  -30.5144  -23.6200   18.1173 H   0  0  0  0  0  0
  -30.0850  -24.0492   20.2693 H   0  0  0  0  0  0
  -31.2205  -20.9527   18.4067 H   0  0  0  0  0  0
  -31.1456  -19.4815   17.5114 H   0  0  0  0  0  0
  -32.4560  -19.7213   18.6468 H   0  0  0  0  0  0
  -32.0158  -16.6941   18.5154 H   0  0  0  0  0  0
  -30.8158  -17.4935   17.4863 H   0  0  0  0  0  0
  -30.3470  -16.0790   18.3093 H   0  0  0  0  0  0
  -30.8750  -21.9397   20.3725 H   0  0  0  0  0  0
  -29.8620  -21.8323   21.7842 H   0  0  0  0  0  0
  -27.9753  -24.7272   21.3640 H   0  0  0  0  0  0
  -27.0994  -24.5501   19.8992 H   0  0  0  0  0  0
  -28.9966  -15.3252   21.3587 H   0  0  0  0  0  0
  1 25  1  0  0  0
  1 30  2  0  0  0
  1 87  1  0  0  0
  2  3  1  0  0  0
  2 25  1  0  0  0
  2 89  1  0  0  0
  2 90  1  0  0  0
  3  4  1  0  0  0
  3 91  1  0  0  0
  3 92  1  0  0  0
  4  5  1  0  0  0
  4 93  1  0  0  0
  4 94  1  0  0  0
  5  6  1  0  0  0
  5 26  1  0  0  0
  5 95  1  0  0  0
  6 25  1  0  0  0
  6 96  1  0  0  0
  6 97  1  0  0  0
  7  8  2  0  0  0
  7 26  1  0  0  0
  7 29  1  0  0  0
  8  9  1  0  0  0
  8 22  1  0  0  0
  9 10  1  0  0  0
  9 27  2  0  0  0
 10 11  2  0  0  0
 10 15  1  0  0  0
 11 12  1  0  0  0
 11 98  1  0  0  0
 12 13  2  0  0  0
 12 99  1  0  0  0
 13 14  1  0  0  0
 13 31  1  0  0  0
 14 15  2  0  0  0
 14100  1  0  0  0
 15101  1  0  0  0
 16 17  2  0  0  0
 16 21  1  0  0  0
 16 31  1  0  0  0
 17 18  1  0  0  0
 17102  1  0  0  0
 18 19  2  0  0  0
 18103  1  0  0  0
 19 20  1  0  0  0
 19 24  1  0  0  0
 20 21  2  0  0  0
 20104  1  0  0  0
 21 23  1  0  0  0
 22 28  1  0  0  0
 22 32  2  0  0  0
 26 27  1  0  0  0
 28105  1  0  0  0
 28106  1  0  0  0
 29107  1  0  0  0
 29108  1  0  0  0
 33 34  1  0  0  0
 33 66  1  0  0  0
 33 70  2  0  0  0
 34 36  1  0  0  0
 34 59  1  0  0  0
 34109  1  0  0  0
 35 44  2  0  0  0
 35 45  1  0  0  0
 35 68  1  0  0  0
 36 56  1  0  0  0
 36110  1  0  0  0
 37 39  1  0  0  0
 37 47  1  0  0  0
 37 66  1  0  0  0
 37111  1  0  0  0
 38 43  2  0  0  0
 38 46  1  0  0  0
 38 47  1  0  0  0
 39 64  1  0  0  0
 39 67  2  0  0  0
 40 52  1  0  0  0
 40 53  2  0  0  0
 40 58  1  0  0  0
 41112  1  0  0  0
 41113  1  0  0  0
 41114  1  0  0  0
 41 48  1  0  0  0
 42 43  1  0  0  0
 42 66  1  0  0  0
 42115  1  0  0  0
 42116  1  0  0  0
 43 44  1  0  0  0
 44117  1  0  0  0
 45 46  2  0  0  0
 45118  1  0  0  0
 46119  1  0  0  0
 47120  1  0  0  0
 47121  1  0  0  0
 48 56  1  0  0  0
 48 65  1  0  0  0
 48122  1  0  0  0
 49 50  1  0  0  0
 49 53  1  0  0  0
 49 64  1  0  0  0
 49123  1  0  0  0
 50 51  1  0  0  0
 50124  1  0  0  0
 50125  1  0  0  0
 51 52  1  0  0  0
 51126  1  0  0  0
 51127  1  0  0  0
 52128  1  0  0  0
 52129  1  0  0  0
 53 54  1  0  0  0
 54 55  2  0  0  0
 54130  1  0  0  0
 55 57  1  0  0  0
 55131  1  0  0  0
 56 69  2  0  0  0
 57 58  2  0  0  0
 57132  1  0  0  0
 58133  1  0  0  0
 59 60  1  0  0  0
 59 61  1  0  0  0
 59 62  1  0  0  0
 60134  1  0  0  0
 60135  1  0  0  0
 60136  1  0  0  0
 61137  1  0  0  0
 61138  1  0  0  0
 61139  1  0  0  0
 62140  1  0  0  0
 62141  1  0  0  0
 62142  1  0  0  0
 63 65  1  0  0  0
 63143  1  0  0  0
 63144  1  0  0  0
 63145  1  0  0  0
 64146  1  0  0  0
 65147  1  0  0  0
 68 85  1  0  0  0
 71 72  2  0  0  0
 71 73  1  0  0  0
 71148  1  0  0  0
 72 76  1  0  0  0
 72149  1  0  0  0
 73 74  2  0  0  0
 73 84  1  0  0  0
 74 75  1  0  0  0
 74 82  1  0  0  0
 75 76  2  0  0  0
 75 83  1  0  0  0
 76 87  1  0  0  0
 77 78  1  0  0  0
 77 86  1  0  0  0
 77 88  2  0  0  0
 78 79  1  0  0  0
 78150  1  0  0  0
 78151  1  0  0  0
 79 80  1  0  0  0
 79152  1  0  0  0
 79153  1  0  0  0
 80 81  1  0  0  0
 80154  1  0  0  0
 80155  1  0  0  0
 81 85  1  0  0  0
 81 86  1  0  0  0
 81156  1  0  0  0
 82157  1  0  0  0
 82158  1  0  0  0
 82159  1  0  0  0
 83160  1  0  0  0
 83161  1  0  0  0
 83162  1  0  0  0
 84 86  1  0  0  0
 84163  1  0  0  0
 84164  1  0  0  0
 85165  1  0  0  0
 85166  1  0  0  0
 87167  1  0  0  0
M  ISO  4   1 100  68 101  85 101  87 100
M  END
> <chiral flag>
0

> <version>
0

> <s_m_source_file>
/data/baiqing/PycharmProjects/Reinvent-master-3.2/result/LINK_invent/BTK/process_docking_weight1_custom_product_contain_oxygen_bond_distance_aromatic_linkinvent_7_9_3/rearranged_h_0054.sdf

> <i_m_source_file_index>
86

> <r_mmod_Potential_Energy-OPLS-2005>
156.850921630859

> <r_mmod_Stretch_Energy-OPLS-2005>
94.9791107177734

> <r_mmod_Bend_Energy-OPLS-2005>
156.323745727539

> <r_mmod_Torsional_Energy-OPLS-2005>
314.270965576172

> <r_mmod_Improper_Torsional_Energy-OPLS-2005>
5.68547630310059

> <r_mmod_Van_der_Waal_Energy-OPLS-2005>
163.126861572266

> <r_mmod_Electrostatic_Energy-OPLS-2005>
-406.032623291016

> <r_mmod_Solvation_Energy-OPLS-2005>
-227.335067749023

> <b_mmod_Minimization_Converged-OPLS-2005>
0

> <r_mmod_RMS_Derivative-OPLS-2005>
10.5010852813721

$$$$
86
                    3D
 Structure written by MMmdl.
148156  0  0  1  0            999 V2000
  -30.5678  -14.9470   20.4659 C   0  0  0  0  0  0
  -30.4373  -12.5586   19.5533 C   0  0  0  0  0  0
  -29.5397  -12.5461   18.2945 C   0  0  0  0  0  0
  -28.0726  -12.2991   18.6878 C   0  0  0  0  0  0
  -27.6199  -13.2507   19.8261 C   0  0  2  0  0  0
  -28.6318  -13.3016   20.9828 C   0  0  0  0  0  0
  -25.2421  -13.8211   20.5697 C   0  0  0  0  0  0
  -24.1770  -13.0392   20.9213 C   0  0  0  0  0  0
  -24.6366  -11.6893   20.8673 C   0  0  0  0  0  0
  -23.9035  -10.4261   21.0357 C   0  0  0  0  0  0
  -24.3642   -9.4180   21.9125 C   0  0  0  0  0  0
  -23.6322   -8.2206   22.0716 C   0  0  0  0  0  0
  -22.4275   -8.0272   21.3548 C   0  0  0  0  0  0
  -21.9900   -9.0212   20.4627 C   0  0  0  0  0  0
  -22.7206  -10.2099   20.3003 C   0  0  0  0  0  0
  -21.6819   -6.0781   22.5281 C   0  0  0  0  0  0
  -21.3992   -6.5674   23.8232 C   0  0  0  0  0  0
  -21.3654   -5.6831   24.9192 C   0  0  0  0  0  0
  -21.6039   -4.3094   24.7231 C   0  0  0  0  0  0
  -21.8820   -3.8191   23.4345 C   0  0  0  0  0  0
  -21.9189   -4.7014   22.3411 C   0  0  0  0  0  0
  -22.7811  -13.5139   21.1957 C   0  0  0  0  0  0
  -22.1679   -4.2199   21.0982 F   0  0  0  0  0  0
  -21.5594   -3.4572   25.7726 F   0  0  0  0  0  0
  -29.9412  -13.6502   20.4325 N   0  0  0  0  0  0
  -26.2799  -12.9434   20.3111 N   0  0  0  0  0  0
  -25.9268  -11.6544   20.5568 N   0  0  0  0  0  0
  -22.0567  -12.8034   22.0550 N   0  0  0  0  0  0
  -25.4120  -15.1952   20.4268 N   0  0  0  0  0  0
  -31.7819  -15.0169   20.2524 O   0  0  0  0  0  0
  -21.6637   -6.8890   21.4232 O   0  0  0  0  0  0
  -22.3442  -14.5427   20.6835 O   0  0  0  0  0  0
  -24.6405  -31.8463   23.1849 C   0  0  0  0  0  0
  -25.9174  -32.4727   23.8224 C   0  0  1  0  0  0
  -27.2102  -27.1168   20.2018 C   0  0  0  0  0  0
  -25.5932  -33.8542   24.2144 N   0  0  0  0  0  0
  -23.4436  -30.4602   21.5313 C   0  0  2  0  0  0
  -24.9034  -28.9017   20.1076 C   0  0  0  0  0  0
  -22.7535  -29.4485   22.4797 C   0  0  0  0  0  0
  -18.0276  -28.1333   22.8529 C   0  0  0  0  0  0
  -24.1497  -36.7251   23.2640 C   0  0  0  0  0  0
  -26.0023  -30.7198   21.3928 C   0  0  0  0  0  0
  -26.0780  -29.3294   20.7414 C   0  0  0  0  0  0
  -27.2296  -28.4537   20.7786 C   0  0  0  0  0  0
  -26.0175  -26.8067   19.5043 C   0  0  0  0  0  0
  -24.8939  -27.6573   19.4682 C   0  0  0  0  0  0
  -23.6782  -29.8015   20.1465 C   0  0  0  0  0  0
  -25.4123  -36.3051   24.0306 C   0  0  1  0  0  0
  -20.5863  -28.3685   23.1234 C   0  0  2  0  0  0
  -20.6609  -26.9339   22.5558 C   0  0  0  0  0  0
  -19.5708  -26.6286   21.5275 C   0  0  0  0  0  0
  -18.1850  -26.7954   22.1509 C   0  0  0  0  0  0
  -19.1520  -28.8828   23.2907 C   0  0  0  0  0  0
  -18.9474  -30.1478   23.8859 C   0  0  0  0  0  0
  -17.6487  -30.6671   24.0425 C   0  0  0  0  0  0
  -25.9079  -34.9445   23.5033 C   0  0  0  0  0  0
  -16.5378  -29.9131   23.6246 C   0  0  0  0  0  0
  -16.7279  -28.6494   23.0364 C   0  0  0  0  0  0
  -26.4480  -31.6578   25.0665 C   0  0  0  0  0  0
  -25.3618  -31.3815   26.1321 C   0  0  0  0  0  0
  -27.0319  -30.2950   24.6281 C   0  0  0  0  0  0
  -27.6004  -32.4338   25.7455 C   0  0  0  0  0  0
  -27.5556  -37.1793   24.8470 C   0  0  0  0  0  0
  -21.4226  -29.2925   22.3533 N   0  0  0  0  0  0
  -26.4266  -37.3748   23.9410 N   0  0  0  0  0  0
  -24.7139  -31.0275   22.0918 N   0  0  0  0  0  0
  -23.4157  -28.8089   23.3014 O   0  0  0  0  0  0
  -28.2364  -26.0933   20.2874 O   0  0  0  0  0  0
  -26.5707  -34.8949   22.4640 O   0  0  0  0  0  0
  -23.5531  -32.1346   23.7068 O   0  0  0  0  0  0
  -31.2678  -19.7194   23.6574 C   0  0  0  0  0  0
  -31.1797  -18.3337   23.7877 C   0  0  0  0  0  0
  -30.6803  -20.3490   22.5451 C   0  0  0  0  0  0
  -30.6102  -17.5821   22.7544 C   0  0  0  0  0  0
  -29.9677  -19.6633   21.5145 C   0  0  0  0  0  0
  -30.0591  -18.1357   21.5716 C   0  0  0  0  0  0
  -28.7645  -23.1943   20.3165 C   0  0  0  0  0  0
  -29.2951  -20.7164   20.5208 C   0  0  0  0  0  0
  -27.8530  -24.5936   20.5661 C   0  0  0  0  0  0
  -28.7788  -22.0239   21.0059 N   0  0  0  0  0  0
  -29.2223  -20.3812   19.3414 O   0  0  0  0  0  0
  -29.5038  -16.6682   20.4789 S   0  0  0  0  0  0
  -31.4856  -12.6935   19.2818 H   0  0  0  0  0  0
  -30.3863  -11.6061   20.0831 H   0  0  0  0  0  0
  -29.8800  -11.7884   17.5887 H   0  0  0  0  0  0
  -29.6232  -13.5129   17.7939 H   0  0  0  0  0  0
  -28.0018  -11.2632   19.0240 H   0  0  0  0  0  0
  -27.4190  -12.3876   17.8174 H   0  0  0  0  0  0
  -27.5762  -14.2450   19.3823 H   0  0  0  0  0  0
  -28.6811  -12.3385   21.4940 H   0  0  0  0  0  0
  -28.3184  -14.0366   21.7246 H   0  0  0  0  0  0
  -25.2807   -9.5674   22.4695 H   0  0  0  0  0  0
  -24.0062   -7.4576   22.7398 H   0  0  0  0  0  0
  -21.0839   -8.8696   19.8919 H   0  0  0  0  0  0
  -22.3651  -10.9640   19.6126 H   0  0  0  0  0  0
  -21.1987   -7.6183   23.9754 H   0  0  0  0  0  0
  -21.1462   -6.0551   25.9101 H   0  0  0  0  0  0
  -22.0606   -2.7638   23.2813 H   0  0  0  0  0  0
  -22.4287  -11.9667   22.4826 H   0  0  0  0  0  0
  -21.1190  -13.0938   22.2942 H   0  0  0  0  0  0
  -24.6431  -15.8450   20.5525 H   0  0  0  0  0  0
  -26.2704  -15.6479   20.1358 H   0  0  0  0  0  0
  -26.7222  -32.5318   23.0935 H   0  0  0  0  0  0
  -24.9949  -33.9660   25.0195 H   0  0  0  0  0  0
  -22.7463  -31.2858   21.3753 H   0  0  0  0  0  0
  -23.3782  -35.9558   23.3346 H   0  0  0  0  0  0
  -24.3579  -36.8862   22.2051 H   0  0  0  0  0  0
  -23.7253  -37.6446   23.6680 H   0  0  0  0  0  0
  -26.1579  -31.4770   20.6260 H   0  0  0  0  0  0
  -26.8734  -30.7785   22.0303 H   0  0  0  0  0  0
  -28.0996  -28.7709   21.3338 H   0  0  0  0  0  0
  -25.9070  -25.8684   18.9903 H   0  0  0  0  0  0
  -24.0096  -27.3337   18.9358 H   0  0  0  0  0  0
  -23.8078  -30.5851   19.3982 H   0  0  0  0  0  0
  -22.7983  -29.2403   19.8286 H   0  0  0  0  0  0
  -25.1334  -36.1856   25.0787 H   0  0  0  0  0  0
  -21.0030  -28.3390   24.1319 H   0  0  0  0  0  0
  -20.5206  -26.2354   23.3807 H   0  0  0  0  0  0
  -21.6528  -26.7113   22.1597 H   0  0  0  0  0  0
  -19.6828  -25.6121   21.1475 H   0  0  0  0  0  0
  -19.6700  -27.3002   20.6778 H   0  0  0  0  0  0
  -17.4270  -26.7033   21.3679 H   0  0  0  0  0  0
  -17.9891  -26.0011   22.8733 H   0  0  0  0  0  0
  -19.7938  -30.7374   24.2076 H   0  0  0  0  0  0
  -17.5043  -31.6404   24.4939 H   0  0  0  0  0  0
  -15.5383  -30.3048   23.7547 H   0  0  0  0  0  0
  -15.8683  -28.0769   22.7089 H   0  0  0  0  0  0
  -24.5775  -30.7213   25.7611 H   0  0  0  0  0  0
  -24.8788  -32.3025   26.4614 H   0  0  0  0  0  0
  -25.7801  -30.9027   27.0175 H   0  0  0  0  0  0
  -26.2948  -29.6725   24.1194 H   0  0  0  0  0  0
  -27.3818  -29.7212   25.4868 H   0  0  0  0  0  0
  -27.8917  -30.4168   23.9680 H   0  0  0  0  0  0
  -27.2593  -33.3652   26.1980 H   0  0  0  0  0  0
  -28.3833  -32.6886   25.0309 H   0  0  0  0  0  0
  -28.0660  -31.8495   26.5402 H   0  0  0  0  0  0
  -28.2587  -38.0068   24.7471 H   0  0  0  0  0  0
  -28.1042  -36.2606   24.6362 H   0  0  0  0  0  0
  -27.2286  -37.1512   25.8872 H   0  0  0  0  0  0
  -20.9371  -29.8562   21.6731 H   0  0  0  0  0  0
  -26.0160  -38.2810   24.1429 H   0  0  0  0  0  0
  -31.7623  -20.3127   24.4175 H   0  0  0  0  0  0
  -31.5825  -17.8325   24.6597 H   0  0  0  0  0  0
  -30.7910  -21.4234   22.5142 H   0  0  0  0  0  0
  -30.6135  -16.5131   22.8815 H   0  0  0  0  0  0
  -29.3576  -23.2602   19.3984 H   0  0  0  0  0  0
  -27.4653  -24.5558   21.5899 H   0  0  0  0  0  0
  -26.9740  -24.3877   19.9573 H   0  0  0  0  0  0
  1 25  1  0  0  0
  1 30  2  0  0  0
  1 82  1  0  0  0
  2  3  1  0  0  0
  2 25  1  0  0  0
  2 83  1  0  0  0
  2 84  1  0  0  0
  3  4  1  0  0  0
  3 85  1  0  0  0
  3 86  1  0  0  0
  4  5  1  0  0  0
  4 87  1  0  0  0
  4 88  1  0  0  0
  5  6  1  0  0  0
  5 26  1  0  0  0
  5 89  1  0  0  0
  6 25  1  0  0  0
  6 90  1  0  0  0
  6 91  1  0  0  0
  7  8  2  0  0  0
  7 26  1  0  0  0
  7 29  1  0  0  0
  8  9  1  0  0  0
  8 22  1  0  0  0
  9 10  1  0  0  0
  9 27  2  0  0  0
 10 11  2  0  0  0
 10 15  1  0  0  0
 11 12  1  0  0  0
 11 92  1  0  0  0
 12 13  2  0  0  0
 12 93  1  0  0  0
 13 14  1  0  0  0
 13 31  1  0  0  0
 14 15  2  0  0  0
 14 94  1  0  0  0
 15 95  1  0  0  0
 16 17  2  0  0  0
 16 21  1  0  0  0
 16 31  1  0  0  0
 17 18  1  0  0  0
 17 96  1  0  0  0
 18 19  2  0  0  0
 18 97  1  0  0  0
 19 20  1  0  0  0
 19 24  1  0  0  0
 20 21  2  0  0  0
 20 98  1  0  0  0
 21 23  1  0  0  0
 22 28  1  0  0  0
 22 32  2  0  0  0
 26 27  1  0  0  0
 28 99  1  0  0  0
 28100  1  0  0  0
 29101  1  0  0  0
 29102  1  0  0  0
 33 34  1  0  0  0
 33 66  1  0  0  0
 33 70  2  0  0  0
 34 36  1  0  0  0
 34 59  1  0  0  0
 34103  1  0  0  0
 35 44  2  0  0  0
 35 45  1  0  0  0
 35 68  1  0  0  0
 36 56  1  0  0  0
 36104  1  0  0  0
 37 39  1  0  0  0
 37 47  1  0  0  0
 37 66  1  0  0  0
 37105  1  0  0  0
 38 43  2  0  0  0
 38 46  1  0  0  0
 38 47  1  0  0  0
 39 64  1  0  0  0
 39 67  2  0  0  0
 40 52  1  0  0  0
 40 53  2  0  0  0
 40 58  1  0  0  0
 41106  1  0  0  0
 41107  1  0  0  0
 41108  1  0  0  0
 41 48  1  0  0  0
 42 43  1  0  0  0
 42 66  1  0  0  0
 42109  1  0  0  0
 42110  1  0  0  0
 43 44  1  0  0  0
 44111  1  0  0  0
 45 46  2  0  0  0
 45112  1  0  0  0
 46113  1  0  0  0
 47114  1  0  0  0
 47115  1  0  0  0
 48 56  1  0  0  0
 48 65  1  0  0  0
 48116  1  0  0  0
 49 50  1  0  0  0
 49 53  1  0  0  0
 49 64  1  0  0  0
 49117  1  0  0  0
 50 51  1  0  0  0
 50118  1  0  0  0
 50119  1  0  0  0
 51 52  1  0  0  0
 51120  1  0  0  0
 51121  1  0  0  0
 52122  1  0  0  0
 52123  1  0  0  0
 53 54  1  0  0  0
 54 55  2  0  0  0
 54124  1  0  0  0
 55 57  1  0  0  0
 55125  1  0  0  0
 56 69  2  0  0  0
 57 58  2  0  0  0
 57126  1  0  0  0
 58127  1  0  0  0
 59 60  1  0  0  0
 59 61  1  0  0  0
 59 62  1  0  0  0
 60128  1  0  0  0
 60129  1  0  0  0
 60130  1  0  0  0
 61131  1  0  0  0
 61132  1  0  0  0
 61133  1  0  0  0
 62134  1  0  0  0
 62135  1  0  0  0
 62136  1  0  0  0
 63 65  1  0  0  0
 63137  1  0  0  0
 63138  1  0  0  0
 63139  1  0  0  0
 64140  1  0  0  0
 65141  1  0  0  0
 68 79  1  0  0  0
 71 72  2  0  0  0
 71 73  1  0  0  0
 71142  1  0  0  0
 72 74  1  0  0  0
 72143  1  0  0  0
 73 75  2  0  0  0
 73144  1  0  0  0
 74 76  2  0  0  0
 74145  1  0  0  0
 75 76  1  0  0  0
 75 78  1  0  0  0
 76 82  1  0  0  0
 77 79  1  0  0  0
 77 80  2  0  0  0
 77146  1  0  0  0
 78 80  1  0  0  0
 78 81  2  0  0  0
 79147  1  0  0  0
 79148  1  0  0  0
M  ISO  4   1 100  68 101  79 101  82 100
M  END
> <chiral flag>
0

> <version>
0

> <s_m_source_file>
/data/baiqing/PycharmProjects/Reinvent-master-3.2/result/LINK_invent/BTK/process_docking_weight1_custom_product_contain_oxygen_bond_distance_aromatic_linkinvent_7_9_3/rearranged_h_0054.sdf

> <i_m_source_file_index>
87

> <r_mmod_Potential_Energy-OPLS-2005>
667.054260253906

> <r_mmod_Stretch_Energy-OPLS-2005>
304.018157958984

> <r_mmod_Bend_Energy-OPLS-2005>
320.566284179688

> <r_mmod_Torsional_Energy-OPLS-2005>
223.665618896484

> <r_mmod_Improper_Torsional_Energy-OPLS-2005>
6.81470966339111

> <r_mmod_Van_der_Waal_Energy-OPLS-2005>
132.919235229492

> <r_mmod_Electrostatic_Energy-OPLS-2005>
-321.265228271484

> <r_mmod_Solvation_Energy-OPLS-2005>
-205.911499023438

> <b_mmod_Minimization_Converged-OPLS-2005>
0

> <r_mmod_RMS_Derivative-OPLS-2005>
8.48474216461182

$$$$
87
                    3D
 Structure written by MMmdl.
160168  0  0  1  0            999 V2000
  -30.6118  -14.7339   20.4565 C   0  0  0  0  0  0
  -30.4284  -12.4469   19.4686 C   0  0  0  0  0  0
  -29.5066  -12.5047   18.2313 C   0  0  0  0  0  0
  -28.0324  -12.3314   18.6461 C   0  0  0  0  0  0
  -27.6393  -13.2296   19.8497 C   0  0  2  0  0  0
  -28.6844  -13.1592   20.9842 C   0  0  0  0  0  0
  -25.2490  -13.8174   20.5697 C   0  0  0  0  0  0
  -24.1786  -13.0421   20.9210 C   0  0  0  0  0  0
  -24.6375  -11.6896   20.8733 C   0  0  0  0  0  0
  -23.9050  -10.4280   21.0403 C   0  0  0  0  0  0
  -24.3605   -9.4200   21.9184 C   0  0  0  0  0  0
  -23.6281   -8.2235   22.0750 C   0  0  0  0  0  0
  -22.4266   -8.0273   21.3538 C   0  0  0  0  0  0
  -21.9901   -9.0243   20.4636 C   0  0  0  0  0  0
  -22.7223  -10.2126   20.3049 C   0  0  0  0  0  0
  -21.6855   -6.0726   22.5271 C   0  0  0  0  0  0
  -21.4022   -6.5636   23.8207 C   0  0  0  0  0  0
  -21.3652   -5.6788   24.9165 C   0  0  0  0  0  0
  -21.6044   -4.3049   24.7220 C   0  0  0  0  0  0
  -21.8821   -3.8140   23.4344 C   0  0  0  0  0  0
  -21.9199   -4.6956   22.3397 C   0  0  0  0  0  0
  -22.7811  -13.5209   21.1865 C   0  0  0  0  0  0
  -22.1664   -4.2146   21.0971 F   0  0  0  0  0  0
  -21.5622   -3.4534   25.7727 F   0  0  0  0  0  0
  -29.9838  -13.5100   20.3983 N   0  0  0  0  0  0
  -26.2917  -12.9381   20.3269 N   0  0  0  0  0  0
  -25.9307  -11.6527   20.5747 N   0  0  0  0  0  0
  -22.0455  -12.8192   22.0414 N   0  0  0  0  0  0
  -25.4173  -15.1892   20.4118 N   0  0  0  0  0  0
  -31.8050  -14.8086   20.1484 O   0  0  0  0  0  0
  -21.6634   -6.8868   21.4230 O   0  0  0  0  0  0
  -22.3497  -14.5520   20.6714 O   0  0  0  0  0  0
  -24.6314  -31.8552   23.1984 C   0  0  0  0  0  0
  -25.9131  -32.4764   23.8349 C   0  0  1  0  0  0
  -27.2169  -27.2540   20.1232 C   0  0  0  0  0  0
  -25.5931  -33.8572   24.2263 N   0  0  0  0  0  0
  -23.4281  -30.4778   21.5412 C   0  0  2  0  0  0
  -24.8749  -28.9246   20.1073 C   0  0  0  0  0  0
  -22.7489  -29.4604   22.4908 C   0  0  0  0  0  0
  -18.0285  -28.1378   22.8474 C   0  0  0  0  0  0
  -24.1487  -36.7282   23.2647 C   0  0  0  0  0  0
  -25.9767  -30.7649   21.3800 C   0  0  0  0  0  0
  -26.0450  -29.3888   20.7182 C   0  0  0  0  0  0
  -27.2145  -28.5634   20.7175 C   0  0  0  0  0  0
  -26.0159  -26.8517   19.4988 C   0  0  0  0  0  0
  -24.8651  -27.6655   19.4903 C   0  0  0  0  0  0
  -23.6461  -29.8122   20.1567 C   0  0  0  0  0  0
  -25.4106  -36.3077   24.0329 C   0  0  1  0  0  0
  -20.5893  -28.3679   23.1279 C   0  0  2  0  0  0
  -20.6768  -26.9397   22.5422 C   0  0  0  0  0  0
  -19.5760  -26.6363   21.5221 C   0  0  0  0  0  0
  -18.1929  -26.7926   22.1607 C   0  0  0  0  0  0
  -19.1540  -28.8844   23.2876 C   0  0  0  0  0  0
  -18.9464  -30.1446   23.8896 C   0  0  0  0  0  0
  -17.6470  -30.6591   24.0562 C   0  0  0  0  0  0
  -25.9042  -34.9453   23.5099 C   0  0  0  0  0  0
  -16.5357  -29.9084   23.6345 C   0  0  0  0  0  0
  -16.7272  -28.6500   23.0362 C   0  0  0  0  0  0
  -26.4482  -31.6609   25.0757 C   0  0  0  0  0  0
  -25.3676  -31.3786   26.1469 C   0  0  0  0  0  0
  -27.0343  -30.3026   24.6264 C   0  0  0  0  0  0
  -27.6050  -32.4353   25.7512 C   0  0  0  0  0  0
  -27.5583  -37.1787   24.8453 C   0  0  0  0  0  0
  -21.4192  -29.3043   22.3671 N   0  0  0  0  0  0
  -26.4279  -37.3782   23.9420 N   0  0  0  0  0  0
  -24.6990  -31.0505   22.0964 N   0  0  0  0  0  0
  -23.4194  -28.8139   23.3008 O   0  0  0  0  0  0
  -28.3295  -26.3844   20.2123 O   0  0  0  0  0  0
  -26.5638  -34.8924   22.4679 O   0  0  0  0  0  0
  -23.5454  -32.1392   23.7249 O   0  0  0  0  0  0
  -31.8586  -19.0671   21.0724 C   0  0  0  0  0  0
  -31.4902  -17.7148   20.9560 C   0  0  0  0  0  0
  -30.9301  -20.1187   20.9268 C   0  0  0  0  0  0
  -29.5727  -19.8471   20.6131 C   0  0  0  0  0  0
  -29.2145  -18.4268   20.4819 C   0  0  0  0  0  0
  -30.1651  -17.3267   20.6636 C   0  0  0  0  0  0
  -28.4178  -23.6936   20.4491 C   0  0  0  0  0  0
  -31.4400  -21.5342   21.1626 C   0  0  0  0  0  0
  -27.7749  -18.0801   20.1382 C   0  0  0  0  0  0
  -29.1795  -22.3300   18.5301 C   0  0  0  0  0  0
  -28.5164  -21.0621   20.5801 C   0  0  0  0  0  0
  -28.4176  -25.0325   19.5497 C   0  0  0  0  0  0
  -29.8271  -15.8727   20.6266 N   0  0  0  0  0  0
  -28.7564  -22.4362   19.9281 N   0  0  0  0  0  0
  -28.0685  -23.8020   21.6288 O   0  0  0  0  0  0
  -31.4706  -12.5660   19.1677 H   0  0  0  0  0  0
  -30.3692  -11.4690   19.9482 H   0  0  0  0  0  0
  -29.7846  -11.7295   17.5158 H   0  0  0  0  0  0
  -29.6363  -13.4586   17.7170 H   0  0  0  0  0  0
  -27.8873  -11.2817   18.9048 H   0  0  0  0  0  0
  -27.3749  -12.5270   17.7982 H   0  0  0  0  0  0
  -27.6325  -14.2513   19.4700 H   0  0  0  0  0  0
  -28.7180  -12.1586   21.4192 H   0  0  0  0  0  0
  -28.4232  -13.8392   21.7970 H   0  0  0  0  0  0
  -25.2749   -9.5688   22.4758 H   0  0  0  0  0  0
  -23.9992   -7.4630   22.7467 H   0  0  0  0  0  0
  -21.0834   -8.8749   19.8939 H   0  0  0  0  0  0
  -22.3671  -10.9664   19.6157 H   0  0  0  0  0  0
  -21.2018   -7.6148   23.9709 H   0  0  0  0  0  0
  -21.1470   -6.0514   25.9064 H   0  0  0  0  0  0
  -22.0610   -2.7606   23.2834 H   0  0  0  0  0  0
  -22.4081  -11.9857   22.4802 H   0  0  0  0  0  0
  -21.1077  -13.1215   22.2627 H   0  0  0  0  0  0
  -24.6475  -15.8400   20.5234 H   0  0  0  0  0  0
  -26.2507  -15.6229   20.0413 H   0  0  0  0  0  0
  -26.7201  -32.5403   23.1090 H   0  0  0  0  0  0
  -25.0088  -33.9747   25.0413 H   0  0  0  0  0  0
  -22.7275  -31.3027   21.3901 H   0  0  0  0  0  0
  -23.3775  -35.9593   23.3272 H   0  0  0  0  0  0
  -24.3591  -36.8945   22.2076 H   0  0  0  0  0  0
  -23.7201  -37.6452   23.6689 H   0  0  0  0  0  0
  -26.1220  -31.5250   20.6109 H   0  0  0  0  0  0
  -26.8546  -30.8127   22.0131 H   0  0  0  0  0  0
  -28.1091  -28.9111   21.2129 H   0  0  0  0  0  0
  -25.9121  -25.8812   19.0414 H   0  0  0  0  0  0
  -23.9621  -27.3022   19.0211 H   0  0  0  0  0  0
  -23.7705  -30.5905   19.4032 H   0  0  0  0  0  0
  -22.7643  -29.2476   19.8476 H   0  0  0  0  0  0
  -25.1275  -36.1933   25.0819 H   0  0  0  0  0  0
  -20.9976  -28.3240   24.1402 H   0  0  0  0  0  0
  -20.5673  -26.2279   23.3616 H   0  0  0  0  0  0
  -21.6624  -26.7429   22.1212 H   0  0  0  0  0  0
  -19.6943  -25.6277   21.1252 H   0  0  0  0  0  0
  -19.6718  -27.3160   20.6746 H   0  0  0  0  0  0
  -17.4203  -26.6693   21.3993 H   0  0  0  0  0  0
  -18.0305  -26.0064   22.8988 H   0  0  0  0  0  0
  -19.7952  -30.7253   24.2251 H   0  0  0  0  0  0
  -17.5037  -31.6280   24.5148 H   0  0  0  0  0  0
  -15.5366  -30.3000   23.7680 H   0  0  0  0  0  0
  -15.8653  -28.0828   22.7093 H   0  0  0  0  0  0
  -24.5881  -30.7085   25.7797 H   0  0  0  0  0  0
  -24.8826  -32.2972   26.4801 H   0  0  0  0  0  0
  -25.7981  -30.9045   27.0303 H   0  0  0  0  0  0
  -26.2942  -29.6774   24.1245 H   0  0  0  0  0  0
  -27.3977  -29.7287   25.4803 H   0  0  0  0  0  0
  -27.8836  -30.4300   23.9545 H   0  0  0  0  0  0
  -27.2684  -33.3697   26.2006 H   0  0  0  0  0  0
  -28.3898  -32.6837   25.0353 H   0  0  0  0  0  0
  -28.0662  -31.8521   26.5494 H   0  0  0  0  0  0
  -28.2555  -38.0133   24.7561 H   0  0  0  0  0  0
  -28.1135  -36.2666   24.6182 H   0  0  0  0  0  0
  -27.2329  -37.1301   25.8866 H   0  0  0  0  0  0
  -20.9353  -29.8812   21.6925 H   0  0  0  0  0  0
  -26.0166  -38.2854   24.1458 H   0  0  0  0  0  0
  -32.8877  -19.2922   21.3172 H   0  0  0  0  0  0
  -32.2615  -16.9797   21.1289 H   0  0  0  0  0  0
  -31.6117  -22.0434   20.2138 H   0  0  0  0  0  0
  -32.3841  -21.5304   21.7097 H   0  0  0  0  0  0
  -30.7418  -22.1218   21.7576 H   0  0  0  0  0  0
  -27.1089  -18.3753   20.9490 H   0  0  0  0  0  0
  -27.6293  -17.0174   19.9541 H   0  0  0  0  0  0
  -27.4673  -18.5968   19.2284 H   0  0  0  0  0  0
  -28.4157  -22.7273   17.8598 H   0  0  0  0  0  0
  -29.3541  -21.2960   18.2334 H   0  0  0  0  0  0
  -30.1093  -22.8743   18.3611 H   0  0  0  0  0  0
  -28.2524  -21.2357   21.6234 H   0  0  0  0  0  0
  -27.5930  -20.7013   20.1318 H   0  0  0  0  0  0
  -27.6993  -24.9105   18.7429 H   0  0  0  0  0  0
  -29.3784  -25.0480   19.0378 H   0  0  0  0  0  0
  -28.8461  -15.6639   20.7291 H   0  0  0  0  0  0
  1 25  1  0  0  0
  1 30  2  0  0  0
  1 83  1  0  0  0
  2  3  1  0  0  0
  2 25  1  0  0  0
  2 86  1  0  0  0
  2 87  1  0  0  0
  3  4  1  0  0  0
  3 88  1  0  0  0
  3 89  1  0  0  0
  4  5  1  0  0  0
  4 90  1  0  0  0
  4 91  1  0  0  0
  5  6  1  0  0  0
  5 26  1  0  0  0
  5 92  1  0  0  0
  6 25  1  0  0  0
  6 93  1  0  0  0
  6 94  1  0  0  0
  7  8  2  0  0  0
  7 26  1  0  0  0
  7 29  1  0  0  0
  8  9  1  0  0  0
  8 22  1  0  0  0
  9 10  1  0  0  0
  9 27  2  0  0  0
 10 11  2  0  0  0
 10 15  1  0  0  0
 11 12  1  0  0  0
 11 95  1  0  0  0
 12 13  2  0  0  0
 12 96  1  0  0  0
 13 14  1  0  0  0
 13 31  1  0  0  0
 14 15  2  0  0  0
 14 97  1  0  0  0
 15 98  1  0  0  0
 16 17  2  0  0  0
 16 21  1  0  0  0
 16 31  1  0  0  0
 17 18  1  0  0  0
 17 99  1  0  0  0
 18 19  2  0  0  0
 18100  1  0  0  0
 19 20  1  0  0  0
 19 24  1  0  0  0
 20 21  2  0  0  0
 20101  1  0  0  0
 21 23  1  0  0  0
 22 28  1  0  0  0
 22 32  2  0  0  0
 26 27  1  0  0  0
 28102  1  0  0  0
 28103  1  0  0  0
 29104  1  0  0  0
 29105  1  0  0  0
 33 34  1  0  0  0
 33 66  1  0  0  0
 33 70  2  0  0  0
 34 36  1  0  0  0
 34 59  1  0  0  0
 34106  1  0  0  0
 35 44  2  0  0  0
 35 45  1  0  0  0
 35 68  1  0  0  0
 36 56  1  0  0  0
 36107  1  0  0  0
 37 39  1  0  0  0
 37 47  1  0  0  0
 37 66  1  0  0  0
 37108  1  0  0  0
 38 43  2  0  0  0
 38 46  1  0  0  0
 38 47  1  0  0  0
 39 64  1  0  0  0
 39 67  2  0  0  0
 40 52  1  0  0  0
 40 53  2  0  0  0
 40 58  1  0  0  0
 41109  1  0  0  0
 41110  1  0  0  0
 41111  1  0  0  0
 41 48  1  0  0  0
 42 43  1  0  0  0
 42 66  1  0  0  0
 42112  1  0  0  0
 42113  1  0  0  0
 43 44  1  0  0  0
 44114  1  0  0  0
 45 46  2  0  0  0
 45115  1  0  0  0
 46116  1  0  0  0
 47117  1  0  0  0
 47118  1  0  0  0
 48 56  1  0  0  0
 48 65  1  0  0  0
 48119  1  0  0  0
 49 50  1  0  0  0
 49 53  1  0  0  0
 49 64  1  0  0  0
 49120  1  0  0  0
 50 51  1  0  0  0
 50121  1  0  0  0
 50122  1  0  0  0
 51 52  1  0  0  0
 51123  1  0  0  0
 51124  1  0  0  0
 52125  1  0  0  0
 52126  1  0  0  0
 53 54  1  0  0  0
 54 55  2  0  0  0
 54127  1  0  0  0
 55 57  1  0  0  0
 55128  1  0  0  0
 56 69  2  0  0  0
 57 58  2  0  0  0
 57129  1  0  0  0
 58130  1  0  0  0
 59 60  1  0  0  0
 59 61  1  0  0  0
 59 62  1  0  0  0
 60131  1  0  0  0
 60132  1  0  0  0
 60133  1  0  0  0
 61134  1  0  0  0
 61135  1  0  0  0
 61136  1  0  0  0
 62137  1  0  0  0
 62138  1  0  0  0
 62139  1  0  0  0
 63 65  1  0  0  0
 63140  1  0  0  0
 63141  1  0  0  0
 63142  1  0  0  0
 64143  1  0  0  0
 65144  1  0  0  0
 68 82  1  0  0  0
 71 72  2  0  0  0
 71 73  1  0  0  0
 71145  1  0  0  0
 72 76  1  0  0  0
 72146  1  0  0  0
 73 74  2  0  0  0
 73 78  1  0  0  0
 74 75  1  0  0  0
 74 81  1  0  0  0
 75 76  2  0  0  0
 75 79  1  0  0  0
 76 83  1  0  0  0
 77 82  1  0  0  0
 77 84  1  0  0  0
 77 85  2  0  0  0
 78147  1  0  0  0
 78148  1  0  0  0
 78149  1  0  0  0
 79150  1  0  0  0
 79151  1  0  0  0
 79152  1  0  0  0
 80 84  1  0  0  0
 80153  1  0  0  0
 80154  1  0  0  0
 80155  1  0  0  0
 81 84  1  0  0  0
 81156  1  0  0  0
 81157  1  0  0  0
 82158  1  0  0  0
 82159  1  0  0  0
 83160  1  0  0  0
M  ISO  4   1 100  68 101  82 101  83 100
M  END
> <chiral flag>
0

> <version>
0

> <s_m_source_file>
/data/baiqing/PycharmProjects/Reinvent-master-3.2/result/LINK_invent/BTK/process_docking_weight1_custom_product_contain_oxygen_bond_distance_aromatic_linkinvent_7_9_3/rearranged_h_0054.sdf

> <i_m_source_file_index>
88

> <r_mmod_Potential_Energy-OPLS-2005>
173.584182739258

> <r_mmod_Stretch_Energy-OPLS-2005>
140.575576782227

> <r_mmod_Bend_Energy-OPLS-2005>
177.314956665039

> <r_mmod_Torsional_Energy-OPLS-2005>
222.736267089844

> <r_mmod_Improper_Torsional_Energy-OPLS-2005>
6.62760019302368

> <r_mmod_Van_der_Waal_Energy-OPLS-2005>
146.059478759766

> <r_mmod_Electrostatic_Energy-OPLS-2005>
-368.043640136719

> <r_mmod_Solvation_Energy-OPLS-2005>
-235.349136352539

> <b_mmod_Minimization_Converged-OPLS-2005>
0

> <r_mmod_RMS_Derivative-OPLS-2005>
2.4433536529541

$$$$
88
                    3D
 Structure written by MMmdl.
154162  0  0  1  0            999 V2000
  -30.5905  -14.7238   20.4238 C   0  0  0  0  0  0
  -30.4386  -12.4145   19.4921 C   0  0  0  0  0  0
  -29.5193  -12.4254   18.2505 C   0  0  0  0  0  0
  -28.0315  -12.3246   18.6444 C   0  0  0  0  0  0
  -27.6439  -13.2246   19.8490 C   0  0  2  0  0  0
  -28.6829  -13.1377   20.9857 C   0  0  0  0  0  0
  -25.2521  -13.8167   20.5704 C   0  0  0  0  0  0
  -24.1795  -13.0427   20.9222 C   0  0  0  0  0  0
  -24.6380  -11.6902   20.8759 C   0  0  0  0  0  0
  -23.9054  -10.4275   21.0417 C   0  0  0  0  0  0
  -24.3604   -9.4174   21.9183 C   0  0  0  0  0  0
  -23.6272   -8.2212   22.0720 C   0  0  0  0  0  0
  -22.4246   -8.0278   21.3519 C   0  0  0  0  0  0
  -21.9901   -9.0258   20.4611 C   0  0  0  0  0  0
  -22.7243  -10.2135   20.3042 C   0  0  0  0  0  0
  -21.6835   -6.0745   22.5290 C   0  0  0  0  0  0
  -21.4026   -6.5637   23.8238 C   0  0  0  0  0  0
  -21.3651   -5.6763   24.9188 C   0  0  0  0  0  0
  -21.6021   -4.3031   24.7225 C   0  0  0  0  0  0
  -21.8811   -3.8141   23.4337 C   0  0  0  0  0  0
  -21.9184   -4.6970   22.3399 C   0  0  0  0  0  0
  -22.7813  -13.5219   21.1898 C   0  0  0  0  0  0
  -22.1655   -4.2169   21.0980 F   0  0  0  0  0  0
  -21.5614   -3.4504   25.7733 F   0  0  0  0  0  0
  -29.9891  -13.4858   20.4123 N   0  0  0  0  0  0
  -26.2930  -12.9364   20.3247 N   0  0  0  0  0  0
  -25.9300  -11.6517   20.5720 N   0  0  0  0  0  0
  -22.0422  -12.8213   22.0438 N   0  0  0  0  0  0
  -25.4268  -15.1895   20.4204 N   0  0  0  0  0  0
  -31.7745  -14.8338   20.0878 O   0  0  0  0  0  0
  -21.6589   -6.8897   21.4251 O   0  0  0  0  0  0
  -22.3506  -14.5530   20.6759 O   0  0  0  0  0  0
  -24.6321  -31.8551   23.1988 C   0  0  0  0  0  0
  -25.9145  -32.4747   23.8334 C   0  0  1  0  0  0
  -27.2235  -27.2514   20.1214 C   0  0  0  0  0  0
  -25.5928  -33.8551   24.2259 N   0  0  0  0  0  0
  -23.4308  -30.4805   21.5406 C   0  0  2  0  0  0
  -24.8802  -28.9303   20.1054 C   0  0  0  0  0  0
  -22.7511  -29.4619   22.4871 C   0  0  0  0  0  0
  -18.0297  -28.1429   22.8466 C   0  0  0  0  0  0
  -24.1486  -36.7280   23.2643 C   0  0  0  0  0  0
  -25.9796  -30.7623   21.3856 C   0  0  0  0  0  0
  -26.0509  -29.3850   20.7245 C   0  0  0  0  0  0
  -27.2215  -28.5565   20.7279 C   0  0  0  0  0  0
  -26.0323  -26.8823   19.4525 C   0  0  0  0  0  0
  -24.8770  -27.6865   19.4590 C   0  0  0  0  0  0
  -23.6514  -29.8181   20.1550 C   0  0  0  0  0  0
  -25.4113  -36.3065   24.0332 C   0  0  1  0  0  0
  -20.5904  -28.3741   23.1242 C   0  0  2  0  0  0
  -20.6786  -26.9446   22.5411 C   0  0  0  0  0  0
  -19.5764  -26.6402   21.5213 C   0  0  0  0  0  0
  -18.1943  -26.7966   22.1617 C   0  0  0  0  0  0
  -19.1550  -28.8898   23.2854 C   0  0  0  0  0  0
  -18.9477  -30.1495   23.8875 C   0  0  0  0  0  0
  -17.6474  -30.6614   24.0575 C   0  0  0  0  0  0
  -25.9055  -34.9432   23.5099 C   0  0  0  0  0  0
  -16.5362  -29.9114   23.6340 C   0  0  0  0  0  0
  -16.7286  -28.6546   23.0330 C   0  0  0  0  0  0
  -26.4499  -31.6573   25.0730 C   0  0  0  0  0  0
  -25.3708  -31.3781   26.1452 C   0  0  0  0  0  0
  -27.0329  -30.2963   24.6269 C   0  0  0  0  0  0
  -27.6082  -32.4297   25.7467 C   0  0  0  0  0  0
  -27.5584  -37.1784   24.8458 C   0  0  0  0  0  0
  -21.4212  -29.3075   22.3616 N   0  0  0  0  0  0
  -26.4287  -37.3765   23.9411 N   0  0  0  0  0  0
  -24.7000  -31.0508   22.0972 N   0  0  0  0  0  0
  -23.4199  -28.8141   23.2970 O   0  0  0  0  0  0
  -28.3069  -26.3349   20.2018 O   0  0  0  0  0  0
  -26.5633  -34.8913   22.4671 O   0  0  0  0  0  0
  -23.5467  -32.1378   23.7263 O   0  0  0  0  0  0
  -29.7611  -19.7835   18.7076 C   0  0  0  0  0  0
  -29.9163  -18.5920   17.9746 C   0  0  0  0  0  0
  -29.6256  -18.4412   20.7301 C   0  0  0  0  0  0
  -29.5747  -19.7559   20.1009 C   0  0  0  0  0  0
  -29.9082  -17.3183   18.5904 C   0  0  0  0  0  0
  -29.8253  -17.1914   20.0089 C   0  0  0  0  0  0
  -28.9995  -23.7383   20.5133 C   0  0  0  0  0  0
  -29.9076  -16.1116   17.6669 C   0  0  0  0  0  0
  -29.3971  -21.1412   20.8685 C   0  0  0  0  0  0
  -28.0776  -24.8780   19.8549 C   0  0  0  0  0  0
  -29.8034  -15.8449   20.6479 N   0  0  0  0  0  0
  -28.8437  -22.3958   20.1836 N   0  0  0  0  0  0
  -29.8300  -24.0731   21.3611 O   0  0  0  0  0  0
  -31.4765  -12.5442   19.1789 H   0  0  0  0  0  0
  -30.4004  -11.4427   19.9872 H   0  0  0  0  0  0
  -29.7782  -11.5887   17.6002 H   0  0  0  0  0  0
  -29.6949  -13.3202   17.6595 H   0  0  0  0  0  0
  -27.8319  -11.2796   18.8862 H   0  0  0  0  0  0
  -27.4025  -12.5597   17.7860 H   0  0  0  0  0  0
  -27.6482  -14.2498   19.4798 H   0  0  0  0  0  0
  -28.7051  -12.1315   21.4079 H   0  0  0  0  0  0
  -28.4181  -13.8072   21.8051 H   0  0  0  0  0  0
  -25.2754   -9.5632   22.4753 H   0  0  0  0  0  0
  -23.9973   -7.4567   22.7404 H   0  0  0  0  0  0
  -21.0844   -8.8790   19.8890 H   0  0  0  0  0  0
  -22.3721  -10.9681   19.6137 H   0  0  0  0  0  0
  -21.2049   -7.6142   23.9779 H   0  0  0  0  0  0
  -21.1472   -6.0473   25.9103 H   0  0  0  0  0  0
  -22.0605   -2.7606   23.2810 H   0  0  0  0  0  0
  -22.4009  -11.9906   22.4908 H   0  0  0  0  0  0
  -21.1033  -13.1258   22.2596 H   0  0  0  0  0  0
  -24.6732  -15.8500   20.5725 H   0  0  0  0  0  0
  -26.2825  -15.6309   20.1103 H   0  0  0  0  0  0
  -26.7209  -32.5398   23.1075 H   0  0  0  0  0  0
  -25.0042  -33.9683   25.0380 H   0  0  0  0  0  0
  -22.7290  -31.3048   21.3944 H   0  0  0  0  0  0
  -23.3750  -35.9608   23.3292 H   0  0  0  0  0  0
  -24.3582  -36.8918   22.2061 H   0  0  0  0  0  0
  -23.7234  -37.6475   23.6678 H   0  0  0  0  0  0
  -26.1272  -31.5239   20.6186 H   0  0  0  0  0  0
  -26.8531  -30.8061   22.0247 H   0  0  0  0  0  0
  -28.1119  -28.8962   21.2380 H   0  0  0  0  0  0
  -25.9548  -25.9475   18.9189 H   0  0  0  0  0  0
  -23.9853  -27.3398   18.9550 H   0  0  0  0  0  0
  -23.7783  -30.5974   19.4026 H   0  0  0  0  0  0
  -22.7696  -29.2549   19.8460 H   0  0  0  0  0  0
  -25.1292  -36.1910   25.0824 H   0  0  0  0  0  0
  -21.0009  -28.3354   24.1358 H   0  0  0  0  0  0
  -20.5679  -26.2364   23.3637 H   0  0  0  0  0  0
  -21.6659  -26.7466   22.1216 H   0  0  0  0  0  0
  -19.6926  -25.6299   21.1280 H   0  0  0  0  0  0
  -19.6715  -27.3185   20.6721 H   0  0  0  0  0  0
  -17.4214  -26.6699   21.4023 H   0  0  0  0  0  0
  -18.0343  -26.0132   22.9036 H   0  0  0  0  0  0
  -19.7952  -30.7323   24.2226 H   0  0  0  0  0  0
  -17.5033  -31.6282   24.5196 H   0  0  0  0  0  0
  -15.5368  -30.3012   23.7685 H   0  0  0  0  0  0
  -15.8687  -28.0883   22.7020 H   0  0  0  0  0  0
  -24.5857  -30.7157   25.7789 H   0  0  0  0  0  0
  -24.8928  -32.2979   26.4834 H   0  0  0  0  0  0
  -25.7995  -30.8977   27.0255 H   0  0  0  0  0  0
  -26.2926  -29.6703   24.1275 H   0  0  0  0  0  0
  -27.3940  -29.7247   25.4830 H   0  0  0  0  0  0
  -27.8843  -30.4186   23.9570 H   0  0  0  0  0  0
  -27.2729  -33.3608   26.2041 H   0  0  0  0  0  0
  -28.3872  -32.6827   25.0263 H   0  0  0  0  0  0
  -28.0769  -31.8415   26.5366 H   0  0  0  0  0  0
  -28.2604  -38.0078   24.7496 H   0  0  0  0  0  0
  -28.1073  -36.2610   24.6275 H   0  0  0  0  0  0
  -27.2315  -37.1435   25.8866 H   0  0  0  0  0  0
  -20.9400  -29.8808   21.6823 H   0  0  0  0  0  0
  -26.0167  -38.2837   24.1417 H   0  0  0  0  0  0
  -29.7833  -20.7285   18.1827 H   0  0  0  0  0  0
  -30.0215  -18.6702   16.9008 H   0  0  0  0  0  0
  -29.5089  -18.3882   21.8041 H   0  0  0  0  0  0
  -29.7413  -16.3992   16.6292 H   0  0  0  0  0  0
  -29.0946  -15.4393   17.9390 H   0  0  0  0  0  0
  -30.8521  -15.5709   17.7071 H   0  0  0  0  0  0
  -30.3748  -21.3841   21.2870 H   0  0  0  0  0  0
  -28.7555  -20.9407   21.7277 H   0  0  0  0  0  0
  -27.0701  -24.5888   20.1526 H   0  0  0  0  0  0
  -28.1289  -24.7716   18.7702 H   0  0  0  0  0  0
  -28.9677  -15.6512   21.1798 H   0  0  0  0  0  0
  -28.1552  -22.2120   19.4668 H   0  0  0  0  0  0
  1 25  1  0  0  0
  1 30  2  0  0  0
  1 81  1  0  0  0
  2  3  1  0  0  0
  2 25  1  0  0  0
  2 84  1  0  0  0
  2 85  1  0  0  0
  3  4  1  0  0  0
  3 86  1  0  0  0
  3 87  1  0  0  0
  4  5  1  0  0  0
  4 88  1  0  0  0
  4 89  1  0  0  0
  5  6  1  0  0  0
  5 26  1  0  0  0
  5 90  1  0  0  0
  6 25  1  0  0  0
  6 91  1  0  0  0
  6 92  1  0  0  0
  7  8  2  0  0  0
  7 26  1  0  0  0
  7 29  1  0  0  0
  8  9  1  0  0  0
  8 22  1  0  0  0
  9 10  1  0  0  0
  9 27  2  0  0  0
 10 11  2  0  0  0
 10 15  1  0  0  0
 11 12  1  0  0  0
 11 93  1  0  0  0
 12 13  2  0  0  0
 12 94  1  0  0  0
 13 14  1  0  0  0
 13 31  1  0  0  0
 14 15  2  0  0  0
 14 95  1  0  0  0
 15 96  1  0  0  0
 16 17  2  0  0  0
 16 21  1  0  0  0
 16 31  1  0  0  0
 17 18  1  0  0  0
 17 97  1  0  0  0
 18 19  2  0  0  0
 18 98  1  0  0  0
 19 20  1  0  0  0
 19 24  1  0  0  0
 20 21  2  0  0  0
 20 99  1  0  0  0
 21 23  1  0  0  0
 22 28  1  0  0  0
 22 32  2  0  0  0
 26 27  1  0  0  0
 28100  1  0  0  0
 28101  1  0  0  0
 29102  1  0  0  0
 29103  1  0  0  0
 33 34  1  0  0  0
 33 66  1  0  0  0
 33 70  2  0  0  0
 34 36  1  0  0  0
 34 59  1  0  0  0
 34104  1  0  0  0
 35 44  2  0  0  0
 35 45  1  0  0  0
 35 68  1  0  0  0
 36 56  1  0  0  0
 36105  1  0  0  0
 37 39  1  0  0  0
 37 47  1  0  0  0
 37 66  1  0  0  0
 37106  1  0  0  0
 38 43  2  0  0  0
 38 46  1  0  0  0
 38 47  1  0  0  0
 39 64  1  0  0  0
 39 67  2  0  0  0
 40 52  1  0  0  0
 40 53  2  0  0  0
 40 58  1  0  0  0
 41107  1  0  0  0
 41108  1  0  0  0
 41109  1  0  0  0
 41 48  1  0  0  0
 42 43  1  0  0  0
 42 66  1  0  0  0
 42110  1  0  0  0
 42111  1  0  0  0
 43 44  1  0  0  0
 44112  1  0  0  0
 45 46  2  0  0  0
 45113  1  0  0  0
 46114  1  0  0  0
 47115  1  0  0  0
 47116  1  0  0  0
 48 56  1  0  0  0
 48 65  1  0  0  0
 48117  1  0  0  0
 49 50  1  0  0  0
 49 53  1  0  0  0
 49 64  1  0  0  0
 49118  1  0  0  0
 50 51  1  0  0  0
 50119  1  0  0  0
 50120  1  0  0  0
 51 52  1  0  0  0
 51121  1  0  0  0
 51122  1  0  0  0
 52123  1  0  0  0
 52124  1  0  0  0
 53 54  1  0  0  0
 54 55  2  0  0  0
 54125  1  0  0  0
 55 57  1  0  0  0
 55126  1  0  0  0
 56 69  2  0  0  0
 57 58  2  0  0  0
 57127  1  0  0  0
 58128  1  0  0  0
 59 60  1  0  0  0
 59 61  1  0  0  0
 59 62  1  0  0  0
 60129  1  0  0  0
 60130  1  0  0  0
 60131  1  0  0  0
 61132  1  0  0  0
 61133  1  0  0  0
 61134  1  0  0  0
 62135  1  0  0  0
 62136  1  0  0  0
 62137  1  0  0  0
 63 65  1  0  0  0
 63138  1  0  0  0
 63139  1  0  0  0
 63140  1  0  0  0
 64141  1  0  0  0
 65142  1  0  0  0
 68 80  1  0  0  0
 71 72  2  0  0  0
 71 74  1  0  0  0
 71143  1  0  0  0
 72 75  1  0  0  0
 72144  1  0  0  0
 73 74  2  0  0  0
 73 76  1  0  0  0
 73145  1  0  0  0
 74 79  1  0  0  0
 75 76  2  0  0  0
 75 78  1  0  0  0
 76 81  1  0  0  0
 77 80  1  0  0  0
 77 82  1  0  0  0
 77 83  2  0  0  0
 78146  1  0  0  0
 78147  1  0  0  0
 78148  1  0  0  0
 79 82  1  0  0  0
 79149  1  0  0  0
 79150  1  0  0  0
 80151  1  0  0  0
 80152  1  0  0  0
 81153  1  0  0  0
 82154  1  0  0  0
M  ISO  4   1 100  68 101  80 101  81 100
M  END
> <chiral flag>
0

> <version>
0

> <s_m_source_file>
/data/baiqing/PycharmProjects/Reinvent-master-3.2/result/LINK_invent/BTK/process_docking_weight1_custom_product_contain_oxygen_bond_distance_aromatic_linkinvent_7_9_3/rearranged_h_0054.sdf

> <i_m_source_file_index>
89

> <r_mmod_Potential_Energy-OPLS-2005>
82.4742660522461

> <r_mmod_Stretch_Energy-OPLS-2005>
127.186416625977

> <r_mmod_Bend_Energy-OPLS-2005>
155.467315673828

> <r_mmod_Torsional_Energy-OPLS-2005>
240.650726318359

> <r_mmod_Improper_Torsional_Energy-OPLS-2005>
5.33831644058228

> <r_mmod_Van_der_Waal_Energy-OPLS-2005>
140.646057128906

> <r_mmod_Electrostatic_Energy-OPLS-2005>
-420.516448974609

> <r_mmod_Solvation_Energy-OPLS-2005>
-253.785736083984

> <b_mmod_Minimization_Converged-OPLS-2005>
0

> <r_mmod_RMS_Derivative-OPLS-2005>
2.67704463005066

$$$$
89
                    3D
 Structure written by MMmdl.
158167  0  0  1  0            999 V2000
  -30.6146  -14.6401   20.5216 C   0  0  0  0  0  0
  -30.4399  -12.3918   19.4840 C   0  0  0  0  0  0
  -29.5318  -12.4981   18.2379 C   0  0  0  0  0  0
  -28.0408  -12.3702   18.6150 C   0  0  0  0  0  0
  -27.6552  -13.2202   19.8546 C   0  0  2  0  0  0
  -28.6855  -13.0726   20.9956 C   0  0  0  0  0  0
  -25.2549  -13.8190   20.5544 C   0  0  0  0  0  0
  -24.1826  -13.0462   20.9113 C   0  0  0  0  0  0
  -24.6416  -11.6945   20.8650 C   0  0  0  0  0  0
  -23.9082  -10.4342   21.0359 C   0  0  0  0  0  0
  -24.3666   -9.4264   21.9122 C   0  0  0  0  0  0
  -23.6373   -8.2280   22.0689 C   0  0  0  0  0  0
  -22.4329   -8.0313   21.3515 C   0  0  0  0  0  0
  -21.9952   -9.0283   20.4635 C   0  0  0  0  0  0
  -22.7248  -10.2179   20.3044 C   0  0  0  0  0  0
  -21.6904   -6.0763   22.5241 C   0  0  0  0  0  0
  -21.4067   -6.5656   23.8176 C   0  0  0  0  0  0
  -21.3634   -5.6790   24.9121 C   0  0  0  0  0  0
  -21.6042   -4.3057   24.7160 C   0  0  0  0  0  0
  -21.8838   -3.8160   23.4278 C   0  0  0  0  0  0
  -21.9217   -4.6993   22.3351 C   0  0  0  0  0  0
  -22.7867  -13.5272   21.1798 C   0  0  0  0  0  0
  -22.1669   -4.2185   21.0930 F   0  0  0  0  0  0
  -21.5612   -3.4524   25.7657 F   0  0  0  0  0  0
  -30.0083  -13.4145   20.4559 N   0  0  0  0  0  0
  -26.2974  -12.9372   20.3156 N   0  0  0  0  0  0
  -25.9338  -11.6532   20.5646 N   0  0  0  0  0  0
  -22.0531  -12.8266   22.0393 N   0  0  0  0  0  0
  -25.4275  -15.1915   20.3904 N   0  0  0  0  0  0
  -31.7595  -14.8148   20.0879 O   0  0  0  0  0  0
  -21.6678   -6.8917   21.4216 O   0  0  0  0  0  0
  -22.3513  -14.5529   20.6619 O   0  0  0  0  0  0
  -24.6225  -31.8578   23.1979 C   0  0  0  0  0  0
  -25.9101  -32.4749   23.8302 C   0  0  1  0  0  0
  -27.2641  -27.3350   20.1518 C   0  0  0  0  0  0
  -25.5938  -33.8544   24.2243 N   0  0  0  0  0  0
  -23.4163  -30.4701   21.5436 C   0  0  2  0  0  0
  -24.8757  -28.9213   20.1115 C   0  0  0  0  0  0
  -22.7476  -29.4559   22.5001 C   0  0  0  0  0  0
  -18.0263  -28.1351   22.8482 C   0  0  0  0  0  0
  -24.1511  -36.7300   23.2635 C   0  0  0  0  0  0
  -25.9525  -30.7909   21.3734 C   0  0  0  0  0  0
  -26.0363  -29.4204   20.7173 C   0  0  0  0  0  0
  -27.2280  -28.6450   20.7188 C   0  0  0  0  0  0
  -26.0832  -26.8772   19.5228 C   0  0  0  0  0  0
  -24.9036  -27.6545   19.5007 C   0  0  0  0  0  0
  -23.6373  -29.7982   20.1598 C   0  0  0  0  0  0
  -25.4118  -36.3059   24.0333 C   0  0  1  0  0  0
  -20.5866  -28.3643   23.1335 C   0  0  2  0  0  0
  -20.6763  -26.9378   22.5449 C   0  0  0  0  0  0
  -19.5756  -26.6347   21.5237 C   0  0  0  0  0  0
  -18.1917  -26.7886   22.1617 C   0  0  0  0  0  0
  -19.1504  -28.8810   23.2884 C   0  0  0  0  0  0
  -18.9437  -30.1436   23.8869 C   0  0  0  0  0  0
  -17.6429  -30.6556   24.0540 C   0  0  0  0  0  0
  -25.9062  -34.9444   23.5070 C   0  0  0  0  0  0
  -16.5325  -29.9042   23.6334 C   0  0  0  0  0  0
  -16.7248  -28.6473   23.0320 C   0  0  0  0  0  0
  -26.4492  -31.6535   25.0667 C   0  0  0  0  0  0
  -25.3735  -31.3694   26.1401 C   0  0  0  0  0  0
  -27.0368  -30.2959   24.6152 C   0  0  0  0  0  0
  -27.6029  -32.4297   25.7440 C   0  0  0  0  0  0
  -27.5610  -37.1770   24.8432 C   0  0  0  0  0  0
  -21.4180  -29.2982   22.3747 N   0  0  0  0  0  0
  -26.4282  -37.3782   23.9438 N   0  0  0  0  0  0
  -24.6804  -31.0566   22.0964 N   0  0  0  0  0  0
  -23.4193  -28.8147   23.3099 O   0  0  0  0  0  0
  -28.4282  -26.5593   20.2330 O   0  0  0  0  0  0
  -26.5636  -34.8940   22.4650 O   0  0  0  0  0  0
  -23.5406  -32.1414   23.7319 O   0  0  0  0  0  0
  -29.2496  -19.5654   19.1649 C   0  0  0  0  0  0
  -29.3128  -18.3855   18.4003 C   0  0  0  0  0  0
  -29.6284  -18.2269   21.1654 C   0  0  0  0  0  0
  -29.4198  -19.5245   20.5641 C   0  0  0  0  0  0
  -29.7139  -17.0128   20.3967 C   0  0  0  0  0  0
  -29.5372  -17.1281   18.9942 C   0  0  0  0  0  0
  -27.8427  -22.7868   21.3190 C   0  0  0  0  0  0
  -27.5698  -24.3117   21.1184 C   0  0  0  0  0  0
  -29.8794  -24.4946   20.1526 C   0  0  0  0  0  0
  -29.9107  -22.9405   19.9703 C   0  0  0  0  0  0
  -28.4351  -25.0873   20.0739 C   0  0  2  0  0  0
  -29.4403  -20.8447   21.4038 C   0  0  0  0  0  0
  -28.9793  -22.1838   20.8505 N   0  0  0  0  0  0
  -29.8642  -15.6857   20.9905 N   0  0  0  0  0  0
  -27.0179  -22.1650   21.9998 O   0  0  0  0  0  0
  -29.5459  -16.0284   18.2042 F   0  0  0  0  0  0
  -31.4853  -12.5162   19.2016 H   0  0  0  0  0  0
  -30.3687  -11.3984   19.9327 H   0  0  0  0  0  0
  -29.8142  -11.7333   17.5129 H   0  0  0  0  0  0
  -29.6973  -13.4552   17.7398 H   0  0  0  0  0  0
  -27.8384  -11.3150   18.8003 H   0  0  0  0  0  0
  -27.4241  -12.6450   17.7580 H   0  0  0  0  0  0
  -27.6803  -14.2605   19.5268 H   0  0  0  0  0  0
  -28.6811  -12.0540   21.3837 H   0  0  0  0  0  0
  -28.4131  -13.7137   21.8320 H   0  0  0  0  0  0
  -25.2843   -9.5763   22.4640 H   0  0  0  0  0  0
  -24.0121   -7.4690   22.7408 H   0  0  0  0  0  0
  -21.0855   -8.8825   19.8993 H   0  0  0  0  0  0
  -22.3694  -10.9708   19.6164 H   0  0  0  0  0  0
  -21.2110   -7.6173   23.9690 H   0  0  0  0  0  0
  -21.1413   -6.0498   25.9017 H   0  0  0  0  0  0
  -22.0664   -2.7636   23.2721 H   0  0  0  0  0  0
  -22.4274  -12.0028   22.4855 H   0  0  0  0  0  0
  -21.1133  -13.1249   22.2573 H   0  0  0  0  0  0
  -24.6637  -15.8518   20.4767 H   0  0  0  0  0  0
  -26.2832  -15.6134   20.0512 H   0  0  0  0  0  0
  -26.7162  -32.5458   23.1041 H   0  0  0  0  0  0
  -25.0041  -33.9679   25.0343 H   0  0  0  0  0  0
  -22.7086  -31.2882   21.4001 H   0  0  0  0  0  0
  -23.3806  -35.9587   23.3151 H   0  0  0  0  0  0
  -24.3648  -36.9071   22.2084 H   0  0  0  0  0  0
  -23.7209  -37.6444   23.6736 H   0  0  0  0  0  0
  -26.0915  -31.5590   20.6124 H   0  0  0  0  0  0
  -26.8243  -30.8304   22.0134 H   0  0  0  0  0  0
  -28.1182  -29.0336   21.1959 H   0  0  0  0  0  0
  -26.0675  -25.9015   19.0648 H   0  0  0  0  0  0
  -24.0216  -27.2580   19.0180 H   0  0  0  0  0  0
  -23.7635  -30.5760   19.4064 H   0  0  0  0  0  0
  -22.7586  -29.2276   19.8541 H   0  0  0  0  0  0
  -25.1280  -36.1867   25.0822 H   0  0  0  0  0  0
  -20.9907  -28.3188   24.1476 H   0  0  0  0  0  0
  -20.5658  -26.2257   23.3634 H   0  0  0  0  0  0
  -21.6639  -26.7417   22.1252 H   0  0  0  0  0  0
  -19.6923  -25.6251   21.1275 H   0  0  0  0  0  0
  -19.6687  -27.3149   20.6757 H   0  0  0  0  0  0
  -17.4215  -26.6646   21.3988 H   0  0  0  0  0  0
  -18.0280  -26.0005   22.8988 H   0  0  0  0  0  0
  -19.7921  -30.7260   24.2211 H   0  0  0  0  0  0
  -17.4987  -31.6242   24.5140 H   0  0  0  0  0  0
  -15.5318  -30.2908   23.7681 H   0  0  0  0  0  0
  -15.8673  -28.0798   22.6985 H   0  0  0  0  0  0
  -24.5809  -30.7187   25.7677 H   0  0  0  0  0  0
  -24.9066  -32.2906   26.4906 H   0  0  0  0  0  0
  -25.8024  -30.8732   27.0120 H   0  0  0  0  0  0
  -26.2958  -29.6668   24.1226 H   0  0  0  0  0  0
  -27.4123  -29.7226   25.4635 H   0  0  0  0  0  0
  -27.8783  -30.4203   23.9339 H   0  0  0  0  0  0
  -27.2561  -33.3542   26.2071 H   0  0  0  0  0  0
  -28.3787  -32.6980   25.0248 H   0  0  0  0  0  0
  -28.0790  -31.8444   26.5324 H   0  0  0  0  0  0
  -28.2500  -38.0198   24.7661 H   0  0  0  0  0  0
  -28.1240  -36.2745   24.5976 H   0  0  0  0  0  0
  -27.2403  -37.1098   25.8851 H   0  0  0  0  0  0
  -20.9386  -29.8726   21.6976 H   0  0  0  0  0  0
  -26.0151  -38.2842   24.1498 H   0  0  0  0  0  0
  -29.0794  -20.5032   18.6565 H   0  0  0  0  0  0
  -29.1890  -18.4443   17.3285 H   0  0  0  0  0  0
  -29.7393  -18.1693   22.2376 H   0  0  0  0  0  0
  -27.7099  -24.7673   22.1001 H   0  0  0  0  0  0
  -26.5087  -24.4337   20.8969 H   0  0  0  0  0  0
  -30.5321  -24.9559   19.4045 H   0  0  0  0  0  0
  -30.3454  -24.7282   21.1127 H   0  0  0  0  0  0
  -30.9350  -22.5818   20.1060 H   0  0  0  0  0  0
  -29.6617  -22.7115   18.9337 H   0  0  0  0  0  0
  -28.0597  -24.8731   19.0756 H   0  0  0  0  0  0
  -30.4723  -20.9782   21.7317 H   0  0  0  0  0  0
  -28.9133  -20.6300   22.3352 H   0  0  0  0  0  0
  -29.0777  -15.3946   21.5513 H   0  0  0  0  0  0
  1 25  1  0  0  0
  1 30  2  0  0  0
  1 84  1  0  0  0
  2  3  1  0  0  0
  2 25  1  0  0  0
  2 87  1  0  0  0
  2 88  1  0  0  0
  3  4  1  0  0  0
  3 89  1  0  0  0
  3 90  1  0  0  0
  4  5  1  0  0  0
  4 91  1  0  0  0
  4 92  1  0  0  0
  5  6  1  0  0  0
  5 26  1  0  0  0
  5 93  1  0  0  0
  6 25  1  0  0  0
  6 94  1  0  0  0
  6 95  1  0  0  0
  7  8  2  0  0  0
  7 26  1  0  0  0
  7 29  1  0  0  0
  8  9  1  0  0  0
  8 22  1  0  0  0
  9 10  1  0  0  0
  9 27  2  0  0  0
 10 11  2  0  0  0
 10 15  1  0  0  0
 11 12  1  0  0  0
 11 96  1  0  0  0
 12 13  2  0  0  0
 12 97  1  0  0  0
 13 14  1  0  0  0
 13 31  1  0  0  0
 14 15  2  0  0  0
 14 98  1  0  0  0
 15 99  1  0  0  0
 16 17  2  0  0  0
 16 21  1  0  0  0
 16 31  1  0  0  0
 17 18  1  0  0  0
 17100  1  0  0  0
 18 19  2  0  0  0
 18101  1  0  0  0
 19 20  1  0  0  0
 19 24  1  0  0  0
 20 21  2  0  0  0
 20102  1  0  0  0
 21 23  1  0  0  0
 22 28  1  0  0  0
 22 32  2  0  0  0
 26 27  1  0  0  0
 28103  1  0  0  0
 28104  1  0  0  0
 29105  1  0  0  0
 29106  1  0  0  0
 33 34  1  0  0  0
 33 66  1  0  0  0
 33 70  2  0  0  0
 34 36  1  0  0  0
 34 59  1  0  0  0
 34107  1  0  0  0
 35 44  2  0  0  0
 35 45  1  0  0  0
 35 68  1  0  0  0
 36 56  1  0  0  0
 36108  1  0  0  0
 37 39  1  0  0  0
 37 47  1  0  0  0
 37 66  1  0  0  0
 37109  1  0  0  0
 38 43  2  0  0  0
 38 46  1  0  0  0
 38 47  1  0  0  0
 39 64  1  0  0  0
 39 67  2  0  0  0
 40 52  1  0  0  0
 40 53  2  0  0  0
 40 58  1  0  0  0
 41110  1  0  0  0
 41111  1  0  0  0
 41112  1  0  0  0
 41 48  1  0  0  0
 42 43  1  0  0  0
 42 66  1  0  0  0
 42113  1  0  0  0
 42114  1  0  0  0
 43 44  1  0  0  0
 44115  1  0  0  0
 45 46  2  0  0  0
 45116  1  0  0  0
 46117  1  0  0  0
 47118  1  0  0  0
 47119  1  0  0  0
 48 56  1  0  0  0
 48 65  1  0  0  0
 48120  1  0  0  0
 49 50  1  0  0  0
 49 53  1  0  0  0
 49 64  1  0  0  0
 49121  1  0  0  0
 50 51  1  0  0  0
 50122  1  0  0  0
 50123  1  0  0  0
 51 52  1  0  0  0
 51124  1  0  0  0
 51125  1  0  0  0
 52126  1  0  0  0
 52127  1  0  0  0
 53 54  1  0  0  0
 54 55  2  0  0  0
 54128  1  0  0  0
 55 57  1  0  0  0
 55129  1  0  0  0
 56 69  2  0  0  0
 57 58  2  0  0  0
 57130  1  0  0  0
 58131  1  0  0  0
 59 60  1  0  0  0
 59 61  1  0  0  0
 59 62  1  0  0  0
 60132  1  0  0  0
 60133  1  0  0  0
 60134  1  0  0  0
 61135  1  0  0  0
 61136  1  0  0  0
 61137  1  0  0  0
 62138  1  0  0  0
 62139  1  0  0  0
 62140  1  0  0  0
 63 65  1  0  0  0
 63141  1  0  0  0
 63142  1  0  0  0
 63143  1  0  0  0
 64144  1  0  0  0
 65145  1  0  0  0
 68 81  1  0  0  0
 71 72  2  0  0  0
 71 74  1  0  0  0
 71146  1  0  0  0
 72 76  1  0  0  0
 72147  1  0  0  0
 73 74  2  0  0  0
 73 75  1  0  0  0
 73148  1  0  0  0
 74 82  1  0  0  0
 75 76  2  0  0  0
 75 84  1  0  0  0
 76 86  1  0  0  0
 77 78  1  0  0  0
 77 83  1  0  0  0
 77 85  2  0  0  0
 78 81  1  0  0  0
 78149  1  0  0  0
 78150  1  0  0  0
 79 80  1  0  0  0
 79 81  1  0  0  0
 79151  1  0  0  0
 79152  1  0  0  0
 80 83  1  0  0  0
 80153  1  0  0  0
 80154  1  0  0  0
 81155  1  0  0  0
 82 83  1  0  0  0
 82156  1  0  0  0
 82157  1  0  0  0
 84158  1  0  0  0
M  ISO  4   1 100  68 101  81 101  84 100
M  END
> <chiral flag>
0

> <version>
0

> <s_m_source_file>
/data/baiqing/PycharmProjects/Reinvent-master-3.2/result/LINK_invent/BTK/process_docking_weight1_custom_product_contain_oxygen_bond_distance_aromatic_linkinvent_7_9_3/rearranged_h_0054.sdf

> <i_m_source_file_index>
90

> <r_mmod_Potential_Energy-OPLS-2005>
21.284294128418

> <r_mmod_Stretch_Energy-OPLS-2005>
80.6226348876953

> <r_mmod_Bend_Energy-OPLS-2005>
139.303939819336

> <r_mmod_Torsional_Energy-OPLS-2005>
254.643569946289

> <r_mmod_Improper_Torsional_Energy-OPLS-2005>
5.77063989639282

> <r_mmod_Van_der_Waal_Energy-OPLS-2005>
146.60905456543

> <r_mmod_Electrostatic_Energy-OPLS-2005>
-421.991424560547

> <r_mmod_Solvation_Energy-OPLS-2005>
-230.109069824219

> <b_mmod_Minimization_Converged-OPLS-2005>
0

> <r_mmod_RMS_Derivative-OPLS-2005>
7.03169584274292

$$$$
90
                    3D
 Structure written by MMmdl.
164173  0  0  1  0            999 V2000
  -30.6614  -14.4712   20.5689 C   0  0  0  0  0  0
  -30.4250  -12.3091   19.4062 C   0  0  0  0  0  0
  -29.4935  -12.5142   18.1915 C   0  0  0  0  0  0
  -28.0074  -12.3838   18.5928 C   0  0  0  0  0  0
  -27.6536  -13.2020   19.8624 C   0  0  2  0  0  0
  -28.6929  -12.9598   20.9787 C   0  0  0  0  0  0
  -25.2543  -13.8150   20.5655 C   0  0  0  0  0  0
  -24.1797  -13.0427   20.9172 C   0  0  0  0  0  0
  -24.6364  -11.6892   20.8714 C   0  0  0  0  0  0
  -23.9040  -10.4281   21.0387 C   0  0  0  0  0  0
  -24.3607   -9.4199   21.9156 C   0  0  0  0  0  0
  -23.6287   -8.2233   22.0737 C   0  0  0  0  0  0
  -22.4258   -8.0274   21.3549 C   0  0  0  0  0  0
  -21.9908   -9.0228   20.4632 C   0  0  0  0  0  0
  -22.7227  -10.2107   20.3023 C   0  0  0  0  0  0
  -21.6856   -6.0731   22.5281 C   0  0  0  0  0  0
  -21.4028   -6.5640   23.8214 C   0  0  0  0  0  0
  -21.3656   -5.6794   24.9180 C   0  0  0  0  0  0
  -21.6015   -4.3049   24.7234 C   0  0  0  0  0  0
  -21.8827   -3.8151   23.4357 C   0  0  0  0  0  0
  -21.9197   -4.6963   22.3408 C   0  0  0  0  0  0
  -22.7828  -13.5211   21.1856 C   0  0  0  0  0  0
  -22.1663   -4.2149   21.0990 F   0  0  0  0  0  0
  -21.5612   -3.4535   25.7746 F   0  0  0  0  0  0
  -30.0207  -13.2812   20.4284 N   0  0  0  0  0  0
  -26.2958  -12.9304   20.3265 N   0  0  0  0  0  0
  -25.9276  -11.6471   20.5681 N   0  0  0  0  0  0
  -22.0468  -12.8192   22.0410 N   0  0  0  0  0  0
  -25.4274  -15.1875   20.4045 N   0  0  0  0  0  0
  -31.8217  -14.6650   20.1869 O   0  0  0  0  0  0
  -21.6640   -6.8863   21.4231 O   0  0  0  0  0  0
  -22.3504  -14.5509   20.6699 O   0  0  0  0  0  0
  -24.6095  -31.8656   23.2090 C   0  0  0  0  0  0
  -25.8986  -32.4786   23.8401 C   0  0  1  0  0  0
  -27.2344  -27.4271   20.1048 C   0  0  0  0  0  0
  -25.5868  -33.8581   24.2359 N   0  0  0  0  0  0
  -23.4003  -30.4834   21.5469 C   0  0  2  0  0  0
  -24.8495  -28.9481   20.1136 C   0  0  0  0  0  0
  -22.7395  -29.4605   22.4990 C   0  0  0  0  0  0
  -18.0248  -28.1333   22.8398 C   0  0  0  0  0  0
  -24.1516  -36.7299   23.2650 C   0  0  0  0  0  0
  -25.9275  -30.8297   21.3620 C   0  0  0  0  0  0
  -26.0088  -29.4615   20.7111 C   0  0  0  0  0  0
  -27.2050  -28.7100   20.6989 C   0  0  0  0  0  0
  -26.0606  -26.9207   19.5060 C   0  0  0  0  0  0
  -24.8735  -27.6778   19.5059 C   0  0  0  0  0  0
  -23.6114  -29.8184   20.1624 C   0  0  0  0  0  0
  -25.4122  -36.3084   24.0368 C   0  0  1  0  0  0
  -20.5847  -28.3614   23.1298 C   0  0  2  0  0  0
  -20.6756  -26.9354   22.5395 C   0  0  0  0  0  0
  -19.5769  -26.6352   21.5171 C   0  0  0  0  0  0
  -18.1922  -26.7853   22.1557 C   0  0  0  0  0  0
  -19.1502  -28.8796   23.2817 C   0  0  0  0  0  0
  -18.9465  -30.1400   23.8803 C   0  0  0  0  0  0
  -17.6484  -30.6536   24.0547 C   0  0  0  0  0  0
  -25.9041  -34.9437   23.5166 C   0  0  0  0  0  0
  -16.5354  -29.9060   23.6329 C   0  0  0  0  0  0
  -16.7244  -28.6483   23.0288 C   0  0  0  0  0  0
  -26.4428  -31.6550   25.0703 C   0  0  0  0  0  0
  -25.3691  -31.3668   26.1464 C   0  0  0  0  0  0
  -27.0318  -30.3036   24.6045 C   0  0  0  0  0  0
  -27.6025  -32.4255   25.7442 C   0  0  0  0  0  0
  -27.5581  -37.1782   24.8462 C   0  0  0  0  0  0
  -21.4127  -29.2996   22.3734 N   0  0  0  0  0  0
  -26.4303  -37.3767   23.9402 N   0  0  0  0  0  0
  -24.6635  -31.0753   22.0988 N   0  0  0  0  0  0
  -23.4168  -28.8165   23.3023 O   0  0  0  0  0  0
  -28.4084  -26.6869   20.0937 O   0  0  0  0  0  0
  -26.5610  -34.8872   22.4729 O   0  0  0  0  0  0
  -23.5284  -32.1436   23.7469 O   0  0  0  0  0  0
  -31.2715  -18.4323   22.7294 C   0  0  0  0  0  0
  -30.9914  -17.1010   22.3791 C   0  0  0  0  0  0
  -29.7002  -17.9041   20.4722 C   0  0  0  0  0  0
  -30.7719  -19.5099   21.9663 C   0  0  0  0  0  0
  -29.9666  -19.2559   20.8259 C   0  0  0  0  0  0
  -30.2115  -16.8248   21.2381 C   0  0  0  0  0  0
  -27.4639  -21.0784   21.3396 C   0  0  0  0  0  0
  -26.5559  -22.1662   21.9147 C   0  0  0  0  0  0
  -27.2254  -23.5371   22.0256 C   0  0  0  0  0  0
  -28.8551  -22.8482   20.2195 C   0  0  0  0  0  0
  -27.8552  -23.9694   20.6852 C   0  0  2  0  0  0
  -31.1180  -20.9225   22.3971 C   0  0  0  0  0  0
  -29.3907  -20.3942   19.9485 C   0  0  0  0  0  0
  -28.5132  -25.4063   20.7883 C   0  0  0  0  0  0
  -28.5340  -21.4335   20.5858 N   0  0  0  0  0  0
  -29.8525  -15.4824   20.9375 N   0  0  0  0  0  0
  -27.1587  -19.9058   21.5766 O   0  0  0  0  0  0
  -31.4681  -12.4321   19.1053 H   0  0  0  0  0  0
  -30.3413  -11.2890   19.7911 H   0  0  0  0  0  0
  -29.7338  -11.7943   17.4072 H   0  0  0  0  0  0
  -29.6668  -13.5022   17.7593 H   0  0  0  0  0  0
  -27.7915  -11.3271   18.7531 H   0  0  0  0  0  0
  -27.3726  -12.6961   17.7625 H   0  0  0  0  0  0
  -27.6997  -14.2532   19.5776 H   0  0  0  0  0  0
  -28.6651  -11.9165   21.2961 H   0  0  0  0  0  0
  -28.4544  -13.5420   21.8708 H   0  0  0  0  0  0
  -25.2758   -9.5676   22.4723 H   0  0  0  0  0  0
  -24.0009   -7.4620   22.7461 H   0  0  0  0  0  0
  -21.0843   -8.8708   19.8943 H   0  0  0  0  0  0
  -22.3669  -10.9619   19.6114 H   0  0  0  0  0  0
  -21.2042   -7.6146   23.9727 H   0  0  0  0  0  0
  -21.1458   -6.0519   25.9074 H   0  0  0  0  0  0
  -22.0616   -2.7614   23.2858 H   0  0  0  0  0  0
  -22.4129  -11.9883   22.4819 H   0  0  0  0  0  0
  -21.1030  -13.1132   22.2533 H   0  0  0  0  0  0
  -24.6619  -15.8436   20.5120 H   0  0  0  0  0  0
  -26.2731  -15.6248   20.0604 H   0  0  0  0  0  0
  -26.7012  -32.5534   23.1143 H   0  0  0  0  0  0
  -25.0021  -33.9749   25.0516 H   0  0  0  0  0  0
  -22.6866  -31.2991   21.4019 H   0  0  0  0  0  0
  -23.3762  -35.9650   23.3329 H   0  0  0  0  0  0
  -24.3593  -36.8914   22.2062 H   0  0  0  0  0  0
  -23.7305  -37.6511   23.6673 H   0  0  0  0  0  0
  -26.0400  -31.6003   20.5957 H   0  0  0  0  0  0
  -26.8134  -30.8844   21.9828 H   0  0  0  0  0  0
  -28.1020  -29.0997   21.1620 H   0  0  0  0  0  0
  -26.0671  -25.9454   19.0366 H   0  0  0  0  0  0
  -23.9858  -27.2808   19.0294 H   0  0  0  0  0  0
  -23.7186  -30.5991   19.4062 H   0  0  0  0  0  0
  -22.7347  -29.2403   19.8642 H   0  0  0  0  0  0
  -25.1282  -36.1957   25.0868 H   0  0  0  0  0  0
  -20.9844  -28.3160   24.1462 H   0  0  0  0  0  0
  -20.5681  -26.2196   23.3559 H   0  0  0  0  0  0
  -21.6624  -26.7428   22.1186 H   0  0  0  0  0  0
  -19.6977  -25.6282   21.1179 H   0  0  0  0  0  0
  -19.6737  -27.3176   20.6705 H   0  0  0  0  0  0
  -17.4198  -26.6546   21.3959 H   0  0  0  0  0  0
  -18.0323  -26.0027   22.8998 H   0  0  0  0  0  0
  -19.7979  -30.7187   24.2131 H   0  0  0  0  0  0
  -17.5082  -31.6221   24.5157 H   0  0  0  0  0  0
  -15.5352  -30.2945   23.7732 H   0  0  0  0  0  0
  -15.8612  -28.0843   22.6970 H   0  0  0  0  0  0
  -24.5848  -30.7007   25.7830 H   0  0  0  0  0  0
  -24.8838  -32.2825   26.4872 H   0  0  0  0  0  0
  -25.8017  -30.8887   27.0272 H   0  0  0  0  0  0
  -26.2922  -29.6732   24.1085 H   0  0  0  0  0  0
  -27.4188  -29.7263   25.4455 H   0  0  0  0  0  0
  -27.8673  -30.4447   23.9158 H   0  0  0  0  0  0
  -27.2697  -33.3584   26.2011 H   0  0  0  0  0  0
  -28.3827  -32.6751   25.0225 H   0  0  0  0  0  0
  -28.0714  -31.8370   26.5340 H   0  0  0  0  0  0
  -28.2547  -38.0112   24.7493 H   0  0  0  0  0  0
  -28.1118  -36.2630   24.6323 H   0  0  0  0  0  0
  -27.2265  -37.1437   25.8849 H   0  0  0  0  0  0
  -20.9279  -29.8802   21.7037 H   0  0  0  0  0  0
  -26.0205  -38.2843   24.1421 H   0  0  0  0  0  0
  -31.8777  -18.6213   23.6046 H   0  0  0  0  0  0
  -31.3669  -16.2953   22.9957 H   0  0  0  0  0  0
  -29.0921  -17.6908   19.6028 H   0  0  0  0  0  0
  -26.1969  -21.8545   22.8960 H   0  0  0  0  0  0
  -25.6801  -22.2279   21.2695 H   0  0  0  0  0  0
  -27.9837  -23.5264   22.8123 H   0  0  0  0  0  0
  -26.4620  -24.2483   22.3447 H   0  0  0  0  0  0
  -29.8463  -23.0710   20.6116 H   0  0  0  0  0  0
  -28.9529  -22.9084   19.1348 H   0  0  0  0  0  0
  -27.0268  -23.9968   19.9730 H   0  0  0  0  0  0
  -31.8450  -20.9253   23.2099 H   0  0  0  0  0  0
  -30.2289  -21.4411   22.7530 H   0  0  0  0  0  0
  -31.5448  -21.4802   21.5644 H   0  0  0  0  0  0
  -28.8007  -19.9465   19.1475 H   0  0  0  0  0  0
  -30.2390  -20.8588   19.4460 H   0  0  0  0  0  0
  -28.5521  -25.2652   19.7072 H   0  0  0  0  0  0
  -27.7273  -25.7473   21.4598 H   0  0  0  0  0  0
  -28.8746  -15.2440   21.0173 H   0  0  0  0  0  0
  1 25  1  0  0  0
  1 30  2  0  0  0
  1 86  1  0  0  0
  2  3  1  0  0  0
  2 25  1  0  0  0
  2 88  1  0  0  0
  2 89  1  0  0  0
  3  4  1  0  0  0
  3 90  1  0  0  0
  3 91  1  0  0  0
  4  5  1  0  0  0
  4 92  1  0  0  0
  4 93  1  0  0  0
  5  6  1  0  0  0
  5 26  1  0  0  0
  5 94  1  0  0  0
  6 25  1  0  0  0
  6 95  1  0  0  0
  6 96  1  0  0  0
  7  8  2  0  0  0
  7 26  1  0  0  0
  7 29  1  0  0  0
  8  9  1  0  0  0
  8 22  1  0  0  0
  9 10  1  0  0  0
  9 27  2  0  0  0
 10 11  2  0  0  0
 10 15  1  0  0  0
 11 12  1  0  0  0
 11 97  1  0  0  0
 12 13  2  0  0  0
 12 98  1  0  0  0
 13 14  1  0  0  0
 13 31  1  0  0  0
 14 15  2  0  0  0
 14 99  1  0  0  0
 15100  1  0  0  0
 16 17  2  0  0  0
 16 21  1  0  0  0
 16 31  1  0  0  0
 17 18  1  0  0  0
 17101  1  0  0  0
 18 19  2  0  0  0
 18102  1  0  0  0
 19 20  1  0  0  0
 19 24  1  0  0  0
 20 21  2  0  0  0
 20103  1  0  0  0
 21 23  1  0  0  0
 22 28  1  0  0  0
 22 32  2  0  0  0
 26 27  1  0  0  0
 28104  1  0  0  0
 28105  1  0  0  0
 29106  1  0  0  0
 29107  1  0  0  0
 33 34  1  0  0  0
 33 66  1  0  0  0
 33 70  2  0  0  0
 34 36  1  0  0  0
 34 59  1  0  0  0
 34108  1  0  0  0
 35 44  2  0  0  0
 35 45  1  0  0  0
 35 68  1  0  0  0
 36 56  1  0  0  0
 36109  1  0  0  0
 37 39  1  0  0  0
 37 47  1  0  0  0
 37 66  1  0  0  0
 37110  1  0  0  0
 38 43  2  0  0  0
 38 46  1  0  0  0
 38 47  1  0  0  0
 39 64  1  0  0  0
 39 67  2  0  0  0
 40 52  1  0  0  0
 40 53  2  0  0  0
 40 58  1  0  0  0
 41111  1  0  0  0
 41112  1  0  0  0
 41113  1  0  0  0
 41 48  1  0  0  0
 42 43  1  0  0  0
 42 66  1  0  0  0
 42114  1  0  0  0
 42115  1  0  0  0
 43 44  1  0  0  0
 44116  1  0  0  0
 45 46  2  0  0  0
 45117  1  0  0  0
 46118  1  0  0  0
 47119  1  0  0  0
 47120  1  0  0  0
 48 56  1  0  0  0
 48 65  1  0  0  0
 48121  1  0  0  0
 49 50  1  0  0  0
 49 53  1  0  0  0
 49 64  1  0  0  0
 49122  1  0  0  0
 50 51  1  0  0  0
 50123  1  0  0  0
 50124  1  0  0  0
 51 52  1  0  0  0
 51125  1  0  0  0
 51126  1  0  0  0
 52127  1  0  0  0
 52128  1  0  0  0
 53 54  1  0  0  0
 54 55  2  0  0  0
 54129  1  0  0  0
 55 57  1  0  0  0
 55130  1  0  0  0
 56 69  2  0  0  0
 57 58  2  0  0  0
 57131  1  0  0  0
 58132  1  0  0  0
 59 60  1  0  0  0
 59 61  1  0  0  0
 59 62  1  0  0  0
 60133  1  0  0  0
 60134  1  0  0  0
 60135  1  0  0  0
 61136  1  0  0  0
 61137  1  0  0  0
 61138  1  0  0  0
 62139  1  0  0  0
 62140  1  0  0  0
 62141  1  0  0  0
 63 65  1  0  0  0
 63142  1  0  0  0
 63143  1  0  0  0
 63144  1  0  0  0
 64145  1  0  0  0
 65146  1  0  0  0
 68 84  1  0  0  0
 71 72  2  0  0  0
 71 74  1  0  0  0
 71147  1  0  0  0
 72 76  1  0  0  0
 72148  1  0  0  0
 73 75  1  0  0  0
 73 76  2  0  0  0
 73149  1  0  0  0
 74 75  2  0  0  0
 74 82  1  0  0  0
 75 83  1  0  0  0
 76 86  1  0  0  0
 77 78  1  0  0  0
 77 85  1  0  0  0
 77 87  2  0  0  0
 78 79  1  0  0  0
 78150  1  0  0  0
 78151  1  0  0  0
 79 81  1  0  0  0
 79152  1  0  0  0
 79153  1  0  0  0
 80 81  1  0  0  0
 80 85  1  0  0  0
 80154  1  0  0  0
 80155  1  0  0  0
 81 84  1  0  0  0
 81156  1  0  0  0
 82157  1  0  0  0
 82158  1  0  0  0
 82159  1  0  0  0
 83 85  1  0  0  0
 83160  1  0  0  0
 83161  1  0  0  0
 84162  1  0  0  0
 84163  1  0  0  0
 86164  1  0  0  0
M  ISO  4   1 100  68 101  84 101  86 100
M  END
> <chiral flag>
0

> <version>
0

> <s_m_source_file>
/data/baiqing/PycharmProjects/Reinvent-master-3.2/result/LINK_invent/BTK/process_docking_weight1_custom_product_contain_oxygen_bond_distance_aromatic_linkinvent_7_9_3/rearranged_h_0054.sdf

> <i_m_source_file_index>
91

> <r_mmod_Potential_Energy-OPLS-2005>
258.706481933594

> <r_mmod_Stretch_Energy-OPLS-2005>
51.5718536376953

> <r_mmod_Bend_Energy-OPLS-2005>
340.279846191406

> <r_mmod_Torsional_Energy-OPLS-2005>
277.95751953125

> <r_mmod_Improper_Torsional_Energy-OPLS-2005>
5.73676109313965

> <r_mmod_Van_der_Waal_Energy-OPLS-2005>
170.167739868164

> <r_mmod_Electrostatic_Energy-OPLS-2005>
-371.981781005859

> <r_mmod_Solvation_Energy-OPLS-2005>
-229.703338623047

> <b_mmod_Minimization_Converged-OPLS-2005>
0

> <r_mmod_RMS_Derivative-OPLS-2005>
4.85620403289795

$$$$
91
                    3D
 Structure written by MMmdl.
161169  0  0  1  0            999 V2000
  -30.6576  -14.5449   20.4805 C   0  0  0  0  0  0
  -30.4208  -12.3256   19.4471 C   0  0  0  0  0  0
  -29.4998  -12.4906   18.2172 C   0  0  0  0  0  0
  -28.0169  -12.3529   18.6194 C   0  0  0  0  0  0
  -27.6498  -13.2154   19.8544 C   0  0  2  0  0  0
  -28.6874  -13.0535   20.9843 C   0  0  0  0  0  0
  -25.2540  -13.8183   20.5656 C   0  0  0  0  0  0
  -24.1808  -13.0459   20.9180 C   0  0  0  0  0  0
  -24.6374  -11.6912   20.8733 C   0  0  0  0  0  0
  -23.9062  -10.4296   21.0420 C   0  0  0  0  0  0
  -24.3616   -9.4209   21.9195 C   0  0  0  0  0  0
  -23.6286   -8.2247   22.0766 C   0  0  0  0  0  0
  -22.4264   -8.0297   21.3565 C   0  0  0  0  0  0
  -21.9900   -9.0281   20.4677 C   0  0  0  0  0  0
  -22.7236  -10.2145   20.3078 C   0  0  0  0  0  0
  -21.6844   -6.0740   22.5273 C   0  0  0  0  0  0
  -21.4007   -6.5642   23.8209 C   0  0  0  0  0  0
  -21.3660   -5.6812   24.9175 C   0  0  0  0  0  0
  -21.6039   -4.3072   24.7235 C   0  0  0  0  0  0
  -21.8822   -3.8160   23.4361 C   0  0  0  0  0  0
  -21.9183   -4.6967   22.3405 C   0  0  0  0  0  0
  -22.7838  -13.5253   21.1865 C   0  0  0  0  0  0
  -22.1635   -4.2128   21.0988 F   0  0  0  0  0  0
  -21.5633   -3.4574   25.7766 F   0  0  0  0  0  0
  -30.0224  -13.3397   20.4381 N   0  0  0  0  0  0
  -26.2948  -12.9346   20.3249 N   0  0  0  0  0  0
  -25.9285  -11.6505   20.5724 N   0  0  0  0  0  0
  -22.0511  -12.8242   22.0438 N   0  0  0  0  0  0
  -25.4284  -15.1894   20.4034 N   0  0  0  0  0  0
  -31.8497  -14.6427   20.1836 O   0  0  0  0  0  0
  -21.6643   -6.8885   21.4240 O   0  0  0  0  0  0
  -22.3492  -14.5563   20.6740 O   0  0  0  0  0  0
  -24.6205  -31.8675   23.2116 C   0  0  0  0  0  0
  -25.9086  -32.4819   23.8411 C   0  0  1  0  0  0
  -27.2207  -27.3918   20.1014 C   0  0  0  0  0  0
  -25.5918  -33.8615   24.2347 N   0  0  0  0  0  0
  -23.4090  -30.4967   21.5529 C   0  0  2  0  0  0
  -24.8519  -28.9680   20.1093 C   0  0  0  0  0  0
  -22.7433  -29.4684   22.4977 C   0  0  0  0  0  0
  -18.0278  -28.1391   22.8490 C   0  0  0  0  0  0
  -24.1473  -36.7316   23.2633 C   0  0  0  0  0  0
  -25.9443  -30.8218   21.3698 C   0  0  0  0  0  0
  -26.0189  -29.4556   20.7125 C   0  0  0  0  0  0
  -27.2067  -28.6775   20.7028 C   0  0  0  0  0  0
  -26.0292  -26.9457   19.4744 C   0  0  0  0  0  0
  -24.8553  -27.7156   19.4823 C   0  0  0  0  0  0
  -23.6170  -29.8392   20.1640 C   0  0  0  0  0  0
  -25.4087  -36.3115   24.0348 C   0  0  1  0  0  0
  -20.5872  -28.3700   23.1293 C   0  0  2  0  0  0
  -20.6776  -26.9435   22.5409 C   0  0  0  0  0  0
  -19.5756  -26.6402   21.5206 C   0  0  0  0  0  0
  -18.1931  -26.7935   22.1618 C   0  0  0  0  0  0
  -19.1528  -28.8861   23.2890 C   0  0  0  0  0  0
  -18.9452  -30.1457   23.8913 C   0  0  0  0  0  0
  -17.6455  -30.6597   24.0567 C   0  0  0  0  0  0
  -25.9034  -34.9478   23.5145 C   0  0  0  0  0  0
  -16.5347  -29.9099   23.6327 C   0  0  0  0  0  0
  -16.7263  -28.6517   23.0344 C   0  0  0  0  0  0
  -26.4481  -31.6591   25.0746 C   0  0  0  0  0  0
  -25.3725  -31.3700   26.1483 C   0  0  0  0  0  0
  -27.0303  -30.3021   24.6144 C   0  0  0  0  0  0
  -27.6079  -32.4292   25.7490 C   0  0  0  0  0  0
  -27.5571  -37.1808   24.8466 C   0  0  0  0  0  0
  -21.4163  -29.3048   22.3688 N   0  0  0  0  0  0
  -26.4280  -37.3795   23.9415 N   0  0  0  0  0  0
  -24.6771  -31.0751   22.1029 N   0  0  0  0  0  0
  -23.4186  -28.8206   23.3023 O   0  0  0  0  0  0
  -28.3537  -26.5842   20.1551 O   0  0  0  0  0  0
  -26.5594  -34.8934   22.4704 O   0  0  0  0  0  0
  -23.5393  -32.1440   23.7506 O   0  0  0  0  0  0
  -27.3374  -19.1789   20.8007 C   0  0  0  0  0  0
  -28.0821  -18.0029   20.9943 C   0  0  0  0  0  0
  -27.9690  -20.4321   20.8151 C   0  0  0  0  0  0
  -29.4840  -18.0342   21.1835 C   0  0  0  0  0  0
  -29.3613  -20.5376   21.0230 C   0  0  0  0  0  0
  -30.1236  -19.3281   21.1610 C   0  0  0  0  0  0
  -30.1845  -16.6910   21.3403 C   0  0  0  0  0  0
  -29.3076  -24.2304   20.3366 C   0  0  0  0  0  0
  -31.6432  -19.4592   21.2407 C   0  0  0  0  0  0
  -31.2553  -16.6135   22.4310 C   0  0  0  0  0  0
  -28.3331  -23.2149   22.3637 C   0  0  0  0  0  0
  -30.0367  -21.9389   21.0586 C   0  0  0  0  0  0
  -28.0865  -25.1545   20.0807 C   0  0  0  0  0  0
  -29.8238  -15.6610   20.6456 N   0  0  0  0  0  0
  -29.1737  -23.1493   21.1615 N   0  0  0  0  0  0
  -30.3329  -24.4194   19.6720 O   0  0  0  0  0  0
  -31.4666  -12.4174   19.1478 H   0  0  0  0  0  0
  -30.3185  -11.3243   19.8689 H   0  0  0  0  0  0
  -29.7508  -11.7445   17.4619 H   0  0  0  0  0  0
  -29.6625  -13.4626   17.7484 H   0  0  0  0  0  0
  -27.8269  -11.3015   18.8351 H   0  0  0  0  0  0
  -27.3707  -12.6111   17.7790 H   0  0  0  0  0  0
  -27.6776  -14.2542   19.5247 H   0  0  0  0  0  0
  -28.6616  -12.0406   21.3903 H   0  0  0  0  0  0
  -28.4533  -13.7189   21.8159 H   0  0  0  0  0  0
  -25.2764   -9.5681   22.4745 H   0  0  0  0  0  0
  -24.0003   -7.4635   22.7473 H   0  0  0  0  0  0
  -21.0826   -8.8820   19.8988 H   0  0  0  0  0  0
  -22.3709  -10.9692   19.6187 H   0  0  0  0  0  0
  -21.1980   -7.6150   23.9705 H   0  0  0  0  0  0
  -21.1467   -6.0549   25.9073 H   0  0  0  0  0  0
  -22.0590   -2.7618   23.2881 H   0  0  0  0  0  0
  -22.4180  -11.9944   22.4869 H   0  0  0  0  0  0
  -21.1131  -13.1266   22.2638 H   0  0  0  0  0  0
  -24.6685  -15.8553   20.4962 H   0  0  0  0  0  0
  -26.2929  -15.6075   20.0853 H   0  0  0  0  0  0
  -26.7161  -32.5522   23.1178 H   0  0  0  0  0  0
  -25.0048  -33.9760   25.0482 H   0  0  0  0  0  0
  -22.7005  -31.3175   21.4197 H   0  0  0  0  0  0
  -23.3739  -35.9649   23.3308 H   0  0  0  0  0  0
  -24.3573  -36.8913   22.2048 H   0  0  0  0  0  0
  -23.7236  -37.6530   23.6634 H   0  0  0  0  0  0
  -26.0607  -31.5900   20.6043 H   0  0  0  0  0  0
  -26.8319  -30.8738   21.9883 H   0  0  0  0  0  0
  -28.1013  -29.0425   21.1867 H   0  0  0  0  0  0
  -25.9639  -25.9929   18.9723 H   0  0  0  0  0  0
  -23.9616  -27.3427   18.9985 H   0  0  0  0  0  0
  -23.7236  -30.6213   19.4106 H   0  0  0  0  0  0
  -22.7373  -29.2650   19.8674 H   0  0  0  0  0  0
  -25.1256  -36.1979   25.0843 H   0  0  0  0  0  0
  -20.9960  -28.3285   24.1414 H   0  0  0  0  0  0
  -20.5685  -26.2313   23.3605 H   0  0  0  0  0  0
  -21.6642  -26.7487   22.1186 H   0  0  0  0  0  0
  -19.6925  -25.6318   21.1227 H   0  0  0  0  0  0
  -19.6680  -27.3221   20.6738 H   0  0  0  0  0  0
  -17.4191  -26.6677   21.4027 H   0  0  0  0  0  0
  -18.0346  -26.0087   22.9026 H   0  0  0  0  0  0
  -19.7927  -30.7263   24.2302 H   0  0  0  0  0  0
  -17.5010  -31.6275   24.5167 H   0  0  0  0  0  0
  -15.5351  -30.2996   23.7649 H   0  0  0  0  0  0
  -15.8663  -28.0835   22.7052 H   0  0  0  0  0  0
  -24.5923  -30.7020   25.7807 H   0  0  0  0  0  0
  -24.8879  -32.2846   26.4912 H   0  0  0  0  0  0
  -25.8062  -30.8880   27.0255 H   0  0  0  0  0  0
  -26.2854  -29.6794   24.1174 H   0  0  0  0  0  0
  -27.4023  -29.7250   25.4622 H   0  0  0  0  0  0
  -27.8715  -30.4319   23.9330 H   0  0  0  0  0  0
  -27.2736  -33.3592   26.2096 H   0  0  0  0  0  0
  -28.3861  -32.6843   25.0284 H   0  0  0  0  0  0
  -28.0779  -31.8392   26.5369 H   0  0  0  0  0  0
  -28.2596  -38.0096   24.7504 H   0  0  0  0  0  0
  -28.1054  -36.2633   24.6284 H   0  0  0  0  0  0
  -27.2298  -37.1459   25.8872 H   0  0  0  0  0  0
  -20.9357  -29.8754   21.6880 H   0  0  0  0  0  0
  -26.0176  -38.2872   24.1425 H   0  0  0  0  0  0
  -26.2681  -19.1234   20.6423 H   0  0  0  0  0  0
  -27.5602  -17.0560   20.9772 H   0  0  0  0  0  0
  -27.3632  -21.3114   20.6540 H   0  0  0  0  0  0
  -31.9574  -19.6647   22.2649 H   0  0  0  0  0  0
  -32.0080  -20.2627   20.6017 H   0  0  0  0  0  0
  -32.1616  -18.5742   20.8812 H   0  0  0  0  0  0
  -31.1423  -17.4297   23.1432 H   0  0  0  0  0  0
  -32.2594  -16.6536   22.0110 H   0  0  0  0  0  0
  -31.1603  -15.6867   22.9988 H   0  0  0  0  0  0
  -28.4488  -24.1727   22.8752 H   0  0  0  0  0  0
  -28.6009  -22.4409   23.0839 H   0  0  0  0  0  0
  -27.2777  -23.0866   22.1223 H   0  0  0  0  0  0
  -30.6443  -22.0035   20.1569 H   0  0  0  0  0  0
  -30.7403  -21.9718   21.8924 H   0  0  0  0  0  0
  -27.2575  -24.8901   20.7353 H   0  0  0  0  0  0
  -27.7775  -24.9039   19.0655 H   0  0  0  0  0  0
  1 25  1  0  0  0
  1 30  2  0  0  0
  1 84  1  0  0  0
  2  3  1  0  0  0
  2 25  1  0  0  0
  2 87  1  0  0  0
  2 88  1  0  0  0
  3  4  1  0  0  0
  3 89  1  0  0  0
  3 90  1  0  0  0
  4  5  1  0  0  0
  4 91  1  0  0  0
  4 92  1  0  0  0
  5  6  1  0  0  0
  5 26  1  0  0  0
  5 93  1  0  0  0
  6 25  1  0  0  0
  6 94  1  0  0  0
  6 95  1  0  0  0
  7  8  2  0  0  0
  7 26  1  0  0  0
  7 29  1  0  0  0
  8  9  1  0  0  0
  8 22  1  0  0  0
  9 10  1  0  0  0
  9 27  2  0  0  0
 10 11  2  0  0  0
 10 15  1  0  0  0
 11 12  1  0  0  0
 11 96  1  0  0  0
 12 13  2  0  0  0
 12 97  1  0  0  0
 13 14  1  0  0  0
 13 31  1  0  0  0
 14 15  2  0  0  0
 14 98  1  0  0  0
 15 99  1  0  0  0
 16 17  2  0  0  0
 16 21  1  0  0  0
 16 31  1  0  0  0
 17 18  1  0  0  0
 17100  1  0  0  0
 18 19  2  0  0  0
 18101  1  0  0  0
 19 20  1  0  0  0
 19 24  1  0  0  0
 20 21  2  0  0  0
 20102  1  0  0  0
 21 23  1  0  0  0
 22 28  1  0  0  0
 22 32  2  0  0  0
 26 27  1  0  0  0
 28103  1  0  0  0
 28104  1  0  0  0
 29105  1  0  0  0
 29106  1  0  0  0
 33 34  1  0  0  0
 33 66  1  0  0  0
 33 70  2  0  0  0
 34 36  1  0  0  0
 34 59  1  0  0  0
 34107  1  0  0  0
 35 44  2  0  0  0
 35 45  1  0  0  0
 35 68  1  0  0  0
 36 56  1  0  0  0
 36108  1  0  0  0
 37 39  1  0  0  0
 37 47  1  0  0  0
 37 66  1  0  0  0
 37109  1  0  0  0
 38 43  2  0  0  0
 38 46  1  0  0  0
 38 47  1  0  0  0
 39 64  1  0  0  0
 39 67  2  0  0  0
 40 52  1  0  0  0
 40 53  2  0  0  0
 40 58  1  0  0  0
 41110  1  0  0  0
 41111  1  0  0  0
 41112  1  0  0  0
 41 48  1  0  0  0
 42 43  1  0  0  0
 42 66  1  0  0  0
 42113  1  0  0  0
 42114  1  0  0  0
 43 44  1  0  0  0
 44115  1  0  0  0
 45 46  2  0  0  0
 45116  1  0  0  0
 46117  1  0  0  0
 47118  1  0  0  0
 47119  1  0  0  0
 48 56  1  0  0  0
 48 65  1  0  0  0
 48120  1  0  0  0
 49 50  1  0  0  0
 49 53  1  0  0  0
 49 64  1  0  0  0
 49121  1  0  0  0
 50 51  1  0  0  0
 50122  1  0  0  0
 50123  1  0  0  0
 51 52  1  0  0  0
 51124  1  0  0  0
 51125  1  0  0  0
 52126  1  0  0  0
 52127  1  0  0  0
 53 54  1  0  0  0
 54 55  2  0  0  0
 54128  1  0  0  0
 55 57  1  0  0  0
 55129  1  0  0  0
 56 69  2  0  0  0
 57 58  2  0  0  0
 57130  1  0  0  0
 58131  1  0  0  0
 59 60  1  0  0  0
 59 61  1  0  0  0
 59 62  1  0  0  0
 60132  1  0  0  0
 60133  1  0  0  0
 60134  1  0  0  0
 61135  1  0  0  0
 61136  1  0  0  0
 61137  1  0  0  0
 62138  1  0  0  0
 62139  1  0  0  0
 62140  1  0  0  0
 63 65  1  0  0  0
 63141  1  0  0  0
 63142  1  0  0  0
 63143  1  0  0  0
 64144  1  0  0  0
 65145  1  0  0  0
 68 83  1  0  0  0
 71 72  2  0  0  0
 71 73  1  0  0  0
 71146  1  0  0  0
 72 74  1  0  0  0
 72147  1  0  0  0
 73 75  2  0  0  0
 73148  1  0  0  0
 74 76  2  0  0  0
 74 77  1  0  0  0
 75 76  1  0  0  0
 75 82  1  0  0  0
 76 79  1  0  0  0
 77 80  1  0  0  0
 77 84  2  0  0  0
 78 83  1  0  0  0
 78 85  1  0  0  0
 78 86  2  0  0  0
 79149  1  0  0  0
 79150  1  0  0  0
 79151  1  0  0  0
 80152  1  0  0  0
 80153  1  0  0  0
 80154  1  0  0  0
 81 85  1  0  0  0
 81155  1  0  0  0
 81156  1  0  0  0
 81157  1  0  0  0
 82 85  1  0  0  0
 82158  1  0  0  0
 82159  1  0  0  0
 83160  1  0  0  0
 83161  1  0  0  0
M  ISO  4   1 100  68 101  83 101  84 100
M  END
> <chiral flag>
0

> <version>
0

> <s_m_source_file>
/data/baiqing/PycharmProjects/Reinvent-master-3.2/result/LINK_invent/BTK/process_docking_weight1_custom_product_contain_oxygen_bond_distance_aromatic_linkinvent_7_9_3/rearranged_h_0054.sdf

> <i_m_source_file_index>
92

> <r_mmod_Potential_Energy-OPLS-2005>
99.6098251342773

> <r_mmod_Stretch_Energy-OPLS-2005>
60.6260528564453

> <r_mmod_Bend_Energy-OPLS-2005>
115.778457641602

> <r_mmod_Torsional_Energy-OPLS-2005>
230.255783081055

> <r_mmod_Improper_Torsional_Energy-OPLS-2005>
8.15850257873535

> <r_mmod_Van_der_Waal_Energy-OPLS-2005>
181.615753173828

> <r_mmod_Electrostatic_Energy-OPLS-2005>
-321.197631835938

> <r_mmod_Solvation_Energy-OPLS-2005>
-204.501434326172

> <b_mmod_Minimization_Converged-OPLS-2005>
0

> <r_mmod_RMS_Derivative-OPLS-2005>
2.93632197380066

$$$$
92
                    3D
 Structure written by MMmdl.
157165  0  0  1  0            999 V2000
  -30.7059  -14.5523   20.5359 C   0  0  0  0  0  0
  -30.4190  -12.3533   19.4338 C   0  0  0  0  0  0
  -29.4948  -12.5029   18.2085 C   0  0  0  0  0  0
  -28.0169  -12.3603   18.6209 C   0  0  0  0  0  0
  -27.6509  -13.2210   19.8596 C   0  0  2  0  0  0
  -28.6990  -13.0762   20.9847 C   0  0  0  0  0  0
  -25.2560  -13.8188   20.5691 C   0  0  0  0  0  0
  -24.1832  -13.0438   20.9199 C   0  0  0  0  0  0
  -24.6406  -11.6913   20.8741 C   0  0  0  0  0  0
  -23.9079  -10.4290   21.0400 C   0  0  0  0  0  0
  -24.3628   -9.4208   21.9176 C   0  0  0  0  0  0
  -23.6296   -8.2251   22.0760 C   0  0  0  0  0  0
  -22.4282   -8.0292   21.3557 C   0  0  0  0  0  0
  -21.9923   -9.0257   20.4658 C   0  0  0  0  0  0
  -22.7248  -10.2135   20.3055 C   0  0  0  0  0  0
  -21.6860   -6.0737   22.5279 C   0  0  0  0  0  0
  -21.4019   -6.5640   23.8208 C   0  0  0  0  0  0
  -21.3664   -5.6797   24.9170 C   0  0  0  0  0  0
  -21.6041   -4.3062   24.7220 C   0  0  0  0  0  0
  -21.8826   -3.8148   23.4345 C   0  0  0  0  0  0
  -21.9206   -4.6963   22.3405 C   0  0  0  0  0  0
  -22.7856  -13.5229   21.1864 C   0  0  0  0  0  0
  -22.1669   -4.2149   21.0978 F   0  0  0  0  0  0
  -21.5634   -3.4550   25.7733 F   0  0  0  0  0  0
  -30.0138  -13.3827   20.4073 N   0  0  0  0  0  0
  -26.2988  -12.9368   20.3319 N   0  0  0  0  0  0
  -25.9338  -11.6517   20.5749 N   0  0  0  0  0  0
  -22.0524  -12.8189   22.0408 N   0  0  0  0  0  0
  -25.4274  -15.1906   20.4121 N   0  0  0  0  0  0
  -31.8901  -14.6135   20.2264 O   0  0  0  0  0  0
  -21.6654   -6.8882   21.4242 O   0  0  0  0  0  0
  -22.3525  -14.5527   20.6719 O   0  0  0  0  0  0
  -24.6207  -31.8638   23.2071 C   0  0  0  0  0  0
  -25.9078  -32.4794   23.8378 C   0  0  1  0  0  0
  -27.2232  -27.3638   20.1113 C   0  0  0  0  0  0
  -25.5911  -33.8591   24.2305 N   0  0  0  0  0  0
  -23.4111  -30.4896   21.5478 C   0  0  2  0  0  0
  -24.8576  -28.9537   20.1085 C   0  0  0  0  0  0
  -22.7437  -29.4648   22.4951 C   0  0  0  0  0  0
  -18.0275  -28.1380   22.8493 C   0  0  0  0  0  0
  -24.1487  -36.7313   23.2639 C   0  0  0  0  0  0
  -25.9483  -30.8079   21.3722 C   0  0  0  0  0  0
  -26.0227  -29.4393   20.7156 C   0  0  0  0  0  0
  -27.2071  -28.6534   20.7133 C   0  0  0  0  0  0
  -26.0384  -26.9267   19.4704 C   0  0  0  0  0  0
  -24.8652  -27.7009   19.4789 C   0  0  0  0  0  0
  -23.6228  -29.8271   20.1610 C   0  0  0  0  0  0
  -25.4108  -36.3093   24.0335 C   0  0  1  0  0  0
  -20.5869  -28.3689   23.1294 C   0  0  2  0  0  0
  -20.6765  -26.9417   22.5419 C   0  0  0  0  0  0
  -19.5742  -26.6393   21.5217 C   0  0  0  0  0  0
  -18.1919  -26.7927   22.1634 C   0  0  0  0  0  0
  -19.1525  -28.8846   23.2890 C   0  0  0  0  0  0
  -18.9455  -30.1449   23.8909 C   0  0  0  0  0  0
  -17.6457  -30.6586   24.0569 C   0  0  0  0  0  0
  -25.9041  -34.9459   23.5123 C   0  0  0  0  0  0
  -16.5346  -29.9089   23.6321 C   0  0  0  0  0  0
  -16.7266  -28.6503   23.0353 C   0  0  0  0  0  0
  -26.4481  -31.6576   25.0720 C   0  0  0  0  0  0
  -25.3732  -31.3697   26.1457 C   0  0  0  0  0  0
  -27.0321  -30.3005   24.6146 C   0  0  0  0  0  0
  -27.6052  -32.4298   25.7492 C   0  0  0  0  0  0
  -27.5577  -37.1806   24.8459 C   0  0  0  0  0  0
  -21.4157  -29.3048   22.3689 N   0  0  0  0  0  0
  -26.4293  -37.3781   23.9402 N   0  0  0  0  0  0
  -24.6786  -31.0692   22.1002 N   0  0  0  0  0  0
  -23.4183  -28.8182   23.3011 O   0  0  0  0  0  0
  -28.3546  -26.5466   20.1767 O   0  0  0  0  0  0
  -26.5616  -34.8919   22.4690 O   0  0  0  0  0  0
  -23.5385  -32.1421   23.7425 O   0  0  0  0  0  0
  -32.5793  -19.7394   18.5715 C   0  0  0  0  0  0
  -33.0195  -18.4418   18.8480 C   0  0  0  0  0  0
  -31.4311  -20.2280   19.2131 C   0  0  0  0  0  0
  -32.2786  -17.6309   19.7216 C   0  0  0  0  0  0
  -30.6829  -19.4396   20.1256 C   0  0  0  0  0  0
  -31.0759  -18.0593   20.3350 C   0  0  0  0  0  0
  -28.9882  -22.6031   20.2252 C   0  0  0  0  0  0
  -29.5080  -20.1612   20.8363 C   0  0  0  0  0  0
  -30.3693  -17.0475   21.2915 C   0  0  0  0  0  0
  -29.2500  -24.1187   20.5266 C   0  0  0  0  0  0
  -28.1573  -25.1079   19.9762 C   0  0  0  0  0  0
  -29.6219  -21.6497   20.9545 N   0  0  0  0  0  0
  -29.9850  -15.6619   20.8523 N   0  0  0  0  0  0
  -28.2179  -22.2914   19.3152 O   0  0  0  0  0  0
  -31.4618  -12.4517   19.1276 H   0  0  0  0  0  0
  -30.3248  -11.3576   19.8704 H   0  0  0  0  0  0
  -29.7447  -11.7597   17.4481 H   0  0  0  0  0  0
  -29.6527  -13.4770   17.7437 H   0  0  0  0  0  0
  -27.8326  -11.3073   18.8295 H   0  0  0  0  0  0
  -27.3686  -12.6180   17.7828 H   0  0  0  0  0  0
  -27.6690  -14.2584   19.5243 H   0  0  0  0  0  0
  -28.6962  -12.0621   21.3873 H   0  0  0  0  0  0
  -28.4628  -13.7321   21.8242 H   0  0  0  0  0  0
  -25.2782   -9.5687   22.4730 H   0  0  0  0  0  0
  -24.0029   -7.4649   22.7466 H   0  0  0  0  0  0
  -21.0871   -8.8772   19.8947 H   0  0  0  0  0  0
  -22.3715  -10.9676   19.6163 H   0  0  0  0  0  0
  -21.2002   -7.6148   23.9702 H   0  0  0  0  0  0
  -21.1481   -6.0529   25.9069 H   0  0  0  0  0  0
  -22.0603   -2.7611   23.2838 H   0  0  0  0  0  0
  -22.4163  -11.9841   22.4757 H   0  0  0  0  0  0
  -21.1147  -13.1191   22.2646 H   0  0  0  0  0  0
  -24.6623  -15.8463   20.5237 H   0  0  0  0  0  0
  -26.2746  -15.6306   20.0752 H   0  0  0  0  0  0
  -26.7147  -32.5480   23.1129 H   0  0  0  0  0  0
  -25.0001  -33.9747   25.0411 H   0  0  0  0  0  0
  -22.7030  -31.3092   21.4089 H   0  0  0  0  0  0
  -23.3741  -35.9654   23.3297 H   0  0  0  0  0  0
  -24.3576  -36.8943   22.2055 H   0  0  0  0  0  0
  -23.7262  -37.6526   23.6664 H   0  0  0  0  0  0
  -26.0711  -31.5723   20.6034 H   0  0  0  0  0  0
  -26.8328  -30.8571   21.9963 H   0  0  0  0  0  0
  -28.0990  -29.0177   21.2040 H   0  0  0  0  0  0
  -25.9891  -25.9755   18.9604 H   0  0  0  0  0  0
  -23.9745  -27.3276   18.9933 H   0  0  0  0  0  0
  -23.7329  -30.6045   19.4043 H   0  0  0  0  0  0
  -22.7445  -29.2512   19.8636 H   0  0  0  0  0  0
  -25.1285  -36.1950   25.0830 H   0  0  0  0  0  0
  -20.9969  -28.3270   24.1410 H   0  0  0  0  0  0
  -20.5664  -26.2305   23.3616 H   0  0  0  0  0  0
  -21.6633  -26.7441   22.1215 H   0  0  0  0  0  0
  -19.6903  -25.6306   21.1231 H   0  0  0  0  0  0
  -19.6668  -27.3216   20.6754 H   0  0  0  0  0  0
  -17.4188  -26.6674   21.4038 H   0  0  0  0  0  0
  -18.0320  -26.0064   22.9028 H   0  0  0  0  0  0
  -19.7932  -30.7258   24.2294 H   0  0  0  0  0  0
  -17.5014  -31.6266   24.5177 H   0  0  0  0  0  0
  -15.5352  -30.3007   23.7630 H   0  0  0  0  0  0
  -15.8667  -28.0833   22.7064 H   0  0  0  0  0  0
  -24.5902  -30.7055   25.7784 H   0  0  0  0  0  0
  -24.8926  -32.2854   26.4907 H   0  0  0  0  0  0
  -25.8065  -30.8852   27.0216 H   0  0  0  0  0  0
  -26.2882  -29.6759   24.1183 H   0  0  0  0  0  0
  -27.4046  -29.7251   25.4636 H   0  0  0  0  0  0
  -27.8741  -30.4301   23.9339 H   0  0  0  0  0  0
  -27.2668  -33.3592   26.2092 H   0  0  0  0  0  0
  -28.3853  -32.6871   25.0311 H   0  0  0  0  0  0
  -28.0731  -31.8402   26.5392 H   0  0  0  0  0  0
  -28.2589  -38.0109   24.7503 H   0  0  0  0  0  0
  -28.1079  -36.2635   24.6278 H   0  0  0  0  0  0
  -27.2286  -37.1453   25.8861 H   0  0  0  0  0  0
  -20.9324  -29.8785   21.6916 H   0  0  0  0  0  0
  -26.0172  -38.2859   24.1400 H   0  0  0  0  0  0
  -33.1421  -20.3714   17.8975 H   0  0  0  0  0  0
  -33.9321  -18.0674   18.4023 H   0  0  0  0  0  0
  -31.1490  -21.2477   18.9982 H   0  0  0  0  0  0
  -32.7071  -16.6748   19.9436 H   0  0  0  0  0  0
  -29.4221  -19.7694   21.8509 H   0  0  0  0  0  0
  -28.5795  -19.8913   20.3290 H   0  0  0  0  0  0
  -29.4506  -17.5052   21.6563 H   0  0  0  0  0  0
  -31.0029  -16.9430   22.1746 H   0  0  0  0  0  0
  -30.2187  -24.3831   20.1033 H   0  0  0  0  0  0
  -29.3401  -24.2495   21.6056 H   0  0  0  0  0  0
  -27.2189  -24.8025   20.4448 H   0  0  0  0  0  0
  -28.0420  -24.9377   18.9046 H   0  0  0  0  0  0
  -30.2431  -21.9769   21.6826 H   0  0  0  0  0  0
  -28.9997  -15.4713   20.9530 H   0  0  0  0  0  0
  1 25  1  0  0  0
  1 30  2  0  0  0
  1 83  1  0  0  0
  2  3  1  0  0  0
  2 25  1  0  0  0
  2 85  1  0  0  0
  2 86  1  0  0  0
  3  4  1  0  0  0
  3 87  1  0  0  0
  3 88  1  0  0  0
  4  5  1  0  0  0
  4 89  1  0  0  0
  4 90  1  0  0  0
  5  6  1  0  0  0
  5 26  1  0  0  0
  5 91  1  0  0  0
  6 25  1  0  0  0
  6 92  1  0  0  0
  6 93  1  0  0  0
  7  8  2  0  0  0
  7 26  1  0  0  0
  7 29  1  0  0  0
  8  9  1  0  0  0
  8 22  1  0  0  0
  9 10  1  0  0  0
  9 27  2  0  0  0
 10 11  2  0  0  0
 10 15  1  0  0  0
 11 12  1  0  0  0
 11 94  1  0  0  0
 12 13  2  0  0  0
 12 95  1  0  0  0
 13 14  1  0  0  0
 13 31  1  0  0  0
 14 15  2  0  0  0
 14 96  1  0  0  0
 15 97  1  0  0  0
 16 17  2  0  0  0
 16 21  1  0  0  0
 16 31  1  0  0  0
 17 18  1  0  0  0
 17 98  1  0  0  0
 18 19  2  0  0  0
 18 99  1  0  0  0
 19 20  1  0  0  0
 19 24  1  0  0  0
 20 21  2  0  0  0
 20100  1  0  0  0
 21 23  1  0  0  0
 22 28  1  0  0  0
 22 32  2  0  0  0
 26 27  1  0  0  0
 28101  1  0  0  0
 28102  1  0  0  0
 29103  1  0  0  0
 29104  1  0  0  0
 33 34  1  0  0  0
 33 66  1  0  0  0
 33 70  2  0  0  0
 34 36  1  0  0  0
 34 59  1  0  0  0
 34105  1  0  0  0
 35 44  2  0  0  0
 35 45  1  0  0  0
 35 68  1  0  0  0
 36 56  1  0  0  0
 36106  1  0  0  0
 37 39  1  0  0  0
 37 47  1  0  0  0
 37 66  1  0  0  0
 37107  1  0  0  0
 38 43  2  0  0  0
 38 46  1  0  0  0
 38 47  1  0  0  0
 39 64  1  0  0  0
 39 67  2  0  0  0
 40 52  1  0  0  0
 40 53  2  0  0  0
 40 58  1  0  0  0
 41108  1  0  0  0
 41109  1  0  0  0
 41110  1  0  0  0
 41 48  1  0  0  0
 42 43  1  0  0  0
 42 66  1  0  0  0
 42111  1  0  0  0
 42112  1  0  0  0
 43 44  1  0  0  0
 44113  1  0  0  0
 45 46  2  0  0  0
 45114  1  0  0  0
 46115  1  0  0  0
 47116  1  0  0  0
 47117  1  0  0  0
 48 56  1  0  0  0
 48 65  1  0  0  0
 48118  1  0  0  0
 49 50  1  0  0  0
 49 53  1  0  0  0
 49 64  1  0  0  0
 49119  1  0  0  0
 50 51  1  0  0  0
 50120  1  0  0  0
 50121  1  0  0  0
 51 52  1  0  0  0
 51122  1  0  0  0
 51123  1  0  0  0
 52124  1  0  0  0
 52125  1  0  0  0
 53 54  1  0  0  0
 54 55  2  0  0  0
 54126  1  0  0  0
 55 57  1  0  0  0
 55127  1  0  0  0
 56 69  2  0  0  0
 57 58  2  0  0  0
 57128  1  0  0  0
 58129  1  0  0  0
 59 60  1  0  0  0
 59 61  1  0  0  0
 59 62  1  0  0  0
 60130  1  0  0  0
 60131  1  0  0  0
 60132  1  0  0  0
 61133  1  0  0  0
 61134  1  0  0  0
 61135  1  0  0  0
 62136  1  0  0  0
 62137  1  0  0  0
 62138  1  0  0  0
 63 65  1  0  0  0
 63139  1  0  0  0
 63140  1  0  0  0
 63141  1  0  0  0
 64142  1  0  0  0
 65143  1  0  0  0
 68 81  1  0  0  0
 71 72  2  0  0  0
 71 73  1  0  0  0
 71144  1  0  0  0
 72 74  1  0  0  0
 72145  1  0  0  0
 73 75  2  0  0  0
 73146  1  0  0  0
 74 76  2  0  0  0
 74147  1  0  0  0
 75 76  1  0  0  0
 75 78  1  0  0  0
 76 79  1  0  0  0
 77 80  1  0  0  0
 77 82  1  0  0  0
 77 84  2  0  0  0
 78 82  1  0  0  0
 78148  1  0  0  0
 78149  1  0  0  0
 79 83  1  0  0  0
 79150  1  0  0  0
 79151  1  0  0  0
 80 81  1  0  0  0
 80152  1  0  0  0
 80153  1  0  0  0
 81154  1  0  0  0
 81155  1  0  0  0
 82156  1  0  0  0
 83157  1  0  0  0
M  ISO  4   1 100  68 101  81 101  83 100
M  END
> <chiral flag>
0

> <version>
0

> <s_m_source_file>
/data/baiqing/PycharmProjects/Reinvent-master-3.2/result/LINK_invent/BTK/process_docking_weight1_custom_product_contain_oxygen_bond_distance_aromatic_linkinvent_7_9_3/rearranged_h_0054.sdf

> <i_m_source_file_index>
93

> <r_mmod_Potential_Energy-OPLS-2005>
-119.175361633301

> <r_mmod_Stretch_Energy-OPLS-2005>
64.4536819458008

> <r_mmod_Bend_Energy-OPLS-2005>
133.95361328125

> <r_mmod_Torsional_Energy-OPLS-2005>
196.469635009766

> <r_mmod_Improper_Torsional_Energy-OPLS-2005>
4.29624176025391

> <r_mmod_Van_der_Waal_Energy-OPLS-2005>
161.233123779297

> <r_mmod_Electrostatic_Energy-OPLS-2005>
-469.280395507812

> <r_mmod_Solvation_Energy-OPLS-2005>
-244.664764404297

> <b_mmod_Minimization_Converged-OPLS-2005>
0

> <r_mmod_RMS_Derivative-OPLS-2005>
2.26625561714172

$$$$
93
                    3D
 Structure written by MMmdl.
160169  0  0  1  0            999 V2000
  -30.7056  -14.5876   20.5198 C   0  0  0  0  0  0
  -30.4216  -12.3684   19.4462 C   0  0  0  0  0  0
  -29.4949  -12.4983   18.2201 C   0  0  0  0  0  0
  -28.0245  -12.3362   18.6453 C   0  0  0  0  0  0
  -27.6559  -13.2203   19.8668 C   0  0  2  0  0  0
  -28.7043  -13.0945   20.9963 C   0  0  0  0  0  0
  -25.2589  -13.8184   20.5678 C   0  0  0  0  0  0
  -24.1870  -13.0454   20.9162 C   0  0  0  0  0  0
  -24.6449  -11.6913   20.8777 C   0  0  0  0  0  0
  -23.9142  -10.4278   21.0426 C   0  0  0  0  0  0
  -24.3675   -9.4163   21.9184 C   0  0  0  0  0  0
  -23.6312   -8.2217   22.0754 C   0  0  0  0  0  0
  -22.4290   -8.0284   21.3532 C   0  0  0  0  0  0
  -21.9955   -9.0284   20.4651 C   0  0  0  0  0  0
  -22.7329  -10.2138   20.3068 C   0  0  0  0  0  0
  -21.6852   -6.0748   22.5278 C   0  0  0  0  0  0
  -21.4007   -6.5650   23.8214 C   0  0  0  0  0  0
  -21.3645   -5.6798   24.9170 C   0  0  0  0  0  0
  -21.6038   -4.3062   24.7218 C   0  0  0  0  0  0
  -21.8828   -3.8159   23.4339 C   0  0  0  0  0  0
  -21.9189   -4.6973   22.3400 C   0  0  0  0  0  0
  -22.7882  -13.5203   21.1815 C   0  0  0  0  0  0
  -22.1658   -4.2170   21.0973 F   0  0  0  0  0  0
  -21.5625   -3.4549   25.7726 F   0  0  0  0  0  0
  -30.0174  -13.4070   20.4167 N   0  0  0  0  0  0
  -26.3041  -12.9385   20.3374 N   0  0  0  0  0  0
  -25.9383  -11.6540   20.5837 N   0  0  0  0  0  0
  -22.0550  -12.8197   22.0382 N   0  0  0  0  0  0
  -25.4328  -15.1913   20.4064 N   0  0  0  0  0  0
  -31.8705  -14.6708   20.1268 O   0  0  0  0  0  0
  -21.6630   -6.8898   21.4235 O   0  0  0  0  0  0
  -22.3537  -14.5501   20.6648 O   0  0  0  0  0  0
  -24.6207  -31.8677   23.2100 C   0  0  0  0  0  0
  -25.9093  -32.4810   23.8394 C   0  0  1  0  0  0
  -27.1983  -27.3137   20.1095 C   0  0  0  0  0  0
  -25.5921  -33.8624   24.2279 N   0  0  0  0  0  0
  -23.4086  -30.4986   21.5549 C   0  0  2  0  0  0
  -24.8486  -28.9674   20.1184 C   0  0  0  0  0  0
  -22.7435  -29.4647   22.4944 C   0  0  0  0  0  0
  -18.0295  -28.1326   22.8614 C   0  0  0  0  0  0
  -24.1486  -36.7305   23.2641 C   0  0  0  0  0  0
  -25.9563  -30.7940   21.3886 C   0  0  0  0  0  0
  -26.0271  -29.4265   20.7183 C   0  0  0  0  0  0
  -27.2052  -28.6166   20.7016 C   0  0  0  0  0  0
  -25.9787  -26.9225   19.4959 C   0  0  0  0  0  0
  -24.8271  -27.7187   19.4977 C   0  0  0  0  0  0
  -23.6247  -29.8524   20.1658 C   0  0  0  0  0  0
  -25.4124  -36.3111   24.0311 C   0  0  1  0  0  0
  -20.5901  -28.3644   23.1396 C   0  0  2  0  0  0
  -20.6765  -26.9280   22.5742 C   0  0  0  0  0  0
  -19.5792  -26.6320   21.5448 C   0  0  0  0  0  0
  -18.2008  -26.7754   22.1984 C   0  0  0  0  0  0
  -19.1549  -28.8842   23.2944 C   0  0  0  0  0  0
  -18.9502  -30.1481   23.8866 C   0  0  0  0  0  0
  -17.6508  -30.6637   24.0531 C   0  0  0  0  0  0
  -25.9050  -34.9480   23.5084 C   0  0  0  0  0  0
  -16.5388  -29.9106   23.6366 C   0  0  0  0  0  0
  -16.7284  -28.6479   23.0446 C   0  0  0  0  0  0
  -26.4471  -31.6624   25.0764 C   0  0  0  0  0  0
  -25.3701  -31.3782   26.1475 C   0  0  0  0  0  0
  -27.0327  -30.3033   24.6293 C   0  0  0  0  0  0
  -27.6002  -32.4387   25.7538 C   0  0  0  0  0  0
  -27.5582  -37.1813   24.8468 C   0  0  0  0  0  0
  -21.4191  -29.2895   22.3617 N   0  0  0  0  0  0
  -26.4302  -37.3804   23.9393 N   0  0  0  0  0  0
  -24.6797  -31.0692   22.1062 N   0  0  0  0  0  0
  -23.4179  -28.8278   23.3074 O   0  0  0  0  0  0
  -28.3011  -26.4244   20.1595 O   0  0  0  0  0  0
  -26.5656  -34.8933   22.4675 O   0  0  0  0  0  0
  -23.5375  -32.1509   23.7426 O   0  0  0  0  0  0
  -30.0591  -19.5154   21.7408 C   0  0  0  0  0  0
  -29.5582  -20.8184   21.4306 C   0  0  0  0  0  0
  -29.3433  -18.6976   19.6060 C   0  0  0  0  0  0
  -29.9570  -18.4163   20.8439 C   0  0  0  0  0  0
  -28.9136  -21.1084   20.1986 C   0  0  0  0  0  0
  -28.8608  -19.9982   19.2757 C   0  0  0  0  0  0
  -27.0934  -22.4683   19.2288 C   0  0  0  0  0  0
  -26.0332  -21.7073   19.5531 C   0  0  0  0  0  0
  -27.0014  -23.5310   18.1340 C   0  0  0  0  0  0
  -27.9391  -24.7269   18.3716 C   0  0  0  0  0  0
  -28.8442  -23.7151   20.4458 C   0  0  0  0  0  0
  -28.0298  -24.9822   19.8856 C   0  0  2  0  0  0
  -30.6821  -17.0559   21.1468 C   0  0  0  0  0  0
  -28.3065  -22.3978   19.9213 N   0  0  0  0  0  0
  -30.0410  -15.7146   20.9190 N   0  0  0  0  0  0
  -28.2856  -20.1651   17.6495 Cl  0  0  0  0  0  0
  -31.4650  -12.4500   19.1332 H   0  0  0  0  0  0
  -30.3255  -11.3761   19.8907 H   0  0  0  0  0  0
  -29.7471  -11.7510   17.4647 H   0  0  0  0  0  0
  -29.6436  -13.4714   17.7479 H   0  0  0  0  0  0
  -27.8695  -11.2843   18.8952 H   0  0  0  0  0  0
  -27.3607  -12.5558   17.8095 H   0  0  0  0  0  0
  -27.6743  -14.2514   19.5147 H   0  0  0  0  0  0
  -28.7011  -12.0859   21.4148 H   0  0  0  0  0  0
  -28.4634  -13.7619   21.8255 H   0  0  0  0  0  0
  -25.2828   -9.5599   22.4759 H   0  0  0  0  0  0
  -23.9997   -7.4596   22.7494 H   0  0  0  0  0  0
  -21.0870   -8.8857   19.8964 H   0  0  0  0  0  0
  -22.3825  -10.9690   19.6178 H   0  0  0  0  0  0
  -21.2013   -7.6168   23.9721 H   0  0  0  0  0  0
  -21.1445   -6.0526   25.9065 H   0  0  0  0  0  0
  -22.0625   -2.7630   23.2841 H   0  0  0  0  0  0
  -22.4188  -11.9850   22.4744 H   0  0  0  0  0  0
  -21.1180  -13.1220   22.2652 H   0  0  0  0  0  0
  -24.6748  -15.8558   20.5143 H   0  0  0  0  0  0
  -26.2899  -15.6206   20.0787 H   0  0  0  0  0  0
  -26.7170  -32.5498   23.1158 H   0  0  0  0  0  0
  -25.0017  -33.9801   25.0374 H   0  0  0  0  0  0
  -22.6961  -31.3164   21.4268 H   0  0  0  0  0  0
  -23.3751  -35.9635   23.3327 H   0  0  0  0  0  0
  -24.3557  -36.8921   22.2051 H   0  0  0  0  0  0
  -23.7229  -37.6496   23.6667 H   0  0  0  0  0  0
  -26.1056  -31.5651   20.6315 H   0  0  0  0  0  0
  -26.8292  -30.8266   22.0280 H   0  0  0  0  0  0
  -28.1025  -28.9701   21.1857 H   0  0  0  0  0  0
  -25.8429  -25.9721   19.0168 H   0  0  0  0  0  0
  -23.9197  -27.3583   19.0305 H   0  0  0  0  0  0
  -23.7566  -30.6370   19.4217 H   0  0  0  0  0  0
  -22.7398  -29.2943   19.8521 H   0  0  0  0  0  0
  -25.1303  -36.1975   25.0801 H   0  0  0  0  0  0
  -20.9992  -28.3348   24.1509 H   0  0  0  0  0  0
  -20.5375  -26.2257   23.3982 H   0  0  0  0  0  0
  -21.6729  -26.7105   22.1909 H   0  0  0  0  0  0
  -19.6611  -27.3347   20.7160 H   0  0  0  0  0  0
  -19.6968  -25.6309   21.1316 H   0  0  0  0  0  0
  -17.4218  -26.6208   21.4524 H   0  0  0  0  0  0
  -18.0638  -26.0047   22.9575 H   0  0  0  0  0  0
  -19.7992  -30.7317   24.2123 H   0  0  0  0  0  0
  -17.5137  -31.6385   24.5047 H   0  0  0  0  0  0
  -15.5405  -30.3050   23.7707 H   0  0  0  0  0  0
  -15.8632  -28.0796   22.7267 H   0  0  0  0  0  0
  -24.5830  -30.7205   25.7777 H   0  0  0  0  0  0
  -24.8956  -32.2960   26.4949 H   0  0  0  0  0  0
  -25.7992  -30.8889   27.0231 H   0  0  0  0  0  0
  -26.2934  -29.6781   24.1287 H   0  0  0  0  0  0
  -27.3937  -29.7304   25.4849 H   0  0  0  0  0  0
  -27.8839  -30.4268   23.9606 H   0  0  0  0  0  0
  -27.2565  -33.3663   26.2147 H   0  0  0  0  0  0
  -28.3787  -32.7029   25.0362 H   0  0  0  0  0  0
  -28.0722  -31.8534   26.5443 H   0  0  0  0  0  0
  -28.2615  -38.0099   24.7499 H   0  0  0  0  0  0
  -28.1063  -36.2626   24.6313 H   0  0  0  0  0  0
  -27.2304  -37.1484   25.8877 H   0  0  0  0  0  0
  -20.9403  -29.8429   21.6644 H   0  0  0  0  0  0
  -26.0188  -38.2881   24.1388 H   0  0  0  0  0  0
  -30.5634  -19.3720   22.6847 H   0  0  0  0  0  0
  -29.6662  -21.6023   22.1666 H   0  0  0  0  0  0
  -29.2874  -17.9175   18.8613 H   0  0  0  0  0  0
  -25.0916  -21.8038   19.0307 H   0  0  0  0  0  0
  -26.0770  -20.9756   20.3490 H   0  0  0  0  0  0
  -25.9728  -23.8949   18.1124 H   0  0  0  0  0  0
  -27.1829  -23.0883   17.1552 H   0  0  0  0  0  0
  -27.6036  -25.5950   17.8097 H   0  0  0  0  0  0
  -28.9315  -24.5089   17.9750 H   0  0  0  0  0  0
  -28.7846  -23.7153   21.5359 H   0  0  0  0  0  0
  -29.8985  -23.8053   20.1851 H   0  0  0  0  0  0
  -27.0575  -24.8212   20.3549 H   0  0  0  0  0  0
  -31.6047  -17.0994   20.5658 H   0  0  0  0  0  0
  -31.0138  -17.0746   22.1861 H   0  0  0  0  0  0
  -29.0788  -15.6048   21.1971 H   0  0  0  0  0  0
  1 25  1  0  0  0
  1 30  2  0  0  0
  1 85  1  0  0  0
  2  3  1  0  0  0
  2 25  1  0  0  0
  2 87  1  0  0  0
  2 88  1  0  0  0
  3  4  1  0  0  0
  3 89  1  0  0  0
  3 90  1  0  0  0
  4  5  1  0  0  0
  4 91  1  0  0  0
  4 92  1  0  0  0
  5  6  1  0  0  0
  5 26  1  0  0  0
  5 93  1  0  0  0
  6 25  1  0  0  0
  6 94  1  0  0  0
  6 95  1  0  0  0
  7  8  2  0  0  0
  7 26  1  0  0  0
  7 29  1  0  0  0
  8  9  1  0  0  0
  8 22  1  0  0  0
  9 10  1  0  0  0
  9 27  2  0  0  0
 10 11  2  0  0  0
 10 15  1  0  0  0
 11 12  1  0  0  0
 11 96  1  0  0  0
 12 13  2  0  0  0
 12 97  1  0  0  0
 13 14  1  0  0  0
 13 31  1  0  0  0
 14 15  2  0  0  0
 14 98  1  0  0  0
 15 99  1  0  0  0
 16 17  2  0  0  0
 16 21  1  0  0  0
 16 31  1  0  0  0
 17 18  1  0  0  0
 17100  1  0  0  0
 18 19  2  0  0  0
 18101  1  0  0  0
 19 20  1  0  0  0
 19 24  1  0  0  0
 20 21  2  0  0  0
 20102  1  0  0  0
 21 23  1  0  0  0
 22 28  1  0  0  0
 22 32  2  0  0  0
 26 27  1  0  0  0
 28103  1  0  0  0
 28104  1  0  0  0
 29105  1  0  0  0
 29106  1  0  0  0
 33 34  1  0  0  0
 33 66  1  0  0  0
 33 70  2  0  0  0
 34 36  1  0  0  0
 34 59  1  0  0  0
 34107  1  0  0  0
 35 44  2  0  0  0
 35 45  1  0  0  0
 35 68  1  0  0  0
 36 56  1  0  0  0
 36108  1  0  0  0
 37 39  1  0  0  0
 37 47  1  0  0  0
 37 66  1  0  0  0
 37109  1  0  0  0
 38 43  2  0  0  0
 38 46  1  0  0  0
 38 47  1  0  0  0
 39 64  1  0  0  0
 39 67  2  0  0  0
 40 52  1  0  0  0
 40 53  2  0  0  0
 40 58  1  0  0  0
 41110  1  0  0  0
 41111  1  0  0  0
 41112  1  0  0  0
 41 48  1  0  0  0
 42 43  1  0  0  0
 42 66  1  0  0  0
 42113  1  0  0  0
 42114  1  0  0  0
 43 44  1  0  0  0
 44115  1  0  0  0
 45 46  2  0  0  0
 45116  1  0  0  0
 46117  1  0  0  0
 47118  1  0  0  0
 47119  1  0  0  0
 48 56  1  0  0  0
 48 65  1  0  0  0
 48120  1  0  0  0
 49 50  1  0  0  0
 49 53  1  0  0  0
 49 64  1  0  0  0
 49121  1  0  0  0
 50 51  1  0  0  0
 50122  1  0  0  0
 50123  1  0  0  0
 51 52  1  0  0  0
 51124  1  0  0  0
 51125  1  0  0  0
 52126  1  0  0  0
 52127  1  0  0  0
 53 54  1  0  0  0
 54 55  2  0  0  0
 54128  1  0  0  0
 55 57  1  0  0  0
 55129  1  0  0  0
 56 69  2  0  0  0
 57 58  2  0  0  0
 57130  1  0  0  0
 58131  1  0  0  0
 59 60  1  0  0  0
 59 61  1  0  0  0
 59 62  1  0  0  0
 60132  1  0  0  0
 60133  1  0  0  0
 60134  1  0  0  0
 61135  1  0  0  0
 61136  1  0  0  0
 61137  1  0  0  0
 62138  1  0  0  0
 62139  1  0  0  0
 62140  1  0  0  0
 63 65  1  0  0  0
 63141  1  0  0  0
 63142  1  0  0  0
 63143  1  0  0  0
 64144  1  0  0  0
 65145  1  0  0  0
 68 82  1  0  0  0
 71 72  2  0  0  0
 71 74  1  0  0  0
 71146  1  0  0  0
 72 75  1  0  0  0
 72147  1  0  0  0
 73 74  2  0  0  0
 73 76  1  0  0  0
 73148  1  0  0  0
 74 83  1  0  0  0
 75 76  2  0  0  0
 75 84  1  0  0  0
 76 86  1  0  0  0
 77 78  2  0  0  0
 77 79  1  0  0  0
 77 84  1  0  0  0
 78149  1  0  0  0
 78150  1  0  0  0
 79 80  1  0  0  0
 79151  1  0  0  0
 79152  1  0  0  0
 80 82  1  0  0  0
 80153  1  0  0  0
 80154  1  0  0  0
 81 82  1  0  0  0
 81 84  1  0  0  0
 81155  1  0  0  0
 81156  1  0  0  0
 82157  1  0  0  0
 83 85  1  0  0  0
 83158  1  0  0  0
 83159  1  0  0  0
 85160  1  0  0  0
M  ISO  4   1 100  68 101  82 101  85 100
M  END
> <chiral flag>
0

> <version>
0

> <s_m_source_file>
/data/baiqing/PycharmProjects/Reinvent-master-3.2/result/LINK_invent/BTK/process_docking_weight1_custom_product_contain_oxygen_bond_distance_aromatic_linkinvent_7_9_3/rearranged_h_0054.sdf

> <i_m_source_file_index>
94

> <r_mmod_Potential_Energy-OPLS-2005>
119.106811523438

> <r_mmod_Stretch_Energy-OPLS-2005>
92.8567657470703

> <r_mmod_Bend_Energy-OPLS-2005>
171.553024291992

> <r_mmod_Torsional_Energy-OPLS-2005>
236.966339111328

> <r_mmod_Improper_Torsional_Energy-OPLS-2005>
4.64527702331543

> <r_mmod_Van_der_Waal_Energy-OPLS-2005>
181.151763916016

> <r_mmod_Electrostatic_Energy-OPLS-2005>
-409.5234375

> <r_mmod_Solvation_Energy-OPLS-2005>
-206.025466918945

> <b_mmod_Minimization_Converged-OPLS-2005>
0

> <r_mmod_RMS_Derivative-OPLS-2005>
4.84387731552124

$$$$
94
                    3D
 Structure written by MMmdl.
153161  0  0  1  0            999 V2000
  -30.7073  -14.6112   20.5243 C   0  0  0  0  0  0
  -30.4152  -12.3621   19.4818 C   0  0  0  0  0  0
  -29.5148  -12.5063   18.2399 C   0  0  0  0  0  0
  -28.0371  -12.3512   18.6448 C   0  0  0  0  0  0
  -27.6543  -13.2337   19.8627 C   0  0  2  0  0  0
  -28.6944  -13.1241   20.9998 C   0  0  0  0  0  0
  -25.2579  -13.8199   20.5711 C   0  0  0  0  0  0
  -24.1838  -13.0438   20.9174 C   0  0  0  0  0  0
  -24.6407  -11.6921   20.8710 C   0  0  0  0  0  0
  -23.9062  -10.4310   21.0388 C   0  0  0  0  0  0
  -24.3609   -9.4229   21.9160 C   0  0  0  0  0  0
  -23.6299   -8.2254   22.0721 C   0  0  0  0  0  0
  -22.4276   -8.0273   21.3543 C   0  0  0  0  0  0
  -21.9922   -9.0240   20.4638 C   0  0  0  0  0  0
  -22.7228  -10.2132   20.3048 C   0  0  0  0  0  0
  -21.6869   -6.0736   22.5285 C   0  0  0  0  0  0
  -21.4002   -6.5651   23.8209 C   0  0  0  0  0  0
  -21.3663   -5.6792   24.9172 C   0  0  0  0  0  0
  -21.6064   -4.3053   24.7221 C   0  0  0  0  0  0
  -21.8803   -3.8144   23.4331 C   0  0  0  0  0  0
  -21.9199   -4.6968   22.3393 C   0  0  0  0  0  0
  -22.7868  -13.5220   21.1894 C   0  0  0  0  0  0
  -22.1673   -4.2156   21.0978 F   0  0  0  0  0  0
  -21.5656   -3.4538   25.7728 F   0  0  0  0  0  0
  -30.0200  -13.4242   20.4395 N   0  0  0  0  0  0
  -26.3017  -12.9421   20.3324 N   0  0  0  0  0  0
  -25.9350  -11.6550   20.5732 N   0  0  0  0  0  0
  -22.0534  -12.8145   22.0427 N   0  0  0  0  0  0
  -25.4302  -15.1921   20.4232 N   0  0  0  0  0  0
  -31.8642  -14.5702   20.1153 O   0  0  0  0  0  0
  -21.6651   -6.8864   21.4242 O   0  0  0  0  0  0
  -22.3552  -14.5552   20.6804 O   0  0  0  0  0  0
  -24.6245  -31.8632   23.2052 C   0  0  0  0  0  0
  -25.9102  -32.4796   23.8368 C   0  0  1  0  0  0
  -27.2189  -27.3374   20.1034 C   0  0  0  0  0  0
  -25.5925  -33.8590   24.2298 N   0  0  0  0  0  0
  -23.4143  -30.4884   21.5494 C   0  0  2  0  0  0
  -24.8562  -28.9483   20.1105 C   0  0  0  0  0  0
  -22.7451  -29.4642   22.4978 C   0  0  0  0  0  0
  -18.0277  -28.1398   22.8489 C   0  0  0  0  0  0
  -24.1477  -36.7299   23.2624 C   0  0  0  0  0  0
  -25.9529  -30.8022   21.3700 C   0  0  0  0  0  0
  -26.0247  -29.4312   20.7097 C   0  0  0  0  0  0
  -27.2051  -28.6361   20.6964 C   0  0  0  0  0  0
  -26.0160  -26.8934   19.5031 C   0  0  0  0  0  0
  -24.8539  -27.6846   19.5003 C   0  0  0  0  0  0
  -23.6251  -29.8249   20.1647 C   0  0  0  0  0  0
  -25.4108  -36.3102   24.0328 C   0  0  1  0  0  0
  -20.5872  -28.3680   23.1307 C   0  0  2  0  0  0
  -20.6755  -26.9405   22.5424 C   0  0  0  0  0  0
  -19.5736  -26.6396   21.5219 C   0  0  0  0  0  0
  -18.1915  -26.7933   22.1624 C   0  0  0  0  0  0
  -19.1531  -28.8860   23.2891 C   0  0  0  0  0  0
  -18.9440  -30.1460   23.8903 C   0  0  0  0  0  0
  -17.6443  -30.6585   24.0573 C   0  0  0  0  0  0
  -25.9039  -34.9469   23.5116 C   0  0  0  0  0  0
  -16.5342  -29.9085   23.6340 C   0  0  0  0  0  0
  -16.7263  -28.6516   23.0343 C   0  0  0  0  0  0
  -26.4490  -31.6577   25.0711 C   0  0  0  0  0  0
  -25.3720  -31.3751   26.1444 C   0  0  0  0  0  0
  -27.0288  -30.2978   24.6141 C   0  0  0  0  0  0
  -27.6064  -32.4283   25.7490 C   0  0  0  0  0  0
  -27.5592  -37.1807   24.8460 C   0  0  0  0  0  0
  -21.4168  -29.3048   22.3713 N   0  0  0  0  0  0
  -26.4301  -37.3791   23.9409 N   0  0  0  0  0  0
  -24.6831  -31.0657   22.0998 N   0  0  0  0  0  0
  -23.4196  -28.8193   23.3054 O   0  0  0  0  0  0
  -28.3715  -26.5433   20.1635 O   0  0  0  0  0  0
  -26.5605  -34.8940   22.4672 O   0  0  0  0  0  0
  -23.5416  -32.1430   23.7391 O   0  0  0  0  0  0
  -29.8918  -21.1440   21.4072 C   0  0  0  0  0  0
  -30.3681  -19.8244   21.6457 C   0  0  0  0  0  0
  -28.4663  -20.2650   19.6833 C   0  0  0  0  0  0
  -28.9310  -18.9310   19.9169 C   0  0  0  0  0  0
  -28.9537  -21.4050   20.3820 C   0  0  0  0  0  0
  -29.9433  -18.6881   20.8989 C   0  0  0  0  0  0
  -28.7587  -23.9948   20.4554 C   0  0  0  0  0  0
  -28.3346  -17.8420   19.0370 C   0  0  0  0  0  0
  -28.4677  -25.2248   19.5131 C   0  0  0  0  0  0
  -30.1224  -15.7759   20.9743 N   0  5  0  0  0  0
  -28.5497  -22.7412   19.9462 N   0  0  0  0  0  0
  -29.1582  -24.1898   21.6069 O   0  0  0  0  0  0
  -32.0102  -17.3464   20.0523 O   0  0  0  0  0  0
  -31.5463  -17.2654   22.4985 O   0  0  0  0  0  0
  -31.0155  -17.1568   21.1274 S   0  0  0  0  0  0
  -31.4661  -12.3982   19.1890 H   0  0  0  0  0  0
  -30.2820  -11.3776   19.9370 H   0  0  0  0  0  0
  -29.7841  -11.7617   17.4895 H   0  0  0  0  0  0
  -29.6807  -13.4807   17.7772 H   0  0  0  0  0  0
  -27.8872  -11.3009   18.8941 H   0  0  0  0  0  0
  -27.3817  -12.5633   17.8000 H   0  0  0  0  0  0
  -27.6690  -14.2682   19.5162 H   0  0  0  0  0  0
  -28.6925  -12.1248   21.4388 H   0  0  0  0  0  0
  -28.4529  -13.8136   21.8094 H   0  0  0  0  0  0
  -25.2770   -9.5728   22.4708 H   0  0  0  0  0  0
  -24.0058   -7.4641   22.7408 H   0  0  0  0  0  0
  -21.0870   -8.8720   19.8924 H   0  0  0  0  0  0
  -22.3673  -10.9643   19.6148 H   0  0  0  0  0  0
  -21.1950   -7.6151   23.9713 H   0  0  0  0  0  0
  -21.1534   -6.0530   25.9083 H   0  0  0  0  0  0
  -22.0574   -2.7603   23.2828 H   0  0  0  0  0  0
  -22.4195  -11.9835   22.4840 H   0  0  0  0  0  0
  -21.1126  -13.1109   22.2640 H   0  0  0  0  0  0
  -24.6760  -15.8513   20.5718 H   0  0  0  0  0  0
  -26.3141  -15.6327   20.2023 H   0  0  0  0  0  0
  -26.7169  -32.5474   23.1126 H   0  0  0  0  0  0
  -25.0075  -33.9707   25.0447 H   0  0  0  0  0  0
  -22.7069  -31.3072   21.4120 H   0  0  0  0  0  0
  -23.3752  -35.9613   23.3292 H   0  0  0  0  0  0
  -24.3573  -36.8896   22.2034 H   0  0  0  0  0  0
  -23.7217  -37.6499   23.6633 H   0  0  0  0  0  0
  -26.0703  -31.5681   20.6016 H   0  0  0  0  0  0
  -26.8406  -30.8555   21.9907 H   0  0  0  0  0  0
  -28.1062  -29.0048   21.1684 H   0  0  0  0  0  0
  -25.9140  -25.9211   19.0504 H   0  0  0  0  0  0
  -23.9499  -27.3065   19.0425 H   0  0  0  0  0  0
  -23.7321  -30.6018   19.4092 H   0  0  0  0  0  0
  -22.7460  -29.2494   19.8685 H   0  0  0  0  0  0
  -25.1276  -36.1978   25.0821 H   0  0  0  0  0  0
  -20.9934  -28.3253   24.1438 H   0  0  0  0  0  0
  -20.5651  -26.2274   23.3613 H   0  0  0  0  0  0
  -21.6618  -26.7431   22.1220 H   0  0  0  0  0  0
  -19.6883  -25.6312   21.1222 H   0  0  0  0  0  0
  -19.6686  -27.3224   20.6769 H   0  0  0  0  0  0
  -17.4179  -26.6692   21.4034 H   0  0  0  0  0  0
  -18.0321  -26.0081   22.9024 H   0  0  0  0  0  0
  -19.7915  -30.7293   24.2252 H   0  0  0  0  0  0
  -17.4992  -31.6249   24.5188 H   0  0  0  0  0  0
  -15.5337  -30.2988   23.7655 H   0  0  0  0  0  0
  -15.8660  -28.0843   22.7033 H   0  0  0  0  0  0
  -24.5954  -30.6996   25.7846 H   0  0  0  0  0  0
  -24.8834  -32.2913   26.4764 H   0  0  0  0  0  0
  -25.8061  -30.9074   27.0283 H   0  0  0  0  0  0
  -26.2846  -29.6799   24.1097 H   0  0  0  0  0  0
  -27.3890  -29.7185   25.4659 H   0  0  0  0  0  0
  -27.8767  -30.4245   23.9403 H   0  0  0  0  0  0
  -27.2693  -33.3611   26.2039 H   0  0  0  0  0  0
  -28.3907  -32.6782   25.0327 H   0  0  0  0  0  0
  -28.0678  -31.8392   26.5433 H   0  0  0  0  0  0
  -28.2616  -38.0100   24.7507 H   0  0  0  0  0  0
  -28.1083  -36.2636   24.6285 H   0  0  0  0  0  0
  -27.2294  -37.1430   25.8855 H   0  0  0  0  0  0
  -20.9343  -29.8783   21.6933 H   0  0  0  0  0  0
  -26.0198  -38.2863   24.1426 H   0  0  0  0  0  0
  -30.3118  -21.9546   21.9850 H   0  0  0  0  0  0
  -31.1512  -19.6912   22.3788 H   0  0  0  0  0  0
  -27.7419  -20.4166   18.8953 H   0  0  0  0  0  0
  -27.2682  -17.7450   19.2479 H   0  0  0  0  0  0
  -28.7820  -16.8628   19.1636 H   0  0  0  0  0  0
  -28.4408  -18.1074   17.9864 H   0  0  0  0  0  0
  -27.6651  -24.9775   18.8274 H   0  0  0  0  0  0
  -29.3383  -25.3008   18.8620 H   0  0  0  0  0  0
  -28.0976  -22.7609   19.0411 H   0  0  0  0  0  0
  1 25  1  0  0  0
  1 30  2  0  0  0
  1 80  1  0  0  0
  2  3  1  0  0  0
  2 25  1  0  0  0
  2 86  1  0  0  0
  2 87  1  0  0  0
  3  4  1  0  0  0
  3 88  1  0  0  0
  3 89  1  0  0  0
  4  5  1  0  0  0
  4 90  1  0  0  0
  4 91  1  0  0  0
  5  6  1  0  0  0
  5 26  1  0  0  0
  5 92  1  0  0  0
  6 25  1  0  0  0
  6 93  1  0  0  0
  6 94  1  0  0  0
  7  8  2  0  0  0
  7 26  1  0  0  0
  7 29  1  0  0  0
  8  9  1  0  0  0
  8 22  1  0  0  0
  9 10  1  0  0  0
  9 27  2  0  0  0
 10 11  2  0  0  0
 10 15  1  0  0  0
 11 12  1  0  0  0
 11 95  1  0  0  0
 12 13  2  0  0  0
 12 96  1  0  0  0
 13 14  1  0  0  0
 13 31  1  0  0  0
 14 15  2  0  0  0
 14 97  1  0  0  0
 15 98  1  0  0  0
 16 17  2  0  0  0
 16 21  1  0  0  0
 16 31  1  0  0  0
 17 18  1  0  0  0
 17 99  1  0  0  0
 18 19  2  0  0  0
 18100  1  0  0  0
 19 20  1  0  0  0
 19 24  1  0  0  0
 20 21  2  0  0  0
 20101  1  0  0  0
 21 23  1  0  0  0
 22 28  1  0  0  0
 22 32  2  0  0  0
 26 27  1  0  0  0
 28102  1  0  0  0
 28103  1  0  0  0
 29104  1  0  0  0
 29105  1  0  0  0
 33 34  1  0  0  0
 33 66  1  0  0  0
 33 70  2  0  0  0
 34 36  1  0  0  0
 34 59  1  0  0  0
 34106  1  0  0  0
 35 44  2  0  0  0
 35 45  1  0  0  0
 35 68  1  0  0  0
 36 56  1  0  0  0
 36107  1  0  0  0
 37 39  1  0  0  0
 37 47  1  0  0  0
 37 66  1  0  0  0
 37108  1  0  0  0
 38 43  2  0  0  0
 38 46  1  0  0  0
 38 47  1  0  0  0
 39 64  1  0  0  0
 39 67  2  0  0  0
 40 52  1  0  0  0
 40 53  2  0  0  0
 40 58  1  0  0  0
 41109  1  0  0  0
 41110  1  0  0  0
 41111  1  0  0  0
 41 48  1  0  0  0
 42 43  1  0  0  0
 42 66  1  0  0  0
 42112  1  0  0  0
 42113  1  0  0  0
 43 44  1  0  0  0
 44114  1  0  0  0
 45 46  2  0  0  0
 45115  1  0  0  0
 46116  1  0  0  0
 47117  1  0  0  0
 47118  1  0  0  0
 48 56  1  0  0  0
 48 65  1  0  0  0
 48119  1  0  0  0
 49 50  1  0  0  0
 49 53  1  0  0  0
 49 64  1  0  0  0
 49120  1  0  0  0
 50 51  1  0  0  0
 50121  1  0  0  0
 50122  1  0  0  0
 51 52  1  0  0  0
 51123  1  0  0  0
 51124  1  0  0  0
 52125  1  0  0  0
 52126  1  0  0  0
 53 54  1  0  0  0
 54 55  2  0  0  0
 54127  1  0  0  0
 55 57  1  0  0  0
 55128  1  0  0  0
 56 69  2  0  0  0
 57 58  2  0  0  0
 57129  1  0  0  0
 58130  1  0  0  0
 59 60  1  0  0  0
 59 61  1  0  0  0
 59 62  1  0  0  0
 60131  1  0  0  0
 60132  1  0  0  0
 60133  1  0  0  0
 61134  1  0  0  0
 61135  1  0  0  0
 61136  1  0  0  0
 62137  1  0  0  0
 62138  1  0  0  0
 62139  1  0  0  0
 63 65  1  0  0  0
 63140  1  0  0  0
 63141  1  0  0  0
 63142  1  0  0  0
 64143  1  0  0  0
 65144  1  0  0  0
 68 79  1  0  0  0
 71 72  2  0  0  0
 71 75  1  0  0  0
 71145  1  0  0  0
 72 76  1  0  0  0
 72146  1  0  0  0
 73 74  1  0  0  0
 73 75  2  0  0  0
 73147  1  0  0  0
 74 76  2  0  0  0
 74 78  1  0  0  0
 75 81  1  0  0  0
 76 85  1  0  0  0
 77 79  1  0  0  0
 77 81  1  0  0  0
 77 82  2  0  0  0
 78148  1  0  0  0
 78149  1  0  0  0
 78150  1  0  0  0
 79151  1  0  0  0
 79152  1  0  0  0
 80 85  1  0  0  0
 81153  1  0  0  0
 83 85  2  0  0  0
 84 85  2  0  0  0
M  CHG  1  80  -1
M  ISO  4   1 100  68 101  79 101  80 100
M  END
> <chiral flag>
0

> <version>
0

> <s_m_source_file>
/data/baiqing/PycharmProjects/Reinvent-master-3.2/result/LINK_invent/BTK/process_docking_weight1_custom_product_contain_oxygen_bond_distance_aromatic_linkinvent_7_9_3/rearranged_h_0054.sdf

> <i_m_source_file_index>
95

> <r_mmod_Potential_Energy-OPLS-2005>
-161.25505065918

> <r_mmod_Stretch_Energy-OPLS-2005>
76.4419250488281

> <r_mmod_Bend_Energy-OPLS-2005>
189.62158203125

> <r_mmod_Torsional_Energy-OPLS-2005>
183.555023193359

> <r_mmod_Improper_Torsional_Energy-OPLS-2005>
4.02200031280518

> <r_mmod_Van_der_Waal_Energy-OPLS-2005>
150.732833862305

> <r_mmod_Electrostatic_Energy-OPLS-2005>
-323.566680908203

> <r_mmod_Solvation_Energy-OPLS-2005>
-483.32373046875

> <b_mmod_Minimization_Converged-OPLS-2005>
0

> <r_mmod_RMS_Derivative-OPLS-2005>
4.12855291366577

$$$$
95
                    3D
 Structure written by MMmdl.
167176  0  0  1  0            999 V2000
  -30.7567  -14.4430   20.6420 C   0  0  0  0  0  0
  -30.4067  -12.3214   19.4208 C   0  0  0  0  0  0
  -29.4845  -12.5227   18.2051 C   0  0  0  0  0  0
  -28.0099  -12.3760   18.6208 C   0  0  0  0  0  0
  -27.6586  -13.2150   19.8795 C   0  0  2  0  0  0
  -28.6997  -13.0059   21.0013 C   0  0  0  0  0  0
  -25.2522  -13.8119   20.5577 C   0  0  0  0  0  0
  -24.1805  -13.0407   20.9146 C   0  0  0  0  0  0
  -24.6396  -11.6888   20.8750 C   0  0  0  0  0  0
  -23.9064  -10.4279   21.0417 C   0  0  0  0  0  0
  -24.3615   -9.4195   21.9190 C   0  0  0  0  0  0
  -23.6289   -8.2235   22.0757 C   0  0  0  0  0  0
  -22.4269   -8.0280   21.3548 C   0  0  0  0  0  0
  -21.9906   -9.0255   20.4650 C   0  0  0  0  0  0
  -22.7241  -10.2131   20.3062 C   0  0  0  0  0  0
  -21.6849   -6.0737   22.5284 C   0  0  0  0  0  0
  -21.4014   -6.5639   23.8218 C   0  0  0  0  0  0
  -21.3653   -5.6788   24.9178 C   0  0  0  0  0  0
  -21.6043   -4.3052   24.7226 C   0  0  0  0  0  0
  -21.8819   -3.8147   23.4344 C   0  0  0  0  0  0
  -21.9190   -4.6966   22.3403 C   0  0  0  0  0  0
  -22.7836  -13.5217   21.1825 C   0  0  0  0  0  0
  -22.1660   -4.2156   21.0981 F   0  0  0  0  0  0
  -21.5623   -3.4531   25.7734 F   0  0  0  0  0  0
  -30.0278  -13.3074   20.4493 N   0  0  0  0  0  0
  -26.3015  -12.9342   20.3412 N   0  0  0  0  0  0
  -25.9340  -11.6491   20.5828 N   0  0  0  0  0  0
  -22.0489  -12.8226   22.0406 N   0  0  0  0  0  0
  -25.4139  -15.1787   20.3773 N   0  0  0  0  0  0
  -31.8274  -14.6371   20.0640 O   0  0  0  0  0  0
  -21.6632   -6.8880   21.4246 O   0  0  0  0  0  0
  -22.3518  -14.5528   20.6689 O   0  0  0  0  0  0
  -24.6164  -31.8676   23.2084 C   0  0  0  0  0  0
  -25.9055  -32.4818   23.8385 C   0  0  1  0  0  0
  -27.2339  -27.4162   20.0849 C   0  0  0  0  0  0
  -25.5912  -33.8617   24.2329 N   0  0  0  0  0  0
  -23.4043  -30.4909   21.5509 C   0  0  2  0  0  0
  -24.8468  -28.9538   20.1151 C   0  0  0  0  0  0
  -22.7416  -29.4660   22.4993 C   0  0  0  0  0  0
  -18.0277  -28.1376   22.8496 C   0  0  0  0  0  0
  -24.1491  -36.7308   23.2635 C   0  0  0  0  0  0
  -25.9347  -30.8260   21.3622 C   0  0  0  0  0  0
  -26.0084  -29.4583   20.7101 C   0  0  0  0  0  0
  -27.1995  -28.6954   20.6948 C   0  0  0  0  0  0
  -26.0398  -26.9215   19.5077 C   0  0  0  0  0  0
  -24.8576  -27.6843   19.5153 C   0  0  0  0  0  0
  -23.6109  -29.8233   20.1652 C   0  0  0  0  0  0
  -25.4109  -36.3109   24.0339 C   0  0  1  0  0  0
  -20.5866  -28.3670   23.1321 C   0  0  2  0  0  0
  -20.6775  -26.9405   22.5423 C   0  0  0  0  0  0
  -19.5752  -26.6384   21.5221 C   0  0  0  0  0  0
  -18.1931  -26.7921   22.1633 C   0  0  0  0  0  0
  -19.1523  -28.8840   23.2907 C   0  0  0  0  0  0
  -18.9447  -30.1449   23.8913 C   0  0  0  0  0  0
  -17.6447  -30.6587   24.0563 C   0  0  0  0  0  0
  -25.9041  -34.9475   23.5129 C   0  0  0  0  0  0
  -16.5342  -29.9083   23.6322 C   0  0  0  0  0  0
  -16.7265  -28.6497   23.0351 C   0  0  0  0  0  0
  -26.4476  -31.6589   25.0712 C   0  0  0  0  0  0
  -25.3740  -31.3681   26.1455 C   0  0  0  0  0  0
  -27.0291  -30.3030   24.6072 C   0  0  0  0  0  0
  -27.6068  -32.4285   25.7470 C   0  0  0  0  0  0
  -27.5582  -37.1807   24.8468 C   0  0  0  0  0  0
  -21.4144  -29.3037   22.3728 N   0  0  0  0  0  0
  -26.4300  -37.3789   23.9407 N   0  0  0  0  0  0
  -24.6707  -31.0765   22.0985 N   0  0  0  0  0  0
  -23.4188  -28.8199   23.3037 O   0  0  0  0  0  0
  -28.4268  -26.7105   20.1007 O   0  0  0  0  0  0
  -26.5605  -34.8927   22.4693 O   0  0  0  0  0  0
  -23.5355  -32.1436   23.7468 O   0  0  0  0  0  0
  -29.3675  -18.8505   20.5974 C   0  0  0  0  0  0
  -28.2425  -16.5690   21.7758 C   0  0  0  0  0  0
  -28.0195  -18.9017   21.0156 C   0  0  0  0  0  0
  -30.1487  -17.6796   20.7598 C   0  0  0  0  0  0
  -27.4734  -17.7494   21.6434 C   0  0  0  0  0  0
  -29.5737  -16.5016   21.3143 C   0  0  0  0  0  0
  -27.5929  -22.4257   21.5318 C   0  0  0  0  0  0
  -27.6288  -23.8928   21.0644 C   0  0  0  0  0  0
  -29.1927  -23.0110   19.2288 C   0  0  0  0  0  0
  -28.1414  -21.8729   19.2224 C   0  0  0  0  0  0
  -28.8174  -24.2217   20.1320 C   0  0  1  0  0  0
  -31.6047  -17.7339   20.3310 C   0  0  0  0  0  0
  -26.0600  -17.7551   22.2072 C   0  0  0  0  0  0
  -27.1299  -20.1314   20.7325 C   0  0  0  0  0  0
  -28.6116  -25.5237   19.3046 C   0  0  0  0  0  0
  -27.7406  -21.4721   20.5802 N   0  0  0  0  0  0
  -30.3441  -15.3230   21.5758 N   0  0  0  0  0  0
  -27.3348  -22.1742   22.7122 O   0  0  0  0  0  0
  -31.4523  -12.4026   19.1201 H   0  0  0  0  0  0
  -30.2989  -11.3112   19.8183 H   0  0  0  0  0  0
  -29.7268  -11.8019   17.4232 H   0  0  0  0  0  0
  -29.6497  -13.5124   17.7758 H   0  0  0  0  0  0
  -27.8247  -11.3192   18.8168 H   0  0  0  0  0  0
  -27.3553  -12.6495   17.7928 H   0  0  0  0  0  0
  -27.7005  -14.2640   19.5852 H   0  0  0  0  0  0
  -28.6778  -11.9740   21.3540 H   0  0  0  0  0  0
  -28.4613  -13.6140   21.8723 H   0  0  0  0  0  0
  -25.2764   -9.5666   22.4759 H   0  0  0  0  0  0
  -24.0001   -7.4620   22.7465 H   0  0  0  0  0  0
  -21.0839   -8.8773   19.8950 H   0  0  0  0  0  0
  -22.3705  -10.9669   19.6164 H   0  0  0  0  0  0
  -21.2012   -7.6147   23.9725 H   0  0  0  0  0  0
  -21.1473   -6.0517   25.9081 H   0  0  0  0  0  0
  -22.0605   -2.7610   23.2842 H   0  0  0  0  0  0
  -22.4097  -11.9889   22.4805 H   0  0  0  0  0  0
  -21.1121  -13.1273   22.2639 H   0  0  0  0  0  0
  -24.6441  -15.8284   20.4823 H   0  0  0  0  0  0
  -26.2850  -15.6291   20.1268 H   0  0  0  0  0  0
  -26.7127  -32.5515   23.1149 H   0  0  0  0  0  0
  -25.0074  -33.9781   25.0482 H   0  0  0  0  0  0
  -22.6941  -31.3086   21.4126 H   0  0  0  0  0  0
  -23.3751  -35.9644   23.3306 H   0  0  0  0  0  0
  -24.3595  -36.8909   22.2049 H   0  0  0  0  0  0
  -23.7248  -37.6518   23.6640 H   0  0  0  0  0  0
  -26.0493  -31.5891   20.5909 H   0  0  0  0  0  0
  -26.8234  -30.8808   21.9792 H   0  0  0  0  0  0
  -28.0982  -29.0864   21.1518 H   0  0  0  0  0  0
  -25.9772  -25.9420   19.0614 H   0  0  0  0  0  0
  -23.9594  -27.2833   19.0659 H   0  0  0  0  0  0
  -23.7193  -30.5986   19.4059 H   0  0  0  0  0  0
  -22.7333  -29.2446   19.8703 H   0  0  0  0  0  0
  -25.1283  -36.1978   25.0833 H   0  0  0  0  0  0
  -20.9963  -28.3239   24.1441 H   0  0  0  0  0  0
  -20.5687  -26.2275   23.3611 H   0  0  0  0  0  0
  -21.6645  -26.7459   22.1209 H   0  0  0  0  0  0
  -19.6915  -25.6296   21.1248 H   0  0  0  0  0  0
  -19.6682  -27.3201   20.6756 H   0  0  0  0  0  0
  -17.4199  -26.6665   21.4038 H   0  0  0  0  0  0
  -18.0331  -26.0066   22.9034 H   0  0  0  0  0  0
  -19.7922  -30.7264   24.2285 H   0  0  0  0  0  0
  -17.5001  -31.6268   24.5161 H   0  0  0  0  0  0
  -15.5344  -30.2989   23.7631 H   0  0  0  0  0  0
  -15.8669  -28.0822   22.7056 H   0  0  0  0  0  0
  -24.5938  -30.7005   25.7782 H   0  0  0  0  0  0
  -24.8904  -32.2825   26.4897 H   0  0  0  0  0  0
  -25.8098  -30.8856   27.0215 H   0  0  0  0  0  0
  -26.2825  -29.6812   24.1116 H   0  0  0  0  0  0
  -27.4060  -29.7240   25.4513 H   0  0  0  0  0  0
  -27.8667  -30.4349   23.9214 H   0  0  0  0  0  0
  -27.2714  -33.3577   26.2079 H   0  0  0  0  0  0
  -28.3859  -32.6846   25.0280 H   0  0  0  0  0  0
  -28.0756  -31.8382   26.5350 H   0  0  0  0  0  0
  -28.2606  -38.0097   24.7507 H   0  0  0  0  0  0
  -28.1073  -36.2631   24.6303 H   0  0  0  0  0  0
  -27.2308  -37.1470   25.8874 H   0  0  0  0  0  0
  -20.9306  -29.8753   21.6943 H   0  0  0  0  0  0
  -26.0189  -38.2872   24.1391 H   0  0  0  0  0  0
  -29.8158  -19.7218   20.1417 H   0  0  0  0  0  0
  -27.8062  -15.7113   22.2676 H   0  0  0  0  0  0
  -27.6315  -24.5598   21.9269 H   0  0  0  0  0  0
  -26.6894  -24.0774   20.5432 H   0  0  0  0  0  0
  -29.3908  -23.3325   18.2049 H   0  0  0  0  0  0
  -30.1380  -22.5950   19.5827 H   0  0  0  0  0  0
  -28.5338  -21.0146   18.6760 H   0  0  0  0  0  0
  -27.2516  -22.1977   18.6805 H   0  0  0  0  0  0
  -29.6776  -24.4070   20.7778 H   0  0  0  0  0  0
  -31.9554  -18.7635   20.2516 H   0  0  0  0  0  0
  -31.7319  -17.2625   19.3566 H   0  0  0  0  0  0
  -32.2497  -17.2287   21.0496 H   0  0  0  0  0  0
  -25.8001  -16.7954   22.6547 H   0  0  0  0  0  0
  -25.3282  -17.9673   21.4278 H   0  0  0  0  0  0
  -25.9627  -18.5081   22.9896 H   0  0  0  0  0  0
  -26.3473  -20.1977   21.4874 H   0  0  0  0  0  0
  -26.5876  -19.9113   19.8115 H   0  0  0  0  0  0
  -27.8700  -25.3771   18.5232 H   0  0  0  0  0  0
  -29.5325  -25.7025   18.7484 H   0  0  0  0  0  0
  -31.1786  -15.5943   22.0738 H   0  0  0  0  0  0
  1 25  1  0  0  0
  1 30  2  0  0  0
  1 87  1  0  0  0
  2  3  1  0  0  0
  2 25  1  0  0  0
  2 89  1  0  0  0
  2 90  1  0  0  0
  3  4  1  0  0  0
  3 91  1  0  0  0
  3 92  1  0  0  0
  4  5  1  0  0  0
  4 93  1  0  0  0
  4 94  1  0  0  0
  5  6  1  0  0  0
  5 26  1  0  0  0
  5 95  1  0  0  0
  6 25  1  0  0  0
  6 96  1  0  0  0
  6 97  1  0  0  0
  7  8  2  0  0  0
  7 26  1  0  0  0
  7 29  1  0  0  0
  8  9  1  0  0  0
  8 22  1  0  0  0
  9 10  1  0  0  0
  9 27  2  0  0  0
 10 11  2  0  0  0
 10 15  1  0  0  0
 11 12  1  0  0  0
 11 98  1  0  0  0
 12 13  2  0  0  0
 12 99  1  0  0  0
 13 14  1  0  0  0
 13 31  1  0  0  0
 14 15  2  0  0  0
 14100  1  0  0  0
 15101  1  0  0  0
 16 17  2  0  0  0
 16 21  1  0  0  0
 16 31  1  0  0  0
 17 18  1  0  0  0
 17102  1  0  0  0
 18 19  2  0  0  0
 18103  1  0  0  0
 19 20  1  0  0  0
 19 24  1  0  0  0
 20 21  2  0  0  0
 20104  1  0  0  0
 21 23  1  0  0  0
 22 28  1  0  0  0
 22 32  2  0  0  0
 26 27  1  0  0  0
 28105  1  0  0  0
 28106  1  0  0  0
 29107  1  0  0  0
 29108  1  0  0  0
 33 34  1  0  0  0
 33 66  1  0  0  0
 33 70  2  0  0  0
 34 36  1  0  0  0
 34 59  1  0  0  0
 34109  1  0  0  0
 35 44  2  0  0  0
 35 45  1  0  0  0
 35 68  1  0  0  0
 36 56  1  0  0  0
 36110  1  0  0  0
 37 39  1  0  0  0
 37 47  1  0  0  0
 37 66  1  0  0  0
 37111  1  0  0  0
 38 43  2  0  0  0
 38 46  1  0  0  0
 38 47  1  0  0  0
 39 64  1  0  0  0
 39 67  2  0  0  0
 40 52  1  0  0  0
 40 53  2  0  0  0
 40 58  1  0  0  0
 41112  1  0  0  0
 41113  1  0  0  0
 41114  1  0  0  0
 41 48  1  0  0  0
 42 43  1  0  0  0
 42 66  1  0  0  0
 42115  1  0  0  0
 42116  1  0  0  0
 43 44  1  0  0  0
 44117  1  0  0  0
 45 46  2  0  0  0
 45118  1  0  0  0
 46119  1  0  0  0
 47120  1  0  0  0
 47121  1  0  0  0
 48 56  1  0  0  0
 48 65  1  0  0  0
 48122  1  0  0  0
 49 50  1  0  0  0
 49 53  1  0  0  0
 49 64  1  0  0  0
 49123  1  0  0  0
 50 51  1  0  0  0
 50124  1  0  0  0
 50125  1  0  0  0
 51 52  1  0  0  0
 51126  1  0  0  0
 51127  1  0  0  0
 52128  1  0  0  0
 52129  1  0  0  0
 53 54  1  0  0  0
 54 55  2  0  0  0
 54130  1  0  0  0
 55 57  1  0  0  0
 55131  1  0  0  0
 56 69  2  0  0  0
 57 58  2  0  0  0
 57132  1  0  0  0
 58133  1  0  0  0
 59 60  1  0  0  0
 59 61  1  0  0  0
 59 62  1  0  0  0
 60134  1  0  0  0
 60135  1  0  0  0
 60136  1  0  0  0
 61137  1  0  0  0
 61138  1  0  0  0
 61139  1  0  0  0
 62140  1  0  0  0
 62141  1  0  0  0
 62142  1  0  0  0
 63 65  1  0  0  0
 63143  1  0  0  0
 63144  1  0  0  0
 63145  1  0  0  0
 64146  1  0  0  0
 65147  1  0  0  0
 68 85  1  0  0  0
 71 73  2  0  0  0
 71 74  1  0  0  0
 71148  1  0  0  0
 72 75  2  0  0  0
 72 76  1  0  0  0
 72149  1  0  0  0
 73 75  1  0  0  0
 73 84  1  0  0  0
 74 76  2  0  0  0
 74 82  1  0  0  0
 75 83  1  0  0  0
 76 87  1  0  0  0
 77 78  1  0  0  0
 77 86  1  0  0  0
 77 88  2  0  0  0
 78 81  1  0  0  0
 78150  1  0  0  0
 78151  1  0  0  0
 79 80  1  0  0  0
 79 81  1  0  0  0
 79152  1  0  0  0
 79153  1  0  0  0
 80 86  1  0  0  0
 80154  1  0  0  0
 80155  1  0  0  0
 81 85  1  0  0  0
 81156  1  0  0  0
 82157  1  0  0  0
 82158  1  0  0  0
 82159  1  0  0  0
 83160  1  0  0  0
 83161  1  0  0  0
 83162  1  0  0  0
 84 86  1  0  0  0
 84163  1  0  0  0
 84164  1  0  0  0
 85165  1  0  0  0
 85166  1  0  0  0
 87167  1  0  0  0
M  ISO  4   1 100  68 101  85 101  87 100
M  END
> <chiral flag>
0

> <version>
0

> <s_m_source_file>
/data/baiqing/PycharmProjects/Reinvent-master-3.2/result/LINK_invent/BTK/process_docking_weight1_custom_product_contain_oxygen_bond_distance_aromatic_linkinvent_7_9_3/rearranged_h_0054.sdf

> <i_m_source_file_index>
96

> <r_mmod_Potential_Energy-OPLS-2005>
17.6534996032715

> <r_mmod_Stretch_Energy-OPLS-2005>
44.6394729614258

> <r_mmod_Bend_Energy-OPLS-2005>
133.939117431641

> <r_mmod_Torsional_Energy-OPLS-2005>
298.710235595703

> <r_mmod_Improper_Torsional_Energy-OPLS-2005>
10.3235473632812

> <r_mmod_Van_der_Waal_Energy-OPLS-2005>
158.20930480957

> <r_mmod_Electrostatic_Energy-OPLS-2005>
-432.026184082031

> <r_mmod_Solvation_Energy-OPLS-2005>
-208.385513305664

> <b_mmod_Minimization_Converged-OPLS-2005>
0

> <r_mmod_RMS_Derivative-OPLS-2005>
1.08524596691132

$$$$
