0
                    3D
 Structure written by MMmdl.
158166  0  0  1  0            999 V2000
  -30.5970  -14.7191   20.5738 C   0  0  0  0  0  0
  -30.4452  -12.4701   19.4617 C   0  0  0  0  0  0
  -29.5149  -12.5751   18.2319 C   0  0  0  0  0  0
  -28.0398  -12.3702   18.6391 C   0  0  0  0  0  0
  -27.6486  -13.2317   19.8664 C   0  0  2  0  0  0
  -28.6916  -13.1028   21.0001 C   0  0  0  0  0  0
  -25.2517  -13.8135   20.5719 C   0  0  0  0  0  0
  -24.1810  -13.0355   20.9286 C   0  0  0  0  0  0
  -24.6437  -11.6880   20.8818 C   0  0  0  0  0  0
  -23.9058  -10.4273   21.0412 C   0  0  0  0  0  0
  -24.3603   -9.4180   21.9176 C   0  0  0  0  0  0
  -23.6253   -8.2222   22.0719 C   0  0  0  0  0  0
  -22.4232   -8.0293   21.3508 C   0  0  0  0  0  0
  -21.9901   -9.0261   20.4597 C   0  0  0  0  0  0
  -22.7260  -10.2130   20.3024 C   0  0  0  0  0  0
  -21.6863   -6.0733   22.5279 C   0  0  0  0  0  0
  -21.4029   -6.5610   23.8240 C   0  0  0  0  0  0
  -21.3680   -5.6752   24.9194 C   0  0  0  0  0  0
  -21.6036   -4.3013   24.7260 C   0  0  0  0  0  0
  -21.8815   -3.8119   23.4377 C   0  0  0  0  0  0
  -21.9177   -4.6934   22.3443 C   0  0  0  0  0  0
  -22.7828  -13.5173   21.1935 C   0  0  0  0  0  0
  -22.1594   -4.2124   21.1010 F   0  0  0  0  0  0
  -21.5664   -3.4505   25.7752 F   0  0  0  0  0  0
  -30.0088  -13.4780   20.4524 N   0  0  0  0  0  0
  -26.2971  -12.9386   20.3322 N   0  0  0  0  0  0
  -25.9378  -11.6525   20.5789 N   0  0  0  0  0  0
  -22.0380  -12.8162   22.0456 N   0  0  0  0  0  0
  -25.4039  -15.1823   20.3959 N   0  0  0  0  0  0
  -31.7206  -14.9527   20.1132 O   0  0  0  0  0  0
  -21.6601   -6.8859   21.4238 O   0  0  0  0  0  0
  -22.3534  -14.5458   20.6745 O   0  0  0  0  0  0
  -24.6235  -31.8496   23.1935 C   0  0  0  0  0  0
  -25.9005  -32.4795   23.8327 C   0  0  1  0  0  0
  -27.2458  -27.2640   20.1376 C   0  0  0  0  0  0
  -25.5738  -33.8592   24.2213 N   0  0  0  0  0  0
  -23.4358  -30.4611   21.5310 C   0  0  2  0  0  0
  -24.8958  -28.9026   20.1100 C   0  0  0  0  0  0
  -22.7536  -29.4524   22.4882 C   0  0  0  0  0  0
  -18.0278  -28.1455   22.8464 C   0  0  0  0  0  0
  -24.1451  -36.7288   23.2645 C   0  0  0  0  0  0
  -25.9747  -30.7614   21.3785 C   0  0  0  0  0  0
  -26.0541  -29.3770   20.7356 C   0  0  0  0  0  0
  -27.2231  -28.5554   20.7528 C   0  0  0  0  0  0
  -26.0631  -26.8413   19.4907 C   0  0  0  0  0  0
  -24.9011  -27.6439   19.4814 C   0  0  0  0  0  0
  -23.6627  -29.7785   20.1517 C   0  0  0  0  0  0
  -25.4086  -36.3122   24.0331 C   0  0  1  0  0  0
  -20.5885  -28.3709   23.1273 C   0  0  2  0  0  0
  -20.6761  -26.9406   22.5439 C   0  0  0  0  0  0
  -19.5736  -26.6385   21.5251 C   0  0  0  0  0  0
  -18.1916  -26.7990   22.1649 C   0  0  0  0  0  0
  -19.1534  -28.8898   23.2872 C   0  0  0  0  0  0
  -18.9469  -30.1512   23.8885 C   0  0  0  0  0  0
  -17.6446  -30.6648   24.0569 C   0  0  0  0  0  0
  -25.9023  -34.9478   23.5118 C   0  0  0  0  0  0
  -16.5338  -29.9149   23.6342 C   0  0  0  0  0  0
  -16.7257  -28.6591   23.0299 C   0  0  0  0  0  0
  -26.4363  -31.6630   25.0711 C   0  0  0  0  0  0
  -25.3554  -31.3706   26.1387 C   0  0  0  0  0  0
  -27.0166  -30.3058   24.6154 C   0  0  0  0  0  0
  -27.5951  -32.4327   25.7479 C   0  0  0  0  0  0
  -27.5602  -37.1775   24.8426 C   0  0  0  0  0  0
  -21.4222  -29.3022   22.3648 N   0  0  0  0  0  0
  -26.4259  -37.3847   23.9460 N   0  0  0  0  0  0
  -24.6977  -31.0442   22.0933 N   0  0  0  0  0  0
  -23.4203  -28.8070   23.3011 O   0  0  0  0  0  0
  -28.3699  -26.4244   20.2582 O   0  0  0  0  0  0
  -26.5673  -34.8962   22.4737 O   0  0  0  0  0  0
  -23.5332  -32.1287   23.7176 O   0  0  0  0  0  0
  -29.0868  -18.7923   19.8096 C   0  0  0  0  0  0
  -28.8763  -20.1588   19.4019 C   0  0  0  0  0  0
  -30.6651  -19.5546   21.4370 C   0  0  0  0  0  0
  -29.9690  -18.4395   20.8665 C   0  0  0  0  0  0
  -29.5111  -21.2833   20.0286 C   0  0  0  0  0  0
  -30.4404  -20.9205   21.0486 C   0  0  0  0  0  0
  -29.9465  -17.0946   21.6105 C   0  0  0  0  0  0
  -28.6677  -23.7454   20.0894 C   0  0  0  0  0  0
  -29.4930  -22.9372   17.0022 C   0  0  0  0  0  0
  -28.6408  -25.2210   19.4267 C   0  0  0  0  0  0
  -30.2363  -22.9653   18.3489 C   0  0  0  0  0  0
  -29.7778  -15.7722   21.2231 N   0  0  0  0  0  0
  -29.3778  -22.6836   19.5160 N   0  0  0  0  0  0
  -29.8032  -17.2908   22.9308 N   0  3  0  0  0  0
  -28.0140  -23.5640   21.1219 O   0  0  0  0  0  0
  -31.3522  -22.1574   21.8486 Cl  0  0  0  0  0  0
  -31.4819  -12.6189   19.1622 H   0  0  0  0  0  0
  -30.3896  -11.4706   19.8999 H   0  0  0  0  0  0
  -29.8158  -11.8574   17.4675 H   0  0  0  0  0  0
  -29.6318  -13.5606   17.7740 H   0  0  0  0  0  0
  -27.9051  -11.3126   18.8720 H   0  0  0  0  0  0
  -27.3752  -12.5870   17.7996 H   0  0  0  0  0  0
  -27.6652  -14.2718   19.5377 H   0  0  0  0  0  0
  -28.7211  -12.0823   21.3863 H   0  0  0  0  0  0
  -28.3947  -13.7241   21.8457 H   0  0  0  0  0  0
  -25.2736   -9.5658   22.4773 H   0  0  0  0  0  0
  -23.9962   -7.4577   22.7401 H   0  0  0  0  0  0
  -21.0850   -8.8785   19.8874 H   0  0  0  0  0  0
  -22.3702  -10.9680   19.6121 H   0  0  0  0  0  0
  -21.2045   -7.6102   23.9787 H   0  0  0  0  0  0
  -21.1494   -6.0437   25.9097 H   0  0  0  0  0  0
  -22.0603   -2.7586   23.2887 H   0  0  0  0  0  0
  -22.3916  -11.9803   22.4876 H   0  0  0  0  0  0
  -21.0998  -13.1152   22.2631 H   0  0  0  0  0  0
  -24.5755  -15.7679   20.3694 H   0  0  0  0  0  0
  -26.1722  -15.5814   19.8674 H   0  0  0  0  0  0
  -26.7073  -32.5539   23.1093 H   0  0  0  0  0  0
  -24.9661  -33.9739   25.0188 H   0  0  0  0  0  0
  -22.7351  -31.2816   21.3674 H   0  0  0  0  0  0
  -23.3834  -35.9494   23.3185 H   0  0  0  0  0  0
  -24.3553  -36.9065   22.2094 H   0  0  0  0  0  0
  -23.7050  -37.6376   23.6744 H   0  0  0  0  0  0
  -26.0756  -31.5116   20.5958 H   0  0  0  0  0  0
  -26.8640  -30.8504   21.9901 H   0  0  0  0  0  0
  -28.1109  -28.8762   21.2816 H   0  0  0  0  0  0
  -26.0011  -25.8624   19.0395 H   0  0  0  0  0  0
  -24.0115  -27.2754   18.9882 H   0  0  0  0  0  0
  -23.7758  -30.5353   19.3753 H   0  0  0  0  0  0
  -22.7988  -29.1777   19.8673 H   0  0  0  0  0  0
  -25.1283  -36.1964   25.0824 H   0  0  0  0  0  0
  -20.9948  -28.3299   24.1414 H   0  0  0  0  0  0
  -20.5626  -26.2317   23.3662 H   0  0  0  0  0  0
  -21.6632  -26.7417   22.1260 H   0  0  0  0  0  0
  -19.6869  -25.6269   21.1355 H   0  0  0  0  0  0
  -19.6748  -27.3142   20.6756 H   0  0  0  0  0  0
  -17.4183  -26.6668   21.4069 H   0  0  0  0  0  0
  -18.0334  -26.0168   22.9093 H   0  0  0  0  0  0
  -19.7926  -30.7351   24.2250 H   0  0  0  0  0  0
  -17.4996  -31.6323   24.5144 H   0  0  0  0  0  0
  -15.5336  -30.3034   23.7701 H   0  0  0  0  0  0
  -15.8652  -28.0957   22.6934 H   0  0  0  0  0  0
  -24.5727  -30.7117   25.7609 H   0  0  0  0  0  0
  -24.8701  -32.2820   26.4884 H   0  0  0  0  0  0
  -25.7779  -30.8750   27.0137 H   0  0  0  0  0  0
  -26.2695  -29.6917   24.1104 H   0  0  0  0  0  0
  -27.3763  -29.7233   25.4657 H   0  0  0  0  0  0
  -27.8618  -30.4384   23.9398 H   0  0  0  0  0  0
  -27.2603  -33.3634   26.2077 H   0  0  0  0  0  0
  -28.3722  -32.6888   25.0262 H   0  0  0  0  0  0
  -28.0623  -31.8410   26.5371 H   0  0  0  0  0  0
  -28.2481  -38.0228   24.7768 H   0  0  0  0  0  0
  -28.1256  -36.2797   24.5889 H   0  0  0  0  0  0
  -27.2348  -37.0949   25.8818 H   0  0  0  0  0  0
  -20.9405  -29.8744   21.6870 H   0  0  0  0  0  0
  -26.0157  -38.2879   24.1675 H   0  0  0  0  0  0
  -28.5049  -18.0088   19.3419 H   0  0  0  0  0  0
  -28.1864  -20.3416   18.5916 H   0  0  0  0  0  0
  -31.3467  -19.3708   22.2566 H   0  0  0  0  0  0
  -28.8250  -22.0718   16.9539 H   0  0  0  0  0  0
  -30.2195  -22.8591   16.1826 H   0  0  0  0  0  0
  -28.8955  -23.8392   16.8303 H   0  0  0  0  0  0
  -28.0951  -25.2434   18.4822 H   0  0  0  0  0  0
  -29.6671  -25.4489   19.1554 H   0  0  0  0  0  0
  -30.7889  -23.8976   18.4532 H   0  0  0  0  0  0
  -31.0371  -22.2252   18.3124 H   0  0  0  0  0  0
  -28.8909  -15.4685   21.5815 H   0  0  0  0  0  0
  -29.7609  -18.2493   23.2487 H   0  0  0  0  0  0
  -29.6971  -16.5568   23.6137 H   0  0  0  0  0  0
  1 25  1  0  0  0
  1 30  2  0  0  0
  1 82  1  0  0  0
  2  3  1  0  0  0
  2 25  1  0  0  0
  2 87  1  0  0  0
  2 88  1  0  0  0
  3  4  1  0  0  0
  3 89  1  0  0  0
  3 90  1  0  0  0
  4  5  1  0  0  0
  4 91  1  0  0  0
  4 92  1  0  0  0
  5  6  1  0  0  0
  5 26  1  0  0  0
  5 93  1  0  0  0
  6 25  1  0  0  0
  6 94  1  0  0  0
  6 95  1  0  0  0
  7  8  2  0  0  0
  7 26  1  0  0  0
  7 29  1  0  0  0
  8  9  1  0  0  0
  8 22  1  0  0  0
  9 10  1  0  0  0
  9 27  2  0  0  0
 10 11  2  0  0  0
 10 15  1  0  0  0
 11 12  1  0  0  0
 11 96  1  0  0  0
 12 13  2  0  0  0
 12 97  1  0  0  0
 13 14  1  0  0  0
 13 31  1  0  0  0
 14 15  2  0  0  0
 14 98  1  0  0  0
 15 99  1  0  0  0
 16 17  2  0  0  0
 16 21  1  0  0  0
 16 31  1  0  0  0
 17 18  1  0  0  0
 17100  1  0  0  0
 18 19  2  0  0  0
 18101  1  0  0  0
 19 20  1  0  0  0
 19 24  1  0  0  0
 20 21  2  0  0  0
 20102  1  0  0  0
 21 23  1  0  0  0
 22 28  1  0  0  0
 22 32  2  0  0  0
 26 27  1  0  0  0
 28103  1  0  0  0
 28104  1  0  0  0
 29105  1  0  0  0
 29106  1  0  0  0
 33 34  1  0  0  0
 33 66  1  0  0  0
 33 70  2  0  0  0
 34 36  1  0  0  0
 34 59  1  0  0  0
 34107  1  0  0  0
 35 44  2  0  0  0
 35 45  1  0  0  0
 35 68  1  0  0  0
 36 56  1  0  0  0
 36108  1  0  0  0
 37 39  1  0  0  0
 37 47  1  0  0  0
 37 66  1  0  0  0
 37109  1  0  0  0
 38 43  2  0  0  0
 38 46  1  0  0  0
 38 47  1  0  0  0
 39 64  1  0  0  0
 39 67  2  0  0  0
 40 52  1  0  0  0
 40 53  2  0  0  0
 40 58  1  0  0  0
 41110  1  0  0  0
 41111  1  0  0  0
 41112  1  0  0  0
 41 48  1  0  0  0
 42 43  1  0  0  0
 42 66  1  0  0  0
 42113  1  0  0  0
 42114  1  0  0  0
 43 44  1  0  0  0
 44115  1  0  0  0
 45 46  2  0  0  0
 45116  1  0  0  0
 46117  1  0  0  0
 47118  1  0  0  0
 47119  1  0  0  0
 48 56  1  0  0  0
 48 65  1  0  0  0
 48120  1  0  0  0
 49 50  1  0  0  0
 49 53  1  0  0  0
 49 64  1  0  0  0
 49121  1  0  0  0
 50 51  1  0  0  0
 50122  1  0  0  0
 50123  1  0  0  0
 51 52  1  0  0  0
 51124  1  0  0  0
 51125  1  0  0  0
 52126  1  0  0  0
 52127  1  0  0  0
 53 54  1  0  0  0
 54 55  2  0  0  0
 54128  1  0  0  0
 55 57  1  0  0  0
 55129  1  0  0  0
 56 69  2  0  0  0
 57 58  2  0  0  0
 57130  1  0  0  0
 58131  1  0  0  0
 59 60  1  0  0  0
 59 61  1  0  0  0
 59 62  1  0  0  0
 60132  1  0  0  0
 60133  1  0  0  0
 60134  1  0  0  0
 61135  1  0  0  0
 61136  1  0  0  0
 61137  1  0  0  0
 62138  1  0  0  0
 62139  1  0  0  0
 62140  1  0  0  0
 63 65  1  0  0  0
 63141  1  0  0  0
 63142  1  0  0  0
 63143  1  0  0  0
 64144  1  0  0  0
 65145  1  0  0  0
 68 80  1  0  0  0
 71 72  2  0  0  0
 71 74  1  0  0  0
 71146  1  0  0  0
 72 75  1  0  0  0
 72147  1  0  0  0
 73 74  2  0  0  0
 73 76  1  0  0  0
 73148  1  0  0  0
 74 77  1  0  0  0
 75 76  2  0  0  0
 75 83  1  0  0  0
 76 86  1  0  0  0
 77 82  1  0  0  0
 77 84  2  0  0  0
 78 80  1  0  0  0
 78 83  1  0  0  0
 78 85  2  0  0  0
 79 81  1  0  0  0
 79149  1  0  0  0
 79150  1  0  0  0
 79151  1  0  0  0
 80152  1  0  0  0
 80153  1  0  0  0
 81 83  1  0  0  0
 81154  1  0  0  0
 81155  1  0  0  0
 82156  1  0  0  0
 84157  1  0  0  0
 84158  1  0  0  0
M  CHG  1  84   1
M  ISO  4   1 100  68 101  80 101  82 100
M  END
> <chiral flag>
0

> <version>
0

> <s_m_source_file>
/data/baiqing/PycharmProjects/Reinvent-master-3.2/result/LINK_invent/BTK/process_docking_weight1_custom_product_contain_oxygen_bond_distance_aromatic_linkinvent_7_9_3/rearranged_h_0021.sdf

> <i_m_source_file_index>
1

> <r_mmod_Potential_Energy-OPLS-2005>
80.4390487670898

> <r_mmod_Stretch_Energy-OPLS-2005>
118.952896118164

> <r_mmod_Bend_Energy-OPLS-2005>
222.886810302734

> <r_mmod_Torsional_Energy-OPLS-2005>
348.243743896484

> <r_mmod_Improper_Torsional_Energy-OPLS-2005>
14.8099040985107

> <r_mmod_Van_der_Waal_Energy-OPLS-2005>
137.581954956055

> <r_mmod_Electrostatic_Energy-OPLS-2005>
-365.716491699219

> <r_mmod_Solvation_Energy-OPLS-2005>
-478.079071044922

> <b_mmod_Minimization_Converged-OPLS-2005>
0

> <r_mmod_RMS_Derivative-OPLS-2005>
7.81010627746582

$$$$
1
                    3D
 Structure written by MMmdl.
158167  0  0  1  0            999 V2000
  -30.6202  -14.7053   20.3557 C   0  0  0  0  0  0
  -30.4394  -12.3942   19.4623 C   0  0  0  0  0  0
  -29.5017  -12.3647   18.2332 C   0  0  0  0  0  0
  -28.0205  -12.2824   18.6533 C   0  0  0  0  0  0
  -27.6396  -13.2167   19.8346 C   0  0  2  0  0  0
  -28.6960  -13.1775   20.9586 C   0  0  0  0  0  0
  -25.2530  -13.8166   20.5723 C   0  0  0  0  0  0
  -24.1793  -13.0436   20.9212 C   0  0  0  0  0  0
  -24.6369  -11.6912   20.8777 C   0  0  0  0  0  0
  -23.9048  -10.4289   21.0422 C   0  0  0  0  0  0
  -24.3603   -9.4203   21.9195 C   0  0  0  0  0  0
  -23.6281   -8.2236   22.0757 C   0  0  0  0  0  0
  -22.4266   -8.0275   21.3546 C   0  0  0  0  0  0
  -21.9901   -9.0247   20.4650 C   0  0  0  0  0  0
  -22.7225  -10.2129   20.3066 C   0  0  0  0  0  0
  -21.6848   -6.0729   22.5276 C   0  0  0  0  0  0
  -21.4012   -6.5638   23.8209 C   0  0  0  0  0  0
  -21.3656   -5.6795   24.9173 C   0  0  0  0  0  0
  -21.6041   -4.3055   24.7226 C   0  0  0  0  0  0
  -21.8821   -3.8146   23.4349 C   0  0  0  0  0  0
  -21.9189   -4.6958   22.3405 C   0  0  0  0  0  0
  -22.7820  -13.5232   21.1862 C   0  0  0  0  0  0
  -22.1659   -4.2145   21.0980 F   0  0  0  0  0  0
  -21.5626   -3.4540   25.7738 F   0  0  0  0  0  0
  -29.9916  -13.4863   20.3460 N   0  0  0  0  0  0
  -26.2944  -12.9355   20.3297 N   0  0  0  0  0  0
  -25.9302  -11.6523   20.5828 N   0  0  0  0  0  0
  -22.0460  -12.8219   22.0413 N   0  0  0  0  0  0
  -25.4259  -15.1881   20.4199 N   0  0  0  0  0  0
  -31.8518  -14.7682   20.2998 O   0  0  0  0  0  0
  -21.6635   -6.8869   21.4237 O   0  0  0  0  0  0
  -22.3510  -14.5539   20.6711 O   0  0  0  0  0  0
  -24.6258  -31.8593   23.2014 C   0  0  0  0  0  0
  -25.9106  -32.4770   23.8349 C   0  0  1  0  0  0
  -27.2238  -27.3234   20.1299 C   0  0  0  0  0  0
  -25.5927  -33.8570   24.2283 N   0  0  0  0  0  0
  -23.4193  -30.4811   21.5437 C   0  0  2  0  0  0
  -24.8663  -28.9299   20.1156 C   0  0  0  0  0  0
  -22.7477  -29.4621   22.4945 C   0  0  0  0  0  0
  -18.0286  -28.1387   22.8487 C   0  0  0  0  0  0
  -24.1489  -36.7284   23.2636 C   0  0  0  0  0  0
  -25.9577  -30.7942   21.3682 C   0  0  0  0  0  0
  -26.0339  -29.4186   20.7164 C   0  0  0  0  0  0
  -27.2194  -28.6282   20.7088 C   0  0  0  0  0  0
  -26.0378  -26.8769   19.5135 C   0  0  0  0  0  0
  -24.8697  -27.6650   19.5038 C   0  0  0  0  0  0
  -23.6344  -29.8106   20.1605 C   0  0  0  0  0  0
  -25.4112  -36.3072   24.0327 C   0  0  1  0  0  0
  -20.5887  -28.3687   23.1291 C   0  0  2  0  0  0
  -20.6775  -26.9411   22.5416 C   0  0  0  0  0  0
  -19.5752  -26.6386   21.5217 C   0  0  0  0  0  0
  -18.1929  -26.7930   22.1626 C   0  0  0  0  0  0
  -19.1541  -28.8854   23.2883 C   0  0  0  0  0  0
  -18.9463  -30.1456   23.8895 C   0  0  0  0  0  0
  -17.6461  -30.6587   24.0563 C   0  0  0  0  0  0
  -25.9045  -34.9442   23.5102 C   0  0  0  0  0  0
  -16.5352  -29.9085   23.6329 C   0  0  0  0  0  0
  -16.7274  -28.6507   23.0346 C   0  0  0  0  0  0
  -26.4495  -31.6569   25.0708 C   0  0  0  0  0  0
  -25.3735  -31.3695   26.1441 C   0  0  0  0  0  0
  -27.0326  -30.2994   24.6135 C   0  0  0  0  0  0
  -27.6064  -32.4296   25.7478 C   0  0  0  0  0  0
  -27.5577  -37.1792   24.8463 C   0  0  0  0  0  0
  -21.4192  -29.3037   22.3683 N   0  0  0  0  0  0
  -26.4286  -37.3768   23.9413 N   0  0  0  0  0  0
  -24.6864  -31.0617   22.0953 N   0  0  0  0  0  0
  -23.4201  -28.8168   23.3030 O   0  0  0  0  0  0
  -28.3480  -26.4937   20.1225 O   0  0  0  0  0  0
  -26.5607  -34.8909   22.4662 O   0  0  0  0  0  0
  -23.5427  -32.1381   23.7357 O   0  0  0  0  0  0
  -29.9926  -19.4454   20.6916 C   0  0  0  0  0  0
  -30.3662  -18.0561   20.6762 C   0  0  0  0  0  0
  -28.2328  -17.5193   19.7358 C   0  0  0  0  0  0
  -28.7414  -19.9258   20.1865 C   0  0  0  0  0  0
  -29.4999  -17.0526   20.1604 C   0  0  0  0  0  0
  -27.8601  -18.8891   19.7455 C   0  0  0  0  0  0
  -28.9846  -22.5030   20.5055 C   0  0  0  0  0  0
  -27.1560  -23.3252   19.2097 C   0  0  0  0  0  0
  -27.2470  -21.7882   19.1991 C   0  0  0  0  0  0
  -28.4399  -23.8321   19.8602 C   0  0  1  0  0  0
  -30.0559  -15.7054   18.2534 C   0  0  0  0  0  0
  -28.2490  -25.1514   20.7423 C   0  0  0  0  0  0
  -28.3807  -21.3657   20.0339 N   0  0  0  0  0  0
  -29.9071  -15.7118   19.7204 N   0  0  0  0  0  0
  -29.8874  -22.5253   21.3467 O   0  0  0  0  0  0
  -26.6290  -19.1711   19.2596 F   0  0  0  0  0  0
  -31.4745  -12.5256   19.1420 H   0  0  0  0  0  0
  -30.4047  -11.4439   19.9977 H   0  0  0  0  0  0
  -29.7468  -11.4996   17.6158 H   0  0  0  0  0  0
  -29.6618  -13.2187   17.5841 H   0  0  0  0  0  0
  -27.8380  -11.2460   18.9393 H   0  0  0  0  0  0
  -27.3740  -12.4724   17.7964 H   0  0  0  0  0  0
  -27.6230  -14.2262   19.4271 H   0  0  0  0  0  0
  -28.7241  -12.1999   21.4415 H   0  0  0  0  0  0
  -28.4577  -13.9077   21.7339 H   0  0  0  0  0  0
  -25.2746   -9.5678   22.4775 H   0  0  0  0  0  0
  -23.9987   -7.4627   22.7477 H   0  0  0  0  0  0
  -21.0835   -8.8769   19.8958 H   0  0  0  0  0  0
  -22.3685  -10.9670   19.6180 H   0  0  0  0  0  0
  -21.2011   -7.6148   23.9710 H   0  0  0  0  0  0
  -21.1473   -6.0526   25.9071 H   0  0  0  0  0  0
  -22.0603   -2.7608   23.2854 H   0  0  0  0  0  0
  -22.4068  -11.9874   22.4799 H   0  0  0  0  0  0
  -21.1083  -13.1252   22.2629 H   0  0  0  0  0  0
  -24.6695  -15.8507   20.5502 H   0  0  0  0  0  0
  -26.3013  -15.6260   20.1708 H   0  0  0  0  0  0
  -26.7171  -32.5454   23.1101 H   0  0  0  0  0  0
  -25.0104  -33.9712   25.0449 H   0  0  0  0  0  0
  -22.7121  -31.3005   21.3979 H   0  0  0  0  0  0
  -23.3747  -35.9619   23.3300 H   0  0  0  0  0  0
  -24.3582  -36.8903   22.2050 H   0  0  0  0  0  0
  -23.7248  -37.6486   23.6660 H   0  0  0  0  0  0
  -26.0821  -31.5541   20.5959 H   0  0  0  0  0  0
  -26.8414  -30.8495   21.9924 H   0  0  0  0  0  0
  -28.1209  -29.0030   21.1735 H   0  0  0  0  0  0
  -26.0115  -25.9083   19.0363 H   0  0  0  0  0  0
  -23.9757  -27.2861   19.0281 H   0  0  0  0  0  0
  -23.7530  -30.5836   19.4002 H   0  0  0  0  0  0
  -22.7547  -29.2381   19.8610 H   0  0  0  0  0  0
  -25.1290  -36.1917   25.0817 H   0  0  0  0  0  0
  -20.9975  -28.3256   24.1414 H   0  0  0  0  0  0
  -20.5681  -26.2290   23.3613 H   0  0  0  0  0  0
  -21.6643  -26.7445   22.1204 H   0  0  0  0  0  0
  -19.6913  -25.6300   21.1242 H   0  0  0  0  0  0
  -19.6690  -27.3206   20.6754 H   0  0  0  0  0  0
  -17.4200  -26.6686   21.4024 H   0  0  0  0  0  0
  -18.0318  -26.0073   22.9022 H   0  0  0  0  0  0
  -19.7937  -30.7277   24.2265 H   0  0  0  0  0  0
  -17.5012  -31.6267   24.5167 H   0  0  0  0  0  0
  -15.5352  -30.2981   23.7658 H   0  0  0  0  0  0
  -15.8676  -28.0827   22.7052 H   0  0  0  0  0  0
  -24.5929  -30.7013   25.7782 H   0  0  0  0  0  0
  -24.8897  -32.2848   26.4859 H   0  0  0  0  0  0
  -25.8074  -30.8893   27.0221 H   0  0  0  0  0  0
  -26.2884  -29.6759   24.1164 H   0  0  0  0  0  0
  -27.4039  -29.7235   25.4621 H   0  0  0  0  0  0
  -27.8749  -30.4287   23.9335 H   0  0  0  0  0  0
  -27.2688  -33.3603   26.2056 H   0  0  0  0  0  0
  -28.3883  -32.6845   25.0307 H   0  0  0  0  0  0
  -28.0720  -31.8407   26.5395 H   0  0  0  0  0  0
  -28.2585  -38.0096   24.7512 H   0  0  0  0  0  0
  -28.1083  -36.2627   24.6291 H   0  0  0  0  0  0
  -27.2290  -37.1435   25.8862 H   0  0  0  0  0  0
  -20.9374  -29.8748   21.6884 H   0  0  0  0  0  0
  -26.0162  -38.2835   24.1431 H   0  0  0  0  0  0
  -30.7285  -20.1536   21.0414 H   0  0  0  0  0  0
  -31.3686  -17.7841   20.9766 H   0  0  0  0  0  0
  -27.5408  -16.8218   19.2893 H   0  0  0  0  0  0
  -26.2848  -23.6280   19.7927 H   0  0  0  0  0  0
  -27.0251  -23.7266   18.2040 H   0  0  0  0  0  0
  -27.3792  -21.4173   18.1815 H   0  0  0  0  0  0
  -26.3098  -21.3927   19.5907 H   0  0  0  0  0  0
  -29.1623  -24.0637   19.0778 H   0  0  0  0  0  0
  -29.1272  -15.3815   17.7839 H   0  0  0  0  0  0
  -30.8639  -15.0650   17.8933 H   0  0  0  0  0  0
  -30.2802  -16.7005   17.8655 H   0  0  0  0  0  0
  -29.0261  -25.1430   21.5063 H   0  0  0  0  0  0
  -27.3191  -25.0757   21.3085 H   0  0  0  0  0  0
  1 25  1  0  0  0
  1 30  2  0  0  0
  1 84  1  0  0  0
  2  3  1  0  0  0
  2 25  1  0  0  0
  2 87  1  0  0  0
  2 88  1  0  0  0
  3  4  1  0  0  0
  3 89  1  0  0  0
  3 90  1  0  0  0
  4  5  1  0  0  0
  4 91  1  0  0  0
  4 92  1  0  0  0
  5  6  1  0  0  0
  5 26  1  0  0  0
  5 93  1  0  0  0
  6 25  1  0  0  0
  6 94  1  0  0  0
  6 95  1  0  0  0
  7  8  2  0  0  0
  7 26  1  0  0  0
  7 29  1  0  0  0
  8  9  1  0  0  0
  8 22  1  0  0  0
  9 10  1  0  0  0
  9 27  2  0  0  0
 10 11  2  0  0  0
 10 15  1  0  0  0
 11 12  1  0  0  0
 11 96  1  0  0  0
 12 13  2  0  0  0
 12 97  1  0  0  0
 13 14  1  0  0  0
 13 31  1  0  0  0
 14 15  2  0  0  0
 14 98  1  0  0  0
 15 99  1  0  0  0
 16 17  2  0  0  0
 16 21  1  0  0  0
 16 31  1  0  0  0
 17 18  1  0  0  0
 17100  1  0  0  0
 18 19  2  0  0  0
 18101  1  0  0  0
 19 20  1  0  0  0
 19 24  1  0  0  0
 20 21  2  0  0  0
 20102  1  0  0  0
 21 23  1  0  0  0
 22 28  1  0  0  0
 22 32  2  0  0  0
 26 27  1  0  0  0
 28103  1  0  0  0
 28104  1  0  0  0
 29105  1  0  0  0
 29106  1  0  0  0
 33 34  1  0  0  0
 33 66  1  0  0  0
 33 70  2  0  0  0
 34 36  1  0  0  0
 34 59  1  0  0  0
 34107  1  0  0  0
 35 44  2  0  0  0
 35 45  1  0  0  0
 35 68  1  0  0  0
 36 56  1  0  0  0
 36108  1  0  0  0
 37 39  1  0  0  0
 37 47  1  0  0  0
 37 66  1  0  0  0
 37109  1  0  0  0
 38 43  2  0  0  0
 38 46  1  0  0  0
 38 47  1  0  0  0
 39 64  1  0  0  0
 39 67  2  0  0  0
 40 52  1  0  0  0
 40 53  2  0  0  0
 40 58  1  0  0  0
 41110  1  0  0  0
 41111  1  0  0  0
 41112  1  0  0  0
 41 48  1  0  0  0
 42 43  1  0  0  0
 42 66  1  0  0  0
 42113  1  0  0  0
 42114  1  0  0  0
 43 44  1  0  0  0
 44115  1  0  0  0
 45 46  2  0  0  0
 45116  1  0  0  0
 46117  1  0  0  0
 47118  1  0  0  0
 47119  1  0  0  0
 48 56  1  0  0  0
 48 65  1  0  0  0
 48120  1  0  0  0
 49 50  1  0  0  0
 49 53  1  0  0  0
 49 64  1  0  0  0
 49121  1  0  0  0
 50 51  1  0  0  0
 50122  1  0  0  0
 50123  1  0  0  0
 51 52  1  0  0  0
 51124  1  0  0  0
 51125  1  0  0  0
 52126  1  0  0  0
 52127  1  0  0  0
 53 54  1  0  0  0
 54 55  2  0  0  0
 54128  1  0  0  0
 55 57  1  0  0  0
 55129  1  0  0  0
 56 69  2  0  0  0
 57 58  2  0  0  0
 57130  1  0  0  0
 58131  1  0  0  0
 59 60  1  0  0  0
 59 61  1  0  0  0
 59 62  1  0  0  0
 60132  1  0  0  0
 60133  1  0  0  0
 60134  1  0  0  0
 61135  1  0  0  0
 61136  1  0  0  0
 61137  1  0  0  0
 62138  1  0  0  0
 62139  1  0  0  0
 62140  1  0  0  0
 63 65  1  0  0  0
 63141  1  0  0  0
 63142  1  0  0  0
 63143  1  0  0  0
 64144  1  0  0  0
 65145  1  0  0  0
 68 82  1  0  0  0
 71 72  2  0  0  0
 71 74  1  0  0  0
 71146  1  0  0  0
 72 75  1  0  0  0
 72147  1  0  0  0
 73 75  2  0  0  0
 73 76  1  0  0  0
 73148  1  0  0  0
 74 76  2  0  0  0
 74 83  1  0  0  0
 75 84  1  0  0  0
 76 86  1  0  0  0
 77 80  1  0  0  0
 77 83  1  0  0  0
 77 85  2  0  0  0
 78 79  1  0  0  0
 78 80  1  0  0  0
 78149  1  0  0  0
 78150  1  0  0  0
 79 83  1  0  0  0
 79151  1  0  0  0
 79152  1  0  0  0
 80 82  1  0  0  0
 80153  1  0  0  0
 81 84  1  0  0  0
 81154  1  0  0  0
 81155  1  0  0  0
 81156  1  0  0  0
 82157  1  0  0  0
 82158  1  0  0  0
M  ISO  4   1 100  68 101  82 101  84 100
M  END
> <chiral flag>
0

> <version>
0

> <s_m_source_file>
/data/baiqing/PycharmProjects/Reinvent-master-3.2/result/LINK_invent/BTK/process_docking_weight1_custom_product_contain_oxygen_bond_distance_aromatic_linkinvent_7_9_3/rearranged_h_0021.sdf

> <i_m_source_file_index>
2

> <r_mmod_Potential_Energy-OPLS-2005>
433.658233642578

> <r_mmod_Stretch_Energy-OPLS-2005>
88.728759765625

> <r_mmod_Bend_Energy-OPLS-2005>
185.840133666992

> <r_mmod_Torsional_Energy-OPLS-2005>
403.299194335938

> <r_mmod_Improper_Torsional_Energy-OPLS-2005>
32.1175346374512

> <r_mmod_Van_der_Waal_Energy-OPLS-2005>
141.850494384766

> <r_mmod_Electrostatic_Energy-OPLS-2005>
-293.004547119141

> <r_mmod_Solvation_Energy-OPLS-2005>
-200.37922668457

> <b_mmod_Minimization_Converged-OPLS-2005>
0

> <r_mmod_RMS_Derivative-OPLS-2005>
0.947185337543488

$$$$
2
                    3D
 Structure written by MMmdl.
162171  0  0  1  0            999 V2000
  -30.5422  -14.9615   20.3741 C   0  0  0  0  0  0
  -30.4534  -12.5836   19.4940 C   0  0  0  0  0  0
  -29.5319  -12.4424   18.2597 C   0  0  0  0  0  0
  -28.0526  -12.2889   18.6767 C   0  0  0  0  0  0
  -27.6261  -13.2335   19.8344 C   0  0  2  0  0  0
  -28.6778  -13.2912   20.9586 C   0  0  0  0  0  0
  -25.2492  -13.8167   20.5792 C   0  0  0  0  0  0
  -24.1780  -13.0413   20.9244 C   0  0  0  0  0  0
  -24.6368  -11.6896   20.8760 C   0  0  0  0  0  0
  -23.9045  -10.4282   21.0401 C   0  0  0  0  0  0
  -24.3613   -9.4203   21.9176 C   0  0  0  0  0  0
  -23.6294   -8.2236   22.0754 C   0  0  0  0  0  0
  -22.4276   -8.0273   21.3539 C   0  0  0  0  0  0
  -21.9896   -9.0237   20.4638 C   0  0  0  0  0  0
  -22.7218  -10.2120   20.3047 C   0  0  0  0  0  0
  -21.6858   -6.0737   22.5281 C   0  0  0  0  0  0
  -21.4007   -6.5640   23.8210 C   0  0  0  0  0  0
  -21.3660   -5.6792   24.9170 C   0  0  0  0  0  0
  -21.6057   -4.3057   24.7220 C   0  0  0  0  0  0
  -21.8818   -3.8149   23.4340 C   0  0  0  0  0  0
  -21.9192   -4.6967   22.3399 C   0  0  0  0  0  0
  -22.7805  -13.5201   21.1880 C   0  0  0  0  0  0
  -22.1669   -4.2162   21.0973 F   0  0  0  0  0  0
  -21.5631   -3.4536   25.7725 F   0  0  0  0  0  0
  -29.9410  -13.7028   20.3312 N   0  0  0  0  0  0
  -26.2893  -12.9363   20.3314 N   0  0  0  0  0  0
  -25.9306  -11.6512   20.5783 N   0  0  0  0  0  0
  -22.0456  -12.8204   22.0436 N   0  0  0  0  0  0
  -25.4206  -15.1900   20.4301 N   0  0  0  0  0  0
  -31.7743  -14.9908   20.2702 O   0  0  0  0  0  0
  -21.6648   -6.8873   21.4240 O   0  0  0  0  0  0
  -22.3507  -14.5509   20.6709 O   0  0  0  0  0  0
  -24.6405  -31.8468   23.1915 C   0  0  0  0  0  0
  -25.9181  -32.4720   23.8297 C   0  0  1  0  0  0
  -27.2211  -27.1637   20.1588 C   0  0  0  0  0  0
  -25.5940  -33.8528   24.2219 N   0  0  0  0  0  0
  -23.4435  -30.4656   21.5358 C   0  0  2  0  0  0
  -24.8942  -28.8924   20.1162 C   0  0  0  0  0  0
  -22.7549  -29.4560   22.4875 C   0  0  0  0  0  0
  -18.0298  -28.1400   22.8471 C   0  0  0  0  0  0
  -24.1487  -36.7260   23.2638 C   0  0  0  0  0  0
  -25.9961  -30.7299   21.3854 C   0  0  0  0  0  0
  -26.0697  -29.3416   20.7320 C   0  0  0  0  0  0
  -27.2369  -28.4934   20.7345 C   0  0  0  0  0  0
  -26.0233  -26.8089   19.5012 C   0  0  0  0  0  0
  -24.8819  -27.6392   19.4862 C   0  0  0  0  0  0
  -23.6694  -29.7920   20.1561 C   0  0  0  0  0  0
  -25.4120  -36.3056   24.0320 C   0  0  1  0  0  0
  -20.5908  -28.3719   23.1236 C   0  0  2  0  0  0
  -20.6787  -26.9424   22.5397 C   0  0  0  0  0  0
  -19.5763  -26.6384   21.5202 C   0  0  0  0  0  0
  -18.1944  -26.7934   22.1616 C   0  0  0  0  0  0
  -19.1555  -28.8878   23.2847 C   0  0  0  0  0  0
  -18.9473  -30.1467   23.8884 C   0  0  0  0  0  0
  -17.6472  -30.6597   24.0557 C   0  0  0  0  0  0
  -25.9066  -34.9424   23.5081 C   0  0  0  0  0  0
  -16.5362  -29.9092   23.6332 C   0  0  0  0  0  0
  -16.7282  -28.6506   23.0355 C   0  0  0  0  0  0
  -26.4510  -31.6571   25.0719 C   0  0  0  0  0  0
  -25.3699  -31.3766   26.1421 C   0  0  0  0  0  0
  -27.0348  -30.2961   24.6276 C   0  0  0  0  0  0
  -27.6062  -32.4317   25.7502 C   0  0  0  0  0  0
  -27.5580  -37.1785   24.8466 C   0  0  0  0  0  0
  -21.4247  -29.3050   22.3622 N   0  0  0  0  0  0
  -26.4292  -37.3761   23.9410 N   0  0  0  0  0  0
  -24.7128  -31.0345   22.0934 N   0  0  0  0  0  0
  -23.4193  -28.8106   23.3019 O   0  0  0  0  0  0
  -28.2935  -26.2087   20.1859 O   0  0  0  0  0  0
  -26.5656  -34.8914   22.4660 O   0  0  0  0  0  0
  -23.5525  -32.1336   23.7134 O   0  0  0  0  0  0
  -30.1021  -20.0764   19.8366 C   0  0  0  0  0  0
  -30.3853  -18.6556   19.6881 C   0  0  0  0  0  0
  -28.7702  -18.1322   21.3166 C   0  0  0  0  0  0
  -28.4717  -19.5514   21.4654 C   0  0  0  0  0  0
  -29.1171  -20.6172   20.7254 C   0  0  0  0  0  0
  -29.7382  -17.5879   20.4125 C   0  0  0  0  0  0
  -30.6292  -23.3115   21.9611 C   0  0  0  0  0  0
  -30.4492  -23.7383   20.5004 C   0  0  0  0  0  0
  -29.4234  -22.4111   22.2726 C   0  0  0  0  0  0
  -28.9965  -23.3806   20.1922 C   0  0  2  0  0  0
  -27.3660  -19.9158   22.4450 C   0  0  0  0  0  0
  -29.5564  -16.0754   18.5216 C   0  0  0  0  0  0
  -28.0434  -24.7244   20.5503 C   0  0  0  0  0  0
  -28.8213  -22.0572   20.9864 N   0  0  0  0  0  0
  -29.7879  -16.1159   19.9765 N   0  0  0  0  0  0
  -31.4806  -12.7593   19.1718 H   0  0  0  0  0  0
  -30.4778  -11.6564   20.0687 H   0  0  0  0  0  0
  -29.8354  -11.5715   17.6769 H   0  0  0  0  0  0
  -29.6613  -13.2870   17.5865 H   0  0  0  0  0  0
  -27.9276  -11.2535   18.9964 H   0  0  0  0  0  0
  -27.3967  -12.4175   17.8150 H   0  0  0  0  0  0
  -27.5604  -14.2293   19.4069 H   0  0  0  0  0  0
  -28.7741  -12.3262   21.4586 H   0  0  0  0  0  0
  -28.3829  -14.0152   21.7201 H   0  0  0  0  0  0
  -25.2764   -9.5703   22.4741 H   0  0  0  0  0  0
  -24.0025   -7.4633   22.7474 H   0  0  0  0  0  0
  -21.0829   -8.8732   19.8941 H   0  0  0  0  0  0
  -22.3661  -10.9654   19.6154 H   0  0  0  0  0  0
  -21.2003   -7.6145   23.9712 H   0  0  0  0  0  0
  -21.1484   -6.0520   25.9072 H   0  0  0  0  0  0
  -22.0599   -2.7615   23.2825 H   0  0  0  0  0  0
  -22.4094  -11.9893   22.4858 H   0  0  0  0  0  0
  -21.1042  -13.1189   22.2567 H   0  0  0  0  0  0
  -24.6621  -15.8470   20.5761 H   0  0  0  0  0  0
  -26.2862  -15.6355   20.1530 H   0  0  0  0  0  0
  -26.7244  -32.5341   23.1025 H   0  0  0  0  0  0
  -25.0054  -33.9658   25.0344 H   0  0  0  0  0  0
  -22.7438  -31.2903   21.3812 H   0  0  0  0  0  0
  -23.3768  -35.9574   23.3294 H   0  0  0  0  0  0
  -24.3562  -36.8895   22.2052 H   0  0  0  0  0  0
  -23.7222  -37.6446   23.6674 H   0  0  0  0  0  0
  -26.1435  -31.4817   20.6096 H   0  0  0  0  0  0
  -26.8698  -30.7848   22.0234 H   0  0  0  0  0  0
  -28.1371  -28.8349   21.2265 H   0  0  0  0  0  0
  -25.9490  -25.8575   18.9943 H   0  0  0  0  0  0
  -23.9852  -27.2953   18.9902 H   0  0  0  0  0  0
  -23.8041  -30.5658   19.3990 H   0  0  0  0  0  0
  -22.7859  -29.2307   19.8465 H   0  0  0  0  0  0
  -25.1301  -36.1898   25.0812 H   0  0  0  0  0  0
  -20.9990  -28.3303   24.1364 H   0  0  0  0  0  0
  -20.5671  -26.2330   23.3606 H   0  0  0  0  0  0
  -21.6651  -26.7428   22.1200 H   0  0  0  0  0  0
  -19.6924  -25.6286   21.1255 H   0  0  0  0  0  0
  -19.6716  -27.3168   20.6711 H   0  0  0  0  0  0
  -17.4204  -26.6658   21.4029 H   0  0  0  0  0  0
  -18.0367  -26.0089   22.9030 H   0  0  0  0  0  0
  -19.7946  -30.7286   24.2254 H   0  0  0  0  0  0
  -17.5025  -31.6278   24.5156 H   0  0  0  0  0  0
  -15.5361  -30.2996   23.7672 H   0  0  0  0  0  0
  -15.8675  -28.0827   22.7090 H   0  0  0  0  0  0
  -24.5882  -30.7112   25.7732 H   0  0  0  0  0  0
  -24.8881  -32.2950   26.4787 H   0  0  0  0  0  0
  -25.7975  -30.8970   27.0236 H   0  0  0  0  0  0
  -26.2939  -29.6719   24.1267 H   0  0  0  0  0  0
  -27.3931  -29.7237   25.4843 H   0  0  0  0  0  0
  -27.8873  -30.4188   23.9595 H   0  0  0  0  0  0
  -27.2671  -33.3627   26.2061 H   0  0  0  0  0  0
  -28.3890  -32.6863   25.0341 H   0  0  0  0  0  0
  -28.0717  -31.8453   26.5437 H   0  0  0  0  0  0
  -28.2596  -38.0085   24.7513 H   0  0  0  0  0  0
  -28.1080  -36.2613   24.6294 H   0  0  0  0  0  0
  -27.2291  -37.1428   25.8868 H   0  0  0  0  0  0
  -20.9456  -29.8763   21.6805 H   0  0  0  0  0  0
  -26.0168  -38.2832   24.1422 H   0  0  0  0  0  0
  -30.6719  -20.7649   19.2305 H   0  0  0  0  0  0
  -31.1099  -18.3830   18.9350 H   0  0  0  0  0  0
  -28.1719  -17.4313   21.8819 H   0  0  0  0  0  0
  -30.6424  -24.1715   22.6324 H   0  0  0  0  0  0
  -31.5711  -22.7779   22.0916 H   0  0  0  0  0  0
  -31.1122  -23.1533   19.8611 H   0  0  0  0  0  0
  -30.6794  -24.7908   20.3328 H   0  0  0  0  0  0
  -28.6912  -22.9458   22.8807 H   0  0  0  0  0  0
  -29.7422  -21.5508   22.8635 H   0  0  0  0  0  0
  -28.8993  -23.1708   19.1257 H   0  0  0  0  0  0
  -26.7388  -19.0571   22.6854 H   0  0  0  0  0  0
  -26.7158  -20.6845   22.0257 H   0  0  0  0  0  0
  -27.7840  -20.2980   23.3757 H   0  0  0  0  0  0
  -28.9731  -16.9302   18.1740 H   0  0  0  0  0  0
  -28.9945  -15.2077   18.2019 H   0  0  0  0  0  0
  -30.5006  -16.0845   17.9730 H   0  0  0  0  0  0
  -27.9656  -24.7600   21.6365 H   0  0  0  0  0  0
  -27.0394  -24.4557   20.2295 H   0  0  0  0  0  0
  1 25  1  0  0  0
  1 30  2  0  0  0
  1 85  1  0  0  0
  2  3  1  0  0  0
  2 25  1  0  0  0
  2 86  1  0  0  0
  2 87  1  0  0  0
  3  4  1  0  0  0
  3 88  1  0  0  0
  3 89  1  0  0  0
  4  5  1  0  0  0
  4 90  1  0  0  0
  4 91  1  0  0  0
  5  6  1  0  0  0
  5 26  1  0  0  0
  5 92  1  0  0  0
  6 25  1  0  0  0
  6 93  1  0  0  0
  6 94  1  0  0  0
  7  8  2  0  0  0
  7 26  1  0  0  0
  7 29  1  0  0  0
  8  9  1  0  0  0
  8 22  1  0  0  0
  9 10  1  0  0  0
  9 27  2  0  0  0
 10 11  2  0  0  0
 10 15  1  0  0  0
 11 12  1  0  0  0
 11 95  1  0  0  0
 12 13  2  0  0  0
 12 96  1  0  0  0
 13 14  1  0  0  0
 13 31  1  0  0  0
 14 15  2  0  0  0
 14 97  1  0  0  0
 15 98  1  0  0  0
 16 17  2  0  0  0
 16 21  1  0  0  0
 16 31  1  0  0  0
 17 18  1  0  0  0
 17 99  1  0  0  0
 18 19  2  0  0  0
 18100  1  0  0  0
 19 20  1  0  0  0
 19 24  1  0  0  0
 20 21  2  0  0  0
 20101  1  0  0  0
 21 23  1  0  0  0
 22 28  1  0  0  0
 22 32  2  0  0  0
 26 27  1  0  0  0
 28102  1  0  0  0
 28103  1  0  0  0
 29104  1  0  0  0
 29105  1  0  0  0
 33 34  1  0  0  0
 33 66  1  0  0  0
 33 70  2  0  0  0
 34 36  1  0  0  0
 34 59  1  0  0  0
 34106  1  0  0  0
 35 44  2  0  0  0
 35 45  1  0  0  0
 35 68  1  0  0  0
 36 56  1  0  0  0
 36107  1  0  0  0
 37 39  1  0  0  0
 37 47  1  0  0  0
 37 66  1  0  0  0
 37108  1  0  0  0
 38 43  2  0  0  0
 38 46  1  0  0  0
 38 47  1  0  0  0
 39 64  1  0  0  0
 39 67  2  0  0  0
 40 52  1  0  0  0
 40 53  2  0  0  0
 40 58  1  0  0  0
 41109  1  0  0  0
 41110  1  0  0  0
 41111  1  0  0  0
 41 48  1  0  0  0
 42 43  1  0  0  0
 42 66  1  0  0  0
 42112  1  0  0  0
 42113  1  0  0  0
 43 44  1  0  0  0
 44114  1  0  0  0
 45 46  2  0  0  0
 45115  1  0  0  0
 46116  1  0  0  0
 47117  1  0  0  0
 47118  1  0  0  0
 48 56  1  0  0  0
 48 65  1  0  0  0
 48119  1  0  0  0
 49 50  1  0  0  0
 49 53  1  0  0  0
 49 64  1  0  0  0
 49120  1  0  0  0
 50 51  1  0  0  0
 50121  1  0  0  0
 50122  1  0  0  0
 51 52  1  0  0  0
 51123  1  0  0  0
 51124  1  0  0  0
 52125  1  0  0  0
 52126  1  0  0  0
 53 54  1  0  0  0
 54 55  2  0  0  0
 54127  1  0  0  0
 55 57  1  0  0  0
 55128  1  0  0  0
 56 69  2  0  0  0
 57 58  2  0  0  0
 57129  1  0  0  0
 58130  1  0  0  0
 59 60  1  0  0  0
 59 61  1  0  0  0
 59 62  1  0  0  0
 60131  1  0  0  0
 60132  1  0  0  0
 60133  1  0  0  0
 61134  1  0  0  0
 61135  1  0  0  0
 61136  1  0  0  0
 62137  1  0  0  0
 62138  1  0  0  0
 62139  1  0  0  0
 63 65  1  0  0  0
 63140  1  0  0  0
 63141  1  0  0  0
 63142  1  0  0  0
 64143  1  0  0  0
 65144  1  0  0  0
 68 83  1  0  0  0
 71 72  2  0  0  0
 71 75  1  0  0  0
 71145  1  0  0  0
 72 76  1  0  0  0
 72146  1  0  0  0
 73 74  1  0  0  0
 73 76  2  0  0  0
 73147  1  0  0  0
 74 75  2  0  0  0
 74 81  1  0  0  0
 75 84  1  0  0  0
 76 85  1  0  0  0
 77 78  1  0  0  0
 77 79  1  0  0  0
 77148  1  0  0  0
 77149  1  0  0  0
 78 80  1  0  0  0
 78150  1  0  0  0
 78151  1  0  0  0
 79 84  1  0  0  0
 79152  1  0  0  0
 79153  1  0  0  0
 80 83  1  0  0  0
 80 84  1  0  0  0
 80154  1  0  0  0
 81155  1  0  0  0
 81156  1  0  0  0
 81157  1  0  0  0
 82 85  1  0  0  0
 82158  1  0  0  0
 82159  1  0  0  0
 82160  1  0  0  0
 83161  1  0  0  0
 83162  1  0  0  0
M  ISO  4   1 100  68 101  83 101  85 100
M  END
> <chiral flag>
0

> <version>
0

> <s_m_source_file>
/data/baiqing/PycharmProjects/Reinvent-master-3.2/result/LINK_invent/BTK/process_docking_weight1_custom_product_contain_oxygen_bond_distance_aromatic_linkinvent_7_9_3/rearranged_h_0021.sdf

> <i_m_source_file_index>
3

> <r_mmod_Potential_Energy-OPLS-2005>
774.242980957031

> <r_mmod_Stretch_Energy-OPLS-2005>
222.821502685547

> <r_mmod_Bend_Energy-OPLS-2005>
305.410247802734

> <r_mmod_Torsional_Energy-OPLS-2005>
413.574798583984

> <r_mmod_Improper_Torsional_Energy-OPLS-2005>
30.6150875091553

> <r_mmod_Van_der_Waal_Energy-OPLS-2005>
138.99382019043

> <r_mmod_Electrostatic_Energy-OPLS-2005>
-326.286590576172

> <r_mmod_Solvation_Energy-OPLS-2005>
-200.682464599609

> <b_mmod_Minimization_Converged-OPLS-2005>
0

> <r_mmod_RMS_Derivative-OPLS-2005>
1.87168872356415

$$$$
3
                    3D
 Structure written by MMmdl.
155163  0  0  1  0            999 V2000
  -30.5115  -14.9037   20.4400 C   0  0  0  0  0  0
  -30.4544  -12.5564   19.4902 C   0  0  0  0  0  0
  -29.5271  -12.5326   18.2510 C   0  0  0  0  0  0
  -28.0558  -12.3245   18.6627 C   0  0  0  0  0  0
  -27.6389  -13.2356   19.8463 C   0  0  2  0  0  0
  -28.6825  -13.2074   20.9842 C   0  0  0  0  0  0
  -25.2502  -13.8187   20.5688 C   0  0  0  0  0  0
  -24.1805  -13.0433   20.9225 C   0  0  0  0  0  0
  -24.6400  -11.6912   20.8748 C   0  0  0  0  0  0
  -23.9073  -10.4291   21.0407 C   0  0  0  0  0  0
  -24.3621   -9.4206   21.9185 C   0  0  0  0  0  0
  -23.6293   -8.2243   22.0754 C   0  0  0  0  0  0
  -22.4276   -8.0282   21.3544 C   0  0  0  0  0  0
  -21.9913   -9.0256   20.4648 C   0  0  0  0  0  0
  -22.7243  -10.2134   20.3058 C   0  0  0  0  0  0
  -21.6853   -6.0734   22.5279 C   0  0  0  0  0  0
  -21.4014   -6.5638   23.8212 C   0  0  0  0  0  0
  -21.3660   -5.6791   24.9174 C   0  0  0  0  0  0
  -21.6045   -4.3053   24.7224 C   0  0  0  0  0  0
  -21.8819   -3.8145   23.4345 C   0  0  0  0  0  0
  -21.9192   -4.6961   22.3401 C   0  0  0  0  0  0
  -22.7826  -13.5217   21.1880 C   0  0  0  0  0  0
  -22.1662   -4.2147   21.0977 F   0  0  0  0  0  0
  -21.5629   -3.4538   25.7736 F   0  0  0  0  0  0
  -29.9682  -13.6240   20.4041 N   0  0  0  0  0  0
  -26.2924  -12.9396   20.3241 N   0  0  0  0  0  0
  -25.9329  -11.6539   20.5724 N   0  0  0  0  0  0
  -22.0464  -12.8210   22.0432 N   0  0  0  0  0  0
  -25.4167  -15.1910   20.4067 N   0  0  0  0  0  0
  -31.7000  -15.0477   20.1304 O   0  0  0  0  0  0
  -21.6639   -6.8880   21.4243 O   0  0  0  0  0  0
  -22.3513  -14.5518   20.6715 O   0  0  0  0  0  0
  -24.6412  -31.8462   23.1905 C   0  0  0  0  0  0
  -25.9194  -32.4709   23.8285 C   0  0  1  0  0  0
  -27.2200  -27.1584   20.1514 C   0  0  0  0  0  0
  -25.5951  -33.8514   24.2203 N   0  0  0  0  0  0
  -23.4440  -30.4659   21.5359 C   0  0  2  0  0  0
  -24.8937  -28.8946   20.1145 C   0  0  0  0  0  0
  -22.7559  -29.4555   22.4876 C   0  0  0  0  0  0
  -18.0303  -28.1397   22.8474 C   0  0  0  0  0  0
  -24.1491  -36.7262   23.2641 C   0  0  0  0  0  0
  -25.9982  -30.7262   21.3871 C   0  0  0  0  0  0
  -26.0703  -29.3382   20.7316 C   0  0  0  0  0  0
  -27.2358  -28.4867   20.7327 C   0  0  0  0  0  0
  -26.0207  -26.8151   19.4895 C   0  0  0  0  0  0
  -24.8802  -27.6448   19.4784 C   0  0  0  0  0  0
  -23.6699  -29.7950   20.1555 C   0  0  0  0  0  0
  -25.4122  -36.3040   24.0318 C   0  0  1  0  0  0
  -20.5914  -28.3717   23.1242 C   0  0  2  0  0  0
  -20.6788  -26.9424   22.5407 C   0  0  0  0  0  0
  -19.5766  -26.6384   21.5211 C   0  0  0  0  0  0
  -18.1944  -26.7939   22.1615 C   0  0  0  0  0  0
  -19.1559  -28.8876   23.2851 C   0  0  0  0  0  0
  -18.9476  -30.1472   23.8879 C   0  0  0  0  0  0
  -17.6472  -30.6590   24.0566 C   0  0  0  0  0  0
  -25.9070  -34.9415   23.5068 C   0  0  0  0  0  0
  -16.5363  -29.9085   23.6338 C   0  0  0  0  0  0
  -16.7287  -28.6506   23.0354 C   0  0  0  0  0  0
  -26.4523  -31.6569   25.0718 C   0  0  0  0  0  0
  -25.3712  -31.3750   26.1417 C   0  0  0  0  0  0
  -27.0388  -30.2968   24.6285 C   0  0  0  0  0  0
  -27.6057  -32.4331   25.7502 C   0  0  0  0  0  0
  -27.5576  -37.1789   24.8465 C   0  0  0  0  0  0
  -21.4255  -29.3045   22.3623 N   0  0  0  0  0  0
  -26.4288  -37.3751   23.9406 N   0  0  0  0  0  0
  -24.7141  -31.0336   22.0930 N   0  0  0  0  0  0
  -23.4212  -28.8104   23.3020 O   0  0  0  0  0  0
  -28.2858  -26.1932   20.1808 O   0  0  0  0  0  0
  -26.5654  -34.8908   22.4644 O   0  0  0  0  0  0
  -23.5536  -32.1330   23.7136 O   0  0  0  0  0  0
  -30.5498  -18.5112   20.3962 C   0  0  0  0  0  0
  -30.2839  -19.9529   20.4115 C   0  0  0  0  0  0
  -28.2497  -18.1130   20.7044 C   0  0  0  0  0  0
  -27.9753  -19.5333   20.7111 C   0  0  0  0  0  0
  -29.5362  -17.5034   20.5677 C   0  0  0  0  0  0
  -28.9841  -20.5532   20.5926 C   0  0  0  0  0  0
  -26.5196  -19.9417   20.8868 C   0  0  0  0  0  0
  -28.3875  -22.1380   22.2940 C   0  0  0  0  0  0
  -28.9775  -23.3489   20.1876 C   0  0  0  0  0  0
  -28.0060  -24.6961   20.4734 C   0  0  0  0  0  0
  -29.6211  -15.9789   20.6550 N   0  0  0  0  0  0
  -28.6621  -21.9843   20.8649 N   0  0  0  0  0  0
  -31.4867  -12.7300   19.1819 H   0  0  0  0  0  0
  -30.4514  -11.5895   19.9956 H   0  0  0  0  0  0
  -29.8385  -11.7477   17.5605 H   0  0  0  0  0  0
  -29.6233  -13.4733   17.7066 H   0  0  0  0  0  0
  -27.9382  -11.2778   18.9452 H   0  0  0  0  0  0
  -27.3964  -12.4849   17.8088 H   0  0  0  0  0  0
  -27.6176  -14.2485   19.4439 H   0  0  0  0  0  0
  -28.7568  -12.2102   21.4207 H   0  0  0  0  0  0
  -28.3862  -13.8721   21.7971 H   0  0  0  0  0  0
  -25.2766   -9.5680   22.4759 H   0  0  0  0  0  0
  -24.0000   -7.4632   22.7473 H   0  0  0  0  0  0
  -21.0843   -8.8774   19.8954 H   0  0  0  0  0  0
  -22.3701  -10.9672   19.6167 H   0  0  0  0  0  0
  -21.2008   -7.6146   23.9713 H   0  0  0  0  0  0
  -21.1484   -6.0522   25.9076 H   0  0  0  0  0  0
  -22.0597   -2.7608   23.2844 H   0  0  0  0  0  0
  -22.4079  -11.9878   22.4832 H   0  0  0  0  0  0
  -21.1079  -13.1234   22.2628 H   0  0  0  0  0  0
  -24.6341  -15.8300   20.4945 H   0  0  0  0  0  0
  -26.2274  -15.6165   19.9788 H   0  0  0  0  0  0
  -26.7260  -32.5325   23.1016 H   0  0  0  0  0  0
  -25.0084  -33.9631   25.0342 H   0  0  0  0  0  0
  -22.7450  -31.2908   21.3827 H   0  0  0  0  0  0
  -23.3758  -35.9589   23.3293 H   0  0  0  0  0  0
  -24.3575  -36.8902   22.2056 H   0  0  0  0  0  0
  -23.7242  -37.6455   23.6681 H   0  0  0  0  0  0
  -26.1499  -31.4800   20.6135 H   0  0  0  0  0  0
  -26.8703  -30.7778   22.0275 H   0  0  0  0  0  0
  -28.1342  -28.8234   21.2307 H   0  0  0  0  0  0
  -25.9405  -25.8720   18.9704 H   0  0  0  0  0  0
  -23.9853  -27.3040   18.9760 H   0  0  0  0  0  0
  -23.8069  -30.5692   19.3997 H   0  0  0  0  0  0
  -22.7852  -29.2363   19.8445 H   0  0  0  0  0  0
  -25.1310  -36.1872   25.0811 H   0  0  0  0  0  0
  -21.0002  -28.3306   24.1367 H   0  0  0  0  0  0
  -20.5683  -26.2329   23.3623 H   0  0  0  0  0  0
  -21.6655  -26.7442   22.1205 H   0  0  0  0  0  0
  -19.6930  -25.6292   21.1246 H   0  0  0  0  0  0
  -19.6708  -27.3186   20.6736 H   0  0  0  0  0  0
  -17.4220  -26.6692   21.4013 H   0  0  0  0  0  0
  -18.0341  -26.0083   22.9014 H   0  0  0  0  0  0
  -19.7951  -30.7293   24.2237 H   0  0  0  0  0  0
  -17.5028  -31.6270   24.5174 H   0  0  0  0  0  0
  -15.5363  -30.2982   23.7674 H   0  0  0  0  0  0
  -15.8689  -28.0821   22.7073 H   0  0  0  0  0  0
  -24.5898  -30.7091   25.7737 H   0  0  0  0  0  0
  -24.8894  -32.2929   26.4792 H   0  0  0  0  0  0
  -25.8000  -30.8957   27.0226 H   0  0  0  0  0  0
  -26.3001  -29.6694   24.1285 H   0  0  0  0  0  0
  -27.4001  -29.7264   25.4851 H   0  0  0  0  0  0
  -27.8908  -30.4212   23.9598 H   0  0  0  0  0  0
  -27.2652  -33.3646   26.2034 H   0  0  0  0  0  0
  -28.3891  -32.6868   25.0349 H   0  0  0  0  0  0
  -28.0699  -31.8487   26.5456 H   0  0  0  0  0  0
  -28.2591  -38.0089   24.7511 H   0  0  0  0  0  0
  -28.1076  -36.2619   24.6296 H   0  0  0  0  0  0
  -27.2292  -37.1440   25.8868 H   0  0  0  0  0  0
  -20.9464  -29.8763   21.6806 H   0  0  0  0  0  0
  -26.0157  -38.2820   24.1409 H   0  0  0  0  0  0
  -31.5749  -18.1883   20.2824 H   0  0  0  0  0  0
  -31.1343  -20.6148   20.3350 H   0  0  0  0  0  0
  -27.4050  -17.4525   20.8354 H   0  0  0  0  0  0
  -25.8428  -19.1585   20.5445 H   0  0  0  0  0  0
  -26.2891  -20.8411   20.3149 H   0  0  0  0  0  0
  -26.3041  -20.1373   21.9369 H   0  0  0  0  0  0
  -28.5695  -21.2270   22.8676 H   0  0  0  0  0  0
  -27.3461  -22.4225   22.4506 H   0  0  0  0  0  0
  -29.0147  -22.9169   22.7301 H   0  0  0  0  0  0
  -29.9947  -23.6110   20.4809 H   0  0  0  0  0  0
  -29.0261  -23.1836   19.1107 H   0  0  0  0  0  0
  -27.8156  -24.7059   21.5461 H   0  0  0  0  0  0
  -27.0423  -24.4310   20.0456 H   0  0  0  0  0  0
  -28.7232  -15.5810   20.8819 H   0  0  0  0  0  0
  1 25  1  0  0  0
  1 30  2  0  0  0
  1 81  1  0  0  0
  2  3  1  0  0  0
  2 25  1  0  0  0
  2 83  1  0  0  0
  2 84  1  0  0  0
  3  4  1  0  0  0
  3 85  1  0  0  0
  3 86  1  0  0  0
  4  5  1  0  0  0
  4 87  1  0  0  0
  4 88  1  0  0  0
  5  6  1  0  0  0
  5 26  1  0  0  0
  5 89  1  0  0  0
  6 25  1  0  0  0
  6 90  1  0  0  0
  6 91  1  0  0  0
  7  8  2  0  0  0
  7 26  1  0  0  0
  7 29  1  0  0  0
  8  9  1  0  0  0
  8 22  1  0  0  0
  9 10  1  0  0  0
  9 27  2  0  0  0
 10 11  2  0  0  0
 10 15  1  0  0  0
 11 12  1  0  0  0
 11 92  1  0  0  0
 12 13  2  0  0  0
 12 93  1  0  0  0
 13 14  1  0  0  0
 13 31  1  0  0  0
 14 15  2  0  0  0
 14 94  1  0  0  0
 15 95  1  0  0  0
 16 17  2  0  0  0
 16 21  1  0  0  0
 16 31  1  0  0  0
 17 18  1  0  0  0
 17 96  1  0  0  0
 18 19  2  0  0  0
 18 97  1  0  0  0
 19 20  1  0  0  0
 19 24  1  0  0  0
 20 21  2  0  0  0
 20 98  1  0  0  0
 21 23  1  0  0  0
 22 28  1  0  0  0
 22 32  2  0  0  0
 26 27  1  0  0  0
 28 99  1  0  0  0
 28100  1  0  0  0
 29101  1  0  0  0
 29102  1  0  0  0
 33 34  1  0  0  0
 33 66  1  0  0  0
 33 70  2  0  0  0
 34 36  1  0  0  0
 34 59  1  0  0  0
 34103  1  0  0  0
 35 44  2  0  0  0
 35 45  1  0  0  0
 35 68  1  0  0  0
 36 56  1  0  0  0
 36104  1  0  0  0
 37 39  1  0  0  0
 37 47  1  0  0  0
 37 66  1  0  0  0
 37105  1  0  0  0
 38 43  2  0  0  0
 38 46  1  0  0  0
 38 47  1  0  0  0
 39 64  1  0  0  0
 39 67  2  0  0  0
 40 52  1  0  0  0
 40 53  2  0  0  0
 40 58  1  0  0  0
 41106  1  0  0  0
 41107  1  0  0  0
 41108  1  0  0  0
 41 48  1  0  0  0
 42 43  1  0  0  0
 42 66  1  0  0  0
 42109  1  0  0  0
 42110  1  0  0  0
 43 44  1  0  0  0
 44111  1  0  0  0
 45 46  2  0  0  0
 45112  1  0  0  0
 46113  1  0  0  0
 47114  1  0  0  0
 47115  1  0  0  0
 48 56  1  0  0  0
 48 65  1  0  0  0
 48116  1  0  0  0
 49 50  1  0  0  0
 49 53  1  0  0  0
 49 64  1  0  0  0
 49117  1  0  0  0
 50 51  1  0  0  0
 50118  1  0  0  0
 50119  1  0  0  0
 51 52  1  0  0  0
 51120  1  0  0  0
 51121  1  0  0  0
 52122  1  0  0  0
 52123  1  0  0  0
 53 54  1  0  0  0
 54 55  2  0  0  0
 54124  1  0  0  0
 55 57  1  0  0  0
 55125  1  0  0  0
 56 69  2  0  0  0
 57 58  2  0  0  0
 57126  1  0  0  0
 58127  1  0  0  0
 59 60  1  0  0  0
 59 61  1  0  0  0
 59 62  1  0  0  0
 60128  1  0  0  0
 60129  1  0  0  0
 60130  1  0  0  0
 61131  1  0  0  0
 61132  1  0  0  0
 61133  1  0  0  0
 62134  1  0  0  0
 62135  1  0  0  0
 62136  1  0  0  0
 63 65  1  0  0  0
 63137  1  0  0  0
 63138  1  0  0  0
 63139  1  0  0  0
 64140  1  0  0  0
 65141  1  0  0  0
 68 80  1  0  0  0
 71 72  2  0  0  0
 71 75  1  0  0  0
 71142  1  0  0  0
 72 76  1  0  0  0
 72143  1  0  0  0
 73 74  1  0  0  0
 73 75  2  0  0  0
 73144  1  0  0  0
 74 76  2  0  0  0
 74 77  1  0  0  0
 75 81  1  0  0  0
 76 82  1  0  0  0
 77145  1  0  0  0
 77146  1  0  0  0
 77147  1  0  0  0
 78 82  1  0  0  0
 78148  1  0  0  0
 78149  1  0  0  0
 78150  1  0  0  0
 79 80  1  0  0  0
 79 82  1  0  0  0
 79151  1  0  0  0
 79152  1  0  0  0
 80153  1  0  0  0
 80154  1  0  0  0
 81155  1  0  0  0
M  ISO  4   1 100  68 101  80 101  81 100
M  END
> <chiral flag>
0

> <version>
0

> <s_m_source_file>
/data/baiqing/PycharmProjects/Reinvent-master-3.2/result/LINK_invent/BTK/process_docking_weight1_custom_product_contain_oxygen_bond_distance_aromatic_linkinvent_7_9_3/rearranged_h_0021.sdf

> <i_m_source_file_index>
4

> <r_mmod_Potential_Energy-OPLS-2005>
439.221496582031

> <r_mmod_Stretch_Energy-OPLS-2005>
210.651062011719

> <r_mmod_Bend_Energy-OPLS-2005>
276.668182373047

> <r_mmod_Torsional_Energy-OPLS-2005>
245.005493164062

> <r_mmod_Improper_Torsional_Energy-OPLS-2005>
7.2226448059082

> <r_mmod_Van_der_Waal_Energy-OPLS-2005>
136.267471313477

> <r_mmod_Electrostatic_Energy-OPLS-2005>
-385.012603759766

> <r_mmod_Solvation_Energy-OPLS-2005>
-218.010757446289

> <b_mmod_Minimization_Converged-OPLS-2005>
0

> <r_mmod_RMS_Derivative-OPLS-2005>
0.500055015087128

$$$$
4
                    3D
 Structure written by MMmdl.
151159  0  0  1  0            999 V2000
  -30.4059  -15.2711   20.3895 C   0  0  0  0  0  0
  -30.4442  -12.8123   19.5382 C   0  0  0  0  0  0
  -29.5454  -12.5991   18.2923 C   0  0  0  0  0  0
  -28.0920  -12.3134   18.7095 C   0  0  0  0  0  0
  -27.6148  -13.2743   19.8279 C   0  0  2  0  0  0
  -28.6436  -13.4325   20.9684 C   0  0  0  0  0  0
  -25.2356  -13.8187   20.5658 C   0  0  0  0  0  0
  -24.1730  -13.0393   20.9252 C   0  0  0  0  0  0
  -24.6410  -11.6899   20.8755 C   0  0  0  0  0  0
  -23.9091  -10.4267   21.0395 C   0  0  0  0  0  0
  -24.3634   -9.4187   21.9180 C   0  0  0  0  0  0
  -23.6293   -8.2228   22.0752 C   0  0  0  0  0  0
  -22.4277   -8.0271   21.3538 C   0  0  0  0  0  0
  -21.9917   -9.0246   20.4639 C   0  0  0  0  0  0
  -22.7257  -10.2117   20.3049 C   0  0  0  0  0  0
  -21.6856   -6.0721   22.5278 C   0  0  0  0  0  0
  -21.4009   -6.5622   23.8204 C   0  0  0  0  0  0
  -21.3663   -5.6783   24.9172 C   0  0  0  0  0  0
  -21.6053   -4.3048   24.7227 C   0  0  0  0  0  0
  -21.8818   -3.8129   23.4348 C   0  0  0  0  0  0
  -21.9191   -4.6944   22.3405 C   0  0  0  0  0  0
  -22.7757  -13.5162   21.1902 C   0  0  0  0  0  0
  -22.1663   -4.2128   21.0985 F   0  0  0  0  0  0
  -21.5633   -3.4536   25.7742 F   0  0  0  0  0  0
  -29.8811  -13.9468   20.3581 N   0  0  0  0  0  0
  -26.2821  -12.9492   20.3190 N   0  0  0  0  0  0
  -25.9354  -11.6603   20.5712 N   0  0  0  0  0  0
  -22.0409  -12.8161   22.0461 N   0  0  0  0  0  0
  -25.3873  -15.1892   20.3921 N   0  0  0  0  0  0
  -31.6201  -15.3070   20.1415 O   0  0  0  0  0  0
  -21.6642   -6.8864   21.4242 O   0  0  0  0  0  0
  -22.3455  -14.5478   20.6747 O   0  0  0  0  0  0
  -24.6631  -31.8235   23.1686 C   0  0  0  0  0  0
  -25.9320  -32.4591   23.8141 C   0  0  1  0  0  0
  -27.2216  -26.9209   20.1911 C   0  0  0  0  0  0
  -25.5991  -33.8407   24.2039 N   0  0  0  0  0  0
  -23.4808  -30.4358   21.5156 C   0  0  2  0  0  0
  -24.9373  -28.8223   20.1133 C   0  0  0  0  0  0
  -22.7674  -29.4454   22.4737 C   0  0  0  0  0  0
  -18.0335  -28.1444   22.8469 C   0  0  0  0  0  0
  -24.1481  -36.7185   23.2638 C   0  0  0  0  0  0
  -26.0510  -30.6257   21.4059 C   0  0  0  0  0  0
  -26.1188  -29.2140   20.7546 C   0  0  0  0  0  0
  -27.2543  -28.2834   20.7755 C   0  0  0  0  0  0
  -26.0120  -26.6903   19.4950 C   0  0  0  0  0  0
  -24.9075  -27.5791   19.4649 C   0  0  0  0  0  0
  -23.7255  -29.7525   20.1422 C   0  0  0  0  0  0
  -25.4114  -36.2951   24.0299 C   0  0  1  0  0  0
  -20.5958  -28.3787   23.1175 C   0  0  2  0  0  0
  -20.6816  -26.9465   22.5399 C   0  0  0  0  0  0
  -19.5784  -26.6399   21.5226 C   0  0  0  0  0  0
  -18.1962  -26.7974   22.1628 C   0  0  0  0  0  0
  -19.1601  -28.8930   23.2814 C   0  0  0  0  0  0
  -18.9524  -30.1521   23.8861 C   0  0  0  0  0  0
  -17.6519  -30.6629   24.0571 C   0  0  0  0  0  0
  -25.9107  -34.9359   23.4982 C   0  0  0  0  0  0
  -16.5404  -29.9127   23.6367 C   0  0  0  0  0  0
  -16.7319  -28.6552   23.0371 C   0  0  0  0  0  0
  -26.4561  -31.6553   25.0686 C   0  0  0  0  0  0
  -25.3673  -31.3850   26.1331 C   0  0  0  0  0  0
  -27.0435  -30.2906   24.6445 C   0  0  0  0  0  0
  -27.6071  -32.4338   25.7474 C   0  0  0  0  0  0
  -27.5582  -37.1689   24.8433 C   0  0  0  0  0  0
  -21.4342  -29.3065   22.3503 N   0  0  0  0  0  0
  -26.4217  -37.3725   23.9485 N   0  0  0  0  0  0
  -24.7526  -30.9885   22.0839 N   0  0  0  0  0  0
  -23.4214  -28.8010   23.2980 O   0  0  0  0  0  0
  -28.2098  -25.7984   20.2457 O   0  0  0  0  0  0
  -26.5716  -34.8908   22.4575 O   0  0  0  0  0  0
  -23.5697  -32.1230   23.6754 O   0  0  0  0  0  0
  -28.1026  -20.3919   20.6534 C   0  0  0  0  0  0
  -30.3095  -20.6004   20.1214 C   0  0  0  0  0  0
  -28.2807  -18.9038   20.7160 C   0  0  0  0  0  0
  -29.1009  -21.4091   20.3483 C   0  0  0  0  0  0
  -29.4993  -18.1110   20.4656 C   0  0  0  0  0  0
  -30.5083  -19.1211   20.1658 C   0  0  0  0  0  0
  -27.9228  -24.1275   20.3528 C   0  0  0  0  0  0
  -27.0384  -18.1148   21.0885 C   0  0  0  0  0  0
  -30.3555  -23.6274   20.0740 C   0  0  0  0  0  0
  -29.5574  -16.4805   20.5330 N   0  0  0  0  0  0
  -29.0266  -23.0463   20.2787 N   0  0  0  0  0  0
  -26.7537  -23.7681   20.5055 O   0  0  0  0  0  0
  -32.1060  -18.5639   19.8289 Cl  0  0  0  0  0  0
  -31.4656  -13.0240   19.2185 H   0  0  0  0  0  0
  -30.5068  -11.8976   20.1310 H   0  0  0  0  0  0
  -29.9313  -11.7831   17.6804 H   0  0  0  0  0  0
  -29.5764  -13.4935   17.6668 H   0  0  0  0  0  0
  -28.0483  -11.2837   19.0658 H   0  0  0  0  0  0
  -27.4281  -12.3691   17.8462 H   0  0  0  0  0  0
  -27.5342  -14.2472   19.3428 H   0  0  0  0  0  0
  -28.8046  -12.4919   21.4977 H   0  0  0  0  0  0
  -28.2770  -14.1435   21.7105 H   0  0  0  0  0  0
  -25.2781   -9.5662   22.4758 H   0  0  0  0  0  0
  -23.9995   -7.4624   22.7483 H   0  0  0  0  0  0
  -21.0844   -8.8776   19.8949 H   0  0  0  0  0  0
  -22.3726  -10.9660   19.6155 H   0  0  0  0  0  0
  -21.2000   -7.6130   23.9703 H   0  0  0  0  0  0
  -21.1490   -6.0513   25.9074 H   0  0  0  0  0  0
  -22.0593   -2.7588   23.2861 H   0  0  0  0  0  0
  -22.4031  -11.9840   22.4884 H   0  0  0  0  0  0
  -21.1024  -13.1188   22.2650 H   0  0  0  0  0  0
  -24.5741  -15.7940   20.4099 H   0  0  0  0  0  0
  -26.1730  -15.5986   19.9073 H   0  0  0  0  0  0
  -26.7381  -32.5128   23.0848 H   0  0  0  0  0  0
  -25.0121  -33.9477   25.0176 H   0  0  0  0  0  0
  -22.7958  -31.2674   21.3389 H   0  0  0  0  0  0
  -23.3818  -35.9429   23.3138 H   0  0  0  0  0  0
  -24.3599  -36.8993   22.2089 H   0  0  0  0  0  0
  -23.7123  -37.6273   23.6800 H   0  0  0  0  0  0
  -26.2317  -31.3639   20.6237 H   0  0  0  0  0  0
  -26.9114  -30.6832   22.0606 H   0  0  0  0  0  0
  -28.1467  -28.5797   21.3081 H   0  0  0  0  0  0
  -25.8853  -25.7456   18.9863 H   0  0  0  0  0  0
  -24.0127  -27.2721   18.9418 H   0  0  0  0  0  0
  -23.8862  -30.5205   19.3840 H   0  0  0  0  0  0
  -22.8381  -29.2068   19.8187 H   0  0  0  0  0  0
  -25.1278  -36.1709   25.0777 H   0  0  0  0  0  0
  -21.0056  -28.3409   24.1294 H   0  0  0  0  0  0
  -20.5732  -26.2397   23.3644 H   0  0  0  0  0  0
  -21.6677  -26.7450   22.1180 H   0  0  0  0  0  0
  -19.6949  -25.6292   21.1287 H   0  0  0  0  0  0
  -19.6741  -27.3178   20.6728 H   0  0  0  0  0  0
  -17.4229  -26.6733   21.4039 H   0  0  0  0  0  0
  -18.0358  -26.0136   22.9043 H   0  0  0  0  0  0
  -19.8000  -30.7342   24.2214 H   0  0  0  0  0  0
  -17.5081  -31.6314   24.5170 H   0  0  0  0  0  0
  -15.5409  -30.3027   23.7728 H   0  0  0  0  0  0
  -15.8713  -28.0866   22.7117 H   0  0  0  0  0  0
  -24.5835  -30.7244   25.7612 H   0  0  0  0  0  0
  -24.8915  -32.3090   26.4638 H   0  0  0  0  0  0
  -25.7857  -30.9060   27.0191 H   0  0  0  0  0  0
  -26.3099  -29.6585   24.1437 H   0  0  0  0  0  0
  -27.3935  -29.7278   25.5106 H   0  0  0  0  0  0
  -27.9051  -30.4069   23.9869 H   0  0  0  0  0  0
  -27.2714  -33.3759   26.1816 H   0  0  0  0  0  0
  -28.4009  -32.6678   25.0367 H   0  0  0  0  0  0
  -28.0585  -31.8602   26.5579 H   0  0  0  0  0  0
  -28.2390  -38.0182   24.7741 H   0  0  0  0  0  0
  -28.1265  -36.2731   24.5892 H   0  0  0  0  0  0
  -27.2359  -37.0876   25.8826 H   0  0  0  0  0  0
  -20.9601  -29.8750   21.6622 H   0  0  0  0  0  0
  -26.0047  -38.2715   24.1722 H   0  0  0  0  0  0
  -27.1133  -20.7709   20.8715 H   0  0  0  0  0  0
  -31.2080  -21.1473   19.8834 H   0  0  0  0  0  0
  -26.2812  -18.7460   21.5540 H   0  0  0  0  0  0
  -27.2701  -17.3199   21.7983 H   0  0  0  0  0  0
  -26.6011  -17.6694   20.1961 H   0  0  0  0  0  0
  -31.0426  -23.2721   20.8436 H   0  0  0  0  0  0
  -30.3915  -24.7161   20.1106 H   0  0  0  0  0  0
  -30.7474  -23.3289   19.1011 H   0  0  0  0  0  0
  -28.6328  -16.1330   20.7316 H   0  0  0  0  0  0
  1 25  1  0  0  0
  1 30  2  0  0  0
  1 80  1  0  0  0
  2  3  1  0  0  0
  2 25  1  0  0  0
  2 84  1  0  0  0
  2 85  1  0  0  0
  3  4  1  0  0  0
  3 86  1  0  0  0
  3 87  1  0  0  0
  4  5  1  0  0  0
  4 88  1  0  0  0
  4 89  1  0  0  0
  5  6  1  0  0  0
  5 26  1  0  0  0
  5 90  1  0  0  0
  6 25  1  0  0  0
  6 91  1  0  0  0
  6 92  1  0  0  0
  7  8  2  0  0  0
  7 26  1  0  0  0
  7 29  1  0  0  0
  8  9  1  0  0  0
  8 22  1  0  0  0
  9 10  1  0  0  0
  9 27  2  0  0  0
 10 11  2  0  0  0
 10 15  1  0  0  0
 11 12  1  0  0  0
 11 93  1  0  0  0
 12 13  2  0  0  0
 12 94  1  0  0  0
 13 14  1  0  0  0
 13 31  1  0  0  0
 14 15  2  0  0  0
 14 95  1  0  0  0
 15 96  1  0  0  0
 16 17  2  0  0  0
 16 21  1  0  0  0
 16 31  1  0  0  0
 17 18  1  0  0  0
 17 97  1  0  0  0
 18 19  2  0  0  0
 18 98  1  0  0  0
 19 20  1  0  0  0
 19 24  1  0  0  0
 20 21  2  0  0  0
 20 99  1  0  0  0
 21 23  1  0  0  0
 22 28  1  0  0  0
 22 32  2  0  0  0
 26 27  1  0  0  0
 28100  1  0  0  0
 28101  1  0  0  0
 29102  1  0  0  0
 29103  1  0  0  0
 33 34  1  0  0  0
 33 66  1  0  0  0
 33 70  2  0  0  0
 34 36  1  0  0  0
 34 59  1  0  0  0
 34104  1  0  0  0
 35 44  2  0  0  0
 35 45  1  0  0  0
 35 68  1  0  0  0
 36 56  1  0  0  0
 36105  1  0  0  0
 37 39  1  0  0  0
 37 47  1  0  0  0
 37 66  1  0  0  0
 37106  1  0  0  0
 38 43  2  0  0  0
 38 46  1  0  0  0
 38 47  1  0  0  0
 39 64  1  0  0  0
 39 67  2  0  0  0
 40 52  1  0  0  0
 40 53  2  0  0  0
 40 58  1  0  0  0
 41107  1  0  0  0
 41108  1  0  0  0
 41109  1  0  0  0
 41 48  1  0  0  0
 42 43  1  0  0  0
 42 66  1  0  0  0
 42110  1  0  0  0
 42111  1  0  0  0
 43 44  1  0  0  0
 44112  1  0  0  0
 45 46  2  0  0  0
 45113  1  0  0  0
 46114  1  0  0  0
 47115  1  0  0  0
 47116  1  0  0  0
 48 56  1  0  0  0
 48 65  1  0  0  0
 48117  1  0  0  0
 49 50  1  0  0  0
 49 53  1  0  0  0
 49 64  1  0  0  0
 49118  1  0  0  0
 50 51  1  0  0  0
 50119  1  0  0  0
 50120  1  0  0  0
 51 52  1  0  0  0
 51121  1  0  0  0
 51122  1  0  0  0
 52123  1  0  0  0
 52124  1  0  0  0
 53 54  1  0  0  0
 54 55  2  0  0  0
 54125  1  0  0  0
 55 57  1  0  0  0
 55126  1  0  0  0
 56 69  2  0  0  0
 57 58  2  0  0  0
 57127  1  0  0  0
 58128  1  0  0  0
 59 60  1  0  0  0
 59 61  1  0  0  0
 59 62  1  0  0  0
 60129  1  0  0  0
 60130  1  0  0  0
 60131  1  0  0  0
 61132  1  0  0  0
 61133  1  0  0  0
 61134  1  0  0  0
 62135  1  0  0  0
 62136  1  0  0  0
 62137  1  0  0  0
 63 65  1  0  0  0
 63138  1  0  0  0
 63139  1  0  0  0
 63140  1  0  0  0
 64141  1  0  0  0
 65142  1  0  0  0
 68 77  1  0  0  0
 71 73  2  0  0  0
 71 74  1  0  0  0
 71143  1  0  0  0
 72 74  2  0  0  0
 72 76  1  0  0  0
 72144  1  0  0  0
 73 75  1  0  0  0
 73 78  1  0  0  0
 74 81  1  0  0  0
 75 76  2  0  0  0
 75 80  1  0  0  0
 76 83  1  0  0  0
 77 81  1  0  0  0
 77 82  2  0  0  0
 78145  1  0  0  0
 78146  1  0  0  0
 78147  1  0  0  0
 79 81  1  0  0  0
 79148  1  0  0  0
 79149  1  0  0  0
 79150  1  0  0  0
 80151  1  0  0  0
M  ISO  4   1 100  68 101  77 101  80 100
M  END
> <chiral flag>
0

> <version>
0

> <s_m_source_file>
/data/baiqing/PycharmProjects/Reinvent-master-3.2/result/LINK_invent/BTK/process_docking_weight1_custom_product_contain_oxygen_bond_distance_aromatic_linkinvent_7_9_3/rearranged_h_0021.sdf

> <i_m_source_file_index>
5

> <r_mmod_Potential_Energy-OPLS-2005>
1230.58166503906

> <r_mmod_Stretch_Energy-OPLS-2005>
568.364318847656

> <r_mmod_Bend_Energy-OPLS-2005>
419.877593994141

> <r_mmod_Torsional_Energy-OPLS-2005>
222.036987304688

> <r_mmod_Improper_Torsional_Energy-OPLS-2005>
4.60438585281372

> <r_mmod_Van_der_Waal_Energy-OPLS-2005>
130.194778442383

> <r_mmod_Electrostatic_Energy-OPLS-2005>
-367.693176269531

> <r_mmod_Solvation_Energy-OPLS-2005>
-217.432250976562

> <b_mmod_Minimization_Converged-OPLS-2005>
0

> <r_mmod_RMS_Derivative-OPLS-2005>
1.89134931564331

$$$$
5
                    3D
 Structure written by MMmdl.
164173  0  0  1  0            999 V2000
  -30.6430  -14.5947   20.5192 C   0  0  0  0  0  0
  -30.4473  -12.3878   19.4110 C   0  0  0  0  0  0
  -29.5050  -12.5084   18.1976 C   0  0  0  0  0  0
  -28.0265  -12.3405   18.6120 C   0  0  0  0  0  0
  -27.6497  -13.2064   19.8485 C   0  0  2  0  0  0
  -28.6989  -13.0775   20.9734 C   0  0  0  0  0  0
  -25.2597  -13.8164   20.5669 C   0  0  0  0  0  0
  -24.1843  -13.0516   20.9234 C   0  0  0  0  0  0
  -24.6332  -11.6942   20.8763 C   0  0  0  0  0  0
  -23.8964  -10.4338   21.0405 C   0  0  0  0  0  0
  -24.3546   -9.4279   21.9213 C   0  0  0  0  0  0
  -23.6279   -8.2275   22.0770 C   0  0  0  0  0  0
  -22.4273   -8.0256   21.3544 C   0  0  0  0  0  0
  -21.9870   -9.0220   20.4651 C   0  0  0  0  0  0
  -22.7124  -10.2145   20.3064 C   0  0  0  0  0  0
  -21.6867   -6.0703   22.5277 C   0  0  0  0  0  0
  -21.3992   -6.5611   23.8202 C   0  0  0  0  0  0
  -21.3661   -5.6773   24.9178 C   0  0  0  0  0  0
  -21.6065   -4.3034   24.7238 C   0  0  0  0  0  0
  -21.8839   -3.8126   23.4356 C   0  0  0  0  0  0
  -21.9201   -4.6935   22.3406 C   0  0  0  0  0  0
  -22.7844  -13.5373   21.1742 C   0  0  0  0  0  0
  -22.1684   -4.2129   21.0973 F   0  0  0  0  0  0
  -21.5646   -3.4507   25.7744 F   0  0  0  0  0  0
  -30.0104  -13.3948   20.3926 N   0  0  0  0  0  0
  -26.2980  -12.9297   20.3268 N   0  0  0  0  0  0
  -25.9261  -11.6488   20.5770 N   0  0  0  0  0  0
  -22.0217  -12.8550   22.0188 N   0  0  0  0  0  0
  -25.4425  -15.1891   20.3989 N   0  0  0  0  0  0
  -31.8405  -14.7385   20.2577 O   0  0  0  0  0  0
  -21.6670   -6.8828   21.4223 O   0  0  0  0  0  0
  -22.3631  -14.5613   20.6370 O   0  0  0  0  0  0
  -24.6206  -31.8673   23.2171 C   0  0  0  0  0  0
  -25.9102  -32.4826   23.8468 C   0  0  1  0  0  0
  -27.2094  -27.3740   20.0857 C   0  0  0  0  0  0
  -25.5969  -33.8630   24.2393 N   0  0  0  0  0  0
  -23.4065  -30.4972   21.5561 C   0  0  2  0  0  0
  -24.8501  -28.9657   20.1080 C   0  0  0  0  0  0
  -22.7419  -29.4693   22.5001 C   0  0  0  0  0  0
  -18.0253  -28.1370   22.8507 C   0  0  0  0  0  0
  -24.1494  -36.7318   23.2625 C   0  0  0  0  0  0
  -25.9457  -30.8046   21.3912 C   0  0  0  0  0  0
  -26.0137  -29.4381   20.7271 C   0  0  0  0  0  0
  -27.1945  -28.6454   20.7238 C   0  0  0  0  0  0
  -26.0332  -26.9532   19.4288 C   0  0  0  0  0  0
  -24.8605  -27.7258   19.4507 C   0  0  0  0  0  0
  -23.6158  -29.8379   20.1675 C   0  0  0  0  0  0
  -25.4119  -36.3123   24.0323 C   0  0  1  0  0  0
  -20.5868  -28.3673   23.1324 C   0  0  2  0  0  0
  -20.6769  -26.9425   22.5397 C   0  0  0  0  0  0
  -19.5728  -26.6379   21.5228 C   0  0  0  0  0  0
  -18.1908  -26.7905   22.1623 C   0  0  0  0  0  0
  -19.1520  -28.8830   23.2892 C   0  0  0  0  0  0
  -18.9436  -30.1437   23.8904 C   0  0  0  0  0  0
  -17.6450  -30.6581   24.0575 C   0  0  0  0  0  0
  -25.9045  -34.9478   23.5128 C   0  0  0  0  0  0
  -16.5334  -29.9086   23.6357 C   0  0  0  0  0  0
  -16.7242  -28.6492   23.0383 C   0  0  0  0  0  0
  -26.4516  -31.6593   25.0800 C   0  0  0  0  0  0
  -25.3773  -31.3707   26.1533 C   0  0  0  0  0  0
  -27.0377  -30.3022   24.6256 C   0  0  0  0  0  0
  -27.6103  -32.4273   25.7549 C   0  0  0  0  0  0
  -27.5591  -37.1829   24.8457 C   0  0  0  0  0  0
  -21.4150  -29.3072   22.3775 N   0  0  0  0  0  0
  -26.4309  -37.3809   23.9389 N   0  0  0  0  0  0
  -24.6736  -31.0734   22.1111 N   0  0  0  0  0  0
  -23.4169  -28.8197   23.3020 O   0  0  0  0  0  0
  -28.3471  -26.5706   20.1073 O   0  0  0  0  0  0
  -26.5566  -34.8905   22.4670 O   0  0  0  0  0  0
  -23.5390  -32.1462   23.7535 O   0  0  0  0  0  0
  -30.9455  -18.3018   23.0575 C   0  0  0  0  0  0
  -30.2541  -19.4378   22.5908 C   0  0  0  0  0  0
  -30.8511  -17.0767   22.3732 C   0  0  0  0  0  0
  -29.3884  -18.1460   20.7276 C   0  0  0  0  0  0
  -29.5112  -19.4115   21.3856 C   0  0  0  0  0  0
  -30.0486  -16.9675   21.2111 C   0  0  0  0  0  0
  -29.6645  -23.1393   21.0658 C   0  0  0  0  0  0
  -29.1700  -24.4088   20.9358 C   0  0  0  0  0  0
  -30.8997  -22.8676   21.8929 C   0  0  0  0  0  0
  -31.7422  -21.8946   21.0493 C   0  0  0  0  0  0
  -30.8626  -21.5374   19.8375 C   0  0  0  0  0  0
  -28.4640  -24.7219   18.4997 C   0  0  0  0  0  0
  -28.7506  -20.7001   20.9036 C   0  0  0  0  0  0
  -28.2090  -25.1154   19.9678 C   0  0  2  0  0  0
  -29.8129  -15.6713   20.6270 N   0  0  0  0  0  0
  -29.4860  -21.8644   20.2560 N   0  3  2  0  0  0
  -31.4748  -12.5607   19.0839 H   0  0  0  0  0  0
  -30.4348  -11.3848   19.8409 H   0  0  0  0  0  0
  -29.7695  -11.7742   17.4350 H   0  0  0  0  0  0
  -29.6518  -13.4892   17.7370 H   0  0  0  0  0  0
  -27.8585  -11.2836   18.8277 H   0  0  0  0  0  0
  -27.3835  -12.5860   17.7670 H   0  0  0  0  0  0
  -27.6573  -14.2390   19.5044 H   0  0  0  0  0  0
  -28.7069  -12.0701   21.3910 H   0  0  0  0  0  0
  -28.4543  -13.7511   21.7981 H   0  0  0  0  0  0
  -25.2661   -9.5843   22.4813 H   0  0  0  0  0  0
  -24.0022   -7.4681   22.7497 H   0  0  0  0  0  0
  -21.0812   -8.8670   19.8939 H   0  0  0  0  0  0
  -22.3525  -10.9664   19.6178 H   0  0  0  0  0  0
  -21.1933   -7.6117   23.9702 H   0  0  0  0  0  0
  -21.1487   -6.0492   25.9078 H   0  0  0  0  0  0
  -22.0616   -2.7591   23.2859 H   0  0  0  0  0  0
  -22.3626  -12.0447   22.5170 H   0  0  0  0  0  0
  -21.0702  -13.1602   22.1710 H   0  0  0  0  0  0
  -24.6906  -15.8579   20.5076 H   0  0  0  0  0  0
  -26.2975  -15.6093   20.0565 H   0  0  0  0  0  0
  -26.7169  -32.5505   23.1222 H   0  0  0  0  0  0
  -25.0311  -33.9823   25.0664 H   0  0  0  0  0  0
  -22.6976  -31.3157   21.4250 H   0  0  0  0  0  0
  -23.3771  -35.9641   23.3285 H   0  0  0  0  0  0
  -24.3619  -36.8945   22.2052 H   0  0  0  0  0  0
  -23.7224  -37.6508   23.6637 H   0  0  0  0  0  0
  -26.0865  -31.5766   20.6344 H   0  0  0  0  0  0
  -26.8221  -30.8457   22.0246 H   0  0  0  0  0  0
  -28.0766  -28.9941   21.2402 H   0  0  0  0  0  0
  -25.9997  -26.0244   18.8800 H   0  0  0  0  0  0
  -23.9791  -27.3771   18.9308 H   0  0  0  0  0  0
  -23.7206  -30.6187   19.4148 H   0  0  0  0  0  0
  -22.7371  -29.2600   19.8739 H   0  0  0  0  0  0
  -25.1314  -36.2029   25.0823 H   0  0  0  0  0  0
  -20.9922  -28.3212   24.1453 H   0  0  0  0  0  0
  -20.5781  -26.2280   23.3574 H   0  0  0  0  0  0
  -21.6632  -26.7546   22.1142 H   0  0  0  0  0  0
  -19.6933  -25.6303   21.1233 H   0  0  0  0  0  0
  -19.6655  -27.3213   20.6783 H   0  0  0  0  0  0
  -17.4214  -26.6704   21.3988 H   0  0  0  0  0  0
  -18.0277  -26.0011   22.8972 H   0  0  0  0  0  0
  -19.7915  -30.7250   24.2270 H   0  0  0  0  0  0
  -17.5007  -31.6287   24.5135 H   0  0  0  0  0  0
  -15.5345  -30.3002   23.7653 H   0  0  0  0  0  0
  -15.8632  -28.0803   22.7131 H   0  0  0  0  0  0
  -24.5961  -30.7049   25.7870 H   0  0  0  0  0  0
  -24.8957  -32.2860   26.4961 H   0  0  0  0  0  0
  -25.8112  -30.8894   27.0302 H   0  0  0  0  0  0
  -26.2997  -29.6739   24.1274 H   0  0  0  0  0  0
  -27.4083  -29.7310   25.4779 H   0  0  0  0  0  0
  -27.8842  -30.4314   23.9516 H   0  0  0  0  0  0
  -27.2779  -33.3556   26.2171 H   0  0  0  0  0  0
  -28.3896  -32.6822   25.0369 H   0  0  0  0  0  0
  -28.0781  -31.8363   26.5425 H   0  0  0  0  0  0
  -28.2613  -38.0125   24.7554 H   0  0  0  0  0  0
  -28.1083  -36.2676   24.6239 H   0  0  0  0  0  0
  -27.2306  -37.1428   25.8851 H   0  0  0  0  0  0
  -20.9294  -29.8854   21.7066 H   0  0  0  0  0  0
  -26.0211  -38.2899   24.1345 H   0  0  0  0  0  0
  -31.5333  -18.3655   23.9636 H   0  0  0  0  0  0
  -30.3174  -20.3389   23.1805 H   0  0  0  0  0  0
  -31.3552  -16.2157   22.7876 H   0  0  0  0  0  0
  -28.7464  -18.0805   19.8591 H   0  0  0  0  0  0
  -29.6076  -25.1212   21.6193 H   0  0  0  0  0  0
  -30.6019  -22.4640   22.8610 H   0  0  0  0  0  0
  -31.4474  -23.7908   22.0880 H   0  0  0  0  0  0
  -32.0061  -21.0101   21.6247 H   0  0  0  0  0  0
  -32.6813  -22.3473   20.7299 H   0  0  0  0  0  0
  -31.0047  -20.5185   19.4747 H   0  0  0  0  0  0
  -31.1126  -22.2023   19.0059 H   0  0  0  0  0  0
  -29.4404  -25.0655   18.1567 H   0  0  0  0  0  0
  -27.7242  -25.1521   17.8281 H   0  0  0  0  0  0
  -28.4200  -23.6449   18.3521 H   0  0  0  0  0  0
  -28.1794  -21.0766   21.7529 H   0  0  0  0  0  0
  -28.0007  -20.3677   20.1862 H   0  0  0  0  0  0
  -27.2119  -24.7907   20.2724 H   0  0  0  0  0  0
  -28.8549  -15.4795   20.3767 H   0  0  0  0  0  0
  -28.9688  -22.0625   19.4147 H   0  0  0  0  0  0
  1 25  1  0  0  0
  1 30  2  0  0  0
  1 85  1  0  0  0
  2  3  1  0  0  0
  2 25  1  0  0  0
  2 87  1  0  0  0
  2 88  1  0  0  0
  3  4  1  0  0  0
  3 89  1  0  0  0
  3 90  1  0  0  0
  4  5  1  0  0  0
  4 91  1  0  0  0
  4 92  1  0  0  0
  5  6  1  0  0  0
  5 26  1  0  0  0
  5 93  1  0  0  0
  6 25  1  0  0  0
  6 94  1  0  0  0
  6 95  1  0  0  0
  7  8  2  0  0  0
  7 26  1  0  0  0
  7 29  1  0  0  0
  8  9  1  0  0  0
  8 22  1  0  0  0
  9 10  1  0  0  0
  9 27  2  0  0  0
 10 11  2  0  0  0
 10 15  1  0  0  0
 11 12  1  0  0  0
 11 96  1  0  0  0
 12 13  2  0  0  0
 12 97  1  0  0  0
 13 14  1  0  0  0
 13 31  1  0  0  0
 14 15  2  0  0  0
 14 98  1  0  0  0
 15 99  1  0  0  0
 16 17  2  0  0  0
 16 21  1  0  0  0
 16 31  1  0  0  0
 17 18  1  0  0  0
 17100  1  0  0  0
 18 19  2  0  0  0
 18101  1  0  0  0
 19 20  1  0  0  0
 19 24  1  0  0  0
 20 21  2  0  0  0
 20102  1  0  0  0
 21 23  1  0  0  0
 22 28  1  0  0  0
 22 32  2  0  0  0
 26 27  1  0  0  0
 28103  1  0  0  0
 28104  1  0  0  0
 29105  1  0  0  0
 29106  1  0  0  0
 33 34  1  0  0  0
 33 66  1  0  0  0
 33 70  2  0  0  0
 34 36  1  0  0  0
 34 59  1  0  0  0
 34107  1  0  0  0
 35 44  2  0  0  0
 35 45  1  0  0  0
 35 68  1  0  0  0
 36 56  1  0  0  0
 36108  1  0  0  0
 37 39  1  0  0  0
 37 47  1  0  0  0
 37 66  1  0  0  0
 37109  1  0  0  0
 38 43  2  0  0  0
 38 46  1  0  0  0
 38 47  1  0  0  0
 39 64  1  0  0  0
 39 67  2  0  0  0
 40 52  1  0  0  0
 40 53  2  0  0  0
 40 58  1  0  0  0
 41110  1  0  0  0
 41111  1  0  0  0
 41112  1  0  0  0
 41 48  1  0  0  0
 42 43  1  0  0  0
 42 66  1  0  0  0
 42113  1  0  0  0
 42114  1  0  0  0
 43 44  1  0  0  0
 44115  1  0  0  0
 45 46  2  0  0  0
 45116  1  0  0  0
 46117  1  0  0  0
 47118  1  0  0  0
 47119  1  0  0  0
 48 56  1  0  0  0
 48 65  1  0  0  0
 48120  1  0  0  0
 49 50  1  0  0  0
 49 53  1  0  0  0
 49 64  1  0  0  0
 49121  1  0  0  0
 50 51  1  0  0  0
 50122  1  0  0  0
 50123  1  0  0  0
 51 52  1  0  0  0
 51124  1  0  0  0
 51125  1  0  0  0
 52126  1  0  0  0
 52127  1  0  0  0
 53 54  1  0  0  0
 54 55  2  0  0  0
 54128  1  0  0  0
 55 57  1  0  0  0
 55129  1  0  0  0
 56 69  2  0  0  0
 57 58  2  0  0  0
 57130  1  0  0  0
 58131  1  0  0  0
 59 60  1  0  0  0
 59 61  1  0  0  0
 59 62  1  0  0  0
 60132  1  0  0  0
 60133  1  0  0  0
 60134  1  0  0  0
 61135  1  0  0  0
 61136  1  0  0  0
 61137  1  0  0  0
 62138  1  0  0  0
 62139  1  0  0  0
 62140  1  0  0  0
 63 65  1  0  0  0
 63141  1  0  0  0
 63142  1  0  0  0
 63143  1  0  0  0
 64144  1  0  0  0
 65145  1  0  0  0
 68 84  1  0  0  0
 71 72  2  0  0  0
 71 73  1  0  0  0
 71146  1  0  0  0
 72 75  1  0  0  0
 72147  1  0  0  0
 73 76  2  0  0  0
 73148  1  0  0  0
 74 75  2  0  0  0
 74 76  1  0  0  0
 74149  1  0  0  0
 75 83  1  0  0  0
 76 85  1  0  0  0
 77 78  2  0  0  0
 77 79  1  0  0  0
 77 86  1  0  0  0
 78 84  1  0  0  0
 78150  1  0  0  0
 79 80  1  0  0  0
 79151  1  0  0  0
 79152  1  0  0  0
 80 81  1  0  0  0
 80153  1  0  0  0
 80154  1  0  0  0
 81 86  1  0  0  0
 81155  1  0  0  0
 81156  1  0  0  0
 82157  1  0  0  0
 82158  1  0  0  0
 82159  1  0  0  0
 82 84  1  0  0  0
 83160  1  0  0  0
 83161  1  0  0  0
 83 86  1  0  0  0
 84162  1  0  0  0
 85163  1  0  0  0
 86164  1  0  0  0
M  CHG  1  86   1
M  ISO  4   1 100  68 101  84 101  85 100
M  END
> <chiral flag>
0

> <version>
0

> <s_m_source_file>
/data/baiqing/PycharmProjects/Reinvent-master-3.2/result/LINK_invent/BTK/process_docking_weight1_custom_product_contain_oxygen_bond_distance_aromatic_linkinvent_7_9_3/rearranged_h_0021.sdf

> <i_m_source_file_index>
6

> <r_mmod_Potential_Energy-OPLS-2005>
-0.247402369976044

> <r_mmod_Stretch_Energy-OPLS-2005>
61.7655067443848

> <r_mmod_Bend_Energy-OPLS-2005>
175.437606811523

> <r_mmod_Torsional_Energy-OPLS-2005>
282.214691162109

> <r_mmod_Improper_Torsional_Energy-OPLS-2005>
9.86575222015381

> <r_mmod_Van_der_Waal_Energy-OPLS-2005>
145.236145019531

> <r_mmod_Electrostatic_Energy-OPLS-2005>
-264.546417236328

> <r_mmod_Solvation_Energy-OPLS-2005>
-449.207916259766

> <b_mmod_Minimization_Converged-OPLS-2005>
0

> <r_mmod_RMS_Derivative-OPLS-2005>
6.15663433074951

$$$$
6
                    3D
 Structure written by MMmdl.
158167  0  0  1  0            999 V2000
  -30.6546  -14.6723   20.5215 C   0  0  0  0  0  0
  -30.4411  -12.4188   19.4653 C   0  0  0  0  0  0
  -29.5120  -12.5223   18.2351 C   0  0  0  0  0  0
  -28.0361  -12.3467   18.6456 C   0  0  0  0  0  0
  -27.6470  -13.2253   19.8647 C   0  0  2  0  0  0
  -28.6991  -13.1081   20.9949 C   0  0  0  0  0  0
  -25.2273  -13.7916   20.5546 C   0  0  0  0  0  0
  -24.1673  -13.0196   20.9236 C   0  0  0  0  0  0
  -24.6384  -11.6747   20.8796 C   0  0  0  0  0  0
  -23.9074  -10.4161   21.0436 C   0  0  0  0  0  0
  -24.3613   -9.4095   21.9218 C   0  0  0  0  0  0
  -23.6272   -8.2149   22.0767 C   0  0  0  0  0  0
  -22.4254   -8.0219   21.3548 C   0  0  0  0  0  0
  -21.9900   -9.0191   20.4646 C   0  0  0  0  0  0
  -22.7253  -10.2052   20.3063 C   0  0  0  0  0  0
  -21.6822   -6.0706   22.5289 C   0  0  0  0  0  0
  -21.3992   -6.5621   23.8220 C   0  0  0  0  0  0
  -21.3652   -5.6777   24.9185 C   0  0  0  0  0  0
  -21.6049   -4.3040   24.7239 C   0  0  0  0  0  0
  -21.8819   -3.8128   23.4359 C   0  0  0  0  0  0
  -21.9184   -4.6940   22.3413 C   0  0  0  0  0  0
  -22.7702  -13.5021   21.1903 C   0  0  0  0  0  0
  -22.1656   -4.2129   21.0990 F   0  0  0  0  0  0
  -21.5646   -3.4525   25.7755 F   0  0  0  0  0  0
  -30.0204  -13.4529   20.4353 N   0  0  0  0  0  0
  -26.2917  -12.9305   20.3333 N   0  0  0  0  0  0
  -25.9345  -11.6439   20.5834 N   0  0  0  0  0  0
  -22.0355  -12.8055   22.0498 N   0  0  0  0  0  0
  -25.3318  -15.1535   20.3632 N   0  0  0  0  0  0
  -31.8076  -14.8219   20.1091 O   0  0  0  0  0  0
  -21.6598   -6.8838   21.4249 O   0  0  0  0  0  0
  -22.3385  -14.5337   20.6755 O   0  0  0  0  0  0
  -24.6241  -31.8593   23.2001 C   0  0  0  0  0  0
  -25.9081  -32.4779   23.8343 C   0  0  1  0  0  0
  -27.2416  -27.3301   20.1208 C   0  0  0  0  0  0
  -25.5895  -33.8575   24.2266 N   0  0  0  0  0  0
  -23.4196  -30.4818   21.5419 C   0  0  2  0  0  0
  -24.8722  -28.9373   20.1104 C   0  0  0  0  0  0
  -22.7465  -29.4621   22.4917 C   0  0  0  0  0  0
  -18.0284  -28.1385   22.8494 C   0  0  0  0  0  0
  -24.1484  -36.7292   23.2640 C   0  0  0  0  0  0
  -25.9595  -30.7957   21.3689 C   0  0  0  0  0  0
  -26.0388  -29.4216   20.7153 C   0  0  0  0  0  0
  -27.2254  -28.6307   20.7100 C   0  0  0  0  0  0
  -26.0523  -26.8987   19.4857 C   0  0  0  0  0  0
  -24.8807  -27.6808   19.4856 C   0  0  0  0  0  0
  -23.6366  -29.8131   20.1586 C   0  0  0  0  0  0
  -25.4110  -36.3079   24.0328 C   0  0  1  0  0  0
  -20.5882  -28.3674   23.1290 C   0  0  2  0  0  0
  -20.6765  -26.9396   22.5413 C   0  0  0  0  0  0
  -19.5742  -26.6386   21.5209 C   0  0  0  0  0  0
  -18.1927  -26.7926   22.1630 C   0  0  0  0  0  0
  -19.1536  -28.8847   23.2891 C   0  0  0  0  0  0
  -18.9456  -30.1453   23.8902 C   0  0  0  0  0  0
  -17.6455  -30.6584   24.0573 C   0  0  0  0  0  0
  -25.9047  -34.9449   23.5104 C   0  0  0  0  0  0
  -16.5349  -29.9085   23.6337 C   0  0  0  0  0  0
  -16.7271  -28.6507   23.0354 C   0  0  0  0  0  0
  -26.4468  -31.6588   25.0708 C   0  0  0  0  0  0
  -25.3695  -31.3732   26.1436 C   0  0  0  0  0  0
  -27.0310  -30.3018   24.6140 C   0  0  0  0  0  0
  -27.6044  -32.4306   25.7477 C   0  0  0  0  0  0
  -27.5573  -37.1808   24.8466 C   0  0  0  0  0  0
  -21.4171  -29.3034   22.3674 N   0  0  0  0  0  0
  -26.4291  -37.3768   23.9404 N   0  0  0  0  0  0
  -24.6869  -31.0614   22.0948 N   0  0  0  0  0  0
  -23.4192  -28.8147   23.2986 O   0  0  0  0  0  0
  -28.3701  -26.4943   20.1827 O   0  0  0  0  0  0
  -26.5625  -34.8915   22.4675 O   0  0  0  0  0  0
  -23.5401  -32.1387   23.7330 O   0  0  0  0  0  0
  -31.1406  -19.4015   20.6040 C   0  0  0  0  0  0
  -31.1635  -17.9677   20.6803 C   0  0  0  0  0  0
  -28.7700  -19.3966   20.8714 C   0  0  0  0  0  0
  -28.7777  -17.9753   20.9438 C   0  0  0  0  0  0
  -29.9391  -20.1707   20.6925 C   0  0  0  0  0  0
  -29.9754  -17.2003   20.8482 C   0  0  0  0  0  0
  -28.9009  -22.5379   20.8733 C   0  0  0  0  0  0
  -30.5333  -23.8453   19.7698 C   0  0  0  0  0  0
  -31.0468  -22.4158   20.0782 C   0  0  0  0  0  0
  -29.2888  -24.0345   20.6409 C   0  0  1  0  0  0
  -28.1664  -25.0293   20.0946 C   0  0  0  0  0  0
  -27.4335  -17.2854   20.9968 C   0  0  0  0  0  0
  -29.9006  -21.6469   20.5673 N   0  0  0  0  0  0
  -29.8912  -15.7263   20.9524 N   0  0  0  0  0  0
  -27.7929  -22.2422   21.3293 O   0  0  0  0  0  0
  -26.4159  -18.1028   21.2727 F   0  0  0  0  0  0
  -27.2652  -16.7930   19.7707 F   0  0  0  0  0  0
  -27.4331  -16.3000   21.8966 F   0  0  0  0  0  0
  -31.4829  -12.5388   19.1626 H   0  0  0  0  0  0
  -30.3737  -11.4271   19.9165 H   0  0  0  0  0  0
  -29.7870  -11.7754   17.4896 H   0  0  0  0  0  0
  -29.6449  -13.4940   17.7564 H   0  0  0  0  0  0
  -27.8848  -11.2943   18.8889 H   0  0  0  0  0  0
  -27.3797  -12.5590   17.8006 H   0  0  0  0  0  0
  -27.6498  -14.2561   19.5133 H   0  0  0  0  0  0
  -28.7171  -12.0923   21.3924 H   0  0  0  0  0  0
  -28.4344  -13.7476   21.8377 H   0  0  0  0  0  0
  -25.2748   -9.5560   22.4805 H   0  0  0  0  0  0
  -23.9956   -7.4524   22.7480 H   0  0  0  0  0  0
  -21.0830   -8.8724   19.8947 H   0  0  0  0  0  0
  -22.3734  -10.9600   19.6167 H   0  0  0  0  0  0
  -21.1970   -7.6126   23.9717 H   0  0  0  0  0  0
  -21.1480   -6.0509   25.9089 H   0  0  0  0  0  0
  -22.0608   -2.7590   23.2866 H   0  0  0  0  0  0
  -22.3959  -11.9726   22.4903 H   0  0  0  0  0  0
  -21.0985  -13.1106   22.2716 H   0  0  0  0  0  0
  -24.5409  -15.7720   20.4945 H   0  0  0  0  0  0
  -26.1562  -15.6329   20.0163 H   0  0  0  0  0  0
  -26.7160  -32.5464   23.1109 H   0  0  0  0  0  0
  -25.0011  -33.9714   25.0392 H   0  0  0  0  0  0
  -22.7138  -31.3021   21.3957 H   0  0  0  0  0  0
  -23.3733  -35.9638   23.3320 H   0  0  0  0  0  0
  -24.3573  -36.8888   22.2049 H   0  0  0  0  0  0
  -23.7256  -37.6509   23.6652 H   0  0  0  0  0  0
  -26.0842  -31.5570   20.5974 H   0  0  0  0  0  0
  -26.8428  -30.8515   21.9939 H   0  0  0  0  0  0
  -28.1208  -28.9985   21.1925 H   0  0  0  0  0  0
  -26.0058  -25.9423   18.9871 H   0  0  0  0  0  0
  -23.9895  -27.3071   18.9998 H   0  0  0  0  0  0
  -23.7491  -30.5871   19.3982 H   0  0  0  0  0  0
  -22.7588  -29.2362   19.8612 H   0  0  0  0  0  0
  -25.1299  -36.1932   25.0822 H   0  0  0  0  0  0
  -21.0003  -28.3241   24.1398 H   0  0  0  0  0  0
  -20.5649  -26.2272   23.3602 H   0  0  0  0  0  0
  -21.6636  -26.7417   22.1214 H   0  0  0  0  0  0
  -19.6889  -25.6297   21.1236 H   0  0  0  0  0  0
  -19.6680  -27.3204   20.6743 H   0  0  0  0  0  0
  -17.4190  -26.6674   21.4040 H   0  0  0  0  0  0
  -18.0333  -26.0073   22.9034 H   0  0  0  0  0  0
  -19.7929  -30.7277   24.2268 H   0  0  0  0  0  0
  -17.5009  -31.6266   24.5169 H   0  0  0  0  0  0
  -15.5351  -30.2989   23.7652 H   0  0  0  0  0  0
  -15.8675  -28.0835   22.7053 H   0  0  0  0  0  0
  -24.5857  -30.7097   25.7761 H   0  0  0  0  0  0
  -24.8893  -32.2902   26.4865 H   0  0  0  0  0  0
  -25.8003  -30.8900   27.0214 H   0  0  0  0  0  0
  -26.2883  -29.6772   24.1164 H   0  0  0  0  0  0
  -27.4029  -29.7261   25.4625 H   0  0  0  0  0  0
  -27.8733  -30.4317   23.9342 H   0  0  0  0  0  0
  -27.2681  -33.3607   26.2072 H   0  0  0  0  0  0
  -28.3853  -32.6864   25.0302 H   0  0  0  0  0  0
  -28.0717  -31.8411   26.5377 H   0  0  0  0  0  0
  -28.2620  -38.0079   24.7493 H   0  0  0  0  0  0
  -28.1045  -36.2615   24.6328 H   0  0  0  0  0  0
  -27.2289  -37.1501   25.8869 H   0  0  0  0  0  0
  -20.9321  -29.8758   21.6904 H   0  0  0  0  0  0
  -26.0167  -38.2844   24.1390 H   0  0  0  0  0  0
  -32.0847  -19.9122   20.4755 H   0  0  0  0  0  0
  -32.1149  -17.4608   20.6063 H   0  0  0  0  0  0
  -27.8141  -19.8904   20.9126 H   0  0  0  0  0  0
  -30.2646  -23.9222   18.7154 H   0  0  0  0  0  0
  -31.2924  -24.6016   19.9704 H   0  0  0  0  0  0
  -31.8057  -22.4472   20.8616 H   0  0  0  0  0  0
  -31.4934  -21.9547   19.1961 H   0  0  0  0  0  0
  -29.5990  -24.3959   21.6217 H   0  0  0  0  0  0
  -27.2539  -24.7960   20.6463 H   0  0  0  0  0  0
  -27.9584  -24.7695   19.0561 H   0  0  0  0  0  0
  -28.9876  -15.4086   21.2763 H   0  0  0  0  0  0
  1 25  1  0  0  0
  1 30  2  0  0  0
  1 84  1  0  0  0
  2  3  1  0  0  0
  2 25  1  0  0  0
  2 89  1  0  0  0
  2 90  1  0  0  0
  3  4  1  0  0  0
  3 91  1  0  0  0
  3 92  1  0  0  0
  4  5  1  0  0  0
  4 93  1  0  0  0
  4 94  1  0  0  0
  5  6  1  0  0  0
  5 26  1  0  0  0
  5 95  1  0  0  0
  6 25  1  0  0  0
  6 96  1  0  0  0
  6 97  1  0  0  0
  7  8  2  0  0  0
  7 26  1  0  0  0
  7 29  1  0  0  0
  8  9  1  0  0  0
  8 22  1  0  0  0
  9 10  1  0  0  0
  9 27  2  0  0  0
 10 11  2  0  0  0
 10 15  1  0  0  0
 11 12  1  0  0  0
 11 98  1  0  0  0
 12 13  2  0  0  0
 12 99  1  0  0  0
 13 14  1  0  0  0
 13 31  1  0  0  0
 14 15  2  0  0  0
 14100  1  0  0  0
 15101  1  0  0  0
 16 17  2  0  0  0
 16 21  1  0  0  0
 16 31  1  0  0  0
 17 18  1  0  0  0
 17102  1  0  0  0
 18 19  2  0  0  0
 18103  1  0  0  0
 19 20  1  0  0  0
 19 24  1  0  0  0
 20 21  2  0  0  0
 20104  1  0  0  0
 21 23  1  0  0  0
 22 28  1  0  0  0
 22 32  2  0  0  0
 26 27  1  0  0  0
 28105  1  0  0  0
 28106  1  0  0  0
 29107  1  0  0  0
 29108  1  0  0  0
 33 34  1  0  0  0
 33 66  1  0  0  0
 33 70  2  0  0  0
 34 36  1  0  0  0
 34 59  1  0  0  0
 34109  1  0  0  0
 35 44  2  0  0  0
 35 45  1  0  0  0
 35 68  1  0  0  0
 36 56  1  0  0  0
 36110  1  0  0  0
 37 39  1  0  0  0
 37 47  1  0  0  0
 37 66  1  0  0  0
 37111  1  0  0  0
 38 43  2  0  0  0
 38 46  1  0  0  0
 38 47  1  0  0  0
 39 64  1  0  0  0
 39 67  2  0  0  0
 40 52  1  0  0  0
 40 53  2  0  0  0
 40 58  1  0  0  0
 41112  1  0  0  0
 41113  1  0  0  0
 41114  1  0  0  0
 41 48  1  0  0  0
 42 43  1  0  0  0
 42 66  1  0  0  0
 42115  1  0  0  0
 42116  1  0  0  0
 43 44  1  0  0  0
 44117  1  0  0  0
 45 46  2  0  0  0
 45118  1  0  0  0
 46119  1  0  0  0
 47120  1  0  0  0
 47121  1  0  0  0
 48 56  1  0  0  0
 48 65  1  0  0  0
 48122  1  0  0  0
 49 50  1  0  0  0
 49 53  1  0  0  0
 49 64  1  0  0  0
 49123  1  0  0  0
 50 51  1  0  0  0
 50124  1  0  0  0
 50125  1  0  0  0
 51 52  1  0  0  0
 51126  1  0  0  0
 51127  1  0  0  0
 52128  1  0  0  0
 52129  1  0  0  0
 53 54  1  0  0  0
 54 55  2  0  0  0
 54130  1  0  0  0
 55 57  1  0  0  0
 55131  1  0  0  0
 56 69  2  0  0  0
 57 58  2  0  0  0
 57132  1  0  0  0
 58133  1  0  0  0
 59 60  1  0  0  0
 59 61  1  0  0  0
 59 62  1  0  0  0
 60134  1  0  0  0
 60135  1  0  0  0
 60136  1  0  0  0
 61137  1  0  0  0
 61138  1  0  0  0
 61139  1  0  0  0
 62140  1  0  0  0
 62141  1  0  0  0
 62142  1  0  0  0
 63 65  1  0  0  0
 63143  1  0  0  0
 63144  1  0  0  0
 63145  1  0  0  0
 64146  1  0  0  0
 65147  1  0  0  0
 68 81  1  0  0  0
 71 72  2  0  0  0
 71 75  1  0  0  0
 71148  1  0  0  0
 72 76  1  0  0  0
 72149  1  0  0  0
 73 74  1  0  0  0
 73 75  2  0  0  0
 73150  1  0  0  0
 74 76  2  0  0  0
 74 82  1  0  0  0
 75 83  1  0  0  0
 76 84  1  0  0  0
 77 80  1  0  0  0
 77 83  1  0  0  0
 77 85  2  0  0  0
 78 79  1  0  0  0
 78 80  1  0  0  0
 78151  1  0  0  0
 78152  1  0  0  0
 79 83  1  0  0  0
 79153  1  0  0  0
 79154  1  0  0  0
 80 81  1  0  0  0
 80155  1  0  0  0
 81156  1  0  0  0
 81157  1  0  0  0
 82 86  1  0  0  0
 82 87  1  0  0  0
 82 88  1  0  0  0
 84158  1  0  0  0
M  ISO  4   1 100  68 101  81 101  84 100
M  END
> <chiral flag>
0

> <version>
0

> <s_m_source_file>
/data/baiqing/PycharmProjects/Reinvent-master-3.2/result/LINK_invent/BTK/process_docking_weight1_custom_product_contain_oxygen_bond_distance_aromatic_linkinvent_7_9_3/rearranged_h_0021.sdf

> <i_m_source_file_index>
7

> <r_mmod_Potential_Energy-OPLS-2005>
215.675979614258

> <r_mmod_Stretch_Energy-OPLS-2005>
86.5254211425781

> <r_mmod_Bend_Energy-OPLS-2005>
177.960510253906

> <r_mmod_Torsional_Energy-OPLS-2005>
256.276489257812

> <r_mmod_Improper_Torsional_Energy-OPLS-2005>
4.11749696731567

> <r_mmod_Van_der_Waal_Energy-OPLS-2005>
160.882766723633

> <r_mmod_Electrostatic_Energy-OPLS-2005>
-320.633666992188

> <r_mmod_Solvation_Energy-OPLS-2005>
-202.589614868164

> <b_mmod_Minimization_Converged-OPLS-2005>
0

> <r_mmod_RMS_Derivative-OPLS-2005>
1.62832820415497

$$$$
7
                    3D
 Structure written by MMmdl.
167176  0  0  1  0            999 V2000
  -30.7541  -14.3274   20.7160 C   0  0  0  0  0  0
  -30.4292  -12.2832   19.3791 C   0  0  0  0  0  0
  -29.4929  -12.5307   18.1833 C   0  0  0  0  0  0
  -28.0164  -12.3741   18.5998 C   0  0  0  0  0  0
  -27.6696  -13.1890   19.8705 C   0  0  2  0  0  0
  -28.7009  -12.9062   20.9833 C   0  0  0  0  0  0
  -25.2614  -13.8118   20.5606 C   0  0  0  0  0  0
  -24.1835  -13.0430   20.9119 C   0  0  0  0  0  0
  -24.6338  -11.6875   20.8669 C   0  0  0  0  0  0
  -23.8983  -10.4306   21.0383 C   0  0  0  0  0  0
  -24.3545   -9.4238   21.9162 C   0  0  0  0  0  0
  -23.6258   -8.2247   22.0730 C   0  0  0  0  0  0
  -22.4233   -8.0257   21.3529 C   0  0  0  0  0  0
  -21.9840   -9.0215   20.4632 C   0  0  0  0  0  0
  -22.7145  -10.2119   20.3046 C   0  0  0  0  0  0
  -21.6857   -6.0699   22.5275 C   0  0  0  0  0  0
  -21.3996   -6.5613   23.8208 C   0  0  0  0  0  0
  -21.3665   -5.6760   24.9176 C   0  0  0  0  0  0
  -21.6050   -4.3021   24.7230 C   0  0  0  0  0  0
  -21.8826   -3.8103   23.4356 C   0  0  0  0  0  0
  -21.9182   -4.6919   22.3403 C   0  0  0  0  0  0
  -22.7873  -13.5271   21.1793 C   0  0  0  0  0  0
  -22.1676   -4.2112   21.0989 F   0  0  0  0  0  0
  -21.5638   -3.4510   25.7744 F   0  0  0  0  0  0
  -30.0546  -13.1948   20.4658 N   0  0  0  0  0  0
  -26.3027  -12.9260   20.3253 N   0  0  0  0  0  0
  -25.9244  -11.6430   20.5625 N   0  0  0  0  0  0
  -22.0473  -12.8323   22.0383 N   0  0  0  0  0  0
  -25.4402  -15.1829   20.4098 N   0  0  0  0  0  0
  -31.7307  -14.6939   20.0512 O   0  0  0  0  0  0
  -21.6619   -6.8825   21.4230 O   0  0  0  0  0  0
  -22.3578  -14.5573   20.6644 O   0  0  0  0  0  0
  -24.6149  -31.8721   23.2160 C   0  0  0  0  0  0
  -25.9070  -32.4828   23.8418 C   0  0  1  0  0  0
  -27.1940  -27.4452   20.0407 C   0  0  0  0  0  0
  -25.5944  -33.8635   24.2344 N   0  0  0  0  0  0
  -23.3914  -30.5040   21.5673 C   0  0  2  0  0  0
  -24.8178  -28.9684   20.1238 C   0  0  0  0  0  0
  -22.7374  -29.4710   22.5106 C   0  0  0  0  0  0
  -18.0258  -28.1345   22.8510 C   0  0  0  0  0  0
  -24.1481  -36.7327   23.2641 C   0  0  0  0  0  0
  -25.9246  -30.8290   21.3690 C   0  0  0  0  0  0
  -25.9861  -29.4654   20.7153 C   0  0  0  0  0  0
  -27.1739  -28.7024   20.6855 C   0  0  0  0  0  0
  -25.9914  -26.9397   19.4939 C   0  0  0  0  0  0
  -24.8107  -27.6990   19.5243 C   0  0  0  0  0  0
  -23.5870  -29.8419   20.1816 C   0  0  0  0  0  0
  -25.4101  -36.3110   24.0339 C   0  0  1  0  0  0
  -20.5849  -28.3632   23.1381 C   0  0  2  0  0  0
  -20.6739  -26.9394   22.5440 C   0  0  0  0  0  0
  -19.5720  -26.6379   21.5224 C   0  0  0  0  0  0
  -18.1901  -26.7906   22.1620 C   0  0  0  0  0  0
  -19.1506  -28.8807   23.2919 C   0  0  0  0  0  0
  -18.9426  -30.1418   23.8919 C   0  0  0  0  0  0
  -17.6424  -30.6557   24.0560 C   0  0  0  0  0  0
  -25.9056  -34.9485   23.5137 C   0  0  0  0  0  0
  -16.5320  -29.9051   23.6316 C   0  0  0  0  0  0
  -16.7248  -28.6463   23.0355 C   0  0  0  0  0  0
  -26.4517  -31.6599   25.0731 C   0  0  0  0  0  0
  -25.3828  -31.3675   26.1518 C   0  0  0  0  0  0
  -27.0343  -30.3032   24.6114 C   0  0  0  0  0  0
  -27.6121  -32.4335   25.7428 C   0  0  0  0  0  0
  -27.5595  -37.1791   24.8461 C   0  0  0  0  0  0
  -21.4129  -29.2988   22.3794 N   0  0  0  0  0  0
  -26.4276  -37.3802   23.9450 N   0  0  0  0  0  0
  -24.6640  -31.0834   22.1070 N   0  0  0  0  0  0
  -23.4176  -28.8257   23.3138 O   0  0  0  0  0  0
  -28.3796  -26.7519   19.9493 O   0  0  0  0  0  0
  -26.5608  -34.8940   22.4689 O   0  0  0  0  0  0
  -23.5364  -32.1502   23.7580 O   0  0  0  0  0  0
  -31.7338  -18.1000   23.2904 C   0  0  0  0  0  0
  -30.1124  -18.6921   21.5710 C   0  0  0  0  0  0
  -31.0542  -19.0861   22.5470 C   0  0  0  0  0  0
  -30.5850  -16.3462   22.0465 C   0  0  0  0  0  0
  -31.4941  -16.7342   23.0465 C   0  0  0  0  0  0
  -29.8697  -17.3274   21.3184 C   0  0  0  0  0  0
  -30.1810  -22.1573   21.3492 C   0  0  0  0  0  0
  -32.4297  -22.0824   19.4831 C   0  0  0  0  0  0
  -31.5117  -23.3108   19.4833 C   0  0  0  0  0  0
  -32.5538  -21.4873   20.8973 C   0  0  0  0  0  0
  -30.1196  -22.9169   20.0130 C   0  0  2  0  0  0
  -31.3313  -20.5594   22.8328 C   0  0  0  0  0  0
  -28.4276  -24.4877   19.0005 C   0  0  0  0  0  0
  -28.5937  -25.9927   18.7444 C   0  0  0  0  0  0
  -31.2824  -21.4221   21.6436 N   0  0  0  0  0  0
  -30.3684  -14.9719   21.8189 N   0  0  0  0  0  0
  -29.2262  -24.0809   20.1794 N   0  3  0  0  0  0
  -29.1907  -22.2154   22.0886 O   0  0  0  0  0  0
  -32.1424  -15.7943   23.7778 F   0  0  0  0  0  0
  -28.6760  -16.8976   20.1417 Cl  0  0  0  0  0  0
  -31.4693  -12.4101   19.0726 H   0  0  0  0  0  0
  -30.3441  -11.2486   19.7197 H   0  0  0  0  0  0
  -29.7324  -11.8423   17.3719 H   0  0  0  0  0  0
  -29.6566  -13.5344   17.7865 H   0  0  0  0  0  0
  -27.8248  -11.3152   18.7806 H   0  0  0  0  0  0
  -27.3595  -12.6636   17.7789 H   0  0  0  0  0  0
  -27.7363  -14.2439   19.5999 H   0  0  0  0  0  0
  -28.6489  -11.8559   21.2782 H   0  0  0  0  0  0
  -28.4307  -13.4687   21.8755 H   0  0  0  0  0  0
  -25.2695   -9.5732   22.4704 H   0  0  0  0  0  0
  -23.9976   -7.4644   22.7453 H   0  0  0  0  0  0
  -21.0748   -8.8712   19.8970 H   0  0  0  0  0  0
  -22.3570  -10.9626   19.6125 H   0  0  0  0  0  0
  -21.1999   -7.6116   23.9692 H   0  0  0  0  0  0
  -21.1488   -6.0496   25.9076 H   0  0  0  0  0  0
  -22.0601   -2.7553   23.2856 H   0  0  0  0  0  0
  -22.4040  -12.0025   22.4894 H   0  0  0  0  0  0
  -21.1097  -13.1399   22.2522 H   0  0  0  0  0  0
  -24.6778  -15.8440   20.5175 H   0  0  0  0  0  0
  -26.3096  -15.6187   20.1235 H   0  0  0  0  0  0
  -26.7111  -32.5511   23.1151 H   0  0  0  0  0  0
  -25.0024  -33.9769   25.0438 H   0  0  0  0  0  0
  -22.6785  -31.3217   21.4446 H   0  0  0  0  0  0
  -23.3734  -35.9673   23.3293 H   0  0  0  0  0  0
  -24.3560  -36.8958   22.2060 H   0  0  0  0  0  0
  -23.7234  -37.6531   23.6658 H   0  0  0  0  0  0
  -26.0390  -31.5898   20.5963 H   0  0  0  0  0  0
  -26.8165  -30.8724   21.9835 H   0  0  0  0  0  0
  -28.0869  -29.0832   21.1230 H   0  0  0  0  0  0
  -25.9434  -25.9658   19.0293 H   0  0  0  0  0  0
  -23.9004  -27.3047   19.0880 H   0  0  0  0  0  0
  -23.6842  -30.6171   19.4201 H   0  0  0  0  0  0
  -22.7041  -29.2666   19.8955 H   0  0  0  0  0  0
  -25.1255  -36.1960   25.0821 H   0  0  0  0  0  0
  -20.9924  -28.3184   24.1506 H   0  0  0  0  0  0
  -20.5664  -26.2260   23.3618 H   0  0  0  0  0  0
  -21.6620  -26.7436   22.1237 H   0  0  0  0  0  0
  -19.6881  -25.6295   21.1240 H   0  0  0  0  0  0
  -19.6653  -27.3209   20.6770 H   0  0  0  0  0  0
  -17.4196  -26.6722   21.3975 H   0  0  0  0  0  0
  -18.0234  -26.0001   22.8964 H   0  0  0  0  0  0
  -19.7889  -30.7218   24.2327 H   0  0  0  0  0  0
  -17.4967  -31.6243   24.5161 H   0  0  0  0  0  0
  -15.5322  -30.2952   23.7592 H   0  0  0  0  0  0
  -15.8656  -28.0769   22.7057 H   0  0  0  0  0  0
  -24.5917  -30.7118   25.7837 H   0  0  0  0  0  0
  -24.9118  -32.2829   26.5131 H   0  0  0  0  0  0
  -25.8209  -30.8688   27.0185 H   0  0  0  0  0  0
  -26.2818  -29.6715   24.1369 H   0  0  0  0  0  0
  -27.4306  -29.7336   25.4542 H   0  0  0  0  0  0
  -27.8598  -30.4310   23.9097 H   0  0  0  0  0  0
  -27.2730  -33.3578   26.2131 H   0  0  0  0  0  0
  -28.3812  -32.7036   25.0168 H   0  0  0  0  0  0
  -28.0976  -31.8439   26.5225 H   0  0  0  0  0  0
  -28.2598  -38.0103   24.7543 H   0  0  0  0  0  0
  -28.1088  -36.2646   24.6190 H   0  0  0  0  0  0
  -27.2345  -37.1343   25.8867 H   0  0  0  0  0  0
  -20.9332  -29.8677   21.6971 H   0  0  0  0  0  0
  -26.0170  -38.2881   24.1451 H   0  0  0  0  0  0
  -32.4449  -18.3819   24.0545 H   0  0  0  0  0  0
  -29.5581  -19.4275   21.0084 H   0  0  0  0  0  0
  -33.4169  -22.3382   19.0913 H   0  0  0  0  0  0
  -32.0202  -21.3273   18.8082 H   0  0  0  0  0  0
  -31.4296  -23.7000   18.4675 H   0  0  0  0  0  0
  -31.9550  -24.1070   20.0864 H   0  0  0  0  0  0
  -33.2558  -22.0848   21.4874 H   0  0  0  0  0  0
  -32.9907  -20.4894   20.8228 H   0  0  0  0  0  0
  -29.6612  -22.2240   19.3040 H   0  0  0  0  0  0
  -32.3179  -20.6552   23.2872 H   0  0  0  0  0  0
  -30.6302  -20.8846   23.6036 H   0  0  0  0  0  0
  -28.7221  -23.9377   18.1049 H   0  0  0  0  0  0
  -27.3821  -24.2285   19.1733 H   0  0  0  0  0  0
  -27.9613  -26.3060   17.9120 H   0  0  0  0  0  0
  -29.6119  -26.1873   18.4107 H   0  0  0  0  0  0
  -29.6924  -14.5097   22.4064 H   0  0  0  0  0  0
  -29.7475  -24.8673   20.5320 H   0  0  0  0  0  0
  -28.5969  -23.7902   20.9178 H   0  0  0  0  0  0
  1 25  1  0  0  0
  1 30  2  0  0  0
  1 86  1  0  0  0
  2  3  1  0  0  0
  2 25  1  0  0  0
  2 91  1  0  0  0
  2 92  1  0  0  0
  3  4  1  0  0  0
  3 93  1  0  0  0
  3 94  1  0  0  0
  4  5  1  0  0  0
  4 95  1  0  0  0
  4 96  1  0  0  0
  5  6  1  0  0  0
  5 26  1  0  0  0
  5 97  1  0  0  0
  6 25  1  0  0  0
  6 98  1  0  0  0
  6 99  1  0  0  0
  7  8  2  0  0  0
  7 26  1  0  0  0
  7 29  1  0  0  0
  8  9  1  0  0  0
  8 22  1  0  0  0
  9 10  1  0  0  0
  9 27  2  0  0  0
 10 11  2  0  0  0
 10 15  1  0  0  0
 11 12  1  0  0  0
 11100  1  0  0  0
 12 13  2  0  0  0
 12101  1  0  0  0
 13 14  1  0  0  0
 13 31  1  0  0  0
 14 15  2  0  0  0
 14102  1  0  0  0
 15103  1  0  0  0
 16 17  2  0  0  0
 16 21  1  0  0  0
 16 31  1  0  0  0
 17 18  1  0  0  0
 17104  1  0  0  0
 18 19  2  0  0  0
 18105  1  0  0  0
 19 20  1  0  0  0
 19 24  1  0  0  0
 20 21  2  0  0  0
 20106  1  0  0  0
 21 23  1  0  0  0
 22 28  1  0  0  0
 22 32  2  0  0  0
 26 27  1  0  0  0
 28107  1  0  0  0
 28108  1  0  0  0
 29109  1  0  0  0
 29110  1  0  0  0
 33 34  1  0  0  0
 33 66  1  0  0  0
 33 70  2  0  0  0
 34 36  1  0  0  0
 34 59  1  0  0  0
 34111  1  0  0  0
 35 44  2  0  0  0
 35 45  1  0  0  0
 35 68  1  0  0  0
 36 56  1  0  0  0
 36112  1  0  0  0
 37 39  1  0  0  0
 37 47  1  0  0  0
 37 66  1  0  0  0
 37113  1  0  0  0
 38 43  2  0  0  0
 38 46  1  0  0  0
 38 47  1  0  0  0
 39 64  1  0  0  0
 39 67  2  0  0  0
 40 52  1  0  0  0
 40 53  2  0  0  0
 40 58  1  0  0  0
 41114  1  0  0  0
 41115  1  0  0  0
 41116  1  0  0  0
 41 48  1  0  0  0
 42 43  1  0  0  0
 42 66  1  0  0  0
 42117  1  0  0  0
 42118  1  0  0  0
 43 44  1  0  0  0
 44119  1  0  0  0
 45 46  2  0  0  0
 45120  1  0  0  0
 46121  1  0  0  0
 47122  1  0  0  0
 47123  1  0  0  0
 48 56  1  0  0  0
 48 65  1  0  0  0
 48124  1  0  0  0
 49 50  1  0  0  0
 49 53  1  0  0  0
 49 64  1  0  0  0
 49125  1  0  0  0
 50 51  1  0  0  0
 50126  1  0  0  0
 50127  1  0  0  0
 51 52  1  0  0  0
 51128  1  0  0  0
 51129  1  0  0  0
 52130  1  0  0  0
 52131  1  0  0  0
 53 54  1  0  0  0
 54 55  2  0  0  0
 54132  1  0  0  0
 55 57  1  0  0  0
 55133  1  0  0  0
 56 69  2  0  0  0
 57 58  2  0  0  0
 57134  1  0  0  0
 58135  1  0  0  0
 59 60  1  0  0  0
 59 61  1  0  0  0
 59 62  1  0  0  0
 60136  1  0  0  0
 60137  1  0  0  0
 60138  1  0  0  0
 61139  1  0  0  0
 61140  1  0  0  0
 61141  1  0  0  0
 62142  1  0  0  0
 62143  1  0  0  0
 62144  1  0  0  0
 63 65  1  0  0  0
 63145  1  0  0  0
 63146  1  0  0  0
 63147  1  0  0  0
 64148  1  0  0  0
 65149  1  0  0  0
 68 84  1  0  0  0
 71 73  2  0  0  0
 71 75  1  0  0  0
 71150  1  0  0  0
 72 73  1  0  0  0
 72 76  2  0  0  0
 72151  1  0  0  0
 73 82  1  0  0  0
 74 75  2  0  0  0
 74 76  1  0  0  0
 74 86  1  0  0  0
 75 89  1  0  0  0
 76 90  1  0  0  0
 77 81  1  0  0  0
 77 85  1  0  0  0
 77 88  2  0  0  0
 78 79  1  0  0  0
 78 80  1  0  0  0
 78152  1  0  0  0
 78153  1  0  0  0
 79 81  1  0  0  0
 79154  1  0  0  0
 79155  1  0  0  0
 80 85  1  0  0  0
 80156  1  0  0  0
 80157  1  0  0  0
 81 87  1  0  0  0
 81158  1  0  0  0
 82 85  1  0  0  0
 82159  1  0  0  0
 82160  1  0  0  0
 83 84  1  0  0  0
 83 87  1  0  0  0
 83161  1  0  0  0
 83162  1  0  0  0
 84163  1  0  0  0
 84164  1  0  0  0
 86165  1  0  0  0
 87166  1  0  0  0
 87167  1  0  0  0
M  CHG  1  87   1
M  ISO  4   1 100  68 101  84 101  86 100
M  END
> <chiral flag>
0

> <version>
0

> <s_m_source_file>
/data/baiqing/PycharmProjects/Reinvent-master-3.2/result/LINK_invent/BTK/process_docking_weight1_custom_product_contain_oxygen_bond_distance_aromatic_linkinvent_7_9_3/rearranged_h_0021.sdf

> <i_m_source_file_index>
8

> <r_mmod_Potential_Energy-OPLS-2005>
-262.448608398438

> <r_mmod_Stretch_Energy-OPLS-2005>
34.9470291137695

> <r_mmod_Bend_Energy-OPLS-2005>
95.2808303833008

> <r_mmod_Torsional_Energy-OPLS-2005>
280.699188232422

> <r_mmod_Improper_Torsional_Energy-OPLS-2005>
3.4775402545929

> <r_mmod_Van_der_Waal_Energy-OPLS-2005>
167.896926879883

> <r_mmod_Electrostatic_Energy-OPLS-2005>
-412.969512939453

> <r_mmod_Solvation_Energy-OPLS-2005>
-443.653045654297

> <b_mmod_Minimization_Converged-OPLS-2005>
0

> <r_mmod_RMS_Derivative-OPLS-2005>
4.95763826370239

$$$$
8
                    3D
 Structure written by MMmdl.
166174  0  0  1  0            999 V2000
  -30.6475  -14.5698   20.5890 C   0  0  0  0  0  0
  -30.4400  -12.3742   19.4369 C   0  0  0  0  0  0
  -29.5051  -12.5269   18.2136 C   0  0  0  0  0  0
  -28.0205  -12.3783   18.6139 C   0  0  0  0  0  0
  -27.6582  -13.2036   19.8764 C   0  0  2  0  0  0
  -28.6978  -12.9420   20.9844 C   0  0  0  0  0  0
  -25.2571  -13.8142   20.5665 C   0  0  0  0  0  0
  -24.1826  -13.0422   20.9168 C   0  0  0  0  0  0
  -24.6369  -11.6887   20.8711 C   0  0  0  0  0  0
  -23.9031  -10.4287   21.0398 C   0  0  0  0  0  0
  -24.3599   -9.4215   21.9179 C   0  0  0  0  0  0
  -23.6280   -8.2250   22.0761 C   0  0  0  0  0  0
  -22.4262   -8.0285   21.3551 C   0  0  0  0  0  0
  -21.9892   -9.0246   20.4643 C   0  0  0  0  0  0
  -22.7212  -10.2122   20.3043 C   0  0  0  0  0  0
  -21.6851   -6.0740   22.5282 C   0  0  0  0  0  0
  -21.4014   -6.5642   23.8218 C   0  0  0  0  0  0
  -21.3650   -5.6792   24.9177 C   0  0  0  0  0  0
  -21.6045   -4.3054   24.7221 C   0  0  0  0  0  0
  -21.8818   -3.8149   23.4342 C   0  0  0  0  0  0
  -21.9191   -4.6971   22.3403 C   0  0  0  0  0  0
  -22.7854  -13.5234   21.1833 C   0  0  0  0  0  0
  -22.1661   -4.2157   21.0979 F   0  0  0  0  0  0
  -21.5622   -3.4536   25.7733 F   0  0  0  0  0  0
  -30.0113  -13.3554   20.4587 N   0  0  0  0  0  0
  -26.2991  -12.9293   20.3338 N   0  0  0  0  0  0
  -25.9297  -11.6451   20.5741 N   0  0  0  0  0  0
  -22.0491  -12.8237   22.0386 N   0  0  0  0  0  0
  -25.4290  -15.1865   20.4088 N   0  0  0  0  0  0
  -31.7782  -14.7289   20.1141 O   0  0  0  0  0  0
  -21.6631   -6.8880   21.4244 O   0  0  0  0  0  0
  -22.3539  -14.5548   20.6694 O   0  0  0  0  0  0
  -24.6212  -31.8633   23.2028 C   0  0  0  0  0  0
  -25.9070  -32.4810   23.8355 C   0  0  1  0  0  0
  -27.2336  -27.3719   20.1031 C   0  0  0  0  0  0
  -25.5908  -33.8607   24.2298 N   0  0  0  0  0  0
  -23.4125  -30.4880   21.5451 C   0  0  2  0  0  0
  -24.8558  -28.9431   20.1143 C   0  0  0  0  0  0
  -22.7451  -29.4651   22.4945 C   0  0  0  0  0  0
  -18.0282  -28.1402   22.8510 C   0  0  0  0  0  0
  -24.1464  -36.7255   23.2647 C   0  0  0  0  0  0
  -25.9477  -30.8130   21.3586 C   0  0  0  0  0  0
  -26.0224  -29.4417   20.7074 C   0  0  0  0  0  0
  -27.2125  -28.6686   20.6876 C   0  0  0  0  0  0
  -26.0414  -26.9014   19.5063 C   0  0  0  0  0  0
  -24.8653  -27.6761   19.5081 C   0  0  0  0  0  0
  -23.6228  -29.8187   20.1615 C   0  0  0  0  0  0
  -25.4097  -36.3099   24.0357 C   0  0  1  0  0  0
  -20.5879  -28.3676   23.1292 C   0  0  2  0  0  0
  -20.6763  -26.9408   22.5405 C   0  0  0  0  0  0
  -19.5733  -26.6391   21.5218 C   0  0  0  0  0  0
  -18.1914  -26.7945   22.1636 C   0  0  0  0  0  0
  -19.1541  -28.8857   23.2896 C   0  0  0  0  0  0
  -18.9477  -30.1463   23.8905 C   0  0  0  0  0  0
  -17.6488  -30.6603   24.0584 C   0  0  0  0  0  0
  -25.9040  -34.9470   23.5127 C   0  0  0  0  0  0
  -16.5366  -29.9123   23.6344 C   0  0  0  0  0  0
  -16.7276  -28.6542   23.0361 C   0  0  0  0  0  0
  -26.4474  -31.6611   25.0698 C   0  0  0  0  0  0
  -25.3749  -31.3723   26.1451 C   0  0  0  0  0  0
  -27.0321  -30.3076   24.6060 C   0  0  0  0  0  0
  -27.6037  -32.4339   25.7458 C   0  0  0  0  0  0
  -27.5562  -37.1788   24.8494 C   0  0  0  0  0  0
  -21.4173  -29.3045   22.3693 N   0  0  0  0  0  0
  -26.4271  -37.3803   23.9450 N   0  0  0  0  0  0
  -24.6806  -31.0706   22.0943 N   0  0  0  0  0  0
  -23.4208  -28.8193   23.2991 O   0  0  0  0  0  0
  -28.4052  -26.6183   20.1019 O   0  0  0  0  0  0
  -26.5606  -34.8951   22.4685 O   0  0  0  0  0  0
  -23.5392  -32.1356   23.7420 O   0  0  0  0  0  0
  -31.0834  -19.7169   22.6095 C   0  0  0  0  0  0
  -30.4858  -20.8740   22.0683 C   0  0  0  0  0  0
  -30.9119  -18.4610   21.9926 C   0  0  0  0  0  0
  -29.5224  -19.5172   20.2945 C   0  0  0  0  0  0
  -29.7070  -20.8014   20.8937 C   0  0  0  0  0  0
  -30.1105  -18.3307   20.8372 C   0  0  0  0  0  0
  -29.7616  -24.5395   19.8166 C   0  0  0  0  0  0
  -32.5226  -21.6425   17.3357 C   0  0  0  0  0  0
  -29.0958  -15.7465   22.1693 C   0  0  0  0  0  0
  -29.0921  -22.1085   20.3096 C   0  0  0  0  0  0
  -29.9304  -16.9480   20.1394 C   0  0  0  0  0  0
  -28.3517  -25.1501   20.0815 C   0  0  0  0  0  0
  -31.2058  -22.2092   17.8822 C   0  0  0  0  0  0
  -31.3276  -22.6956   19.3392 C   0  0  0  0  0  0
  -30.0280  -23.1871   19.8606 N   0  0  0  0  0  0
  -29.8928  -15.6727   20.9344 N   0  0  0  0  0  0
  -30.6458  -25.3463   19.5017 O   0  0  0  0  0  0
  -31.4801  -12.5082   19.1347 H   0  0  0  0  0  0
  -30.3891  -11.3600   19.8367 H   0  0  0  0  0  0
  -29.7630  -11.7903   17.4517 H   0  0  0  0  0  0
  -29.6625  -13.5046   17.7550 H   0  0  0  0  0  0
  -27.8329  -11.3210   18.8026 H   0  0  0  0  0  0
  -27.3736  -12.6574   17.7820 H   0  0  0  0  0  0
  -27.7069  -14.2583   19.6033 H   0  0  0  0  0  0
  -28.7162  -11.8756   21.2179 H   0  0  0  0  0  0
  -28.4163  -13.3915   21.9291 H   0  0  0  0  0  0
  -25.2746   -9.5702   22.4744 H   0  0  0  0  0  0
  -23.9989   -7.4650   22.7492 H   0  0  0  0  0  0
  -21.0825   -8.8755   19.8949 H   0  0  0  0  0  0
  -22.3676  -10.9657   19.6142 H   0  0  0  0  0  0
  -21.2015   -7.6152   23.9726 H   0  0  0  0  0  0
  -21.1464   -6.0518   25.9079 H   0  0  0  0  0  0
  -22.0605   -2.7614   23.2836 H   0  0  0  0  0  0
  -22.4082  -11.9872   22.4745 H   0  0  0  0  0  0
  -21.1124  -13.1293   22.2618 H   0  0  0  0  0  0
  -24.6655  -15.8438   20.5283 H   0  0  0  0  0  0
  -26.2875  -15.6260   20.1011 H   0  0  0  0  0  0
  -26.7150  -32.5506   23.1130 H   0  0  0  0  0  0
  -25.0161  -33.9750   25.0517 H   0  0  0  0  0  0
  -22.7036  -31.3062   21.4047 H   0  0  0  0  0  0
  -23.3758  -35.9552   23.3338 H   0  0  0  0  0  0
  -24.3558  -36.8818   22.2050 H   0  0  0  0  0  0
  -23.7167  -37.6457   23.6631 H   0  0  0  0  0  0
  -26.0637  -31.5738   20.5845 H   0  0  0  0  0  0
  -26.8362  -30.8696   21.9764 H   0  0  0  0  0  0
  -28.1155  -29.0595   21.1344 H   0  0  0  0  0  0
  -25.9944  -25.9405   19.0212 H   0  0  0  0  0  0
  -23.9701  -27.2888   19.0413 H   0  0  0  0  0  0
  -23.7390  -30.5934   19.4017 H   0  0  0  0  0  0
  -22.7441  -29.2437   19.8634 H   0  0  0  0  0  0
  -25.1268  -36.1948   25.0851 H   0  0  0  0  0  0
  -20.9998  -28.3233   24.1399 H   0  0  0  0  0  0
  -20.5651  -26.2291   23.3593 H   0  0  0  0  0  0
  -21.6628  -26.7432   22.1189 H   0  0  0  0  0  0
  -19.6881  -25.6311   21.1223 H   0  0  0  0  0  0
  -19.6662  -27.3223   20.6763 H   0  0  0  0  0  0
  -17.4178  -26.6712   21.4038 H   0  0  0  0  0  0
  -18.0304  -26.0089   22.9029 H   0  0  0  0  0  0
  -19.7965  -30.7287   24.2238 H   0  0  0  0  0  0
  -17.5059  -31.6286   24.5193 H   0  0  0  0  0  0
  -15.5374  -30.3046   23.7675 H   0  0  0  0  0  0
  -15.8665  -28.0888   22.7049 H   0  0  0  0  0  0
  -24.5935  -30.7048   25.7815 H   0  0  0  0  0  0
  -24.8923  -32.2874   26.4883 H   0  0  0  0  0  0
  -25.8101  -30.8928   27.0223 H   0  0  0  0  0  0
  -26.2871  -29.6831   24.1121 H   0  0  0  0  0  0
  -27.4158  -29.7308   25.4484 H   0  0  0  0  0  0
  -27.8667  -30.4449   23.9181 H   0  0  0  0  0  0
  -27.2659  -33.3652   26.2012 H   0  0  0  0  0  0
  -28.3844  -32.6867   25.0279 H   0  0  0  0  0  0
  -28.0705  -31.8481   26.5385 H   0  0  0  0  0  0
  -28.2616  -38.0056   24.7548 H   0  0  0  0  0  0
  -28.1015  -36.2593   24.6308 H   0  0  0  0  0  0
  -27.2288  -37.1417   25.8902 H   0  0  0  0  0  0
  -20.9321  -29.8801   21.6960 H   0  0  0  0  0  0
  -26.0145  -38.2868   24.1498 H   0  0  0  0  0  0
  -31.6846  -19.7942   23.5056 H   0  0  0  0  0  0
  -30.6425  -21.8289   22.5499 H   0  0  0  0  0  0
  -31.3901  -17.5918   22.4246 H   0  0  0  0  0  0
  -28.9278  -19.4452   19.3951 H   0  0  0  0  0  0
  -32.3925  -21.2609   16.3220 H   0  0  0  0  0  0
  -32.8886  -20.8191   17.9518 H   0  0  0  0  0  0
  -33.3017  -22.4047   17.3006 H   0  0  0  0  0  0
  -29.4362  -15.0242   22.9127 H   0  0  0  0  0  0
  -28.0417  -15.5699   21.9527 H   0  0  0  0  0  0
  -29.1422  -16.7139   22.6610 H   0  0  0  0  0  0
  -28.4278  -22.5044   21.0782 H   0  0  0  0  0  0
  -28.4455  -21.8487   19.4711 H   0  0  0  0  0  0
  -30.7064  -16.8890   19.3741 H   0  0  0  0  0  0
  -28.9956  -16.9844   19.5799 H   0  0  0  0  0  0
  -27.9653  -24.7915   21.0358 H   0  0  0  0  0  0
  -27.7083  -24.7670   19.2918 H   0  0  0  0  0  0
  -30.4401  -21.4351   17.8201 H   0  0  0  0  0  0
  -30.8703  -23.0259   17.2421 H   0  0  0  0  0  0
  -32.1050  -23.4600   19.3948 H   0  0  0  0  0  0
  -31.7399  -21.9010   19.9558 H   0  0  0  0  0  0
  1 25  1  0  0  0
  1 30  2  0  0  0
  1 86  1  0  0  0
  2  3  1  0  0  0
  2 25  1  0  0  0
  2 88  1  0  0  0
  2 89  1  0  0  0
  3  4  1  0  0  0
  3 90  1  0  0  0
  3 91  1  0  0  0
  4  5  1  0  0  0
  4 92  1  0  0  0
  4 93  1  0  0  0
  5  6  1  0  0  0
  5 26  1  0  0  0
  5 94  1  0  0  0
  6 25  1  0  0  0
  6 95  1  0  0  0
  6 96  1  0  0  0
  7  8  2  0  0  0
  7 26  1  0  0  0
  7 29  1  0  0  0
  8  9  1  0  0  0
  8 22  1  0  0  0
  9 10  1  0  0  0
  9 27  2  0  0  0
 10 11  2  0  0  0
 10 15  1  0  0  0
 11 12  1  0  0  0
 11 97  1  0  0  0
 12 13  2  0  0  0
 12 98  1  0  0  0
 13 14  1  0  0  0
 13 31  1  0  0  0
 14 15  2  0  0  0
 14 99  1  0  0  0
 15100  1  0  0  0
 16 17  2  0  0  0
 16 21  1  0  0  0
 16 31  1  0  0  0
 17 18  1  0  0  0
 17101  1  0  0  0
 18 19  2  0  0  0
 18102  1  0  0  0
 19 20  1  0  0  0
 19 24  1  0  0  0
 20 21  2  0  0  0
 20103  1  0  0  0
 21 23  1  0  0  0
 22 28  1  0  0  0
 22 32  2  0  0  0
 26 27  1  0  0  0
 28104  1  0  0  0
 28105  1  0  0  0
 29106  1  0  0  0
 29107  1  0  0  0
 33 34  1  0  0  0
 33 66  1  0  0  0
 33 70  2  0  0  0
 34 36  1  0  0  0
 34 59  1  0  0  0
 34108  1  0  0  0
 35 44  2  0  0  0
 35 45  1  0  0  0
 35 68  1  0  0  0
 36 56  1  0  0  0
 36109  1  0  0  0
 37 39  1  0  0  0
 37 47  1  0  0  0
 37 66  1  0  0  0
 37110  1  0  0  0
 38 43  2  0  0  0
 38 46  1  0  0  0
 38 47  1  0  0  0
 39 64  1  0  0  0
 39 67  2  0  0  0
 40 52  1  0  0  0
 40 53  2  0  0  0
 40 58  1  0  0  0
 41111  1  0  0  0
 41112  1  0  0  0
 41113  1  0  0  0
 41 48  1  0  0  0
 42 43  1  0  0  0
 42 66  1  0  0  0
 42114  1  0  0  0
 42115  1  0  0  0
 43 44  1  0  0  0
 44116  1  0  0  0
 45 46  2  0  0  0
 45117  1  0  0  0
 46118  1  0  0  0
 47119  1  0  0  0
 47120  1  0  0  0
 48 56  1  0  0  0
 48 65  1  0  0  0
 48121  1  0  0  0
 49 50  1  0  0  0
 49 53  1  0  0  0
 49 64  1  0  0  0
 49122  1  0  0  0
 50 51  1  0  0  0
 50123  1  0  0  0
 50124  1  0  0  0
 51 52  1  0  0  0
 51125  1  0  0  0
 51126  1  0  0  0
 52127  1  0  0  0
 52128  1  0  0  0
 53 54  1  0  0  0
 54 55  2  0  0  0
 54129  1  0  0  0
 55 57  1  0  0  0
 55130  1  0  0  0
 56 69  2  0  0  0
 57 58  2  0  0  0
 57131  1  0  0  0
 58132  1  0  0  0
 59 60  1  0  0  0
 59 61  1  0  0  0
 59 62  1  0  0  0
 60133  1  0  0  0
 60134  1  0  0  0
 60135  1  0  0  0
 61136  1  0  0  0
 61137  1  0  0  0
 61138  1  0  0  0
 62139  1  0  0  0
 62140  1  0  0  0
 62141  1  0  0  0
 63 65  1  0  0  0
 63142  1  0  0  0
 63143  1  0  0  0
 63144  1  0  0  0
 64145  1  0  0  0
 65146  1  0  0  0
 68 82  1  0  0  0
 71 72  2  0  0  0
 71 73  1  0  0  0
 71147  1  0  0  0
 72 75  1  0  0  0
 72148  1  0  0  0
 73 76  2  0  0  0
 73149  1  0  0  0
 74 75  2  0  0  0
 74 76  1  0  0  0
 74150  1  0  0  0
 75 80  1  0  0  0
 76 81  1  0  0  0
 77 82  1  0  0  0
 77 85  1  0  0  0
 77 87  2  0  0  0
 78 83  1  0  0  0
 78151  1  0  0  0
 78152  1  0  0  0
 78153  1  0  0  0
 79 86  1  0  0  0
 79154  1  0  0  0
 79155  1  0  0  0
 79156  1  0  0  0
 80 85  1  0  0  0
 80157  1  0  0  0
 80158  1  0  0  0
 81 86  1  0  0  0
 81159  1  0  0  0
 81160  1  0  0  0
 82161  1  0  0  0
 82162  1  0  0  0
 83 84  1  0  0  0
 83163  1  0  0  0
 83164  1  0  0  0
 84 85  1  0  0  0
 84165  1  0  0  0
 84166  1  0  0  0
M  ISO  4   1 100  68 101  82 101  86 100
M  END
> <chiral flag>
0

> <version>
0

> <s_m_source_file>
/data/baiqing/PycharmProjects/Reinvent-master-3.2/result/LINK_invent/BTK/process_docking_weight1_custom_product_contain_oxygen_bond_distance_aromatic_linkinvent_7_9_3/rearranged_h_0021.sdf

> <i_m_source_file_index>
9

> <r_mmod_Potential_Energy-OPLS-2005>
188.734893798828

> <r_mmod_Stretch_Energy-OPLS-2005>
71.4229888916016

> <r_mmod_Bend_Energy-OPLS-2005>
132.018646240234

> <r_mmod_Torsional_Energy-OPLS-2005>
281.001281738281

> <r_mmod_Improper_Torsional_Energy-OPLS-2005>
9.26617336273193

> <r_mmod_Van_der_Waal_Energy-OPLS-2005>
165.179672241211

> <r_mmod_Electrostatic_Energy-OPLS-2005>
-272.491607666016

> <r_mmod_Solvation_Energy-OPLS-2005>
-222.004272460938

> <b_mmod_Minimization_Converged-OPLS-2005>
0

> <r_mmod_RMS_Derivative-OPLS-2005>
2.59796285629272

$$$$
9
                    3D
 Structure written by MMmdl.
165174  0  0  1  0            999 V2000
  -30.7539  -14.4692   20.6210 C   0  0  0  0  0  0
  -30.4112  -12.3284   19.4234 C   0  0  0  0  0  0
  -29.4864  -12.5102   18.2047 C   0  0  0  0  0  0
  -28.0135  -12.3434   18.6203 C   0  0  0  0  0  0
  -27.6520  -13.1981   19.8615 C   0  0  2  0  0  0
  -28.6955  -13.0229   20.9911 C   0  0  0  0  0  0
  -25.2572  -13.8143   20.5669 C   0  0  0  0  0  0
  -24.1822  -13.0433   20.9184 C   0  0  0  0  0  0
  -24.6360  -11.6894   20.8731 C   0  0  0  0  0  0
  -23.9025  -10.4291   21.0403 C   0  0  0  0  0  0
  -24.3587   -9.4211   21.9180 C   0  0  0  0  0  0
  -23.6274   -8.2243   22.0754 C   0  0  0  0  0  0
  -22.4257   -8.0277   21.3541 C   0  0  0  0  0  0
  -21.9891   -9.0243   20.4637 C   0  0  0  0  0  0
  -22.7206  -10.2128   20.3044 C   0  0  0  0  0  0
  -21.6845   -6.0728   22.5278 C   0  0  0  0  0  0
  -21.4007   -6.5632   23.8210 C   0  0  0  0  0  0
  -21.3660   -5.6787   24.9174 C   0  0  0  0  0  0
  -21.6047   -4.3051   24.7226 C   0  0  0  0  0  0
  -21.8823   -3.8143   23.4345 C   0  0  0  0  0  0
  -21.9192   -4.6958   22.3398 C   0  0  0  0  0  0
  -22.7852  -13.5246   21.1847 C   0  0  0  0  0  0
  -22.1661   -4.2144   21.0977 F   0  0  0  0  0  0
  -21.5633   -3.4538   25.7740 F   0  0  0  0  0  0
  -30.0294  -13.3235   20.4426 N   0  0  0  0  0  0
  -26.2968  -12.9279   20.3304 N   0  0  0  0  0  0
  -25.9274  -11.6456   20.5739 N   0  0  0  0  0  0
  -22.0486  -12.8242   22.0397 N   0  0  0  0  0  0
  -25.4306  -15.1861   20.4067 N   0  0  0  0  0  0
  -31.8460  -14.6390   20.0683 O   0  0  0  0  0  0
  -21.6631   -6.8868   21.4236 O   0  0  0  0  0  0
  -22.3552  -14.5558   20.6697 O   0  0  0  0  0  0
  -24.6164  -31.8674   23.2100 C   0  0  0  0  0  0
  -25.9052  -32.4813   23.8403 C   0  0  1  0  0  0
  -27.2302  -27.4250   20.0980 C   0  0  0  0  0  0
  -25.5910  -33.8615   24.2336 N   0  0  0  0  0  0
  -23.4050  -30.4921   21.5503 C   0  0  2  0  0  0
  -24.8520  -28.9608   20.1109 C   0  0  0  0  0  0
  -22.7420  -29.4656   22.4974 C   0  0  0  0  0  0
  -18.0280  -28.1370   22.8485 C   0  0  0  0  0  0
  -24.1489  -36.7312   23.2641 C   0  0  0  0  0  0
  -25.9362  -30.8297   21.3662 C   0  0  0  0  0  0
  -26.0133  -29.4654   20.7111 C   0  0  0  0  0  0
  -27.2083  -28.7057   20.7004 C   0  0  0  0  0  0
  -26.0580  -26.9522   19.4679 C   0  0  0  0  0  0
  -24.8697  -27.7044   19.4840 C   0  0  0  0  0  0
  -23.6141  -29.8268   20.1641 C   0  0  0  0  0  0
  -25.4111  -36.3107   24.0340 C   0  0  1  0  0  0
  -20.5870  -28.3665   23.1306 C   0  0  2  0  0  0
  -20.6769  -26.9398   22.5409 C   0  0  0  0  0  0
  -19.5744  -26.6379   21.5207 C   0  0  0  0  0  0
  -18.1927  -26.7913   22.1624 C   0  0  0  0  0  0
  -19.1527  -28.8835   23.2887 C   0  0  0  0  0  0
  -18.9454  -30.1444   23.8888 C   0  0  0  0  0  0
  -17.6455  -30.6574   24.0567 C   0  0  0  0  0  0
  -25.9040  -34.9471   23.5134 C   0  0  0  0  0  0
  -16.5348  -29.9074   23.6321 C   0  0  0  0  0  0
  -16.7271  -28.6499   23.0330 C   0  0  0  0  0  0
  -26.4481  -31.6586   25.0726 C   0  0  0  0  0  0
  -25.3743  -31.3631   26.1458 C   0  0  0  0  0  0
  -27.0353  -30.3051   24.6093 C   0  0  0  0  0  0
  -27.6049  -32.4307   25.7492 C   0  0  0  0  0  0
  -27.5583  -37.1805   24.8466 C   0  0  0  0  0  0
  -21.4146  -29.3036   22.3711 N   0  0  0  0  0  0
  -26.4294  -37.3799   23.9419 N   0  0  0  0  0  0
  -24.6709  -31.0771   22.1006 N   0  0  0  0  0  0
  -23.4183  -28.8193   23.3018 O   0  0  0  0  0  0
  -28.3703  -26.6456   20.1187 O   0  0  0  0  0  0
  -26.5599  -34.8917   22.4693 O   0  0  0  0  0  0
  -23.5348  -32.1436   23.7481 O   0  0  0  0  0  0
  -29.7431  -18.2772   19.8145 C   0  0  0  0  0  0
  -29.8592  -19.6716   19.6263 C   0  0  0  0  0  0
  -29.2386  -18.6529   22.1542 C   0  0  0  0  0  0
  -29.4084  -17.7528   21.0794 C   0  0  0  0  0  0
  -29.3686  -20.0540   21.9798 C   0  0  0  0  0  0
  -29.6645  -20.5832   20.6889 C   0  0  0  0  0  0
  -30.5425  -24.2105   20.5873 C   0  0  0  0  0  0
  -30.8435  -22.7508   20.9760 C   0  0  0  0  0  0
  -28.5865  -22.7937   20.3158 C   0  0  0  0  0  0
  -29.0920  -24.2323   20.0621 C   0  0  1  0  0  0
  -29.1864  -20.9251   23.2150 C   0  0  0  0  0  0
  -31.2699  -15.9319   22.4888 C   0  0  0  0  0  0
  -29.1472  -16.2481   21.2607 C   0  0  0  0  0  0
  -28.1863  -25.3276   20.6825 C   0  0  0  0  0  0
  -29.7807  -21.9586   20.3799 N   0  0  0  0  0  0
  -30.3094  -15.3736   21.5315 N   0  0  0  0  0  0
  -31.4554  -12.4148   19.1180 H   0  0  0  0  0  0
  -30.3088  -11.3218   19.8327 H   0  0  0  0  0  0
  -29.7396  -11.7877   17.4278 H   0  0  0  0  0  0
  -29.6376  -13.4981   17.7660 H   0  0  0  0  0  0
  -27.8455  -11.2872   18.8336 H   0  0  0  0  0  0
  -27.3554  -12.5923   17.7865 H   0  0  0  0  0  0
  -27.6712  -14.2285   19.5180 H   0  0  0  0  0  0
  -28.6790  -11.9980   21.3645 H   0  0  0  0  0  0
  -28.4408  -13.6455   21.8485 H   0  0  0  0  0  0
  -25.2730   -9.5707   22.4751 H   0  0  0  0  0  0
  -23.9992   -7.4643   22.7479 H   0  0  0  0  0  0
  -21.0829   -8.8747   19.8937 H   0  0  0  0  0  0
  -22.3657  -10.9660   19.6151 H   0  0  0  0  0  0
  -21.1993   -7.6140   23.9711 H   0  0  0  0  0  0
  -21.1477   -6.0515   25.9077 H   0  0  0  0  0  0
  -22.0600   -2.7605   23.2845 H   0  0  0  0  0  0
  -22.4086  -11.9894   22.4784 H   0  0  0  0  0  0
  -21.1100  -13.1272   22.2586 H   0  0  0  0  0  0
  -24.6654  -15.8423   20.5168 H   0  0  0  0  0  0
  -26.2799  -15.6239   20.0754 H   0  0  0  0  0  0
  -26.7124  -32.5529   23.1170 H   0  0  0  0  0  0
  -25.0077  -33.9779   25.0492 H   0  0  0  0  0  0
  -22.6943  -31.3090   21.4110 H   0  0  0  0  0  0
  -23.3758  -35.9637   23.3289 H   0  0  0  0  0  0
  -24.3581  -36.8955   22.2057 H   0  0  0  0  0  0
  -23.7225  -37.6504   23.6675 H   0  0  0  0  0  0
  -26.0511  -31.5959   20.5980 H   0  0  0  0  0  0
  -26.8239  -30.8821   21.9847 H   0  0  0  0  0  0
  -28.1030  -29.0868   21.1727 H   0  0  0  0  0  0
  -26.0585  -25.9968   18.9620 H   0  0  0  0  0  0
  -23.9815  -27.3155   19.0050 H   0  0  0  0  0  0
  -23.7223  -30.6031   19.4056 H   0  0  0  0  0  0
  -22.7390  -29.2457   19.8670 H   0  0  0  0  0  0
  -25.1280  -36.1976   25.0833 H   0  0  0  0  0  0
  -20.9962  -28.3236   24.1425 H   0  0  0  0  0  0
  -20.5685  -26.2268   23.3594 H   0  0  0  0  0  0
  -21.6638  -26.7439   22.1199 H   0  0  0  0  0  0
  -19.6907  -25.6296   21.1222 H   0  0  0  0  0  0
  -19.6675  -27.3193   20.6739 H   0  0  0  0  0  0
  -17.4196  -26.6656   21.4027 H   0  0  0  0  0  0
  -18.0327  -26.0049   22.9014 H   0  0  0  0  0  0
  -19.7933  -30.7263   24.2238 H   0  0  0  0  0  0
  -17.5014  -31.6242   24.5192 H   0  0  0  0  0  0
  -15.5348  -30.2977   23.7644 H   0  0  0  0  0  0
  -15.8675  -28.0829   22.7017 H   0  0  0  0  0  0
  -24.5943  -30.6968   25.7757 H   0  0  0  0  0  0
  -24.8899  -32.2752   26.4948 H   0  0  0  0  0  0
  -25.8107  -30.8757   27.0186 H   0  0  0  0  0  0
  -26.2906  -29.6750   24.1220 H   0  0  0  0  0  0
  -27.4237  -29.7338   25.4534 H   0  0  0  0  0  0
  -27.8680  -30.4411   23.9187 H   0  0  0  0  0  0
  -27.2686  -33.3617   26.2065 H   0  0  0  0  0  0
  -28.3859  -32.6845   25.0312 H   0  0  0  0  0  0
  -28.0715  -31.8427   26.5405 H   0  0  0  0  0  0
  -28.2573  -38.0132   24.7579 H   0  0  0  0  0  0
  -28.1112  -36.2667   24.6235 H   0  0  0  0  0  0
  -27.2295  -37.1382   25.8865 H   0  0  0  0  0  0
  -20.9306  -29.8788   21.6957 H   0  0  0  0  0  0
  -26.0178  -38.2872   24.1451 H   0  0  0  0  0  0
  -29.8819  -17.6164   18.9704 H   0  0  0  0  0  0
  -30.0945  -20.0450   18.6395 H   0  0  0  0  0  0
  -28.9852  -18.2616   23.1301 H   0  0  0  0  0  0
  -31.2235  -24.5484   19.8050 H   0  0  0  0  0  0
  -30.6872  -24.8742   21.4414 H   0  0  0  0  0  0
  -30.8531  -22.6421   22.0596 H   0  0  0  0  0  0
  -31.8206  -22.4341   20.6064 H   0  0  0  0  0  0
  -27.9199  -22.4660   19.5167 H   0  0  0  0  0  0
  -28.0190  -22.7441   21.2439 H   0  0  0  0  0  0
  -29.1166  -24.3776   18.9807 H   0  0  0  0  0  0
  -28.4800  -20.4676   23.9079 H   0  0  0  0  0  0
  -28.8126  -21.9200   22.9925 H   0  0  0  0  0  0
  -30.1373  -21.0341   23.7354 H   0  0  0  0  0  0
  -30.7591  -16.3465   23.3584 H   0  0  0  0  0  0
  -31.8646  -16.7231   22.0287 H   0  0  0  0  0  0
  -31.9584  -15.1664   22.8522 H   0  0  0  0  0  0
  -28.6408  -15.9249   20.3546 H   0  0  0  0  0  0
  -28.4223  -16.1085   22.0639 H   0  0  0  0  0  0
  -28.3658  -25.3891   21.7566 H   0  0  0  0  0  0
  -27.1571  -24.9816   20.5977 H   0  0  0  0  0  0
  1 25  1  0  0  0
  1 30  2  0  0  0
  1 86  1  0  0  0
  2  3  1  0  0  0
  2 25  1  0  0  0
  2 87  1  0  0  0
  2 88  1  0  0  0
  3  4  1  0  0  0
  3 89  1  0  0  0
  3 90  1  0  0  0
  4  5  1  0  0  0
  4 91  1  0  0  0
  4 92  1  0  0  0
  5  6  1  0  0  0
  5 26  1  0  0  0
  5 93  1  0  0  0
  6 25  1  0  0  0
  6 94  1  0  0  0
  6 95  1  0  0  0
  7  8  2  0  0  0
  7 26  1  0  0  0
  7 29  1  0  0  0
  8  9  1  0  0  0
  8 22  1  0  0  0
  9 10  1  0  0  0
  9 27  2  0  0  0
 10 11  2  0  0  0
 10 15  1  0  0  0
 11 12  1  0  0  0
 11 96  1  0  0  0
 12 13  2  0  0  0
 12 97  1  0  0  0
 13 14  1  0  0  0
 13 31  1  0  0  0
 14 15  2  0  0  0
 14 98  1  0  0  0
 15 99  1  0  0  0
 16 17  2  0  0  0
 16 21  1  0  0  0
 16 31  1  0  0  0
 17 18  1  0  0  0
 17100  1  0  0  0
 18 19  2  0  0  0
 18101  1  0  0  0
 19 20  1  0  0  0
 19 24  1  0  0  0
 20 21  2  0  0  0
 20102  1  0  0  0
 21 23  1  0  0  0
 22 28  1  0  0  0
 22 32  2  0  0  0
 26 27  1  0  0  0
 28103  1  0  0  0
 28104  1  0  0  0
 29105  1  0  0  0
 29106  1  0  0  0
 33 34  1  0  0  0
 33 66  1  0  0  0
 33 70  2  0  0  0
 34 36  1  0  0  0
 34 59  1  0  0  0
 34107  1  0  0  0
 35 44  2  0  0  0
 35 45  1  0  0  0
 35 68  1  0  0  0
 36 56  1  0  0  0
 36108  1  0  0  0
 37 39  1  0  0  0
 37 47  1  0  0  0
 37 66  1  0  0  0
 37109  1  0  0  0
 38 43  2  0  0  0
 38 46  1  0  0  0
 38 47  1  0  0  0
 39 64  1  0  0  0
 39 67  2  0  0  0
 40 52  1  0  0  0
 40 53  2  0  0  0
 40 58  1  0  0  0
 41110  1  0  0  0
 41111  1  0  0  0
 41112  1  0  0  0
 41 48  1  0  0  0
 42 43  1  0  0  0
 42 66  1  0  0  0
 42113  1  0  0  0
 42114  1  0  0  0
 43 44  1  0  0  0
 44115  1  0  0  0
 45 46  2  0  0  0
 45116  1  0  0  0
 46117  1  0  0  0
 47118  1  0  0  0
 47119  1  0  0  0
 48 56  1  0  0  0
 48 65  1  0  0  0
 48120  1  0  0  0
 49 50  1  0  0  0
 49 53  1  0  0  0
 49 64  1  0  0  0
 49121  1  0  0  0
 50 51  1  0  0  0
 50122  1  0  0  0
 50123  1  0  0  0
 51 52  1  0  0  0
 51124  1  0  0  0
 51125  1  0  0  0
 52126  1  0  0  0
 52127  1  0  0  0
 53 54  1  0  0  0
 54 55  2  0  0  0
 54128  1  0  0  0
 55 57  1  0  0  0
 55129  1  0  0  0
 56 69  2  0  0  0
 57 58  2  0  0  0
 57130  1  0  0  0
 58131  1  0  0  0
 59 60  1  0  0  0
 59 61  1  0  0  0
 59 62  1  0  0  0
 60132  1  0  0  0
 60133  1  0  0  0
 60134  1  0  0  0
 61135  1  0  0  0
 61136  1  0  0  0
 61137  1  0  0  0
 62138  1  0  0  0
 62139  1  0  0  0
 62140  1  0  0  0
 63 65  1  0  0  0
 63141  1  0  0  0
 63142  1  0  0  0
 63143  1  0  0  0
 64144  1  0  0  0
 65145  1  0  0  0
 68 84  1  0  0  0
 71 72  2  0  0  0
 71 74  1  0  0  0
 71146  1  0  0  0
 72 76  1  0  0  0
 72147  1  0  0  0
 73 74  2  0  0  0
 73 75  1  0  0  0
 73148  1  0  0  0
 74 83  1  0  0  0
 75 76  2  0  0  0
 75 81  1  0  0  0
 76 85  1  0  0  0
 77 78  1  0  0  0
 77 80  1  0  0  0
 77149  1  0  0  0
 77150  1  0  0  0
 78 85  1  0  0  0
 78151  1  0  0  0
 78152  1  0  0  0
 79 80  1  0  0  0
 79 85  1  0  0  0
 79153  1  0  0  0
 79154  1  0  0  0
 80 84  1  0  0  0
 80155  1  0  0  0
 81156  1  0  0  0
 81157  1  0  0  0
 81158  1  0  0  0
 82 86  1  0  0  0
 82159  1  0  0  0
 82160  1  0  0  0
 82161  1  0  0  0
 83 86  1  0  0  0
 83162  1  0  0  0
 83163  1  0  0  0
 84164  1  0  0  0
 84165  1  0  0  0
M  ISO  4   1 100  68 101  84 101  86 100
M  END
> <chiral flag>
0

> <version>
0

> <s_m_source_file>
/data/baiqing/PycharmProjects/Reinvent-master-3.2/result/LINK_invent/BTK/process_docking_weight1_custom_product_contain_oxygen_bond_distance_aromatic_linkinvent_7_9_3/rearranged_h_0021.sdf

> <i_m_source_file_index>
10

> <r_mmod_Potential_Energy-OPLS-2005>
178.796829223633

> <r_mmod_Stretch_Energy-OPLS-2005>
41.9339485168457

> <r_mmod_Bend_Energy-OPLS-2005>
132.971343994141

> <r_mmod_Torsional_Energy-OPLS-2005>
374.905029296875

> <r_mmod_Improper_Torsional_Energy-OPLS-2005>
8.48319435119629

> <r_mmod_Van_der_Waal_Energy-OPLS-2005>
149.791107177734

> <r_mmod_Electrostatic_Energy-OPLS-2005>
-333.708435058594

> <r_mmod_Solvation_Energy-OPLS-2005>
-210.220611572266

> <b_mmod_Minimization_Converged-OPLS-2005>
0

> <r_mmod_RMS_Derivative-OPLS-2005>
1.19893598556519

$$$$
10
                    3D
 Structure written by MMmdl.
168176  0  0  1  0            999 V2000
  -30.6644  -14.4492   20.6383 C   0  0  0  0  0  0
  -30.4572  -12.2998   19.4470 C   0  0  0  0  0  0
  -29.5212  -12.4997   18.2337 C   0  0  0  0  0  0
  -28.0366  -12.3479   18.6448 C   0  0  0  0  0  0
  -27.6724  -13.1745   19.9081 C   0  0  2  0  0  0
  -28.7085  -12.8928   21.0197 C   0  0  0  0  0  0
  -25.2644  -13.7964   20.5736 C   0  0  0  0  0  0
  -24.1859  -13.0326   20.9224 C   0  0  0  0  0  0
  -24.6387  -11.6754   20.8894 C   0  0  0  0  0  0
  -23.9041  -10.4150   21.0571 C   0  0  0  0  0  0
  -24.3522   -9.3998   21.9324 C   0  0  0  0  0  0
  -23.6157   -8.2056   22.0771 C   0  0  0  0  0  0
  -22.4186   -8.0157   21.3516 C   0  0  0  0  0  0
  -21.9885   -9.0164   20.4649 C   0  0  0  0  0  0
  -22.7251  -10.2036   20.3153 C   0  0  0  0  0  0
  -21.6763   -6.0643   22.5256 C   0  0  0  0  0  0
  -21.3975   -6.5577   23.8195 C   0  0  0  0  0  0
  -21.3669   -5.6767   24.9177 C   0  0  0  0  0  0
  -21.6049   -4.3023   24.7249 C   0  0  0  0  0  0
  -21.8801   -3.8078   23.4377 C   0  0  0  0  0  0
  -21.9138   -4.6866   22.3411 C   0  0  0  0  0  0
  -22.7874  -13.5139   21.1847 C   0  0  0  0  0  0
  -22.1628   -4.2049   21.0996 F   0  0  0  0  0  0
  -21.5647   -3.4530   25.7777 F   0  0  0  0  0  0
  -30.0373  -13.2491   20.4911 N   0  0  0  0  0  0
  -26.3086  -12.9101   20.3577 N   0  0  0  0  0  0
  -25.9319  -11.6292   20.5955 N   0  0  0  0  0  0
  -22.0483  -12.8175   22.0407 N   0  0  0  0  0  0
  -25.4482  -15.1661   20.3935 N   0  0  0  0  0  0
  -31.7847  -14.6685   20.1582 O   0  0  0  0  0  0
  -21.6525   -6.8782   21.4215 O   0  0  0  0  0  0
  -22.3581  -14.5472   20.6699 O   0  0  0  0  0  0
  -24.6154  -31.8681   23.2070 C   0  0  0  0  0  0
  -25.9054  -32.4817   23.8365 C   0  0  1  0  0  0
  -27.2458  -27.4336   20.1018 C   0  0  0  0  0  0
  -25.5907  -33.8610   24.2304 N   0  0  0  0  0  0
  -23.4001  -30.4906   21.5433 C   0  0  2  0  0  0
  -24.8510  -28.9561   20.1060 C   0  0  0  0  0  0
  -22.7387  -29.4685   22.4955 C   0  0  0  0  0  0
  -18.0268  -28.1377   22.8519 C   0  0  0  0  0  0
  -24.1460  -36.7271   23.2608 C   0  0  0  0  0  0
  -25.9230  -30.8393   21.3515 C   0  0  0  0  0  0
  -26.0038  -29.4670   20.7124 C   0  0  0  0  0  0
  -27.1958  -28.7063   20.7190 C   0  0  0  0  0  0
  -26.0720  -26.9369   19.4903 C   0  0  0  0  0  0
  -24.8814  -27.6914   19.4922 C   0  0  0  0  0  0
  -23.6073  -29.8171   20.1567 C   0  0  0  0  0  0
  -25.4067  -36.3086   24.0332 C   0  0  1  0  0  0
  -20.5853  -28.3660   23.1314 C   0  0  2  0  0  0
  -20.6747  -26.9393   22.5413 C   0  0  0  0  0  0
  -19.5720  -26.6395   21.5213 C   0  0  0  0  0  0
  -18.1896  -26.7929   22.1627 C   0  0  0  0  0  0
  -19.1511  -28.8831   23.2929 C   0  0  0  0  0  0
  -18.9448  -30.1421   23.8954 C   0  0  0  0  0  0
  -17.6454  -30.6590   24.0580 C   0  0  0  0  0  0
  -25.9035  -34.9475   23.5116 C   0  0  0  0  0  0
  -16.5347  -29.9090   23.6339 C   0  0  0  0  0  0
  -16.7259  -28.6502   23.0380 C   0  0  0  0  0  0
  -26.4481  -31.6592   25.0682 C   0  0  0  0  0  0
  -25.3754  -31.3668   26.1426 C   0  0  0  0  0  0
  -27.0311  -30.3051   24.6008 C   0  0  0  0  0  0
  -27.6079  -32.4271   25.7474 C   0  0  0  0  0  0
  -27.5617  -37.1693   24.8376 C   0  0  0  0  0  0
  -21.4110  -29.3065   22.3722 N   0  0  0  0  0  0
  -26.4190  -37.3850   23.9534 N   0  0  0  0  0  0
  -24.6639  -31.0797   22.0946 N   0  0  0  0  0  0
  -23.4156  -28.8219   23.2995 O   0  0  0  0  0  0
  -28.4398  -26.7384   20.1371 O   0  0  0  0  0  0
  -26.5617  -34.8951   22.4679 O   0  0  0  0  0  0
  -23.5345  -32.1423   23.7460 O   0  0  0  0  0  0
  -28.2435  -18.0544   22.5078 C   0  0  0  0  0  0
  -30.5295  -17.8820   23.3301 C   0  0  0  0  0  0
  -28.2037  -19.4209   22.8599 C   0  0  0  0  0  0
  -30.4857  -19.2419   23.7175 C   0  0  0  0  0  0
  -29.4007  -17.2735   22.7306 C   0  0  0  0  0  0
  -29.3237  -20.0095   23.4788 C   0  0  0  0  0  0
  -28.9017  -22.5039   23.3770 C   0  0  0  0  0  0
  -28.3080  -23.5685   24.2789 C   0  0  0  0  0  0
  -29.9790  -21.8611   21.2379 C   0  0  0  0  0  0
  -29.6017  -16.5325   19.9668 C   0  0  0  0  0  0
  -29.3981  -15.7889   22.3331 C   0  0  0  0  0  0
  -28.3661  -24.2178   20.0523 C   0  0  0  0  0  0
  -28.9422  -24.1564   21.4900 C   0  0  0  0  0  0
  -28.6590  -25.5640   19.3415 C   0  0  0  0  0  0
  -29.1708  -22.7896   22.0601 N   0  0  0  0  0  0
  -29.8386  -15.4802   20.9566 N   0  0  0  0  0  0
  -29.2160  -21.3434   24.0274 N   0  3  0  0  0  0
  -31.4995  -12.4356   19.1520 H   0  0  0  0  0  0
  -30.4030  -11.2779   19.8286 H   0  0  0  0  0  0
  -29.7945  -11.8086   17.4333 H   0  0  0  0  0  0
  -29.6687  -13.4990   17.8291 H   0  0  0  0  0  0
  -27.8621  -11.2945   18.8630 H   0  0  0  0  0  0
  -27.3801  -12.6005   17.8100 H   0  0  0  0  0  0
  -27.7282  -14.2302   19.6478 H   0  0  0  0  0  0
  -28.7030  -11.8320   21.2880 H   0  0  0  0  0  0
  -28.4497  -13.3989   21.9452 H   0  0  0  0  0  0
  -25.2632   -9.5323   22.5002 H   0  0  0  0  0  0
  -23.9746   -7.4358   22.7444 H   0  0  0  0  0  0
  -21.0849   -8.8700   19.8899 H   0  0  0  0  0  0
  -22.3782  -10.9586   19.6260 H   0  0  0  0  0  0
  -21.2014   -7.6096   23.9656 H   0  0  0  0  0  0
  -21.1563   -6.0540   25.9081 H   0  0  0  0  0  0
  -22.0606   -2.7532   23.2932 H   0  0  0  0  0  0
  -22.3991  -11.9770   22.4796 H   0  0  0  0  0  0
  -21.1120  -13.1253   22.2615 H   0  0  0  0  0  0
  -24.6771  -15.8234   20.4059 H   0  0  0  0  0  0
  -26.2906  -15.5467   19.9810 H   0  0  0  0  0  0
  -26.7148  -32.5539   23.1158 H   0  0  0  0  0  0
  -25.0121  -33.9779   25.0488 H   0  0  0  0  0  0
  -22.6929  -31.3085   21.3983 H   0  0  0  0  0  0
  -23.3840  -35.9466   23.3008 H   0  0  0  0  0  0
  -24.3670  -36.9161   22.2088 H   0  0  0  0  0  0
  -23.7006  -37.6295   23.6800 H   0  0  0  0  0  0
  -26.0107  -31.5990   20.5710 H   0  0  0  0  0  0
  -26.8197  -30.9185   21.9532 H   0  0  0  0  0  0
  -28.0811  -29.0988   21.1977 H   0  0  0  0  0  0
  -26.0545  -25.9686   19.0137 H   0  0  0  0  0  0
  -23.9981  -27.2955   19.0113 H   0  0  0  0  0  0
  -23.6938  -30.5855   19.3867 H   0  0  0  0  0  0
  -22.7374  -29.2221   19.8735 H   0  0  0  0  0  0
  -25.1201  -36.1882   25.0801 H   0  0  0  0  0  0
  -20.9982  -28.3217   24.1419 H   0  0  0  0  0  0
  -20.5647  -26.2270   23.3602 H   0  0  0  0  0  0
  -21.6611  -26.7424   22.1196 H   0  0  0  0  0  0
  -19.6866  -25.6314   21.1221 H   0  0  0  0  0  0
  -19.6643  -27.3239   20.6765 H   0  0  0  0  0  0
  -17.4159  -26.6719   21.4032 H   0  0  0  0  0  0
  -18.0276  -26.0046   22.8999 H   0  0  0  0  0  0
  -19.7916  -30.7227   24.2365 H   0  0  0  0  0  0
  -17.5001  -31.6302   24.5115 H   0  0  0  0  0  0
  -15.5345  -30.3013   23.7632 H   0  0  0  0  0  0
  -15.8655  -28.0825   22.7104 H   0  0  0  0  0  0
  -24.5950  -30.7002   25.7746 H   0  0  0  0  0  0
  -24.8922  -32.2812   26.4889 H   0  0  0  0  0  0
  -25.8099  -30.8827   27.0180 H   0  0  0  0  0  0
  -26.2831  -29.6794   24.1127 H   0  0  0  0  0  0
  -27.4210  -29.7299   25.4416 H   0  0  0  0  0  0
  -27.8604  -30.4419   23.9055 H   0  0  0  0  0  0
  -27.2788  -33.3676   26.1909 H   0  0  0  0  0  0
  -28.4007  -32.6615   25.0355 H   0  0  0  0  0  0
  -28.0588  -31.8425   26.5507 H   0  0  0  0  0  0
  -28.2233  -38.0359   24.8070 H   0  0  0  0  0  0
  -28.1495  -36.3004   24.5389 H   0  0  0  0  0  0
  -27.2479  -37.0309   25.8737 H   0  0  0  0  0  0
  -20.9216  -29.8836   21.7015 H   0  0  0  0  0  0
  -26.0025  -38.2803   24.1948 H   0  0  0  0  0  0
  -27.3675  -17.5871   22.0766 H   0  0  0  0  0  0
  -31.4239  -17.3070   23.5262 H   0  0  0  0  0  0
  -27.2959  -19.9902   22.7226 H   0  0  0  0  0  0
  -31.3358  -19.6837   24.2222 H   0  0  0  0  0  0
  -29.0291  -24.3616   24.4828 H   0  0  0  0  0  0
  -27.9901  -23.1549   25.2376 H   0  0  0  0  0  0
  -27.4154  -24.0247   23.8507 H   0  0  0  0  0  0
  -30.8012  -21.4582   21.8306 H   0  0  0  0  0  0
  -30.4426  -22.3397   20.3755 H   0  0  0  0  0  0
  -29.3732  -21.0301   20.8754 H   0  0  0  0  0  0
  -28.5725  -16.8787   20.0452 H   0  0  0  0  0  0
  -29.7388  -16.1701   18.9478 H   0  0  0  0  0  0
  -30.2599  -17.3883   20.1289 H   0  0  0  0  0  0
  -28.3653  -15.4480   22.4269 H   0  0  0  0  0  0
  -29.9731  -15.2040   23.0513 H   0  0  0  0  0  0
  -27.2884  -24.0620   20.0933 H   0  0  0  0  0  0
  -28.7546  -23.4150   19.4259 H   0  0  0  0  0  0
  -28.2383  -24.7268   22.0889 H   0  0  0  0  0  0
  -29.8789  -24.7115   21.5471 H   0  0  0  0  0  0
  -28.1518  -25.6223   18.3771 H   0  0  0  0  0  0
  -29.7207  -25.5706   19.0887 H   0  0  0  0  0  0
  -29.5265  -21.4701   24.9813 H   0  0  0  0  0  0
  1 25  1  0  0  0
  1 30  2  0  0  0
  1 86  1  0  0  0
  2  3  1  0  0  0
  2 25  1  0  0  0
  2 88  1  0  0  0
  2 89  1  0  0  0
  3  4  1  0  0  0
  3 90  1  0  0  0
  3 91  1  0  0  0
  4  5  1  0  0  0
  4 92  1  0  0  0
  4 93  1  0  0  0
  5  6  1  0  0  0
  5 26  1  0  0  0
  5 94  1  0  0  0
  6 25  1  0  0  0
  6 95  1  0  0  0
  6 96  1  0  0  0
  7  8  2  0  0  0
  7 26  1  0  0  0
  7 29  1  0  0  0
  8  9  1  0  0  0
  8 22  1  0  0  0
  9 10  1  0  0  0
  9 27  2  0  0  0
 10 11  2  0  0  0
 10 15  1  0  0  0
 11 12  1  0  0  0
 11 97  1  0  0  0
 12 13  2  0  0  0
 12 98  1  0  0  0
 13 14  1  0  0  0
 13 31  1  0  0  0
 14 15  2  0  0  0
 14 99  1  0  0  0
 15100  1  0  0  0
 16 17  2  0  0  0
 16 21  1  0  0  0
 16 31  1  0  0  0
 17 18  1  0  0  0
 17101  1  0  0  0
 18 19  2  0  0  0
 18102  1  0  0  0
 19 20  1  0  0  0
 19 24  1  0  0  0
 20 21  2  0  0  0
 20103  1  0  0  0
 21 23  1  0  0  0
 22 28  1  0  0  0
 22 32  2  0  0  0
 26 27  1  0  0  0
 28104  1  0  0  0
 28105  1  0  0  0
 29106  1  0  0  0
 29107  1  0  0  0
 33 34  1  0  0  0
 33 66  1  0  0  0
 33 70  2  0  0  0
 34 36  1  0  0  0
 34 59  1  0  0  0
 34108  1  0  0  0
 35 44  2  0  0  0
 35 45  1  0  0  0
 35 68  1  0  0  0
 36 56  1  0  0  0
 36109  1  0  0  0
 37 39  1  0  0  0
 37 47  1  0  0  0
 37 66  1  0  0  0
 37110  1  0  0  0
 38 43  2  0  0  0
 38 46  1  0  0  0
 38 47  1  0  0  0
 39 64  1  0  0  0
 39 67  2  0  0  0
 40 52  1  0  0  0
 40 53  2  0  0  0
 40 58  1  0  0  0
 41111  1  0  0  0
 41112  1  0  0  0
 41113  1  0  0  0
 41 48  1  0  0  0
 42 43  1  0  0  0
 42 66  1  0  0  0
 42114  1  0  0  0
 42115  1  0  0  0
 43 44  1  0  0  0
 44116  1  0  0  0
 45 46  2  0  0  0
 45117  1  0  0  0
 46118  1  0  0  0
 47119  1  0  0  0
 47120  1  0  0  0
 48 56  1  0  0  0
 48 65  1  0  0  0
 48121  1  0  0  0
 49 50  1  0  0  0
 49 53  1  0  0  0
 49 64  1  0  0  0
 49122  1  0  0  0
 50 51  1  0  0  0
 50123  1  0  0  0
 50124  1  0  0  0
 51 52  1  0  0  0
 51125  1  0  0  0
 51126  1  0  0  0
 52127  1  0  0  0
 52128  1  0  0  0
 53 54  1  0  0  0
 54 55  2  0  0  0
 54129  1  0  0  0
 55 57  1  0  0  0
 55130  1  0  0  0
 56 69  2  0  0  0
 57 58  2  0  0  0
 57131  1  0  0  0
 58132  1  0  0  0
 59 60  1  0  0  0
 59 61  1  0  0  0
 59 62  1  0  0  0
 60133  1  0  0  0
 60134  1  0  0  0
 60135  1  0  0  0
 61136  1  0  0  0
 61137  1  0  0  0
 61138  1  0  0  0
 62139  1  0  0  0
 62140  1  0  0  0
 62141  1  0  0  0
 63 65  1  0  0  0
 63142  1  0  0  0
 63143  1  0  0  0
 63144  1  0  0  0
 64145  1  0  0  0
 65146  1  0  0  0
 68 84  1  0  0  0
 71 73  2  0  0  0
 71 75  1  0  0  0
 71147  1  0  0  0
 72 74  1  0  0  0
 72 75  2  0  0  0
 72148  1  0  0  0
 73 76  1  0  0  0
 73149  1  0  0  0
 74 76  2  0  0  0
 74150  1  0  0  0
 75 81  1  0  0  0
 76 87  1  0  0  0
 77 78  1  0  0  0
 77 85  1  0  0  0
 77 87  2  0  0  0
 78151  1  0  0  0
 78152  1  0  0  0
 78153  1  0  0  0
 79 85  1  0  0  0
 79154  1  0  0  0
 79155  1  0  0  0
 79156  1  0  0  0
 80 86  1  0  0  0
 80157  1  0  0  0
 80158  1  0  0  0
 80159  1  0  0  0
 81 86  1  0  0  0
 81160  1  0  0  0
 81161  1  0  0  0
 82 83  1  0  0  0
 82 84  1  0  0  0
 82162  1  0  0  0
 82163  1  0  0  0
 83 85  1  0  0  0
 83164  1  0  0  0
 83165  1  0  0  0
 84166  1  0  0  0
 84167  1  0  0  0
 87168  1  0  0  0
M  CHG  1  87   1
M  ISO  4   1 100  68 101  84 101  86 100
M  END
> <chiral flag>
0

> <version>
0

> <s_m_source_file>
/data/baiqing/PycharmProjects/Reinvent-master-3.2/result/LINK_invent/BTK/process_docking_weight1_custom_product_contain_oxygen_bond_distance_aromatic_linkinvent_7_9_3/rearranged_h_0021.sdf

> <i_m_source_file_index>
11

> <r_mmod_Potential_Energy-OPLS-2005>
100.40975189209

> <r_mmod_Stretch_Energy-OPLS-2005>
45.8486633300781

> <r_mmod_Bend_Energy-OPLS-2005>
129.140777587891

> <r_mmod_Torsional_Energy-OPLS-2005>
308.712219238281

> <r_mmod_Improper_Torsional_Energy-OPLS-2005>
15.0473480224609

> <r_mmod_Van_der_Waal_Energy-OPLS-2005>
164.48779296875

> <r_mmod_Electrostatic_Energy-OPLS-2005>
-189.80419921875

> <r_mmod_Solvation_Energy-OPLS-2005>
-387.921630859375

> <b_mmod_Minimization_Converged-OPLS-2005>
0

> <r_mmod_RMS_Derivative-OPLS-2005>
6.75589418411255

$$$$
11
                    3D
 Structure written by MMmdl.
156165  0  0  1  0            999 V2000
  -30.5217  -14.9217   20.4425 C   0  0  0  0  0  0
  -30.4492  -12.5670   19.5055 C   0  0  0  0  0  0
  -29.5327  -12.5604   18.2603 C   0  0  0  0  0  0
  -28.0634  -12.3402   18.6692 C   0  0  0  0  0  0
  -27.6404  -13.2459   19.8536 C   0  0  2  0  0  0
  -28.6781  -13.2325   20.9972 C   0  0  0  0  0  0
  -25.2495  -13.8203   20.5683 C   0  0  0  0  0  0
  -24.1819  -13.0439   20.9201 C   0  0  0  0  0  0
  -24.6430  -11.6920   20.8752 C   0  0  0  0  0  0
  -23.9103  -10.4299   21.0408 C   0  0  0  0  0  0
  -24.3637   -9.4207   21.9187 C   0  0  0  0  0  0
  -23.6306   -8.2246   22.0745 C   0  0  0  0  0  0
  -22.4289   -8.0297   21.3536 C   0  0  0  0  0  0
  -21.9940   -9.0277   20.4635 C   0  0  0  0  0  0
  -22.7274  -10.2149   20.3045 C   0  0  0  0  0  0
  -21.6855   -6.0755   22.5284 C   0  0  0  0  0  0
  -21.4013   -6.5644   23.8219 C   0  0  0  0  0  0
  -21.3653   -5.6783   24.9179 C   0  0  0  0  0  0
  -21.6032   -4.3049   24.7217 C   0  0  0  0  0  0
  -21.8819   -3.8154   23.4338 C   0  0  0  0  0  0
  -21.9188   -4.6981   22.3400 C   0  0  0  0  0  0
  -22.7825  -13.5201   21.1873 C   0  0  0  0  0  0
  -22.1661   -4.2164   21.0983 F   0  0  0  0  0  0
  -21.5625   -3.4534   25.7730 F   0  0  0  0  0  0
  -29.9678  -13.6430   20.4224 N   0  0  0  0  0  0
  -26.2936  -12.9433   20.3272 N   0  0  0  0  0  0
  -25.9363  -11.6569   20.5740 N   0  0  0  0  0  0
  -22.0462  -12.8206   22.0427 N   0  0  0  0  0  0
  -25.4219  -15.1939   20.4069 N   0  0  0  0  0  0
  -31.6987  -15.0410   20.0800 O   0  0  0  0  0  0
  -21.6626   -6.8916   21.4254 O   0  0  0  0  0  0
  -22.3517  -14.5517   20.6733 O   0  0  0  0  0  0
  -24.6378  -31.8397   23.1858 C   0  0  0  0  0  0
  -25.9146  -32.4687   23.8216 C   0  0  1  0  0  0
  -27.2212  -27.1439   20.1684 C   0  0  0  0  0  0
  -25.5888  -33.8474   24.2137 N   0  0  0  0  0  0
  -23.4435  -30.4526   21.5328 C   0  0  2  0  0  0
  -24.8960  -28.8785   20.1134 C   0  0  0  0  0  0
  -22.7544  -29.4480   22.4910 C   0  0  0  0  0  0
  -18.0262  -28.1408   22.8486 C   0  0  0  0  0  0
  -24.1454  -36.7223   23.2639 C   0  0  0  0  0  0
  -25.9935  -30.7232   21.3771 C   0  0  0  0  0  0
  -26.0711  -29.3318   20.7282 C   0  0  0  0  0  0
  -27.2361  -28.4795   20.7381 C   0  0  0  0  0  0
  -26.0187  -26.7834   19.5234 C   0  0  0  0  0  0
  -24.8819  -27.6183   19.4950 C   0  0  0  0  0  0
  -23.6652  -29.7693   20.1561 C   0  0  0  0  0  0
  -25.4102  -36.3029   24.0314 C   0  0  1  0  0  0
  -20.5873  -28.3678   23.1286 C   0  0  2  0  0  0
  -20.6758  -26.9387   22.5427 C   0  0  0  0  0  0
  -19.5748  -26.6404   21.5214 C   0  0  0  0  0  0
  -18.1923  -26.7949   22.1616 C   0  0  0  0  0  0
  -19.1525  -28.8866   23.2876 C   0  0  0  0  0  0
  -18.9455  -30.1470   23.8893 C   0  0  0  0  0  0
  -17.6462  -30.6627   24.0552 C   0  0  0  0  0  0
  -25.9053  -34.9400   23.5050 C   0  0  0  0  0  0
  -16.5344  -29.9121   23.6358 C   0  0  0  0  0  0
  -16.7247  -28.6525   23.0395 C   0  0  0  0  0  0
  -26.4468  -31.6573   25.0655 C   0  0  0  0  0  0
  -25.3652  -31.3785   26.1356 C   0  0  0  0  0  0
  -27.0308  -30.2981   24.6204 C   0  0  0  0  0  0
  -27.6004  -32.4307   25.7460 C   0  0  0  0  0  0
  -27.5556  -37.1758   24.8460 C   0  0  0  0  0  0
  -21.4225  -29.3009   22.3685 N   0  0  0  0  0  0
  -26.4258  -37.3759   23.9420 N   0  0  0  0  0  0
  -24.7118  -31.0260   22.0881 N   0  0  0  0  0  0
  -23.4204  -28.8025   23.3051 O   0  0  0  0  0  0
  -28.2884  -26.1825   20.2400 O   0  0  0  0  0  0
  -26.5667  -34.8919   22.4646 O   0  0  0  0  0  0
  -23.5500  -32.1191   23.7123 O   0  0  0  0  0  0
  -29.4211  -19.9531   21.4495 C   0  0  0  0  0  0
  -29.7007  -18.2354   19.2857 C   0  0  0  0  0  0
  -29.4242  -20.6363   20.1811 C   0  0  0  0  0  0
  -29.7326  -17.5602   20.5495 C   0  0  0  0  0  0
  -29.5538  -18.5087   21.6225 C   0  0  0  0  0  0
  -29.5580  -19.6722   19.1129 C   0  0  0  0  0  0
  -31.2435  -22.8230   21.5439 C   0  0  0  0  0  0
  -29.9533  -23.6098   21.8075 C   0  0  0  0  0  0
  -31.0570  -22.1739   20.1522 C   0  0  0  0  0  0
  -29.3001  -23.5476   20.4395 C   0  0  2  0  0  0
  -28.0735  -24.6435   20.1262 C   0  0  0  0  0  0
  -29.6047  -22.0983   19.8963 N   0  0  0  0  0  0
  -29.7070  -16.0373   20.7522 N   0  0  0  0  0  0
  -29.5119  -18.0218   22.8879 F   0  0  0  0  0  0
  -29.5992  -20.1430   17.8399 F   0  0  0  0  0  0
  -31.4849  -12.7232   19.1988 H   0  0  0  0  0  0
  -30.4301  -11.5943   20.0018 H   0  0  0  0  0  0
  -29.8515  -11.7941   17.5536 H   0  0  0  0  0  0
  -29.6273  -13.5136   17.7369 H   0  0  0  0  0  0
  -27.9547  -11.2934   18.9529 H   0  0  0  0  0  0
  -27.4021  -12.4931   17.8156 H   0  0  0  0  0  0
  -27.6202  -14.2612   19.4553 H   0  0  0  0  0  0
  -28.7477  -12.2426   21.4489 H   0  0  0  0  0  0
  -28.3750  -13.9096   21.7973 H   0  0  0  0  0  0
  -25.2782   -9.5662   22.4766 H   0  0  0  0  0  0
  -24.0002   -7.4622   22.7456 H   0  0  0  0  0  0
  -21.0863   -8.8797   19.8943 H   0  0  0  0  0  0
  -22.3744  -10.9688   19.6142 H   0  0  0  0  0  0
  -21.2015   -7.6154   23.9741 H   0  0  0  0  0  0
  -21.1468   -6.0509   25.9086 H   0  0  0  0  0  0
  -22.0609   -2.7621   23.2819 H   0  0  0  0  0  0
  -22.4045  -11.9850   22.4819 H   0  0  0  0  0  0
  -21.1074  -13.1249   22.2612 H   0  0  0  0  0  0
  -24.6514  -15.8472   20.4951 H   0  0  0  0  0  0
  -26.2632  -15.6233   20.0465 H   0  0  0  0  0  0
  -26.7173  -32.5296   23.0916 H   0  0  0  0  0  0
  -24.9961  -33.9545   25.0230 H   0  0  0  0  0  0
  -22.7439  -31.2750   21.3702 H   0  0  0  0  0  0
  -23.3752  -35.9514   23.3307 H   0  0  0  0  0  0
  -24.3532  -36.8842   22.2047 H   0  0  0  0  0  0
  -23.7167  -37.6397   23.6680 H   0  0  0  0  0  0
  -26.1344  -31.4759   20.5994 H   0  0  0  0  0  0
  -26.8692  -30.7893   22.0100 H   0  0  0  0  0  0
  -28.1337  -28.8183   21.2403 H   0  0  0  0  0  0
  -25.9299  -25.8141   19.0556 H   0  0  0  0  0  0
  -23.9853  -27.2609   19.0075 H   0  0  0  0  0  0
  -23.7710  -30.5261   19.3777 H   0  0  0  0  0  0
  -22.7840  -29.1910   19.8730 H   0  0  0  0  0  0
  -25.1314  -36.1845   25.0815 H   0  0  0  0  0  0
  -20.9924  -28.3240   24.1419 H   0  0  0  0  0  0
  -20.5648  -26.2253   23.3608 H   0  0  0  0  0  0
  -21.6637  -26.7420   22.1229 H   0  0  0  0  0  0
  -19.6915  -25.6322   21.1246 H   0  0  0  0  0  0
  -19.6743  -27.3209   20.6744 H   0  0  0  0  0  0
  -17.4189  -26.6641   21.4034 H   0  0  0  0  0  0
  -18.0333  -26.0132   22.9047 H   0  0  0  0  0  0
  -19.7949  -30.7271   24.2275 H   0  0  0  0  0  0
  -17.5037  -31.6317   24.5147 H   0  0  0  0  0  0
  -15.5352  -30.3029   23.7753 H   0  0  0  0  0  0
  -15.8616  -28.0854   22.7159 H   0  0  0  0  0  0
  -24.5854  -30.7091   25.7718 H   0  0  0  0  0  0
  -24.8780  -32.2953   26.4674 H   0  0  0  0  0  0
  -25.7932  -30.9057   27.0199 H   0  0  0  0  0  0
  -26.2882  -29.6739   24.1226 H   0  0  0  0  0  0
  -27.3933  -29.7274   25.4757 H   0  0  0  0  0  0
  -27.8798  -30.4223   23.9484 H   0  0  0  0  0  0
  -27.2627  -33.3646   26.1962 H   0  0  0  0  0  0
  -28.3908  -32.6788   25.0369 H   0  0  0  0  0  0
  -28.0563  -31.8446   26.5438 H   0  0  0  0  0  0
  -28.2606  -38.0035   24.7581 H   0  0  0  0  0  0
  -28.1049  -36.2593   24.6268 H   0  0  0  0  0  0
  -27.2267  -37.1361   25.8855 H   0  0  0  0  0  0
  -20.9407  -29.8675   21.6831 H   0  0  0  0  0  0
  -26.0137  -38.2806   24.1539 H   0  0  0  0  0  0
  -29.3592  -20.5522   22.3443 H   0  0  0  0  0  0
  -29.7714  -17.6390   18.3897 H   0  0  0  0  0  0
  -31.3942  -22.0713   22.3188 H   0  0  0  0  0  0
  -32.1212  -23.4727   21.5414 H   0  0  0  0  0  0
  -30.1450  -24.6353   22.1347 H   0  0  0  0  0  0
  -29.3321  -23.1193   22.5584 H   0  0  0  0  0  0
  -31.6208  -21.2372   20.0891 H   0  0  0  0  0  0
  -31.5029  -22.8025   19.3788 H   0  0  0  0  0  0
  -30.0004  -24.1298   19.8335 H   0  0  0  0  0  0
  -27.7522  -24.4611   19.0989 H   0  0  0  0  0  0
  -27.2173  -24.3836   20.7509 H   0  0  0  0  0  0
  -28.8582  -15.7338   21.2052 H   0  0  0  0  0  0
  1 25  1  0  0  0
  1 30  2  0  0  0
  1 83  1  0  0  0
  2  3  1  0  0  0
  2 25  1  0  0  0
  2 86  1  0  0  0
  2 87  1  0  0  0
  3  4  1  0  0  0
  3 88  1  0  0  0
  3 89  1  0  0  0
  4  5  1  0  0  0
  4 90  1  0  0  0
  4 91  1  0  0  0
  5  6  1  0  0  0
  5 26  1  0  0  0
  5 92  1  0  0  0
  6 25  1  0  0  0
  6 93  1  0  0  0
  6 94  1  0  0  0
  7  8  2  0  0  0
  7 26  1  0  0  0
  7 29  1  0  0  0
  8  9  1  0  0  0
  8 22  1  0  0  0
  9 10  1  0  0  0
  9 27  2  0  0  0
 10 11  2  0  0  0
 10 15  1  0  0  0
 11 12  1  0  0  0
 11 95  1  0  0  0
 12 13  2  0  0  0
 12 96  1  0  0  0
 13 14  1  0  0  0
 13 31  1  0  0  0
 14 15  2  0  0  0
 14 97  1  0  0  0
 15 98  1  0  0  0
 16 17  2  0  0  0
 16 21  1  0  0  0
 16 31  1  0  0  0
 17 18  1  0  0  0
 17 99  1  0  0  0
 18 19  2  0  0  0
 18100  1  0  0  0
 19 20  1  0  0  0
 19 24  1  0  0  0
 20 21  2  0  0  0
 20101  1  0  0  0
 21 23  1  0  0  0
 22 28  1  0  0  0
 22 32  2  0  0  0
 26 27  1  0  0  0
 28102  1  0  0  0
 28103  1  0  0  0
 29104  1  0  0  0
 29105  1  0  0  0
 33 34  1  0  0  0
 33 66  1  0  0  0
 33 70  2  0  0  0
 34 36  1  0  0  0
 34 59  1  0  0  0
 34106  1  0  0  0
 35 44  2  0  0  0
 35 45  1  0  0  0
 35 68  1  0  0  0
 36 56  1  0  0  0
 36107  1  0  0  0
 37 39  1  0  0  0
 37 47  1  0  0  0
 37 66  1  0  0  0
 37108  1  0  0  0
 38 43  2  0  0  0
 38 46  1  0  0  0
 38 47  1  0  0  0
 39 64  1  0  0  0
 39 67  2  0  0  0
 40 52  1  0  0  0
 40 53  2  0  0  0
 40 58  1  0  0  0
 41109  1  0  0  0
 41110  1  0  0  0
 41111  1  0  0  0
 41 48  1  0  0  0
 42 43  1  0  0  0
 42 66  1  0  0  0
 42112  1  0  0  0
 42113  1  0  0  0
 43 44  1  0  0  0
 44114  1  0  0  0
 45 46  2  0  0  0
 45115  1  0  0  0
 46116  1  0  0  0
 47117  1  0  0  0
 47118  1  0  0  0
 48 56  1  0  0  0
 48 65  1  0  0  0
 48119  1  0  0  0
 49 50  1  0  0  0
 49 53  1  0  0  0
 49 64  1  0  0  0
 49120  1  0  0  0
 50 51  1  0  0  0
 50121  1  0  0  0
 50122  1  0  0  0
 51 52  1  0  0  0
 51123  1  0  0  0
 51124  1  0  0  0
 52125  1  0  0  0
 52126  1  0  0  0
 53 54  1  0  0  0
 54 55  2  0  0  0
 54127  1  0  0  0
 55 57  1  0  0  0
 55128  1  0  0  0
 56 69  2  0  0  0
 57 58  2  0  0  0
 57129  1  0  0  0
 58130  1  0  0  0
 59 60  1  0  0  0
 59 61  1  0  0  0
 59 62  1  0  0  0
 60131  1  0  0  0
 60132  1  0  0  0
 60133  1  0  0  0
 61134  1  0  0  0
 61135  1  0  0  0
 61136  1  0  0  0
 62137  1  0  0  0
 62138  1  0  0  0
 62139  1  0  0  0
 63 65  1  0  0  0
 63140  1  0  0  0
 63141  1  0  0  0
 63142  1  0  0  0
 64143  1  0  0  0
 65144  1  0  0  0
 68 81  1  0  0  0
 71 73  2  0  0  0
 71 75  1  0  0  0
 71145  1  0  0  0
 72 74  1  0  0  0
 72 76  2  0  0  0
 72146  1  0  0  0
 73 76  1  0  0  0
 73 82  1  0  0  0
 74 75  2  0  0  0
 74 83  1  0  0  0
 75 84  1  0  0  0
 76 85  1  0  0  0
 77 78  1  0  0  0
 77 79  1  0  0  0
 77147  1  0  0  0
 77148  1  0  0  0
 78 80  1  0  0  0
 78149  1  0  0  0
 78150  1  0  0  0
 79 82  1  0  0  0
 79151  1  0  0  0
 79152  1  0  0  0
 80 81  1  0  0  0
 80 82  1  0  0  0
 80153  1  0  0  0
 81154  1  0  0  0
 81155  1  0  0  0
 83156  1  0  0  0
M  ISO  4   1 100  68 101  81 101  83 100
M  END
> <chiral flag>
0

> <version>
0

> <s_m_source_file>
/data/baiqing/PycharmProjects/Reinvent-master-3.2/result/LINK_invent/BTK/process_docking_weight1_custom_product_contain_oxygen_bond_distance_aromatic_linkinvent_7_9_3/rearranged_h_0021.sdf

> <i_m_source_file_index>
12

> <r_mmod_Potential_Energy-OPLS-2005>
688.581665039062

> <r_mmod_Stretch_Energy-OPLS-2005>
230.535690307617

> <r_mmod_Bend_Energy-OPLS-2005>
399.356506347656

> <r_mmod_Torsional_Energy-OPLS-2005>
309.806854248047

> <r_mmod_Improper_Torsional_Energy-OPLS-2005>
14.3776206970215

> <r_mmod_Van_der_Waal_Energy-OPLS-2005>
141.478607177734

> <r_mmod_Electrostatic_Energy-OPLS-2005>
-360.910217285156

> <r_mmod_Solvation_Energy-OPLS-2005>
-223.867889404297

> <b_mmod_Minimization_Converged-OPLS-2005>
0

> <r_mmod_RMS_Derivative-OPLS-2005>
3.73912048339844

$$$$
12
                    3D
 Structure written by MMmdl.
156165  0  0  1  0            999 V2000
  -30.5429  -14.8669   20.4374 C   0  0  0  0  0  0
  -30.4396  -12.5224   19.4910 C   0  0  0  0  0  0
  -29.5226  -12.5381   18.2458 C   0  0  0  0  0  0
  -28.0534  -12.3309   18.6621 C   0  0  0  0  0  0
  -27.6455  -13.2390   19.8534 C   0  0  2  0  0  0
  -28.6888  -13.1990   20.9924 C   0  0  0  0  0  0
  -25.2533  -13.8193   20.5704 C   0  0  0  0  0  0
  -24.1844  -13.0434   20.9200 C   0  0  0  0  0  0
  -24.6437  -11.6902   20.8741 C   0  0  0  0  0  0
  -23.9104  -10.4283   21.0396 C   0  0  0  0  0  0
  -24.3637   -9.4197   21.9180 C   0  0  0  0  0  0
  -23.6300   -8.2244   22.0746 C   0  0  0  0  0  0
  -22.4282   -8.0287   21.3538 C   0  0  0  0  0  0
  -21.9925   -9.0268   20.4635 C   0  0  0  0  0  0
  -22.7269  -10.2136   20.3046 C   0  0  0  0  0  0
  -21.6872   -6.0735   22.5283 C   0  0  0  0  0  0
  -21.4018   -6.5634   23.8217 C   0  0  0  0  0  0
  -21.3658   -5.6790   24.9184 C   0  0  0  0  0  0
  -21.6051   -4.3055   24.7238 C   0  0  0  0  0  0
  -21.8816   -3.8140   23.4362 C   0  0  0  0  0  0
  -21.9193   -4.6956   22.3412 C   0  0  0  0  0  0
  -22.7861  -13.5198   21.1868 C   0  0  0  0  0  0
  -22.1662   -4.2142   21.0994 F   0  0  0  0  0  0
  -21.5630   -3.4530   25.7748 F   0  0  0  0  0  0
  -29.9804  -13.5962   20.4146 N   0  0  0  0  0  0
  -26.2980  -12.9420   20.3296 N   0  0  0  0  0  0
  -25.9369  -11.6547   20.5733 N   0  0  0  0  0  0
  -22.0512  -12.8183   22.0404 N   0  0  0  0  0  0
  -25.4195  -15.1925   20.4109 N   0  0  0  0  0  0
  -31.7151  -14.9949   20.0654 O   0  0  0  0  0  0
  -21.6651   -6.8883   21.4241 O   0  0  0  0  0  0
  -22.3544  -14.5519   20.6728 O   0  0  0  0  0  0
  -24.6439  -31.8433   23.1842 C   0  0  0  0  0  0
  -25.9235  -32.4652   23.8222 C   0  0  1  0  0  0
  -27.2066  -27.1190   20.1339 C   0  0  0  0  0  0
  -25.6022  -33.8464   24.2134 N   0  0  0  0  0  0
  -23.4459  -30.4635   21.5305 C   0  0  2  0  0  0
  -24.8907  -28.8867   20.1073 C   0  0  0  0  0  0
  -22.7535  -29.4562   22.4818 C   0  0  0  0  0  0
  -18.0253  -28.1362   22.8545 C   0  0  0  0  0  0
  -24.1508  -36.7243   23.2635 C   0  0  0  0  0  0
  -26.0037  -30.7099   21.3830 C   0  0  0  0  0  0
  -26.0691  -29.3190   20.7254 C   0  0  0  0  0  0
  -27.2234  -28.4485   20.7275 C   0  0  0  0  0  0
  -26.0024  -26.8010   19.4645 C   0  0  0  0  0  0
  -24.8686  -27.6389   19.4690 C   0  0  0  0  0  0
  -23.6721  -29.7943   20.1482 C   0  0  0  0  0  0
  -25.4146  -36.2991   24.0277 C   0  0  1  0  0  0
  -20.5886  -28.3710   23.1163 C   0  0  2  0  0  0
  -20.6773  -26.9390   22.5400 C   0  0  0  0  0  0
  -19.5654  -26.6186   21.5356 C   0  0  0  0  0  0
  -18.1859  -26.7838   22.1838 C   0  0  0  0  0  0
  -19.1531  -28.8868   23.2841 C   0  0  0  0  0  0
  -18.9411  -30.1502   23.8816 C   0  0  0  0  0  0
  -17.6394  -30.6618   24.0509 C   0  0  0  0  0  0
  -25.9106  -34.9377   23.5003 C   0  0  0  0  0  0
  -16.5291  -29.9088   23.6299 C   0  0  0  0  0  0
  -16.7234  -28.6475   23.0391 C   0  0  0  0  0  0
  -26.4544  -31.6530   25.0685 C   0  0  0  0  0  0
  -25.3729  -31.3743   26.1383 C   0  0  0  0  0  0
  -27.0411  -30.2927   24.6258 C   0  0  0  0  0  0
  -27.6028  -32.4308   25.7525 C   0  0  0  0  0  0
  -27.5567  -37.1781   24.8465 C   0  0  0  0  0  0
  -21.4240  -29.2973   22.3467 N   0  0  0  0  0  0
  -26.4286  -37.3717   23.9396 N   0  0  0  0  0  0
  -24.7180  -31.0273   22.0878 N   0  0  0  0  0  0
  -23.4170  -28.8226   23.3077 O   0  0  0  0  0  0
  -28.2643  -26.1377   20.2367 O   0  0  0  0  0  0
  -26.5679  -34.8892   22.4573 O   0  0  0  0  0  0
  -23.5562  -32.1331   23.7062 O   0  0  0  0  0  0
  -29.1226  -19.8188   21.4314 C   0  0  0  0  0  0
  -29.4072  -18.4031   21.6170 C   0  0  0  0  0  0
  -29.3614  -19.5234   19.1103 C   0  0  0  0  0  0
  -29.0528  -20.4679   20.1557 C   0  0  0  0  0  0
  -29.6959  -17.4664   20.5644 C   0  0  0  0  0  0
  -29.6776  -18.1147   19.2872 C   0  0  0  0  0  0
  -26.4418  -22.2447   20.9761 C   0  0  0  0  0  0
  -27.5601  -23.0217   21.6811 C   0  0  0  0  0  0
  -27.0847  -21.6844   19.6927 C   0  0  0  0  0  0
  -28.6022  -23.2158   20.5803 C   0  0  2  0  0  0
  -28.2068  -24.6486   19.7554 C   0  0  0  0  0  0
  -28.5322  -21.8363   19.8553 N   0  0  0  0  0  0
  -29.7364  -15.9613   20.8043 N   0  0  0  0  0  0
  -29.9390  -17.1605   17.8701 Cl  0  0  0  0  0  0
  -31.4842  -12.6469   19.2004 H   0  0  0  0  0  0
  -30.3839  -11.5472   19.9800 H   0  0  0  0  0  0
  -29.8213  -11.7612   17.5413 H   0  0  0  0  0  0
  -29.6320  -13.4862   17.7158 H   0  0  0  0  0  0
  -27.9395  -11.2849   18.9518 H   0  0  0  0  0  0
  -27.3885  -12.4841   17.8114 H   0  0  0  0  0  0
  -27.6297  -14.2553   19.4607 H   0  0  0  0  0  0
  -28.7532  -12.2003   21.4292 H   0  0  0  0  0  0
  -28.4059  -13.8662   21.8072 H   0  0  0  0  0  0
  -25.2769   -9.5683   22.4767 H   0  0  0  0  0  0
  -24.0003   -7.4640   22.7467 H   0  0  0  0  0  0
  -21.0861   -8.8815   19.8940 H   0  0  0  0  0  0
  -22.3737  -10.9695   19.6171 H   0  0  0  0  0  0
  -21.2007   -7.6140   23.9726 H   0  0  0  0  0  0
  -21.1482   -6.0516   25.9094 H   0  0  0  0  0  0
  -22.0589   -2.7594   23.2879 H   0  0  0  0  0  0
  -22.4130  -11.9844   22.4808 H   0  0  0  0  0  0
  -21.1125  -13.1204   22.2596 H   0  0  0  0  0  0
  -24.6390  -15.8335   20.5041 H   0  0  0  0  0  0
  -26.2537  -15.6332   20.0436 H   0  0  0  0  0  0
  -26.7296  -32.5228   23.0932 H   0  0  0  0  0  0
  -25.0170  -33.9550   25.0282 H   0  0  0  0  0  0
  -22.7530  -31.2920   21.3723 H   0  0  0  0  0  0
  -23.3732  -35.9611   23.3294 H   0  0  0  0  0  0
  -24.3585  -36.8898   22.2051 H   0  0  0  0  0  0
  -23.7314  -37.6452   23.6699 H   0  0  0  0  0  0
  -26.1667  -31.4623   20.6097 H   0  0  0  0  0  0
  -26.8700  -30.7603   22.0309 H   0  0  0  0  0  0
  -28.1187  -28.7777   21.2350 H   0  0  0  0  0  0
  -25.8732  -25.8691   18.9431 H   0  0  0  0  0  0
  -23.9643  -27.3004   18.9822 H   0  0  0  0  0  0
  -23.8253  -30.5694   19.3954 H   0  0  0  0  0  0
  -22.7850  -29.2453   19.8254 H   0  0  0  0  0  0
  -25.1333  -36.1780   25.0760 H   0  0  0  0  0  0
  -20.9990  -28.3405   24.1271 H   0  0  0  0  0  0
  -20.5822  -26.2362   23.3693 H   0  0  0  0  0  0
  -21.6607  -26.7416   22.1091 H   0  0  0  0  0  0
  -19.6518  -27.2820   20.6751 H   0  0  0  0  0  0
  -19.6720  -25.5992   21.1613 H   0  0  0  0  0  0
  -17.4051  -26.6485   21.4340 H   0  0  0  0  0  0
  -18.0313  -26.0095   22.9379 H   0  0  0  0  0  0
  -19.7880  -30.7385   24.2115 H   0  0  0  0  0  0
  -17.4901  -31.6342   24.5019 H   0  0  0  0  0  0
  -15.5273  -30.3009   23.7539 H   0  0  0  0  0  0
  -15.8636  -28.0771   22.7142 H   0  0  0  0  0  0
  -24.5860  -30.7155   25.7704 H   0  0  0  0  0  0
  -24.8988  -32.2951   26.4791 H   0  0  0  0  0  0
  -25.8009  -30.8908   27.0168 H   0  0  0  0  0  0
  -26.3032  -29.6668   24.1227 H   0  0  0  0  0  0
  -27.4012  -29.7208   25.4820 H   0  0  0  0  0  0
  -27.8943  -30.4160   23.9580 H   0  0  0  0  0  0
  -27.2536  -33.3568   26.2091 H   0  0  0  0  0  0
  -28.3875  -32.6930   25.0423 H   0  0  0  0  0  0
  -28.0654  -31.8460   26.5483 H   0  0  0  0  0  0
  -28.2566  -38.0090   24.7475 H   0  0  0  0  0  0
  -28.1076  -36.2608   24.6324 H   0  0  0  0  0  0
  -27.2274  -37.1461   25.8867 H   0  0  0  0  0  0
  -20.9508  -29.8406   21.6370 H   0  0  0  0  0  0
  -26.0123  -38.2763   24.1422 H   0  0  0  0  0  0
  -28.8812  -20.3868   22.3169 H   0  0  0  0  0  0
  -29.3508  -18.0192   22.6264 H   0  0  0  0  0  0
  -29.3027  -19.8682   18.0893 H   0  0  0  0  0  0
  -25.6079  -22.8993   20.7206 H   0  0  0  0  0  0
  -26.0517  -21.4538   21.6179 H   0  0  0  0  0  0
  -27.9802  -22.4188   22.4865 H   0  0  0  0  0  0
  -27.2100  -23.9558   22.1225 H   0  0  0  0  0  0
  -26.7587  -22.2536   18.8197 H   0  0  0  0  0  0
  -26.7495  -20.6600   19.5084 H   0  0  0  0  0  0
  -29.5925  -23.3253   21.0275 H   0  0  0  0  0  0
  -27.2298  -24.4517   19.3324 H   0  0  0  0  0  0
  -28.8470  -24.6493   18.8723 H   0  0  0  0  0  0
  -28.9103  -15.6329   21.2811 H   0  0  0  0  0  0
  1 25  1  0  0  0
  1 30  2  0  0  0
  1 83  1  0  0  0
  2  3  1  0  0  0
  2 25  1  0  0  0
  2 85  1  0  0  0
  2 86  1  0  0  0
  3  4  1  0  0  0
  3 87  1  0  0  0
  3 88  1  0  0  0
  4  5  1  0  0  0
  4 89  1  0  0  0
  4 90  1  0  0  0
  5  6  1  0  0  0
  5 26  1  0  0  0
  5 91  1  0  0  0
  6 25  1  0  0  0
  6 92  1  0  0  0
  6 93  1  0  0  0
  7  8  2  0  0  0
  7 26  1  0  0  0
  7 29  1  0  0  0
  8  9  1  0  0  0
  8 22  1  0  0  0
  9 10  1  0  0  0
  9 27  2  0  0  0
 10 11  2  0  0  0
 10 15  1  0  0  0
 11 12  1  0  0  0
 11 94  1  0  0  0
 12 13  2  0  0  0
 12 95  1  0  0  0
 13 14  1  0  0  0
 13 31  1  0  0  0
 14 15  2  0  0  0
 14 96  1  0  0  0
 15 97  1  0  0  0
 16 17  2  0  0  0
 16 21  1  0  0  0
 16 31  1  0  0  0
 17 18  1  0  0  0
 17 98  1  0  0  0
 18 19  2  0  0  0
 18 99  1  0  0  0
 19 20  1  0  0  0
 19 24  1  0  0  0
 20 21  2  0  0  0
 20100  1  0  0  0
 21 23  1  0  0  0
 22 28  1  0  0  0
 22 32  2  0  0  0
 26 27  1  0  0  0
 28101  1  0  0  0
 28102  1  0  0  0
 29103  1  0  0  0
 29104  1  0  0  0
 33 34  1  0  0  0
 33 66  1  0  0  0
 33 70  2  0  0  0
 34 36  1  0  0  0
 34 59  1  0  0  0
 34105  1  0  0  0
 35 44  2  0  0  0
 35 45  1  0  0  0
 35 68  1  0  0  0
 36 56  1  0  0  0
 36106  1  0  0  0
 37 39  1  0  0  0
 37 47  1  0  0  0
 37 66  1  0  0  0
 37107  1  0  0  0
 38 43  2  0  0  0
 38 46  1  0  0  0
 38 47  1  0  0  0
 39 64  1  0  0  0
 39 67  2  0  0  0
 40 52  1  0  0  0
 40 53  2  0  0  0
 40 58  1  0  0  0
 41108  1  0  0  0
 41109  1  0  0  0
 41110  1  0  0  0
 41 48  1  0  0  0
 42 43  1  0  0  0
 42 66  1  0  0  0
 42111  1  0  0  0
 42112  1  0  0  0
 43 44  1  0  0  0
 44113  1  0  0  0
 45 46  2  0  0  0
 45114  1  0  0  0
 46115  1  0  0  0
 47116  1  0  0  0
 47117  1  0  0  0
 48 56  1  0  0  0
 48 65  1  0  0  0
 48118  1  0  0  0
 49 50  1  0  0  0
 49 53  1  0  0  0
 49 64  1  0  0  0
 49119  1  0  0  0
 50 51  1  0  0  0
 50120  1  0  0  0
 50121  1  0  0  0
 51 52  1  0  0  0
 51122  1  0  0  0
 51123  1  0  0  0
 52124  1  0  0  0
 52125  1  0  0  0
 53 54  1  0  0  0
 54 55  2  0  0  0
 54126  1  0  0  0
 55 57  1  0  0  0
 55127  1  0  0  0
 56 69  2  0  0  0
 57 58  2  0  0  0
 57128  1  0  0  0
 58129  1  0  0  0
 59 60  1  0  0  0
 59 61  1  0  0  0
 59 62  1  0  0  0
 60130  1  0  0  0
 60131  1  0  0  0
 60132  1  0  0  0
 61133  1  0  0  0
 61134  1  0  0  0
 61135  1  0  0  0
 62136  1  0  0  0
 62137  1  0  0  0
 62138  1  0  0  0
 63 65  1  0  0  0
 63139  1  0  0  0
 63140  1  0  0  0
 63141  1  0  0  0
 64142  1  0  0  0
 65143  1  0  0  0
 68 81  1  0  0  0
 71 72  2  0  0  0
 71 74  1  0  0  0
 71144  1  0  0  0
 72 75  1  0  0  0
 72145  1  0  0  0
 73 74  2  0  0  0
 73 76  1  0  0  0
 73146  1  0  0  0
 74 82  1  0  0  0
 75 76  2  0  0  0
 75 83  1  0  0  0
 76 84  1  0  0  0
 77 78  1  0  0  0
 77 79  1  0  0  0
 77147  1  0  0  0
 77148  1  0  0  0
 78 80  1  0  0  0
 78149  1  0  0  0
 78150  1  0  0  0
 79 82  1  0  0  0
 79151  1  0  0  0
 79152  1  0  0  0
 80 81  1  0  0  0
 80 82  1  0  0  0
 80153  1  0  0  0
 81154  1  0  0  0
 81155  1  0  0  0
 83156  1  0  0  0
M  ISO  4   1 100  68 101  81 101  83 100
M  END
> <chiral flag>
0

> <version>
0

> <s_m_source_file>
/data/baiqing/PycharmProjects/Reinvent-master-3.2/result/LINK_invent/BTK/process_docking_weight1_custom_product_contain_oxygen_bond_distance_aromatic_linkinvent_7_9_3/rearranged_h_0021.sdf

> <i_m_source_file_index>
13

> <r_mmod_Potential_Energy-OPLS-2005>
531.282592773438

> <r_mmod_Stretch_Energy-OPLS-2005>
225.458450317383

> <r_mmod_Bend_Energy-OPLS-2005>
307.200744628906

> <r_mmod_Torsional_Energy-OPLS-2005>
312.058776855469

> <r_mmod_Improper_Torsional_Energy-OPLS-2005>
11.6037616729736

> <r_mmod_Van_der_Waal_Energy-OPLS-2005>
129.824020385742

> <r_mmod_Electrostatic_Energy-OPLS-2005>
-390.888580322266

> <r_mmod_Solvation_Energy-OPLS-2005>
-232.704711914062

> <b_mmod_Minimization_Converged-OPLS-2005>
0

> <r_mmod_RMS_Derivative-OPLS-2005>
4.25217485427856

$$$$
13
                    3D
 Structure written by MMmdl.
156165  0  0  1  0            999 V2000
  -30.5429  -14.8669   20.4374 C   0  0  0  0  0  0
  -30.4396  -12.5224   19.4910 C   0  0  0  0  0  0
  -29.5226  -12.5381   18.2458 C   0  0  0  0  0  0
  -28.0534  -12.3309   18.6621 C   0  0  0  0  0  0
  -27.6455  -13.2390   19.8534 C   0  0  2  0  0  0
  -28.6888  -13.1990   20.9924 C   0  0  0  0  0  0
  -25.2533  -13.8193   20.5704 C   0  0  0  0  0  0
  -24.1844  -13.0434   20.9200 C   0  0  0  0  0  0
  -24.6437  -11.6902   20.8741 C   0  0  0  0  0  0
  -23.9104  -10.4283   21.0396 C   0  0  0  0  0  0
  -24.3637   -9.4197   21.9180 C   0  0  0  0  0  0
  -23.6300   -8.2244   22.0746 C   0  0  0  0  0  0
  -22.4282   -8.0287   21.3538 C   0  0  0  0  0  0
  -21.9925   -9.0268   20.4635 C   0  0  0  0  0  0
  -22.7269  -10.2136   20.3046 C   0  0  0  0  0  0
  -21.6872   -6.0735   22.5283 C   0  0  0  0  0  0
  -21.4018   -6.5634   23.8217 C   0  0  0  0  0  0
  -21.3658   -5.6790   24.9184 C   0  0  0  0  0  0
  -21.6051   -4.3055   24.7238 C   0  0  0  0  0  0
  -21.8816   -3.8140   23.4362 C   0  0  0  0  0  0
  -21.9193   -4.6956   22.3412 C   0  0  0  0  0  0
  -22.7861  -13.5198   21.1868 C   0  0  0  0  0  0
  -22.1662   -4.2142   21.0994 F   0  0  0  0  0  0
  -21.5630   -3.4530   25.7748 F   0  0  0  0  0  0
  -29.9804  -13.5962   20.4146 N   0  0  0  0  0  0
  -26.2980  -12.9420   20.3296 N   0  0  0  0  0  0
  -25.9369  -11.6547   20.5733 N   0  0  0  0  0  0
  -22.0512  -12.8183   22.0404 N   0  0  0  0  0  0
  -25.4195  -15.1925   20.4109 N   0  0  0  0  0  0
  -31.7151  -14.9949   20.0654 O   0  0  0  0  0  0
  -21.6651   -6.8883   21.4241 O   0  0  0  0  0  0
  -22.3544  -14.5519   20.6728 O   0  0  0  0  0  0
  -24.6439  -31.8433   23.1842 C   0  0  0  0  0  0
  -25.9235  -32.4652   23.8222 C   0  0  1  0  0  0
  -27.2066  -27.1190   20.1339 C   0  0  0  0  0  0
  -25.6022  -33.8464   24.2134 N   0  0  0  0  0  0
  -23.4459  -30.4635   21.5305 C   0  0  2  0  0  0
  -24.8907  -28.8867   20.1073 C   0  0  0  0  0  0
  -22.7535  -29.4562   22.4818 C   0  0  0  0  0  0
  -18.0253  -28.1362   22.8545 C   0  0  0  0  0  0
  -24.1508  -36.7243   23.2635 C   0  0  0  0  0  0
  -26.0037  -30.7099   21.3830 C   0  0  0  0  0  0
  -26.0691  -29.3190   20.7254 C   0  0  0  0  0  0
  -27.2234  -28.4485   20.7275 C   0  0  0  0  0  0
  -26.0024  -26.8010   19.4645 C   0  0  0  0  0  0
  -24.8686  -27.6389   19.4690 C   0  0  0  0  0  0
  -23.6721  -29.7943   20.1482 C   0  0  0  0  0  0
  -25.4146  -36.2991   24.0277 C   0  0  1  0  0  0
  -20.5886  -28.3710   23.1163 C   0  0  2  0  0  0
  -20.6773  -26.9390   22.5400 C   0  0  0  0  0  0
  -19.5654  -26.6186   21.5356 C   0  0  0  0  0  0
  -18.1859  -26.7838   22.1838 C   0  0  0  0  0  0
  -19.1531  -28.8868   23.2841 C   0  0  0  0  0  0
  -18.9411  -30.1502   23.8816 C   0  0  0  0  0  0
  -17.6394  -30.6618   24.0509 C   0  0  0  0  0  0
  -25.9106  -34.9377   23.5003 C   0  0  0  0  0  0
  -16.5291  -29.9088   23.6299 C   0  0  0  0  0  0
  -16.7234  -28.6475   23.0391 C   0  0  0  0  0  0
  -26.4544  -31.6530   25.0685 C   0  0  0  0  0  0
  -25.3729  -31.3743   26.1383 C   0  0  0  0  0  0
  -27.0411  -30.2927   24.6258 C   0  0  0  0  0  0
  -27.6028  -32.4308   25.7525 C   0  0  0  0  0  0
  -27.5567  -37.1781   24.8465 C   0  0  0  0  0  0
  -21.4240  -29.2973   22.3467 N   0  0  0  0  0  0
  -26.4286  -37.3717   23.9396 N   0  0  0  0  0  0
  -24.7180  -31.0273   22.0878 N   0  0  0  0  0  0
  -23.4170  -28.8226   23.3077 O   0  0  0  0  0  0
  -28.2643  -26.1377   20.2367 O   0  0  0  0  0  0
  -26.5679  -34.8892   22.4573 O   0  0  0  0  0  0
  -23.5562  -32.1331   23.7062 O   0  0  0  0  0  0
  -29.1226  -19.8188   21.4314 C   0  0  0  0  0  0
  -29.4072  -18.4031   21.6170 C   0  0  0  0  0  0
  -29.3614  -19.5234   19.1103 C   0  0  0  0  0  0
  -29.0528  -20.4679   20.1557 C   0  0  0  0  0  0
  -29.6959  -17.4664   20.5644 C   0  0  0  0  0  0
  -29.6776  -18.1147   19.2872 C   0  0  0  0  0  0
  -26.4418  -22.2447   20.9761 C   0  0  0  0  0  0
  -27.5601  -23.0217   21.6811 C   0  0  0  0  0  0
  -27.0847  -21.6844   19.6927 C   0  0  0  0  0  0
  -28.6022  -23.2158   20.5803 C   0  0  2  0  0  0
  -28.2068  -24.6486   19.7554 C   0  0  0  0  0  0
  -28.5322  -21.8363   19.8553 N   0  0  0  0  0  0
  -29.7364  -15.9613   20.8043 N   0  0  0  0  0  0
  -29.9390  -17.1605   17.8701 Cl  0  0  0  0  0  0
  -31.4842  -12.6469   19.2004 H   0  0  0  0  0  0
  -30.3839  -11.5472   19.9800 H   0  0  0  0  0  0
  -29.8213  -11.7612   17.5413 H   0  0  0  0  0  0
  -29.6320  -13.4862   17.7158 H   0  0  0  0  0  0
  -27.9395  -11.2849   18.9518 H   0  0  0  0  0  0
  -27.3885  -12.4841   17.8114 H   0  0  0  0  0  0
  -27.6297  -14.2553   19.4607 H   0  0  0  0  0  0
  -28.7532  -12.2003   21.4292 H   0  0  0  0  0  0
  -28.4059  -13.8662   21.8072 H   0  0  0  0  0  0
  -25.2769   -9.5683   22.4767 H   0  0  0  0  0  0
  -24.0003   -7.4640   22.7467 H   0  0  0  0  0  0
  -21.0861   -8.8815   19.8940 H   0  0  0  0  0  0
  -22.3737  -10.9695   19.6171 H   0  0  0  0  0  0
  -21.2007   -7.6140   23.9726 H   0  0  0  0  0  0
  -21.1482   -6.0516   25.9094 H   0  0  0  0  0  0
  -22.0589   -2.7594   23.2879 H   0  0  0  0  0  0
  -22.4130  -11.9844   22.4808 H   0  0  0  0  0  0
  -21.1125  -13.1204   22.2596 H   0  0  0  0  0  0
  -24.6390  -15.8335   20.5041 H   0  0  0  0  0  0
  -26.2537  -15.6332   20.0436 H   0  0  0  0  0  0
  -26.7296  -32.5228   23.0932 H   0  0  0  0  0  0
  -25.0170  -33.9550   25.0282 H   0  0  0  0  0  0
  -22.7530  -31.2920   21.3723 H   0  0  0  0  0  0
  -23.3732  -35.9611   23.3294 H   0  0  0  0  0  0
  -24.3585  -36.8898   22.2051 H   0  0  0  0  0  0
  -23.7314  -37.6452   23.6699 H   0  0  0  0  0  0
  -26.1667  -31.4623   20.6097 H   0  0  0  0  0  0
  -26.8700  -30.7603   22.0309 H   0  0  0  0  0  0
  -28.1187  -28.7777   21.2350 H   0  0  0  0  0  0
  -25.8732  -25.8691   18.9431 H   0  0  0  0  0  0
  -23.9643  -27.3004   18.9822 H   0  0  0  0  0  0
  -23.8253  -30.5694   19.3954 H   0  0  0  0  0  0
  -22.7850  -29.2453   19.8254 H   0  0  0  0  0  0
  -25.1333  -36.1780   25.0760 H   0  0  0  0  0  0
  -20.9990  -28.3405   24.1271 H   0  0  0  0  0  0
  -20.5822  -26.2362   23.3693 H   0  0  0  0  0  0
  -21.6607  -26.7416   22.1091 H   0  0  0  0  0  0
  -19.6518  -27.2820   20.6751 H   0  0  0  0  0  0
  -19.6720  -25.5992   21.1613 H   0  0  0  0  0  0
  -17.4051  -26.6485   21.4340 H   0  0  0  0  0  0
  -18.0313  -26.0095   22.9379 H   0  0  0  0  0  0
  -19.7880  -30.7385   24.2115 H   0  0  0  0  0  0
  -17.4901  -31.6342   24.5019 H   0  0  0  0  0  0
  -15.5273  -30.3009   23.7539 H   0  0  0  0  0  0
  -15.8636  -28.0771   22.7142 H   0  0  0  0  0  0
  -24.5860  -30.7155   25.7704 H   0  0  0  0  0  0
  -24.8988  -32.2951   26.4791 H   0  0  0  0  0  0
  -25.8009  -30.8908   27.0168 H   0  0  0  0  0  0
  -26.3032  -29.6668   24.1227 H   0  0  0  0  0  0
  -27.4012  -29.7208   25.4820 H   0  0  0  0  0  0
  -27.8943  -30.4160   23.9580 H   0  0  0  0  0  0
  -27.2536  -33.3568   26.2091 H   0  0  0  0  0  0
  -28.3875  -32.6930   25.0423 H   0  0  0  0  0  0
  -28.0654  -31.8460   26.5483 H   0  0  0  0  0  0
  -28.2566  -38.0090   24.7475 H   0  0  0  0  0  0
  -28.1076  -36.2608   24.6324 H   0  0  0  0  0  0
  -27.2274  -37.1461   25.8867 H   0  0  0  0  0  0
  -20.9508  -29.8406   21.6370 H   0  0  0  0  0  0
  -26.0123  -38.2763   24.1422 H   0  0  0  0  0  0
  -28.8812  -20.3868   22.3169 H   0  0  0  0  0  0
  -29.3508  -18.0192   22.6264 H   0  0  0  0  0  0
  -29.3027  -19.8682   18.0893 H   0  0  0  0  0  0
  -25.6079  -22.8993   20.7206 H   0  0  0  0  0  0
  -26.0517  -21.4538   21.6179 H   0  0  0  0  0  0
  -27.9802  -22.4188   22.4865 H   0  0  0  0  0  0
  -27.2100  -23.9558   22.1225 H   0  0  0  0  0  0
  -26.7587  -22.2536   18.8197 H   0  0  0  0  0  0
  -26.7495  -20.6600   19.5084 H   0  0  0  0  0  0
  -29.5925  -23.3253   21.0275 H   0  0  0  0  0  0
  -27.2298  -24.4517   19.3324 H   0  0  0  0  0  0
  -28.8470  -24.6493   18.8723 H   0  0  0  0  0  0
  -28.9103  -15.6329   21.2811 H   0  0  0  0  0  0
  1 25  1  0  0  0
  1 30  2  0  0  0
  1 83  1  0  0  0
  2  3  1  0  0  0
  2 25  1  0  0  0
  2 85  1  0  0  0
  2 86  1  0  0  0
  3  4  1  0  0  0
  3 87  1  0  0  0
  3 88  1  0  0  0
  4  5  1  0  0  0
  4 89  1  0  0  0
  4 90  1  0  0  0
  5  6  1  0  0  0
  5 26  1  0  0  0
  5 91  1  0  0  0
  6 25  1  0  0  0
  6 92  1  0  0  0
  6 93  1  0  0  0
  7  8  2  0  0  0
  7 26  1  0  0  0
  7 29  1  0  0  0
  8  9  1  0  0  0
  8 22  1  0  0  0
  9 10  1  0  0  0
  9 27  2  0  0  0
 10 11  2  0  0  0
 10 15  1  0  0  0
 11 12  1  0  0  0
 11 94  1  0  0  0
 12 13  2  0  0  0
 12 95  1  0  0  0
 13 14  1  0  0  0
 13 31  1  0  0  0
 14 15  2  0  0  0
 14 96  1  0  0  0
 15 97  1  0  0  0
 16 17  2  0  0  0
 16 21  1  0  0  0
 16 31  1  0  0  0
 17 18  1  0  0  0
 17 98  1  0  0  0
 18 19  2  0  0  0
 18 99  1  0  0  0
 19 20  1  0  0  0
 19 24  1  0  0  0
 20 21  2  0  0  0
 20100  1  0  0  0
 21 23  1  0  0  0
 22 28  1  0  0  0
 22 32  2  0  0  0
 26 27  1  0  0  0
 28101  1  0  0  0
 28102  1  0  0  0
 29103  1  0  0  0
 29104  1  0  0  0
 33 34  1  0  0  0
 33 66  1  0  0  0
 33 70  2  0  0  0
 34 36  1  0  0  0
 34 59  1  0  0  0
 34105  1  0  0  0
 35 44  2  0  0  0
 35 45  1  0  0  0
 35 68  1  0  0  0
 36 56  1  0  0  0
 36106  1  0  0  0
 37 39  1  0  0  0
 37 47  1  0  0  0
 37 66  1  0  0  0
 37107  1  0  0  0
 38 43  2  0  0  0
 38 46  1  0  0  0
 38 47  1  0  0  0
 39 64  1  0  0  0
 39 67  2  0  0  0
 40 52  1  0  0  0
 40 53  2  0  0  0
 40 58  1  0  0  0
 41108  1  0  0  0
 41109  1  0  0  0
 41110  1  0  0  0
 41 48  1  0  0  0
 42 43  1  0  0  0
 42 66  1  0  0  0
 42111  1  0  0  0
 42112  1  0  0  0
 43 44  1  0  0  0
 44113  1  0  0  0
 45 46  2  0  0  0
 45114  1  0  0  0
 46115  1  0  0  0
 47116  1  0  0  0
 47117  1  0  0  0
 48 56  1  0  0  0
 48 65  1  0  0  0
 48118  1  0  0  0
 49 50  1  0  0  0
 49 53  1  0  0  0
 49 64  1  0  0  0
 49119  1  0  0  0
 50 51  1  0  0  0
 50120  1  0  0  0
 50121  1  0  0  0
 51 52  1  0  0  0
 51122  1  0  0  0
 51123  1  0  0  0
 52124  1  0  0  0
 52125  1  0  0  0
 53 54  1  0  0  0
 54 55  2  0  0  0
 54126  1  0  0  0
 55 57  1  0  0  0
 55127  1  0  0  0
 56 69  2  0  0  0
 57 58  2  0  0  0
 57128  1  0  0  0
 58129  1  0  0  0
 59 60  1  0  0  0
 59 61  1  0  0  0
 59 62  1  0  0  0
 60130  1  0  0  0
 60131  1  0  0  0
 60132  1  0  0  0
 61133  1  0  0  0
 61134  1  0  0  0
 61135  1  0  0  0
 62136  1  0  0  0
 62137  1  0  0  0
 62138  1  0  0  0
 63 65  1  0  0  0
 63139  1  0  0  0
 63140  1  0  0  0
 63141  1  0  0  0
 64142  1  0  0  0
 65143  1  0  0  0
 68 81  1  0  0  0
 71 72  2  0  0  0
 71 74  1  0  0  0
 71144  1  0  0  0
 72 75  1  0  0  0
 72145  1  0  0  0
 73 74  2  0  0  0
 73 76  1  0  0  0
 73146  1  0  0  0
 74 82  1  0  0  0
 75 76  2  0  0  0
 75 83  1  0  0  0
 76 84  1  0  0  0
 77 78  1  0  0  0
 77 79  1  0  0  0
 77147  1  0  0  0
 77148  1  0  0  0
 78 80  1  0  0  0
 78149  1  0  0  0
 78150  1  0  0  0
 79 82  1  0  0  0
 79151  1  0  0  0
 79152  1  0  0  0
 80 81  1  0  0  0
 80 82  1  0  0  0
 80153  1  0  0  0
 81154  1  0  0  0
 81155  1  0  0  0
 83156  1  0  0  0
M  ISO  4   1 100  68 101  81 101  83 100
M  END
> <chiral flag>
0

> <version>
0

> <s_m_source_file>
/data/baiqing/PycharmProjects/Reinvent-master-3.2/result/LINK_invent/BTK/process_docking_weight1_custom_product_contain_oxygen_bond_distance_aromatic_linkinvent_7_9_3/rearranged_h_0021.sdf

> <i_m_source_file_index>
14

> <r_mmod_Potential_Energy-OPLS-2005>
531.282592773438

> <r_mmod_Stretch_Energy-OPLS-2005>
225.458450317383

> <r_mmod_Bend_Energy-OPLS-2005>
307.200744628906

> <r_mmod_Torsional_Energy-OPLS-2005>
312.058776855469

> <r_mmod_Improper_Torsional_Energy-OPLS-2005>
11.6037616729736

> <r_mmod_Van_der_Waal_Energy-OPLS-2005>
129.824020385742

> <r_mmod_Electrostatic_Energy-OPLS-2005>
-390.888580322266

> <r_mmod_Solvation_Energy-OPLS-2005>
-232.704711914062

> <b_mmod_Minimization_Converged-OPLS-2005>
0

> <r_mmod_RMS_Derivative-OPLS-2005>
4.25217485427856

$$$$
14
                    3D
 Structure written by MMmdl.
155163  0  0  1  0            999 V2000
  -30.6281  -14.6387   20.5035 C   0  0  0  0  0  0
  -30.4397  -12.3940   19.4472 C   0  0  0  0  0  0
  -29.5064  -12.5064   18.2211 C   0  0  0  0  0  0
  -28.0304  -12.3406   18.6358 C   0  0  0  0  0  0
  -27.6522  -13.2135   19.8615 C   0  0  2  0  0  0
  -28.6995  -13.0734   20.9901 C   0  0  0  0  0  0
  -25.2547  -13.8137   20.5699 C   0  0  0  0  0  0
  -24.1820  -13.0408   20.9209 C   0  0  0  0  0  0
  -24.6394  -11.6886   20.8743 C   0  0  0  0  0  0
  -23.9064  -10.4275   21.0406 C   0  0  0  0  0  0
  -24.3615   -9.4194   21.9186 C   0  0  0  0  0  0
  -23.6288   -8.2232   22.0754 C   0  0  0  0  0  0
  -22.4271   -8.0273   21.3544 C   0  0  0  0  0  0
  -21.9908   -9.0246   20.4644 C   0  0  0  0  0  0
  -22.7238  -10.2123   20.3053 C   0  0  0  0  0  0
  -21.6848   -6.0731   22.5280 C   0  0  0  0  0  0
  -21.4009   -6.5637   23.8214 C   0  0  0  0  0  0
  -21.3659   -5.6791   24.9176 C   0  0  0  0  0  0
  -21.6045   -4.3054   24.7227 C   0  0  0  0  0  0
  -21.8819   -3.8144   23.4349 C   0  0  0  0  0  0
  -21.9191   -4.6960   22.3404 C   0  0  0  0  0  0
  -22.7845  -13.5212   21.1870 C   0  0  0  0  0  0
  -22.1660   -4.2148   21.0982 F   0  0  0  0  0  0
  -21.5633   -3.4538   25.7740 F   0  0  0  0  0  0
  -30.0147  -13.4155   20.4237 N   0  0  0  0  0  0
  -26.2984  -12.9329   20.3314 N   0  0  0  0  0  0
  -25.9323  -11.6484   20.5754 N   0  0  0  0  0  0
  -22.0484  -12.8200   22.0423 N   0  0  0  0  0  0
  -25.4185  -15.1851   20.4129 N   0  0  0  0  0  0
  -31.7906  -14.8008   20.1247 O   0  0  0  0  0  0
  -21.6633   -6.8872   21.4241 O   0  0  0  0  0  0
  -22.3529  -14.5522   20.6722 O   0  0  0  0  0  0
  -24.6255  -31.8602   23.2035 C   0  0  0  0  0  0
  -25.9106  -32.4779   23.8360 C   0  0  1  0  0  0
  -27.2285  -27.3304   20.1124 C   0  0  0  0  0  0
  -25.5921  -33.8578   24.2286 N   0  0  0  0  0  0
  -23.4187  -30.4847   21.5455 C   0  0  2  0  0  0
  -24.8656  -28.9426   20.1099 C   0  0  0  0  0  0
  -22.7471  -29.4629   22.4938 C   0  0  0  0  0  0
  -18.0282  -28.1387   22.8485 C   0  0  0  0  0  0
  -24.1484  -36.7294   23.2640 C   0  0  0  0  0  0
  -25.9588  -30.7950   21.3726 C   0  0  0  0  0  0
  -26.0338  -29.4234   20.7142 C   0  0  0  0  0  0
  -27.2175  -28.6291   20.7063 C   0  0  0  0  0  0
  -26.0359  -26.9020   19.4822 C   0  0  0  0  0  0
  -24.8682  -27.6868   19.4854 C   0  0  0  0  0  0
  -23.6327  -29.8207   20.1601 C   0  0  0  0  0  0
  -25.4106  -36.3082   24.0334 C   0  0  1  0  0  0
  -20.5882  -28.3685   23.1286 C   0  0  2  0  0  0
  -20.6769  -26.9409   22.5407 C   0  0  0  0  0  0
  -19.5745  -26.6385   21.5209 C   0  0  0  0  0  0
  -18.1926  -26.7930   22.1622 C   0  0  0  0  0  0
  -19.1535  -28.8852   23.2883 C   0  0  0  0  0  0
  -18.9460  -30.1455   23.8899 C   0  0  0  0  0  0
  -17.6460  -30.6587   24.0565 C   0  0  0  0  0  0
  -25.9045  -34.9452   23.5110 C   0  0  0  0  0  0
  -16.5351  -29.9087   23.6331 C   0  0  0  0  0  0
  -16.7270  -28.6507   23.0347 C   0  0  0  0  0  0
  -26.4494  -31.6585   25.0725 C   0  0  0  0  0  0
  -25.3736  -31.3716   26.1458 C   0  0  0  0  0  0
  -27.0337  -30.3013   24.6168 C   0  0  0  0  0  0
  -27.6056  -32.4316   25.7493 C   0  0  0  0  0  0
  -27.5575  -37.1799   24.8466 C   0  0  0  0  0  0
  -21.4184  -29.3047   22.3688 N   0  0  0  0  0  0
  -26.4285  -37.3778   23.9414 N   0  0  0  0  0  0
  -24.6866  -31.0625   22.0979 N   0  0  0  0  0  0
  -23.4197  -28.8164   23.3011 O   0  0  0  0  0  0
  -28.3524  -26.4904   20.1674 O   0  0  0  0  0  0
  -26.5615  -34.8921   22.4677 O   0  0  0  0  0  0
  -23.5422  -32.1391   23.7373 O   0  0  0  0  0  0
  -30.9683  -19.2829   21.5001 C   0  0  0  0  0  0
  -28.9763  -19.3587   20.1761 C   0  0  0  0  0  0
  -29.9480  -20.0886   20.9087 C   0  0  0  0  0  0
  -29.9739  -17.1365   20.7612 C   0  0  0  0  0  0
  -30.9808  -17.8580   21.4576 C   0  0  0  0  0  0
  -28.9874  -17.9311   20.1069 C   0  0  0  0  0  0
  -30.4014  -21.9383   22.4246 C   0  0  0  0  0  0
  -29.2633  -24.0271   20.5002 C   0  0  0  0  0  0
  -28.9235  -22.4587   20.4657 C   0  0  0  0  0  0
  -28.1418  -25.0346   20.0077 C   0  0  0  0  0  0
  -29.8068  -15.6831   20.8248 N   0  0  0  0  0  0
  -29.9131  -21.5255   21.1030 N   0  0  0  0  0  0
  -32.2028  -17.0359   22.3644 Cl  0  0  0  0  0  0
  -27.7330  -17.1517   19.2103 Cl  0  0  0  0  0  0
  -31.4802  -12.5217   19.1432 H   0  0  0  0  0  0
  -30.3773  -11.3985   19.8895 H   0  0  0  0  0  0
  -29.7711  -11.7541   17.4770 H   0  0  0  0  0  0
  -29.6453  -13.4750   17.7383 H   0  0  0  0  0  0
  -27.8723  -11.2875   18.8711 H   0  0  0  0  0  0
  -27.3733  -12.5644   17.7946 H   0  0  0  0  0  0
  -27.6661  -14.2459   19.5152 H   0  0  0  0  0  0
  -28.7124  -12.0534   21.3770 H   0  0  0  0  0  0
  -28.4456  -13.7090   21.8402 H   0  0  0  0  0  0
  -25.2760   -9.5672   22.4761 H   0  0  0  0  0  0
  -23.9998   -7.4622   22.7471 H   0  0  0  0  0  0
  -21.0841   -8.8762   19.8947 H   0  0  0  0  0  0
  -22.3699  -10.9662   19.6161 H   0  0  0  0  0  0
  -21.1994   -7.6143   23.9717 H   0  0  0  0  0  0
  -21.1484   -6.0520   25.9080 H   0  0  0  0  0  0
  -22.0599   -2.7606   23.2850 H   0  0  0  0  0  0
  -22.4095  -11.9857   22.4808 H   0  0  0  0  0  0
  -21.1101  -13.1222   22.2624 H   0  0  0  0  0  0
  -24.6384  -15.8248   20.5097 H   0  0  0  0  0  0
  -26.2440  -15.6327   20.0325 H   0  0  0  0  0  0
  -26.7176  -32.5453   23.1110 H   0  0  0  0  0  0
  -25.0060  -33.9723   25.0426 H   0  0  0  0  0  0
  -22.7124  -31.3052   21.4031 H   0  0  0  0  0  0
  -23.3748  -35.9625   23.3295 H   0  0  0  0  0  0
  -24.3578  -36.8921   22.2056 H   0  0  0  0  0  0
  -23.7232  -37.6493   23.6664 H   0  0  0  0  0  0
  -26.0877  -31.5592   20.6051 H   0  0  0  0  0  0
  -26.8407  -30.8438   21.9999 H   0  0  0  0  0  0
  -28.1128  -28.9938   21.1897 H   0  0  0  0  0  0
  -25.9769  -25.9442   18.9874 H   0  0  0  0  0  0
  -23.9740  -27.3135   19.0052 H   0  0  0  0  0  0
  -23.7505  -30.5979   19.4039 H   0  0  0  0  0  0
  -22.7534  -29.2494   19.8573 H   0  0  0  0  0  0
  -25.1284  -36.1934   25.0826 H   0  0  0  0  0  0
  -20.9974  -28.3252   24.1407 H   0  0  0  0  0  0
  -20.5662  -26.2295   23.3605 H   0  0  0  0  0  0
  -21.6636  -26.7434   22.1202 H   0  0  0  0  0  0
  -19.6905  -25.6299   21.1232 H   0  0  0  0  0  0
  -19.6682  -27.3203   20.6747 H   0  0  0  0  0  0
  -17.4192  -26.6677   21.4028 H   0  0  0  0  0  0
  -18.0328  -26.0072   22.9019 H   0  0  0  0  0  0
  -19.7937  -30.7271   24.2267 H   0  0  0  0  0  0
  -17.5015  -31.6268   24.5167 H   0  0  0  0  0  0
  -15.5352  -30.2989   23.7661 H   0  0  0  0  0  0
  -15.8668  -28.0833   22.7055 H   0  0  0  0  0  0
  -24.5908  -30.7067   25.7790 H   0  0  0  0  0  0
  -24.8932  -32.2881   26.4895 H   0  0  0  0  0  0
  -25.8068  -30.8884   27.0225 H   0  0  0  0  0  0
  -26.2907  -29.6759   24.1204 H   0  0  0  0  0  0
  -27.4062  -29.7268   25.4660 H   0  0  0  0  0  0
  -27.8764  -30.4309   23.9372 H   0  0  0  0  0  0
  -27.2673  -33.3627   26.2052 H   0  0  0  0  0  0
  -28.3875  -32.6854   25.0324 H   0  0  0  0  0  0
  -28.0709  -31.8449   26.5423 H   0  0  0  0  0  0
  -28.2589  -38.0100   24.7513 H   0  0  0  0  0  0
  -28.1074  -36.2630   24.6284 H   0  0  0  0  0  0
  -27.2297  -37.1442   25.8871 H   0  0  0  0  0  0
  -20.9360  -29.8784   21.6914 H   0  0  0  0  0  0
  -26.0166  -38.2854   24.1413 H   0  0  0  0  0  0
  -31.7648  -19.7545   22.0558 H   0  0  0  0  0  0
  -28.1742  -19.8850   19.6812 H   0  0  0  0  0  0
  -30.3767  -21.1334   23.1605 H   0  0  0  0  0  0
  -29.7912  -22.7297   22.8583 H   0  0  0  0  0  0
  -31.4267  -22.3046   22.3555 H   0  0  0  0  0  0
  -30.1687  -24.2025   19.9187 H   0  0  0  0  0  0
  -29.5090  -24.3333   21.5151 H   0  0  0  0  0  0
  -28.7816  -22.1620   19.4253 H   0  0  0  0  0  0
  -27.9605  -22.3016   20.9545 H   0  0  0  0  0  0
  -27.2317  -24.7613   20.5445 H   0  0  0  0  0  0
  -27.9525  -24.8332   18.9525 H   0  0  0  0  0  0
  -28.8517  -15.3916   20.9570 H   0  0  0  0  0  0
  1 25  1  0  0  0
  1 30  2  0  0  0
  1 81  1  0  0  0
  2  3  1  0  0  0
  2 25  1  0  0  0
  2 85  1  0  0  0
  2 86  1  0  0  0
  3  4  1  0  0  0
  3 87  1  0  0  0
  3 88  1  0  0  0
  4  5  1  0  0  0
  4 89  1  0  0  0
  4 90  1  0  0  0
  5  6  1  0  0  0
  5 26  1  0  0  0
  5 91  1  0  0  0
  6 25  1  0  0  0
  6 92  1  0  0  0
  6 93  1  0  0  0
  7  8  2  0  0  0
  7 26  1  0  0  0
  7 29  1  0  0  0
  8  9  1  0  0  0
  8 22  1  0  0  0
  9 10  1  0  0  0
  9 27  2  0  0  0
 10 11  2  0  0  0
 10 15  1  0  0  0
 11 12  1  0  0  0
 11 94  1  0  0  0
 12 13  2  0  0  0
 12 95  1  0  0  0
 13 14  1  0  0  0
 13 31  1  0  0  0
 14 15  2  0  0  0
 14 96  1  0  0  0
 15 97  1  0  0  0
 16 17  2  0  0  0
 16 21  1  0  0  0
 16 31  1  0  0  0
 17 18  1  0  0  0
 17 98  1  0  0  0
 18 19  2  0  0  0
 18 99  1  0  0  0
 19 20  1  0  0  0
 19 24  1  0  0  0
 20 21  2  0  0  0
 20100  1  0  0  0
 21 23  1  0  0  0
 22 28  1  0  0  0
 22 32  2  0  0  0
 26 27  1  0  0  0
 28101  1  0  0  0
 28102  1  0  0  0
 29103  1  0  0  0
 29104  1  0  0  0
 33 34  1  0  0  0
 33 66  1  0  0  0
 33 70  2  0  0  0
 34 36  1  0  0  0
 34 59  1  0  0  0
 34105  1  0  0  0
 35 44  2  0  0  0
 35 45  1  0  0  0
 35 68  1  0  0  0
 36 56  1  0  0  0
 36106  1  0  0  0
 37 39  1  0  0  0
 37 47  1  0  0  0
 37 66  1  0  0  0
 37107  1  0  0  0
 38 43  2  0  0  0
 38 46  1  0  0  0
 38 47  1  0  0  0
 39 64  1  0  0  0
 39 67  2  0  0  0
 40 52  1  0  0  0
 40 53  2  0  0  0
 40 58  1  0  0  0
 41108  1  0  0  0
 41109  1  0  0  0
 41110  1  0  0  0
 41 48  1  0  0  0
 42 43  1  0  0  0
 42 66  1  0  0  0
 42111  1  0  0  0
 42112  1  0  0  0
 43 44  1  0  0  0
 44113  1  0  0  0
 45 46  2  0  0  0
 45114  1  0  0  0
 46115  1  0  0  0
 47116  1  0  0  0
 47117  1  0  0  0
 48 56  1  0  0  0
 48 65  1  0  0  0
 48118  1  0  0  0
 49 50  1  0  0  0
 49 53  1  0  0  0
 49 64  1  0  0  0
 49119  1  0  0  0
 50 51  1  0  0  0
 50120  1  0  0  0
 50121  1  0  0  0
 51 52  1  0  0  0
 51122  1  0  0  0
 51123  1  0  0  0
 52124  1  0  0  0
 52125  1  0  0  0
 53 54  1  0  0  0
 54 55  2  0  0  0
 54126  1  0  0  0
 55 57  1  0  0  0
 55127  1  0  0  0
 56 69  2  0  0  0
 57 58  2  0  0  0
 57128  1  0  0  0
 58129  1  0  0  0
 59 60  1  0  0  0
 59 61  1  0  0  0
 59 62  1  0  0  0
 60130  1  0  0  0
 60131  1  0  0  0
 60132  1  0  0  0
 61133  1  0  0  0
 61134  1  0  0  0
 61135  1  0  0  0
 62136  1  0  0  0
 62137  1  0  0  0
 62138  1  0  0  0
 63 65  1  0  0  0
 63139  1  0  0  0
 63140  1  0  0  0
 63141  1  0  0  0
 64142  1  0  0  0
 65143  1  0  0  0
 68 80  1  0  0  0
 71 73  2  0  0  0
 71 75  1  0  0  0
 71144  1  0  0  0
 72 73  1  0  0  0
 72 76  2  0  0  0
 72145  1  0  0  0
 73 82  1  0  0  0
 74 75  2  0  0  0
 74 76  1  0  0  0
 74 81  1  0  0  0
 75 83  1  0  0  0
 76 84  1  0  0  0
 77 82  1  0  0  0
 77146  1  0  0  0
 77147  1  0  0  0
 77148  1  0  0  0
 78 79  1  0  0  0
 78 80  1  0  0  0
 78149  1  0  0  0
 78150  1  0  0  0
 79 82  1  0  0  0
 79151  1  0  0  0
 79152  1  0  0  0
 80153  1  0  0  0
 80154  1  0  0  0
 81155  1  0  0  0
M  ISO  4   1 100  68 101  80 101  81 100
M  END
> <chiral flag>
0

> <version>
0

> <s_m_source_file>
/data/baiqing/PycharmProjects/Reinvent-master-3.2/result/LINK_invent/BTK/process_docking_weight1_custom_product_contain_oxygen_bond_distance_aromatic_linkinvent_7_9_3/rearranged_h_0021.sdf

> <i_m_source_file_index>
15

> <r_mmod_Potential_Energy-OPLS-2005>
-0.970345437526703

> <r_mmod_Stretch_Energy-OPLS-2005>
80.5500030517578

> <r_mmod_Bend_Energy-OPLS-2005>
140.834701538086

> <r_mmod_Torsional_Energy-OPLS-2005>
221.451080322266

> <r_mmod_Improper_Torsional_Energy-OPLS-2005>
8.37339019775391

> <r_mmod_Van_der_Waal_Energy-OPLS-2005>
152.845611572266

> <r_mmod_Electrostatic_Energy-OPLS-2005>
-424.842681884766

> <r_mmod_Solvation_Energy-OPLS-2005>
-226.515808105469

> <b_mmod_Minimization_Converged-OPLS-2005>
0

> <r_mmod_RMS_Derivative-OPLS-2005>
0.486704170703888

$$$$
15
                    3D
 Structure written by MMmdl.
152161  0  0  1  0            999 V2000
  -30.5197  -14.9140   20.4473 C   0  0  0  0  0  0
  -30.4556  -12.5658   19.4976 C   0  0  0  0  0  0
  -29.5269  -12.5344   18.2590 C   0  0  0  0  0  0
  -28.0581  -12.3197   18.6753 C   0  0  0  0  0  0
  -27.6399  -13.2392   19.8522 C   0  0  2  0  0  0
  -28.6837  -13.2191   20.9906 C   0  0  0  0  0  0
  -25.2492  -13.8190   20.5708 C   0  0  0  0  0  0
  -24.1785  -13.0425   20.9188 C   0  0  0  0  0  0
  -24.6398  -11.6908   20.8739 C   0  0  0  0  0  0
  -23.9075  -10.4283   21.0407 C   0  0  0  0  0  0
  -24.3623   -9.4203   21.9188 C   0  0  0  0  0  0
  -23.6295   -8.2242   22.0757 C   0  0  0  0  0  0
  -22.4277   -8.0277   21.3541 C   0  0  0  0  0  0
  -21.9913   -9.0254   20.4643 C   0  0  0  0  0  0
  -22.7248  -10.2132   20.3056 C   0  0  0  0  0  0
  -21.6853   -6.0744   22.5278 C   0  0  0  0  0  0
  -21.4010   -6.5642   23.8214 C   0  0  0  0  0  0
  -21.3659   -5.6790   24.9169 C   0  0  0  0  0  0
  -21.6040   -4.3055   24.7215 C   0  0  0  0  0  0
  -21.8820   -3.8150   23.4338 C   0  0  0  0  0  0
  -21.9188   -4.6970   22.3397 C   0  0  0  0  0  0
  -22.7806  -13.5208   21.1853 C   0  0  0  0  0  0
  -22.1658   -4.2157   21.0978 F   0  0  0  0  0  0
  -21.5629   -3.4536   25.7733 F   0  0  0  0  0  0
  -29.9699  -13.6362   20.4110 N   0  0  0  0  0  0
  -26.2935  -12.9412   20.3303 N   0  0  0  0  0  0
  -25.9343  -11.6547   20.5766 N   0  0  0  0  0  0
  -22.0454  -12.8204   22.0421 N   0  0  0  0  0  0
  -25.4137  -15.1918   20.4173 N   0  0  0  0  0  0
  -31.7017  -15.0512   20.1117 O   0  0  0  0  0  0
  -21.6633   -6.8885   21.4242 O   0  0  0  0  0  0
  -22.3484  -14.5519   20.6711 O   0  0  0  0  0  0
  -24.6429  -31.8438   23.1910 C   0  0  0  0  0  0
  -25.9207  -32.4695   23.8276 C   0  0  1  0  0  0
  -27.2136  -27.1338   20.1552 C   0  0  0  0  0  0
  -25.5962  -33.8504   24.2194 N   0  0  0  0  0  0
  -23.4466  -30.4659   21.5358 C   0  0  2  0  0  0
  -24.8964  -28.8971   20.1143 C   0  0  0  0  0  0
  -22.7571  -29.4548   22.4859 C   0  0  0  0  0  0
  -18.0295  -28.1380   22.8475 C   0  0  0  0  0  0
  -24.1498  -36.7249   23.2650 C   0  0  0  0  0  0
  -26.0042  -30.7154   21.3938 C   0  0  0  0  0  0
  -26.0730  -29.3267   20.7400 C   0  0  0  0  0  0
  -27.2318  -28.4605   20.7475 C   0  0  0  0  0  0
  -26.0212  -26.8309   19.4617 C   0  0  0  0  0  0
  -24.8841  -27.6614   19.4580 C   0  0  0  0  0  0
  -23.6750  -29.7994   20.1544 C   0  0  0  0  0  0
  -25.4128  -36.3027   24.0320 C   0  0  1  0  0  0
  -20.5919  -28.3706   23.1230 C   0  0  2  0  0  0
  -20.6786  -26.9410   22.5386 C   0  0  0  0  0  0
  -19.5761  -26.6371   21.5197 C   0  0  0  0  0  0
  -18.1945  -26.7922   22.1611 C   0  0  0  0  0  0
  -19.1555  -28.8860   23.2843 C   0  0  0  0  0  0
  -18.9481  -30.1463   23.8862 C   0  0  0  0  0  0
  -17.6481  -30.6579   24.0566 C   0  0  0  0  0  0
  -25.9081  -34.9405   23.5057 C   0  0  0  0  0  0
  -16.5372  -29.9079   23.6341 C   0  0  0  0  0  0
  -16.7281  -28.6497   23.0355 C   0  0  0  0  0  0
  -26.4533  -31.6562   25.0718 C   0  0  0  0  0  0
  -25.3720  -31.3743   26.1416 C   0  0  0  0  0  0
  -27.0401  -30.2961   24.6291 C   0  0  0  0  0  0
  -27.6064  -32.4325   25.7493 C   0  0  0  0  0  0
  -27.5570  -37.1794   24.8476 C   0  0  0  0  0  0
  -21.4258  -29.3043   22.3613 N   0  0  0  0  0  0
  -26.4288  -37.3737   23.9409 N   0  0  0  0  0  0
  -24.7174  -31.0305   22.0946 N   0  0  0  0  0  0
  -23.4218  -28.8074   23.2988 O   0  0  0  0  0  0
  -28.2703  -26.1482   20.1908 O   0  0  0  0  0  0
  -26.5649  -34.8902   22.4627 O   0  0  0  0  0  0
  -23.5542  -32.1306   23.7124 O   0  0  0  0  0  0
  -28.1028  -19.5692   20.9714 C   0  0  0  0  0  0
  -30.5125  -18.5080   20.1153 C   0  0  0  0  0  0
  -28.9974  -20.5626   20.4482 C   0  0  0  0  0  0
  -29.5840  -17.5254   20.6170 C   0  0  0  0  0  0
  -28.3758  -18.1531   21.0534 C   0  0  0  0  0  0
  -30.2379  -19.9481   20.0382 C   0  0  0  0  0  0
  -27.4216  -22.3315   19.5616 C   0  0  0  0  0  0
  -27.1296  -23.8431   19.4180 C   0  0  0  0  0  0
  -29.1414  -23.4085   20.5791 C   0  0  0  0  0  0
  -28.0251  -24.6126   20.4100 C   0  0  1  0  0  0
  -28.5453  -22.0237   20.2440 N   0  0  0  0  0  0
  -29.6602  -15.9989   20.7241 N   0  0  0  0  0  0
  -26.6546  -21.5016   19.0629 O   0  0  0  0  0  0
  -27.4115  -17.3498   21.5629 F   0  0  0  0  0  0
  -31.1897  -20.7476   19.5009 F   0  0  0  0  0  0
  -31.4870  -12.7398   19.1857 H   0  0  0  0  0  0
  -30.4581  -11.6006   20.0067 H   0  0  0  0  0  0
  -29.8408  -11.7471   17.5726 H   0  0  0  0  0  0
  -29.6152  -13.4730   17.7099 H   0  0  0  0  0  0
  -27.9514  -11.2747   18.9704 H   0  0  0  0  0  0
  -27.3935  -12.4626   17.8222 H   0  0  0  0  0  0
  -27.6161  -14.2504   19.4458 H   0  0  0  0  0  0
  -28.7602  -12.2242   21.4318 H   0  0  0  0  0  0
  -28.3849  -13.8868   21.8001 H   0  0  0  0  0  0
  -25.2769   -9.5680   22.4760 H   0  0  0  0  0  0
  -23.9994   -7.4637   22.7480 H   0  0  0  0  0  0
  -21.0843   -8.8773   19.8955 H   0  0  0  0  0  0
  -22.3705  -10.9668   19.6163 H   0  0  0  0  0  0
  -21.2004   -7.6149   23.9721 H   0  0  0  0  0  0
  -21.1478   -6.0518   25.9073 H   0  0  0  0  0  0
  -22.0602   -2.7612   23.2831 H   0  0  0  0  0  0
  -22.4065  -11.9859   22.4794 H   0  0  0  0  0  0
  -21.1089  -13.1253   22.2650 H   0  0  0  0  0  0
  -24.6523  -15.8424   20.5731 H   0  0  0  0  0  0
  -26.2828  -15.6568   20.1919 H   0  0  0  0  0  0
  -26.7273  -32.5294   23.0996 H   0  0  0  0  0  0
  -25.0144  -33.9626   25.0366 H   0  0  0  0  0  0
  -22.7496  -31.2924   21.3818 H   0  0  0  0  0  0
  -23.3756  -35.9591   23.3318 H   0  0  0  0  0  0
  -24.3577  -36.8851   22.2062 H   0  0  0  0  0  0
  -23.7262  -37.6460   23.6662 H   0  0  0  0  0  0
  -26.1631  -31.4677   20.6194 H   0  0  0  0  0  0
  -26.8746  -30.7643   22.0351 H   0  0  0  0  0  0
  -28.1266  -28.7888   21.2569 H   0  0  0  0  0  0
  -25.9342  -25.9332   18.8802 H   0  0  0  0  0  0
  -23.9981  -27.3391   18.9280 H   0  0  0  0  0  0
  -23.8155  -30.5754   19.4010 H   0  0  0  0  0  0
  -22.7910  -29.2422   19.8395 H   0  0  0  0  0  0
  -25.1315  -36.1854   25.0813 H   0  0  0  0  0  0
  -21.0001  -28.3278   24.1355 H   0  0  0  0  0  0
  -20.5671  -26.2321   23.3600 H   0  0  0  0  0  0
  -21.6654  -26.7409   22.1193 H   0  0  0  0  0  0
  -19.6939  -25.6273   21.1238 H   0  0  0  0  0  0
  -19.6713  -27.3175   20.6727 H   0  0  0  0  0  0
  -17.4218  -26.6656   21.4017 H   0  0  0  0  0  0
  -18.0357  -26.0056   22.8998 H   0  0  0  0  0  0
  -19.7968  -30.7278   24.2220 H   0  0  0  0  0  0
  -17.5043  -31.6268   24.5157 H   0  0  0  0  0  0
  -15.5374  -30.2980   23.7684 H   0  0  0  0  0  0
  -15.8675  -28.0810   22.7090 H   0  0  0  0  0  0
  -24.5923  -30.7062   25.7741 H   0  0  0  0  0  0
  -24.8900  -32.2927   26.4782 H   0  0  0  0  0  0
  -25.8015  -30.8965   27.0230 H   0  0  0  0  0  0
  -26.3021  -29.6680   24.1302 H   0  0  0  0  0  0
  -27.4033  -29.7259   25.4852 H   0  0  0  0  0  0
  -27.8913  -30.4208   23.9593 H   0  0  0  0  0  0
  -27.2672  -33.3668   26.1968 H   0  0  0  0  0  0
  -28.3923  -32.6799   25.0346 H   0  0  0  0  0  0
  -28.0669  -31.8511   26.5484 H   0  0  0  0  0  0
  -28.2597  -38.0085   24.7480 H   0  0  0  0  0  0
  -28.1043  -36.2600   24.6337 H   0  0  0  0  0  0
  -27.2274  -37.1479   25.8880 H   0  0  0  0  0  0
  -20.9461  -29.8788   21.6820 H   0  0  0  0  0  0
  -26.0145  -38.2803   24.1400 H   0  0  0  0  0  0
  -27.1288  -19.8922   21.3105 H   0  0  0  0  0  0
  -31.4668  -18.1623   19.7454 H   0  0  0  0  0  0
  -26.0715  -23.9944   19.6235 H   0  0  0  0  0  0
  -27.3421  -24.1377   18.3899 H   0  0  0  0  0  0
  -29.5531  -23.4066   21.5883 H   0  0  0  0  0  0
  -29.9754  -23.5864   19.8992 H   0  0  0  0  0  0
  -27.4774  -24.6022   21.3531 H   0  0  0  0  0  0
  -28.7748  -15.6358   21.0454 H   0  0  0  0  0  0
  1 25  1  0  0  0
  1 30  2  0  0  0
  1 82  1  0  0  0
  2  3  1  0  0  0
  2 25  1  0  0  0
  2 86  1  0  0  0
  2 87  1  0  0  0
  3  4  1  0  0  0
  3 88  1  0  0  0
  3 89  1  0  0  0
  4  5  1  0  0  0
  4 90  1  0  0  0
  4 91  1  0  0  0
  5  6  1  0  0  0
  5 26  1  0  0  0
  5 92  1  0  0  0
  6 25  1  0  0  0
  6 93  1  0  0  0
  6 94  1  0  0  0
  7  8  2  0  0  0
  7 26  1  0  0  0
  7 29  1  0  0  0
  8  9  1  0  0  0
  8 22  1  0  0  0
  9 10  1  0  0  0
  9 27  2  0  0  0
 10 11  2  0  0  0
 10 15  1  0  0  0
 11 12  1  0  0  0
 11 95  1  0  0  0
 12 13  2  0  0  0
 12 96  1  0  0  0
 13 14  1  0  0  0
 13 31  1  0  0  0
 14 15  2  0  0  0
 14 97  1  0  0  0
 15 98  1  0  0  0
 16 17  2  0  0  0
 16 21  1  0  0  0
 16 31  1  0  0  0
 17 18  1  0  0  0
 17 99  1  0  0  0
 18 19  2  0  0  0
 18100  1  0  0  0
 19 20  1  0  0  0
 19 24  1  0  0  0
 20 21  2  0  0  0
 20101  1  0  0  0
 21 23  1  0  0  0
 22 28  1  0  0  0
 22 32  2  0  0  0
 26 27  1  0  0  0
 28102  1  0  0  0
 28103  1  0  0  0
 29104  1  0  0  0
 29105  1  0  0  0
 33 34  1  0  0  0
 33 66  1  0  0  0
 33 70  2  0  0  0
 34 36  1  0  0  0
 34 59  1  0  0  0
 34106  1  0  0  0
 35 44  2  0  0  0
 35 45  1  0  0  0
 35 68  1  0  0  0
 36 56  1  0  0  0
 36107  1  0  0  0
 37 39  1  0  0  0
 37 47  1  0  0  0
 37 66  1  0  0  0
 37108  1  0  0  0
 38 43  2  0  0  0
 38 46  1  0  0  0
 38 47  1  0  0  0
 39 64  1  0  0  0
 39 67  2  0  0  0
 40 52  1  0  0  0
 40 53  2  0  0  0
 40 58  1  0  0  0
 41109  1  0  0  0
 41110  1  0  0  0
 41111  1  0  0  0
 41 48  1  0  0  0
 42 43  1  0  0  0
 42 66  1  0  0  0
 42112  1  0  0  0
 42113  1  0  0  0
 43 44  1  0  0  0
 44114  1  0  0  0
 45 46  2  0  0  0
 45115  1  0  0  0
 46116  1  0  0  0
 47117  1  0  0  0
 47118  1  0  0  0
 48 56  1  0  0  0
 48 65  1  0  0  0
 48119  1  0  0  0
 49 50  1  0  0  0
 49 53  1  0  0  0
 49 64  1  0  0  0
 49120  1  0  0  0
 50 51  1  0  0  0
 50121  1  0  0  0
 50122  1  0  0  0
 51 52  1  0  0  0
 51123  1  0  0  0
 51124  1  0  0  0
 52125  1  0  0  0
 52126  1  0  0  0
 53 54  1  0  0  0
 54 55  2  0  0  0
 54127  1  0  0  0
 55 57  1  0  0  0
 55128  1  0  0  0
 56 69  2  0  0  0
 57 58  2  0  0  0
 57129  1  0  0  0
 58130  1  0  0  0
 59 60  1  0  0  0
 59 61  1  0  0  0
 59 62  1  0  0  0
 60131  1  0  0  0
 60132  1  0  0  0
 60133  1  0  0  0
 61134  1  0  0  0
 61135  1  0  0  0
 61136  1  0  0  0
 62137  1  0  0  0
 62138  1  0  0  0
 62139  1  0  0  0
 63 65  1  0  0  0
 63140  1  0  0  0
 63141  1  0  0  0
 63142  1  0  0  0
 64143  1  0  0  0
 65144  1  0  0  0
 68 80  1  0  0  0
 71 73  2  0  0  0
 71 75  1  0  0  0
 71145  1  0  0  0
 72 74  1  0  0  0
 72 76  2  0  0  0
 72146  1  0  0  0
 73 76  1  0  0  0
 73 81  1  0  0  0
 74 75  2  0  0  0
 74 82  1  0  0  0
 75 84  1  0  0  0
 76 85  1  0  0  0
 77 78  1  0  0  0
 77 81  1  0  0  0
 77 83  2  0  0  0
 78 80  1  0  0  0
 78147  1  0  0  0
 78148  1  0  0  0
 79 80  1  0  0  0
 79 81  1  0  0  0
 79149  1  0  0  0
 79150  1  0  0  0
 80151  1  0  0  0
 82152  1  0  0  0
M  ISO  4   1 100  68 101  80 101  82 100
M  END
> <chiral flag>
0

> <version>
0

> <s_m_source_file>
/data/baiqing/PycharmProjects/Reinvent-master-3.2/result/LINK_invent/BTK/process_docking_weight1_custom_product_contain_oxygen_bond_distance_aromatic_linkinvent_7_9_3/rearranged_h_0021.sdf

> <i_m_source_file_index>
16

> <r_mmod_Potential_Energy-OPLS-2005>
467.989196777344

> <r_mmod_Stretch_Energy-OPLS-2005>
217.112121582031

> <r_mmod_Bend_Energy-OPLS-2005>
301.594116210938

> <r_mmod_Torsional_Energy-OPLS-2005>
281.773315429688

> <r_mmod_Improper_Torsional_Energy-OPLS-2005>
3.82870364189148

> <r_mmod_Van_der_Waal_Energy-OPLS-2005>
131.829376220703

> <r_mmod_Electrostatic_Energy-OPLS-2005>
-434.035064697266

> <r_mmod_Solvation_Energy-OPLS-2005>
-213.689651489258

> <b_mmod_Minimization_Converged-OPLS-2005>
0

> <r_mmod_RMS_Derivative-OPLS-2005>
1.82347536087036

$$$$
16
                    3D
 Structure written by MMmdl.
164172  0  0  1  0            999 V2000
  -30.6752  -14.6393   20.6215 C   0  0  0  0  0  0
  -30.4330  -12.4288   19.4658 C   0  0  0  0  0  0
  -29.5163  -12.5340   18.2286 C   0  0  0  0  0  0
  -28.0370  -12.3475   18.6239 C   0  0  0  0  0  0
  -27.6475  -13.2189   19.8445 C   0  0  2  0  0  0
  -28.6730  -13.0654   20.9774 C   0  0  0  0  0  0
  -25.2554  -13.8159   20.5671 C   0  0  0  0  0  0
  -24.1821  -13.0416   20.9168 C   0  0  0  0  0  0
  -24.6396  -11.6896   20.8676 C   0  0  0  0  0  0
  -23.9072  -10.4282   21.0363 C   0  0  0  0  0  0
  -24.3630   -9.4199   21.9146 C   0  0  0  0  0  0
  -23.6307   -8.2237   22.0721 C   0  0  0  0  0  0
  -22.4280   -8.0272   21.3527 C   0  0  0  0  0  0
  -21.9893   -9.0252   20.4649 C   0  0  0  0  0  0
  -22.7231  -10.2122   20.3032 C   0  0  0  0  0  0
  -21.6856   -6.0729   22.5273 C   0  0  0  0  0  0
  -21.4009   -6.5646   23.8201 C   0  0  0  0  0  0
  -21.3669   -5.6803   24.9171 C   0  0  0  0  0  0
  -21.6057   -4.3066   24.7222 C   0  0  0  0  0  0
  -21.8821   -3.8143   23.4344 C   0  0  0  0  0  0
  -21.9193   -4.6956   22.3390 C   0  0  0  0  0  0
  -22.7851  -13.5202   21.1880 C   0  0  0  0  0  0
  -22.1657   -4.2136   21.0966 F   0  0  0  0  0  0
  -21.5637   -3.4559   25.7737 F   0  0  0  0  0  0
  -30.0027  -13.4415   20.4600 N   0  0  0  0  0  0
  -26.2944  -12.9341   20.3148 N   0  0  0  0  0  0
  -25.9294  -11.6492   20.5575 N   0  0  0  0  0  0
  -22.0531  -12.8170   22.0451 N   0  0  0  0  0  0
  -25.4307  -15.1887   20.4240 N   0  0  0  0  0  0
  -31.7627  -14.8138   20.0610 O   0  0  0  0  0  0
  -21.6646   -6.8872   21.4226 O   0  0  0  0  0  0
  -22.3520  -14.5504   20.6736 O   0  0  0  0  0  0
  -24.6254  -31.8594   23.2018 C   0  0  0  0  0  0
  -25.9106  -32.4772   23.8341 C   0  0  1  0  0  0
  -27.2269  -27.3204   20.1294 C   0  0  0  0  0  0
  -25.5935  -33.8574   24.2273 N   0  0  0  0  0  0
  -23.4192  -30.4812   21.5437 C   0  0  2  0  0  0
  -24.8694  -28.9312   20.1154 C   0  0  0  0  0  0
  -22.7462  -29.4620   22.4935 C   0  0  0  0  0  0
  -18.0269  -28.1388   22.8477 C   0  0  0  0  0  0
  -24.1486  -36.7268   23.2635 C   0  0  0  0  0  0
  -25.9598  -30.7936   21.3709 C   0  0  0  0  0  0
  -26.0374  -29.4192   20.7159 C   0  0  0  0  0  0
  -27.2234  -28.6272   20.7085 C   0  0  0  0  0  0
  -26.0409  -26.8795   19.5088 C   0  0  0  0  0  0
  -24.8728  -27.6668   19.5017 C   0  0  0  0  0  0
  -23.6365  -29.8120   20.1607 C   0  0  0  0  0  0
  -25.4117  -36.3068   24.0324 C   0  0  1  0  0  0
  -20.5870  -28.3689   23.1277 C   0  0  2  0  0  0
  -20.6762  -26.9407   22.5409 C   0  0  0  0  0  0
  -19.5752  -26.6385   21.5195 C   0  0  0  0  0  0
  -18.1931  -26.7936   22.1613 C   0  0  0  0  0  0
  -19.1526  -28.8850   23.2874 C   0  0  0  0  0  0
  -18.9463  -30.1449   23.8893 C   0  0  0  0  0  0
  -17.6472  -30.6597   24.0555 C   0  0  0  0  0  0
  -25.9048  -34.9438   23.5090 C   0  0  0  0  0  0
  -16.5354  -29.9097   23.6332 C   0  0  0  0  0  0
  -16.7258  -28.6511   23.0351 C   0  0  0  0  0  0
  -26.4511  -31.6583   25.0707 C   0  0  0  0  0  0
  -25.3745  -31.3739   26.1437 C   0  0  0  0  0  0
  -27.0363  -30.3006   24.6154 C   0  0  0  0  0  0
  -27.6075  -32.4312   25.7493 C   0  0  0  0  0  0
  -27.5576  -37.1789   24.8468 C   0  0  0  0  0  0
  -21.4178  -29.3045   22.3680 N   0  0  0  0  0  0
  -26.4286  -37.3772   23.9410 N   0  0  0  0  0  0
  -24.6868  -31.0606   22.0963 N   0  0  0  0  0  0
  -23.4180  -28.8152   23.3016 O   0  0  0  0  0  0
  -28.3455  -26.4781   20.1312 O   0  0  0  0  0  0
  -26.5620  -34.8908   22.4656 O   0  0  0  0  0  0
  -23.5422  -32.1399   23.7339 O   0  0  0  0  0  0
  -28.9048  -18.7648   19.4371 C   0  0  0  0  0  0
  -29.1851  -17.4136   19.8086 C   0  0  0  0  0  0
  -30.1863  -19.5623   21.2906 C   0  0  0  0  0  0
  -30.5123  -18.2120   21.6500 C   0  0  0  0  0  0
  -29.3723  -19.8838   20.1779 C   0  0  0  0  0  0
  -29.9787  -17.0763   20.9387 C   0  0  0  0  0  0
  -31.4948  -18.0538   22.7997 C   0  0  0  0  0  0
  -28.1874  -15.3747   24.7202 C   0  0  0  0  0  0
  -28.5639  -15.9267   23.3412 C   0  0  0  0  0  0
  -28.7293  -23.8399   19.8597 C   0  0  0  0  0  0
  -29.9001  -15.3605   22.8114 C   0  0  0  0  0  0
  -28.8315  -22.4231   20.6089 C   0  0  0  0  0  0
  -28.1892  -25.1056   20.6743 C   0  0  0  0  0  0
  -29.0699  -21.2222   19.7418 N   0  0  0  0  0  0
  -30.1106  -15.6595   21.3757 N   0  0  0  0  0  0
  -31.4753  -12.5525   19.1714 H   0  0  0  0  0  0
  -30.3730  -11.4286   19.8990 H   0  0  0  0  0  0
  -29.8034  -11.7891   17.4866 H   0  0  0  0  0  0
  -29.6521  -13.5076   17.7533 H   0  0  0  0  0  0
  -27.8862  -11.2930   18.8601 H   0  0  0  0  0  0
  -27.3848  -12.5648   17.7774 H   0  0  0  0  0  0
  -27.6728  -14.2575   19.5129 H   0  0  0  0  0  0
  -28.6907  -12.0384   21.3429 H   0  0  0  0  0  0
  -28.3254  -13.6590   21.8139 H   0  0  0  0  0  0
  -25.2787   -9.5675   22.4704 H   0  0  0  0  0  0
  -24.0045   -7.4620   22.7412 H   0  0  0  0  0  0
  -21.0813   -8.8774   19.8981 H   0  0  0  0  0  0
  -22.3686  -10.9643   19.6125 H   0  0  0  0  0  0
  -21.1991   -7.6155   23.9699 H   0  0  0  0  0  0
  -21.1493   -6.0539   25.9081 H   0  0  0  0  0  0
  -22.0597   -2.7602   23.2835 H   0  0  0  0  0  0
  -22.4215  -11.9869   22.4854 H   0  0  0  0  0  0
  -21.1139  -13.1133   22.2682 H   0  0  0  0  0  0
  -24.6783  -15.8496   20.5847 H   0  0  0  0  0  0
  -26.3005  -15.6325   20.1575 H   0  0  0  0  0  0
  -26.7176  -32.5451   23.1091 H   0  0  0  0  0  0
  -25.0112  -33.9735   25.0437 H   0  0  0  0  0  0
  -22.7118  -31.3004   21.3967 H   0  0  0  0  0  0
  -23.3751  -35.9598   23.3311 H   0  0  0  0  0  0
  -24.3567  -36.8875   22.2043 H   0  0  0  0  0  0
  -23.7236  -37.6468   23.6659 H   0  0  0  0  0  0
  -26.0857  -31.5583   20.6031 H   0  0  0  0  0  0
  -26.8418  -30.8468   21.9980 H   0  0  0  0  0  0
  -28.1237  -28.9984   21.1778 H   0  0  0  0  0  0
  -26.0175  -25.9096   19.0311 H   0  0  0  0  0  0
  -23.9777  -27.2869   19.0293 H   0  0  0  0  0  0
  -23.7561  -30.5875   19.4037 H   0  0  0  0  0  0
  -22.7581  -29.2415   19.8556 H   0  0  0  0  0  0
  -25.1293  -36.1916   25.0819 H   0  0  0  0  0  0
  -20.9960  -28.3273   24.1398 H   0  0  0  0  0  0
  -20.5637  -26.2300   23.3614 H   0  0  0  0  0  0
  -21.6636  -26.7433   22.1216 H   0  0  0  0  0  0
  -19.6917  -25.6288   21.1239 H   0  0  0  0  0  0
  -19.6693  -27.3189   20.6720 H   0  0  0  0  0  0
  -17.4189  -26.6648   21.4030 H   0  0  0  0  0  0
  -18.0344  -26.0079   22.9013 H   0  0  0  0  0  0
  -19.7936  -30.7249   24.2280 H   0  0  0  0  0  0
  -17.5027  -31.6278   24.5154 H   0  0  0  0  0  0
  -15.5355  -30.3007   23.7661 H   0  0  0  0  0  0
  -15.8652  -28.0832   22.7086 H   0  0  0  0  0  0
  -24.5914  -30.7096   25.7774 H   0  0  0  0  0  0
  -24.8949  -32.2915   26.4846 H   0  0  0  0  0  0
  -25.8067  -30.8928   27.0212 H   0  0  0  0  0  0
  -26.2957  -29.6759   24.1153 H   0  0  0  0  0  0
  -27.4044  -29.7267   25.4666 H   0  0  0  0  0  0
  -27.8822  -30.4297   23.9401 H   0  0  0  0  0  0
  -27.2691  -33.3605   26.2086 H   0  0  0  0  0  0
  -28.3901  -32.6876   25.0340 H   0  0  0  0  0  0
  -28.0727  -31.8409   26.5400 H   0  0  0  0  0  0
  -28.2595  -38.0082   24.7500 H   0  0  0  0  0  0
  -28.1068  -36.2606   24.6318 H   0  0  0  0  0  0
  -27.2279  -37.1458   25.8868 H   0  0  0  0  0  0
  -20.9353  -29.8770   21.6890 H   0  0  0  0  0  0
  -26.0157  -38.2836   24.1440 H   0  0  0  0  0  0
  -28.2935  -18.9285   18.5620 H   0  0  0  0  0  0
  -28.7487  -16.6231   19.2157 H   0  0  0  0  0  0
  -30.6075  -20.3711   21.8703 H   0  0  0  0  0  0
  -32.1205  -18.9403   22.9120 H   0  0  0  0  0  0
  -32.1688  -17.2140   22.6293 H   0  0  0  0  0  0
  -30.9678  -17.9152   23.7432 H   0  0  0  0  0  0
  -27.2424  -15.8002   25.0597 H   0  0  0  0  0  0
  -28.9469  -15.6132   25.4653 H   0  0  0  0  0  0
  -28.0654  -14.2903   24.6932 H   0  0  0  0  0  0
  -28.6164  -17.0132   23.4024 H   0  0  0  0  0  0
  -27.7520  -15.7035   22.6473 H   0  0  0  0  0  0
  -28.0976  -23.7249   18.9790 H   0  0  0  0  0  0
  -29.7203  -24.0870   19.4772 H   0  0  0  0  0  0
  -29.9395  -14.2890   23.0112 H   0  0  0  0  0  0
  -30.7314  -15.7173   23.4115 H   0  0  0  0  0  0
  -27.8984  -22.2500   21.1458 H   0  0  0  0  0  0
  -29.6065  -22.4769   21.3736 H   0  0  0  0  0  0
  -28.7128  -25.1165   21.6296 H   0  0  0  0  0  0
  -27.1488  -24.9159   20.9417 H   0  0  0  0  0  0
  -28.5885  -21.2633   18.8471 H   0  0  0  0  0  0
  1 25  1  0  0  0
  1 30  2  0  0  0
  1 85  1  0  0  0
  2  3  1  0  0  0
  2 25  1  0  0  0
  2 86  1  0  0  0
  2 87  1  0  0  0
  3  4  1  0  0  0
  3 88  1  0  0  0
  3 89  1  0  0  0
  4  5  1  0  0  0
  4 90  1  0  0  0
  4 91  1  0  0  0
  5  6  1  0  0  0
  5 26  1  0  0  0
  5 92  1  0  0  0
  6 25  1  0  0  0
  6 93  1  0  0  0
  6 94  1  0  0  0
  7  8  2  0  0  0
  7 26  1  0  0  0
  7 29  1  0  0  0
  8  9  1  0  0  0
  8 22  1  0  0  0
  9 10  1  0  0  0
  9 27  2  0  0  0
 10 11  2  0  0  0
 10 15  1  0  0  0
 11 12  1  0  0  0
 11 95  1  0  0  0
 12 13  2  0  0  0
 12 96  1  0  0  0
 13 14  1  0  0  0
 13 31  1  0  0  0
 14 15  2  0  0  0
 14 97  1  0  0  0
 15 98  1  0  0  0
 16 17  2  0  0  0
 16 21  1  0  0  0
 16 31  1  0  0  0
 17 18  1  0  0  0
 17 99  1  0  0  0
 18 19  2  0  0  0
 18100  1  0  0  0
 19 20  1  0  0  0
 19 24  1  0  0  0
 20 21  2  0  0  0
 20101  1  0  0  0
 21 23  1  0  0  0
 22 28  1  0  0  0
 22 32  2  0  0  0
 26 27  1  0  0  0
 28102  1  0  0  0
 28103  1  0  0  0
 29104  1  0  0  0
 29105  1  0  0  0
 33 34  1  0  0  0
 33 66  1  0  0  0
 33 70  2  0  0  0
 34 36  1  0  0  0
 34 59  1  0  0  0
 34106  1  0  0  0
 35 44  2  0  0  0
 35 45  1  0  0  0
 35 68  1  0  0  0
 36 56  1  0  0  0
 36107  1  0  0  0
 37 39  1  0  0  0
 37 47  1  0  0  0
 37 66  1  0  0  0
 37108  1  0  0  0
 38 43  2  0  0  0
 38 46  1  0  0  0
 38 47  1  0  0  0
 39 64  1  0  0  0
 39 67  2  0  0  0
 40 52  1  0  0  0
 40 53  2  0  0  0
 40 58  1  0  0  0
 41109  1  0  0  0
 41110  1  0  0  0
 41111  1  0  0  0
 41 48  1  0  0  0
 42 43  1  0  0  0
 42 66  1  0  0  0
 42112  1  0  0  0
 42113  1  0  0  0
 43 44  1  0  0  0
 44114  1  0  0  0
 45 46  2  0  0  0
 45115  1  0  0  0
 46116  1  0  0  0
 47117  1  0  0  0
 47118  1  0  0  0
 48 56  1  0  0  0
 48 65  1  0  0  0
 48119  1  0  0  0
 49 50  1  0  0  0
 49 53  1  0  0  0
 49 64  1  0  0  0
 49120  1  0  0  0
 50 51  1  0  0  0
 50121  1  0  0  0
 50122  1  0  0  0
 51 52  1  0  0  0
 51123  1  0  0  0
 51124  1  0  0  0
 52125  1  0  0  0
 52126  1  0  0  0
 53 54  1  0  0  0
 54 55  2  0  0  0
 54127  1  0  0  0
 55 57  1  0  0  0
 55128  1  0  0  0
 56 69  2  0  0  0
 57 58  2  0  0  0
 57129  1  0  0  0
 58130  1  0  0  0
 59 60  1  0  0  0
 59 61  1  0  0  0
 59 62  1  0  0  0
 60131  1  0  0  0
 60132  1  0  0  0
 60133  1  0  0  0
 61134  1  0  0  0
 61135  1  0  0  0
 61136  1  0  0  0
 62137  1  0  0  0
 62138  1  0  0  0
 62139  1  0  0  0
 63 65  1  0  0  0
 63140  1  0  0  0
 63141  1  0  0  0
 63142  1  0  0  0
 64143  1  0  0  0
 65144  1  0  0  0
 68 83  1  0  0  0
 71 72  2  0  0  0
 71 75  1  0  0  0
 71145  1  0  0  0
 72 76  1  0  0  0
 72146  1  0  0  0
 73 74  1  0  0  0
 73 75  2  0  0  0
 73147  1  0  0  0
 74 76  2  0  0  0
 74 77  1  0  0  0
 75 84  1  0  0  0
 76 85  1  0  0  0
 77148  1  0  0  0
 77149  1  0  0  0
 77150  1  0  0  0
 78 79  1  0  0  0
 78151  1  0  0  0
 78152  1  0  0  0
 78153  1  0  0  0
 79 81  1  0  0  0
 79154  1  0  0  0
 79155  1  0  0  0
 80 82  1  0  0  0
 80 83  1  0  0  0
 80156  1  0  0  0
 80157  1  0  0  0
 81 85  1  0  0  0
 81158  1  0  0  0
 81159  1  0  0  0
 82 84  1  0  0  0
 82160  1  0  0  0
 82161  1  0  0  0
 83162  1  0  0  0
 83163  1  0  0  0
 84164  1  0  0  0
M  ISO  4   1 100  68 101  83 101  85 100
M  END
> <chiral flag>
0

> <version>
0

> <s_m_source_file>
/data/baiqing/PycharmProjects/Reinvent-master-3.2/result/LINK_invent/BTK/process_docking_weight1_custom_product_contain_oxygen_bond_distance_aromatic_linkinvent_7_9_3/rearranged_h_0021.sdf

> <i_m_source_file_index>
17

> <r_mmod_Potential_Energy-OPLS-2005>
262.301422119141

> <r_mmod_Stretch_Energy-OPLS-2005>
96.4199447631836

> <r_mmod_Bend_Energy-OPLS-2005>
155.014312744141

> <r_mmod_Torsional_Energy-OPLS-2005>
312.190460205078

> <r_mmod_Improper_Torsional_Energy-OPLS-2005>
4.49741888046265

> <r_mmod_Van_der_Waal_Energy-OPLS-2005>
141.46842956543

> <r_mmod_Electrostatic_Energy-OPLS-2005>
-293.308685302734

> <r_mmod_Solvation_Energy-OPLS-2005>
-200.117126464844

> <b_mmod_Minimization_Converged-OPLS-2005>
0

> <r_mmod_RMS_Derivative-OPLS-2005>
2.43371367454529

$$$$
17
                    3D
 Structure written by MMmdl.
160168  0  0  1  0            999 V2000
  -30.6865  -14.6498   20.4725 C   0  0  0  0  0  0
  -30.4158  -12.4016   19.4469 C   0  0  0  0  0  0
  -29.4910  -12.5047   18.2182 C   0  0  0  0  0  0
  -28.0226  -12.3251   18.6448 C   0  0  0  0  0  0
  -27.6418  -13.2249   19.8501 C   0  0  2  0  0  0
  -28.6926  -13.1469   20.9795 C   0  0  0  0  0  0
  -25.2526  -13.8189   20.5715 C   0  0  0  0  0  0
  -24.1809  -13.0439   20.9226 C   0  0  0  0  0  0
  -24.6392  -11.6916   20.8777 C   0  0  0  0  0  0
  -23.9080  -10.4292   21.0420 C   0  0  0  0  0  0
  -24.3631   -9.4193   21.9189 C   0  0  0  0  0  0
  -23.6300   -8.2231   22.0753 C   0  0  0  0  0  0
  -22.4281   -8.0283   21.3548 C   0  0  0  0  0  0
  -21.9919   -9.0261   20.4656 C   0  0  0  0  0  0
  -22.7255  -10.2135   20.3065 C   0  0  0  0  0  0
  -21.6843   -6.0754   22.5291 C   0  0  0  0  0  0
  -21.3996   -6.5647   23.8228 C   0  0  0  0  0  0
  -21.3654   -5.6799   24.9190 C   0  0  0  0  0  0
  -21.6041   -4.3063   24.7228 C   0  0  0  0  0  0
  -21.8811   -3.8154   23.4348 C   0  0  0  0  0  0
  -21.9186   -4.6983   22.3412 C   0  0  0  0  0  0
  -22.7841  -13.5231   21.1891 C   0  0  0  0  0  0
  -22.1658   -4.2169   21.0983 F   0  0  0  0  0  0
  -21.5635   -3.4539   25.7740 F   0  0  0  0  0  0
  -30.0017  -13.4608   20.3928 N   0  0  0  0  0  0
  -26.2950  -12.9376   20.3316 N   0  0  0  0  0  0
  -25.9317  -11.6528   20.5798 N   0  0  0  0  0  0
  -22.0472  -12.8215   22.0433 N   0  0  0  0  0  0
  -25.4241  -15.1904   20.4127 N   0  0  0  0  0  0
  -31.8607  -14.7143   20.0990 O   0  0  0  0  0  0
  -21.6629   -6.8888   21.4253 O   0  0  0  0  0  0
  -22.3521  -14.5543   20.6750 O   0  0  0  0  0  0
  -24.6230  -31.8600   23.2057 C   0  0  0  0  0  0
  -25.9091  -32.4789   23.8361 C   0  0  1  0  0  0
  -27.2162  -27.3213   20.1091 C   0  0  0  0  0  0
  -25.5910  -33.8594   24.2269 N   0  0  0  0  0  0
  -23.4170  -30.4839   21.5472 C   0  0  2  0  0  0
  -24.8650  -28.9483   20.1063 C   0  0  0  0  0  0
  -22.7457  -29.4606   22.4935 C   0  0  0  0  0  0
  -18.0280  -28.1402   22.8480 C   0  0  0  0  0  0
  -24.1475  -36.7269   23.2637 C   0  0  0  0  0  0
  -25.9591  -30.7882   21.3828 C   0  0  0  0  0  0
  -26.0306  -29.4175   20.7222 C   0  0  0  0  0  0
  -27.2080  -28.6110   20.7254 C   0  0  0  0  0  0
  -26.0268  -26.9139   19.4564 C   0  0  0  0  0  0
  -24.8650  -27.7017   19.4657 C   0  0  0  0  0  0
  -23.6307  -29.8228   20.1603 C   0  0  0  0  0  0
  -25.4102  -36.3076   24.0326 C   0  0  1  0  0  0
  -20.5874  -28.3670   23.1307 C   0  0  2  0  0  0
  -20.6743  -26.9378   22.5459 C   0  0  0  0  0  0
  -19.5760  -26.6375   21.5224 C   0  0  0  0  0  0
  -18.1916  -26.7973   22.1575 C   0  0  0  0  0  0
  -19.1528  -28.8855   23.2906 C   0  0  0  0  0  0
  -18.9454  -30.1452   23.8934 C   0  0  0  0  0  0
  -17.6453  -30.6592   24.0574 C   0  0  0  0  0  0
  -25.9041  -34.9451   23.5092 C   0  0  0  0  0  0
  -16.5337  -29.9091   23.6342 C   0  0  0  0  0  0
  -16.7265  -28.6511   23.0356 C   0  0  0  0  0  0
  -26.4453  -31.6612   25.0746 C   0  0  0  0  0  0
  -25.3666  -31.3852   26.1481 C   0  0  0  0  0  0
  -27.0188  -30.2980   24.6242 C   0  0  0  0  0  0
  -27.6090  -32.4294   25.7468 C   0  0  0  0  0  0
  -27.5578  -37.1776   24.8444 C   0  0  0  0  0  0
  -21.4173  -29.3017   22.3683 N   0  0  0  0  0  0
  -26.4282  -37.3759   23.9399 N   0  0  0  0  0  0
  -24.6845  -31.0605   22.1016 N   0  0  0  0  0  0
  -23.4187  -28.8149   23.3008 O   0  0  0  0  0  0
  -28.3168  -26.4479   20.1770 O   0  0  0  0  0  0
  -26.5603  -34.8924   22.4660 O   0  0  0  0  0  0
  -23.5396  -32.1390   23.7388 O   0  0  0  0  0  0
  -28.4742  -19.0253   20.9464 C   0  0  0  0  0  0
  -28.2959  -20.4391   20.8153 C   0  0  0  0  0  0
  -29.7152  -20.4163   18.8793 C   0  0  0  0  0  0
  -29.2596  -18.2580   20.0386 C   0  0  0  0  0  0
  -29.9222  -19.0096   19.0232 C   0  0  0  0  0  0
  -28.8781  -21.1714   19.7460 C   0  0  0  0  0  0
  -28.6732  -23.6998   20.1812 C   0  0  0  0  0  0
  -30.8238  -18.3117   18.0186 C   0  0  0  0  0  0
  -27.9004  -22.7419   18.0837 C   0  0  0  0  0  0
  -30.7542  -16.5597   21.9543 C   0  0  0  0  0  0
  -29.2094  -16.6703   20.0305 C   0  0  0  0  0  0
  -28.1603  -25.0945   19.5887 C   0  0  0  0  0  0
  -28.5083  -22.5597   19.4107 N   0  0  0  0  0  0
  -30.0546  -15.7930   20.9215 N   0  0  0  0  0  0
  -29.2020  -23.6551   21.3026 O   0  0  0  0  0  0
  -31.4583  -12.4944   19.1386 H   0  0  0  0  0  0
  -30.3337  -11.4188   19.9144 H   0  0  0  0  0  0
  -29.7608  -11.7548   17.4728 H   0  0  0  0  0  0
  -29.6162  -13.4781   17.7400 H   0  0  0  0  0  0
  -27.8808  -11.2765   18.9092 H   0  0  0  0  0  0
  -27.3559  -12.5164   17.8035 H   0  0  0  0  0  0
  -27.6385  -14.2442   19.4668 H   0  0  0  0  0  0
  -28.7104  -12.1509   21.4240 H   0  0  0  0  0  0
  -28.4432  -13.8378   21.7860 H   0  0  0  0  0  0
  -25.2778   -9.5661   22.4769 H   0  0  0  0  0  0
  -24.0016   -7.4604   22.7446 H   0  0  0  0  0  0
  -21.0857   -8.8777   19.8957 H   0  0  0  0  0  0
  -22.3722  -10.9672   19.6177 H   0  0  0  0  0  0
  -21.1958   -7.6160   23.9740 H   0  0  0  0  0  0
  -21.1489   -6.0527   25.9096 H   0  0  0  0  0  0
  -22.0590   -2.7624   23.2835 H   0  0  0  0  0  0
  -22.4077  -11.9849   22.4774 H   0  0  0  0  0  0
  -21.1102  -13.1249   22.2667 H   0  0  0  0  0  0
  -24.6564  -15.8472   20.5171 H   0  0  0  0  0  0
  -26.2809  -15.6290   20.1038 H   0  0  0  0  0  0
  -26.7164  -32.5438   23.1108 H   0  0  0  0  0  0
  -25.0075  -33.9747   25.0428 H   0  0  0  0  0  0
  -22.7102  -31.3044   21.4053 H   0  0  0  0  0  0
  -23.3784  -35.9553   23.3253 H   0  0  0  0  0  0
  -24.3586  -36.8930   22.2061 H   0  0  0  0  0  0
  -23.7157  -37.6426   23.6694 H   0  0  0  0  0  0
  -26.0917  -31.5527   20.6161 H   0  0  0  0  0  0
  -26.8390  -30.8336   22.0126 H   0  0  0  0  0  0
  -28.0965  -28.9576   21.2340 H   0  0  0  0  0  0
  -25.9543  -25.9648   18.9469 H   0  0  0  0  0  0
  -23.9723  -27.3387   18.9745 H   0  0  0  0  0  0
  -23.7392  -30.5978   19.4002 H   0  0  0  0  0  0
  -22.7563  -29.2400   19.8656 H   0  0  0  0  0  0
  -25.1290  -36.1924   25.0821 H   0  0  0  0  0  0
  -20.9981  -28.3255   24.1428 H   0  0  0  0  0  0
  -20.5565  -26.2280   23.3654 H   0  0  0  0  0  0
  -21.6618  -26.7364   22.1287 H   0  0  0  0  0  0
  -19.6891  -25.6279   21.1265 H   0  0  0  0  0  0
  -19.6789  -27.3181   20.6762 H   0  0  0  0  0  0
  -17.4218  -26.6803   21.3935 H   0  0  0  0  0  0
  -18.0252  -26.0087   22.8933 H   0  0  0  0  0  0
  -19.7931  -30.7267   24.2302 H   0  0  0  0  0  0
  -17.5007  -31.6290   24.5147 H   0  0  0  0  0  0
  -15.5338  -30.2998   23.7670 H   0  0  0  0  0  0
  -15.8662  -28.0838   22.7064 H   0  0  0  0  0  0
  -24.5983  -30.6985   25.7907 H   0  0  0  0  0  0
  -24.8680  -32.3035   26.4617 H   0  0  0  0  0  0
  -25.7991  -30.9341   27.0421 H   0  0  0  0  0  0
  -26.2720  -29.6838   24.1203 H   0  0  0  0  0  0
  -27.3705  -29.7169   25.4773 H   0  0  0  0  0  0
  -27.8707  -30.4153   23.9541 H   0  0  0  0  0  0
  -27.2810  -33.3676   26.1949 H   0  0  0  0  0  0
  -28.3945  -32.6674   25.0286 H   0  0  0  0  0  0
  -28.0688  -31.8440   26.5432 H   0  0  0  0  0  0
  -28.2597  -38.0062   24.7442 H   0  0  0  0  0  0
  -28.1052  -36.2595   24.6293 H   0  0  0  0  0  0
  -27.2321  -37.1450   25.8851 H   0  0  0  0  0  0
  -20.9320  -29.8760   21.6932 H   0  0  0  0  0  0
  -26.0175  -38.2821   24.1472 H   0  0  0  0  0  0
  -27.9326  -18.5127   21.7289 H   0  0  0  0  0  0
  -27.6292  -20.9434   21.5012 H   0  0  0  0  0  0
  -30.1745  -20.9255   18.0427 H   0  0  0  0  0  0
  -31.4438  -19.0257   17.4752 H   0  0  0  0  0  0
  -30.2347  -17.7601   17.2858 H   0  0  0  0  0  0
  -31.4924  -17.6130   18.5221 H   0  0  0  0  0  0
  -28.3967  -23.5247   17.5059 H   0  0  0  0  0  0
  -26.8472  -23.0127   18.1856 H   0  0  0  0  0  0
  -27.9317  -21.8372   17.4750 H   0  0  0  0  0  0
  -30.0480  -17.1308   22.5579 H   0  0  0  0  0  0
  -31.4619  -17.2557   21.5003 H   0  0  0  0  0  0
  -31.3160  -15.9137   22.6315 H   0  0  0  0  0  0
  -29.3382  -16.3356   19.0000 H   0  0  0  0  0  0
  -28.1766  -16.4104   20.2621 H   0  0  0  0  0  0
  -27.4948  -24.9505   20.4432 H   0  0  0  0  0  0
  -29.2381  -25.2237   19.4715 H   0  0  0  0  0  0
  1 25  1  0  0  0
  1 30  2  0  0  0
  1 84  1  0  0  0
  2  3  1  0  0  0
  2 25  1  0  0  0
  2 86  1  0  0  0
  2 87  1  0  0  0
  3  4  1  0  0  0
  3 88  1  0  0  0
  3 89  1  0  0  0
  4  5  1  0  0  0
  4 90  1  0  0  0
  4 91  1  0  0  0
  5  6  1  0  0  0
  5 26  1  0  0  0
  5 92  1  0  0  0
  6 25  1  0  0  0
  6 93  1  0  0  0
  6 94  1  0  0  0
  7  8  2  0  0  0
  7 26  1  0  0  0
  7 29  1  0  0  0
  8  9  1  0  0  0
  8 22  1  0  0  0
  9 10  1  0  0  0
  9 27  2  0  0  0
 10 11  2  0  0  0
 10 15  1  0  0  0
 11 12  1  0  0  0
 11 95  1  0  0  0
 12 13  2  0  0  0
 12 96  1  0  0  0
 13 14  1  0  0  0
 13 31  1  0  0  0
 14 15  2  0  0  0
 14 97  1  0  0  0
 15 98  1  0  0  0
 16 17  2  0  0  0
 16 21  1  0  0  0
 16 31  1  0  0  0
 17 18  1  0  0  0
 17 99  1  0  0  0
 18 19  2  0  0  0
 18100  1  0  0  0
 19 20  1  0  0  0
 19 24  1  0  0  0
 20 21  2  0  0  0
 20101  1  0  0  0
 21 23  1  0  0  0
 22 28  1  0  0  0
 22 32  2  0  0  0
 26 27  1  0  0  0
 28102  1  0  0  0
 28103  1  0  0  0
 29104  1  0  0  0
 29105  1  0  0  0
 33 34  1  0  0  0
 33 66  1  0  0  0
 33 70  2  0  0  0
 34 36  1  0  0  0
 34 59  1  0  0  0
 34106  1  0  0  0
 35 44  2  0  0  0
 35 45  1  0  0  0
 35 68  1  0  0  0
 36 56  1  0  0  0
 36107  1  0  0  0
 37 39  1  0  0  0
 37 47  1  0  0  0
 37 66  1  0  0  0
 37108  1  0  0  0
 38 43  2  0  0  0
 38 46  1  0  0  0
 38 47  1  0  0  0
 39 64  1  0  0  0
 39 67  2  0  0  0
 40 52  1  0  0  0
 40 53  2  0  0  0
 40 58  1  0  0  0
 41109  1  0  0  0
 41110  1  0  0  0
 41111  1  0  0  0
 41 48  1  0  0  0
 42 43  1  0  0  0
 42 66  1  0  0  0
 42112  1  0  0  0
 42113  1  0  0  0
 43 44  1  0  0  0
 44114  1  0  0  0
 45 46  2  0  0  0
 45115  1  0  0  0
 46116  1  0  0  0
 47117  1  0  0  0
 47118  1  0  0  0
 48 56  1  0  0  0
 48 65  1  0  0  0
 48119  1  0  0  0
 49 50  1  0  0  0
 49 53  1  0  0  0
 49 64  1  0  0  0
 49120  1  0  0  0
 50 51  1  0  0  0
 50121  1  0  0  0
 50122  1  0  0  0
 51 52  1  0  0  0
 51123  1  0  0  0
 51124  1  0  0  0
 52125  1  0  0  0
 52126  1  0  0  0
 53 54  1  0  0  0
 54 55  2  0  0  0
 54127  1  0  0  0
 55 57  1  0  0  0
 55128  1  0  0  0
 56 69  2  0  0  0
 57 58  2  0  0  0
 57129  1  0  0  0
 58130  1  0  0  0
 59 60  1  0  0  0
 59 61  1  0  0  0
 59 62  1  0  0  0
 60131  1  0  0  0
 60132  1  0  0  0
 60133  1  0  0  0
 61134  1  0  0  0
 61135  1  0  0  0
 61136  1  0  0  0
 62137  1  0  0  0
 62138  1  0  0  0
 62139  1  0  0  0
 63 65  1  0  0  0
 63140  1  0  0  0
 63141  1  0  0  0
 63142  1  0  0  0
 64143  1  0  0  0
 65144  1  0  0  0
 68 82  1  0  0  0
 71 72  2  0  0  0
 71 74  1  0  0  0
 71145  1  0  0  0
 72 76  1  0  0  0
 72146  1  0  0  0
 73 75  1  0  0  0
 73 76  2  0  0  0
 73147  1  0  0  0
 74 75  2  0  0  0
 74 81  1  0  0  0
 75 78  1  0  0  0
 76 83  1  0  0  0
 77 82  1  0  0  0
 77 83  1  0  0  0
 77 85  2  0  0  0
 78148  1  0  0  0
 78149  1  0  0  0
 78150  1  0  0  0
 79 83  1  0  0  0
 79151  1  0  0  0
 79152  1  0  0  0
 79153  1  0  0  0
 80 84  1  0  0  0
 80154  1  0  0  0
 80155  1  0  0  0
 80156  1  0  0  0
 81 84  1  0  0  0
 81157  1  0  0  0
 81158  1  0  0  0
 82159  1  0  0  0
 82160  1  0  0  0
M  ISO  4   1 100  68 101  82 101  84 100
M  END
> <chiral flag>
0

> <version>
0

> <s_m_source_file>
/data/baiqing/PycharmProjects/Reinvent-master-3.2/result/LINK_invent/BTK/process_docking_weight1_custom_product_contain_oxygen_bond_distance_aromatic_linkinvent_7_9_3/rearranged_h_0021.sdf

> <i_m_source_file_index>
18

> <r_mmod_Potential_Energy-OPLS-2005>
520.336059570312

> <r_mmod_Stretch_Energy-OPLS-2005>
93.378288269043

> <r_mmod_Bend_Energy-OPLS-2005>
359.303649902344

> <r_mmod_Torsional_Energy-OPLS-2005>
333.974731445312

> <r_mmod_Improper_Torsional_Energy-OPLS-2005>
6.48640537261963

> <r_mmod_Van_der_Waal_Energy-OPLS-2005>
158.555801391602

> <r_mmod_Electrostatic_Energy-OPLS-2005>
-269.019287109375

> <r_mmod_Solvation_Energy-OPLS-2005>
-218.129592895508

> <b_mmod_Minimization_Converged-OPLS-2005>
0

> <r_mmod_RMS_Derivative-OPLS-2005>
2.84898519515991

$$$$
18
                    3D
 Structure written by MMmdl.
157165  0  0  1  0            999 V2000
  -30.6737  -14.6288   20.5006 C   0  0  0  0  0  0
  -30.4185  -12.3901   19.4492 C   0  0  0  0  0  0
  -29.4944  -12.5039   18.2198 C   0  0  0  0  0  0
  -28.0230  -12.3319   18.6415 C   0  0  0  0  0  0
  -27.6451  -13.2203   19.8565 C   0  0  2  0  0  0
  -28.6913  -13.1195   20.9874 C   0  0  0  0  0  0
  -25.2549  -13.8179   20.5746 C   0  0  0  0  0  0
  -24.1812  -13.0437   20.9214 C   0  0  0  0  0  0
  -24.6386  -11.6912   20.8745 C   0  0  0  0  0  0
  -23.9063  -10.4291   21.0400 C   0  0  0  0  0  0
  -24.3622   -9.4207   21.9175 C   0  0  0  0  0  0
  -23.6300   -8.2242   22.0742 C   0  0  0  0  0  0
  -22.4279   -8.0286   21.3544 C   0  0  0  0  0  0
  -21.9912   -9.0256   20.4646 C   0  0  0  0  0  0
  -22.7235  -10.2135   20.3053 C   0  0  0  0  0  0
  -21.6847   -6.0756   22.5289 C   0  0  0  0  0  0
  -21.4002   -6.5653   23.8225 C   0  0  0  0  0  0
  -21.3655   -5.6800   24.9182 C   0  0  0  0  0  0
  -21.6043   -4.3064   24.7222 C   0  0  0  0  0  0
  -21.8814   -3.8160   23.4341 C   0  0  0  0  0  0
  -21.9190   -4.6986   22.3405 C   0  0  0  0  0  0
  -22.7846  -13.5234   21.1888 C   0  0  0  0  0  0
  -22.1661   -4.2178   21.0976 F   0  0  0  0  0  0
  -21.5630   -3.4535   25.7729 F   0  0  0  0  0  0
  -30.0040  -13.4355   20.4089 N   0  0  0  0  0  0
  -26.2959  -12.9363   20.3339 N   0  0  0  0  0  0
  -25.9311  -11.6515   20.5777 N   0  0  0  0  0  0
  -22.0491  -12.8214   22.0438 N   0  0  0  0  0  0
  -25.4285  -15.1904   20.4232 N   0  0  0  0  0  0
  -31.8399  -14.7286   20.1099 O   0  0  0  0  0  0
  -21.6633   -6.8892   21.4250 O   0  0  0  0  0  0
  -22.3526  -14.5545   20.6755 O   0  0  0  0  0  0
  -24.6250  -31.8602   23.2042 C   0  0  0  0  0  0
  -25.9106  -32.4786   23.8349 C   0  0  1  0  0  0
  -27.2144  -27.3183   20.1132 C   0  0  0  0  0  0
  -25.5922  -33.8588   24.2263 N   0  0  0  0  0  0
  -23.4175  -30.4854   21.5472 C   0  0  2  0  0  0
  -24.8631  -28.9461   20.1078 C   0  0  0  0  0  0
  -22.7466  -29.4614   22.4929 C   0  0  0  0  0  0
  -18.0287  -28.1394   22.8485 C   0  0  0  0  0  0
  -24.1487  -36.7284   23.2636 C   0  0  0  0  0  0
  -25.9599  -30.7908   21.3766 C   0  0  0  0  0  0
  -26.0316  -29.4190   20.7170 C   0  0  0  0  0  0
  -27.2092  -28.6136   20.7172 C   0  0  0  0  0  0
  -26.0232  -26.9052   19.4690 C   0  0  0  0  0  0
  -24.8608  -27.6948   19.4760 C   0  0  0  0  0  0
  -23.6316  -29.8258   20.1605 C   0  0  0  0  0  0
  -25.4111  -36.3074   24.0326 C   0  0  1  0  0  0
  -20.5886  -28.3675   23.1297 C   0  0  2  0  0  0
  -20.6763  -26.9388   22.5443 C   0  0  0  0  0  0
  -19.5757  -26.6376   21.5226 C   0  0  0  0  0  0
  -18.1925  -26.7955   22.1603 C   0  0  0  0  0  0
  -19.1540  -28.8852   23.2896 C   0  0  0  0  0  0
  -18.9458  -30.1455   23.8913 C   0  0  0  0  0  0
  -17.6458  -30.6590   24.0571 C   0  0  0  0  0  0
  -25.9052  -34.9454   23.5091 C   0  0  0  0  0  0
  -16.5346  -29.9090   23.6342 C   0  0  0  0  0  0
  -16.7272  -28.6513   23.0350 C   0  0  0  0  0  0
  -26.4476  -31.6603   25.0728 C   0  0  0  0  0  0
  -25.3703  -31.3801   26.1468 C   0  0  0  0  0  0
  -27.0242  -30.2995   24.6190 C   0  0  0  0  0  0
  -27.6089  -32.4298   25.7460 C   0  0  0  0  0  0
  -27.5589  -37.1773   24.8445 C   0  0  0  0  0  0
  -21.4179  -29.3023   22.3674 N   0  0  0  0  0  0
  -26.4283  -37.3772   23.9414 N   0  0  0  0  0  0
  -24.6862  -31.0618   22.0995 N   0  0  0  0  0  0
  -23.4189  -28.8152   23.3009 O   0  0  0  0  0  0
  -28.3170  -26.4484   20.1882 O   0  0  0  0  0  0
  -26.5617  -34.8927   22.4656 O   0  0  0  0  0  0
  -23.5417  -32.1385   23.7381 O   0  0  0  0  0  0
  -28.2171  -20.3885   20.8079 C   0  0  0  0  0  0
  -30.0650  -20.4989   19.2729 C   0  0  0  0  0  0
  -29.3609  -18.2726   20.1325 C   0  0  0  0  0  0
  -29.0260  -21.1874   19.9551 C   0  0  0  0  0  0
  -28.3746  -18.9698   20.8851 C   0  0  0  0  0  0
  -30.2387  -19.0859   19.3615 C   0  0  0  0  0  0
  -28.7450  -23.7219   20.3099 C   0  0  0  0  0  0
  -28.1741  -22.6803   18.1894 C   0  0  0  0  0  0
  -30.5161  -16.4168   22.1315 C   0  0  0  0  0  0
  -29.3263  -16.6979   19.9818 C   0  0  0  0  0  0
  -28.1404  -25.0633   19.6839 C   0  0  0  0  0  0
  -28.6599  -22.5566   19.5667 N   0  0  0  0  0  0
  -29.9979  -15.7472   20.9390 N   0  0  0  0  0  0
  -29.2700  -23.7354   21.4333 O   0  0  0  0  0  0
  -27.5001  -18.2592   21.6371 F   0  0  0  0  0  0
  -31.4970  -18.3606   18.4246 Cl  0  0  0  0  0  0
  -31.4615  -12.4903   19.1441 H   0  0  0  0  0  0
  -30.3350  -11.4023   19.9067 H   0  0  0  0  0  0
  -29.7605  -11.7526   17.4748 H   0  0  0  0  0  0
  -29.6279  -13.4757   17.7414 H   0  0  0  0  0  0
  -27.8725  -11.2810   18.8923 H   0  0  0  0  0  0
  -27.3594  -12.5384   17.8010 H   0  0  0  0  0  0
  -27.6488  -14.2445   19.4884 H   0  0  0  0  0  0
  -28.7027  -12.1187   21.4204 H   0  0  0  0  0  0
  -28.4385  -13.7994   21.8024 H   0  0  0  0  0  0
  -25.2771   -9.5692   22.4749 H   0  0  0  0  0  0
  -24.0021   -7.4627   22.7442 H   0  0  0  0  0  0
  -21.0850   -8.8774   19.8945 H   0  0  0  0  0  0
  -22.3695  -10.9679   19.6169 H   0  0  0  0  0  0
  -21.1975   -7.6165   23.9744 H   0  0  0  0  0  0
  -21.1482   -6.0521   25.9092 H   0  0  0  0  0  0
  -22.0590   -2.7626   23.2820 H   0  0  0  0  0  0
  -22.4094  -11.9854   22.4793 H   0  0  0  0  0  0
  -21.1120  -13.1248   22.2660 H   0  0  0  0  0  0
  -24.6741  -15.8518   20.5761 H   0  0  0  0  0  0
  -26.3065  -15.6391   20.2006 H   0  0  0  0  0  0
  -26.7169  -32.5444   23.1090 H   0  0  0  0  0  0
  -25.0089  -33.9737   25.0419 H   0  0  0  0  0  0
  -22.7096  -31.3055   21.4085 H   0  0  0  0  0  0
  -23.3781  -35.9583   23.3242 H   0  0  0  0  0  0
  -24.3605  -36.8955   22.2063 H   0  0  0  0  0  0
  -23.7185  -37.6448   23.6691 H   0  0  0  0  0  0
  -26.0918  -31.5566   20.6107 H   0  0  0  0  0  0
  -26.8403  -30.8371   22.0060 H   0  0  0  0  0  0
  -28.1024  -28.9655   21.2134 H   0  0  0  0  0  0
  -25.9520  -25.9508   18.9692 H   0  0  0  0  0  0
  -23.9646  -27.3283   18.9944 H   0  0  0  0  0  0
  -23.7510  -30.6050   19.4071 H   0  0  0  0  0  0
  -22.7521  -29.2551   19.8575 H   0  0  0  0  0  0
  -25.1296  -36.1915   25.0820 H   0  0  0  0  0  0
  -21.0000  -28.3271   24.1410 H   0  0  0  0  0  0
  -20.5636  -26.2280   23.3638 H   0  0  0  0  0  0
  -21.6630  -26.7404   22.1235 H   0  0  0  0  0  0
  -19.6898  -25.6282   21.1257 H   0  0  0  0  0  0
  -19.6758  -27.3186   20.6761 H   0  0  0  0  0  0
  -17.4214  -26.6748   21.3980 H   0  0  0  0  0  0
  -18.0298  -26.0084   22.8983 H   0  0  0  0  0  0
  -19.7934  -30.7280   24.2272 H   0  0  0  0  0  0
  -17.5011  -31.6285   24.5156 H   0  0  0  0  0  0
  -15.5343  -30.2991   23.7676 H   0  0  0  0  0  0
  -15.8669  -28.0843   22.7046 H   0  0  0  0  0  0
  -24.5917  -30.7078   25.7841 H   0  0  0  0  0  0
  -24.8846  -32.2986   26.4785 H   0  0  0  0  0  0
  -25.8028  -30.9093   27.0306 H   0  0  0  0  0  0
  -26.2775  -29.6807   24.1207 H   0  0  0  0  0  0
  -27.3869  -29.7214   25.4696 H   0  0  0  0  0  0
  -27.8699  -30.4212   23.9421 H   0  0  0  0  0  0
  -27.2768  -33.3638   26.2002 H   0  0  0  0  0  0
  -28.3913  -32.6769   25.0272 H   0  0  0  0  0  0
  -28.0732  -31.8424   26.5387 H   0  0  0  0  0  0
  -28.2569  -38.0105   24.7523 H   0  0  0  0  0  0
  -28.1112  -36.2639   24.6204 H   0  0  0  0  0  0
  -27.2329  -37.1330   25.8850 H   0  0  0  0  0  0
  -20.9328  -29.8766   21.6924 H   0  0  0  0  0  0
  -26.0171  -38.2825   24.1510 H   0  0  0  0  0  0
  -27.3934  -20.8432   21.3386 H   0  0  0  0  0  0
  -30.7034  -21.0516   18.5989 H   0  0  0  0  0  0
  -28.7923  -23.3699   17.6114 H   0  0  0  0  0  0
  -27.1432  -23.0379   18.1726 H   0  0  0  0  0  0
  -28.1806  -21.7245   17.6639 H   0  0  0  0  0  0
  -29.7068  -16.9021   22.6787 H   0  0  0  0  0  0
  -31.2502  -17.1769   21.8581 H   0  0  0  0  0  0
  -31.0007  -15.7168   22.8150 H   0  0  0  0  0  0
  -29.6431  -16.4521   18.9663 H   0  0  0  0  0  0
  -28.2711  -16.4261   19.9911 H   0  0  0  0  0  0
  -27.5272  -24.9546   20.5813 H   0  0  0  0  0  0
  -29.2020  -25.2040   19.4798 H   0  0  0  0  0  0
  1 25  1  0  0  0
  1 30  2  0  0  0
  1 83  1  0  0  0
  2  3  1  0  0  0
  2 25  1  0  0  0
  2 87  1  0  0  0
  2 88  1  0  0  0
  3  4  1  0  0  0
  3 89  1  0  0  0
  3 90  1  0  0  0
  4  5  1  0  0  0
  4 91  1  0  0  0
  4 92  1  0  0  0
  5  6  1  0  0  0
  5 26  1  0  0  0
  5 93  1  0  0  0
  6 25  1  0  0  0
  6 94  1  0  0  0
  6 95  1  0  0  0
  7  8  2  0  0  0
  7 26  1  0  0  0
  7 29  1  0  0  0
  8  9  1  0  0  0
  8 22  1  0  0  0
  9 10  1  0  0  0
  9 27  2  0  0  0
 10 11  2  0  0  0
 10 15  1  0  0  0
 11 12  1  0  0  0
 11 96  1  0  0  0
 12 13  2  0  0  0
 12 97  1  0  0  0
 13 14  1  0  0  0
 13 31  1  0  0  0
 14 15  2  0  0  0
 14 98  1  0  0  0
 15 99  1  0  0  0
 16 17  2  0  0  0
 16 21  1  0  0  0
 16 31  1  0  0  0
 17 18  1  0  0  0
 17100  1  0  0  0
 18 19  2  0  0  0
 18101  1  0  0  0
 19 20  1  0  0  0
 19 24  1  0  0  0
 20 21  2  0  0  0
 20102  1  0  0  0
 21 23  1  0  0  0
 22 28  1  0  0  0
 22 32  2  0  0  0
 26 27  1  0  0  0
 28103  1  0  0  0
 28104  1  0  0  0
 29105  1  0  0  0
 29106  1  0  0  0
 33 34  1  0  0  0
 33 66  1  0  0  0
 33 70  2  0  0  0
 34 36  1  0  0  0
 34 59  1  0  0  0
 34107  1  0  0  0
 35 44  2  0  0  0
 35 45  1  0  0  0
 35 68  1  0  0  0
 36 56  1  0  0  0
 36108  1  0  0  0
 37 39  1  0  0  0
 37 47  1  0  0  0
 37 66  1  0  0  0
 37109  1  0  0  0
 38 43  2  0  0  0
 38 46  1  0  0  0
 38 47  1  0  0  0
 39 64  1  0  0  0
 39 67  2  0  0  0
 40 52  1  0  0  0
 40 53  2  0  0  0
 40 58  1  0  0  0
 41110  1  0  0  0
 41111  1  0  0  0
 41112  1  0  0  0
 41 48  1  0  0  0
 42 43  1  0  0  0
 42 66  1  0  0  0
 42113  1  0  0  0
 42114  1  0  0  0
 43 44  1  0  0  0
 44115  1  0  0  0
 45 46  2  0  0  0
 45116  1  0  0  0
 46117  1  0  0  0
 47118  1  0  0  0
 47119  1  0  0  0
 48 56  1  0  0  0
 48 65  1  0  0  0
 48120  1  0  0  0
 49 50  1  0  0  0
 49 53  1  0  0  0
 49 64  1  0  0  0
 49121  1  0  0  0
 50 51  1  0  0  0
 50122  1  0  0  0
 50123  1  0  0  0
 51 52  1  0  0  0
 51124  1  0  0  0
 51125  1  0  0  0
 52126  1  0  0  0
 52127  1  0  0  0
 53 54  1  0  0  0
 54 55  2  0  0  0
 54128  1  0  0  0
 55 57  1  0  0  0
 55129  1  0  0  0
 56 69  2  0  0  0
 57 58  2  0  0  0
 57130  1  0  0  0
 58131  1  0  0  0
 59 60  1  0  0  0
 59 61  1  0  0  0
 59 62  1  0  0  0
 60132  1  0  0  0
 60133  1  0  0  0
 60134  1  0  0  0
 61135  1  0  0  0
 61136  1  0  0  0
 61137  1  0  0  0
 62138  1  0  0  0
 62139  1  0  0  0
 62140  1  0  0  0
 63 65  1  0  0  0
 63141  1  0  0  0
 63142  1  0  0  0
 63143  1  0  0  0
 64144  1  0  0  0
 65145  1  0  0  0
 68 81  1  0  0  0
 71 74  2  0  0  0
 71 75  1  0  0  0
 71146  1  0  0  0
 72 74  1  0  0  0
 72 76  2  0  0  0
 72147  1  0  0  0
 73 75  2  0  0  0
 73 76  1  0  0  0
 73 80  1  0  0  0
 74 82  1  0  0  0
 75 85  1  0  0  0
 76 86  1  0  0  0
 77 81  1  0  0  0
 77 82  1  0  0  0
 77 84  2  0  0  0
 78 82  1  0  0  0
 78148  1  0  0  0
 78149  1  0  0  0
 78150  1  0  0  0
 79 83  1  0  0  0
 79151  1  0  0  0
 79152  1  0  0  0
 79153  1  0  0  0
 80 83  1  0  0  0
 80154  1  0  0  0
 80155  1  0  0  0
 81156  1  0  0  0
 81157  1  0  0  0
M  ISO  4   1 100  68 101  81 101  83 100
M  END
> <chiral flag>
0

> <version>
0

> <s_m_source_file>
/data/baiqing/PycharmProjects/Reinvent-master-3.2/result/LINK_invent/BTK/process_docking_weight1_custom_product_contain_oxygen_bond_distance_aromatic_linkinvent_7_9_3/rearranged_h_0021.sdf

> <i_m_source_file_index>
19

> <r_mmod_Potential_Energy-OPLS-2005>
533.010559082031

> <r_mmod_Stretch_Energy-OPLS-2005>
87.6159286499023

> <r_mmod_Bend_Energy-OPLS-2005>
351.769836425781

> <r_mmod_Torsional_Energy-OPLS-2005>
349.483459472656

> <r_mmod_Improper_Torsional_Energy-OPLS-2005>
8.12621974945068

> <r_mmod_Van_der_Waal_Energy-OPLS-2005>
152.958587646484

> <r_mmod_Electrostatic_Energy-OPLS-2005>
-253.154861450195

> <r_mmod_Solvation_Energy-OPLS-2005>
-214.855834960938

> <b_mmod_Minimization_Converged-OPLS-2005>
0

> <r_mmod_RMS_Derivative-OPLS-2005>
2.10500502586365

$$$$
19
                    3D
 Structure written by MMmdl.
162171  0  0  1  0            999 V2000
  -30.5149  -14.9284   20.3604 C   0  0  0  0  0  0
  -30.4562  -12.5616   19.4956 C   0  0  0  0  0  0
  -29.5373  -12.5346   18.2501 C   0  0  0  0  0  0
  -28.0628  -12.3224   18.6554 C   0  0  0  0  0  0
  -27.6366  -13.2408   19.8305 C   0  0  2  0  0  0
  -28.6813  -13.2383   20.9701 C   0  0  0  0  0  0
  -25.2490  -13.8211   20.5677 C   0  0  0  0  0  0
  -24.1763  -13.0455   20.9184 C   0  0  0  0  0  0
  -24.6316  -11.6918   20.8670 C   0  0  0  0  0  0
  -23.8977  -10.4301   21.0366 C   0  0  0  0  0  0
  -24.3541   -9.4240   21.9140 C   0  0  0  0  0  0
  -23.6276   -8.2263   22.0721 C   0  0  0  0  0  0
  -22.4260   -8.0254   21.3549 C   0  0  0  0  0  0
  -21.9872   -9.0195   20.4648 C   0  0  0  0  0  0
  -22.7145  -10.2110   20.3051 C   0  0  0  0  0  0
  -21.6852   -6.0710   22.5282 C   0  0  0  0  0  0
  -21.3998   -6.5601   23.8215 C   0  0  0  0  0  0
  -21.3659   -5.6774   24.9176 C   0  0  0  0  0  0
  -21.6060   -4.3050   24.7239 C   0  0  0  0  0  0
  -21.8813   -3.8115   23.4355 C   0  0  0  0  0  0
  -21.9186   -4.6921   22.3396 C   0  0  0  0  0  0
  -22.7775  -13.5296   21.1818 C   0  0  0  0  0  0
  -22.1682   -4.2089   21.0983 F   0  0  0  0  0  0
  -21.5640   -3.4532   25.7757 F   0  0  0  0  0  0
  -29.9669  -13.6488   20.3823 N   0  0  0  0  0  0
  -26.2912  -12.9403   20.3192 N   0  0  0  0  0  0
  -25.9259  -11.6561   20.5592 N   0  0  0  0  0  0
  -22.0372  -12.8358   22.0365 N   0  0  0  0  0  0
  -25.4200  -15.1907   20.4052 N   0  0  0  0  0  0
  -31.7106  -15.0371   20.0635 O   0  0  0  0  0  0
  -21.6665   -6.8835   21.4252 O   0  0  0  0  0  0
  -22.3480  -14.5568   20.6558 O   0  0  0  0  0  0
  -24.6444  -31.8407   23.1815 C   0  0  0  0  0  0
  -25.9196  -32.4688   23.8241 C   0  0  1  0  0  0
  -27.2465  -27.1384   20.0797 C   0  0  0  0  0  0
  -25.5927  -33.8481   24.2154 N   0  0  0  0  0  0
  -23.4519  -30.4490   21.5286 C   0  0  2  0  0  0
  -24.9006  -28.8631   20.0988 C   0  0  0  0  0  0
  -22.7584  -29.4515   22.4882 C   0  0  0  0  0  0
  -18.0321  -28.1362   22.8497 C   0  0  0  0  0  0
  -24.1478  -36.7243   23.2649 C   0  0  0  0  0  0
  -26.0061  -30.6939   21.3902 C   0  0  0  0  0  0
  -26.0724  -29.3038   20.7245 C   0  0  0  0  0  0
  -27.2320  -28.4423   20.7208 C   0  0  0  0  0  0
  -26.0548  -26.8040   19.4047 C   0  0  0  0  0  0
  -24.9047  -27.6261   19.4281 C   0  0  0  0  0  0
  -23.6725  -29.7593   20.1523 C   0  0  0  0  0  0
  -25.4102  -36.3019   24.0324 C   0  0  1  0  0  0
  -20.5932  -28.3675   23.1229 C   0  0  2  0  0  0
  -20.6792  -26.9380   22.5388 C   0  0  0  0  0  0
  -19.5763  -26.6345   21.5196 C   0  0  0  0  0  0
  -18.1944  -26.7901   22.1621 C   0  0  0  0  0  0
  -19.1572  -28.8840   23.2859 C   0  0  0  0  0  0
  -18.9478  -30.1442   23.8868 C   0  0  0  0  0  0
  -17.6477  -30.6565   24.0510 C   0  0  0  0  0  0
  -25.9064  -34.9401   23.5052 C   0  0  0  0  0  0
  -16.5372  -29.9032   23.6330 C   0  0  0  0  0  0
  -16.7307  -28.6447   23.0376 C   0  0  0  0  0  0
  -26.4467  -31.6588   25.0722 C   0  0  0  0  0  0
  -25.3638  -31.3809   26.1421 C   0  0  0  0  0  0
  -27.0375  -30.3002   24.6363 C   0  0  0  0  0  0
  -27.6020  -32.4349   25.7481 C   0  0  0  0  0  0
  -27.5568  -37.1777   24.8461 C   0  0  0  0  0  0
  -21.4277  -29.3014   22.3626 N   0  0  0  0  0  0
  -26.4268  -37.3735   23.9412 N   0  0  0  0  0  0
  -24.7212  -31.0190   22.0884 N   0  0  0  0  0  0
  -23.4217  -28.8084   23.3059 O   0  0  0  0  0  0
  -28.3255  -26.1887   20.1608 O   0  0  0  0  0  0
  -26.5647  -34.8922   22.4649 O   0  0  0  0  0  0
  -23.5545  -32.1318   23.6985 O   0  0  0  0  0  0
  -28.3482  -19.7844   20.3197 C   0  0  0  0  0  0
  -28.5131  -18.3620   20.5882 C   0  0  0  0  0  0
  -30.6139  -18.3659   19.5428 C   0  0  0  0  0  0
  -29.2972  -20.6026   19.6255 C   0  0  0  0  0  0
  -29.6390  -17.5523   20.2144 C   0  0  0  0  0  0
  -30.4529  -19.7925   19.2664 C   0  0  0  0  0  0
  -26.8234  -22.4906   17.1616 C   0  0  0  0  0  0
  -26.1747  -22.1886   18.5247 C   0  0  0  0  0  0
  -28.1293  -21.7012   16.9520 C   0  0  0  0  0  0
  -26.7413  -22.9205   19.7733 C   0  0  0  0  0  0
  -29.3100  -22.2233   17.7873 C   0  0  0  0  0  0
  -28.2683  -23.2150   19.8657 C   0  0  2  0  0  0
  -28.5303  -24.8329   19.4189 C   0  0  0  0  0  0
  -29.1104  -22.0479   19.2379 N   0  0  0  0  0  0
  -29.6619  -16.0475   20.5241 N   0  0  0  0  0  0
  -31.4908  -20.3901   18.6281 F   0  0  0  0  0  0
  -31.4976  -12.7124   19.2108 H   0  0  0  0  0  0
  -30.4344  -11.6045   20.0168 H   0  0  0  0  0  0
  -29.8624  -11.7536   17.5611 H   0  0  0  0  0  0
  -29.6247  -13.4801   17.7090 H   0  0  0  0  0  0
  -27.9524  -11.2778   18.9474 H   0  0  0  0  0  0
  -27.4063  -12.4697   17.7936 H   0  0  0  0  0  0
  -27.6119  -14.2469   19.4095 H   0  0  0  0  0  0
  -28.7583  -12.2509   21.4308 H   0  0  0  0  0  0
  -28.3861  -13.9190   21.7695 H   0  0  0  0  0  0
  -25.2674   -9.5803   22.4706 H   0  0  0  0  0  0
  -24.0001   -7.4702   22.7466 H   0  0  0  0  0  0
  -21.0802   -8.8691   19.8987 H   0  0  0  0  0  0
  -22.3542  -10.9621   19.6164 H   0  0  0  0  0  0
  -21.1985   -7.6114   23.9705 H   0  0  0  0  0  0
  -21.1507   -6.0497   25.9082 H   0  0  0  0  0  0
  -22.0581   -2.7567   23.2867 H   0  0  0  0  0  0
  -22.3922  -12.0110   22.5016 H   0  0  0  0  0  0
  -21.0935  -13.1388   22.2373 H   0  0  0  0  0  0
  -24.6380  -15.8361   20.4674 H   0  0  0  0  0  0
  -26.2427  -15.6137   19.9929 H   0  0  0  0  0  0
  -26.7275  -32.5255   23.0977 H   0  0  0  0  0  0
  -25.0047  -33.9562   25.0281 H   0  0  0  0  0  0
  -22.7576  -31.2747   21.3599 H   0  0  0  0  0  0
  -23.3747  -35.9580   23.3307 H   0  0  0  0  0  0
  -24.3560  -36.8872   22.2071 H   0  0  0  0  0  0
  -23.7234  -37.6438   23.6683 H   0  0  0  0  0  0
  -26.1691  -31.4393   20.6108 H   0  0  0  0  0  0
  -26.8777  -30.7474   22.0326 H   0  0  0  0  0  0
  -28.1183  -28.7552   21.2527 H   0  0  0  0  0  0
  -25.9979  -25.8689   18.8706 H   0  0  0  0  0  0
  -24.0154  -27.2838   18.9102 H   0  0  0  0  0  0
  -23.7860  -30.5163   19.3757 H   0  0  0  0  0  0
  -22.7966  -29.1746   19.8658 H   0  0  0  0  0  0
  -25.1296  -36.1850   25.0816 H   0  0  0  0  0  0
  -21.0051  -28.3249   24.1339 H   0  0  0  0  0  0
  -20.5629  -26.2313   23.3623 H   0  0  0  0  0  0
  -21.6663  -26.7367   22.1219 H   0  0  0  0  0  0
  -19.6905  -25.6239   21.1247 H   0  0  0  0  0  0
  -19.6665  -27.3126   20.6702 H   0  0  0  0  0  0
  -17.4224  -26.6686   21.3999 H   0  0  0  0  0  0
  -18.0309  -26.0025   22.9003 H   0  0  0  0  0  0
  -19.7942  -30.7256   24.2251 H   0  0  0  0  0  0
  -17.5010  -31.6254   24.5078 H   0  0  0  0  0  0
  -15.5354  -30.2896   23.7653 H   0  0  0  0  0  0
  -15.8728  -28.0704   22.7144 H   0  0  0  0  0  0
  -24.5765  -30.7223   25.7708 H   0  0  0  0  0  0
  -24.8864  -32.3015   26.4802 H   0  0  0  0  0  0
  -25.7872  -30.8973   27.0242 H   0  0  0  0  0  0
  -26.3050  -29.6694   24.1332 H   0  0  0  0  0  0
  -27.3940  -29.7312   25.4949 H   0  0  0  0  0  0
  -27.8942  -30.4221   23.9747 H   0  0  0  0  0  0
  -27.2647  -33.3651   26.2049 H   0  0  0  0  0  0
  -28.3823  -32.6925   25.0312 H   0  0  0  0  0  0
  -28.0737  -31.8517   26.5395 H   0  0  0  0  0  0
  -28.2599  -38.0057   24.7508 H   0  0  0  0  0  0
  -28.1057  -36.2603   24.6287 H   0  0  0  0  0  0
  -27.2323  -37.1444   25.8872 H   0  0  0  0  0  0
  -20.9518  -29.8735   21.6788 H   0  0  0  0  0  0
  -26.0146  -38.2829   24.1345 H   0  0  0  0  0  0
  -27.4239  -20.2370   20.6466 H   0  0  0  0  0  0
  -27.7011  -17.8724   21.1037 H   0  0  0  0  0  0
  -31.5252  -17.8984   19.2021 H   0  0  0  0  0  0
  -26.9754  -23.5587   17.0078 H   0  0  0  0  0  0
  -26.1250  -22.1857   16.3802 H   0  0  0  0  0  0
  -26.2194  -21.1101   18.6880 H   0  0  0  0  0  0
  -25.1064  -22.4012   18.4559 H   0  0  0  0  0  0
  -28.4003  -21.7444   15.8935 H   0  0  0  0  0  0
  -27.9756  -20.6407   17.1619 H   0  0  0  0  0  0
  -26.4498  -22.3303   20.6420 H   0  0  0  0  0  0
  -26.1998  -23.8584   19.8998 H   0  0  0  0  0  0
  -29.4773  -23.2720   17.5491 H   0  0  0  0  0  0
  -30.2176  -21.7451   17.4273 H   0  0  0  0  0  0
  -28.5352  -23.1765   20.9217 H   0  0  0  0  0  0
  -28.1672  -24.9695   18.3989 H   0  0  0  0  0  0
  -29.6163  -24.8566   19.3070 H   0  0  0  0  0  0
  -28.7890  -15.7321   20.9180 H   0  0  0  0  0  0
  1 25  1  0  0  0
  1 30  2  0  0  0
  1 85  1  0  0  0
  2  3  1  0  0  0
  2 25  1  0  0  0
  2 87  1  0  0  0
  2 88  1  0  0  0
  3  4  1  0  0  0
  3 89  1  0  0  0
  3 90  1  0  0  0
  4  5  1  0  0  0
  4 91  1  0  0  0
  4 92  1  0  0  0
  5  6  1  0  0  0
  5 26  1  0  0  0
  5 93  1  0  0  0
  6 25  1  0  0  0
  6 94  1  0  0  0
  6 95  1  0  0  0
  7  8  2  0  0  0
  7 26  1  0  0  0
  7 29  1  0  0  0
  8  9  1  0  0  0
  8 22  1  0  0  0
  9 10  1  0  0  0
  9 27  2  0  0  0
 10 11  2  0  0  0
 10 15  1  0  0  0
 11 12  1  0  0  0
 11 96  1  0  0  0
 12 13  2  0  0  0
 12 97  1  0  0  0
 13 14  1  0  0  0
 13 31  1  0  0  0
 14 15  2  0  0  0
 14 98  1  0  0  0
 15 99  1  0  0  0
 16 17  2  0  0  0
 16 21  1  0  0  0
 16 31  1  0  0  0
 17 18  1  0  0  0
 17100  1  0  0  0
 18 19  2  0  0  0
 18101  1  0  0  0
 19 20  1  0  0  0
 19 24  1  0  0  0
 20 21  2  0  0  0
 20102  1  0  0  0
 21 23  1  0  0  0
 22 28  1  0  0  0
 22 32  2  0  0  0
 26 27  1  0  0  0
 28103  1  0  0  0
 28104  1  0  0  0
 29105  1  0  0  0
 29106  1  0  0  0
 33 34  1  0  0  0
 33 66  1  0  0  0
 33 70  2  0  0  0
 34 36  1  0  0  0
 34 59  1  0  0  0
 34107  1  0  0  0
 35 44  2  0  0  0
 35 45  1  0  0  0
 35 68  1  0  0  0
 36 56  1  0  0  0
 36108  1  0  0  0
 37 39  1  0  0  0
 37 47  1  0  0  0
 37 66  1  0  0  0
 37109  1  0  0  0
 38 43  2  0  0  0
 38 46  1  0  0  0
 38 47  1  0  0  0
 39 64  1  0  0  0
 39 67  2  0  0  0
 40 52  1  0  0  0
 40 53  2  0  0  0
 40 58  1  0  0  0
 41110  1  0  0  0
 41111  1  0  0  0
 41112  1  0  0  0
 41 48  1  0  0  0
 42 43  1  0  0  0
 42 66  1  0  0  0
 42113  1  0  0  0
 42114  1  0  0  0
 43 44  1  0  0  0
 44115  1  0  0  0
 45 46  2  0  0  0
 45116  1  0  0  0
 46117  1  0  0  0
 47118  1  0  0  0
 47119  1  0  0  0
 48 56  1  0  0  0
 48 65  1  0  0  0
 48120  1  0  0  0
 49 50  1  0  0  0
 49 53  1  0  0  0
 49 64  1  0  0  0
 49121  1  0  0  0
 50 51  1  0  0  0
 50122  1  0  0  0
 50123  1  0  0  0
 51 52  1  0  0  0
 51124  1  0  0  0
 51125  1  0  0  0
 52126  1  0  0  0
 52127  1  0  0  0
 53 54  1  0  0  0
 54 55  2  0  0  0
 54128  1  0  0  0
 55 57  1  0  0  0
 55129  1  0  0  0
 56 69  2  0  0  0
 57 58  2  0  0  0
 57130  1  0  0  0
 58131  1  0  0  0
 59 60  1  0  0  0
 59 61  1  0  0  0
 59 62  1  0  0  0
 60132  1  0  0  0
 60133  1  0  0  0
 60134  1  0  0  0
 61135  1  0  0  0
 61136  1  0  0  0
 61137  1  0  0  0
 62138  1  0  0  0
 62139  1  0  0  0
 62140  1  0  0  0
 63 65  1  0  0  0
 63141  1  0  0  0
 63142  1  0  0  0
 63143  1  0  0  0
 64144  1  0  0  0
 65145  1  0  0  0
 68 83  1  0  0  0
 71 72  2  0  0  0
 71 74  1  0  0  0
 71146  1  0  0  0
 72 75  1  0  0  0
 72147  1  0  0  0
 73 75  2  0  0  0
 73 76  1  0  0  0
 73148  1  0  0  0
 74 76  2  0  0  0
 74 84  1  0  0  0
 75 85  1  0  0  0
 76 86  1  0  0  0
 77 78  1  0  0  0
 77 79  1  0  0  0
 77149  1  0  0  0
 77150  1  0  0  0
 78 80  1  0  0  0
 78151  1  0  0  0
 78152  1  0  0  0
 79 81  1  0  0  0
 79153  1  0  0  0
 79154  1  0  0  0
 80 82  1  0  0  0
 80155  1  0  0  0
 80156  1  0  0  0
 81 84  1  0  0  0
 81157  1  0  0  0
 81158  1  0  0  0
 82 83  1  0  0  0
 82 84  1  0  0  0
 82159  1  0  0  0
 83160  1  0  0  0
 83161  1  0  0  0
 85162  1  0  0  0
M  ISO  4   1 100  68 101  83 101  85 100
M  END
> <chiral flag>
0

> <version>
0

> <s_m_source_file>
/data/baiqing/PycharmProjects/Reinvent-master-3.2/result/LINK_invent/BTK/process_docking_weight1_custom_product_contain_oxygen_bond_distance_aromatic_linkinvent_7_9_3/rearranged_h_0021.sdf

> <i_m_source_file_index>
20

> <r_mmod_Potential_Energy-OPLS-2005>
594.090698242188

> <r_mmod_Stretch_Energy-OPLS-2005>
243.865539550781

> <r_mmod_Bend_Energy-OPLS-2005>
319.272338867188

> <r_mmod_Torsional_Energy-OPLS-2005>
268.921997070312

> <r_mmod_Improper_Torsional_Energy-OPLS-2005>
6.12067699432373

> <r_mmod_Van_der_Waal_Energy-OPLS-2005>
127.92253112793

> <r_mmod_Electrostatic_Energy-OPLS-2005>
-339.893249511719

> <r_mmod_Solvation_Energy-OPLS-2005>
-218.798065185547

> <b_mmod_Minimization_Converged-OPLS-2005>
0

> <r_mmod_RMS_Derivative-OPLS-2005>
7.07230567932129

$$$$
20
                    3D
 Structure written by MMmdl.
152160  0  0  1  0            999 V2000
  -30.5315  -14.9197   20.4245 C   0  0  0  0  0  0
  -30.4482  -12.5650   19.4964 C   0  0  0  0  0  0
  -29.5243  -12.5345   18.2556 C   0  0  0  0  0  0
  -28.0578  -12.3210   18.6745 C   0  0  0  0  0  0
  -27.6392  -13.2433   19.8483 C   0  0  2  0  0  0
  -28.6822  -13.2420   20.9878 C   0  0  0  0  0  0
  -25.2499  -13.8197   20.5690 C   0  0  0  0  0  0
  -24.1799  -13.0434   20.9189 C   0  0  0  0  0  0
  -24.6412  -11.6924   20.8754 C   0  0  0  0  0  0
  -23.9093  -10.4295   21.0423 C   0  0  0  0  0  0
  -24.3640   -9.4204   21.9196 C   0  0  0  0  0  0
  -23.6304   -8.2245   22.0765 C   0  0  0  0  0  0
  -22.4283   -8.0292   21.3555 C   0  0  0  0  0  0
  -21.9932   -9.0266   20.4650 C   0  0  0  0  0  0
  -22.7269  -10.2140   20.3063 C   0  0  0  0  0  0
  -21.6854   -6.0751   22.5277 C   0  0  0  0  0  0
  -21.4013   -6.5652   23.8208 C   0  0  0  0  0  0
  -21.3655   -5.6804   24.9168 C   0  0  0  0  0  0
  -21.6047   -4.3066   24.7216 C   0  0  0  0  0  0
  -21.8817   -3.8160   23.4336 C   0  0  0  0  0  0
  -21.9190   -4.6980   22.3396 C   0  0  0  0  0  0
  -22.7816  -13.5218   21.1850 C   0  0  0  0  0  0
  -22.1660   -4.2171   21.0971 F   0  0  0  0  0  0
  -21.5628   -3.4545   25.7727 F   0  0  0  0  0  0
  -29.9683  -13.6471   20.4012 N   0  0  0  0  0  0
  -26.2942  -12.9422   20.3287 N   0  0  0  0  0  0
  -25.9350  -11.6564   20.5767 N   0  0  0  0  0  0
  -22.0466  -12.8208   22.0405 N   0  0  0  0  0  0
  -25.4170  -15.1916   20.4097 N   0  0  0  0  0  0
  -31.7164  -15.0330   20.0913 O   0  0  0  0  0  0
  -21.6638   -6.8895   21.4242 O   0  0  0  0  0  0
  -22.3500  -14.5527   20.6702 O   0  0  0  0  0  0
  -24.6408  -31.8444   23.1918 C   0  0  0  0  0  0
  -25.9202  -32.4697   23.8275 C   0  0  1  0  0  0
  -27.2177  -27.1572   20.1374 C   0  0  0  0  0  0
  -25.5965  -33.8504   24.2201 N   0  0  0  0  0  0
  -23.4420  -30.4690   21.5345 C   0  0  2  0  0  0
  -24.8889  -28.8981   20.1094 C   0  0  0  0  0  0
  -22.7570  -29.4562   22.4855 C   0  0  0  0  0  0
  -18.0305  -28.1400   22.8434 C   0  0  0  0  0  0
  -24.1494  -36.7258   23.2648 C   0  0  0  0  0  0
  -25.9963  -30.7272   21.3851 C   0  0  0  0  0  0
  -26.0648  -29.3400   20.7253 C   0  0  0  0  0  0
  -27.2244  -28.4832   20.7292 C   0  0  0  0  0  0
  -26.0111  -26.8117   19.4854 C   0  0  0  0  0  0
  -24.8732  -27.6451   19.4813 C   0  0  0  0  0  0
  -23.6683  -29.8023   20.1515 C   0  0  0  0  0  0
  -25.4115  -36.3034   24.0332 C   0  0  1  0  0  0
  -20.5911  -28.3717   23.1231 C   0  0  2  0  0  0
  -20.6788  -26.9422   22.5407 C   0  0  0  0  0  0
  -19.5772  -26.6375   21.5202 C   0  0  0  0  0  0
  -18.1948  -26.7931   22.1593 C   0  0  0  0  0  0
  -19.1559  -28.8867   23.2821 C   0  0  0  0  0  0
  -18.9490  -30.1457   23.8853 C   0  0  0  0  0  0
  -17.6491  -30.6582   24.0550 C   0  0  0  0  0  0
  -25.9077  -34.9415   23.5076 C   0  0  0  0  0  0
  -16.5376  -29.9077   23.6335 C   0  0  0  0  0  0
  -16.7292  -28.6516   23.0320 C   0  0  0  0  0  0
  -26.4532  -31.6550   25.0707 C   0  0  0  0  0  0
  -25.3729  -31.3746   26.1414 C   0  0  0  0  0  0
  -27.0411  -30.2958   24.6268 C   0  0  0  0  0  0
  -27.6050  -32.4319   25.7484 C   0  0  0  0  0  0
  -27.5576  -37.1770   24.8465 C   0  0  0  0  0  0
  -21.4267  -29.3053   22.3628 N   0  0  0  0  0  0
  -26.4266  -37.3756   23.9437 N   0  0  0  0  0  0
  -24.7128  -31.0335   22.0927 N   0  0  0  0  0  0
  -23.4234  -28.8125   23.2999 O   0  0  0  0  0  0
  -28.2958  -26.2098   20.2416 O   0  0  0  0  0  0
  -26.5653  -34.8923   22.4646 O   0  0  0  0  0  0
  -23.5541  -32.1287   23.7173 O   0  0  0  0  0  0
  -30.5032  -19.7735   19.5581 C   0  0  0  0  0  0
  -30.6280  -18.3394   19.7425 C   0  0  0  0  0  0
  -28.5898  -19.8432   20.9119 C   0  0  0  0  0  0
  -29.4868  -20.6414   20.1244 C   0  0  0  0  0  0
  -29.7148  -17.5549   20.5096 C   0  0  0  0  0  0
  -28.6912  -18.3967   21.0848 C   0  0  0  0  0  0
  -30.6146  -22.5805   19.1388 C   0  0  0  0  0  0
  -28.6711  -23.3200   20.5236 C   0  0  0  0  0  0
  -28.3157  -24.7551   19.7015 C   0  0  0  0  0  0
  -29.6997  -16.0332   20.6859 N   0  0  0  0  0  0
  -29.4243  -22.1222   19.8616 N   0  0  0  0  0  0
  -27.4825  -17.6234   22.0480 Cl  0  0  0  0  0  0
  -31.4831  -12.7217   19.1880 H   0  0  0  0  0  0
  -30.4329  -11.6045   20.0134 H   0  0  0  0  0  0
  -29.8369  -11.7468   17.5693 H   0  0  0  0  0  0
  -29.6142  -13.4727   17.7049 H   0  0  0  0  0  0
  -27.9509  -11.2780   18.9749 H   0  0  0  0  0  0
  -27.3924  -12.4618   17.8223 H   0  0  0  0  0  0
  -27.6117  -14.2509   19.4329 H   0  0  0  0  0  0
  -28.7579  -12.2585   21.4531 H   0  0  0  0  0  0
  -28.3840  -13.9314   21.7791 H   0  0  0  0  0  0
  -25.2784   -9.5678   22.4770 H   0  0  0  0  0  0
  -24.0011   -7.4639   22.7492 H   0  0  0  0  0  0
  -21.0863   -8.8797   19.8953 H   0  0  0  0  0  0
  -22.3740  -10.9688   19.6177 H   0  0  0  0  0  0
  -21.2006   -7.6161   23.9724 H   0  0  0  0  0  0
  -21.1479   -6.0526   25.9074 H   0  0  0  0  0  0
  -22.0601   -2.7625   23.2823 H   0  0  0  0  0  0
  -22.4083  -11.9862   22.4782 H   0  0  0  0  0  0
  -21.1092  -13.1249   22.2640 H   0  0  0  0  0  0
  -24.6566  -15.8478   20.5418 H   0  0  0  0  0  0
  -26.2751  -15.6391   20.1180 H   0  0  0  0  0  0
  -26.7259  -32.5298   23.0995 H   0  0  0  0  0  0
  -25.0109  -33.9611   25.0345 H   0  0  0  0  0  0
  -22.7412  -31.2941   21.3836 H   0  0  0  0  0  0
  -23.3771  -35.9570   23.3263 H   0  0  0  0  0  0
  -24.3592  -36.8925   22.2077 H   0  0  0  0  0  0
  -23.7247  -37.6448   23.6694 H   0  0  0  0  0  0
  -26.1508  -31.4854   20.6149 H   0  0  0  0  0  0
  -26.8689  -30.7734   22.0255 H   0  0  0  0  0  0
  -28.1169  -28.8166   21.2403 H   0  0  0  0  0  0
  -25.8880  -25.8604   18.9980 H   0  0  0  0  0  0
  -23.9721  -27.2959   18.9972 H   0  0  0  0  0  0
  -23.8151  -30.5802   19.4009 H   0  0  0  0  0  0
  -22.7804  -29.2549   19.8314 H   0  0  0  0  0  0
  -25.1298  -36.1849   25.0825 H   0  0  0  0  0  0
  -20.9958  -28.3293   24.1367 H   0  0  0  0  0  0
  -20.5675  -26.2332   23.3628 H   0  0  0  0  0  0
  -21.6654  -26.7431   22.1211 H   0  0  0  0  0  0
  -19.6952  -25.6290   21.1234 H   0  0  0  0  0  0
  -19.6716  -27.3169   20.6725 H   0  0  0  0  0  0
  -17.4226  -26.6661   21.3997 H   0  0  0  0  0  0
  -18.0331  -26.0094   22.9007 H   0  0  0  0  0  0
  -19.7986  -30.7263   24.2197 H   0  0  0  0  0  0
  -17.5070  -31.6257   24.5168 H   0  0  0  0  0  0
  -15.5381  -30.2966   23.7708 H   0  0  0  0  0  0
  -15.8694  -28.0846   22.7015 H   0  0  0  0  0  0
  -24.5924  -30.7064   25.7753 H   0  0  0  0  0  0
  -24.8902  -32.2934   26.4749 H   0  0  0  0  0  0
  -25.8011  -30.9001   27.0245 H   0  0  0  0  0  0
  -26.3037  -29.6657   24.1273 H   0  0  0  0  0  0
  -27.4070  -29.7286   25.4832 H   0  0  0  0  0  0
  -27.8905  -30.4234   23.9551 H   0  0  0  0  0  0
  -27.2642  -33.3654   26.1959 H   0  0  0  0  0  0
  -28.3883  -32.6794   25.0316 H   0  0  0  0  0  0
  -28.0663  -31.8512   26.5480 H   0  0  0  0  0  0
  -28.2542  -38.0114   24.7540 H   0  0  0  0  0  0
  -28.1124  -36.2643   24.6214 H   0  0  0  0  0  0
  -27.2310  -37.1324   25.8872 H   0  0  0  0  0  0
  -20.9483  -29.8812   21.6847 H   0  0  0  0  0  0
  -26.0140  -38.2819   24.1458 H   0  0  0  0  0  0
  -31.2620  -20.1918   18.9159 H   0  0  0  0  0  0
  -31.4497  -17.8373   19.2531 H   0  0  0  0  0  0
  -27.7650  -20.3416   21.3999 H   0  0  0  0  0  0
  -30.5966  -22.2336   18.1045 H   0  0  0  0  0  0
  -31.5269  -22.2202   19.6163 H   0  0  0  0  0  0
  -30.7209  -23.6624   19.1102 H   0  0  0  0  0  0
  -27.7335  -22.9367   20.9286 H   0  0  0  0  0  0
  -29.2560  -23.5946   21.4012 H   0  0  0  0  0  0
  -27.4028  -24.5412   19.1562 H   0  0  0  0  0  0
  -29.0363  -24.8498   18.8927 H   0  0  0  0  0  0
  -28.8146  -15.7186   21.0554 H   0  0  0  0  0  0
  1 25  1  0  0  0
  1 30  2  0  0  0
  1 80  1  0  0  0
  2  3  1  0  0  0
  2 25  1  0  0  0
  2 83  1  0  0  0
  2 84  1  0  0  0
  3  4  1  0  0  0
  3 85  1  0  0  0
  3 86  1  0  0  0
  4  5  1  0  0  0
  4 87  1  0  0  0
  4 88  1  0  0  0
  5  6  1  0  0  0
  5 26  1  0  0  0
  5 89  1  0  0  0
  6 25  1  0  0  0
  6 90  1  0  0  0
  6 91  1  0  0  0
  7  8  2  0  0  0
  7 26  1  0  0  0
  7 29  1  0  0  0
  8  9  1  0  0  0
  8 22  1  0  0  0
  9 10  1  0  0  0
  9 27  2  0  0  0
 10 11  2  0  0  0
 10 15  1  0  0  0
 11 12  1  0  0  0
 11 92  1  0  0  0
 12 13  2  0  0  0
 12 93  1  0  0  0
 13 14  1  0  0  0
 13 31  1  0  0  0
 14 15  2  0  0  0
 14 94  1  0  0  0
 15 95  1  0  0  0
 16 17  2  0  0  0
 16 21  1  0  0  0
 16 31  1  0  0  0
 17 18  1  0  0  0
 17 96  1  0  0  0
 18 19  2  0  0  0
 18 97  1  0  0  0
 19 20  1  0  0  0
 19 24  1  0  0  0
 20 21  2  0  0  0
 20 98  1  0  0  0
 21 23  1  0  0  0
 22 28  1  0  0  0
 22 32  2  0  0  0
 26 27  1  0  0  0
 28 99  1  0  0  0
 28100  1  0  0  0
 29101  1  0  0  0
 29102  1  0  0  0
 33 34  1  0  0  0
 33 66  1  0  0  0
 33 70  2  0  0  0
 34 36  1  0  0  0
 34 59  1  0  0  0
 34103  1  0  0  0
 35 44  2  0  0  0
 35 45  1  0  0  0
 35 68  1  0  0  0
 36 56  1  0  0  0
 36104  1  0  0  0
 37 39  1  0  0  0
 37 47  1  0  0  0
 37 66  1  0  0  0
 37105  1  0  0  0
 38 43  2  0  0  0
 38 46  1  0  0  0
 38 47  1  0  0  0
 39 64  1  0  0  0
 39 67  2  0  0  0
 40 52  1  0  0  0
 40 53  2  0  0  0
 40 58  1  0  0  0
 41106  1  0  0  0
 41107  1  0  0  0
 41108  1  0  0  0
 41 48  1  0  0  0
 42 43  1  0  0  0
 42 66  1  0  0  0
 42109  1  0  0  0
 42110  1  0  0  0
 43 44  1  0  0  0
 44111  1  0  0  0
 45 46  2  0  0  0
 45112  1  0  0  0
 46113  1  0  0  0
 47114  1  0  0  0
 47115  1  0  0  0
 48 56  1  0  0  0
 48 65  1  0  0  0
 48116  1  0  0  0
 49 50  1  0  0  0
 49 53  1  0  0  0
 49 64  1  0  0  0
 49117  1  0  0  0
 50 51  1  0  0  0
 50118  1  0  0  0
 50119  1  0  0  0
 51 52  1  0  0  0
 51120  1  0  0  0
 51121  1  0  0  0
 52122  1  0  0  0
 52123  1  0  0  0
 53 54  1  0  0  0
 54 55  2  0  0  0
 54124  1  0  0  0
 55 57  1  0  0  0
 55125  1  0  0  0
 56 69  2  0  0  0
 57 58  2  0  0  0
 57126  1  0  0  0
 58127  1  0  0  0
 59 60  1  0  0  0
 59 61  1  0  0  0
 59 62  1  0  0  0
 60128  1  0  0  0
 60129  1  0  0  0
 60130  1  0  0  0
 61131  1  0  0  0
 61132  1  0  0  0
 61133  1  0  0  0
 62134  1  0  0  0
 62135  1  0  0  0
 62136  1  0  0  0
 63 65  1  0  0  0
 63137  1  0  0  0
 63138  1  0  0  0
 63139  1  0  0  0
 64140  1  0  0  0
 65141  1  0  0  0
 68 79  1  0  0  0
 71 72  2  0  0  0
 71 74  1  0  0  0
 71142  1  0  0  0
 72 75  1  0  0  0
 72143  1  0  0  0
 73 74  2  0  0  0
 73 76  1  0  0  0
 73144  1  0  0  0
 74 81  1  0  0  0
 75 76  2  0  0  0
 75 80  1  0  0  0
 76 82  1  0  0  0
 77 81  1  0  0  0
 77145  1  0  0  0
 77146  1  0  0  0
 77147  1  0  0  0
 78 79  1  0  0  0
 78 81  1  0  0  0
 78148  1  0  0  0
 78149  1  0  0  0
 79150  1  0  0  0
 79151  1  0  0  0
 80152  1  0  0  0
M  ISO  4   1 100  68 101  79 101  80 100
M  END
> <chiral flag>
0

> <version>
0

> <s_m_source_file>
/data/baiqing/PycharmProjects/Reinvent-master-3.2/result/LINK_invent/BTK/process_docking_weight1_custom_product_contain_oxygen_bond_distance_aromatic_linkinvent_7_9_3/rearranged_h_0021.sdf

> <i_m_source_file_index>
21

> <r_mmod_Potential_Energy-OPLS-2005>
419.340576171875

> <r_mmod_Stretch_Energy-OPLS-2005>
224.835601806641

> <r_mmod_Bend_Energy-OPLS-2005>
284.150177001953

> <r_mmod_Torsional_Energy-OPLS-2005>
203.694259643555

> <r_mmod_Improper_Torsional_Energy-OPLS-2005>
4.58849811553955

> <r_mmod_Van_der_Waal_Energy-OPLS-2005>
145.18830871582

> <r_mmod_Electrostatic_Energy-OPLS-2005>
-388.833129882812

> <r_mmod_Solvation_Energy-OPLS-2005>
-225.778060913086

> <b_mmod_Minimization_Converged-OPLS-2005>
0

> <r_mmod_RMS_Derivative-OPLS-2005>
2.39382147789001

$$$$
21
                    3D
 Structure written by MMmdl.
158166  0  0  1  0            999 V2000
  -30.6846  -14.6300   20.5571 C   0  0  0  0  0  0
  -30.4271  -12.4163   19.4532 C   0  0  0  0  0  0
  -29.5020  -12.5274   18.2224 C   0  0  0  0  0  0
  -28.0214  -12.3635   18.6167 C   0  0  0  0  0  0
  -27.6396  -13.2308   19.8452 C   0  0  2  0  0  0
  -28.6727  -13.0960   20.9800 C   0  0  0  0  0  0
  -25.2456  -13.8245   20.5730 C   0  0  0  0  0  0
  -24.1717  -13.0499   20.9189 C   0  0  0  0  0  0
  -24.6316  -11.6977   20.8710 C   0  0  0  0  0  0
  -23.9055  -10.4333   21.0433 C   0  0  0  0  0  0
  -24.3626   -9.4225   21.9188 C   0  0  0  0  0  0
  -23.6301   -8.2265   22.0759 C   0  0  0  0  0  0
  -22.4262   -8.0307   21.3592 C   0  0  0  0  0  0
  -21.9919   -9.0282   20.4675 C   0  0  0  0  0  0
  -22.7259  -10.2159   20.3068 C   0  0  0  0  0  0
  -21.6864   -6.0723   22.5285 C   0  0  0  0  0  0
  -21.4009   -6.5599   23.8215 C   0  0  0  0  0  0
  -21.3669   -5.6760   24.9174 C   0  0  0  0  0  0
  -21.6078   -4.3030   24.7234 C   0  0  0  0  0  0
  -21.8828   -3.8122   23.4351 C   0  0  0  0  0  0
  -21.9188   -4.6949   22.3405 C   0  0  0  0  0  0
  -22.7739  -13.5307   21.1873 C   0  0  0  0  0  0
  -22.1676   -4.2133   21.0990 F   0  0  0  0  0  0
  -21.5640   -3.4503   25.7729 F   0  0  0  0  0  0
  -29.9998  -13.4406   20.4370 N   0  0  0  0  0  0
  -26.2860  -12.9452   20.3203 N   0  0  0  0  0  0
  -25.9208  -11.6600   20.5611 N   0  0  0  0  0  0
  -22.0349  -12.8295   22.0410 N   0  0  0  0  0  0
  -25.4206  -15.1991   20.4349 N   0  0  0  0  0  0
  -31.8017  -14.7394   20.0389 O   0  0  0  0  0  0
  -21.6665   -6.8870   21.4251 O   0  0  0  0  0  0
  -22.3435  -14.5651   20.6735 O   0  0  0  0  0  0
  -24.6251  -31.8587   23.2021 C   0  0  0  0  0  0
  -25.9146  -32.4750   23.8324 C   0  0  1  0  0  0
  -27.2538  -27.3693   20.1049 C   0  0  0  0  0  0
  -25.6001  -33.8546   24.2301 N   0  0  0  0  0  0
  -23.4195  -30.4800   21.5385 C   0  0  2  0  0  0
  -24.8755  -28.9379   20.1073 C   0  0  0  0  0  0
  -22.7487  -29.4631   22.4921 C   0  0  0  0  0  0
  -18.0335  -28.1313   22.8472 C   0  0  0  0  0  0
  -24.1488  -36.7268   23.2619 C   0  0  0  0  0  0
  -25.9548  -30.7988   21.3756 C   0  0  0  0  0  0
  -26.0375  -29.4299   20.7214 C   0  0  0  0  0  0
  -27.2287  -28.6534   20.7174 C   0  0  0  0  0  0
  -26.0804  -26.9233   19.4565 C   0  0  0  0  0  0
  -24.9004  -27.6865   19.4657 C   0  0  0  0  0  0
  -23.6395  -29.8102   20.1546 C   0  0  0  0  0  0
  -25.4099  -36.3068   24.0338 C   0  0  1  0  0  0
  -20.5919  -28.3718   23.1330 C   0  0  2  0  0  0
  -20.6872  -26.9444   22.5452 C   0  0  0  0  0  0
  -19.5894  -26.6403   21.5201 C   0  0  0  0  0  0
  -18.2037  -26.7904   22.1560 C   0  0  0  0  0  0
  -19.1541  -28.8805   23.2905 C   0  0  0  0  0  0
  -18.9413  -30.1378   23.8914 C   0  0  0  0  0  0
  -17.6411  -30.6497   24.0580 C   0  0  0  0  0  0
  -25.9030  -34.9426   23.5101 C   0  0  0  0  0  0
  -16.5345  -29.9005   23.6266 C   0  0  0  0  0  0
  -16.7309  -28.6428   23.0295 C   0  0  0  0  0  0
  -26.4562  -31.6540   25.0652 C   0  0  0  0  0  0
  -25.3849  -31.3666   26.1428 C   0  0  0  0  0  0
  -27.0423  -30.2962   24.6109 C   0  0  0  0  0  0
  -27.6160  -32.4246   25.7416 C   0  0  0  0  0  0
  -27.5583  -37.1772   24.8469 C   0  0  0  0  0  0
  -21.4162  -29.3135   22.3734 N   0  0  0  0  0  0
  -26.4283  -37.3757   23.9416 N   0  0  0  0  0  0
  -24.6847  -31.0645   22.0969 N   0  0  0  0  0  0
  -23.4200  -28.8114   23.2963 O   0  0  0  0  0  0
  -28.3544  -26.5158   20.1394 O   0  0  0  0  0  0
  -26.5575  -34.8913   22.4646 O   0  0  0  0  0  0
  -23.5450  -32.1369   23.7419 O   0  0  0  0  0  0
  -28.7011  -18.8411   21.5353 C   0  0  0  0  0  0
  -28.2663  -20.1848   21.7565 C   0  0  0  0  0  0
  -29.8778  -21.0004   20.1901 C   0  0  0  0  0  0
  -29.7576  -18.5308   20.6423 C   0  0  0  0  0  0
  -28.8311  -21.3238   21.0985 C   0  0  0  0  0  0
  -30.3135  -19.6569   19.9679 C   0  0  0  0  0  0
  -27.1429  -22.7750   22.1543 C   0  0  0  0  0  0
  -29.7076  -15.8047   22.4559 C   0  0  0  0  0  0
  -30.3826  -17.0982   20.3503 C   0  0  0  0  0  0
  -28.6844  -23.8586   20.4572 C   0  0  0  0  0  0
  -28.1561  -25.2962   20.9381 C   0  0  0  0  0  0
  -28.3630  -22.6799   21.3426 N   0  0  0  0  0  0
  -30.0318  -15.7649   21.0145 N   0  0  0  0  0  0
  -31.3136  -19.4513   19.0713 F   0  0  0  0  0  0
  -31.4639  -12.5343   19.1335 H   0  0  0  0  0  0
  -30.3642  -11.4251   19.9019 H   0  0  0  0  0  0
  -29.7715  -11.7815   17.4738 H   0  0  0  0  0  0
  -29.6478  -13.5016   17.7485 H   0  0  0  0  0  0
  -27.8583  -11.3097   18.8460 H   0  0  0  0  0  0
  -27.3771  -12.5961   17.7644 H   0  0  0  0  0  0
  -27.6634  -14.2721   19.5155 H   0  0  0  0  0  0
  -28.6860  -12.0846   21.3920 H   0  0  0  0  0  0
  -28.3525  -13.7386   21.7943 H   0  0  0  0  0  0
  -25.2783   -9.5688   22.4768 H   0  0  0  0  0  0
  -24.0038   -7.4654   22.7476 H   0  0  0  0  0  0
  -21.0845   -8.8845   19.8960 H   0  0  0  0  0  0
  -22.3771  -10.9711   19.6173 H   0  0  0  0  0  0
  -21.2001   -7.6111   23.9713 H   0  0  0  0  0  0
  -21.1480   -6.0477   25.9082 H   0  0  0  0  0  0
  -22.0585   -2.7580   23.2866 H   0  0  0  0  0  0
  -22.3978  -11.9994   22.4873 H   0  0  0  0  0  0
  -21.0975  -13.1311   22.2647 H   0  0  0  0  0  0
  -24.6652  -15.8625   20.5720 H   0  0  0  0  0  0
  -26.2961  -15.6430   20.1864 H   0  0  0  0  0  0
  -26.7235  -32.5393   23.1083 H   0  0  0  0  0  0
  -25.0329  -33.9659   25.0584 H   0  0  0  0  0  0
  -22.7116  -31.2977   21.3919 H   0  0  0  0  0  0
  -23.3754  -35.9599   23.3250 H   0  0  0  0  0  0
  -24.3608  -36.8884   22.2046 H   0  0  0  0  0  0
  -23.7223  -37.6451   23.6642 H   0  0  0  0  0  0
  -26.0887  -31.5649   20.6133 H   0  0  0  0  0  0
  -26.8330  -30.8373   22.0095 H   0  0  0  0  0  0
  -28.1182  -29.0149   21.2155 H   0  0  0  0  0  0
  -26.0881  -25.9647   18.9549 H   0  0  0  0  0  0
  -24.0178  -27.3115   18.9635 H   0  0  0  0  0  0
  -23.7568  -30.5805   19.3913 H   0  0  0  0  0  0
  -22.7635  -29.2329   19.8503 H   0  0  0  0  0  0
  -25.1262  -36.1919   25.0828 H   0  0  0  0  0  0
  -20.9967  -28.3348   24.1485 H   0  0  0  0  0  0
  -20.5758  -26.2306   23.3625 H   0  0  0  0  0  0
  -21.6777  -26.7528   22.1307 H   0  0  0  0  0  0
  -19.7077  -25.6313   21.1215 H   0  0  0  0  0  0
  -19.6887  -27.3161   20.6704 H   0  0  0  0  0  0
  -17.4374  -26.6742   21.3897 H   0  0  0  0  0  0
  -18.0423  -25.9948   22.8838 H   0  0  0  0  0  0
  -19.7885  -30.7161   24.2298 H   0  0  0  0  0  0
  -17.4912  -31.6127   24.5194 H   0  0  0  0  0  0
  -15.5322  -30.2886   23.7487 H   0  0  0  0  0  0
  -15.8690  -28.0793   22.6954 H   0  0  0  0  0  0
  -24.6080  -30.6944   25.7784 H   0  0  0  0  0  0
  -24.9002  -32.2811   26.4857 H   0  0  0  0  0  0
  -25.8244  -30.8888   27.0203 H   0  0  0  0  0  0
  -26.2995  -29.6649   24.1250 H   0  0  0  0  0  0
  -27.4230  -29.7266   25.4599 H   0  0  0  0  0  0
  -27.8815  -30.4158   23.9258 H   0  0  0  0  0  0
  -27.2834  -33.3556   26.2025 H   0  0  0  0  0  0
  -28.3992  -32.6780   25.0249 H   0  0  0  0  0  0
  -28.0842  -31.8337   26.5305 H   0  0  0  0  0  0
  -28.2585  -38.0095   24.7533 H   0  0  0  0  0  0
  -28.1083  -36.2604   24.6253 H   0  0  0  0  0  0
  -27.2298  -37.1380   25.8877 H   0  0  0  0  0  0
  -20.9332  -29.8958   21.7036 H   0  0  0  0  0  0
  -26.0169  -38.2815   24.1479 H   0  0  0  0  0  0
  -28.1902  -18.0689   22.0806 H   0  0  0  0  0  0
  -27.4642  -20.2905   22.4707 H   0  0  0  0  0  0
  -30.3817  -21.7837   19.6413 H   0  0  0  0  0  0
  -26.9067  -23.7833   22.4811 H   0  0  0  0  0  0
  -27.2196  -22.2411   23.0997 H   0  0  0  0  0  0
  -26.2798  -22.4020   21.5901 H   0  0  0  0  0  0
  -30.3933  -16.4452   23.0170 H   0  0  0  0  0  0
  -29.7852  -14.8151   22.9172 H   0  0  0  0  0  0
  -28.6822  -16.1330   22.6352 H   0  0  0  0  0  0
  -31.4525  -17.2481   20.5218 H   0  0  0  0  0  0
  -30.3105  -16.9510   19.2643 H   0  0  0  0  0  0
  -29.7666  -23.9003   20.3117 H   0  0  0  0  0  0
  -28.2633  -23.6597   19.4745 H   0  0  0  0  0  0
  -28.5813  -25.5087   21.9179 H   0  0  0  0  0  0
  -27.0792  -25.2143   21.0853 H   0  0  0  0  0  0
  1 25  1  0  0  0
  1 30  2  0  0  0
  1 83  1  0  0  0
  2  3  1  0  0  0
  2 25  1  0  0  0
  2 85  1  0  0  0
  2 86  1  0  0  0
  3  4  1  0  0  0
  3 87  1  0  0  0
  3 88  1  0  0  0
  4  5  1  0  0  0
  4 89  1  0  0  0
  4 90  1  0  0  0
  5  6  1  0  0  0
  5 26  1  0  0  0
  5 91  1  0  0  0
  6 25  1  0  0  0
  6 92  1  0  0  0
  6 93  1  0  0  0
  7  8  2  0  0  0
  7 26  1  0  0  0
  7 29  1  0  0  0
  8  9  1  0  0  0
  8 22  1  0  0  0
  9 10  1  0  0  0
  9 27  2  0  0  0
 10 11  2  0  0  0
 10 15  1  0  0  0
 11 12  1  0  0  0
 11 94  1  0  0  0
 12 13  2  0  0  0
 12 95  1  0  0  0
 13 14  1  0  0  0
 13 31  1  0  0  0
 14 15  2  0  0  0
 14 96  1  0  0  0
 15 97  1  0  0  0
 16 17  2  0  0  0
 16 21  1  0  0  0
 16 31  1  0  0  0
 17 18  1  0  0  0
 17 98  1  0  0  0
 18 19  2  0  0  0
 18 99  1  0  0  0
 19 20  1  0  0  0
 19 24  1  0  0  0
 20 21  2  0  0  0
 20100  1  0  0  0
 21 23  1  0  0  0
 22 28  1  0  0  0
 22 32  2  0  0  0
 26 27  1  0  0  0
 28101  1  0  0  0
 28102  1  0  0  0
 29103  1  0  0  0
 29104  1  0  0  0
 33 34  1  0  0  0
 33 66  1  0  0  0
 33 70  2  0  0  0
 34 36  1  0  0  0
 34 59  1  0  0  0
 34105  1  0  0  0
 35 44  2  0  0  0
 35 45  1  0  0  0
 35 68  1  0  0  0
 36 56  1  0  0  0
 36106  1  0  0  0
 37 39  1  0  0  0
 37 47  1  0  0  0
 37 66  1  0  0  0
 37107  1  0  0  0
 38 43  2  0  0  0
 38 46  1  0  0  0
 38 47  1  0  0  0
 39 64  1  0  0  0
 39 67  2  0  0  0
 40 52  1  0  0  0
 40 53  2  0  0  0
 40 58  1  0  0  0
 41108  1  0  0  0
 41109  1  0  0  0
 41110  1  0  0  0
 41 48  1  0  0  0
 42 43  1  0  0  0
 42 66  1  0  0  0
 42111  1  0  0  0
 42112  1  0  0  0
 43 44  1  0  0  0
 44113  1  0  0  0
 45 46  2  0  0  0
 45114  1  0  0  0
 46115  1  0  0  0
 47116  1  0  0  0
 47117  1  0  0  0
 48 56  1  0  0  0
 48 65  1  0  0  0
 48118  1  0  0  0
 49 50  1  0  0  0
 49 53  1  0  0  0
 49 64  1  0  0  0
 49119  1  0  0  0
 50 51  1  0  0  0
 50120  1  0  0  0
 50121  1  0  0  0
 51 52  1  0  0  0
 51122  1  0  0  0
 51123  1  0  0  0
 52124  1  0  0  0
 52125  1  0  0  0
 53 54  1  0  0  0
 54 55  2  0  0  0
 54126  1  0  0  0
 55 57  1  0  0  0
 55127  1  0  0  0
 56 69  2  0  0  0
 57 58  2  0  0  0
 57128  1  0  0  0
 58129  1  0  0  0
 59 60  1  0  0  0
 59 61  1  0  0  0
 59 62  1  0  0  0
 60130  1  0  0  0
 60131  1  0  0  0
 60132  1  0  0  0
 61133  1  0  0  0
 61134  1  0  0  0
 61135  1  0  0  0
 62136  1  0  0  0
 62137  1  0  0  0
 62138  1  0  0  0
 63 65  1  0  0  0
 63139  1  0  0  0
 63140  1  0  0  0
 63141  1  0  0  0
 64142  1  0  0  0
 65143  1  0  0  0
 68 81  1  0  0  0
 71 72  2  0  0  0
 71 74  1  0  0  0
 71144  1  0  0  0
 72 75  1  0  0  0
 72145  1  0  0  0
 73 75  2  0  0  0
 73 76  1  0  0  0
 73146  1  0  0  0
 74 76  2  0  0  0
 74 79  1  0  0  0
 75 82  1  0  0  0
 76 84  1  0  0  0
 77 82  1  0  0  0
 77147  1  0  0  0
 77148  1  0  0  0
 77149  1  0  0  0
 78 83  1  0  0  0
 78150  1  0  0  0
 78151  1  0  0  0
 78152  1  0  0  0
 79 83  1  0  0  0
 79153  1  0  0  0
 79154  1  0  0  0
 80 81  1  0  0  0
 80 82  1  0  0  0
 80155  1  0  0  0
 80156  1  0  0  0
 81157  1  0  0  0
 81158  1  0  0  0
M  ISO  4   1 100  68 101  81 101  83 100
M  END
> <chiral flag>
0

> <version>
0

> <s_m_source_file>
/data/baiqing/PycharmProjects/Reinvent-master-3.2/result/LINK_invent/BTK/process_docking_weight1_custom_product_contain_oxygen_bond_distance_aromatic_linkinvent_7_9_3/rearranged_h_0021.sdf

> <i_m_source_file_index>
22

> <r_mmod_Potential_Energy-OPLS-2005>
257.834136962891

> <r_mmod_Stretch_Energy-OPLS-2005>
95.4708099365234

> <r_mmod_Bend_Energy-OPLS-2005>
176.485427856445

> <r_mmod_Torsional_Energy-OPLS-2005>
264.584381103516

> <r_mmod_Improper_Torsional_Energy-OPLS-2005>
9.88671112060547

> <r_mmod_Van_der_Waal_Energy-OPLS-2005>
171.807647705078

> <r_mmod_Electrostatic_Energy-OPLS-2005>
-288.885650634766

> <r_mmod_Solvation_Energy-OPLS-2005>
-211.81428527832

> <b_mmod_Minimization_Converged-OPLS-2005>
0

> <r_mmod_RMS_Derivative-OPLS-2005>
7.94141578674316

$$$$
22
                    3D
 Structure written by MMmdl.
162171  0  0  1  0            999 V2000
  -30.6654  -14.6456   20.5209 C   0  0  0  0  0  0
  -30.4245  -12.3998   19.4660 C   0  0  0  0  0  0
  -29.5031  -12.4982   18.2296 C   0  0  0  0  0  0
  -28.0286  -12.3303   18.6419 C   0  0  0  0  0  0
  -27.6483  -13.2155   19.8580 C   0  0  2  0  0  0
  -28.6906  -13.0839   20.9896 C   0  0  0  0  0  0
  -25.2538  -13.8173   20.5670 C   0  0  0  0  0  0
  -24.1816  -13.0434   20.9180 C   0  0  0  0  0  0
  -24.6385  -11.6900   20.8733 C   0  0  0  0  0  0
  -23.9050  -10.4280   21.0392 C   0  0  0  0  0  0
  -24.3609   -9.4198   21.9173 C   0  0  0  0  0  0
  -23.6288   -8.2237   22.0754 C   0  0  0  0  0  0
  -22.4275   -8.0268   21.3539 C   0  0  0  0  0  0
  -21.9903   -9.0237   20.4638 C   0  0  0  0  0  0
  -22.7225  -10.2115   20.3041 C   0  0  0  0  0  0
  -21.6852   -6.0712   22.5264 C   0  0  0  0  0  0
  -21.4014   -6.5625   23.8196 C   0  0  0  0  0  0
  -21.3661   -5.6779   24.9164 C   0  0  0  0  0  0
  -21.6054   -4.3040   24.7218 C   0  0  0  0  0  0
  -21.8826   -3.8130   23.4343 C   0  0  0  0  0  0
  -21.9196   -4.6939   22.3398 C   0  0  0  0  0  0
  -22.7836  -13.5223   21.1827 C   0  0  0  0  0  0
  -22.1666   -4.2119   21.0972 F   0  0  0  0  0  0
  -21.5634   -3.4529   25.7738 F   0  0  0  0  0  0
  -30.0013  -13.4414   20.4284 N   0  0  0  0  0  0
  -26.2962  -12.9352   20.3302 N   0  0  0  0  0  0
  -25.9310  -11.6497   20.5761 N   0  0  0  0  0  0
  -22.0481  -12.8211   22.0377 N   0  0  0  0  0  0
  -25.4238  -15.1891   20.4086 N   0  0  0  0  0  0
  -31.8159  -14.7376   20.0814 O   0  0  0  0  0  0
  -21.6653   -6.8858   21.4230 O   0  0  0  0  0  0
  -22.3507  -14.5508   20.6634 O   0  0  0  0  0  0
  -24.6240  -31.8627   23.2036 C   0  0  0  0  0  0
  -25.9095  -32.4786   23.8353 C   0  0  1  0  0  0
  -27.2130  -27.3329   20.1340 C   0  0  0  0  0  0
  -25.5925  -33.8593   24.2271 N   0  0  0  0  0  0
  -23.4140  -30.4858   21.5452 C   0  0  2  0  0  0
  -24.8596  -28.9380   20.1093 C   0  0  0  0  0  0
  -22.7461  -29.4634   22.4947 C   0  0  0  0  0  0
  -18.0283  -28.1406   22.8509 C   0  0  0  0  0  0
  -24.1467  -36.7261   23.2634 C   0  0  0  0  0  0
  -25.9528  -30.7994   21.3684 C   0  0  0  0  0  0
  -26.0272  -29.4268   20.7111 C   0  0  0  0  0  0
  -27.2138  -28.6376   20.7084 C   0  0  0  0  0  0
  -26.0283  -26.8800   19.5233 C   0  0  0  0  0  0
  -24.8607  -27.6689   19.5060 C   0  0  0  0  0  0
  -23.6283  -29.8198   20.1581 C   0  0  0  0  0  0
  -25.4098  -36.3070   24.0329 C   0  0  1  0  0  0
  -20.5890  -28.3689   23.1294 C   0  0  2  0  0  0
  -20.6777  -26.9415   22.5426 C   0  0  0  0  0  0
  -19.5757  -26.6390   21.5234 C   0  0  0  0  0  0
  -18.1919  -26.7954   22.1619 C   0  0  0  0  0  0
  -19.1542  -28.8852   23.2896 C   0  0  0  0  0  0
  -18.9465  -30.1466   23.8906 C   0  0  0  0  0  0
  -17.6483  -30.6611   24.0585 C   0  0  0  0  0  0
  -25.9062  -34.9460   23.5091 C   0  0  0  0  0  0
  -16.5363  -29.9117   23.6349 C   0  0  0  0  0  0
  -16.7271  -28.6539   23.0370 C   0  0  0  0  0  0
  -26.4508  -31.6612   25.0722 C   0  0  0  0  0  0
  -25.3753  -31.3803   26.1463 C   0  0  0  0  0  0
  -27.0338  -30.3035   24.6162 C   0  0  0  0  0  0
  -27.6034  -32.4376   25.7509 C   0  0  0  0  0  0
  -27.5577  -37.1770   24.8454 C   0  0  0  0  0  0
  -21.4172  -29.3032   22.3685 N   0  0  0  0  0  0
  -26.4258  -37.3781   23.9445 N   0  0  0  0  0  0
  -24.6819  -31.0642   22.0964 N   0  0  0  0  0  0
  -23.4205  -28.8200   23.3026 O   0  0  0  0  0  0
  -28.3296  -26.4966   20.1366 O   0  0  0  0  0  0
  -26.5608  -34.8926   22.4656 O   0  0  0  0  0  0
  -23.5401  -32.1426   23.7367 O   0  0  0  0  0  0
  -30.6061  -19.3131   21.0576 C   0  0  0  0  0  0
  -28.5552  -19.1673   19.8180 C   0  0  0  0  0  0
  -30.4064  -20.7121   21.1951 C   0  0  0  0  0  0
  -28.3593  -20.5824   19.9524 C   0  0  0  0  0  0
  -29.7062  -18.5004   20.3282 C   0  0  0  0  0  0
  -29.3176  -21.4095   20.5990 C   0  0  0  0  0  0
  -30.1305  -23.8351   18.6001 C   0  0  0  0  0  0
  -28.6040  -23.9427   18.6386 C   0  0  0  0  0  0
  -30.5354  -23.3812   20.0089 C   0  0  0  0  0  0
  -28.2608  -23.7884   20.1210 C   0  0  2  0  0  0
  -29.3789  -16.0324   22.1163 C   0  0  0  0  0  0
  -30.0957  -17.0304   19.9109 C   0  0  0  0  0  0
  -28.2203  -25.2152   20.8629 C   0  0  0  0  0  0
  -29.3170  -22.8549   20.6253 N   0  0  0  0  0  0
  -29.9418  -15.7994   20.7815 N   0  0  0  0  0  0
  -31.4676  -12.5013   19.1626 H   0  0  0  0  0  0
  -30.3489  -11.4110   19.9226 H   0  0  0  0  0  0
  -29.7731  -11.7373   17.4952 H   0  0  0  0  0  0
  -29.6408  -13.4625   17.7373 H   0  0  0  0  0  0
  -27.8786  -11.2794   18.8935 H   0  0  0  0  0  0
  -27.3689  -12.5353   17.7987 H   0  0  0  0  0  0
  -27.6632  -14.2485   19.5079 H   0  0  0  0  0  0
  -28.7144  -12.0644   21.3768 H   0  0  0  0  0  0
  -28.4117  -13.6975   21.8398 H   0  0  0  0  0  0
  -25.2760   -9.5672   22.4733 H   0  0  0  0  0  0
  -23.9991   -7.4629   22.7473 H   0  0  0  0  0  0
  -21.0839   -8.8743   19.8943 H   0  0  0  0  0  0
  -22.3687  -10.9642   19.6135 H   0  0  0  0  0  0
  -21.2007   -7.6131   23.9684 H   0  0  0  0  0  0
  -21.1479   -6.0514   25.9057 H   0  0  0  0  0  0
  -22.0609   -2.7589   23.2850 H   0  0  0  0  0  0
  -22.4141  -11.9905   22.4788 H   0  0  0  0  0  0
  -21.1065  -13.1178   22.2519 H   0  0  0  0  0  0
  -24.6557  -15.8416   20.5214 H   0  0  0  0  0  0
  -26.2801  -15.6324   20.1007 H   0  0  0  0  0  0
  -26.7161  -32.5446   23.1104 H   0  0  0  0  0  0
  -25.0136  -33.9771   25.0453 H   0  0  0  0  0  0
  -22.7074  -31.3074   21.4041 H   0  0  0  0  0  0
  -23.3747  -35.9566   23.3289 H   0  0  0  0  0  0
  -24.3584  -36.8898   22.2049 H   0  0  0  0  0  0
  -23.7194  -37.6445   23.6677 H   0  0  0  0  0  0
  -26.0826  -31.5669   20.6033 H   0  0  0  0  0  0
  -26.8322  -30.8453   21.9978 H   0  0  0  0  0  0
  -28.1158  -29.0126   21.1721 H   0  0  0  0  0  0
  -26.0047  -25.8998   19.0684 H   0  0  0  0  0  0
  -23.9624  -27.2867   19.0401 H   0  0  0  0  0  0
  -23.7447  -30.6006   19.4046 H   0  0  0  0  0  0
  -22.7457  -29.2512   19.8566 H   0  0  0  0  0  0
  -25.1285  -36.1898   25.0818 H   0  0  0  0  0  0
  -20.9987  -28.3232   24.1415 H   0  0  0  0  0  0
  -20.5675  -26.2297   23.3623 H   0  0  0  0  0  0
  -21.6640  -26.7469   22.1206 H   0  0  0  0  0  0
  -19.6933  -25.6300   21.1246 H   0  0  0  0  0  0
  -19.6693  -27.3205   20.6770 H   0  0  0  0  0  0
  -17.4212  -26.6736   21.3984 H   0  0  0  0  0  0
  -18.0280  -26.0098   22.9007 H   0  0  0  0  0  0
  -19.7961  -30.7288   24.2233 H   0  0  0  0  0  0
  -17.5056  -31.6298   24.5204 H   0  0  0  0  0  0
  -15.5364  -30.3050   23.7690 H   0  0  0  0  0  0
  -15.8669  -28.0889   22.7062 H   0  0  0  0  0  0
  -24.5878  -30.7212   25.7822 H   0  0  0  0  0  0
  -24.9008  -32.3000   26.4871 H   0  0  0  0  0  0
  -25.8065  -30.8992   27.0249 H   0  0  0  0  0  0
  -26.2913  -29.6795   24.1163 H   0  0  0  0  0  0
  -27.4042  -29.7277   25.4654 H   0  0  0  0  0  0
  -27.8787  -30.4339   23.9397 H   0  0  0  0  0  0
  -27.2605  -33.3674   26.2059 H   0  0  0  0  0  0
  -28.3852  -32.6953   25.0358 H   0  0  0  0  0  0
  -28.0696  -31.8541   26.5454 H   0  0  0  0  0  0
  -28.2526  -38.0129   24.7579 H   0  0  0  0  0  0
  -28.1121  -36.2663   24.6144 H   0  0  0  0  0  0
  -27.2334  -37.1268   25.8861 H   0  0  0  0  0  0
  -20.9319  -29.8768   21.6922 H   0  0  0  0  0  0
  -26.0118  -38.2825   24.1524 H   0  0  0  0  0  0
  -31.5158  -18.8825   21.4566 H   0  0  0  0  0  0
  -27.8335  -18.6020   19.2443 H   0  0  0  0  0  0
  -31.1609  -21.2750   21.7255 H   0  0  0  0  0  0
  -27.4911  -21.0272   19.4881 H   0  0  0  0  0  0
  -30.5984  -24.7878   18.3513 H   0  0  0  0  0  0
  -30.4417  -23.1028   17.8514 H   0  0  0  0  0  0
  -28.1670  -23.1213   18.0702 H   0  0  0  0  0  0
  -28.2240  -24.8667   18.2018 H   0  0  0  0  0  0
  -30.8961  -24.2227   20.5994 H   0  0  0  0  0  0
  -31.3648  -22.6753   19.9502 H   0  0  0  0  0  0
  -27.2734  -23.3298   20.2110 H   0  0  0  0  0  0
  -28.2946  -15.9231   22.0905 H   0  0  0  0  0  0
  -29.6047  -17.0282   22.4961 H   0  0  0  0  0  0
  -29.7768  -15.3302   22.8526 H   0  0  0  0  0  0
  -31.1439  -17.1002   19.6123 H   0  0  0  0  0  0
  -29.5670  -16.8138   18.9817 H   0  0  0  0  0  0
  -29.0359  -25.2458   21.5865 H   0  0  0  0  0  0
  -27.3285  -25.2396   21.4911 H   0  0  0  0  0  0
  1 25  1  0  0  0
  1 30  2  0  0  0
  1 85  1  0  0  0
  2  3  1  0  0  0
  2 25  1  0  0  0
  2 86  1  0  0  0
  2 87  1  0  0  0
  3  4  1  0  0  0
  3 88  1  0  0  0
  3 89  1  0  0  0
  4  5  1  0  0  0
  4 90  1  0  0  0
  4 91  1  0  0  0
  5  6  1  0  0  0
  5 26  1  0  0  0
  5 92  1  0  0  0
  6 25  1  0  0  0
  6 93  1  0  0  0
  6 94  1  0  0  0
  7  8  2  0  0  0
  7 26  1  0  0  0
  7 29  1  0  0  0
  8  9  1  0  0  0
  8 22  1  0  0  0
  9 10  1  0  0  0
  9 27  2  0  0  0
 10 11  2  0  0  0
 10 15  1  0  0  0
 11 12  1  0  0  0
 11 95  1  0  0  0
 12 13  2  0  0  0
 12 96  1  0  0  0
 13 14  1  0  0  0
 13 31  1  0  0  0
 14 15  2  0  0  0
 14 97  1  0  0  0
 15 98  1  0  0  0
 16 17  2  0  0  0
 16 21  1  0  0  0
 16 31  1  0  0  0
 17 18  1  0  0  0
 17 99  1  0  0  0
 18 19  2  0  0  0
 18100  1  0  0  0
 19 20  1  0  0  0
 19 24  1  0  0  0
 20 21  2  0  0  0
 20101  1  0  0  0
 21 23  1  0  0  0
 22 28  1  0  0  0
 22 32  2  0  0  0
 26 27  1  0  0  0
 28102  1  0  0  0
 28103  1  0  0  0
 29104  1  0  0  0
 29105  1  0  0  0
 33 34  1  0  0  0
 33 66  1  0  0  0
 33 70  2  0  0  0
 34 36  1  0  0  0
 34 59  1  0  0  0
 34106  1  0  0  0
 35 44  2  0  0  0
 35 45  1  0  0  0
 35 68  1  0  0  0
 36 56  1  0  0  0
 36107  1  0  0  0
 37 39  1  0  0  0
 37 47  1  0  0  0
 37 66  1  0  0  0
 37108  1  0  0  0
 38 43  2  0  0  0
 38 46  1  0  0  0
 38 47  1  0  0  0
 39 64  1  0  0  0
 39 67  2  0  0  0
 40 52  1  0  0  0
 40 53  2  0  0  0
 40 58  1  0  0  0
 41109  1  0  0  0
 41110  1  0  0  0
 41111  1  0  0  0
 41 48  1  0  0  0
 42 43  1  0  0  0
 42 66  1  0  0  0
 42112  1  0  0  0
 42113  1  0  0  0
 43 44  1  0  0  0
 44114  1  0  0  0
 45 46  2  0  0  0
 45115  1  0  0  0
 46116  1  0  0  0
 47117  1  0  0  0
 47118  1  0  0  0
 48 56  1  0  0  0
 48 65  1  0  0  0
 48119  1  0  0  0
 49 50  1  0  0  0
 49 53  1  0  0  0
 49 64  1  0  0  0
 49120  1  0  0  0
 50 51  1  0  0  0
 50121  1  0  0  0
 50122  1  0  0  0
 51 52  1  0  0  0
 51123  1  0  0  0
 51124  1  0  0  0
 52125  1  0  0  0
 52126  1  0  0  0
 53 54  1  0  0  0
 54 55  2  0  0  0
 54127  1  0  0  0
 55 57  1  0  0  0
 55128  1  0  0  0
 56 69  2  0  0  0
 57 58  2  0  0  0
 57129  1  0  0  0
 58130  1  0  0  0
 59 60  1  0  0  0
 59 61  1  0  0  0
 59 62  1  0  0  0
 60131  1  0  0  0
 60132  1  0  0  0
 60133  1  0  0  0
 61134  1  0  0  0
 61135  1  0  0  0
 61136  1  0  0  0
 62137  1  0  0  0
 62138  1  0  0  0
 62139  1  0  0  0
 63 65  1  0  0  0
 63140  1  0  0  0
 63141  1  0  0  0
 63142  1  0  0  0
 64143  1  0  0  0
 65144  1  0  0  0
 68 83  1  0  0  0
 71 73  2  0  0  0
 71 75  1  0  0  0
 71145  1  0  0  0
 72 74  1  0  0  0
 72 75  2  0  0  0
 72146  1  0  0  0
 73 76  1  0  0  0
 73147  1  0  0  0
 74 76  2  0  0  0
 74148  1  0  0  0
 75 82  1  0  0  0
 76 84  1  0  0  0
 77 78  1  0  0  0
 77 79  1  0  0  0
 77149  1  0  0  0
 77150  1  0  0  0
 78 80  1  0  0  0
 78151  1  0  0  0
 78152  1  0  0  0
 79 84  1  0  0  0
 79153  1  0  0  0
 79154  1  0  0  0
 80 83  1  0  0  0
 80 84  1  0  0  0
 80155  1  0  0  0
 81 85  1  0  0  0
 81156  1  0  0  0
 81157  1  0  0  0
 81158  1  0  0  0
 82 85  1  0  0  0
 82159  1  0  0  0
 82160  1  0  0  0
 83161  1  0  0  0
 83162  1  0  0  0
M  ISO  4   1 100  68 101  83 101  85 100
M  END
> <chiral flag>
0

> <version>
0

> <s_m_source_file>
/data/baiqing/PycharmProjects/Reinvent-master-3.2/result/LINK_invent/BTK/process_docking_weight1_custom_product_contain_oxygen_bond_distance_aromatic_linkinvent_7_9_3/rearranged_h_0021.sdf

> <i_m_source_file_index>
23

> <r_mmod_Potential_Energy-OPLS-2005>
337.538726806641

> <r_mmod_Stretch_Energy-OPLS-2005>
84.6465835571289

> <r_mmod_Bend_Energy-OPLS-2005>
192.555419921875

> <r_mmod_Torsional_Energy-OPLS-2005>
378.084869384766

> <r_mmod_Improper_Torsional_Energy-OPLS-2005>
16.5678024291992

> <r_mmod_Van_der_Waal_Energy-OPLS-2005>
146.355377197266

> <r_mmod_Electrostatic_Energy-OPLS-2005>
-317.490356445312

> <r_mmod_Solvation_Energy-OPLS-2005>
-208.270156860352

> <b_mmod_Minimization_Converged-OPLS-2005>
0

> <r_mmod_RMS_Derivative-OPLS-2005>
3.93715333938599

$$$$
23
                    3D
 Structure written by MMmdl.
155164  0  0  1  0            999 V2000
  -30.6217  -14.6357   20.5067 C   0  0  0  0  0  0
  -30.4415  -12.3908   19.4512 C   0  0  0  0  0  0
  -29.5084  -12.5091   18.2249 C   0  0  0  0  0  0
  -28.0307  -12.3492   18.6365 C   0  0  0  0  0  0
  -27.6559  -13.2158   19.8686 C   0  0  2  0  0  0
  -28.7018  -13.0600   20.9960 C   0  0  0  0  0  0
  -25.2561  -13.8160   20.5686 C   0  0  0  0  0  0
  -24.1822  -13.0424   20.9161 C   0  0  0  0  0  0
  -24.6399  -11.6899   20.8727 C   0  0  0  0  0  0
  -23.9067  -10.4284   21.0398 C   0  0  0  0  0  0
  -24.3617   -9.4204   21.9180 C   0  0  0  0  0  0
  -23.6290   -8.2241   22.0754 C   0  0  0  0  0  0
  -22.4271   -8.0279   21.3544 C   0  0  0  0  0  0
  -21.9907   -9.0251   20.4644 C   0  0  0  0  0  0
  -22.7237  -10.2129   20.3050 C   0  0  0  0  0  0
  -21.6853   -6.0735   22.5279 C   0  0  0  0  0  0
  -21.4013   -6.5639   23.8212 C   0  0  0  0  0  0
  -21.3660   -5.6791   24.9174 C   0  0  0  0  0  0
  -21.6045   -4.3056   24.7223 C   0  0  0  0  0  0
  -21.8819   -3.8147   23.4345 C   0  0  0  0  0  0
  -21.9192   -4.6963   22.3401 C   0  0  0  0  0  0
  -22.7847  -13.5221   21.1838 C   0  0  0  0  0  0
  -22.1661   -4.2150   21.0979 F   0  0  0  0  0  0
  -21.5629   -3.4539   25.7738 F   0  0  0  0  0  0
  -30.0185  -13.4066   20.4354 N   0  0  0  0  0  0
  -26.3008  -12.9348   20.3358 N   0  0  0  0  0  0
  -25.9334  -11.6502   20.5770 N   0  0  0  0  0  0
  -22.0500  -12.8212   22.0404 N   0  0  0  0  0  0
  -25.4251  -15.1882   20.4153 N   0  0  0  0  0  0
  -31.7772  -14.8078   20.1072 O   0  0  0  0  0  0
  -21.6637   -6.8876   21.4241 O   0  0  0  0  0  0
  -22.3524  -14.5532   20.6700 O   0  0  0  0  0  0
  -24.6263  -31.8607   23.2038 C   0  0  0  0  0  0
  -25.9116  -32.4784   23.8361 C   0  0  1  0  0  0
  -27.2217  -27.3211   20.1123 C   0  0  0  0  0  0
  -25.5934  -33.8584   24.2287 N   0  0  0  0  0  0
  -23.4193  -30.4857   21.5467 C   0  0  2  0  0  0
  -24.8653  -28.9452   20.1101 C   0  0  0  0  0  0
  -22.7476  -29.4628   22.4938 C   0  0  0  0  0  0
  -18.0286  -28.1382   22.8485 C   0  0  0  0  0  0
  -24.1489  -36.7289   23.2636 C   0  0  0  0  0  0
  -25.9616  -30.7919   21.3760 C   0  0  0  0  0  0
  -26.0355  -29.4211   20.7147 C   0  0  0  0  0  0
  -27.2171  -28.6211   20.7063 C   0  0  0  0  0  0
  -26.0264  -26.9025   19.4804 C   0  0  0  0  0  0
  -24.8627  -27.6910   19.4845 C   0  0  0  0  0  0
  -23.6336  -29.8244   20.1608 C   0  0  0  0  0  0
  -25.4112  -36.3083   24.0331 C   0  0  1  0  0  0
  -20.5887  -28.3682   23.1285 C   0  0  2  0  0  0
  -20.6776  -26.9406   22.5407 C   0  0  0  0  0  0
  -19.5750  -26.6377   21.5212 C   0  0  0  0  0  0
  -18.1928  -26.7924   22.1623 C   0  0  0  0  0  0
  -19.1540  -28.8848   23.2881 C   0  0  0  0  0  0
  -18.9465  -30.1454   23.8894 C   0  0  0  0  0  0
  -17.6465  -30.6585   24.0561 C   0  0  0  0  0  0
  -25.9051  -34.9454   23.5106 C   0  0  0  0  0  0
  -16.5355  -29.9083   23.6334 C   0  0  0  0  0  0
  -16.7273  -28.6501   23.0352 C   0  0  0  0  0  0
  -26.4501  -31.6593   25.0731 C   0  0  0  0  0  0
  -25.3736  -31.3737   26.1460 C   0  0  0  0  0  0
  -27.0343  -30.3017   24.6182 C   0  0  0  0  0  0
  -27.6057  -32.4331   25.7503 C   0  0  0  0  0  0
  -27.5584  -37.1790   24.8459 C   0  0  0  0  0  0
  -21.4188  -29.3045   22.3689 N   0  0  0  0  0  0
  -26.4286  -37.3781   23.9419 N   0  0  0  0  0  0
  -24.6878  -31.0622   22.0989 N   0  0  0  0  0  0
  -23.4205  -28.8158   23.3006 O   0  0  0  0  0  0
  -28.3337  -26.4621   20.1688 O   0  0  0  0  0  0
  -26.5613  -34.8920   22.4668 O   0  0  0  0  0  0
  -23.5428  -32.1405   23.7367 O   0  0  0  0  0  0
  -30.8689  -19.3004   20.1105 C   0  0  0  0  0  0
  -30.9509  -17.8793   20.2404 C   0  0  0  0  0  0
  -28.6241  -19.2723   20.9562 C   0  0  0  0  0  0
  -29.7055  -20.0541   20.4602 C   0  0  0  0  0  0
  -29.8606  -17.1165   20.7329 C   0  0  0  0  0  0
  -28.7021  -17.8547   21.0867 C   0  0  0  0  0  0
  -28.7349  -22.4505   20.7052 C   0  0  0  0  0  0
  -30.3180  -23.7205   19.4802 C   0  0  0  0  0  0
  -30.7749  -22.2567   19.6782 C   0  0  0  0  0  0
  -29.1790  -23.9370   20.4782 C   0  0  1  0  0  0
  -28.0756  -25.0049   20.0534 C   0  0  0  0  0  0
  -29.6669  -21.5279   20.3030 N   0  0  0  0  0  0
  -29.8136  -15.6649   20.9029 N   0  0  0  0  0  0
  -27.6432  -22.1860   21.2170 O   0  0  0  0  0  0
  -27.6274  -17.1778   21.5588 F   0  0  0  0  0  0
  -31.4821  -12.5193   19.1480 H   0  0  0  0  0  0
  -30.3796  -11.3930   19.8881 H   0  0  0  0  0  0
  -29.7704  -11.7577   17.4789 H   0  0  0  0  0  0
  -29.6514  -13.4787   17.7453 H   0  0  0  0  0  0
  -27.8646  -11.2952   18.8626 H   0  0  0  0  0  0
  -27.3764  -12.5852   17.7965 H   0  0  0  0  0  0
  -27.6759  -14.2532   19.5343 H   0  0  0  0  0  0
  -28.7128  -12.0345   21.3679 H   0  0  0  0  0  0
  -28.4469  -13.6814   21.8558 H   0  0  0  0  0  0
  -25.2765   -9.5682   22.4749 H   0  0  0  0  0  0
  -24.0001   -7.4635   22.7476 H   0  0  0  0  0  0
  -21.0838   -8.8769   19.8950 H   0  0  0  0  0  0
  -22.3697  -10.9666   19.6158 H   0  0  0  0  0  0
  -21.2004   -7.6146   23.9716 H   0  0  0  0  0  0
  -21.1481   -6.0521   25.9077 H   0  0  0  0  0  0
  -22.0598   -2.7608   23.2845 H   0  0  0  0  0  0
  -22.4120  -11.9869   22.4781 H   0  0  0  0  0  0
  -21.1124  -13.1240   22.2628 H   0  0  0  0  0  0
  -24.6667  -15.8429   20.5697 H   0  0  0  0  0  0
  -26.3018  -15.6484   20.2060 H   0  0  0  0  0  0
  -26.7183  -32.5456   23.1106 H   0  0  0  0  0  0
  -25.0107  -33.9735   25.0450 H   0  0  0  0  0  0
  -22.7125  -31.3061   21.4052 H   0  0  0  0  0  0
  -23.3761  -35.9611   23.3285 H   0  0  0  0  0  0
  -24.3584  -36.8920   22.2053 H   0  0  0  0  0  0
  -23.7226  -37.6480   23.6665 H   0  0  0  0  0  0
  -26.0953  -31.5582   20.6109 H   0  0  0  0  0  0
  -26.8414  -30.8368   22.0063 H   0  0  0  0  0  0
  -28.1133  -28.9802   21.1924 H   0  0  0  0  0  0
  -25.9554  -25.9470   18.9836 H   0  0  0  0  0  0
  -23.9664  -27.3210   19.0059 H   0  0  0  0  0  0
  -23.7523  -30.6032   19.4063 H   0  0  0  0  0  0
  -22.7540  -29.2543   19.8569 H   0  0  0  0  0  0
  -25.1288  -36.1930   25.0822 H   0  0  0  0  0  0
  -20.9977  -28.3251   24.1407 H   0  0  0  0  0  0
  -20.5678  -26.2291   23.3604 H   0  0  0  0  0  0
  -21.6644  -26.7434   22.1197 H   0  0  0  0  0  0
  -19.6912  -25.6288   21.1241 H   0  0  0  0  0  0
  -19.6691  -27.3190   20.6745 H   0  0  0  0  0  0
  -17.4198  -26.6677   21.4024 H   0  0  0  0  0  0
  -18.0325  -26.0064   22.9016 H   0  0  0  0  0  0
  -19.7945  -30.7271   24.2256 H   0  0  0  0  0  0
  -17.5022  -31.6267   24.5157 H   0  0  0  0  0  0
  -15.5356  -30.2985   23.7661 H   0  0  0  0  0  0
  -15.8672  -28.0819   22.7071 H   0  0  0  0  0  0
  -24.5905  -30.7092   25.7794 H   0  0  0  0  0  0
  -24.8939  -32.2911   26.4886 H   0  0  0  0  0  0
  -25.8061  -30.8913   27.0234 H   0  0  0  0  0  0
  -26.2917  -29.6770   24.1204 H   0  0  0  0  0  0
  -27.4046  -29.7269   25.4680 H   0  0  0  0  0  0
  -27.8785  -30.4308   23.9403 H   0  0  0  0  0  0
  -27.2661  -33.3633   26.2072 H   0  0  0  0  0  0
  -28.3875  -32.6888   25.0338 H   0  0  0  0  0  0
  -28.0717  -31.8463   26.5428 H   0  0  0  0  0  0
  -28.2572  -38.0119   24.7551 H   0  0  0  0  0  0
  -28.1111  -36.2650   24.6225 H   0  0  0  0  0  0
  -27.2311  -37.1365   25.8863 H   0  0  0  0  0  0
  -20.9360  -29.8783   21.6917 H   0  0  0  0  0  0
  -26.0166  -38.2849   24.1451 H   0  0  0  0  0  0
  -31.7437  -19.8081   19.7308 H   0  0  0  0  0  0
  -31.8686  -17.3862   19.9543 H   0  0  0  0  0  0
  -27.6969  -19.7412   21.2452 H   0  0  0  0  0  0
  -29.9529  -23.8565   18.4611 H   0  0  0  0  0  0
  -31.1358  -24.4260   19.6295 H   0  0  0  0  0  0
  -31.6416  -22.2151   20.3399 H   0  0  0  0  0  0
  -31.0581  -21.8091   18.7246 H   0  0  0  0  0  0
  -29.5995  -24.2533   21.4329 H   0  0  0  0  0  0
  -27.1913  -24.7877   20.6552 H   0  0  0  0  0  0
  -27.7990  -24.7894   19.0209 H   0  0  0  0  0  0
  -28.9243  -15.3455   21.2569 H   0  0  0  0  0  0
  1 25  1  0  0  0
  1 30  2  0  0  0
  1 83  1  0  0  0
  2  3  1  0  0  0
  2 25  1  0  0  0
  2 86  1  0  0  0
  2 87  1  0  0  0
  3  4  1  0  0  0
  3 88  1  0  0  0
  3 89  1  0  0  0
  4  5  1  0  0  0
  4 90  1  0  0  0
  4 91  1  0  0  0
  5  6  1  0  0  0
  5 26  1  0  0  0
  5 92  1  0  0  0
  6 25  1  0  0  0
  6 93  1  0  0  0
  6 94  1  0  0  0
  7  8  2  0  0  0
  7 26  1  0  0  0
  7 29  1  0  0  0
  8  9  1  0  0  0
  8 22  1  0  0  0
  9 10  1  0  0  0
  9 27  2  0  0  0
 10 11  2  0  0  0
 10 15  1  0  0  0
 11 12  1  0  0  0
 11 95  1  0  0  0
 12 13  2  0  0  0
 12 96  1  0  0  0
 13 14  1  0  0  0
 13 31  1  0  0  0
 14 15  2  0  0  0
 14 97  1  0  0  0
 15 98  1  0  0  0
 16 17  2  0  0  0
 16 21  1  0  0  0
 16 31  1  0  0  0
 17 18  1  0  0  0
 17 99  1  0  0  0
 18 19  2  0  0  0
 18100  1  0  0  0
 19 20  1  0  0  0
 19 24  1  0  0  0
 20 21  2  0  0  0
 20101  1  0  0  0
 21 23  1  0  0  0
 22 28  1  0  0  0
 22 32  2  0  0  0
 26 27  1  0  0  0
 28102  1  0  0  0
 28103  1  0  0  0
 29104  1  0  0  0
 29105  1  0  0  0
 33 34  1  0  0  0
 33 66  1  0  0  0
 33 70  2  0  0  0
 34 36  1  0  0  0
 34 59  1  0  0  0
 34106  1  0  0  0
 35 44  2  0  0  0
 35 45  1  0  0  0
 35 68  1  0  0  0
 36 56  1  0  0  0
 36107  1  0  0  0
 37 39  1  0  0  0
 37 47  1  0  0  0
 37 66  1  0  0  0
 37108  1  0  0  0
 38 43  2  0  0  0
 38 46  1  0  0  0
 38 47  1  0  0  0
 39 64  1  0  0  0
 39 67  2  0  0  0
 40 52  1  0  0  0
 40 53  2  0  0  0
 40 58  1  0  0  0
 41109  1  0  0  0
 41110  1  0  0  0
 41111  1  0  0  0
 41 48  1  0  0  0
 42 43  1  0  0  0
 42 66  1  0  0  0
 42112  1  0  0  0
 42113  1  0  0  0
 43 44  1  0  0  0
 44114  1  0  0  0
 45 46  2  0  0  0
 45115  1  0  0  0
 46116  1  0  0  0
 47117  1  0  0  0
 47118  1  0  0  0
 48 56  1  0  0  0
 48 65  1  0  0  0
 48119  1  0  0  0
 49 50  1  0  0  0
 49 53  1  0  0  0
 49 64  1  0  0  0
 49120  1  0  0  0
 50 51  1  0  0  0
 50121  1  0  0  0
 50122  1  0  0  0
 51 52  1  0  0  0
 51123  1  0  0  0
 51124  1  0  0  0
 52125  1  0  0  0
 52126  1  0  0  0
 53 54  1  0  0  0
 54 55  2  0  0  0
 54127  1  0  0  0
 55 57  1  0  0  0
 55128  1  0  0  0
 56 69  2  0  0  0
 57 58  2  0  0  0
 57129  1  0  0  0
 58130  1  0  0  0
 59 60  1  0  0  0
 59 61  1  0  0  0
 59 62  1  0  0  0
 60131  1  0  0  0
 60132  1  0  0  0
 60133  1  0  0  0
 61134  1  0  0  0
 61135  1  0  0  0
 61136  1  0  0  0
 62137  1  0  0  0
 62138  1  0  0  0
 62139  1  0  0  0
 63 65  1  0  0  0
 63140  1  0  0  0
 63141  1  0  0  0
 63142  1  0  0  0
 64143  1  0  0  0
 65144  1  0  0  0
 68 81  1  0  0  0
 71 72  2  0  0  0
 71 74  1  0  0  0
 71145  1  0  0  0
 72 75  1  0  0  0
 72146  1  0  0  0
 73 74  2  0  0  0
 73 76  1  0  0  0
 73147  1  0  0  0
 74 82  1  0  0  0
 75 76  2  0  0  0
 75 83  1  0  0  0
 76 85  1  0  0  0
 77 80  1  0  0  0
 77 82  1  0  0  0
 77 84  2  0  0  0
 78 79  1  0  0  0
 78 80  1  0  0  0
 78148  1  0  0  0
 78149  1  0  0  0
 79 82  1  0  0  0
 79150  1  0  0  0
 79151  1  0  0  0
 80 81  1  0  0  0
 80152  1  0  0  0
 81153  1  0  0  0
 81154  1  0  0  0
 83155  1  0  0  0
M  ISO  4   1 100  68 101  81 101  83 100
M  END
> <chiral flag>
0

> <version>
0

> <s_m_source_file>
/data/baiqing/PycharmProjects/Reinvent-master-3.2/result/LINK_invent/BTK/process_docking_weight1_custom_product_contain_oxygen_bond_distance_aromatic_linkinvent_7_9_3/rearranged_h_0021.sdf

> <i_m_source_file_index>
24

> <r_mmod_Potential_Energy-OPLS-2005>
104.43994140625

> <r_mmod_Stretch_Energy-OPLS-2005>
79.9662475585938

> <r_mmod_Bend_Energy-OPLS-2005>
168.272598266602

> <r_mmod_Torsional_Energy-OPLS-2005>
253.14094543457

> <r_mmod_Improper_Torsional_Energy-OPLS-2005>
3.68619656562805

> <r_mmod_Van_der_Waal_Energy-OPLS-2005>
148.356887817383

> <r_mmod_Electrostatic_Energy-OPLS-2005>
-388.333709716797

> <r_mmod_Solvation_Energy-OPLS-2005>
-208.69873046875

> <b_mmod_Minimization_Converged-OPLS-2005>
0

> <r_mmod_RMS_Derivative-OPLS-2005>
0.457433491945267

$$$$
24
                    3D
 Structure written by MMmdl.
158166  0  0  1  0            999 V2000
  -30.7087  -14.4730   20.6198 C   0  0  0  0  0  0
  -30.4269  -12.3287   19.4254 C   0  0  0  0  0  0
  -29.5004  -12.5230   18.2084 C   0  0  0  0  0  0
  -28.0241  -12.3573   18.6201 C   0  0  0  0  0  0
  -27.6582  -13.2036   19.8692 C   0  0  2  0  0  0
  -28.6939  -12.9942   20.9945 C   0  0  0  0  0  0
  -25.2564  -13.8115   20.5566 C   0  0  0  0  0  0
  -24.1819  -13.0417   20.9103 C   0  0  0  0  0  0
  -24.6359  -11.6880   20.8692 C   0  0  0  0  0  0
  -23.9012  -10.4283   21.0374 C   0  0  0  0  0  0
  -24.3585   -9.4225   21.9163 C   0  0  0  0  0  0
  -23.6276   -8.2252   22.0756 C   0  0  0  0  0  0
  -22.4261   -8.0266   21.3544 C   0  0  0  0  0  0
  -21.9869   -9.0227   20.4645 C   0  0  0  0  0  0
  -22.7173  -10.2120   20.3041 C   0  0  0  0  0  0
  -21.6845   -6.0719   22.5277 C   0  0  0  0  0  0
  -21.4006   -6.5631   23.8210 C   0  0  0  0  0  0
  -21.3664   -5.6785   24.9169 C   0  0  0  0  0  0
  -21.6049   -4.3050   24.7223 C   0  0  0  0  0  0
  -21.8816   -3.8134   23.4342 C   0  0  0  0  0  0
  -21.9184   -4.6948   22.3399 C   0  0  0  0  0  0
  -22.7856  -13.5246   21.1776 C   0  0  0  0  0  0
  -22.1657   -4.2136   21.0974 F   0  0  0  0  0  0
  -21.5634   -3.4538   25.7738 F   0  0  0  0  0  0
  -30.0276  -13.3066   20.4501 N   0  0  0  0  0  0
  -26.2996  -12.9284   20.3279 N   0  0  0  0  0  0
  -25.9288  -11.6445   20.5686 N   0  0  0  0  0  0
  -22.0461  -12.8296   22.0343 N   0  0  0  0  0  0
  -25.4268  -15.1814   20.3860 N   0  0  0  0  0  0
  -31.8120  -14.6818   20.1080 O   0  0  0  0  0  0
  -21.6636   -6.8860   21.4243 O   0  0  0  0  0  0
  -22.3568  -14.5574   20.6635 O   0  0  0  0  0  0
  -24.6140  -31.8679   23.2065 C   0  0  0  0  0  0
  -25.9036  -32.4822   23.8361 C   0  0  1  0  0  0
  -27.2401  -27.4354   20.1095 C   0  0  0  0  0  0
  -25.5898  -33.8625   24.2290 N   0  0  0  0  0  0
  -23.4000  -30.4880   21.5475 C   0  0  2  0  0  0
  -24.8500  -28.9475   20.1171 C   0  0  0  0  0  0
  -22.7389  -29.4649   22.4994 C   0  0  0  0  0  0
  -18.0266  -28.1365   22.8474 C   0  0  0  0  0  0
  -24.1475  -36.7323   23.2629 C   0  0  0  0  0  0
  -25.9257  -30.8345   21.3562 C   0  0  0  0  0  0
  -26.0074  -29.4655   20.7124 C   0  0  0  0  0  0
  -27.2068  -28.7184   20.7014 C   0  0  0  0  0  0
  -26.0691  -26.9283   19.5095 C   0  0  0  0  0  0
  -24.8766  -27.6798   19.5076 C   0  0  0  0  0  0
  -23.6083  -29.8103   20.1647 C   0  0  0  0  0  0
  -25.4099  -36.3108   24.0317 C   0  0  1  0  0  0
  -20.5853  -28.3634   23.1297 C   0  0  2  0  0  0
  -20.6740  -26.9388   22.5368 C   0  0  0  0  0  0
  -19.5710  -26.6373   21.5180 C   0  0  0  0  0  0
  -18.1894  -26.7917   22.1588 C   0  0  0  0  0  0
  -19.1518  -28.8816   23.2888 C   0  0  0  0  0  0
  -18.9445  -30.1433   23.8885 C   0  0  0  0  0  0
  -17.6445  -30.6573   24.0543 C   0  0  0  0  0  0
  -25.9027  -34.9488   23.5094 C   0  0  0  0  0  0
  -16.5335  -29.9076   23.6313 C   0  0  0  0  0  0
  -16.7256  -28.6492   23.0338 C   0  0  0  0  0  0
  -26.4463  -31.6615   25.0705 C   0  0  0  0  0  0
  -25.3712  -31.3790   26.1448 C   0  0  0  0  0  0
  -27.0275  -30.3043   24.6093 C   0  0  0  0  0  0
  -27.6009  -32.4357   25.7495 C   0  0  0  0  0  0
  -27.5569  -37.1805   24.8454 C   0  0  0  0  0  0
  -21.4120  -29.3013   22.3724 N   0  0  0  0  0  0
  -26.4280  -37.3794   23.9405 N   0  0  0  0  0  0
  -24.6644  -31.0770   22.0967 N   0  0  0  0  0  0
  -23.4170  -28.8221   23.3053 O   0  0  0  0  0  0
  -28.4143  -26.7138   20.0827 O   0  0  0  0  0  0
  -26.5588  -34.8935   22.4655 O   0  0  0  0  0  0
  -23.5333  -32.1439   23.7474 O   0  0  0  0  0  0
  -30.8416  -18.8863   20.4566 C   0  0  0  0  0  0
  -30.3543  -20.1240   19.9773 C   0  0  0  0  0  0
  -28.1570  -19.5888   20.8522 C   0  0  0  0  0  0
  -30.0035  -17.9885   21.1606 C   0  0  0  0  0  0
  -28.6447  -18.3567   21.3585 C   0  0  0  0  0  0
  -29.0059  -20.4890   20.1719 C   0  0  0  0  0  0
  -27.6979  -17.4652   22.1427 C   0  0  0  0  0  0
  -30.6235  -16.7144   21.7704 C   0  0  0  0  0  0
  -28.4542  -24.2241   19.8382 C   0  0  0  0  0  0
  -28.6570  -22.8648   20.5663 C   0  0  0  0  0  0
  -28.4149  -25.4552   20.7797 C   0  0  0  0  0  0
  -28.5123  -21.7090   19.6732 N   0  0  0  0  0  0
  -30.0732  -15.4189   21.3371 N   0  0  0  0  0  0
  -31.4710  -12.4386   19.1266 H   0  0  0  0  0  0
  -30.3365  -11.3183   19.8264 H   0  0  0  0  0  0
  -29.7551  -11.8136   17.4195 H   0  0  0  0  0  0
  -29.6537  -13.5196   17.7892 H   0  0  0  0  0  0
  -27.8586  -11.2996   18.8256 H   0  0  0  0  0  0
  -27.3700  -12.6143   17.7868 H   0  0  0  0  0  0
  -27.6995  -14.2493   19.5644 H   0  0  0  0  0  0
  -28.6739  -11.9591   21.3391 H   0  0  0  0  0  0
  -28.4358  -13.5956   21.8671 H   0  0  0  0  0  0
  -25.2733   -9.5746   22.4722 H   0  0  0  0  0  0
  -23.9971   -7.4677   22.7518 H   0  0  0  0  0  0
  -21.0773   -8.8751   19.8987 H   0  0  0  0  0  0
  -22.3600  -10.9659   19.6156 H   0  0  0  0  0  0
  -21.2011   -7.6142   23.9712 H   0  0  0  0  0  0
  -21.1490   -6.0511   25.9078 H   0  0  0  0  0  0
  -22.0595   -2.7596   23.2840 H   0  0  0  0  0  0
  -22.4023  -11.9977   22.4815 H   0  0  0  0  0  0
  -21.1119  -13.1430   22.2564 H   0  0  0  0  0  0
  -24.6505  -15.8293   20.4525 H   0  0  0  0  0  0
  -26.2725  -15.6116   20.0358 H   0  0  0  0  0  0
  -26.7115  -32.5539   23.1137 H   0  0  0  0  0  0
  -25.0072  -33.9792   25.0451 H   0  0  0  0  0  0
  -22.6872  -31.3034   21.4056 H   0  0  0  0  0  0
  -23.3733  -35.9659   23.3300 H   0  0  0  0  0  0
  -24.3555  -36.8936   22.2037 H   0  0  0  0  0  0
  -23.7237  -37.6530   23.6650 H   0  0  0  0  0  0
  -26.0221  -31.5926   20.5777 H   0  0  0  0  0  0
  -26.8199  -30.9027   21.9630 H   0  0  0  0  0  0
  -28.1018  -29.1223   21.1537 H   0  0  0  0  0  0
  -26.0816  -25.9604   19.0295 H   0  0  0  0  0  0
  -23.9923  -27.2784   19.0328 H   0  0  0  0  0  0
  -23.7048  -30.5781   19.3972 H   0  0  0  0  0  0
  -22.7351  -29.2185   19.8796 H   0  0  0  0  0  0
  -25.1283  -36.1946   25.0807 H   0  0  0  0  0  0
  -20.9957  -28.3180   24.1417 H   0  0  0  0  0  0
  -20.5646  -26.2252   23.3548 H   0  0  0  0  0  0
  -21.6599  -26.7418   22.1137 H   0  0  0  0  0  0
  -19.6858  -25.6286   21.1204 H   0  0  0  0  0  0
  -19.6654  -27.3179   20.6705 H   0  0  0  0  0  0
  -17.4165  -26.6700   21.3977 H   0  0  0  0  0  0
  -18.0265  -26.0039   22.8951 H   0  0  0  0  0  0
  -19.7930  -30.7254   24.2228 H   0  0  0  0  0  0
  -17.5005  -31.6255   24.5143 H   0  0  0  0  0  0
  -15.5338  -30.2982   23.7633 H   0  0  0  0  0  0
  -15.8650  -28.0820   22.7058 H   0  0  0  0  0  0
  -24.5845  -30.7175   25.7807 H   0  0  0  0  0  0
  -24.8968  -32.2994   26.4858 H   0  0  0  0  0  0
  -25.8040  -30.8977   27.0224 H   0  0  0  0  0  0
  -26.2823  -29.6848   24.1083 H   0  0  0  0  0  0
  -27.3958  -29.7240   25.4563 H   0  0  0  0  0  0
  -27.8694  -30.4350   23.9290 H   0  0  0  0  0  0
  -27.2569  -33.3623   26.2108 H   0  0  0  0  0  0
  -28.3815  -32.6982   25.0344 H   0  0  0  0  0  0
  -28.0685  -31.8475   26.5397 H   0  0  0  0  0  0
  -28.2590  -38.0099   24.7506 H   0  0  0  0  0  0
  -28.1060  -36.2632   24.6276 H   0  0  0  0  0  0
  -27.2291  -37.1454   25.8857 H   0  0  0  0  0  0
  -20.9285  -29.8714   21.6928 H   0  0  0  0  0  0
  -26.0162  -38.2864   24.1427 H   0  0  0  0  0  0
  -31.8813  -18.6382   20.2937 H   0  0  0  0  0  0
  -31.0239  -20.7844   19.4438 H   0  0  0  0  0  0
  -27.1209  -19.8554   21.0086 H   0  0  0  0  0  0
  -28.0847  -17.2722   23.1437 H   0  0  0  0  0  0
  -27.5647  -16.5117   21.6341 H   0  0  0  0  0  0
  -26.7122  -17.9219   22.2484 H   0  0  0  0  0  0
  -30.4944  -16.7766   22.8523 H   0  0  0  0  0  0
  -31.7054  -16.7336   21.6231 H   0  0  0  0  0  0
  -27.5285  -24.1981   19.2650 H   0  0  0  0  0  0
  -29.2574  -24.3640   19.1144 H   0  0  0  0  0  0
  -27.9212  -22.7703   21.3674 H   0  0  0  0  0  0
  -29.6376  -22.8403   21.0446 H   0  0  0  0  0  0
  -29.3038  -25.4498   21.4119 H   0  0  0  0  0  0
  -27.5683  -25.3796   21.4643 H   0  0  0  0  0  0
  -27.5516  -21.6269   19.3443 H   0  0  0  0  0  0
  -29.1707  -15.1608   21.7044 H   0  0  0  0  0  0
  1 25  1  0  0  0
  1 30  2  0  0  0
  1 83  1  0  0  0
  2  3  1  0  0  0
  2 25  1  0  0  0
  2 84  1  0  0  0
  2 85  1  0  0  0
  3  4  1  0  0  0
  3 86  1  0  0  0
  3 87  1  0  0  0
  4  5  1  0  0  0
  4 88  1  0  0  0
  4 89  1  0  0  0
  5  6  1  0  0  0
  5 26  1  0  0  0
  5 90  1  0  0  0
  6 25  1  0  0  0
  6 91  1  0  0  0
  6 92  1  0  0  0
  7  8  2  0  0  0
  7 26  1  0  0  0
  7 29  1  0  0  0
  8  9  1  0  0  0
  8 22  1  0  0  0
  9 10  1  0  0  0
  9 27  2  0  0  0
 10 11  2  0  0  0
 10 15  1  0  0  0
 11 12  1  0  0  0
 11 93  1  0  0  0
 12 13  2  0  0  0
 12 94  1  0  0  0
 13 14  1  0  0  0
 13 31  1  0  0  0
 14 15  2  0  0  0
 14 95  1  0  0  0
 15 96  1  0  0  0
 16 17  2  0  0  0
 16 21  1  0  0  0
 16 31  1  0  0  0
 17 18  1  0  0  0
 17 97  1  0  0  0
 18 19  2  0  0  0
 18 98  1  0  0  0
 19 20  1  0  0  0
 19 24  1  0  0  0
 20 21  2  0  0  0
 20 99  1  0  0  0
 21 23  1  0  0  0
 22 28  1  0  0  0
 22 32  2  0  0  0
 26 27  1  0  0  0
 28100  1  0  0  0
 28101  1  0  0  0
 29102  1  0  0  0
 29103  1  0  0  0
 33 34  1  0  0  0
 33 66  1  0  0  0
 33 70  2  0  0  0
 34 36  1  0  0  0
 34 59  1  0  0  0
 34104  1  0  0  0
 35 44  2  0  0  0
 35 45  1  0  0  0
 35 68  1  0  0  0
 36 56  1  0  0  0
 36105  1  0  0  0
 37 39  1  0  0  0
 37 47  1  0  0  0
 37 66  1  0  0  0
 37106  1  0  0  0
 38 43  2  0  0  0
 38 46  1  0  0  0
 38 47  1  0  0  0
 39 64  1  0  0  0
 39 67  2  0  0  0
 40 52  1  0  0  0
 40 53  2  0  0  0
 40 58  1  0  0  0
 41107  1  0  0  0
 41108  1  0  0  0
 41109  1  0  0  0
 41 48  1  0  0  0
 42 43  1  0  0  0
 42 66  1  0  0  0
 42110  1  0  0  0
 42111  1  0  0  0
 43 44  1  0  0  0
 44112  1  0  0  0
 45 46  2  0  0  0
 45113  1  0  0  0
 46114  1  0  0  0
 47115  1  0  0  0
 47116  1  0  0  0
 48 56  1  0  0  0
 48 65  1  0  0  0
 48117  1  0  0  0
 49 50  1  0  0  0
 49 53  1  0  0  0
 49 64  1  0  0  0
 49118  1  0  0  0
 50 51  1  0  0  0
 50119  1  0  0  0
 50120  1  0  0  0
 51 52  1  0  0  0
 51121  1  0  0  0
 51122  1  0  0  0
 52123  1  0  0  0
 52124  1  0  0  0
 53 54  1  0  0  0
 54 55  2  0  0  0
 54125  1  0  0  0
 55 57  1  0  0  0
 55126  1  0  0  0
 56 69  2  0  0  0
 57 58  2  0  0  0
 57127  1  0  0  0
 58128  1  0  0  0
 59 60  1  0  0  0
 59 61  1  0  0  0
 59 62  1  0  0  0
 60129  1  0  0  0
 60130  1  0  0  0
 60131  1  0  0  0
 61132  1  0  0  0
 61133  1  0  0  0
 61134  1  0  0  0
 62135  1  0  0  0
 62136  1  0  0  0
 62137  1  0  0  0
 63 65  1  0  0  0
 63138  1  0  0  0
 63139  1  0  0  0
 63140  1  0  0  0
 64141  1  0  0  0
 65142  1  0  0  0
 68 81  1  0  0  0
 71 72  2  0  0  0
 71 74  1  0  0  0
 71143  1  0  0  0
 72 76  1  0  0  0
 72144  1  0  0  0
 73 75  1  0  0  0
 73 76  2  0  0  0
 73145  1  0  0  0
 74 75  2  0  0  0
 74 78  1  0  0  0
 75 77  1  0  0  0
 76 82  1  0  0  0
 77146  1  0  0  0
 77147  1  0  0  0
 77148  1  0  0  0
 78 83  1  0  0  0
 78149  1  0  0  0
 78150  1  0  0  0
 79 80  1  0  0  0
 79 81  1  0  0  0
 79151  1  0  0  0
 79152  1  0  0  0
 80 82  1  0  0  0
 80153  1  0  0  0
 80154  1  0  0  0
 81155  1  0  0  0
 81156  1  0  0  0
 82157  1  0  0  0
 83158  1  0  0  0
M  ISO  4   1 100  68 101  81 101  83 100
M  END
> <chiral flag>
0

> <version>
0

> <s_m_source_file>
/data/baiqing/PycharmProjects/Reinvent-master-3.2/result/LINK_invent/BTK/process_docking_weight1_custom_product_contain_oxygen_bond_distance_aromatic_linkinvent_7_9_3/rearranged_h_0021.sdf

> <i_m_source_file_index>
25

> <r_mmod_Potential_Energy-OPLS-2005>
-99.5018920898438

> <r_mmod_Stretch_Energy-OPLS-2005>
38.6859245300293

> <r_mmod_Bend_Energy-OPLS-2005>
93.353141784668

> <r_mmod_Torsional_Energy-OPLS-2005>
230.869232177734

> <r_mmod_Improper_Torsional_Energy-OPLS-2005>
7.87205505371094

> <r_mmod_Van_der_Waal_Energy-OPLS-2005>
142.269821166992

> <r_mmod_Electrostatic_Energy-OPLS-2005>
-405.505950927734

> <r_mmod_Solvation_Energy-OPLS-2005>
-218.989364624023

> <b_mmod_Minimization_Converged-OPLS-2005>
0

> <r_mmod_RMS_Derivative-OPLS-2005>
2.67289686203003

$$$$
25
                    3D
 Structure written by MMmdl.
164172  0  0  1  0            999 V2000
  -30.7522  -14.4671   20.5041 C   0  0  0  0  0  0
  -30.3941  -12.2899   19.4398 C   0  0  0  0  0  0
  -29.4892  -12.4895   18.2111 C   0  0  0  0  0  0
  -28.0083  -12.3699   18.6186 C   0  0  0  0  0  0
  -27.6522  -13.2307   19.8648 C   0  0  2  0  0  0
  -28.6974  -13.0814   20.9924 C   0  0  0  0  0  0
  -25.2532  -13.8228   20.5677 C   0  0  0  0  0  0
  -24.1811  -13.0471   20.9202 C   0  0  0  0  0  0
  -24.6413  -11.6963   20.8756 C   0  0  0  0  0  0
  -23.9088  -10.4333   21.0407 C   0  0  0  0  0  0
  -24.3642   -9.4248   21.9168 C   0  0  0  0  0  0
  -23.6320   -8.2283   22.0729 C   0  0  0  0  0  0
  -22.4302   -8.0300   21.3532 C   0  0  0  0  0  0
  -21.9953   -9.0273   20.4642 C   0  0  0  0  0  0
  -22.7272  -10.2158   20.3060 C   0  0  0  0  0  0
  -21.6868   -6.0744   22.5266 C   0  0  0  0  0  0
  -21.4039   -6.5635   23.8208 C   0  0  0  0  0  0
  -21.3692   -5.6779   24.9171 C   0  0  0  0  0  0
  -21.6054   -4.3036   24.7205 C   0  0  0  0  0  0
  -21.8820   -3.8137   23.4313 C   0  0  0  0  0  0
  -21.9205   -4.6971   22.3382 C   0  0  0  0  0  0
  -22.7822  -13.5244   21.1811 C   0  0  0  0  0  0
  -22.1631   -4.2169   21.0957 F   0  0  0  0  0  0
  -21.5660   -3.4505   25.7705 F   0  0  0  0  0  0
  -30.0268  -13.3251   20.4174 N   0  0  0  0  0  0
  -26.2993  -12.9447   20.3368 N   0  0  0  0  0  0
  -25.9352  -11.6581   20.5819 N   0  0  0  0  0  0
  -22.0443  -12.8296   22.0409 N   0  0  0  0  0  0
  -25.4201  -15.1951   20.4053 N   0  0  0  0  0  0
  -31.9238  -14.5317   20.1251 O   0  0  0  0  0  0
  -21.6660   -6.8898   21.4231 O   0  0  0  0  0  0
  -22.3485  -14.5498   20.6584 O   0  0  0  0  0  0
  -24.6152  -31.8692   23.2119 C   0  0  0  0  0  0
  -25.9069  -32.4800   23.8401 C   0  0  1  0  0  0
  -27.2228  -27.4416   20.0763 C   0  0  0  0  0  0
  -25.5959  -33.8596   24.2350 N   0  0  0  0  0  0
  -23.3979  -30.4954   21.5528 C   0  0  2  0  0  0
  -24.8381  -28.9647   20.1095 C   0  0  0  0  0  0
  -22.7391  -29.4693   22.5021 C   0  0  0  0  0  0
  -18.0261  -28.1312   22.8474 C   0  0  0  0  0  0
  -24.1490  -36.7306   23.2640 C   0  0  0  0  0  0
  -25.9282  -30.8335   21.3635 C   0  0  0  0  0  0
  -25.9998  -29.4727   20.6996 C   0  0  0  0  0  0
  -27.1967  -28.7218   20.6735 C   0  0  0  0  0  0
  -26.0430  -26.9510   19.4752 C   0  0  0  0  0  0
  -24.8546  -27.7030   19.4894 C   0  0  0  0  0  0
  -23.6009  -29.8289   20.1653 C   0  0  0  0  0  0
  -25.4102  -36.3105   24.0352 C   0  0  1  0  0  0
  -20.5855  -28.3581   23.1327 C   0  0  2  0  0  0
  -20.6752  -26.9321   22.5407 C   0  0  0  0  0  0
  -19.5732  -26.6324   21.5200 C   0  0  0  0  0  0
  -18.1909  -26.7858   22.1596 C   0  0  0  0  0  0
  -19.1512  -28.8764   23.2884 C   0  0  0  0  0  0
  -18.9443  -30.1395   23.8855 C   0  0  0  0  0  0
  -17.6449  -30.6528   24.0523 C   0  0  0  0  0  0
  -25.9051  -34.9467   23.5138 C   0  0  0  0  0  0
  -16.5339  -29.9009   23.6326 C   0  0  0  0  0  0
  -16.7249  -28.6431   23.0319 C   0  0  0  0  0  0
  -26.4496  -31.6556   25.0705 C   0  0  0  0  0  0
  -25.3832  -31.3621   26.1509 C   0  0  0  0  0  0
  -27.0326  -30.3002   24.6064 C   0  0  0  0  0  0
  -27.6042  -32.4273   25.7488 C   0  0  0  0  0  0
  -27.5575  -37.1807   24.8454 C   0  0  0  0  0  0
  -21.4130  -29.3003   22.3779 N   0  0  0  0  0  0
  -26.4272  -37.3816   23.9434 N   0  0  0  0  0  0
  -24.6650  -31.0822   22.0984 N   0  0  0  0  0  0
  -23.4193  -28.8255   23.3051 O   0  0  0  0  0  0
  -28.3949  -26.7151   20.0885 O   0  0  0  0  0  0
  -26.5584  -34.8928   22.4686 O   0  0  0  0  0  0
  -23.5359  -32.1440   23.7541 O   0  0  0  0  0  0
  -29.1533  -20.3036   19.9890 C   0  0  0  0  0  0
  -29.7459  -20.1371   22.3242 C   0  0  0  0  0  0
  -29.5006  -18.9445   19.7911 C   0  0  0  0  0  0
  -30.0566  -18.1985   20.8607 C   0  0  0  0  0  0
  -29.3509  -20.9551   21.2353 C   0  0  0  0  0  0
  -30.1073  -18.7910   22.1459 C   0  0  0  0  0  0
  -29.3552  -18.3426   18.3983 C   0  0  0  0  0  0
  -30.9321  -23.0594   23.0874 C   0  0  0  0  0  0
  -30.8024  -16.8884   20.6026 C   0  0  0  0  0  0
  -29.6785  -24.6730   20.2942 C   0  0  0  0  0  0
  -29.4381  -22.9514   22.7004 C   0  0  0  0  0  0
  -29.7398  -23.1254   20.2025 C   0  0  0  0  0  0
  -28.2784  -25.2852   20.1419 C   0  0  0  0  0  0
  -30.1019  -15.6088   20.7999 N   0  0  0  0  0  0
  -29.2169  -22.3727   21.3612 N   0  0  0  0  0  0
  -30.7108  -17.9245   23.5159 Cl  0  0  0  0  0  0
  -31.4447  -12.3426   19.1455 H   0  0  0  0  0  0
  -30.2451  -11.2974   19.8655 H   0  0  0  0  0  0
  -29.7296  -11.7538   17.4426 H   0  0  0  0  0  0
  -29.6788  -13.4697   17.7715 H   0  0  0  0  0  0
  -27.8086  -11.3183   18.8285 H   0  0  0  0  0  0
  -27.3672  -12.6444   17.7815 H   0  0  0  0  0  0
  -27.6741  -14.2694   19.5359 H   0  0  0  0  0  0
  -28.6578  -12.0839   21.4306 H   0  0  0  0  0  0
  -28.4892  -13.7764   21.8080 H   0  0  0  0  0  0
  -25.2799   -9.5720   22.4732 H   0  0  0  0  0  0
  -24.0036   -7.4699   22.7449 H   0  0  0  0  0  0
  -21.0886   -8.8777   19.8973 H   0  0  0  0  0  0
  -22.3708  -10.9665   19.6157 H   0  0  0  0  0  0
  -21.1988   -7.6138   23.9719 H   0  0  0  0  0  0
  -21.1531   -6.0489   25.9079 H   0  0  0  0  0  0
  -22.0575   -2.7592   23.2790 H   0  0  0  0  0  0
  -22.4029  -12.0025   22.4959 H   0  0  0  0  0  0
  -21.1027  -13.1318   22.2489 H   0  0  0  0  0  0
  -24.6568  -15.8517   20.5225 H   0  0  0  0  0  0
  -26.2744  -15.6426   20.0962 H   0  0  0  0  0  0
  -26.7124  -32.5498   23.1148 H   0  0  0  0  0  0
  -25.0229  -33.9726   25.0575 H   0  0  0  0  0  0
  -22.6835  -31.3090   21.4150 H   0  0  0  0  0  0
  -23.3774  -35.9620   23.3294 H   0  0  0  0  0  0
  -24.3579  -36.8930   22.2060 H   0  0  0  0  0  0
  -23.7225  -37.6498   23.6641 H   0  0  0  0  0  0
  -26.0596  -31.6120   20.6091 H   0  0  0  0  0  0
  -26.8096  -30.8649   21.9908 H   0  0  0  0  0  0
  -28.0970  -29.1145   21.1219 H   0  0  0  0  0  0
  -26.0240  -25.9984   18.9709 H   0  0  0  0  0  0
  -23.9679  -27.3133   19.0094 H   0  0  0  0  0  0
  -23.7002  -30.6033   19.4035 H   0  0  0  0  0  0
  -22.7244  -29.2446   19.8777 H   0  0  0  0  0  0
  -25.1291  -36.1967   25.0851 H   0  0  0  0  0  0
  -20.9910  -28.3100   24.1456 H   0  0  0  0  0  0
  -20.5607  -26.2189   23.3585 H   0  0  0  0  0  0
  -21.6624  -26.7341   22.1225 H   0  0  0  0  0  0
  -19.6882  -25.6247   21.1194 H   0  0  0  0  0  0
  -19.6654  -27.3155   20.6764 H   0  0  0  0  0  0
  -17.4192  -26.6611   21.3988 H   0  0  0  0  0  0
  -18.0258  -25.9977   22.8964 H   0  0  0  0  0  0
  -19.7940  -30.7219   24.2145 H   0  0  0  0  0  0
  -17.5011  -31.6199   24.5119 H   0  0  0  0  0  0
  -15.5329  -30.2855   23.7702 H   0  0  0  0  0  0
  -15.8667  -28.0751   22.7002 H   0  0  0  0  0  0
  -24.5991  -30.6958   25.7936 H   0  0  0  0  0  0
  -24.9061  -32.2742   26.5072 H   0  0  0  0  0  0
  -25.8304  -30.8767   27.0190 H   0  0  0  0  0  0
  -26.2854  -29.6709   24.1223 H   0  0  0  0  0  0
  -27.4237  -29.7269   25.4477 H   0  0  0  0  0  0
  -27.8616  -30.4342   23.9119 H   0  0  0  0  0  0
  -27.2625  -33.3523   26.2132 H   0  0  0  0  0  0
  -28.3826  -32.6916   25.0327 H   0  0  0  0  0  0
  -28.0723  -31.8370   26.5361 H   0  0  0  0  0  0
  -28.2610  -38.0099   24.7552 H   0  0  0  0  0  0
  -28.1058  -36.2644   24.6222 H   0  0  0  0  0  0
  -27.2284  -37.1392   25.8850 H   0  0  0  0  0  0
  -20.9235  -29.8778   21.7091 H   0  0  0  0  0  0
  -26.0161  -38.2896   24.1431 H   0  0  0  0  0  0
  -28.7805  -20.8542   19.1386 H   0  0  0  0  0  0
  -29.8824  -20.5300   23.3159 H   0  0  0  0  0  0
  -28.6659  -18.9212   17.7809 H   0  0  0  0  0  0
  -28.9793  -17.3207   18.4374 H   0  0  0  0  0  0
  -30.3159  -18.3234   17.8866 H   0  0  0  0  0  0
  -31.0521  -23.5761   24.0409 H   0  0  0  0  0  0
  -31.5023  -23.6259   22.3561 H   0  0  0  0  0  0
  -31.4238  -22.0907   23.1885 H   0  0  0  0  0  0
  -31.6835  -16.8902   21.2445 H   0  0  0  0  0  0
  -31.2217  -16.9262   19.5957 H   0  0  0  0  0  0
  -30.2888  -25.0606   19.4793 H   0  0  0  0  0  0
  -30.1525  -25.0482   21.1989 H   0  0  0  0  0  0
  -28.9905  -23.9456   22.7253 H   0  0  0  0  0  0
  -28.8840  -22.3922   23.4585 H   0  0  0  0  0  0
  -30.7790  -22.8228   20.0577 H   0  0  0  0  0  0
  -29.2213  -22.8497   19.2835 H   0  0  0  0  0  0
  -27.6459  -24.9869   20.9808 H   0  0  0  0  0  0
  -27.8220  -24.8878   19.2356 H   0  0  0  0  0  0
  -29.1192  -15.5971   21.0281 H   0  0  0  0  0  0
  1 25  1  0  0  0
  1 30  2  0  0  0
  1 84  1  0  0  0
  2  3  1  0  0  0
  2 25  1  0  0  0
  2 87  1  0  0  0
  2 88  1  0  0  0
  3  4  1  0  0  0
  3 89  1  0  0  0
  3 90  1  0  0  0
  4  5  1  0  0  0
  4 91  1  0  0  0
  4 92  1  0  0  0
  5  6  1  0  0  0
  5 26  1  0  0  0
  5 93  1  0  0  0
  6 25  1  0  0  0
  6 94  1  0  0  0
  6 95  1  0  0  0
  7  8  2  0  0  0
  7 26  1  0  0  0
  7 29  1  0  0  0
  8  9  1  0  0  0
  8 22  1  0  0  0
  9 10  1  0  0  0
  9 27  2  0  0  0
 10 11  2  0  0  0
 10 15  1  0  0  0
 11 12  1  0  0  0
 11 96  1  0  0  0
 12 13  2  0  0  0
 12 97  1  0  0  0
 13 14  1  0  0  0
 13 31  1  0  0  0
 14 15  2  0  0  0
 14 98  1  0  0  0
 15 99  1  0  0  0
 16 17  2  0  0  0
 16 21  1  0  0  0
 16 31  1  0  0  0
 17 18  1  0  0  0
 17100  1  0  0  0
 18 19  2  0  0  0
 18101  1  0  0  0
 19 20  1  0  0  0
 19 24  1  0  0  0
 20 21  2  0  0  0
 20102  1  0  0  0
 21 23  1  0  0  0
 22 28  1  0  0  0
 22 32  2  0  0  0
 26 27  1  0  0  0
 28103  1  0  0  0
 28104  1  0  0  0
 29105  1  0  0  0
 29106  1  0  0  0
 33 34  1  0  0  0
 33 66  1  0  0  0
 33 70  2  0  0  0
 34 36  1  0  0  0
 34 59  1  0  0  0
 34107  1  0  0  0
 35 44  2  0  0  0
 35 45  1  0  0  0
 35 68  1  0  0  0
 36 56  1  0  0  0
 36108  1  0  0  0
 37 39  1  0  0  0
 37 47  1  0  0  0
 37 66  1  0  0  0
 37109  1  0  0  0
 38 43  2  0  0  0
 38 46  1  0  0  0
 38 47  1  0  0  0
 39 64  1  0  0  0
 39 67  2  0  0  0
 40 52  1  0  0  0
 40 53  2  0  0  0
 40 58  1  0  0  0
 41110  1  0  0  0
 41111  1  0  0  0
 41112  1  0  0  0
 41 48  1  0  0  0
 42 43  1  0  0  0
 42 66  1  0  0  0
 42113  1  0  0  0
 42114  1  0  0  0
 43 44  1  0  0  0
 44115  1  0  0  0
 45 46  2  0  0  0
 45116  1  0  0  0
 46117  1  0  0  0
 47118  1  0  0  0
 47119  1  0  0  0
 48 56  1  0  0  0
 48 65  1  0  0  0
 48120  1  0  0  0
 49 50  1  0  0  0
 49 53  1  0  0  0
 49 64  1  0  0  0
 49121  1  0  0  0
 50 51  1  0  0  0
 50122  1  0  0  0
 50123  1  0  0  0
 51 52  1  0  0  0
 51124  1  0  0  0
 51125  1  0  0  0
 52126  1  0  0  0
 52127  1  0  0  0
 53 54  1  0  0  0
 54 55  2  0  0  0
 54128  1  0  0  0
 55 57  1  0  0  0
 55129  1  0  0  0
 56 69  2  0  0  0
 57 58  2  0  0  0
 57130  1  0  0  0
 58131  1  0  0  0
 59 60  1  0  0  0
 59 61  1  0  0  0
 59 62  1  0  0  0
 60132  1  0  0  0
 60133  1  0  0  0
 60134  1  0  0  0
 61135  1  0  0  0
 61136  1  0  0  0
 61137  1  0  0  0
 62138  1  0  0  0
 62139  1  0  0  0
 62140  1  0  0  0
 63 65  1  0  0  0
 63141  1  0  0  0
 63142  1  0  0  0
 63143  1  0  0  0
 64144  1  0  0  0
 65145  1  0  0  0
 68 83  1  0  0  0
 71 73  2  0  0  0
 71 75  1  0  0  0
 71146  1  0  0  0
 72 75  2  0  0  0
 72 76  1  0  0  0
 72147  1  0  0  0
 73 74  1  0  0  0
 73 77  1  0  0  0
 74 76  2  0  0  0
 74 79  1  0  0  0
 75 85  1  0  0  0
 76 86  1  0  0  0
 77148  1  0  0  0
 77149  1  0  0  0
 77150  1  0  0  0
 78 81  1  0  0  0
 78151  1  0  0  0
 78152  1  0  0  0
 78153  1  0  0  0
 79 84  1  0  0  0
 79154  1  0  0  0
 79155  1  0  0  0
 80 82  1  0  0  0
 80 83  1  0  0  0
 80156  1  0  0  0
 80157  1  0  0  0
 81 85  1  0  0  0
 81158  1  0  0  0
 81159  1  0  0  0
 82 85  1  0  0  0
 82160  1  0  0  0
 82161  1  0  0  0
 83162  1  0  0  0
 83163  1  0  0  0
 84164  1  0  0  0
M  ISO  4   1 100  68 101  83 101  84 100
M  END
> <chiral flag>
0

> <version>
0

> <s_m_source_file>
/data/baiqing/PycharmProjects/Reinvent-master-3.2/result/LINK_invent/BTK/process_docking_weight1_custom_product_contain_oxygen_bond_distance_aromatic_linkinvent_7_9_3/rearranged_h_0021.sdf

> <i_m_source_file_index>
26

> <r_mmod_Potential_Energy-OPLS-2005>
-9.41676712036133

> <r_mmod_Stretch_Energy-OPLS-2005>
40.9203720092773

> <r_mmod_Bend_Energy-OPLS-2005>
111.206611633301

> <r_mmod_Torsional_Energy-OPLS-2005>
230.133850097656

> <r_mmod_Improper_Torsional_Energy-OPLS-2005>
9.96763038635254

> <r_mmod_Van_der_Waal_Energy-OPLS-2005>
179.098663330078

> <r_mmod_Electrostatic_Energy-OPLS-2005>
-388.933502197266

> <r_mmod_Solvation_Energy-OPLS-2005>
-212.382843017578

> <b_mmod_Minimization_Converged-OPLS-2005>
0

> <r_mmod_RMS_Derivative-OPLS-2005>
5.34208106994629

$$$$
26
                    3D
 Structure written by MMmdl.
184193  0  0  1  0            999 V2000
  -30.7579  -14.4273   20.5047 C   0  0  0  0  0  0
  -30.3986  -12.2646   19.4226 C   0  0  0  0  0  0
  -29.4840  -12.4796   18.2022 C   0  0  0  0  0  0
  -28.0066  -12.3553   18.6180 C   0  0  0  0  0  0
  -27.6573  -13.2103   19.8662 C   0  0  2  0  0  0
  -28.7042  -13.0343   20.9901 C   0  0  0  0  0  0
  -25.2594  -13.8179   20.5702 C   0  0  0  0  0  0
  -24.1850  -13.0458   20.9204 C   0  0  0  0  0  0
  -24.6400  -11.6923   20.8752 C   0  0  0  0  0  0
  -23.9072  -10.4306   21.0397 C   0  0  0  0  0  0
  -24.3618   -9.4226   21.9183 C   0  0  0  0  0  0
  -23.6301   -8.2258   22.0749 C   0  0  0  0  0  0
  -22.4285   -8.0291   21.3540 C   0  0  0  0  0  0
  -21.9920   -9.0260   20.4641 C   0  0  0  0  0  0
  -22.7245  -10.2143   20.3050 C   0  0  0  0  0  0
  -21.6860   -6.0758   22.5287 C   0  0  0  0  0  0
  -21.4006   -6.5650   23.8224 C   0  0  0  0  0  0
  -21.3653   -5.6792   24.9177 C   0  0  0  0  0  0
  -21.6039   -4.3057   24.7213 C   0  0  0  0  0  0
  -21.8825   -3.8160   23.4330 C   0  0  0  0  0  0
  -21.9196   -4.6987   22.3395 C   0  0  0  0  0  0
  -22.7869  -13.5255   21.1851 C   0  0  0  0  0  0
  -22.1670   -4.2181   21.0973 F   0  0  0  0  0  0
  -21.5623   -3.4533   25.7720 F   0  0  0  0  0  0
  -30.0352  -13.2826   20.4184 N   0  0  0  0  0  0
  -26.3016  -12.9352   20.3366 N   0  0  0  0  0  0
  -25.9331  -11.6512   20.5792 N   0  0  0  0  0  0
  -22.0506  -12.8232   22.0388 N   0  0  0  0  0  0
  -25.4313  -15.1885   20.4077 N   0  0  0  0  0  0
  -31.9287  -14.4965   20.1297 O   0  0  0  0  0  0
  -21.6647   -6.8891   21.4241 O   0  0  0  0  0  0
  -22.3562  -14.5585   20.6736 O   0  0  0  0  0  0
  -24.6081  -31.8713   23.2153 C   0  0  0  0  0  0
  -25.9014  -32.4815   23.8417 C   0  0  1  0  0  0
  -27.2580  -27.4953   20.1028 C   0  0  0  0  0  0
  -25.5925  -33.8610   24.2364 N   0  0  0  0  0  0
  -23.3917  -30.4953   21.5513 C   0  0  2  0  0  0
  -24.8416  -28.9619   20.1169 C   0  0  0  0  0  0
  -22.7336  -29.4704   22.5006 C   0  0  0  0  0  0
  -18.0237  -28.1411   22.8488 C   0  0  0  0  0  0
  -24.1484  -36.7312   23.2643 C   0  0  0  0  0  0
  -25.9094  -30.8611   21.3529 C   0  0  0  0  0  0
  -25.9909  -29.4962   20.7084 C   0  0  0  0  0  0
  -27.1981  -28.7761   20.6990 C   0  0  0  0  0  0
  -26.0939  -26.9645   19.5070 C   0  0  0  0  0  0
  -24.8850  -27.6897   19.5150 C   0  0  0  0  0  0
  -23.5976  -29.8204   20.1661 C   0  0  0  0  0  0
  -25.4106  -36.3100   24.0349 C   0  0  1  0  0  0
  -20.5824  -28.3703   23.1324 C   0  0  2  0  0  0
  -20.6740  -26.9448   22.5422 C   0  0  0  0  0  0
  -19.5720  -26.6419   21.5212 C   0  0  0  0  0  0
  -18.1883  -26.7962   22.1609 C   0  0  0  0  0  0
  -19.1481  -28.8867   23.2907 C   0  0  0  0  0  0
  -18.9423  -30.1469   23.8923 C   0  0  0  0  0  0
  -17.6426  -30.6620   24.0580 C   0  0  0  0  0  0
  -25.9033  -34.9460   23.5140 C   0  0  0  0  0  0
  -16.5312  -29.9122   23.6351 C   0  0  0  0  0  0
  -16.7227  -28.6541   23.0366 C   0  0  0  0  0  0
  -26.4505  -31.6562   25.0700 C   0  0  0  0  0  0
  -25.3832  -31.3576   26.1471 C   0  0  0  0  0  0
  -27.0332  -30.3023   24.5993 C   0  0  0  0  0  0
  -27.6058  -32.4295   25.7487 C   0  0  0  0  0  0
  -27.5585  -37.1802   24.8470 C   0  0  0  0  0  0
  -21.4077  -29.3071   22.3742 N   0  0  0  0  0  0
  -26.4289  -37.3783   23.9410 N   0  0  0  0  0  0
  -24.6538  -31.0884   22.1001 N   0  0  0  0  0  0
  -23.4117  -28.8260   23.3052 O   0  0  0  0  0  0
  -28.4038  -26.7356   20.0709 O   0  0  0  0  0  0
  -26.5549  -34.8909   22.4674 O   0  0  0  0  0  0
  -23.5298  -32.1414   23.7621 O   0  0  0  0  0  0
  -32.2741  -18.4993   20.0436 C   0  0  0  0  0  0
  -31.7791  -17.3403   20.6708 C   0  0  0  0  0  0
  -31.5209  -21.9255   20.1690 C   0  0  0  0  0  0
  -31.2947  -23.2451   20.5872 C   0  0  0  0  0  0
  -31.8403  -22.7049   17.8879 C   0  0  0  0  0  0
  -30.1878  -18.7127   18.8059 C   0  0  0  0  0  0
  -31.5854  -24.0356   18.2926 C   0  0  0  0  0  0
  -31.7914  -21.6393   18.8158 C   0  0  0  0  0  0
  -31.4873  -19.1793   19.0924 C   0  0  0  0  0  0
  -30.5094  -16.8182   20.3210 C   0  0  0  0  0  0
  -31.2927  -24.3081   19.6535 C   0  0  0  0  0  0
  -29.7003  -17.5366   19.4111 C   0  0  0  0  0  0
  -32.5051  -19.5822   16.0947 C   0  0  0  0  0  0
  -33.9293  -27.6517   18.8066 C   0  0  0  0  0  0
  -31.4124  -27.8295   15.6675 C   0  0  0  0  0  0
  -31.5365  -25.1333   17.2263 C   0  0  0  0  0  0
  -33.0596  -20.0274   17.4535 C   0  0  0  0  0  0
  -33.4781  -26.6149   17.7632 C   0  0  0  0  0  0
  -31.2394  -27.6123   17.1814 C   0  0  0  0  0  0
  -29.4249  -27.0673   21.0143 C   0  0  0  0  0  0
  -30.2989  -25.8359   21.2248 C   0  0  0  0  0  0
  -30.0788  -15.5475   20.8043 N   0  0  0  0  0  0
  -31.9923  -20.3050   18.4214 N   0  0  0  0  0  0
  -32.0012  -26.4534   17.7249 N   0  3  0  0  0  0
  -31.0213  -25.6080   20.0190 O   0  0  0  0  0  0
  -28.1339  -16.9501   18.9741 Cl  0  0  0  0  0  0
  -31.4472  -12.3120   19.1241 H   0  0  0  0  0  0
  -30.2549  -11.2665   19.8385 H   0  0  0  0  0  0
  -29.7128  -11.7488   17.4257 H   0  0  0  0  0  0
  -29.6655  -13.4626   17.7645 H   0  0  0  0  0  0
  -27.8130  -11.3021   18.8257 H   0  0  0  0  0  0
  -27.3566  -12.6248   17.7854 H   0  0  0  0  0  0
  -27.6884  -14.2493   19.5430 H   0  0  0  0  0  0
  -28.6652  -12.0221   21.3952 H   0  0  0  0  0  0
  -28.4925  -13.7028   21.8265 H   0  0  0  0  0  0
  -25.2757   -9.5719   22.4762 H   0  0  0  0  0  0
  -24.0029   -7.4646   22.7455 H   0  0  0  0  0  0
  -21.0868   -8.8770   19.8925 H   0  0  0  0  0  0
  -22.3706  -10.9681   19.6159 H   0  0  0  0  0  0
  -21.1993   -7.6158   23.9743 H   0  0  0  0  0  0
  -21.1457   -6.0509   25.9086 H   0  0  0  0  0  0
  -22.0600   -2.7626   23.2816 H   0  0  0  0  0  0
  -22.4113  -11.9877   22.4748 H   0  0  0  0  0  0
  -21.1130  -13.1263   22.2610 H   0  0  0  0  0  0
  -24.6584  -15.8382   20.4970 H   0  0  0  0  0  0
  -26.2728  -15.6234   20.0491 H   0  0  0  0  0  0
  -26.7080  -32.5577   23.1200 H   0  0  0  0  0  0
  -25.0171  -33.9790   25.0569 H   0  0  0  0  0  0
  -22.6796  -31.3107   21.4089 H   0  0  0  0  0  0
  -23.3746  -35.9646   23.3300 H   0  0  0  0  0  0
  -24.3601  -36.8932   22.2059 H   0  0  0  0  0  0
  -23.7214  -37.6519   23.6649 H   0  0  0  0  0  0
  -26.0026  -31.6278   20.5823 H   0  0  0  0  0  0
  -26.8023  -30.9224   21.9634 H   0  0  0  0  0  0
  -28.0716  -29.2316   21.1431 H   0  0  0  0  0  0
  -26.1272  -25.9879   19.0438 H   0  0  0  0  0  0
  -24.0016  -27.2693   19.0547 H   0  0  0  0  0  0
  -23.6911  -30.5895   19.3972 H   0  0  0  0  0  0
  -22.7233  -29.2302   19.8829 H   0  0  0  0  0  0
  -25.1272  -36.1978   25.0847 H   0  0  0  0  0  0
  -20.9894  -28.3272   24.1452 H   0  0  0  0  0  0
  -20.5649  -26.2322   23.3620 H   0  0  0  0  0  0
  -21.6608  -26.7512   22.1200 H   0  0  0  0  0  0
  -19.6881  -25.6318   21.1275 H   0  0  0  0  0  0
  -19.6662  -27.3210   20.6720 H   0  0  0  0  0  0
  -17.4170  -26.6721   21.3998 H   0  0  0  0  0  0
  -18.0269  -26.0092   22.8990 H   0  0  0  0  0  0
  -19.7912  -30.7264   24.2297 H   0  0  0  0  0  0
  -17.4999  -31.6300   24.5183 H   0  0  0  0  0  0
  -15.5320  -30.3027   23.7681 H   0  0  0  0  0  0
  -15.8627  -28.0863   22.7089 H   0  0  0  0  0  0
  -24.6064  -30.6845   25.7834 H   0  0  0  0  0  0
  -24.8960  -32.2664   26.4988 H   0  0  0  0  0  0
  -25.8279  -30.8745   27.0177 H   0  0  0  0  0  0
  -26.2804  -29.6747   24.1198 H   0  0  0  0  0  0
  -27.4287  -29.7285   25.4388 H   0  0  0  0  0  0
  -27.8562  -30.4357   23.8966 H   0  0  0  0  0  0
  -27.2641  -33.3575   26.2087 H   0  0  0  0  0  0
  -28.3883  -32.6896   25.0343 H   0  0  0  0  0  0
  -28.0703  -31.8404   26.5409 H   0  0  0  0  0  0
  -28.2577  -38.0125   24.7554 H   0  0  0  0  0  0
  -28.1109  -36.2654   24.6255 H   0  0  0  0  0  0
  -27.2306  -37.1400   25.8876 H   0  0  0  0  0  0
  -20.9242  -29.8776   21.6951 H   0  0  0  0  0  0
  -26.0190  -38.2870   24.1430 H   0  0  0  0  0  0
  -33.2685  -18.8540   20.2831 H   0  0  0  0  0  0
  -32.4124  -16.8160   21.3729 H   0  0  0  0  0  0
  -31.4890  -21.1401   20.9086 H   0  0  0  0  0  0
  -31.1157  -23.4152   21.6374 H   0  0  0  0  0  0
  -32.0291  -22.5037   16.8424 H   0  0  0  0  0  0
  -29.5762  -19.2344   18.0836 H   0  0  0  0  0  0
  -33.3152  -19.4195   15.3833 H   0  0  0  0  0  0
  -31.8395  -20.3313   15.6667 H   0  0  0  0  0  0
  -31.9533  -18.6458   16.1721 H   0  0  0  0  0  0
  -35.0164  -27.7080   18.8429 H   0  0  0  0  0  0
  -33.5822  -27.3854   19.8049 H   0  0  0  0  0  0
  -33.5683  -28.6555   18.5823 H   0  0  0  0  0  0
  -30.7876  -28.6573   15.3294 H   0  0  0  0  0  0
  -31.1141  -26.9533   15.0898 H   0  0  0  0  0  0
  -32.4433  -28.0733   15.4091 H   0  0  0  0  0  0
  -30.4959  -25.2009   16.9047 H   0  0  0  0  0  0
  -32.1109  -24.8466   16.3448 H   0  0  0  0  0  0
  -33.6977  -20.9016   17.3180 H   0  0  0  0  0  0
  -33.7215  -19.2506   17.8427 H   0  0  0  0  0  0
  -33.9324  -25.6581   18.0256 H   0  0  0  0  0  0
  -33.8681  -26.8640   16.7751 H   0  0  0  0  0  0
  -30.1809  -27.4731   17.4076 H   0  0  0  0  0  0
  -31.5242  -28.5231   17.7083 H   0  0  0  0  0  0
  -30.0188  -27.9159   20.6690 H   0  0  0  0  0  0
  -28.9904  -27.3274   21.9810 H   0  0  0  0  0  0
  -29.6426  -25.0120   21.5023 H   0  0  0  0  0  0
  -31.0029  -26.0030   22.0429 H   0  0  0  0  0  0
  -29.0898  -15.4265   20.9552 H   0  0  0  0  0  0
  -31.7155  -26.3914   18.6969 H   0  0  0  0  0  0
  1 25  1  0  0  0
  1 30  2  0  0  0
  1 92  1  0  0  0
  2  3  1  0  0  0
  2 25  1  0  0  0
  2 97  1  0  0  0
  2 98  1  0  0  0
  3  4  1  0  0  0
  3 99  1  0  0  0
  3100  1  0  0  0
  4  5  1  0  0  0
  4101  1  0  0  0
  4102  1  0  0  0
  5  6  1  0  0  0
  5 26  1  0  0  0
  5103  1  0  0  0
  6 25  1  0  0  0
  6104  1  0  0  0
  6105  1  0  0  0
  7  8  2  0  0  0
  7 26  1  0  0  0
  7 29  1  0  0  0
  8  9  1  0  0  0
  8 22  1  0  0  0
  9 10  1  0  0  0
  9 27  2  0  0  0
 10 11  2  0  0  0
 10 15  1  0  0  0
 11 12  1  0  0  0
 11106  1  0  0  0
 12 13  2  0  0  0
 12107  1  0  0  0
 13 14  1  0  0  0
 13 31  1  0  0  0
 14 15  2  0  0  0
 14108  1  0  0  0
 15109  1  0  0  0
 16 17  2  0  0  0
 16 21  1  0  0  0
 16 31  1  0  0  0
 17 18  1  0  0  0
 17110  1  0  0  0
 18 19  2  0  0  0
 18111  1  0  0  0
 19 20  1  0  0  0
 19 24  1  0  0  0
 20 21  2  0  0  0
 20112  1  0  0  0
 21 23  1  0  0  0
 22 28  1  0  0  0
 22 32  2  0  0  0
 26 27  1  0  0  0
 28113  1  0  0  0
 28114  1  0  0  0
 29115  1  0  0  0
 29116  1  0  0  0
 33 34  1  0  0  0
 33 66  1  0  0  0
 33 70  2  0  0  0
 34 36  1  0  0  0
 34 59  1  0  0  0
 34117  1  0  0  0
 35 44  2  0  0  0
 35 45  1  0  0  0
 35 68  1  0  0  0
 36 56  1  0  0  0
 36118  1  0  0  0
 37 39  1  0  0  0
 37 47  1  0  0  0
 37 66  1  0  0  0
 37119  1  0  0  0
 38 43  2  0  0  0
 38 46  1  0  0  0
 38 47  1  0  0  0
 39 64  1  0  0  0
 39 67  2  0  0  0
 40 52  1  0  0  0
 40 53  2  0  0  0
 40 58  1  0  0  0
 41120  1  0  0  0
 41121  1  0  0  0
 41122  1  0  0  0
 41 48  1  0  0  0
 42 43  1  0  0  0
 42 66  1  0  0  0
 42123  1  0  0  0
 42124  1  0  0  0
 43 44  1  0  0  0
 44125  1  0  0  0
 45 46  2  0  0  0
 45126  1  0  0  0
 46127  1  0  0  0
 47128  1  0  0  0
 47129  1  0  0  0
 48 56  1  0  0  0
 48 65  1  0  0  0
 48130  1  0  0  0
 49 50  1  0  0  0
 49 53  1  0  0  0
 49 64  1  0  0  0
 49131  1  0  0  0
 50 51  1  0  0  0
 50132  1  0  0  0
 50133  1  0  0  0
 51 52  1  0  0  0
 51134  1  0  0  0
 51135  1  0  0  0
 52136  1  0  0  0
 52137  1  0  0  0
 53 54  1  0  0  0
 54 55  2  0  0  0
 54138  1  0  0  0
 55 57  1  0  0  0
 55139  1  0  0  0
 56 69  2  0  0  0
 57 58  2  0  0  0
 57140  1  0  0  0
 58141  1  0  0  0
 59 60  1  0  0  0
 59 61  1  0  0  0
 59 62  1  0  0  0
 60142  1  0  0  0
 60143  1  0  0  0
 60144  1  0  0  0
 61145  1  0  0  0
 61146  1  0  0  0
 61147  1  0  0  0
 62148  1  0  0  0
 62149  1  0  0  0
 62150  1  0  0  0
 63 65  1  0  0  0
 63151  1  0  0  0
 63152  1  0  0  0
 63153  1  0  0  0
 64154  1  0  0  0
 65155  1  0  0  0
 68 90  1  0  0  0
 71 72  2  0  0  0
 71 79  1  0  0  0
 71156  1  0  0  0
 72 80  1  0  0  0
 72157  1  0  0  0
 73 74  2  0  0  0
 73 78  1  0  0  0
 73158  1  0  0  0
 74 81  1  0  0  0
 74159  1  0  0  0
 75 77  1  0  0  0
 75 78  2  0  0  0
 75160  1  0  0  0
 76 79  2  0  0  0
 76 82  1  0  0  0
 76161  1  0  0  0
 77 81  2  0  0  0
 77 86  1  0  0  0
 78 93  1  0  0  0
 79 93  1  0  0  0
 80 82  2  0  0  0
 80 92  1  0  0  0
 81 95  1  0  0  0
 82 96  1  0  0  0
 83 87  1  0  0  0
 83162  1  0  0  0
 83163  1  0  0  0
 83164  1  0  0  0
 84 88  1  0  0  0
 84165  1  0  0  0
 84166  1  0  0  0
 84167  1  0  0  0
 85 89  1  0  0  0
 85168  1  0  0  0
 85169  1  0  0  0
 85170  1  0  0  0
 86171  1  0  0  0
 86172  1  0  0  0
 86 94  1  0  0  0
 87 93  1  0  0  0
 87173  1  0  0  0
 87174  1  0  0  0
 88 94  1  0  0  0
 88175  1  0  0  0
 88176  1  0  0  0
 89 94  1  0  0  0
 89177  1  0  0  0
 89178  1  0  0  0
 90 91  1  0  0  0
 90179  1  0  0  0
 90180  1  0  0  0
 91 95  1  0  0  0
 91181  1  0  0  0
 91182  1  0  0  0
 92183  1  0  0  0
 94184  1  0  0  0
M  CHG  1  94   1
M  ISO  4   1 100  68 101  90 101  92 100
M  END
> <chiral flag>
0

> <version>
0

> <s_m_source_file>
/data/baiqing/PycharmProjects/Reinvent-master-3.2/result/LINK_invent/BTK/process_docking_weight1_custom_product_contain_oxygen_bond_distance_aromatic_linkinvent_7_9_3/rearranged_h_0021.sdf

> <i_m_source_file_index>
27

> <r_mmod_Potential_Energy-OPLS-2005>
-185.954574584961

> <r_mmod_Stretch_Energy-OPLS-2005>
36.8204917907715

> <r_mmod_Bend_Energy-OPLS-2005>
113.03059387207

> <r_mmod_Torsional_Energy-OPLS-2005>
274.110290527344

> <r_mmod_Improper_Torsional_Energy-OPLS-2005>
8.29958629608154

> <r_mmod_Van_der_Waal_Energy-OPLS-2005>
187.672698974609

> <r_mmod_Electrostatic_Energy-OPLS-2005>
-427.420318603516

> <r_mmod_Solvation_Energy-OPLS-2005>
-394.459350585938

> <b_mmod_Minimization_Converged-OPLS-2005>
0

> <r_mmod_RMS_Derivative-OPLS-2005>
3.12357544898987

$$$$
27
                    3D
 Structure written by MMmdl.
172182  0  0  1  0            999 V2000
  -30.7057  -14.4945   20.5531 C   0  0  0  0  0  0
  -30.4147  -12.3153   19.4272 C   0  0  0  0  0  0
  -29.4901  -12.5007   18.2070 C   0  0  0  0  0  0
  -28.0131  -12.3597   18.6218 C   0  0  0  0  0  0
  -27.6568  -13.2115   19.8698 C   0  0  2  0  0  0
  -28.7003  -13.0227   20.9941 C   0  0  0  0  0  0
  -25.2577  -13.8169   20.5682 C   0  0  0  0  0  0
  -24.1838  -13.0440   20.9182 C   0  0  0  0  0  0
  -24.6400  -11.6909   20.8741 C   0  0  0  0  0  0
  -23.9071  -10.4293   21.0410 C   0  0  0  0  0  0
  -24.3623   -9.4207   21.9187 C   0  0  0  0  0  0
  -23.6297   -8.2244   22.0754 C   0  0  0  0  0  0
  -22.4276   -8.0282   21.3545 C   0  0  0  0  0  0
  -21.9917   -9.0256   20.4642 C   0  0  0  0  0  0
  -22.7248  -10.2135   20.3055 C   0  0  0  0  0  0
  -21.6856   -6.0742   22.5283 C   0  0  0  0  0  0
  -21.4015   -6.5642   23.8215 C   0  0  0  0  0  0
  -21.3654   -5.6789   24.9172 C   0  0  0  0  0  0
  -21.6043   -4.3053   24.7218 C   0  0  0  0  0  0
  -21.8820   -3.8152   23.4335 C   0  0  0  0  0  0
  -21.9193   -4.6972   22.3399 C   0  0  0  0  0  0
  -22.7863  -13.5244   21.1846 C   0  0  0  0  0  0
  -22.1663   -4.2159   21.0979 F   0  0  0  0  0  0
  -21.5622   -3.4533   25.7733 F   0  0  0  0  0  0
  -30.0265  -13.3196   20.4321 N   0  0  0  0  0  0
  -26.3009  -12.9347   20.3355 N   0  0  0  0  0  0
  -25.9329  -11.6504   20.5780 N   0  0  0  0  0  0
  -22.0512  -12.8217   22.0396 N   0  0  0  0  0  0
  -25.4303  -15.1887   20.4077 N   0  0  0  0  0  0
  -31.8448  -14.6348   20.0997 O   0  0  0  0  0  0
  -21.6637   -6.8882   21.4246 O   0  0  0  0  0  0
  -22.3545  -14.5563   20.6717 O   0  0  0  0  0  0
  -24.6158  -31.8656   23.2095 C   0  0  0  0  0  0
  -25.9045  -32.4806   23.8391 C   0  0  1  0  0  0
  -27.2260  -27.4252   20.0990 C   0  0  0  0  0  0
  -25.5901  -33.8606   24.2323 N   0  0  0  0  0  0
  -23.4049  -30.4912   21.5482 C   0  0  2  0  0  0
  -24.8522  -28.9613   20.1079 C   0  0  0  0  0  0
  -22.7421  -29.4656   22.4959 C   0  0  0  0  0  0
  -18.0269  -28.1397   22.8480 C   0  0  0  0  0  0
  -24.1484  -36.7296   23.2640 C   0  0  0  0  0  0
  -25.9348  -30.8319   21.3625 C   0  0  0  0  0  0
  -26.0142  -29.4677   20.7050 C   0  0  0  0  0  0
  -27.2096  -28.7085   20.6951 C   0  0  0  0  0  0
  -26.0531  -26.9437   19.4808 C   0  0  0  0  0  0
  -24.8674  -27.7002   19.4885 C   0  0  0  0  0  0
  -23.6134  -29.8265   20.1617 C   0  0  0  0  0  0
  -25.4107  -36.3098   24.0340 C   0  0  1  0  0  0
  -20.5861  -28.3682   23.1297 C   0  0  2  0  0  0
  -20.6768  -26.9415   22.5408 C   0  0  0  0  0  0
  -19.5746  -26.6397   21.5207 C   0  0  0  0  0  0
  -18.1920  -26.7945   22.1610 C   0  0  0  0  0  0
  -19.1523  -28.8853   23.2892 C   0  0  0  0  0  0
  -18.9449  -30.1457   23.8915 C   0  0  0  0  0  0
  -17.6453  -30.6596   24.0575 C   0  0  0  0  0  0
  -25.9035  -34.9464   23.5128 C   0  0  0  0  0  0
  -16.5340  -29.9100   23.6340 C   0  0  0  0  0  0
  -16.7258  -28.6523   23.0347 C   0  0  0  0  0  0
  -26.4487  -31.6588   25.0714 C   0  0  0  0  0  0
  -25.3774  -31.3655   26.1470 C   0  0  0  0  0  0
  -27.0326  -30.3036   24.6074 C   0  0  0  0  0  0
  -27.6058  -32.4318   25.7472 C   0  0  0  0  0  0
  -27.5589  -37.1785   24.8460 C   0  0  0  0  0  0
  -21.4144  -29.3049   22.3706 N   0  0  0  0  0  0
  -26.4282  -37.3795   23.9434 N   0  0  0  0  0  0
  -24.6703  -31.0763   22.0991 N   0  0  0  0  0  0
  -23.4184  -28.8193   23.3007 O   0  0  0  0  0  0
  -28.3453  -26.6201   20.1352 O   0  0  0  0  0  0
  -26.5598  -34.8918   22.4687 O   0  0  0  0  0  0
  -23.5347  -32.1399   23.7488 O   0  0  0  0  0  0
  -32.1475  -18.5830   21.6473 C   0  0  0  0  0  0
  -31.7554  -17.2437   21.4903 C   0  0  0  0  0  0
  -29.4847  -17.9785   21.0336 C   0  0  0  0  0  0
  -29.8628  -19.3436   21.1981 C   0  0  0  0  0  0
  -31.2215  -19.6388   21.5011 C   0  0  0  0  0  0
  -30.4204  -16.9151   21.1650 C   0  0  0  0  0  0
  -33.5948  -22.3611   21.8362 C   0  0  0  0  0  0
  -32.6816  -22.5988   23.0377 C   0  0  0  0  0  0
  -28.6518  -23.5963   19.1474 C   0  0  0  0  0  0
  -32.8046  -21.4157   20.9238 C   0  0  0  0  0  0
  -31.8497  -21.3246   23.0926 C   0  0  0  0  0  0
  -29.0690  -22.1071   19.2322 C   0  0  0  0  0  0
  -28.7398  -22.9623   21.4307 C   0  0  0  0  0  0
  -28.9779  -24.1890   20.5238 C   0  0  2  0  0  0
  -28.7750  -20.4455   21.1455 C   0  0  0  0  0  0
  -28.1574  -25.4392   20.9455 C   0  0  0  0  0  0
  -31.6432  -20.9667   21.6952 N   0  0  0  0  0  0
  -29.9968  -15.5462   21.0312 N   0  0  0  0  0  0
  -29.2329  -21.7889   20.6712 N   0  3  1  0  0  0
  -31.4607  -12.4006   19.1271 H   0  0  0  0  0  0
  -30.3059  -11.3108   19.8402 H   0  0  0  0  0  0
  -29.7317  -11.7697   17.4346 H   0  0  0  0  0  0
  -29.6547  -13.4831   17.7620 H   0  0  0  0  0  0
  -27.8295  -11.3043   18.8289 H   0  0  0  0  0  0
  -27.3599  -12.6219   17.7880 H   0  0  0  0  0  0
  -27.6918  -14.2545   19.5547 H   0  0  0  0  0  0
  -28.6800  -11.9971   21.3650 H   0  0  0  0  0  0
  -28.4654  -13.6499   21.8553 H   0  0  0  0  0  0
  -25.2775   -9.5679   22.4757 H   0  0  0  0  0  0
  -24.0007   -7.4636   22.7476 H   0  0  0  0  0  0
  -21.0851   -8.8777   19.8948 H   0  0  0  0  0  0
  -22.3717  -10.9672   19.6159 H   0  0  0  0  0  0
  -21.2009   -7.6147   23.9725 H   0  0  0  0  0  0
  -21.1470   -6.0515   25.9077 H   0  0  0  0  0  0
  -22.0600   -2.7616   23.2837 H   0  0  0  0  0  0
  -22.4122  -11.9849   22.4736 H   0  0  0  0  0  0
  -21.1135  -13.1237   22.2633 H   0  0  0  0  0  0
  -24.6620  -15.8432   20.5064 H   0  0  0  0  0  0
  -26.2747  -15.6222   20.0573 H   0  0  0  0  0  0
  -26.7113  -32.5521   23.1155 H   0  0  0  0  0  0
  -25.0092  -33.9773   25.0496 H   0  0  0  0  0  0
  -22.6945  -31.3088   21.4094 H   0  0  0  0  0  0
  -23.3764  -35.9606   23.3260 H   0  0  0  0  0  0
  -24.3597  -36.8956   22.2064 H   0  0  0  0  0  0
  -23.7205  -37.6474   23.6679 H   0  0  0  0  0  0
  -26.0479  -31.6009   20.5971 H   0  0  0  0  0  0
  -26.8219  -30.8835   21.9819 H   0  0  0  0  0  0
  -28.1051  -29.0905   21.1647 H   0  0  0  0  0  0
  -26.0507  -25.9718   19.0074 H   0  0  0  0  0  0
  -23.9753  -27.3082   19.0207 H   0  0  0  0  0  0
  -23.7196  -30.6026   19.4028 H   0  0  0  0  0  0
  -22.7382  -29.2453   19.8657 H   0  0  0  0  0  0
  -25.1280  -36.1949   25.0830 H   0  0  0  0  0  0
  -20.9948  -28.3255   24.1419 H   0  0  0  0  0  0
  -20.5668  -26.2293   23.3604 H   0  0  0  0  0  0
  -21.6641  -26.7464   22.1194 H   0  0  0  0  0  0
  -19.6911  -25.6308   21.1236 H   0  0  0  0  0  0
  -19.6696  -27.3223   20.6752 H   0  0  0  0  0  0
  -17.4189  -26.6685   21.4012 H   0  0  0  0  0  0
  -18.0326  -26.0091   22.9006 H   0  0  0  0  0  0
  -19.7924  -30.7276   24.2288 H   0  0  0  0  0  0
  -17.5005  -31.6282   24.5172 H   0  0  0  0  0  0
  -15.5345  -30.3009   23.7674 H   0  0  0  0  0  0
  -15.8647  -28.0864   22.7045 H   0  0  0  0  0  0
  -24.5969  -30.6974   25.7808 H   0  0  0  0  0  0
  -24.8945  -32.2789   26.4949 H   0  0  0  0  0  0
  -25.8164  -30.8813   27.0203 H   0  0  0  0  0  0
  -26.2848  -29.6765   24.1197 H   0  0  0  0  0  0
  -27.4192  -29.7298   25.4509 H   0  0  0  0  0  0
  -27.8643  -30.4363   23.9150 H   0  0  0  0  0  0
  -27.2675  -33.3623   26.2040 H   0  0  0  0  0  0
  -28.3866  -32.6870   25.0296 H   0  0  0  0  0  0
  -28.0722  -31.8450   26.5394 H   0  0  0  0  0  0
  -28.2551  -38.0141   24.7598 H   0  0  0  0  0  0
  -28.1149  -36.2680   24.6169 H   0  0  0  0  0  0
  -27.2322  -37.1277   25.8862 H   0  0  0  0  0  0
  -20.9304  -29.8763   21.6921 H   0  0  0  0  0  0
  -26.0162  -38.2854   24.1502 H   0  0  0  0  0  0
  -33.1756  -18.7911   21.9082 H   0  0  0  0  0  0
  -32.4997  -16.4750   21.6407 H   0  0  0  0  0  0
  -28.4502  -17.7455   20.8207 H   0  0  0  0  0  0
  -34.5150  -21.8721   22.1582 H   0  0  0  0  0  0
  -33.8727  -23.2886   21.3341 H   0  0  0  0  0  0
  -32.0358  -23.4585   22.8513 H   0  0  0  0  0  0
  -33.2300  -22.7842   23.9618 H   0  0  0  0  0  0
  -27.5798  -23.6654   18.9583 H   0  0  0  0  0  0
  -29.1568  -24.1260   18.3390 H   0  0  0  0  0  0
  -33.4380  -20.5988   20.5733 H   0  0  0  0  0  0
  -32.4619  -21.9491   20.0356 H   0  0  0  0  0  0
  -30.9057  -21.4860   23.6160 H   0  0  0  0  0  0
  -32.3913  -20.5363   23.6200 H   0  0  0  0  0  0
  -30.0181  -21.9315   18.7245 H   0  0  0  0  0  0
  -28.3212  -21.4755   18.7506 H   0  0  0  0  0  0
  -27.6717  -22.8411   21.6214 H   0  0  0  0  0  0
  -29.2384  -23.0552   22.3969 H   0  0  0  0  0  0
  -30.0394  -24.4387   20.5512 H   0  0  0  0  0  0
  -28.4155  -20.5459   22.1699 H   0  0  0  0  0  0
  -27.9146  -20.1118   20.5651 H   0  0  0  0  0  0
  -28.4428  -25.7109   21.9625 H   0  0  0  0  0  0
  -27.1079  -25.1488   21.0141 H   0  0  0  0  0  0
  -29.0298  -15.3499   21.2386 H   0  0  0  0  0  0
  -30.2336  -21.7499   20.8636 H   0  0  0  0  0  0
  1 25  1  0  0  0
  1 30  2  0  0  0
  1 88  1  0  0  0
  2  3  1  0  0  0
  2 25  1  0  0  0
  2 90  1  0  0  0
  2 91  1  0  0  0
  3  4  1  0  0  0
  3 92  1  0  0  0
  3 93  1  0  0  0
  4  5  1  0  0  0
  4 94  1  0  0  0
  4 95  1  0  0  0
  5  6  1  0  0  0
  5 26  1  0  0  0
  5 96  1  0  0  0
  6 25  1  0  0  0
  6 97  1  0  0  0
  6 98  1  0  0  0
  7  8  2  0  0  0
  7 26  1  0  0  0
  7 29  1  0  0  0
  8  9  1  0  0  0
  8 22  1  0  0  0
  9 10  1  0  0  0
  9 27  2  0  0  0
 10 11  2  0  0  0
 10 15  1  0  0  0
 11 12  1  0  0  0
 11 99  1  0  0  0
 12 13  2  0  0  0
 12100  1  0  0  0
 13 14  1  0  0  0
 13 31  1  0  0  0
 14 15  2  0  0  0
 14101  1  0  0  0
 15102  1  0  0  0
 16 17  2  0  0  0
 16 21  1  0  0  0
 16 31  1  0  0  0
 17 18  1  0  0  0
 17103  1  0  0  0
 18 19  2  0  0  0
 18104  1  0  0  0
 19 20  1  0  0  0
 19 24  1  0  0  0
 20 21  2  0  0  0
 20105  1  0  0  0
 21 23  1  0  0  0
 22 28  1  0  0  0
 22 32  2  0  0  0
 26 27  1  0  0  0
 28106  1  0  0  0
 28107  1  0  0  0
 29108  1  0  0  0
 29109  1  0  0  0
 33 34  1  0  0  0
 33 66  1  0  0  0
 33 70  2  0  0  0
 34 36  1  0  0  0
 34 59  1  0  0  0
 34110  1  0  0  0
 35 44  2  0  0  0
 35 45  1  0  0  0
 35 68  1  0  0  0
 36 56  1  0  0  0
 36111  1  0  0  0
 37 39  1  0  0  0
 37 47  1  0  0  0
 37 66  1  0  0  0
 37112  1  0  0  0
 38 43  2  0  0  0
 38 46  1  0  0  0
 38 47  1  0  0  0
 39 64  1  0  0  0
 39 67  2  0  0  0
 40 52  1  0  0  0
 40 53  2  0  0  0
 40 58  1  0  0  0
 41113  1  0  0  0
 41114  1  0  0  0
 41115  1  0  0  0
 41 48  1  0  0  0
 42 43  1  0  0  0
 42 66  1  0  0  0
 42116  1  0  0  0
 42117  1  0  0  0
 43 44  1  0  0  0
 44118  1  0  0  0
 45 46  2  0  0  0
 45119  1  0  0  0
 46120  1  0  0  0
 47121  1  0  0  0
 47122  1  0  0  0
 48 56  1  0  0  0
 48 65  1  0  0  0
 48123  1  0  0  0
 49 50  1  0  0  0
 49 53  1  0  0  0
 49 64  1  0  0  0
 49124  1  0  0  0
 50 51  1  0  0  0
 50125  1  0  0  0
 50126  1  0  0  0
 51 52  1  0  0  0
 51127  1  0  0  0
 51128  1  0  0  0
 52129  1  0  0  0
 52130  1  0  0  0
 53 54  1  0  0  0
 54 55  2  0  0  0
 54131  1  0  0  0
 55 57  1  0  0  0
 55132  1  0  0  0
 56 69  2  0  0  0
 57 58  2  0  0  0
 57133  1  0  0  0
 58134  1  0  0  0
 59 60  1  0  0  0
 59 61  1  0  0  0
 59 62  1  0  0  0
 60135  1  0  0  0
 60136  1  0  0  0
 60137  1  0  0  0
 61138  1  0  0  0
 61139  1  0  0  0
 61140  1  0  0  0
 62141  1  0  0  0
 62142  1  0  0  0
 62143  1  0  0  0
 63 65  1  0  0  0
 63144  1  0  0  0
 63145  1  0  0  0
 63146  1  0  0  0
 64147  1  0  0  0
 65148  1  0  0  0
 68 86  1  0  0  0
 71 72  2  0  0  0
 71 75  1  0  0  0
 71149  1  0  0  0
 72 76  1  0  0  0
 72150  1  0  0  0
 73 74  1  0  0  0
 73 76  2  0  0  0
 73151  1  0  0  0
 74 75  2  0  0  0
 74 85  1  0  0  0
 75 87  1  0  0  0
 76 88  1  0  0  0
 77 78  1  0  0  0
 77 80  1  0  0  0
 77152  1  0  0  0
 77153  1  0  0  0
 78 81  1  0  0  0
 78154  1  0  0  0
 78155  1  0  0  0
 79 82  1  0  0  0
 79 84  1  0  0  0
 79156  1  0  0  0
 79157  1  0  0  0
 80 87  1  0  0  0
 80158  1  0  0  0
 80159  1  0  0  0
 81 87  1  0  0  0
 81160  1  0  0  0
 81161  1  0  0  0
 82 89  1  0  0  0
 82162  1  0  0  0
 82163  1  0  0  0
 83 84  1  0  0  0
 83 89  1  0  0  0
 83164  1  0  0  0
 83165  1  0  0  0
 84 86  1  0  0  0
 84166  1  0  0  0
 85167  1  0  0  0
 85168  1  0  0  0
 85 89  1  0  0  0
 86169  1  0  0  0
 86170  1  0  0  0
 88171  1  0  0  0
 89172  1  0  0  0
M  CHG  1  89   1
M  ISO  4   1 100  68 101  86 101  88 100
M  END
> <chiral flag>
0

> <version>
0

> <s_m_source_file>
/data/baiqing/PycharmProjects/Reinvent-master-3.2/result/LINK_invent/BTK/process_docking_weight1_custom_product_contain_oxygen_bond_distance_aromatic_linkinvent_7_9_3/rearranged_h_0021.sdf

> <i_m_source_file_index>
28

> <r_mmod_Potential_Energy-OPLS-2005>
-33.104377746582

> <r_mmod_Stretch_Energy-OPLS-2005>
44.1758155822754

> <r_mmod_Bend_Energy-OPLS-2005>
152.933319091797

> <r_mmod_Torsional_Energy-OPLS-2005>
381.7958984375

> <r_mmod_Improper_Torsional_Energy-OPLS-2005>
9.56585025787354

> <r_mmod_Van_der_Waal_Energy-OPLS-2005>
155.992126464844

> <r_mmod_Electrostatic_Energy-OPLS-2005>
-379.404022216797

> <r_mmod_Solvation_Energy-OPLS-2005>
-415.631378173828

> <b_mmod_Minimization_Converged-OPLS-2005>
0

> <r_mmod_RMS_Derivative-OPLS-2005>
1.21843004226685

$$$$
28
                    3D
 Structure written by MMmdl.
161170  0  0  1  0            999 V2000
  -30.7525  -14.4563   20.6136 C   0  0  0  0  0  0
  -30.4172  -12.3197   19.4147 C   0  0  0  0  0  0
  -29.4879  -12.5082   18.2004 C   0  0  0  0  0  0
  -28.0140  -12.3485   18.6184 C   0  0  0  0  0  0
  -27.6562  -13.1963   19.8661 C   0  0  2  0  0  0
  -28.7025  -13.0068   20.9897 C   0  0  0  0  0  0
  -25.2587  -13.8128   20.5676 C   0  0  0  0  0  0
  -24.1837  -13.0423   20.9190 C   0  0  0  0  0  0
  -24.6376  -11.6885   20.8741 C   0  0  0  0  0  0
  -23.9038  -10.4283   21.0410 C   0  0  0  0  0  0
  -24.3597   -9.4201   21.9185 C   0  0  0  0  0  0
  -23.6280   -8.2236   22.0754 C   0  0  0  0  0  0
  -22.4264   -8.0274   21.3545 C   0  0  0  0  0  0
  -21.9894   -9.0244   20.4645 C   0  0  0  0  0  0
  -22.7214  -10.2124   20.3056 C   0  0  0  0  0  0
  -21.6847   -6.0730   22.5279 C   0  0  0  0  0  0
  -21.4007   -6.5633   23.8211 C   0  0  0  0  0  0
  -21.3661   -5.6788   24.9174 C   0  0  0  0  0  0
  -21.6047   -4.3050   24.7227 C   0  0  0  0  0  0
  -21.8820   -3.8141   23.4347 C   0  0  0  0  0  0
  -21.9190   -4.6957   22.3403 C   0  0  0  0  0  0
  -22.7865  -13.5239   21.1847 C   0  0  0  0  0  0
  -22.1662   -4.2144   21.0979 F   0  0  0  0  0  0
  -21.5634   -3.4535   25.7742 F   0  0  0  0  0  0
  -30.0347  -13.3087   20.4373 N   0  0  0  0  0  0
  -26.3000  -12.9269   20.3335 N   0  0  0  0  0  0
  -25.9297  -11.6446   20.5759 N   0  0  0  0  0  0
  -22.0496  -12.8240   22.0401 N   0  0  0  0  0  0
  -25.4306  -15.1847   20.4069 N   0  0  0  0  0  0
  -31.8550  -14.6308   20.0844 O   0  0  0  0  0  0
  -21.6629   -6.8873   21.4241 O   0  0  0  0  0  0
  -22.3562  -14.5547   20.6690 O   0  0  0  0  0  0
  -24.6143  -31.8688   23.2115 C   0  0  0  0  0  0
  -25.9031  -32.4827   23.8414 C   0  0  1  0  0  0
  -27.2288  -27.4286   20.0931 C   0  0  0  0  0  0
  -25.5887  -33.8625   24.2341 N   0  0  0  0  0  0
  -23.4029  -30.4943   21.5525 C   0  0  2  0  0  0
  -24.8483  -28.9664   20.1127 C   0  0  0  0  0  0
  -22.7408  -29.4663   22.4985 C   0  0  0  0  0  0
  -18.0266  -28.1382   22.8494 C   0  0  0  0  0  0
  -24.1485  -36.7319   23.2638 C   0  0  0  0  0  0
  -25.9342  -30.8339   21.3660 C   0  0  0  0  0  0
  -26.0114  -29.4704   20.7081 C   0  0  0  0  0  0
  -27.2058  -28.7106   20.6928 C   0  0  0  0  0  0
  -26.0444  -26.9504   19.4815 C   0  0  0  0  0  0
  -24.8602  -27.7064   19.4957 C   0  0  0  0  0  0
  -23.6109  -29.8327   20.1653 C   0  0  0  0  0  0
  -25.4106  -36.3115   24.0340 C   0  0  1  0  0  0
  -20.5858  -28.3672   23.1315 C   0  0  2  0  0  0
  -20.6763  -26.9409   22.5416 C   0  0  0  0  0  0
  -19.5739  -26.6392   21.5214 C   0  0  0  0  0  0
  -18.1916  -26.7932   22.1624 C   0  0  0  0  0  0
  -19.1516  -28.8839   23.2904 C   0  0  0  0  0  0
  -18.9442  -30.1449   23.8913 C   0  0  0  0  0  0
  -17.6446  -30.6587   24.0567 C   0  0  0  0  0  0
  -25.9032  -34.9475   23.5139 C   0  0  0  0  0  0
  -16.5337  -29.9090   23.6325 C   0  0  0  0  0  0
  -16.7257  -28.6512   23.0346 C   0  0  0  0  0  0
  -26.4461  -31.6602   25.0737 C   0  0  0  0  0  0
  -25.3720  -31.3688   26.1478 C   0  0  0  0  0  0
  -27.0305  -30.3049   24.6121 C   0  0  0  0  0  0
  -27.6047  -32.4317   25.7475 C   0  0  0  0  0  0
  -27.5584  -37.1810   24.8464 C   0  0  0  0  0  0
  -21.4133  -29.3039   22.3723 N   0  0  0  0  0  0
  -26.4298  -37.3795   23.9408 N   0  0  0  0  0  0
  -24.6689  -31.0790   22.1018 N   0  0  0  0  0  0
  -23.4179  -28.8197   23.3021 O   0  0  0  0  0  0
  -28.3836  -26.6656   20.1298 O   0  0  0  0  0  0
  -26.5595  -34.8916   22.4703 O   0  0  0  0  0  0
  -23.5336  -32.1438   23.7506 O   0  0  0  0  0  0
  -30.0359  -18.3375   19.8430 C   0  0  0  0  0  0
  -30.1670  -19.7390   19.7142 C   0  0  0  0  0  0
  -29.1047  -20.0353   21.8709 C   0  0  0  0  0  0
  -29.4089  -17.7729   20.9741 C   0  0  0  0  0  0
  -29.6733  -20.6230   20.7096 C   0  0  0  0  0  0
  -28.9647  -18.6368   21.9985 C   0  0  0  0  0  0
  -29.0235  -23.0198   21.1233 C   0  0  0  0  0  0
  -30.5029  -24.1817   19.6309 C   0  0  0  0  0  0
  -30.6345  -22.6537   19.5095 C   0  0  0  0  0  0
  -29.4017  -24.4342   20.6641 C   0  0  1  0  0  0
  -31.1381  -15.9569   22.4818 C   0  0  0  0  0  0
  -29.1388  -16.2632   21.0481 C   0  0  0  0  0  0
  -28.1884  -25.2364   20.1278 C   0  0  0  0  0  0
  -29.7646  -22.0580   20.5243 N   0  0  0  0  0  0
  -30.2519  -15.3844   21.4650 N   0  0  0  0  0  0
  -28.1290  -22.8420   21.9568 O   0  0  0  0  0  0
  -28.3796  -18.1270   23.1088 F   0  0  0  0  0  0
  -31.4606  -12.4117   19.1079 H   0  0  0  0  0  0
  -30.3191  -11.3107   19.8183 H   0  0  0  0  0  0
  -29.7351  -11.7855   17.4217 H   0  0  0  0  0  0
  -29.6445  -13.4959   17.7635 H   0  0  0  0  0  0
  -27.8410  -11.2919   18.8271 H   0  0  0  0  0  0
  -27.3567  -12.6047   17.7866 H   0  0  0  0  0  0
  -27.6791  -14.2305   19.5366 H   0  0  0  0  0  0
  -28.6858  -11.9776   21.3515 H   0  0  0  0  0  0
  -28.4548  -13.6206   21.8561 H   0  0  0  0  0  0
  -25.2743   -9.5681   22.4753 H   0  0  0  0  0  0
  -23.9996   -7.4627   22.7470 H   0  0  0  0  0  0
  -21.0830   -8.8755   19.8947 H   0  0  0  0  0  0
  -22.3675  -10.9663   19.6163 H   0  0  0  0  0  0
  -21.1992   -7.6141   23.9716 H   0  0  0  0  0  0
  -21.1487   -6.0515   25.9078 H   0  0  0  0  0  0
  -22.0597   -2.7605   23.2847 H   0  0  0  0  0  0
  -22.4107  -11.9909   22.4808 H   0  0  0  0  0  0
  -21.1107  -13.1266   22.2578 H   0  0  0  0  0  0
  -24.6612  -15.8367   20.5153 H   0  0  0  0  0  0
  -26.2758  -15.6253   20.0692 H   0  0  0  0  0  0
  -26.7106  -32.5540   23.1187 H   0  0  0  0  0  0
  -25.0013  -33.9790   25.0470 H   0  0  0  0  0  0
  -22.6915  -31.3113   21.4162 H   0  0  0  0  0  0
  -23.3738  -35.9662   23.3310 H   0  0  0  0  0  0
  -24.3577  -36.8929   22.2051 H   0  0  0  0  0  0
  -23.7248  -37.6532   23.6646 H   0  0  0  0  0  0
  -26.0481  -31.6030   20.6006 H   0  0  0  0  0  0
  -26.8210  -30.8850   21.9860 H   0  0  0  0  0  0
  -28.1027  -29.0936   21.1603 H   0  0  0  0  0  0
  -26.0121  -25.9902   18.9884 H   0  0  0  0  0  0
  -23.9669  -27.3148   19.0282 H   0  0  0  0  0  0
  -23.7202  -30.6105   19.4084 H   0  0  0  0  0  0
  -22.7338  -29.2550   19.8680 H   0  0  0  0  0  0
  -25.1282  -36.1989   25.0834 H   0  0  0  0  0  0
  -20.9949  -28.3246   24.1436 H   0  0  0  0  0  0
  -20.5679  -26.2277   23.3601 H   0  0  0  0  0  0
  -21.6634  -26.7462   22.1198 H   0  0  0  0  0  0
  -19.6900  -25.6307   21.1234 H   0  0  0  0  0  0
  -19.6674  -27.3209   20.6751 H   0  0  0  0  0  0
  -17.4185  -26.6669   21.4026 H   0  0  0  0  0  0
  -18.0319  -26.0076   22.9023 H   0  0  0  0  0  0
  -19.7918  -30.7262   24.2291 H   0  0  0  0  0  0
  -17.5000  -31.6264   24.5174 H   0  0  0  0  0  0
  -15.5343  -30.2999   23.7645 H   0  0  0  0  0  0
  -15.8655  -28.0846   22.7042 H   0  0  0  0  0  0
  -24.5895  -30.7043   25.7798 H   0  0  0  0  0  0
  -24.8894  -32.2829   26.4947 H   0  0  0  0  0  0
  -25.8064  -30.8831   27.0226 H   0  0  0  0  0  0
  -26.2866  -29.6792   24.1181 H   0  0  0  0  0  0
  -27.4094  -29.7302   25.4586 H   0  0  0  0  0  0
  -27.8686  -30.4381   23.9274 H   0  0  0  0  0  0
  -27.2698  -33.3622   26.2072 H   0  0  0  0  0  0
  -28.3826  -32.6877   25.0265 H   0  0  0  0  0  0
  -28.0755  -31.8429   26.5360 H   0  0  0  0  0  0
  -28.2605  -38.0105   24.7521 H   0  0  0  0  0  0
  -28.1084  -36.2640   24.6289 H   0  0  0  0  0  0
  -27.2299  -37.1464   25.8866 H   0  0  0  0  0  0
  -20.9292  -29.8781   21.6963 H   0  0  0  0  0  0
  -26.0191  -38.2878   24.1406 H   0  0  0  0  0  0
  -30.3895  -17.6967   19.0467 H   0  0  0  0  0  0
  -30.6300  -20.1180   18.8142 H   0  0  0  0  0  0
  -28.7501  -20.6408   22.6901 H   0  0  0  0  0  0
  -30.2671  -24.6292   18.6644 H   0  0  0  0  0  0
  -31.4412  -24.6254   19.9652 H   0  0  0  0  0  0
  -31.6681  -22.3355   19.6525 H   0  0  0  0  0  0
  -30.3135  -22.3351   18.5166 H   0  0  0  0  0  0
  -29.8133  -24.9467   21.5337 H   0  0  0  0  0  0
  -30.5649  -16.4459   23.2697 H   0  0  0  0  0  0
  -31.8130  -16.6920   22.0407 H   0  0  0  0  0  0
  -31.7460  -15.1836   22.9548 H   0  0  0  0  0  0
  -28.7948  -15.9842   20.0532 H   0  0  0  0  0  0
  -28.2931  -16.0796   21.7114 H   0  0  0  0  0  0
  -27.3208  -25.0023   20.7484 H   0  0  0  0  0  0
  -27.9515  -24.8993   19.1178 H   0  0  0  0  0  0
  1 25  1  0  0  0
  1 30  2  0  0  0
  1 85  1  0  0  0
  2  3  1  0  0  0
  2 25  1  0  0  0
  2 88  1  0  0  0
  2 89  1  0  0  0
  3  4  1  0  0  0
  3 90  1  0  0  0
  3 91  1  0  0  0
  4  5  1  0  0  0
  4 92  1  0  0  0
  4 93  1  0  0  0
  5  6  1  0  0  0
  5 26  1  0  0  0
  5 94  1  0  0  0
  6 25  1  0  0  0
  6 95  1  0  0  0
  6 96  1  0  0  0
  7  8  2  0  0  0
  7 26  1  0  0  0
  7 29  1  0  0  0
  8  9  1  0  0  0
  8 22  1  0  0  0
  9 10  1  0  0  0
  9 27  2  0  0  0
 10 11  2  0  0  0
 10 15  1  0  0  0
 11 12  1  0  0  0
 11 97  1  0  0  0
 12 13  2  0  0  0
 12 98  1  0  0  0
 13 14  1  0  0  0
 13 31  1  0  0  0
 14 15  2  0  0  0
 14 99  1  0  0  0
 15100  1  0  0  0
 16 17  2  0  0  0
 16 21  1  0  0  0
 16 31  1  0  0  0
 17 18  1  0  0  0
 17101  1  0  0  0
 18 19  2  0  0  0
 18102  1  0  0  0
 19 20  1  0  0  0
 19 24  1  0  0  0
 20 21  2  0  0  0
 20103  1  0  0  0
 21 23  1  0  0  0
 22 28  1  0  0  0
 22 32  2  0  0  0
 26 27  1  0  0  0
 28104  1  0  0  0
 28105  1  0  0  0
 29106  1  0  0  0
 29107  1  0  0  0
 33 34  1  0  0  0
 33 66  1  0  0  0
 33 70  2  0  0  0
 34 36  1  0  0  0
 34 59  1  0  0  0
 34108  1  0  0  0
 35 44  2  0  0  0
 35 45  1  0  0  0
 35 68  1  0  0  0
 36 56  1  0  0  0
 36109  1  0  0  0
 37 39  1  0  0  0
 37 47  1  0  0  0
 37 66  1  0  0  0
 37110  1  0  0  0
 38 43  2  0  0  0
 38 46  1  0  0  0
 38 47  1  0  0  0
 39 64  1  0  0  0
 39 67  2  0  0  0
 40 52  1  0  0  0
 40 53  2  0  0  0
 40 58  1  0  0  0
 41111  1  0  0  0
 41112  1  0  0  0
 41113  1  0  0  0
 41 48  1  0  0  0
 42 43  1  0  0  0
 42 66  1  0  0  0
 42114  1  0  0  0
 42115  1  0  0  0
 43 44  1  0  0  0
 44116  1  0  0  0
 45 46  2  0  0  0
 45117  1  0  0  0
 46118  1  0  0  0
 47119  1  0  0  0
 47120  1  0  0  0
 48 56  1  0  0  0
 48 65  1  0  0  0
 48121  1  0  0  0
 49 50  1  0  0  0
 49 53  1  0  0  0
 49 64  1  0  0  0
 49122  1  0  0  0
 50 51  1  0  0  0
 50123  1  0  0  0
 50124  1  0  0  0
 51 52  1  0  0  0
 51125  1  0  0  0
 51126  1  0  0  0
 52127  1  0  0  0
 52128  1  0  0  0
 53 54  1  0  0  0
 54 55  2  0  0  0
 54129  1  0  0  0
 55 57  1  0  0  0
 55130  1  0  0  0
 56 69  2  0  0  0
 57 58  2  0  0  0
 57131  1  0  0  0
 58132  1  0  0  0
 59 60  1  0  0  0
 59 61  1  0  0  0
 59 62  1  0  0  0
 60133  1  0  0  0
 60134  1  0  0  0
 60135  1  0  0  0
 61136  1  0  0  0
 61137  1  0  0  0
 61138  1  0  0  0
 62139  1  0  0  0
 62140  1  0  0  0
 62141  1  0  0  0
 63 65  1  0  0  0
 63142  1  0  0  0
 63143  1  0  0  0
 63144  1  0  0  0
 64145  1  0  0  0
 65146  1  0  0  0
 68 83  1  0  0  0
 71 72  2  0  0  0
 71 74  1  0  0  0
 71147  1  0  0  0
 72 75  1  0  0  0
 72148  1  0  0  0
 73 75  2  0  0  0
 73 76  1  0  0  0
 73149  1  0  0  0
 74 76  2  0  0  0
 74 82  1  0  0  0
 75 84  1  0  0  0
 76 87  1  0  0  0
 77 80  1  0  0  0
 77 84  1  0  0  0
 77 86  2  0  0  0
 78 79  1  0  0  0
 78 80  1  0  0  0
 78150  1  0  0  0
 78151  1  0  0  0
 79 84  1  0  0  0
 79152  1  0  0  0
 79153  1  0  0  0
 80 83  1  0  0  0
 80154  1  0  0  0
 81 85  1  0  0  0
 81155  1  0  0  0
 81156  1  0  0  0
 81157  1  0  0  0
 82 85  1  0  0  0
 82158  1  0  0  0
 82159  1  0  0  0
 83160  1  0  0  0
 83161  1  0  0  0
M  ISO  4   1 100  68 101  83 101  85 100
M  END
> <chiral flag>
0

> <version>
0

> <s_m_source_file>
/data/baiqing/PycharmProjects/Reinvent-master-3.2/result/LINK_invent/BTK/process_docking_weight1_custom_product_contain_oxygen_bond_distance_aromatic_linkinvent_7_9_3/rearranged_h_0021.sdf

> <i_m_source_file_index>
29

> <r_mmod_Potential_Energy-OPLS-2005>
182.762313842773

> <r_mmod_Stretch_Energy-OPLS-2005>
43.021556854248

> <r_mmod_Bend_Energy-OPLS-2005>
118.348907470703

> <r_mmod_Torsional_Energy-OPLS-2005>
325.863372802734

> <r_mmod_Improper_Torsional_Energy-OPLS-2005>
4.27722358703613

> <r_mmod_Van_der_Waal_Energy-OPLS-2005>
162.970443725586

> <r_mmod_Electrostatic_Energy-OPLS-2005>
-281.097045898438

> <r_mmod_Solvation_Energy-OPLS-2005>
-204.325057983398

> <b_mmod_Minimization_Converged-OPLS-2005>
0

> <r_mmod_RMS_Derivative-OPLS-2005>
0.936352014541626

$$$$
29
                    3D
 Structure written by MMmdl.
155164  0  0  1  0            999 V2000
  -30.6111  -14.6099   20.3911 C   0  0  0  0  0  0
  -30.4309  -12.3295   19.4656 C   0  0  0  0  0  0
  -29.5194  -12.4434   18.2292 C   0  0  0  0  0  0
  -28.0357  -12.3090   18.6358 C   0  0  0  0  0  0
  -27.6475  -13.2025   19.8480 C   0  0  2  0  0  0
  -28.6948  -13.0929   20.9802 C   0  0  0  0  0  0
  -25.2540  -13.8138   20.5655 C   0  0  0  0  0  0
  -24.1779  -13.0437   20.9178 C   0  0  0  0  0  0
  -24.6345  -11.6916   20.8729 C   0  0  0  0  0  0
  -23.9004  -10.4306   21.0425 C   0  0  0  0  0  0
  -24.3596   -9.4198   21.9170 C   0  0  0  0  0  0
  -23.6281   -8.2216   22.0731 C   0  0  0  0  0  0
  -22.4230   -8.0280   21.3563 C   0  0  0  0  0  0
  -21.9893   -9.0225   20.4626 C   0  0  0  0  0  0
  -22.7201  -10.2115   20.3042 C   0  0  0  0  0  0
  -21.6839   -6.0707   22.5269 C   0  0  0  0  0  0
  -21.4023   -6.5623   23.8204 C   0  0  0  0  0  0
  -21.3669   -5.6783   24.9173 C   0  0  0  0  0  0
  -21.6050   -4.3044   24.7239 C   0  0  0  0  0  0
  -21.8799   -3.8124   23.4361 C   0  0  0  0  0  0
  -21.9199   -4.6936   22.3411 C   0  0  0  0  0  0
  -22.7810  -13.5222   21.1894 C   0  0  0  0  0  0
  -22.1642   -4.2134   21.0985 F   0  0  0  0  0  0
  -21.5647   -3.4520   25.7747 F   0  0  0  0  0  0
  -30.0049  -13.3936   20.3854 N   0  0  0  0  0  0
  -26.2931  -12.9251   20.3218 N   0  0  0  0  0  0
  -25.9265  -11.6424   20.5735 N   0  0  0  0  0  0
  -22.0478  -12.8195   22.0487 N   0  0  0  0  0  0
  -25.4261  -15.1845   20.4048 N   0  0  0  0  0  0
  -31.8312  -14.7265   20.2690 O   0  0  0  0  0  0
  -21.6624   -6.8856   21.4232 O   0  0  0  0  0  0
  -22.3492  -14.5525   20.6767 O   0  0  0  0  0  0
  -24.6186  -31.8651   23.2094 C   0  0  0  0  0  0
  -25.9015  -32.4803   23.8435 C   0  0  1  0  0  0
  -27.2160  -27.3828   20.0941 C   0  0  0  0  0  0
  -25.5873  -33.8617   24.2374 N   0  0  0  0  0  0
  -23.4004  -30.4951   21.5483 C   0  0  2  0  0  0
  -24.8412  -28.9458   20.1170 C   0  0  0  0  0  0
  -22.7398  -29.4642   22.4952 C   0  0  0  0  0  0
  -18.0295  -28.1481   22.8559 C   0  0  0  0  0  0
  -24.1479  -36.7323   23.2659 C   0  0  0  0  0  0
  -25.9360  -30.8148   21.3595 C   0  0  0  0  0  0
  -26.0051  -29.4429   20.7126 C   0  0  0  0  0  0
  -27.1897  -28.6641   20.7061 C   0  0  0  0  0  0
  -26.0323  -26.9235   19.4653 C   0  0  0  0  0  0
  -24.8514  -27.6861   19.4943 C   0  0  0  0  0  0
  -23.6113  -29.8201   20.1653 C   0  0  0  0  0  0
  -25.4090  -36.3100   24.0375 C   0  0  1  0  0  0
  -20.5900  -28.3688   23.1330 C   0  0  2  0  0  0
  -20.6730  -26.9412   22.5479 C   0  0  0  0  0  0
  -19.5770  -26.6758   21.5177 C   0  0  0  0  0  0
  -18.1893  -26.8144   22.1527 C   0  0  0  0  0  0
  -19.1573  -28.8842   23.3060 C   0  0  0  0  0  0
  -18.9527  -30.1437   23.9051 C   0  0  0  0  0  0
  -17.6568  -30.6613   24.0706 C   0  0  0  0  0  0
  -25.9044  -34.9478   23.5198 C   0  0  0  0  0  0
  -16.5430  -29.9210   23.6492 C   0  0  0  0  0  0
  -16.7294  -28.6688   23.0396 C   0  0  0  0  0  0
  -26.4460  -31.6574   25.0750 C   0  0  0  0  0  0
  -25.3767  -31.3624   26.1526 C   0  0  0  0  0  0
  -27.0234  -30.3031   24.6043 C   0  0  0  0  0  0
  -27.6074  -32.4227   25.7534 C   0  0  0  0  0  0
  -27.5574  -37.1804   24.8461 C   0  0  0  0  0  0
  -21.4117  -29.3086   22.3749 N   0  0  0  0  0  0
  -26.4266  -37.3756   23.9441 N   0  0  0  0  0  0
  -24.6731  -31.0742   22.0986 N   0  0  0  0  0  0
  -23.4222  -28.8109   23.2905 O   0  0  0  0  0  0
  -28.3845  -26.6343   20.1185 O   0  0  0  0  0  0
  -26.5550  -34.8915   22.4738 O   0  0  0  0  0  0
  -23.5362  -32.1375   23.7451 O   0  0  0  0  0  0
  -29.3190  -18.8179   21.7340 C   0  0  0  0  0  0
  -29.8358  -17.5409   21.3765 C   0  0  0  0  0  0
  -28.3983  -17.5294   19.4266 C   0  0  0  0  0  0
  -28.3371  -19.4772   20.9471 C   0  0  0  0  0  0
  -29.3817  -16.8690   20.2169 C   0  0  0  0  0  0
  -27.8794  -18.8068   19.7898 C   0  0  0  0  0  0
  -27.4588  -22.8597   19.8429 C   0  0  0  0  0  0
  -28.6386  -23.3071   21.4667 C   0  0  0  0  0  0
  -27.7864  -24.1977   20.5370 C   0  0  2  0  0  0
  -27.6323  -20.7795   21.4168 C   0  0  0  0  0  0
  -28.4052  -25.2767   19.6129 C   0  0  0  0  0  0
  -27.9941  -22.1166   20.8707 N   0  0  0  0  0  0
  -29.8493  -15.5676   19.7920 N   0  0  0  0  0  0
  -26.8295  -22.5249   18.8538 O   0  0  0  0  0  0
  -26.8961  -19.3560   19.0429 F   0  0  0  0  0  0
  -31.4813  -12.4165   19.1814 H   0  0  0  0  0  0
  -30.3168  -11.3498   19.9323 H   0  0  0  0  0  0
  -29.7870  -11.6775   17.4991 H   0  0  0  0  0  0
  -29.6817  -13.3999   17.7364 H   0  0  0  0  0  0
  -27.8728  -11.2604   18.8866 H   0  0  0  0  0  0
  -27.3896  -12.5147   17.7823 H   0  0  0  0  0  0
  -27.6448  -14.2279   19.4837 H   0  0  0  0  0  0
  -28.6800  -12.0940   21.4257 H   0  0  0  0  0  0
  -28.4536  -13.8009   21.7760 H   0  0  0  0  0  0
  -25.2758   -9.5662   22.4719 H   0  0  0  0  0  0
  -23.9993   -7.4617   22.7452 H   0  0  0  0  0  0
  -21.0824   -8.8735   19.8950 H   0  0  0  0  0  0
  -22.3663  -10.9643   19.6134 H   0  0  0  0  0  0
  -21.1993   -7.6127   23.9716 H   0  0  0  0  0  0
  -21.1523   -6.0508   25.9090 H   0  0  0  0  0  0
  -22.0582   -2.7588   23.2855 H   0  0  0  0  0  0
  -22.4162  -11.9875   22.4852 H   0  0  0  0  0  0
  -21.1101  -13.1209   22.2756 H   0  0  0  0  0  0
  -24.6684  -15.8449   20.5248 H   0  0  0  0  0  0
  -26.2826  -15.6209   20.0897 H   0  0  0  0  0  0
  -26.7063  -32.5519   23.1181 H   0  0  0  0  0  0
  -25.0018  -33.9783   25.0530 H   0  0  0  0  0  0
  -22.6880  -31.3074   21.4143 H   0  0  0  0  0  0
  -23.3710  -35.9664   23.3286 H   0  0  0  0  0  0
  -24.3586  -36.8958   22.2061 H   0  0  0  0  0  0
  -23.7245  -37.6548   23.6685 H   0  0  0  0  0  0
  -26.0368  -31.5628   20.5722 H   0  0  0  0  0  0
  -26.8296  -30.8877   21.9666 H   0  0  0  0  0  0
  -28.0858  -29.0509   21.1702 H   0  0  0  0  0  0
  -25.9933  -25.9796   18.9506 H   0  0  0  0  0  0
  -23.9515  -27.3060   19.0250 H   0  0  0  0  0  0
  -23.7097  -30.5962   19.4043 H   0  0  0  0  0  0
  -22.7290  -29.2482   19.8724 H   0  0  0  0  0  0
  -25.1253  -36.1961   25.0846 H   0  0  0  0  0  0
  -21.0035  -28.3214   24.1505 H   0  0  0  0  0  0
  -20.5217  -26.2397   23.3733 H   0  0  0  0  0  0
  -21.6559  -26.7124   22.1393 H   0  0  0  0  0  0
  -19.6837  -25.6773   21.0999 H   0  0  0  0  0  0
  -19.6878  -27.3889   20.7064 H   0  0  0  0  0  0
  -17.4295  -26.7258   21.3778 H   0  0  0  0  0  0
  -18.0131  -26.0127   22.8640 H   0  0  0  0  0  0
  -19.8094  -30.7173   24.2384 H   0  0  0  0  0  0
  -17.5217  -31.6277   24.5418 H   0  0  0  0  0  0
  -15.5466  -30.3185   23.7769 H   0  0  0  0  0  0
  -15.8685  -28.1144   22.6905 H   0  0  0  0  0  0
  -24.5992  -30.6877   25.7925 H   0  0  0  0  0  0
  -24.8898  -32.2709   26.5043 H   0  0  0  0  0  0
  -25.8214  -30.8819   27.0253 H   0  0  0  0  0  0
  -26.2737  -29.6857   24.1066 H   0  0  0  0  0  0
  -27.3973  -29.7184   25.4455 H   0  0  0  0  0  0
  -27.8597  -30.4349   23.9178 H   0  0  0  0  0  0
  -27.2736  -33.3497   26.2195 H   0  0  0  0  0  0
  -28.3887  -32.6786   25.0381 H   0  0  0  0  0  0
  -28.0707  -31.8267   26.5388 H   0  0  0  0  0  0
  -28.2586  -38.0100   24.7492 H   0  0  0  0  0  0
  -28.1077  -36.2647   24.6286 H   0  0  0  0  0  0
  -27.2326  -37.1453   25.8866 H   0  0  0  0  0  0
  -20.9167  -29.9027   21.7219 H   0  0  0  0  0  0
  -26.0179  -38.2860   24.1360 H   0  0  0  0  0  0
  -29.6425  -19.2755   22.6588 H   0  0  0  0  0  0
  -30.5672  -17.0718   22.0219 H   0  0  0  0  0  0
  -27.9823  -17.0342   18.5532 H   0  0  0  0  0  0
  -28.4218  -23.4529   22.5328 H   0  0  0  0  0  0
  -29.7136  -23.3664   21.2849 H   0  0  0  0  0  0
  -26.8872  -24.5674   21.0376 H   0  0  0  0  0  0
  -27.7140  -20.8430   22.5082 H   0  0  0  0  0  0
  -26.5687  -20.6459   21.2060 H   0  0  0  0  0  0
  -27.9870  -25.2204   18.6134 H   0  0  0  0  0  0
  -29.4575  -25.0411   19.4477 H   0  0  0  0  0  0
  -29.8962  -15.4754   18.7789 H   0  0  0  0  0  0
  1 25  1  0  0  0
  1 30  2  0  0  0
  1 83  1  0  0  0
  2  3  1  0  0  0
  2 25  1  0  0  0
  2 86  1  0  0  0
  2 87  1  0  0  0
  3  4  1  0  0  0
  3 88  1  0  0  0
  3 89  1  0  0  0
  4  5  1  0  0  0
  4 90  1  0  0  0
  4 91  1  0  0  0
  5  6  1  0  0  0
  5 26  1  0  0  0
  5 92  1  0  0  0
  6 25  1  0  0  0
  6 93  1  0  0  0
  6 94  1  0  0  0
  7  8  2  0  0  0
  7 26  1  0  0  0
  7 29  1  0  0  0
  8  9  1  0  0  0
  8 22  1  0  0  0
  9 10  1  0  0  0
  9 27  2  0  0  0
 10 11  2  0  0  0
 10 15  1  0  0  0
 11 12  1  0  0  0
 11 95  1  0  0  0
 12 13  2  0  0  0
 12 96  1  0  0  0
 13 14  1  0  0  0
 13 31  1  0  0  0
 14 15  2  0  0  0
 14 97  1  0  0  0
 15 98  1  0  0  0
 16 17  2  0  0  0
 16 21  1  0  0  0
 16 31  1  0  0  0
 17 18  1  0  0  0
 17 99  1  0  0  0
 18 19  2  0  0  0
 18100  1  0  0  0
 19 20  1  0  0  0
 19 24  1  0  0  0
 20 21  2  0  0  0
 20101  1  0  0  0
 21 23  1  0  0  0
 22 28  1  0  0  0
 22 32  2  0  0  0
 26 27  1  0  0  0
 28102  1  0  0  0
 28103  1  0  0  0
 29104  1  0  0  0
 29105  1  0  0  0
 33 34  1  0  0  0
 33 66  1  0  0  0
 33 70  2  0  0  0
 34 36  1  0  0  0
 34 59  1  0  0  0
 34106  1  0  0  0
 35 44  2  0  0  0
 35 45  1  0  0  0
 35 68  1  0  0  0
 36 56  1  0  0  0
 36107  1  0  0  0
 37 39  1  0  0  0
 37 47  1  0  0  0
 37 66  1  0  0  0
 37108  1  0  0  0
 38 43  2  0  0  0
 38 46  1  0  0  0
 38 47  1  0  0  0
 39 64  1  0  0  0
 39 67  2  0  0  0
 40 52  1  0  0  0
 40 53  2  0  0  0
 40 58  1  0  0  0
 41109  1  0  0  0
 41110  1  0  0  0
 41111  1  0  0  0
 41 48  1  0  0  0
 42 43  1  0  0  0
 42 66  1  0  0  0
 42112  1  0  0  0
 42113  1  0  0  0
 43 44  1  0  0  0
 44114  1  0  0  0
 45 46  2  0  0  0
 45115  1  0  0  0
 46116  1  0  0  0
 47117  1  0  0  0
 47118  1  0  0  0
 48 56  1  0  0  0
 48 65  1  0  0  0
 48119  1  0  0  0
 49 50  1  0  0  0
 49 53  1  0  0  0
 49 64  1  0  0  0
 49120  1  0  0  0
 50 51  1  0  0  0
 50121  1  0  0  0
 50122  1  0  0  0
 51 52  1  0  0  0
 51123  1  0  0  0
 51124  1  0  0  0
 52125  1  0  0  0
 52126  1  0  0  0
 53 54  1  0  0  0
 54 55  2  0  0  0
 54127  1  0  0  0
 55 57  1  0  0  0
 55128  1  0  0  0
 56 69  2  0  0  0
 57 58  2  0  0  0
 57129  1  0  0  0
 58130  1  0  0  0
 59 60  1  0  0  0
 59 61  1  0  0  0
 59 62  1  0  0  0
 60131  1  0  0  0
 60132  1  0  0  0
 60133  1  0  0  0
 61134  1  0  0  0
 61135  1  0  0  0
 61136  1  0  0  0
 62137  1  0  0  0
 62138  1  0  0  0
 62139  1  0  0  0
 63 65  1  0  0  0
 63140  1  0  0  0
 63141  1  0  0  0
 63142  1  0  0  0
 64143  1  0  0  0
 65144  1  0  0  0
 68 81  1  0  0  0
 71 72  2  0  0  0
 71 74  1  0  0  0
 71145  1  0  0  0
 72 75  1  0  0  0
 72146  1  0  0  0
 73 75  2  0  0  0
 73 76  1  0  0  0
 73147  1  0  0  0
 74 76  2  0  0  0
 74 80  1  0  0  0
 75 83  1  0  0  0
 76 85  1  0  0  0
 77 79  1  0  0  0
 77 82  1  0  0  0
 77 84  2  0  0  0
 78 79  1  0  0  0
 78 82  1  0  0  0
 78148  1  0  0  0
 78149  1  0  0  0
 79 81  1  0  0  0
 79150  1  0  0  0
 80 82  1  0  0  0
 80151  1  0  0  0
 80152  1  0  0  0
 81153  1  0  0  0
 81154  1  0  0  0
 83155  1  0  0  0
M  ISO  4   1 100  68 101  81 101  83 100
M  END
> <chiral flag>
0

> <version>
0

> <s_m_source_file>
/data/baiqing/PycharmProjects/Reinvent-master-3.2/result/LINK_invent/BTK/process_docking_weight1_custom_product_contain_oxygen_bond_distance_aromatic_linkinvent_7_9_3/rearranged_h_0021.sdf

> <i_m_source_file_index>
30

> <r_mmod_Potential_Energy-OPLS-2005>
98.798957824707

> <r_mmod_Stretch_Energy-OPLS-2005>
50.4388389587402

> <r_mmod_Bend_Energy-OPLS-2005>
135.473205566406

> <r_mmod_Torsional_Energy-OPLS-2005>
304.800445556641

> <r_mmod_Improper_Torsional_Energy-OPLS-2005>
33.065258026123

> <r_mmod_Van_der_Waal_Energy-OPLS-2005>
131.389877319336

> <r_mmod_Electrostatic_Energy-OPLS-2005>
-371.431854248047

> <r_mmod_Solvation_Energy-OPLS-2005>
-228.945892333984

> <b_mmod_Minimization_Converged-OPLS-2005>
0

> <r_mmod_RMS_Derivative-OPLS-2005>
13.8195428848267

$$$$
30
                    3D
 Structure written by MMmdl.
158166  0  0  1  0            999 V2000
  -30.4971  -14.9343   20.4797 C   0  0  0  0  0  0
  -30.4595  -12.5872   19.5181 C   0  0  0  0  0  0
  -29.5463  -12.5542   18.2676 C   0  0  0  0  0  0
  -28.0705  -12.3367   18.6640 C   0  0  0  0  0  0
  -27.6373  -13.2423   19.8464 C   0  0  2  0  0  0
  -28.6697  -13.2200   20.9940 C   0  0  0  0  0  0
  -25.2389  -13.8112   20.5452 C   0  0  0  0  0  0
  -24.1739  -13.0394   20.9168 C   0  0  0  0  0  0
  -24.6376  -11.6895   20.8745 C   0  0  0  0  0  0
  -23.9074  -10.4276   21.0415 C   0  0  0  0  0  0
  -24.3621   -9.4205   21.9199 C   0  0  0  0  0  0
  -23.6297   -8.2236   22.0760 C   0  0  0  0  0  0
  -22.4277   -8.0285   21.3540 C   0  0  0  0  0  0
  -21.9925   -9.0261   20.4656 C   0  0  0  0  0  0
  -22.7240  -10.2140   20.3063 C   0  0  0  0  0  0
  -21.6844   -6.0744   22.5281 C   0  0  0  0  0  0
  -21.4017   -6.5636   23.8220 C   0  0  0  0  0  0
  -21.3672   -5.6777   24.9174 C   0  0  0  0  0  0
  -21.6045   -4.3041   24.7217 C   0  0  0  0  0  0
  -21.8818   -3.8145   23.4340 C   0  0  0  0  0  0
  -21.9191   -4.6970   22.3401 C   0  0  0  0  0  0
  -22.7768  -13.5214   21.1822 C   0  0  0  0  0  0
  -22.1647   -4.2149   21.0977 F   0  0  0  0  0  0
  -21.5647   -3.4537   25.7744 F   0  0  0  0  0  0
  -29.9566  -13.6523   20.4289 N   0  0  0  0  0  0
  -26.2887  -12.9386   20.3161 N   0  0  0  0  0  0
  -25.9314  -11.6540   20.5717 N   0  0  0  0  0  0
  -22.0382  -12.8284   22.0411 N   0  0  0  0  0  0
  -25.3870  -15.1772   20.3479 N   0  0  0  0  0  0
  -31.6754  -15.0799   20.1349 O   0  0  0  0  0  0
  -21.6639   -6.8882   21.4240 O   0  0  0  0  0  0
  -22.3484  -14.5516   20.6623 O   0  0  0  0  0  0
  -24.6406  -31.8443   23.1875 C   0  0  0  0  0  0
  -25.9179  -32.4696   23.8283 C   0  0  1  0  0  0
  -27.2332  -27.1704   20.1647 C   0  0  0  0  0  0
  -25.5927  -33.8508   24.2192 N   0  0  0  0  0  0
  -23.4440  -30.4625   21.5319 C   0  0  2  0  0  0
  -24.8975  -28.8863   20.1185 C   0  0  0  0  0  0
  -22.7561  -29.4561   22.4881 C   0  0  0  0  0  0
  -18.0305  -28.1367   22.8490 C   0  0  0  0  0  0
  -24.1490  -36.7283   23.2643 C   0  0  0  0  0  0
  -25.9973  -30.7322   21.3796 C   0  0  0  0  0  0
  -26.0718  -29.3425   20.7312 C   0  0  0  0  0  0
  -27.2427  -28.5008   20.7336 C   0  0  0  0  0  0
  -26.0369  -26.8083   19.5079 C   0  0  0  0  0  0
  -24.8904  -27.6315   19.4912 C   0  0  0  0  0  0
  -23.6723  -29.7831   20.1549 C   0  0  0  0  0  0
  -25.4109  -36.3035   24.0321 C   0  0  1  0  0  0
  -20.5920  -28.3704   23.1224 C   0  0  2  0  0  0
  -20.6780  -26.9406   22.5400 C   0  0  0  0  0  0
  -19.5756  -26.6367   21.5199 C   0  0  0  0  0  0
  -18.1938  -26.7899   22.1615 C   0  0  0  0  0  0
  -19.1560  -28.8850   23.2844 C   0  0  0  0  0  0
  -18.9476  -30.1444   23.8879 C   0  0  0  0  0  0
  -17.6472  -30.6573   24.0554 C   0  0  0  0  0  0
  -25.9062  -34.9415   23.5062 C   0  0  0  0  0  0
  -16.5366  -29.9078   23.6318 C   0  0  0  0  0  0
  -16.7281  -28.6481   23.0362 C   0  0  0  0  0  0
  -26.4514  -31.6547   25.0716 C   0  0  0  0  0  0
  -25.3713  -31.3743   26.1431 C   0  0  0  0  0  0
  -27.0359  -30.2939   24.6267 C   0  0  0  0  0  0
  -27.6037  -32.4304   25.7524 C   0  0  0  0  0  0
  -27.5566  -37.1795   24.8460 C   0  0  0  0  0  0
  -21.4259  -29.3054   22.3631 N   0  0  0  0  0  0
  -26.4270  -37.3738   23.9409 N   0  0  0  0  0  0
  -24.7133  -31.0347   22.0884 N   0  0  0  0  0  0
  -23.4212  -28.8106   23.3011 O   0  0  0  0  0  0
  -28.3156  -26.2266   20.1946 O   0  0  0  0  0  0
  -26.5671  -34.8903   22.4652 O   0  0  0  0  0  0
  -23.5519  -32.1313   23.7100 O   0  0  0  0  0  0
  -28.1820  -19.6648   21.1688 C   0  0  0  0  0  0
  -30.5571  -18.5136   20.3548 C   0  0  0  0  0  0
  -28.3552  -18.2325   21.1680 C   0  0  0  0  0  0
  -29.1621  -20.6355   20.7992 C   0  0  0  0  0  0
  -29.5595  -17.5509   20.7506 C   0  0  0  0  0  0
  -30.3797  -19.9693   20.3811 C   0  0  0  0  0  0
  -27.1585  -17.4657   21.7005 C   0  0  0  0  0  0
  -30.2093  -22.6647   23.1279 C   0  0  0  0  0  0
  -28.8459  -22.2752   22.5317 C   0  0  0  0  0  0
  -29.0524  -23.4059   20.2720 C   0  0  0  0  0  0
  -28.0785  -24.7469   20.5767 C   0  0  0  0  0  0
  -29.6272  -16.0144   20.7800 N   0  0  0  0  0  0
  -28.8919  -22.0789   21.0760 N   0  0  0  0  0  0
  -31.7388  -20.9437   19.9426 Cl  0  0  0  0  0  0
  -31.4933  -12.7684   19.2213 H   0  0  0  0  0  0
  -30.4674  -11.6224   20.0276 H   0  0  0  0  0  0
  -29.8747  -11.7711   17.5853 H   0  0  0  0  0  0
  -29.6424  -13.4940   17.7200 H   0  0  0  0  0  0
  -27.9489  -11.2898   18.9421 H   0  0  0  0  0  0
  -27.4216  -12.5016   17.8040 H   0  0  0  0  0  0
  -27.6172  -14.2567   19.4495 H   0  0  0  0  0  0
  -28.7458  -12.2224   21.4288 H   0  0  0  0  0  0
  -28.3565  -13.8772   21.8070 H   0  0  0  0  0  0
  -25.2761   -9.5701   22.4781 H   0  0  0  0  0  0
  -24.0014   -7.4634   22.7485 H   0  0  0  0  0  0
  -21.0859   -8.8821   19.8945 H   0  0  0  0  0  0
  -22.3723  -10.9705   19.6185 H   0  0  0  0  0  0
  -21.2000   -7.6135   23.9744 H   0  0  0  0  0  0
  -21.1483   -6.0481   25.9081 H   0  0  0  0  0  0
  -22.0577   -2.7608   23.2827 H   0  0  0  0  0  0
  -22.3978  -11.9981   22.4873 H   0  0  0  0  0  0
  -21.1002  -13.1358   22.2544 H   0  0  0  0  0  0
  -24.5936  -15.8053   20.4135 H   0  0  0  0  0  0
  -26.1844  -15.5973   19.8891 H   0  0  0  0  0  0
  -26.7270  -32.5327   23.1042 H   0  0  0  0  0  0
  -25.0015  -33.9616   25.0300 H   0  0  0  0  0  0
  -22.7436  -31.2856   21.3717 H   0  0  0  0  0  0
  -23.3725  -35.9640   23.3287 H   0  0  0  0  0  0
  -24.3594  -36.8934   22.2062 H   0  0  0  0  0  0
  -23.7271  -37.6489   23.6690 H   0  0  0  0  0  0
  -26.1427  -31.4781   20.5976 H   0  0  0  0  0  0
  -26.8718  -30.7914   22.0167 H   0  0  0  0  0  0
  -28.1435  -28.8488   21.2184 H   0  0  0  0  0  0
  -25.9708  -25.8551   19.0031 H   0  0  0  0  0  0
  -23.9952  -27.2797   18.9963 H   0  0  0  0  0  0
  -23.8114  -30.5512   19.3928 H   0  0  0  0  0  0
  -22.7891  -29.2231   19.8433 H   0  0  0  0  0  0
  -25.1283  -36.1875   25.0810 H   0  0  0  0  0  0
  -20.9998  -28.3286   24.1341 H   0  0  0  0  0  0
  -20.5627  -26.2326   23.3629 H   0  0  0  0  0  0
  -21.6647  -26.7396   22.1222 H   0  0  0  0  0  0
  -19.6915  -25.6269   21.1245 H   0  0  0  0  0  0
  -19.6658  -27.3165   20.6712 H   0  0  0  0  0  0
  -17.4200  -26.6646   21.4029 H   0  0  0  0  0  0
  -18.0341  -26.0038   22.9002 H   0  0  0  0  0  0
  -19.7957  -30.7259   24.2240 H   0  0  0  0  0  0
  -17.5033  -31.6250   24.5159 H   0  0  0  0  0  0
  -15.5360  -30.2976   23.7628 H   0  0  0  0  0  0
  -15.8691  -28.0783   22.7089 H   0  0  0  0  0  0
  -24.5881  -30.7093   25.7781 H   0  0  0  0  0  0
  -24.8927  -32.2933   26.4817 H   0  0  0  0  0  0
  -25.8013  -30.8960   27.0234 H   0  0  0  0  0  0
  -26.2959  -29.6692   24.1258 H   0  0  0  0  0  0
  -27.3959  -29.7204   25.4812 H   0  0  0  0  0  0
  -27.8869  -30.4169   23.9569 H   0  0  0  0  0  0
  -27.2604  -33.3598   26.2073 H   0  0  0  0  0  0
  -28.3879  -32.6867   25.0392 H   0  0  0  0  0  0
  -28.0671  -31.8459   26.5482 H   0  0  0  0  0  0
  -28.2567  -38.0101   24.7486 H   0  0  0  0  0  0
  -28.1068  -36.2631   24.6281 H   0  0  0  0  0  0
  -27.2309  -37.1454   25.8870 H   0  0  0  0  0  0
  -20.9461  -29.8792   21.6859 H   0  0  0  0  0  0
  -26.0142  -38.2812   24.1380 H   0  0  0  0  0  0
  -27.2365  -20.0459   21.5297 H   0  0  0  0  0  0
  -31.5189  -18.1312   20.0406 H   0  0  0  0  0  0
  -26.9791  -17.7213   22.7451 H   0  0  0  0  0  0
  -27.2746  -16.3880   21.6465 H   0  0  0  0  0  0
  -26.2610  -17.7483   21.1432 H   0  0  0  0  0  0
  -30.1228  -22.8335   24.2033 H   0  0  0  0  0  0
  -30.6058  -23.5819   22.6906 H   0  0  0  0  0  0
  -30.9465  -21.8737   22.9824 H   0  0  0  0  0  0
  -28.0989  -23.0270   22.7807 H   0  0  0  0  0  0
  -28.4930  -21.3798   23.0443 H   0  0  0  0  0  0
  -30.0888  -23.7210   20.3981 H   0  0  0  0  0  0
  -28.9650  -23.1644   19.2113 H   0  0  0  0  0  0
  -27.9678  -24.8170   21.6573 H   0  0  0  0  0  0
  -27.0884  -24.4613   20.2300 H   0  0  0  0  0  0
  -28.7471  -15.6236   21.0752 H   0  0  0  0  0  0
  1 25  1  0  0  0
  1 30  2  0  0  0
  1 82  1  0  0  0
  2  3  1  0  0  0
  2 25  1  0  0  0
  2 85  1  0  0  0
  2 86  1  0  0  0
  3  4  1  0  0  0
  3 87  1  0  0  0
  3 88  1  0  0  0
  4  5  1  0  0  0
  4 89  1  0  0  0
  4 90  1  0  0  0
  5  6  1  0  0  0
  5 26  1  0  0  0
  5 91  1  0  0  0
  6 25  1  0  0  0
  6 92  1  0  0  0
  6 93  1  0  0  0
  7  8  2  0  0  0
  7 26  1  0  0  0
  7 29  1  0  0  0
  8  9  1  0  0  0
  8 22  1  0  0  0
  9 10  1  0  0  0
  9 27  2  0  0  0
 10 11  2  0  0  0
 10 15  1  0  0  0
 11 12  1  0  0  0
 11 94  1  0  0  0
 12 13  2  0  0  0
 12 95  1  0  0  0
 13 14  1  0  0  0
 13 31  1  0  0  0
 14 15  2  0  0  0
 14 96  1  0  0  0
 15 97  1  0  0  0
 16 17  2  0  0  0
 16 21  1  0  0  0
 16 31  1  0  0  0
 17 18  1  0  0  0
 17 98  1  0  0  0
 18 19  2  0  0  0
 18 99  1  0  0  0
 19 20  1  0  0  0
 19 24  1  0  0  0
 20 21  2  0  0  0
 20100  1  0  0  0
 21 23  1  0  0  0
 22 28  1  0  0  0
 22 32  2  0  0  0
 26 27  1  0  0  0
 28101  1  0  0  0
 28102  1  0  0  0
 29103  1  0  0  0
 29104  1  0  0  0
 33 34  1  0  0  0
 33 66  1  0  0  0
 33 70  2  0  0  0
 34 36  1  0  0  0
 34 59  1  0  0  0
 34105  1  0  0  0
 35 44  2  0  0  0
 35 45  1  0  0  0
 35 68  1  0  0  0
 36 56  1  0  0  0
 36106  1  0  0  0
 37 39  1  0  0  0
 37 47  1  0  0  0
 37 66  1  0  0  0
 37107  1  0  0  0
 38 43  2  0  0  0
 38 46  1  0  0  0
 38 47  1  0  0  0
 39 64  1  0  0  0
 39 67  2  0  0  0
 40 52  1  0  0  0
 40 53  2  0  0  0
 40 58  1  0  0  0
 41108  1  0  0  0
 41109  1  0  0  0
 41110  1  0  0  0
 41 48  1  0  0  0
 42 43  1  0  0  0
 42 66  1  0  0  0
 42111  1  0  0  0
 42112  1  0  0  0
 43 44  1  0  0  0
 44113  1  0  0  0
 45 46  2  0  0  0
 45114  1  0  0  0
 46115  1  0  0  0
 47116  1  0  0  0
 47117  1  0  0  0
 48 56  1  0  0  0
 48 65  1  0  0  0
 48118  1  0  0  0
 49 50  1  0  0  0
 49 53  1  0  0  0
 49 64  1  0  0  0
 49119  1  0  0  0
 50 51  1  0  0  0
 50120  1  0  0  0
 50121  1  0  0  0
 51 52  1  0  0  0
 51122  1  0  0  0
 51123  1  0  0  0
 52124  1  0  0  0
 52125  1  0  0  0
 53 54  1  0  0  0
 54 55  2  0  0  0
 54126  1  0  0  0
 55 57  1  0  0  0
 55127  1  0  0  0
 56 69  2  0  0  0
 57 58  2  0  0  0
 57128  1  0  0  0
 58129  1  0  0  0
 59 60  1  0  0  0
 59 61  1  0  0  0
 59 62  1  0  0  0
 60130  1  0  0  0
 60131  1  0  0  0
 60132  1  0  0  0
 61133  1  0  0  0
 61134  1  0  0  0
 61135  1  0  0  0
 62136  1  0  0  0
 62137  1  0  0  0
 62138  1  0  0  0
 63 65  1  0  0  0
 63139  1  0  0  0
 63140  1  0  0  0
 63141  1  0  0  0
 64142  1  0  0  0
 65143  1  0  0  0
 68 81  1  0  0  0
 71 73  2  0  0  0
 71 74  1  0  0  0
 71144  1  0  0  0
 72 75  2  0  0  0
 72 76  1  0  0  0
 72145  1  0  0  0
 73 75  1  0  0  0
 73 77  1  0  0  0
 74 76  2  0  0  0
 74 83  1  0  0  0
 75 82  1  0  0  0
 76 84  1  0  0  0
 77146  1  0  0  0
 77147  1  0  0  0
 77148  1  0  0  0
 78 79  1  0  0  0
 78149  1  0  0  0
 78150  1  0  0  0
 78151  1  0  0  0
 79 83  1  0  0  0
 79152  1  0  0  0
 79153  1  0  0  0
 80 81  1  0  0  0
 80 83  1  0  0  0
 80154  1  0  0  0
 80155  1  0  0  0
 81156  1  0  0  0
 81157  1  0  0  0
 82158  1  0  0  0
M  ISO  4   1 100  68 101  81 101  82 100
M  END
> <chiral flag>
0

> <version>
0

> <s_m_source_file>
/data/baiqing/PycharmProjects/Reinvent-master-3.2/result/LINK_invent/BTK/process_docking_weight1_custom_product_contain_oxygen_bond_distance_aromatic_linkinvent_7_9_3/rearranged_h_0021.sdf

> <i_m_source_file_index>
31

> <r_mmod_Potential_Energy-OPLS-2005>
493.085357666016

> <r_mmod_Stretch_Energy-OPLS-2005>
218.723663330078

> <r_mmod_Bend_Energy-OPLS-2005>
279.965545654297

> <r_mmod_Torsional_Energy-OPLS-2005>
247.324417114258

> <r_mmod_Improper_Torsional_Energy-OPLS-2005>
6.45540952682495

> <r_mmod_Van_der_Waal_Energy-OPLS-2005>
133.449432373047

> <r_mmod_Electrostatic_Energy-OPLS-2005>
-352.021362304688

> <r_mmod_Solvation_Energy-OPLS-2005>
-214.600311279297

> <b_mmod_Minimization_Converged-OPLS-2005>
0

> <r_mmod_RMS_Derivative-OPLS-2005>
3.82410001754761

$$$$
31
                    3D
 Structure written by MMmdl.
155164  0  0  1  0            999 V2000
  -30.5963  -14.7023   20.4927 C   0  0  0  0  0  0
  -30.4487  -12.4322   19.4614 C   0  0  0  0  0  0
  -29.5155  -12.5125   18.2312 C   0  0  0  0  0  0
  -28.0393  -12.3395   18.6426 C   0  0  0  0  0  0
  -27.6531  -13.2186   19.8611 C   0  0  2  0  0  0
  -28.6986  -13.0947   20.9925 C   0  0  0  0  0  0
  -25.2564  -13.8179   20.5682 C   0  0  0  0  0  0
  -24.1833  -13.0440   20.9193 C   0  0  0  0  0  0
  -24.6398  -11.6909   20.8737 C   0  0  0  0  0  0
  -23.9064  -10.4293   21.0401 C   0  0  0  0  0  0
  -24.3617   -9.4212   21.9180 C   0  0  0  0  0  0
  -23.6289   -8.2248   22.0751 C   0  0  0  0  0  0
  -22.4271   -8.0286   21.3540 C   0  0  0  0  0  0
  -21.9903   -9.0261   20.4648 C   0  0  0  0  0  0
  -22.7234  -10.2140   20.3057 C   0  0  0  0  0  0
  -21.6858   -6.0731   22.5277 C   0  0  0  0  0  0
  -21.4016   -6.5637   23.8208 C   0  0  0  0  0  0
  -21.3658   -5.6789   24.9169 C   0  0  0  0  0  0
  -21.6045   -4.3048   24.7225 C   0  0  0  0  0  0
  -21.8821   -3.8140   23.4344 C   0  0  0  0  0  0
  -21.9192   -4.6956   22.3400 C   0  0  0  0  0  0
  -22.7855  -13.5235   21.1850 C   0  0  0  0  0  0
  -22.1663   -4.2143   21.0977 F   0  0  0  0  0  0
  -21.5626   -3.4534   25.7731 F   0  0  0  0  0  0
  -30.0094  -13.4598   20.4298 N   0  0  0  0  0  0
  -26.2989  -12.9357   20.3300 N   0  0  0  0  0  0
  -25.9328  -11.6517   20.5753 N   0  0  0  0  0  0
  -22.0488  -12.8240   22.0411 N   0  0  0  0  0  0
  -25.4280  -15.1906   20.4097 N   0  0  0  0  0  0
  -31.7562  -14.8737   20.1042 O   0  0  0  0  0  0
  -21.6640   -6.8877   21.4240 O   0  0  0  0  0  0
  -22.3544  -14.5535   20.6683 O   0  0  0  0  0  0
  -24.6297  -31.8567   23.2009 C   0  0  0  0  0  0
  -25.9131  -32.4759   23.8345 C   0  0  1  0  0  0
  -27.2227  -27.2802   20.1205 C   0  0  0  0  0  0
  -25.5935  -33.8561   24.2269 N   0  0  0  0  0  0
  -23.4258  -30.4808   21.5432 C   0  0  2  0  0  0
  -24.8729  -28.9334   20.1092 C   0  0  0  0  0  0
  -22.7494  -29.4606   22.4912 C   0  0  0  0  0  0
  -18.0294  -28.1394   22.8478 C   0  0  0  0  0  0
  -24.1493  -36.7290   23.2639 C   0  0  0  0  0  0
  -25.9710  -30.7748   21.3791 C   0  0  0  0  0  0
  -26.0442  -29.4000   20.7190 C   0  0  0  0  0  0
  -27.2205  -28.5853   20.7157 C   0  0  0  0  0  0
  -26.0263  -26.8827   19.4768 C   0  0  0  0  0  0
  -24.8682  -27.6818   19.4786 C   0  0  0  0  0  0
  -23.6431  -29.8184   20.1579 C   0  0  0  0  0  0
  -25.4117  -36.3070   24.0326 C   0  0  1  0  0  0
  -20.5895  -28.3699   23.1270 C   0  0  2  0  0  0
  -20.6779  -26.9416   22.5411 C   0  0  0  0  0  0
  -19.5758  -26.6386   21.5210 C   0  0  0  0  0  0
  -18.1937  -26.7935   22.1617 C   0  0  0  0  0  0
  -19.1545  -28.8863   23.2871 C   0  0  0  0  0  0
  -18.9467  -30.1460   23.8894 C   0  0  0  0  0  0
  -17.6465  -30.6587   24.0564 C   0  0  0  0  0  0
  -25.9056  -34.9439   23.5098 C   0  0  0  0  0  0
  -16.5358  -29.9084   23.6329 C   0  0  0  0  0  0
  -16.7282  -28.6506   23.0345 C   0  0  0  0  0  0
  -26.4507  -31.6582   25.0730 C   0  0  0  0  0  0
  -25.3737  -31.3739   26.1459 C   0  0  0  0  0  0
  -27.0344  -30.2994   24.6218 C   0  0  0  0  0  0
  -27.6064  -32.4323   25.7492 C   0  0  0  0  0  0
  -27.5584  -37.1799   24.8462 C   0  0  0  0  0  0
  -21.4202  -29.3047   22.3654 N   0  0  0  0  0  0
  -26.4291  -37.3768   23.9408 N   0  0  0  0  0  0
  -24.6944  -31.0549   22.0977 N   0  0  0  0  0  0
  -23.4202  -28.8140   23.2997 O   0  0  0  0  0  0
  -28.3241  -26.3945   20.1876 O   0  0  0  0  0  0
  -26.5623  -34.8911   22.4663 O   0  0  0  0  0  0
  -23.5451  -32.1383   23.7320 O   0  0  0  0  0  0
  -28.5732  -19.3637   21.1677 C   0  0  0  0  0  0
  -28.6673  -17.9408   21.2362 C   0  0  0  0  0  0
  -30.8001  -18.0299   20.1893 C   0  0  0  0  0  0
  -30.6991  -19.4686   20.1316 C   0  0  0  0  0  0
  -29.5700  -20.2198   20.6159 C   0  0  0  0  0  0
  -29.7836  -17.2113   20.7521 C   0  0  0  0  0  0
  -28.6330  -22.6446   21.3018 C   0  0  0  0  0  0
  -29.4749  -22.5342   19.4336 C   0  0  0  0  0  0
  -29.1493  -23.7879   20.3357 C   0  0  1  0  0  0
  -31.8925  -20.2211   19.5680 C   0  0  0  0  0  0
  -28.1011  -24.9339   19.9227 C   0  0  0  0  0  0
  -29.4466  -21.7007   20.6464 N   0  0  0  0  0  0
  -29.7672  -15.7379   20.8702 N   0  0  0  0  0  0
  -27.8077  -22.5206   22.1831 O   0  0  0  0  0  0
  -31.4861  -12.5752   19.1545 H   0  0  0  0  0  0
  -30.4065  -11.4409   19.9158 H   0  0  0  0  0  0
  -29.7894  -11.7517   17.4988 H   0  0  0  0  0  0
  -29.6455  -13.4759   17.7347 H   0  0  0  0  0  0
  -27.8860  -11.2870   18.8855 H   0  0  0  0  0  0
  -27.3841  -12.5541   17.7974 H   0  0  0  0  0  0
  -27.6643  -14.2495   19.5068 H   0  0  0  0  0  0
  -28.7267  -12.0751   21.3798 H   0  0  0  0  0  0
  -28.4327  -13.7265   21.8408 H   0  0  0  0  0  0
  -25.2772   -9.5681   22.4744 H   0  0  0  0  0  0
  -24.0000   -7.4643   22.7474 H   0  0  0  0  0  0
  -21.0829   -8.8787   19.8961 H   0  0  0  0  0  0
  -22.3700  -10.9675   19.6162 H   0  0  0  0  0  0
  -21.2013   -7.6145   23.9711 H   0  0  0  0  0  0
  -21.1478   -6.0515   25.9069 H   0  0  0  0  0  0
  -22.0599   -2.7601   23.2848 H   0  0  0  0  0  0
  -22.4102  -11.9912   22.4822 H   0  0  0  0  0  0
  -21.1105  -13.1279   22.2601 H   0  0  0  0  0  0
  -24.6571  -15.8418   20.5106 H   0  0  0  0  0  0
  -26.2669  -15.6271   20.0490 H   0  0  0  0  0  0
  -26.7194  -32.5414   23.1083 H   0  0  0  0  0  0
  -25.0074  -33.9698   25.0408 H   0  0  0  0  0  0
  -22.7215  -31.3026   21.3989 H   0  0  0  0  0  0
  -23.3750  -35.9628   23.3293 H   0  0  0  0  0  0
  -24.3590  -36.8919   22.2057 H   0  0  0  0  0  0
  -23.7253  -37.6492   23.6668 H   0  0  0  0  0  0
  -26.1098  -31.5382   20.6122 H   0  0  0  0  0  0
  -26.8483  -30.8217   22.0124 H   0  0  0  0  0  0
  -28.1155  -28.9359   21.2110 H   0  0  0  0  0  0
  -25.9481  -25.9306   18.9746 H   0  0  0  0  0  0
  -23.9722  -27.3204   18.9929 H   0  0  0  0  0  0
  -23.7661  -30.5962   19.4032 H   0  0  0  0  0  0
  -22.7618  -29.2518   19.8519 H   0  0  0  0  0  0
  -25.1295  -36.1920   25.0818 H   0  0  0  0  0  0
  -20.9990  -28.3288   24.1390 H   0  0  0  0  0  0
  -20.5671  -26.2313   23.3616 H   0  0  0  0  0  0
  -21.6650  -26.7434   22.1213 H   0  0  0  0  0  0
  -19.6918  -25.6296   21.1242 H   0  0  0  0  0  0
  -19.6700  -27.3190   20.6736 H   0  0  0  0  0  0
  -17.4206  -26.6682   21.4022 H   0  0  0  0  0  0
  -18.0334  -26.0083   22.9016 H   0  0  0  0  0  0
  -19.7942  -30.7278   24.2267 H   0  0  0  0  0  0
  -17.5018  -31.6265   24.5169 H   0  0  0  0  0  0
  -15.5358  -30.2982   23.7659 H   0  0  0  0  0  0
  -15.8682  -28.0825   22.7058 H   0  0  0  0  0  0
  -24.5904  -30.7091   25.7801 H   0  0  0  0  0  0
  -24.8944  -32.2912   26.4888 H   0  0  0  0  0  0
  -25.8066  -30.8917   27.0232 H   0  0  0  0  0  0
  -26.2922  -29.6742   24.1240 H   0  0  0  0  0  0
  -27.4010  -29.7263   25.4746 H   0  0  0  0  0  0
  -27.8809  -30.4258   23.9465 H   0  0  0  0  0  0
  -27.2673  -33.3621   26.2072 H   0  0  0  0  0  0
  -28.3868  -32.6889   25.0315 H   0  0  0  0  0  0
  -28.0736  -31.8449   26.5407 H   0  0  0  0  0  0
  -28.2594  -38.0102   24.7503 H   0  0  0  0  0  0
  -28.1081  -36.2631   24.6277 H   0  0  0  0  0  0
  -27.2302  -37.1436   25.8865 H   0  0  0  0  0  0
  -20.9387  -29.8782   21.6868 H   0  0  0  0  0  0
  -26.0169  -38.2838   24.1415 H   0  0  0  0  0  0
  -27.6812  -19.8137   21.5791 H   0  0  0  0  0  0
  -27.8442  -17.4049   21.6876 H   0  0  0  0  0  0
  -31.6895  -17.5533   19.8014 H   0  0  0  0  0  0
  -30.4426  -22.5895   18.9339 H   0  0  0  0  0  0
  -28.6788  -22.2805   18.7284 H   0  0  0  0  0  0
  -30.0827  -24.2265   20.6883 H   0  0  0  0  0  0
  -32.7918  -19.6042   19.5676 H   0  0  0  0  0  0
  -32.1112  -21.1055   20.1670 H   0  0  0  0  0  0
  -31.6973  -20.5341   18.5426 H   0  0  0  0  0  0
  -27.1483  -24.6678   20.3824 H   0  0  0  0  0  0
  -27.9333  -24.8473   18.8488 H   0  0  0  0  0  0
  -28.8948  -15.3783   21.2252 H   0  0  0  0  0  0
  1 25  1  0  0  0
  1 30  2  0  0  0
  1 83  1  0  0  0
  2  3  1  0  0  0
  2 25  1  0  0  0
  2 85  1  0  0  0
  2 86  1  0  0  0
  3  4  1  0  0  0
  3 87  1  0  0  0
  3 88  1  0  0  0
  4  5  1  0  0  0
  4 89  1  0  0  0
  4 90  1  0  0  0
  5  6  1  0  0  0
  5 26  1  0  0  0
  5 91  1  0  0  0
  6 25  1  0  0  0
  6 92  1  0  0  0
  6 93  1  0  0  0
  7  8  2  0  0  0
  7 26  1  0  0  0
  7 29  1  0  0  0
  8  9  1  0  0  0
  8 22  1  0  0  0
  9 10  1  0  0  0
  9 27  2  0  0  0
 10 11  2  0  0  0
 10 15  1  0  0  0
 11 12  1  0  0  0
 11 94  1  0  0  0
 12 13  2  0  0  0
 12 95  1  0  0  0
 13 14  1  0  0  0
 13 31  1  0  0  0
 14 15  2  0  0  0
 14 96  1  0  0  0
 15 97  1  0  0  0
 16 17  2  0  0  0
 16 21  1  0  0  0
 16 31  1  0  0  0
 17 18  1  0  0  0
 17 98  1  0  0  0
 18 19  2  0  0  0
 18 99  1  0  0  0
 19 20  1  0  0  0
 19 24  1  0  0  0
 20 21  2  0  0  0
 20100  1  0  0  0
 21 23  1  0  0  0
 22 28  1  0  0  0
 22 32  2  0  0  0
 26 27  1  0  0  0
 28101  1  0  0  0
 28102  1  0  0  0
 29103  1  0  0  0
 29104  1  0  0  0
 33 34  1  0  0  0
 33 66  1  0  0  0
 33 70  2  0  0  0
 34 36  1  0  0  0
 34 59  1  0  0  0
 34105  1  0  0  0
 35 44  2  0  0  0
 35 45  1  0  0  0
 35 68  1  0  0  0
 36 56  1  0  0  0
 36106  1  0  0  0
 37 39  1  0  0  0
 37 47  1  0  0  0
 37 66  1  0  0  0
 37107  1  0  0  0
 38 43  2  0  0  0
 38 46  1  0  0  0
 38 47  1  0  0  0
 39 64  1  0  0  0
 39 67  2  0  0  0
 40 52  1  0  0  0
 40 53  2  0  0  0
 40 58  1  0  0  0
 41108  1  0  0  0
 41109  1  0  0  0
 41110  1  0  0  0
 41 48  1  0  0  0
 42 43  1  0  0  0
 42 66  1  0  0  0
 42111  1  0  0  0
 42112  1  0  0  0
 43 44  1  0  0  0
 44113  1  0  0  0
 45 46  2  0  0  0
 45114  1  0  0  0
 46115  1  0  0  0
 47116  1  0  0  0
 47117  1  0  0  0
 48 56  1  0  0  0
 48 65  1  0  0  0
 48118  1  0  0  0
 49 50  1  0  0  0
 49 53  1  0  0  0
 49 64  1  0  0  0
 49119  1  0  0  0
 50 51  1  0  0  0
 50120  1  0  0  0
 50121  1  0  0  0
 51 52  1  0  0  0
 51122  1  0  0  0
 51123  1  0  0  0
 52124  1  0  0  0
 52125  1  0  0  0
 53 54  1  0  0  0
 54 55  2  0  0  0
 54126  1  0  0  0
 55 57  1  0  0  0
 55127  1  0  0  0
 56 69  2  0  0  0
 57 58  2  0  0  0
 57128  1  0  0  0
 58129  1  0  0  0
 59 60  1  0  0  0
 59 61  1  0  0  0
 59 62  1  0  0  0
 60130  1  0  0  0
 60131  1  0  0  0
 60132  1  0  0  0
 61133  1  0  0  0
 61134  1  0  0  0
 61135  1  0  0  0
 62136  1  0  0  0
 62137  1  0  0  0
 62138  1  0  0  0
 63 65  1  0  0  0
 63139  1  0  0  0
 63140  1  0  0  0
 63141  1  0  0  0
 64142  1  0  0  0
 65143  1  0  0  0
 68 81  1  0  0  0
 71 72  2  0  0  0
 71 75  1  0  0  0
 71144  1  0  0  0
 72 76  1  0  0  0
 72145  1  0  0  0
 73 74  1  0  0  0
 73 76  2  0  0  0
 73146  1  0  0  0
 74 75  2  0  0  0
 74 80  1  0  0  0
 75 82  1  0  0  0
 76 83  1  0  0  0
 77 79  1  0  0  0
 77 82  1  0  0  0
 77 84  2  0  0  0
 78 79  1  0  0  0
 78 82  1  0  0  0
 78147  1  0  0  0
 78148  1  0  0  0
 79 81  1  0  0  0
 79149  1  0  0  0
 80150  1  0  0  0
 80151  1  0  0  0
 80152  1  0  0  0
 81153  1  0  0  0
 81154  1  0  0  0
 83155  1  0  0  0
M  ISO  4   1 100  68 101  81 101  83 100
M  END
> <chiral flag>
0

> <version>
0

> <s_m_source_file>
/data/baiqing/PycharmProjects/Reinvent-master-3.2/result/LINK_invent/BTK/process_docking_weight1_custom_product_contain_oxygen_bond_distance_aromatic_linkinvent_7_9_3/rearranged_h_0021.sdf

> <i_m_source_file_index>
32

> <r_mmod_Potential_Energy-OPLS-2005>
98.7193603515625

> <r_mmod_Stretch_Energy-OPLS-2005>
101.503372192383

> <r_mmod_Bend_Energy-OPLS-2005>
187.772827148438

> <r_mmod_Torsional_Energy-OPLS-2005>
225.775726318359

> <r_mmod_Improper_Torsional_Energy-OPLS-2005>
7.44452571868896

> <r_mmod_Van_der_Waal_Energy-OPLS-2005>
141.814971923828

> <r_mmod_Electrostatic_Energy-OPLS-2005>
-412.196411132812

> <r_mmod_Solvation_Energy-OPLS-2005>
-223.794342041016

> <b_mmod_Minimization_Converged-OPLS-2005>
0

> <r_mmod_RMS_Derivative-OPLS-2005>
1.26552796363831

$$$$
32
                    3D
 Structure written by MMmdl.
154162  0  0  1  0            999 V2000
  -30.5121  -14.9250   20.4381 C   0  0  0  0  0  0
  -30.4535  -12.5724   19.4931 C   0  0  0  0  0  0
  -29.5266  -12.5410   18.2540 C   0  0  0  0  0  0
  -28.0559  -12.3301   18.6659 C   0  0  0  0  0  0
  -27.6371  -13.2425   19.8480 C   0  0  2  0  0  0
  -28.6809  -13.2253   20.9859 C   0  0  0  0  0  0
  -25.2425  -13.8151   20.5579 C   0  0  0  0  0  0
  -24.1772  -13.0399   20.9206 C   0  0  0  0  0  0
  -24.6411  -11.6893   20.8769 C   0  0  0  0  0  0
  -23.9095  -10.4270   21.0420 C   0  0  0  0  0  0
  -24.3633   -9.4182   21.9196 C   0  0  0  0  0  0
  -23.6293   -8.2229   22.0761 C   0  0  0  0  0  0
  -22.4279   -8.0276   21.3546 C   0  0  0  0  0  0
  -21.9924   -9.0254   20.4651 C   0  0  0  0  0  0
  -22.7267  -10.2124   20.3064 C   0  0  0  0  0  0
  -21.6850   -6.0734   22.5277 C   0  0  0  0  0  0
  -21.4012   -6.5639   23.8211 C   0  0  0  0  0  0
  -21.3655   -5.6789   24.9171 C   0  0  0  0  0  0
  -21.6043   -4.3053   24.7219 C   0  0  0  0  0  0
  -21.8819   -3.8145   23.4341 C   0  0  0  0  0  0
  -21.9191   -4.6962   22.3399 C   0  0  0  0  0  0
  -22.7791  -13.5181   21.1864 C   0  0  0  0  0  0
  -22.1660   -4.2149   21.0975 F   0  0  0  0  0  0
  -21.5627   -3.4536   25.7731 F   0  0  0  0  0  0
  -29.9646  -13.6447   20.4031 N   0  0  0  0  0  0
  -26.2909  -12.9410   20.3254 N   0  0  0  0  0  0
  -25.9354  -11.6552   20.5786 N   0  0  0  0  0  0
  -22.0450  -12.8180   22.0435 N   0  0  0  0  0  0
  -25.3943  -15.1842   20.3726 N   0  0  0  0  0  0
  -31.7010  -15.0502   20.1253 O   0  0  0  0  0  0
  -21.6637   -6.8877   21.4240 O   0  0  0  0  0  0
  -22.3475  -14.5486   20.6706 O   0  0  0  0  0  0
  -24.6424  -31.8460   23.1878 C   0  0  0  0  0  0
  -25.9200  -32.4705   23.8265 C   0  0  1  0  0  0
  -27.2172  -27.1494   20.1549 C   0  0  0  0  0  0
  -25.5958  -33.8512   24.2193 N   0  0  0  0  0  0
  -23.4448  -30.4655   21.5336 C   0  0  2  0  0  0
  -24.8940  -28.8903   20.1144 C   0  0  0  0  0  0
  -22.7558  -29.4567   22.4864 C   0  0  0  0  0  0
  -18.0307  -28.1395   22.8482 C   0  0  0  0  0  0
  -24.1490  -36.7247   23.2646 C   0  0  0  0  0  0
  -26.0002  -30.7232   21.3845 C   0  0  0  0  0  0
  -26.0724  -29.3340   20.7303 C   0  0  0  0  0  0
  -27.2379  -28.4805   20.7313 C   0  0  0  0  0  0
  -26.0158  -26.8039   19.5003 C   0  0  0  0  0  0
  -24.8774  -27.6369   19.4848 C   0  0  0  0  0  0
  -23.6706  -29.7925   20.1541 C   0  0  0  0  0  0
  -25.4121  -36.3032   24.0322 C   0  0  1  0  0  0
  -20.5919  -28.3723   23.1238 C   0  0  2  0  0  0
  -20.6795  -26.9428   22.5402 C   0  0  0  0  0  0
  -19.5764  -26.6378   21.5214 C   0  0  0  0  0  0
  -18.1945  -26.7937   22.1625 C   0  0  0  0  0  0
  -19.1564  -28.8874   23.2856 C   0  0  0  0  0  0
  -18.9485  -30.1471   23.8884 C   0  0  0  0  0  0
  -17.6485  -30.6597   24.0560 C   0  0  0  0  0  0
  -25.9071  -34.9416   23.5060 C   0  0  0  0  0  0
  -16.5373  -29.9092   23.6342 C   0  0  0  0  0  0
  -16.7293  -28.6508   23.0365 C   0  0  0  0  0  0
  -26.4522  -31.6571   25.0704 C   0  0  0  0  0  0
  -25.3716  -31.3765   26.1406 C   0  0  0  0  0  0
  -27.0378  -30.2971   24.6266 C   0  0  0  0  0  0
  -27.6051  -32.4342   25.7489 C   0  0  0  0  0  0
  -27.5572  -37.1778   24.8470 C   0  0  0  0  0  0
  -21.4252  -29.3060   22.3614 N   0  0  0  0  0  0
  -26.4276  -37.3750   23.9416 N   0  0  0  0  0  0
  -24.7156  -31.0327   22.0908 N   0  0  0  0  0  0
  -23.4205  -28.8117   23.3011 O   0  0  0  0  0  0
  -28.2641  -26.1629   20.1715 O   0  0  0  0  0  0
  -26.5651  -34.8917   22.4635 O   0  0  0  0  0  0
  -23.5541  -32.1331   23.7105 O   0  0  0  0  0  0
  -28.2432  -19.5885   21.4598 C   0  0  0  0  0  0
  -30.0059  -19.9923   19.9709 C   0  0  0  0  0  0
  -28.5172  -18.1706   21.4458 C   0  0  0  0  0  0
  -28.9725  -20.6142   20.7671 C   0  0  0  0  0  0
  -29.5554  -17.5471   20.6758 C   0  0  0  0  0  0
  -30.2828  -18.5472   19.9172 C   0  0  0  0  0  0
  -28.7070  -23.3212   20.2590 C   0  0  0  0  0  0
  -27.6365  -17.2997   22.3268 C   0  0  0  0  0  0
  -28.1258  -22.3486   22.3883 C   0  0  0  0  0  0
  -27.9603  -24.7456   20.7248 C   0  0  0  0  0  0
  -29.6386  -16.0092   20.6949 N   0  0  0  0  0  0
  -28.6461  -22.1122   21.0289 N   0  0  0  0  0  0
  -29.3046  -23.3284   19.1778 O   0  0  0  0  0  0
  -31.5393  -18.0292   18.8538 Cl  0  0  0  0  0  0
  -31.4846  -12.7463   19.1814 H   0  0  0  0  0  0
  -30.4553  -11.6067   20.0020 H   0  0  0  0  0  0
  -29.8395  -11.7550   17.5658 H   0  0  0  0  0  0
  -29.6192  -13.4809   17.7073 H   0  0  0  0  0  0
  -27.9404  -11.2832   18.9493 H   0  0  0  0  0  0
  -27.3955  -12.4887   17.8124 H   0  0  0  0  0  0
  -27.6118  -14.2555   19.4458 H   0  0  0  0  0  0
  -28.7594  -12.2314   21.4294 H   0  0  0  0  0  0
  -28.3820  -13.8941   21.7939 H   0  0  0  0  0  0
  -25.2781   -9.5650   22.4773 H   0  0  0  0  0  0
  -23.9991   -7.4620   22.7482 H   0  0  0  0  0  0
  -21.0857   -8.8784   19.8958 H   0  0  0  0  0  0
  -22.3737  -10.9667   19.6173 H   0  0  0  0  0  0
  -21.2007   -7.6147   23.9715 H   0  0  0  0  0  0
  -21.1475   -6.0518   25.9072 H   0  0  0  0  0  0
  -22.0603   -2.7608   23.2838 H   0  0  0  0  0  0
  -22.4069  -11.9844   22.4828 H   0  0  0  0  0  0
  -21.1070  -13.1212   22.2646 H   0  0  0  0  0  0
  -24.6035  -15.8147   20.4418 H   0  0  0  0  0  0
  -26.2050  -15.6162   19.9494 H   0  0  0  0  0  0
  -26.7262  -32.5317   23.0988 H   0  0  0  0  0  0
  -25.0120  -33.9635   25.0345 H   0  0  0  0  0  0
  -22.7471  -31.2915   21.3771 H   0  0  0  0  0  0
  -23.3771  -35.9563   23.3290 H   0  0  0  0  0  0
  -24.3577  -36.8886   22.2064 H   0  0  0  0  0  0
  -23.7226  -37.6431   23.6689 H   0  0  0  0  0  0
  -26.1520  -31.4755   20.6094 H   0  0  0  0  0  0
  -26.8724  -30.7756   22.0245 H   0  0  0  0  0  0
  -28.1379  -28.8170   21.2258 H   0  0  0  0  0  0
  -25.9411  -25.8462   19.0050 H   0  0  0  0  0  0
  -23.9786  -27.2926   18.9913 H   0  0  0  0  0  0
  -23.8068  -30.5658   19.3967 H   0  0  0  0  0  0
  -22.7855  -29.2336   19.8435 H   0  0  0  0  0  0
  -25.1303  -36.1856   25.0813 H   0  0  0  0  0  0
  -21.0013  -28.3314   24.1361 H   0  0  0  0  0  0
  -20.5694  -26.2340   23.3626 H   0  0  0  0  0  0
  -21.6656  -26.7440   22.1194 H   0  0  0  0  0  0
  -19.6932  -25.6284   21.1258 H   0  0  0  0  0  0
  -19.6702  -27.3181   20.6739 H   0  0  0  0  0  0
  -17.4215  -26.6696   21.4028 H   0  0  0  0  0  0
  -18.0331  -26.0076   22.9016 H   0  0  0  0  0  0
  -19.7965  -30.7280   24.2253 H   0  0  0  0  0  0
  -17.5046  -31.6284   24.5150 H   0  0  0  0  0  0
  -15.5378  -30.2994   23.7679 H   0  0  0  0  0  0
  -15.8690  -28.0819   22.7101 H   0  0  0  0  0  0
  -24.5904  -30.7098   25.7725 H   0  0  0  0  0  0
  -24.8901  -32.2952   26.4771 H   0  0  0  0  0  0
  -25.8004  -30.8979   27.0220 H   0  0  0  0  0  0
  -26.2983  -29.6701   24.1271 H   0  0  0  0  0  0
  -27.4001  -29.7255   25.4819 H   0  0  0  0  0  0
  -27.8883  -30.4210   23.9562 H   0  0  0  0  0  0
  -27.2650  -33.3693   26.1952 H   0  0  0  0  0  0
  -28.3921  -32.6816   25.0353 H   0  0  0  0  0  0
  -28.0644  -31.8539   26.5498 H   0  0  0  0  0  0
  -28.2567  -38.0094   24.7519 H   0  0  0  0  0  0
  -28.1081  -36.2617   24.6279 H   0  0  0  0  0  0
  -27.2292  -37.1400   25.8874 H   0  0  0  0  0  0
  -20.9460  -29.8772   21.6797 H   0  0  0  0  0  0
  -26.0140  -38.2811   24.1441 H   0  0  0  0  0  0
  -27.4045  -19.8943   22.0687 H   0  0  0  0  0  0
  -30.6373  -20.6407   19.3815 H   0  0  0  0  0  0
  -27.0143  -17.8912   22.9987 H   0  0  0  0  0  0
  -28.2376  -16.6338   22.9460 H   0  0  0  0  0  0
  -26.9723  -16.6980   21.7150 H   0  0  0  0  0  0
  -28.3188  -21.5290   23.0779 H   0  0  0  0  0  0
  -27.0492  -22.5254   22.3738 H   0  0  0  0  0  0
  -28.6217  -23.1842   22.8810 H   0  0  0  0  0  0
  -28.1123  -24.8866   21.7911 H   0  0  0  0  0  0
  -26.8937  -24.5500   20.6260 H   0  0  0  0  0  0
  -28.7642  -15.6188   21.0052 H   0  0  0  0  0  0
  1 25  1  0  0  0
  1 30  2  0  0  0
  1 81  1  0  0  0
  2  3  1  0  0  0
  2 25  1  0  0  0
  2 85  1  0  0  0
  2 86  1  0  0  0
  3  4  1  0  0  0
  3 87  1  0  0  0
  3 88  1  0  0  0
  4  5  1  0  0  0
  4 89  1  0  0  0
  4 90  1  0  0  0
  5  6  1  0  0  0
  5 26  1  0  0  0
  5 91  1  0  0  0
  6 25  1  0  0  0
  6 92  1  0  0  0
  6 93  1  0  0  0
  7  8  2  0  0  0
  7 26  1  0  0  0
  7 29  1  0  0  0
  8  9  1  0  0  0
  8 22  1  0  0  0
  9 10  1  0  0  0
  9 27  2  0  0  0
 10 11  2  0  0  0
 10 15  1  0  0  0
 11 12  1  0  0  0
 11 94  1  0  0  0
 12 13  2  0  0  0
 12 95  1  0  0  0
 13 14  1  0  0  0
 13 31  1  0  0  0
 14 15  2  0  0  0
 14 96  1  0  0  0
 15 97  1  0  0  0
 16 17  2  0  0  0
 16 21  1  0  0  0
 16 31  1  0  0  0
 17 18  1  0  0  0
 17 98  1  0  0  0
 18 19  2  0  0  0
 18 99  1  0  0  0
 19 20  1  0  0  0
 19 24  1  0  0  0
 20 21  2  0  0  0
 20100  1  0  0  0
 21 23  1  0  0  0
 22 28  1  0  0  0
 22 32  2  0  0  0
 26 27  1  0  0  0
 28101  1  0  0  0
 28102  1  0  0  0
 29103  1  0  0  0
 29104  1  0  0  0
 33 34  1  0  0  0
 33 66  1  0  0  0
 33 70  2  0  0  0
 34 36  1  0  0  0
 34 59  1  0  0  0
 34105  1  0  0  0
 35 44  2  0  0  0
 35 45  1  0  0  0
 35 68  1  0  0  0
 36 56  1  0  0  0
 36106  1  0  0  0
 37 39  1  0  0  0
 37 47  1  0  0  0
 37 66  1  0  0  0
 37107  1  0  0  0
 38 43  2  0  0  0
 38 46  1  0  0  0
 38 47  1  0  0  0
 39 64  1  0  0  0
 39 67  2  0  0  0
 40 52  1  0  0  0
 40 53  2  0  0  0
 40 58  1  0  0  0
 41108  1  0  0  0
 41109  1  0  0  0
 41110  1  0  0  0
 41 48  1  0  0  0
 42 43  1  0  0  0
 42 66  1  0  0  0
 42111  1  0  0  0
 42112  1  0  0  0
 43 44  1  0  0  0
 44113  1  0  0  0
 45 46  2  0  0  0
 45114  1  0  0  0
 46115  1  0  0  0
 47116  1  0  0  0
 47117  1  0  0  0
 48 56  1  0  0  0
 48 65  1  0  0  0
 48118  1  0  0  0
 49 50  1  0  0  0
 49 53  1  0  0  0
 49 64  1  0  0  0
 49119  1  0  0  0
 50 51  1  0  0  0
 50120  1  0  0  0
 50121  1  0  0  0
 51 52  1  0  0  0
 51122  1  0  0  0
 51123  1  0  0  0
 52124  1  0  0  0
 52125  1  0  0  0
 53 54  1  0  0  0
 54 55  2  0  0  0
 54126  1  0  0  0
 55 57  1  0  0  0
 55127  1  0  0  0
 56 69  2  0  0  0
 57 58  2  0  0  0
 57128  1  0  0  0
 58129  1  0  0  0
 59 60  1  0  0  0
 59 61  1  0  0  0
 59 62  1  0  0  0
 60130  1  0  0  0
 60131  1  0  0  0
 60132  1  0  0  0
 61133  1  0  0  0
 61134  1  0  0  0
 61135  1  0  0  0
 62136  1  0  0  0
 62137  1  0  0  0
 62138  1  0  0  0
 63 65  1  0  0  0
 63139  1  0  0  0
 63140  1  0  0  0
 63141  1  0  0  0
 64142  1  0  0  0
 65143  1  0  0  0
 68 80  1  0  0  0
 71 73  2  0  0  0
 71 74  1  0  0  0
 71144  1  0  0  0
 72 74  2  0  0  0
 72 76  1  0  0  0
 72145  1  0  0  0
 73 75  1  0  0  0
 73 78  1  0  0  0
 74 82  1  0  0  0
 75 76  2  0  0  0
 75 81  1  0  0  0
 76 84  1  0  0  0
 77 80  1  0  0  0
 77 82  1  0  0  0
 77 83  2  0  0  0
 78146  1  0  0  0
 78147  1  0  0  0
 78148  1  0  0  0
 79 82  1  0  0  0
 79149  1  0  0  0
 79150  1  0  0  0
 79151  1  0  0  0
 80152  1  0  0  0
 80153  1  0  0  0
 81154  1  0  0  0
M  ISO  4   1 100  68 101  80 101  81 100
M  END
> <chiral flag>
0

> <version>
0

> <s_m_source_file>
/data/baiqing/PycharmProjects/Reinvent-master-3.2/result/LINK_invent/BTK/process_docking_weight1_custom_product_contain_oxygen_bond_distance_aromatic_linkinvent_7_9_3/rearranged_h_0021.sdf

> <i_m_source_file_index>
33

> <r_mmod_Potential_Energy-OPLS-2005>
546.336181640625

> <r_mmod_Stretch_Energy-OPLS-2005>
242.059066772461

> <r_mmod_Bend_Energy-OPLS-2005>
284.353576660156

> <r_mmod_Torsional_Energy-OPLS-2005>
274.548217773438

> <r_mmod_Improper_Torsional_Energy-OPLS-2005>
4.33895349502563

> <r_mmod_Van_der_Waal_Energy-OPLS-2005>
145.709503173828

> <r_mmod_Electrostatic_Energy-OPLS-2005>
-346.965148925781

> <r_mmod_Solvation_Energy-OPLS-2005>
-236.380294799805

> <b_mmod_Minimization_Converged-OPLS-2005>
0

> <r_mmod_RMS_Derivative-OPLS-2005>
1.33374583721161

$$$$
33
                    3D
 Structure written by MMmdl.
159167  0  0  1  0            999 V2000
  -30.6188  -14.6299   20.5156 C   0  0  0  0  0  0
  -30.4430  -12.3893   19.4511 C   0  0  0  0  0  0
  -29.5120  -12.5114   18.2245 C   0  0  0  0  0  0
  -28.0344  -12.3444   18.6356 C   0  0  0  0  0  0
  -27.6564  -13.2124   19.8656 C   0  0  2  0  0  0
  -28.6995  -13.0534   20.9945 C   0  0  0  0  0  0
  -25.2582  -13.8163   20.5688 C   0  0  0  0  0  0
  -24.1838  -13.0434   20.9179 C   0  0  0  0  0  0
  -24.6395  -11.6904   20.8721 C   0  0  0  0  0  0
  -23.9056  -10.4290   21.0386 C   0  0  0  0  0  0
  -24.3614   -9.4211   21.9167 C   0  0  0  0  0  0
  -23.6294   -8.2249   22.0747 C   0  0  0  0  0  0
  -22.4276   -8.0279   21.3544 C   0  0  0  0  0  0
  -21.9901   -9.0243   20.4645 C   0  0  0  0  0  0
  -22.7222  -10.2127   20.3040 C   0  0  0  0  0  0
  -21.6854   -6.0730   22.5277 C   0  0  0  0  0  0
  -21.4018   -6.5632   23.8210 C   0  0  0  0  0  0
  -21.3663   -5.6785   24.9172 C   0  0  0  0  0  0
  -21.6041   -4.3048   24.7224 C   0  0  0  0  0  0
  -21.8822   -3.8142   23.4346 C   0  0  0  0  0  0
  -21.9196   -4.6958   22.3403 C   0  0  0  0  0  0
  -22.7859  -13.5230   21.1841 C   0  0  0  0  0  0
  -22.1663   -4.2143   21.0981 F   0  0  0  0  0  0
  -21.5628   -3.4531   25.7738 F   0  0  0  0  0  0
  -30.0180  -13.4010   20.4383 N   0  0  0  0  0  0
  -26.3004  -12.9333   20.3309 N   0  0  0  0  0  0
  -25.9322  -11.6493   20.5737 N   0  0  0  0  0  0
  -22.0500  -12.8231   22.0406 N   0  0  0  0  0  0
  -25.4306  -15.1887   20.4124 N   0  0  0  0  0  0
  -31.7694  -14.8110   20.1058 O   0  0  0  0  0  0
  -21.6646   -6.8874   21.4240 O   0  0  0  0  0  0
  -22.3547  -14.5532   20.6682 O   0  0  0  0  0  0
  -24.6251  -31.8601   23.2043 C   0  0  0  0  0  0
  -25.9103  -32.4780   23.8358 C   0  0  1  0  0  0
  -27.2250  -27.3245   20.1027 C   0  0  0  0  0  0
  -25.5913  -33.8582   24.2278 N   0  0  0  0  0  0
  -23.4180  -30.4868   21.5463 C   0  0  2  0  0  0
  -24.8631  -28.9465   20.1101 C   0  0  0  0  0  0
  -22.7461  -29.4631   22.4925 C   0  0  0  0  0  0
  -18.0283  -28.1387   22.8480 C   0  0  0  0  0  0
  -24.1488  -36.7302   23.2639 C   0  0  0  0  0  0
  -25.9596  -30.7913   21.3771 C   0  0  0  0  0  0
  -26.0316  -29.4201   20.7178 C   0  0  0  0  0  0
  -27.2111  -28.6180   20.7115 C   0  0  0  0  0  0
  -26.0290  -26.9110   19.4647 C   0  0  0  0  0  0
  -24.8636  -27.6961   19.4782 C   0  0  0  0  0  0
  -23.6320  -29.8266   20.1601 C   0  0  0  0  0  0
  -25.4112  -36.3085   24.0327 C   0  0  1  0  0  0
  -20.5882  -28.3688   23.1278 C   0  0  2  0  0  0
  -20.6769  -26.9412   22.5405 C   0  0  0  0  0  0
  -19.5750  -26.6384   21.5203 C   0  0  0  0  0  0
  -18.1931  -26.7929   22.1621 C   0  0  0  0  0  0
  -19.1535  -28.8853   23.2879 C   0  0  0  0  0  0
  -18.9464  -30.1452   23.8898 C   0  0  0  0  0  0
  -17.6465  -30.6588   24.0565 C   0  0  0  0  0  0
  -25.9045  -34.9454   23.5099 C   0  0  0  0  0  0
  -16.5355  -29.9089   23.6328 C   0  0  0  0  0  0
  -16.7270  -28.6510   23.0344 C   0  0  0  0  0  0
  -26.4487  -31.6596   25.0733 C   0  0  0  0  0  0
  -25.3725  -31.3745   26.1465 C   0  0  0  0  0  0
  -27.0324  -30.3011   24.6203 C   0  0  0  0  0  0
  -27.6044  -32.4334   25.7499 C   0  0  0  0  0  0
  -27.5578  -37.1803   24.8461 C   0  0  0  0  0  0
  -21.4174  -29.3046   22.3671 N   0  0  0  0  0  0
  -26.4289  -37.3780   23.9407 N   0  0  0  0  0  0
  -24.6865  -31.0619   22.0996 N   0  0  0  0  0  0
  -23.4188  -28.8160   23.2993 O   0  0  0  0  0  0
  -28.3579  -26.4910   20.1694 O   0  0  0  0  0  0
  -26.5619  -34.8918   22.4671 O   0  0  0  0  0  0
  -23.5416  -32.1401   23.7372 O   0  0  0  0  0  0
  -28.8431  -19.2963   21.4583 C   0  0  0  0  0  0
  -28.8614  -17.8726   21.4807 C   0  0  0  0  0  0
  -30.8630  -17.8614   20.1507 C   0  0  0  0  0  0
  -29.8380  -20.0524   20.7878 C   0  0  0  0  0  0
  -29.8795  -17.1099   20.8489 C   0  0  0  0  0  0
  -30.8441  -19.2911   20.1178 C   0  0  0  0  0  0
  -28.7172  -25.3643   18.1242 C   0  0  0  0  0  0
  -28.9826  -22.1131   18.6755 C   0  0  0  0  0  0
  -29.8989  -21.6257   20.9305 C   0  0  0  0  0  0
  -29.2875  -24.0378   20.3007 C   0  0  0  0  0  0
  -28.3408  -25.1218   19.6005 C   0  0  1  0  0  0
  -29.8117  -15.6502   20.9420 N   0  0  0  0  0  0
  -29.0145  -22.5374   20.0961 N   0  3  1  0  0  0
  -32.1074  -20.0953   19.2555 Cl  0  0  0  0  0  0
  -31.4848  -12.5200   19.1504 H   0  0  0  0  0  0
  -30.3796  -11.3907   19.8851 H   0  0  0  0  0  0
  -29.7783  -11.7660   17.4742 H   0  0  0  0  0  0
  -29.6531  -13.4845   17.7513 H   0  0  0  0  0  0
  -27.8749  -11.2901   18.8663 H   0  0  0  0  0  0
  -27.3794  -12.5728   17.7937 H   0  0  0  0  0  0
  -27.6783  -14.2496   19.5316 H   0  0  0  0  0  0
  -28.7099  -12.0266   21.3622 H   0  0  0  0  0  0
  -28.4400  -13.6704   21.8564 H   0  0  0  0  0  0
  -25.2758   -9.5692   22.4736 H   0  0  0  0  0  0
  -24.0005   -7.4640   22.7464 H   0  0  0  0  0  0
  -21.0829   -8.8748   19.8958 H   0  0  0  0  0  0
  -22.3663  -10.9658   19.6149 H   0  0  0  0  0  0
  -21.2010   -7.6139   23.9709 H   0  0  0  0  0  0
  -21.1483   -6.0517   25.9073 H   0  0  0  0  0  0
  -22.0602   -2.7602   23.2847 H   0  0  0  0  0  0
  -22.4117  -11.9902   22.4815 H   0  0  0  0  0  0
  -21.1107  -13.1249   22.2589 H   0  0  0  0  0  0
  -24.6638  -15.8430   20.5250 H   0  0  0  0  0  0
  -26.2769  -15.6283   20.0731 H   0  0  0  0  0  0
  -26.7166  -32.5445   23.1103 H   0  0  0  0  0  0
  -25.0033  -33.9732   25.0400 H   0  0  0  0  0  0
  -22.7126  -31.3083   21.4057 H   0  0  0  0  0  0
  -23.3745  -35.9638   23.3299 H   0  0  0  0  0  0
  -24.3581  -36.8928   22.2054 H   0  0  0  0  0  0
  -23.7245  -37.6505   23.6665 H   0  0  0  0  0  0
  -26.0936  -31.5577   20.6125 H   0  0  0  0  0  0
  -26.8388  -30.8356   22.0081 H   0  0  0  0  0  0
  -28.1059  -28.9785   21.1993 H   0  0  0  0  0  0
  -25.9430  -25.9728   18.9413 H   0  0  0  0  0  0
  -23.9692  -27.3305   18.9919 H   0  0  0  0  0  0
  -23.7527  -30.6059   19.4065 H   0  0  0  0  0  0
  -22.7519  -29.2582   19.8542 H   0  0  0  0  0  0
  -25.1294  -36.1937   25.0820 H   0  0  0  0  0  0
  -20.9981  -28.3259   24.1395 H   0  0  0  0  0  0
  -20.5657  -26.2296   23.3601 H   0  0  0  0  0  0
  -21.6641  -26.7432   22.1210 H   0  0  0  0  0  0
  -19.6913  -25.6293   21.1237 H   0  0  0  0  0  0
  -19.6695  -27.3187   20.6727 H   0  0  0  0  0  0
  -17.4196  -26.6660   21.4030 H   0  0  0  0  0  0
  -18.0352  -26.0069   22.9022 H   0  0  0  0  0  0
  -19.7941  -30.7266   24.2267 H   0  0  0  0  0  0
  -17.5024  -31.6271   24.5162 H   0  0  0  0  0  0
  -15.5357  -30.3000   23.7649 H   0  0  0  0  0  0
  -15.8669  -28.0836   22.7052 H   0  0  0  0  0  0
  -24.5887  -30.7106   25.7801 H   0  0  0  0  0  0
  -24.8936  -32.2920   26.4894 H   0  0  0  0  0  0
  -25.8052  -30.8920   27.0235 H   0  0  0  0  0  0
  -26.2901  -29.6766   24.1219 H   0  0  0  0  0  0
  -27.3988  -29.7269   25.4722 H   0  0  0  0  0  0
  -27.8787  -30.4278   23.9450 H   0  0  0  0  0  0
  -27.2641  -33.3614   26.2102 H   0  0  0  0  0  0
  -28.3840  -32.6925   25.0326 H   0  0  0  0  0  0
  -28.0730  -31.8450   26.5398 H   0  0  0  0  0  0
  -28.2593  -38.0102   24.7505 H   0  0  0  0  0  0
  -28.1075  -36.2632   24.6285 H   0  0  0  0  0  0
  -27.2297  -37.1454   25.8864 H   0  0  0  0  0  0
  -20.9334  -29.8790   21.6912 H   0  0  0  0  0  0
  -26.0170  -38.2851   24.1421 H   0  0  0  0  0  0
  -28.0614  -19.8111   21.9999 H   0  0  0  0  0  0
  -28.0750  -17.3634   22.0214 H   0  0  0  0  0  0
  -31.6604  -17.3492   19.6324 H   0  0  0  0  0  0
  -28.6310  -24.4832   17.4976 H   0  0  0  0  0  0
  -29.7424  -25.7240   18.0429 H   0  0  0  0  0  0
  -28.0777  -26.1209   17.6713 H   0  0  0  0  0  0
  -28.8782  -21.0334   18.5724 H   0  0  0  0  0  0
  -29.8894  -22.4110   18.1478 H   0  0  0  0  0  0
  -28.1160  -22.5294   18.1672 H   0  0  0  0  0  0
  -30.9312  -21.9454   20.7898 H   0  0  0  0  0  0
  -29.6887  -21.8515   21.9768 H   0  0  0  0  0  0
  -29.2205  -24.2162   21.3747 H   0  0  0  0  0  0
  -30.3241  -24.2503   20.0369 H   0  0  0  0  0  0
  -27.3444  -24.6944   19.6805 H   0  0  0  0  0  0
  -28.9432  -15.3025   21.3194 H   0  0  0  0  0  0
  -28.0805  -22.3692   20.4414 H   0  0  0  0  0  0
  1 25  1  0  0  0
  1 30  2  0  0  0
  1 82  1  0  0  0
  2  3  1  0  0  0
  2 25  1  0  0  0
  2 85  1  0  0  0
  2 86  1  0  0  0
  3  4  1  0  0  0
  3 87  1  0  0  0
  3 88  1  0  0  0
  4  5  1  0  0  0
  4 89  1  0  0  0
  4 90  1  0  0  0
  5  6  1  0  0  0
  5 26  1  0  0  0
  5 91  1  0  0  0
  6 25  1  0  0  0
  6 92  1  0  0  0
  6 93  1  0  0  0
  7  8  2  0  0  0
  7 26  1  0  0  0
  7 29  1  0  0  0
  8  9  1  0  0  0
  8 22  1  0  0  0
  9 10  1  0  0  0
  9 27  2  0  0  0
 10 11  2  0  0  0
 10 15  1  0  0  0
 11 12  1  0  0  0
 11 94  1  0  0  0
 12 13  2  0  0  0
 12 95  1  0  0  0
 13 14  1  0  0  0
 13 31  1  0  0  0
 14 15  2  0  0  0
 14 96  1  0  0  0
 15 97  1  0  0  0
 16 17  2  0  0  0
 16 21  1  0  0  0
 16 31  1  0  0  0
 17 18  1  0  0  0
 17 98  1  0  0  0
 18 19  2  0  0  0
 18 99  1  0  0  0
 19 20  1  0  0  0
 19 24  1  0  0  0
 20 21  2  0  0  0
 20100  1  0  0  0
 21 23  1  0  0  0
 22 28  1  0  0  0
 22 32  2  0  0  0
 26 27  1  0  0  0
 28101  1  0  0  0
 28102  1  0  0  0
 29103  1  0  0  0
 29104  1  0  0  0
 33 34  1  0  0  0
 33 66  1  0  0  0
 33 70  2  0  0  0
 34 36  1  0  0  0
 34 59  1  0  0  0
 34105  1  0  0  0
 35 44  2  0  0  0
 35 45  1  0  0  0
 35 68  1  0  0  0
 36 56  1  0  0  0
 36106  1  0  0  0
 37 39  1  0  0  0
 37 47  1  0  0  0
 37 66  1  0  0  0
 37107  1  0  0  0
 38 43  2  0  0  0
 38 46  1  0  0  0
 38 47  1  0  0  0
 39 64  1  0  0  0
 39 67  2  0  0  0
 40 52  1  0  0  0
 40 53  2  0  0  0
 40 58  1  0  0  0
 41108  1  0  0  0
 41109  1  0  0  0
 41110  1  0  0  0
 41 48  1  0  0  0
 42 43  1  0  0  0
 42 66  1  0  0  0
 42111  1  0  0  0
 42112  1  0  0  0
 43 44  1  0  0  0
 44113  1  0  0  0
 45 46  2  0  0  0
 45114  1  0  0  0
 46115  1  0  0  0
 47116  1  0  0  0
 47117  1  0  0  0
 48 56  1  0  0  0
 48 65  1  0  0  0
 48118  1  0  0  0
 49 50  1  0  0  0
 49 53  1  0  0  0
 49 64  1  0  0  0
 49119  1  0  0  0
 50 51  1  0  0  0
 50120  1  0  0  0
 50121  1  0  0  0
 51 52  1  0  0  0
 51122  1  0  0  0
 51123  1  0  0  0
 52124  1  0  0  0
 52125  1  0  0  0
 53 54  1  0  0  0
 54 55  2  0  0  0
 54126  1  0  0  0
 55 57  1  0  0  0
 55127  1  0  0  0
 56 69  2  0  0  0
 57 58  2  0  0  0
 57128  1  0  0  0
 58129  1  0  0  0
 59 60  1  0  0  0
 59 61  1  0  0  0
 59 62  1  0  0  0
 60130  1  0  0  0
 60131  1  0  0  0
 60132  1  0  0  0
 61133  1  0  0  0
 61134  1  0  0  0
 61135  1  0  0  0
 62136  1  0  0  0
 62137  1  0  0  0
 62138  1  0  0  0
 63 65  1  0  0  0
 63139  1  0  0  0
 63140  1  0  0  0
 63141  1  0  0  0
 64142  1  0  0  0
 65143  1  0  0  0
 68 81  1  0  0  0
 71 72  2  0  0  0
 71 74  1  0  0  0
 71144  1  0  0  0
 72 75  1  0  0  0
 72145  1  0  0  0
 73 75  2  0  0  0
 73 76  1  0  0  0
 73146  1  0  0  0
 74 76  2  0  0  0
 74 79  1  0  0  0
 75 82  1  0  0  0
 76 84  1  0  0  0
 77147  1  0  0  0
 77148  1  0  0  0
 77149  1  0  0  0
 77 81  1  0  0  0
 78150  1  0  0  0
 78151  1  0  0  0
 78152  1  0  0  0
 78 83  1  0  0  0
 79 83  1  0  0  0
 79153  1  0  0  0
 79154  1  0  0  0
 80 81  1  0  0  0
 80 83  1  0  0  0
 80155  1  0  0  0
 80156  1  0  0  0
 81157  1  0  0  0
 82158  1  0  0  0
 83159  1  0  0  0
M  CHG  1  83   1
M  ISO  4   1 100  68 101  81 101  82 100
M  END
> <chiral flag>
0

> <version>
0

> <s_m_source_file>
/data/baiqing/PycharmProjects/Reinvent-master-3.2/result/LINK_invent/BTK/process_docking_weight1_custom_product_contain_oxygen_bond_distance_aromatic_linkinvent_7_9_3/rearranged_h_0021.sdf

> <i_m_source_file_index>
34

> <r_mmod_Potential_Energy-OPLS-2005>
-57.7004776000977

> <r_mmod_Stretch_Energy-OPLS-2005>
83.1762161254883

> <r_mmod_Bend_Energy-OPLS-2005>
152.159408569336

> <r_mmod_Torsional_Energy-OPLS-2005>
206.228927612305

> <r_mmod_Improper_Torsional_Energy-OPLS-2005>
3.98674035072327

> <r_mmod_Van_der_Waal_Energy-OPLS-2005>
149.175537109375

> <r_mmod_Electrostatic_Energy-OPLS-2005>
-261.403106689453

> <r_mmod_Solvation_Energy-OPLS-2005>
-436.505676269531

> <b_mmod_Minimization_Converged-OPLS-2005>
0

> <r_mmod_RMS_Derivative-OPLS-2005>
1.02256262302399

$$$$
34
                    3D
 Structure written by MMmdl.
158166  0  0  1  0            999 V2000
  -30.6274  -14.6155   20.5187 C   0  0  0  0  0  0
  -30.4376  -12.3806   19.4464 C   0  0  0  0  0  0
  -29.5098  -12.5210   18.2170 C   0  0  0  0  0  0
  -28.0318  -12.3575   18.6273 C   0  0  0  0  0  0
  -27.6565  -13.2164   19.8648 C   0  0  2  0  0  0
  -28.7002  -13.0470   20.9930 C   0  0  0  0  0  0
  -25.2579  -13.8149   20.5707 C   0  0  0  0  0  0
  -24.1833  -13.0422   20.9178 C   0  0  0  0  0  0
  -24.6401  -11.6892   20.8715 C   0  0  0  0  0  0
  -23.9055  -10.4282   21.0412 C   0  0  0  0  0  0
  -24.3606   -9.4204   21.9193 C   0  0  0  0  0  0
  -23.6280   -8.2233   22.0756 C   0  0  0  0  0  0
  -22.4253   -8.0284   21.3555 C   0  0  0  0  0  0
  -21.9888   -9.0257   20.4653 C   0  0  0  0  0  0
  -22.7227  -10.2135   20.3072 C   0  0  0  0  0  0
  -21.6853   -6.0743   22.5298 C   0  0  0  0  0  0
  -21.4016   -6.5648   23.8232 C   0  0  0  0  0  0
  -21.3652   -5.6792   24.9186 C   0  0  0  0  0  0
  -21.6042   -4.3059   24.7236 C   0  0  0  0  0  0
  -21.8804   -3.8146   23.4355 C   0  0  0  0  0  0
  -21.9196   -4.6972   22.3417 C   0  0  0  0  0  0
  -22.7857  -13.5241   21.1847 C   0  0  0  0  0  0
  -22.1659   -4.2161   21.0990 F   0  0  0  0  0  0
  -21.5621   -3.4542   25.7742 F   0  0  0  0  0  0
  -30.0192  -13.3895   20.4390 N   0  0  0  0  0  0
  -26.3009  -12.9338   20.3304 N   0  0  0  0  0  0
  -25.9323  -11.6491   20.5704 N   0  0  0  0  0  0
  -22.0476  -12.8271   22.0411 N   0  0  0  0  0  0
  -25.4283  -15.1875   20.4147 N   0  0  0  0  0  0
  -31.7780  -14.7947   20.1076 O   0  0  0  0  0  0
  -21.6619   -6.8876   21.4249 O   0  0  0  0  0  0
  -22.3564  -14.5566   20.6713 O   0  0  0  0  0  0
  -24.6259  -31.8610   23.2050 C   0  0  0  0  0  0
  -25.9097  -32.4805   23.8388 C   0  0  1  0  0  0
  -27.2222  -27.3221   20.1263 C   0  0  0  0  0  0
  -25.5910  -33.8608   24.2320 N   0  0  0  0  0  0
  -23.4212  -30.4866   21.5445 C   0  0  2  0  0  0
  -24.8718  -28.9472   20.1107 C   0  0  0  0  0  0
  -22.7483  -29.4625   22.4894 C   0  0  0  0  0  0
  -18.0295  -28.1395   22.8462 C   0  0  0  0  0  0
  -24.1484  -36.7290   23.2633 C   0  0  0  0  0  0
  -25.9640  -30.7970   21.3768 C   0  0  0  0  0  0
  -26.0396  -29.4245   20.7188 C   0  0  0  0  0  0
  -27.2210  -28.6236   20.7145 C   0  0  0  0  0  0
  -26.0366  -26.9053   19.4803 C   0  0  0  0  0  0
  -24.8720  -27.6941   19.4817 C   0  0  0  0  0  0
  -23.6422  -29.8296   20.1567 C   0  0  0  0  0  0
  -25.4102  -36.3096   24.0333 C   0  0  1  0  0  0
  -20.5893  -28.3702   23.1258 C   0  0  2  0  0  0
  -20.6783  -26.9417   22.5404 C   0  0  0  0  0  0
  -19.5767  -26.6383   21.5201 C   0  0  0  0  0  0
  -18.1945  -26.7932   22.1610 C   0  0  0  0  0  0
  -19.1539  -28.8856   23.2868 C   0  0  0  0  0  0
  -18.9471  -30.1451   23.8900 C   0  0  0  0  0  0
  -17.6474  -30.6587   24.0562 C   0  0  0  0  0  0
  -25.9035  -34.9461   23.5120 C   0  0  0  0  0  0
  -16.5368  -29.9092   23.6327 C   0  0  0  0  0  0
  -16.7282  -28.6518   23.0326 C   0  0  0  0  0  0
  -26.4500  -31.6607   25.0742 C   0  0  0  0  0  0
  -25.3738  -31.3721   26.1466 C   0  0  0  0  0  0
  -27.0351  -30.3043   24.6177 C   0  0  0  0  0  0
  -27.6084  -32.4315   25.7506 C   0  0  0  0  0  0
  -27.5576  -37.1792   24.8455 C   0  0  0  0  0  0
  -21.4183  -29.3046   22.3636 N   0  0  0  0  0  0
  -26.4283  -37.3785   23.9409 N   0  0  0  0  0  0
  -24.6891  -31.0634   22.1003 N   0  0  0  0  0  0
  -23.4213  -28.8133   23.2946 O   0  0  0  0  0  0
  -28.3313  -26.4636   20.1596 O   0  0  0  0  0  0
  -26.5596  -34.8918   22.4688 O   0  0  0  0  0  0
  -23.5424  -32.1394   23.7384 O   0  0  0  0  0  0
  -29.9100  -19.4013   21.6286 C   0  0  0  0  0  0
  -29.9889  -17.9846   21.7805 C   0  0  0  0  0  0
  -29.6109  -19.1034   19.2634 C   0  0  0  0  0  0
  -29.6582  -17.6771   19.4001 C   0  0  0  0  0  0
  -29.7433  -19.9972   20.3557 C   0  0  0  0  0  0
  -29.8894  -17.0851   20.6816 C   0  0  0  0  0  0
  -29.8813  -17.3567   16.8298 C   0  0  0  0  0  0
  -29.3733  -16.8067   18.1716 C   0  0  0  0  0  0
  -29.1472  -23.9288   20.1758 C   0  0  0  0  0  0
  -28.7871  -22.4073   20.5135 C   0  0  0  0  0  0
  -28.0858  -25.0509   20.5477 C   0  0  0  0  0  0
  -29.8299  -15.6475   20.9379 N   0  0  0  0  0  0
  -29.8253  -21.4083   20.1242 N   0  0  0  0  0  0
  -31.4840  -12.4933   19.1558 H   0  0  0  0  0  0
  -30.3527  -11.3797   19.8735 H   0  0  0  0  0  0
  -29.7698  -11.7854   17.4558 H   0  0  0  0  0  0
  -29.6561  -13.4980   17.7541 H   0  0  0  0  0  0
  -27.8655  -11.3022   18.8461 H   0  0  0  0  0  0
  -27.3793  -12.6019   17.7890 H   0  0  0  0  0  0
  -27.6803  -14.2555   19.5376 H   0  0  0  0  0  0
  -28.7071  -12.0157   21.3507 H   0  0  0  0  0  0
  -28.4488  -13.6564   21.8624 H   0  0  0  0  0  0
  -25.2758   -9.5672   22.4757 H   0  0  0  0  0  0
  -24.0007   -7.4615   22.7462 H   0  0  0  0  0  0
  -21.0823   -8.8768   19.8961 H   0  0  0  0  0  0
  -22.3694  -10.9662   19.6166 H   0  0  0  0  0  0
  -21.2004   -7.6155   23.9736 H   0  0  0  0  0  0
  -21.1492   -6.0524   25.9087 H   0  0  0  0  0  0
  -22.0587   -2.7613   23.2851 H   0  0  0  0  0  0
  -22.4072  -11.9963   22.4864 H   0  0  0  0  0  0
  -21.1092  -13.1330   22.2566 H   0  0  0  0  0  0
  -24.6589  -15.8384   20.5265 H   0  0  0  0  0  0
  -26.2857  -15.6348   20.1139 H   0  0  0  0  0  0
  -26.7165  -32.5492   23.1144 H   0  0  0  0  0  0
  -25.0071  -33.9781   25.0473 H   0  0  0  0  0  0
  -22.7151  -31.3072   21.4013 H   0  0  0  0  0  0
  -23.3762  -35.9604   23.3289 H   0  0  0  0  0  0
  -24.3584  -36.8923   22.2050 H   0  0  0  0  0  0
  -23.7237  -37.6487   23.6666 H   0  0  0  0  0  0
  -26.0907  -31.5636   20.6104 H   0  0  0  0  0  0
  -26.8457  -30.8492   22.0053 H   0  0  0  0  0  0
  -28.1202  -28.9855   21.1931 H   0  0  0  0  0  0
  -25.9912  -25.9601   18.9602 H   0  0  0  0  0  0
  -23.9794  -27.3308   18.9915 H   0  0  0  0  0  0
  -23.7761  -30.6127   19.4089 H   0  0  0  0  0  0
  -22.7628  -29.2658   19.8411 H   0  0  0  0  0  0
  -25.1288  -36.1943   25.0829 H   0  0  0  0  0  0
  -21.0002  -28.3288   24.1372 H   0  0  0  0  0  0
  -20.5669  -26.2311   23.3605 H   0  0  0  0  0  0
  -21.6656  -26.7424   22.1210 H   0  0  0  0  0  0
  -19.6922  -25.6286   21.1251 H   0  0  0  0  0  0
  -19.6718  -27.3173   20.6714 H   0  0  0  0  0  0
  -17.4207  -26.6657   21.4024 H   0  0  0  0  0  0
  -18.0351  -26.0092   22.9029 H   0  0  0  0  0  0
  -19.7940  -30.7256   24.2292 H   0  0  0  0  0  0
  -17.5028  -31.6268   24.5149 H   0  0  0  0  0  0
  -15.5368  -30.2998   23.7637 H   0  0  0  0  0  0
  -15.8683  -28.0845   22.7035 H   0  0  0  0  0  0
  -24.5915  -30.7080   25.7775 H   0  0  0  0  0  0
  -24.8925  -32.2879   26.4909 H   0  0  0  0  0  0
  -25.8059  -30.8880   27.0234 H   0  0  0  0  0  0
  -26.2927  -29.6782   24.1213 H   0  0  0  0  0  0
  -27.4086  -29.7309   25.4674 H   0  0  0  0  0  0
  -27.8778  -30.4362   23.9382 H   0  0  0  0  0  0
  -27.2735  -33.3617   26.2108 H   0  0  0  0  0  0
  -28.3884  -32.6864   25.0315 H   0  0  0  0  0  0
  -28.0758  -31.8409   26.5400 H   0  0  0  0  0  0
  -28.2574  -38.0108   24.7533 H   0  0  0  0  0  0
  -28.1097  -36.2645   24.6241 H   0  0  0  0  0  0
  -27.2296  -37.1389   25.8857 H   0  0  0  0  0  0
  -20.9348  -29.8820   21.6896 H   0  0  0  0  0  0
  -26.0162  -38.2848   24.1464 H   0  0  0  0  0  0
  -30.0233  -20.0274   22.5032 H   0  0  0  0  0  0
  -30.1221  -17.5834   22.7747 H   0  0  0  0  0  0
  -29.4542  -19.5371   18.2899 H   0  0  0  0  0  0
  -29.6688  -16.6475   16.0281 H   0  0  0  0  0  0
  -30.9580  -17.5218   16.8462 H   0  0  0  0  0  0
  -29.3947  -18.2915   16.5536 H   0  0  0  0  0  0
  -28.2957  -16.6470   18.1162 H   0  0  0  0  0  0
  -29.8121  -15.8207   18.2891 H   0  0  0  0  0  0
  -29.3424  -23.9990   19.1053 H   0  0  0  0  0  0
  -30.0869  -24.1808   20.6680 H   0  0  0  0  0  0
  -27.8687  -22.1440   19.9832 H   0  0  0  0  0  0
  -28.5589  -22.3046   21.5752 H   0  0  0  0  0  0
  -27.9765  -25.0469   21.6324 H   0  0  0  0  0  0
  -27.1303  -24.6881   20.1785 H   0  0  0  0  0  0
  -28.9799  -15.3341   21.3824 H   0  0  0  0  0  0
  -30.2186  -21.6224   19.2105 H   0  0  0  0  0  0
  1 25  1  0  0  0
  1 30  2  0  0  0
  1 82  1  0  0  0
  2  3  1  0  0  0
  2 25  1  0  0  0
  2 84  1  0  0  0
  2 85  1  0  0  0
  3  4  1  0  0  0
  3 86  1  0  0  0
  3 87  1  0  0  0
  4  5  1  0  0  0
  4 88  1  0  0  0
  4 89  1  0  0  0
  5  6  1  0  0  0
  5 26  1  0  0  0
  5 90  1  0  0  0
  6 25  1  0  0  0
  6 91  1  0  0  0
  6 92  1  0  0  0
  7  8  2  0  0  0
  7 26  1  0  0  0
  7 29  1  0  0  0
  8  9  1  0  0  0
  8 22  1  0  0  0
  9 10  1  0  0  0
  9 27  2  0  0  0
 10 11  2  0  0  0
 10 15  1  0  0  0
 11 12  1  0  0  0
 11 93  1  0  0  0
 12 13  2  0  0  0
 12 94  1  0  0  0
 13 14  1  0  0  0
 13 31  1  0  0  0
 14 15  2  0  0  0
 14 95  1  0  0  0
 15 96  1  0  0  0
 16 17  2  0  0  0
 16 21  1  0  0  0
 16 31  1  0  0  0
 17 18  1  0  0  0
 17 97  1  0  0  0
 18 19  2  0  0  0
 18 98  1  0  0  0
 19 20  1  0  0  0
 19 24  1  0  0  0
 20 21  2  0  0  0
 20 99  1  0  0  0
 21 23  1  0  0  0
 22 28  1  0  0  0
 22 32  2  0  0  0
 26 27  1  0  0  0
 28100  1  0  0  0
 28101  1  0  0  0
 29102  1  0  0  0
 29103  1  0  0  0
 33 34  1  0  0  0
 33 66  1  0  0  0
 33 70  2  0  0  0
 34 36  1  0  0  0
 34 59  1  0  0  0
 34104  1  0  0  0
 35 44  2  0  0  0
 35 45  1  0  0  0
 35 68  1  0  0  0
 36 56  1  0  0  0
 36105  1  0  0  0
 37 39  1  0  0  0
 37 47  1  0  0  0
 37 66  1  0  0  0
 37106  1  0  0  0
 38 43  2  0  0  0
 38 46  1  0  0  0
 38 47  1  0  0  0
 39 64  1  0  0  0
 39 67  2  0  0  0
 40 52  1  0  0  0
 40 53  2  0  0  0
 40 58  1  0  0  0
 41107  1  0  0  0
 41108  1  0  0  0
 41109  1  0  0  0
 41 48  1  0  0  0
 42 43  1  0  0  0
 42 66  1  0  0  0
 42110  1  0  0  0
 42111  1  0  0  0
 43 44  1  0  0  0
 44112  1  0  0  0
 45 46  2  0  0  0
 45113  1  0  0  0
 46114  1  0  0  0
 47115  1  0  0  0
 47116  1  0  0  0
 48 56  1  0  0  0
 48 65  1  0  0  0
 48117  1  0  0  0
 49 50  1  0  0  0
 49 53  1  0  0  0
 49 64  1  0  0  0
 49118  1  0  0  0
 50 51  1  0  0  0
 50119  1  0  0  0
 50120  1  0  0  0
 51 52  1  0  0  0
 51121  1  0  0  0
 51122  1  0  0  0
 52123  1  0  0  0
 52124  1  0  0  0
 53 54  1  0  0  0
 54 55  2  0  0  0
 54125  1  0  0  0
 55 57  1  0  0  0
 55126  1  0  0  0
 56 69  2  0  0  0
 57 58  2  0  0  0
 57127  1  0  0  0
 58128  1  0  0  0
 59 60  1  0  0  0
 59 61  1  0  0  0
 59 62  1  0  0  0
 60129  1  0  0  0
 60130  1  0  0  0
 60131  1  0  0  0
 61132  1  0  0  0
 61133  1  0  0  0
 61134  1  0  0  0
 62135  1  0  0  0
 62136  1  0  0  0
 62137  1  0  0  0
 63 65  1  0  0  0
 63138  1  0  0  0
 63139  1  0  0  0
 63140  1  0  0  0
 64141  1  0  0  0
 65142  1  0  0  0
 68 81  1  0  0  0
 71 72  2  0  0  0
 71 75  1  0  0  0
 71143  1  0  0  0
 72 76  1  0  0  0
 72144  1  0  0  0
 73 74  1  0  0  0
 73 75  2  0  0  0
 73145  1  0  0  0
 74 76  2  0  0  0
 74 78  1  0  0  0
 75 83  1  0  0  0
 76 82  1  0  0  0
 77 78  1  0  0  0
 77146  1  0  0  0
 77147  1  0  0  0
 77148  1  0  0  0
 78149  1  0  0  0
 78150  1  0  0  0
 79 80  1  0  0  0
 79 81  1  0  0  0
 79151  1  0  0  0
 79152  1  0  0  0
 80 83  1  0  0  0
 80153  1  0  0  0
 80154  1  0  0  0
 81155  1  0  0  0
 81156  1  0  0  0
 82157  1  0  0  0
 83158  1  0  0  0
M  ISO  4   1 100  68 101  81 101  82 100
M  END
> <chiral flag>
0

> <version>
0

> <s_m_source_file>
/data/baiqing/PycharmProjects/Reinvent-master-3.2/result/LINK_invent/BTK/process_docking_weight1_custom_product_contain_oxygen_bond_distance_aromatic_linkinvent_7_9_3/rearranged_h_0021.sdf

> <i_m_source_file_index>
35

> <r_mmod_Potential_Energy-OPLS-2005>
61.6467132568359

> <r_mmod_Stretch_Energy-OPLS-2005>
76.8036041259766

> <r_mmod_Bend_Energy-OPLS-2005>
134.571517944336

> <r_mmod_Torsional_Energy-OPLS-2005>
265.518798828125

> <r_mmod_Improper_Torsional_Energy-OPLS-2005>
8.61272716522217

> <r_mmod_Van_der_Waal_Energy-OPLS-2005>
140.602813720703

> <r_mmod_Electrostatic_Energy-OPLS-2005>
-389.293182373047

> <r_mmod_Solvation_Energy-OPLS-2005>
-219.256988525391

> <b_mmod_Minimization_Converged-OPLS-2005>
0

> <r_mmod_RMS_Derivative-OPLS-2005>
3.10891580581665

$$$$
35
                    3D
 Structure written by MMmdl.
156165  0  0  1  0            999 V2000
  -30.5141  -14.9027   20.4423 C   0  0  0  0  0  0
  -30.4549  -12.5560   19.4915 C   0  0  0  0  0  0
  -29.5268  -12.5320   18.2522 C   0  0  0  0  0  0
  -28.0560  -12.3227   18.6656 C   0  0  0  0  0  0
  -27.6397  -13.2356   19.8480 C   0  0  2  0  0  0
  -28.6834  -13.2072   20.9865 C   0  0  0  0  0  0
  -25.2508  -13.8188   20.5691 C   0  0  0  0  0  0
  -24.1808  -13.0433   20.9224 C   0  0  0  0  0  0
  -24.6403  -11.6911   20.8751 C   0  0  0  0  0  0
  -23.9073  -10.4291   21.0411 C   0  0  0  0  0  0
  -24.3621   -9.4203   21.9188 C   0  0  0  0  0  0
  -23.6291   -8.2240   22.0757 C   0  0  0  0  0  0
  -22.4273   -8.0282   21.3546 C   0  0  0  0  0  0
  -21.9912   -9.0257   20.4650 C   0  0  0  0  0  0
  -22.7245  -10.2132   20.3060 C   0  0  0  0  0  0
  -21.6853   -6.0735   22.5280 C   0  0  0  0  0  0
  -21.4016   -6.5638   23.8212 C   0  0  0  0  0  0
  -21.3658   -5.6791   24.9175 C   0  0  0  0  0  0
  -21.6045   -4.3053   24.7225 C   0  0  0  0  0  0
  -21.8815   -3.8145   23.4346 C   0  0  0  0  0  0
  -21.9192   -4.6962   22.3403 C   0  0  0  0  0  0
  -22.7827  -13.5217   21.1873 C   0  0  0  0  0  0
  -22.1659   -4.2147   21.0980 F   0  0  0  0  0  0
  -21.5630   -3.4538   25.7737 F   0  0  0  0  0  0
  -29.9698  -13.6233   20.4068 N   0  0  0  0  0  0
  -26.2930  -12.9396   20.3253 N   0  0  0  0  0  0
  -25.9334  -11.6537   20.5736 N   0  0  0  0  0  0
  -22.0467  -12.8216   22.0429 N   0  0  0  0  0  0
  -25.4184  -15.1912   20.4073 N   0  0  0  0  0  0
  -31.6986  -15.0476   20.1189 O   0  0  0  0  0  0
  -21.6639   -6.8879   21.4241 O   0  0  0  0  0  0
  -22.3515  -14.5522   20.6715 O   0  0  0  0  0  0
  -24.6418  -31.8459   23.1904 C   0  0  0  0  0  0
  -25.9195  -32.4708   23.8287 C   0  0  1  0  0  0
  -27.2199  -27.1555   20.1477 C   0  0  0  0  0  0
  -25.5945  -33.8513   24.2198 N   0  0  0  0  0  0
  -23.4444  -30.4660   21.5360 C   0  0  2  0  0  0
  -24.8936  -28.8953   20.1142 C   0  0  0  0  0  0
  -22.7557  -29.4559   22.4874 C   0  0  0  0  0  0
  -18.0302  -28.1396   22.8479 C   0  0  0  0  0  0
  -24.1491  -36.7264   23.2642 C   0  0  0  0  0  0
  -25.9994  -30.7255   21.3871 C   0  0  0  0  0  0
  -26.0713  -29.3378   20.7303 C   0  0  0  0  0  0
  -27.2362  -28.4845   20.7291 C   0  0  0  0  0  0
  -26.0165  -26.8135   19.4907 C   0  0  0  0  0  0
  -24.8777  -27.6453   19.4800 C   0  0  0  0  0  0
  -23.6701  -29.7959   20.1558 C   0  0  0  0  0  0
  -25.4122  -36.3039   24.0314 C   0  0  1  0  0  0
  -20.5913  -28.3720   23.1242 C   0  0  2  0  0  0
  -20.6788  -26.9427   22.5404 C   0  0  0  0  0  0
  -19.5760  -26.6384   21.5213 C   0  0  0  0  0  0
  -18.1941  -26.7935   22.1625 C   0  0  0  0  0  0
  -19.1557  -28.8875   23.2853 C   0  0  0  0  0  0
  -18.9475  -30.1473   23.8878 C   0  0  0  0  0  0
  -17.6472  -30.6593   24.0561 C   0  0  0  0  0  0
  -25.9071  -34.9413   23.5066 C   0  0  0  0  0  0
  -16.5364  -29.9087   23.6336 C   0  0  0  0  0  0
  -16.7286  -28.6505   23.0356 C   0  0  0  0  0  0
  -26.4518  -31.6574   25.0726 C   0  0  0  0  0  0
  -25.3702  -31.3764   26.1422 C   0  0  0  0  0  0
  -27.0380  -30.2970   24.6302 C   0  0  0  0  0  0
  -27.6046  -32.4341   25.7511 C   0  0  0  0  0  0
  -27.5574  -37.1790   24.8463 C   0  0  0  0  0  0
  -21.4250  -29.3052   22.3619 N   0  0  0  0  0  0
  -26.4286  -37.3749   23.9406 N   0  0  0  0  0  0
  -24.7149  -31.0333   22.0932 N   0  0  0  0  0  0
  -23.4208  -28.8106   23.3016 O   0  0  0  0  0  0
  -28.2866  -26.1896   20.1830 O   0  0  0  0  0  0
  -26.5658  -34.8906   22.4647 O   0  0  0  0  0  0
  -23.5540  -32.1328   23.7133 O   0  0  0  0  0  0
  -30.2517  -19.9481   20.2430 C   0  0  0  0  0  0
  -30.5131  -18.5042   20.2360 C   0  0  0  0  0  0
  -28.3028  -18.1246   20.9544 C   0  0  0  0  0  0
  -28.9993  -20.5582   20.6227 C   0  0  0  0  0  0
  -29.5443  -17.5042   20.6099 C   0  0  0  0  0  0
  -28.0389  -19.5438   20.9660 C   0  0  0  0  0  0
  -30.1084  -23.1666   22.3904 C   0  0  0  0  0  0
  -30.3421  -23.7074   20.9754 C   0  0  0  0  0  0
  -28.8723  -22.2603   22.2812 C   0  0  0  0  0  0
  -29.0534  -23.3674   20.2306 C   0  0  2  0  0  0
  -27.9996  -24.6761   20.3780 C   0  0  0  0  0  0
  -28.6763  -21.9983   20.8560 N   0  0  0  0  0  0
  -29.6315  -15.9778   20.6883 N   0  0  0  0  0  0
  -26.4527  -20.0287   21.4628 Cl  0  0  0  0  0  0
  -31.4874  -12.7283   19.1833 H   0  0  0  0  0  0
  -30.4518  -11.5891   19.9970 H   0  0  0  0  0  0
  -29.8371  -11.7469   17.5614 H   0  0  0  0  0  0
  -29.6222  -13.4728   17.7076 H   0  0  0  0  0  0
  -27.9408  -11.2765   18.9516 H   0  0  0  0  0  0
  -27.3946  -12.4797   17.8126 H   0  0  0  0  0  0
  -27.6185  -14.2481   19.4446 H   0  0  0  0  0  0
  -28.7576  -12.2095   21.4221 H   0  0  0  0  0  0
  -28.3869  -13.8707   21.8005 H   0  0  0  0  0  0
  -25.2764   -9.5676   22.4763 H   0  0  0  0  0  0
  -23.9998   -7.4630   22.7475 H   0  0  0  0  0  0
  -21.0843   -8.8779   19.8954 H   0  0  0  0  0  0
  -22.3706  -10.9673   19.6170 H   0  0  0  0  0  0
  -21.2010   -7.6146   23.9716 H   0  0  0  0  0  0
  -21.1485   -6.0522   25.9079 H   0  0  0  0  0  0
  -22.0595   -2.7607   23.2847 H   0  0  0  0  0  0
  -22.4079  -11.9885   22.4833 H   0  0  0  0  0  0
  -21.1083  -13.1246   22.2623 H   0  0  0  0  0  0
  -24.6358  -15.8311   20.4913 H   0  0  0  0  0  0
  -26.2331  -15.6180   19.9873 H   0  0  0  0  0  0
  -26.7261  -32.5323   23.1018 H   0  0  0  0  0  0
  -25.0061  -33.9632   25.0323 H   0  0  0  0  0  0
  -22.7459  -31.2913   21.3826 H   0  0  0  0  0  0
  -23.3753  -35.9596   23.3295 H   0  0  0  0  0  0
  -24.3576  -36.8908   22.2059 H   0  0  0  0  0  0
  -23.7250  -37.6458   23.6686 H   0  0  0  0  0  0
  -26.1518  -31.4797   20.6139 H   0  0  0  0  0  0
  -26.8713  -30.7768   22.0279 H   0  0  0  0  0  0
  -28.1354  -28.8203   21.2263 H   0  0  0  0  0  0
  -25.9241  -25.8720   18.9732 H   0  0  0  0  0  0
  -23.9809  -27.3050   18.9804 H   0  0  0  0  0  0
  -23.8061  -30.5702   19.3998 H   0  0  0  0  0  0
  -22.7855  -29.2369   19.8457 H   0  0  0  0  0  0
  -25.1311  -36.1866   25.0805 H   0  0  0  0  0  0
  -21.0002  -28.3308   24.1363 H   0  0  0  0  0  0
  -20.5685  -26.2333   23.3620 H   0  0  0  0  0  0
  -21.6654  -26.7435   22.1200 H   0  0  0  0  0  0
  -19.6923  -25.6288   21.1258 H   0  0  0  0  0  0
  -19.6696  -27.3181   20.6732 H   0  0  0  0  0  0
  -17.4210  -26.6676   21.4032 H   0  0  0  0  0  0
  -18.0344  -26.0083   22.9025 H   0  0  0  0  0  0
  -19.7950  -30.7295   24.2241 H   0  0  0  0  0  0
  -17.5024  -31.6271   24.5166 H   0  0  0  0  0  0
  -15.5363  -30.2983   23.7671 H   0  0  0  0  0  0
  -15.8686  -28.0818   22.7083 H   0  0  0  0  0  0
  -24.5882  -30.7111   25.7742 H   0  0  0  0  0  0
  -24.8888  -32.2948   26.4794 H   0  0  0  0  0  0
  -25.7984  -30.8971   27.0234 H   0  0  0  0  0  0
  -26.2996  -29.6699   24.1292 H   0  0  0  0  0  0
  -27.3973  -29.7266   25.4878 H   0  0  0  0  0  0
  -27.8912  -30.4209   23.9629 H   0  0  0  0  0  0
  -27.2633  -33.3655   26.2039 H   0  0  0  0  0  0
  -28.3883  -32.6880   25.0362 H   0  0  0  0  0  0
  -28.0683  -31.8501   26.5471 H   0  0  0  0  0  0
  -28.2585  -38.0092   24.7503 H   0  0  0  0  0  0
  -28.1076  -36.2621   24.6296 H   0  0  0  0  0  0
  -27.2291  -37.1442   25.8866 H   0  0  0  0  0  0
  -20.9459  -29.8763   21.6798 H   0  0  0  0  0  0
  -26.0153  -38.2817   24.1407 H   0  0  0  0  0  0
  -31.0703  -20.6037   19.9844 H   0  0  0  0  0  0
  -31.5009  -18.1732   19.9488 H   0  0  0  0  0  0
  -27.4854  -17.4840   21.2514 H   0  0  0  0  0  0
  -29.9304  -23.9719   23.1046 H   0  0  0  0  0  0
  -30.9811  -22.6099   22.7349 H   0  0  0  0  0  0
  -31.1806  -23.1826   20.5154 H   0  0  0  0  0  0
  -30.5770  -24.7726   20.9584 H   0  0  0  0  0  0
  -27.9900  -22.7671   22.6750 H   0  0  0  0  0  0
  -29.0019  -21.3594   22.8852 H   0  0  0  0  0  0
  -29.2803  -23.2280   19.1724 H   0  0  0  0  0  0
  -27.5885  -24.6317   21.3862 H   0  0  0  0  0  0
  -27.1635  -24.4027   19.7406 H   0  0  0  0  0  0
  -28.7460  -15.5791   20.9599 H   0  0  0  0  0  0
  1 25  1  0  0  0
  1 30  2  0  0  0
  1 83  1  0  0  0
  2  3  1  0  0  0
  2 25  1  0  0  0
  2 85  1  0  0  0
  2 86  1  0  0  0
  3  4  1  0  0  0
  3 87  1  0  0  0
  3 88  1  0  0  0
  4  5  1  0  0  0
  4 89  1  0  0  0
  4 90  1  0  0  0
  5  6  1  0  0  0
  5 26  1  0  0  0
  5 91  1  0  0  0
  6 25  1  0  0  0
  6 92  1  0  0  0
  6 93  1  0  0  0
  7  8  2  0  0  0
  7 26  1  0  0  0
  7 29  1  0  0  0
  8  9  1  0  0  0
  8 22  1  0  0  0
  9 10  1  0  0  0
  9 27  2  0  0  0
 10 11  2  0  0  0
 10 15  1  0  0  0
 11 12  1  0  0  0
 11 94  1  0  0  0
 12 13  2  0  0  0
 12 95  1  0  0  0
 13 14  1  0  0  0
 13 31  1  0  0  0
 14 15  2  0  0  0
 14 96  1  0  0  0
 15 97  1  0  0  0
 16 17  2  0  0  0
 16 21  1  0  0  0
 16 31  1  0  0  0
 17 18  1  0  0  0
 17 98  1  0  0  0
 18 19  2  0  0  0
 18 99  1  0  0  0
 19 20  1  0  0  0
 19 24  1  0  0  0
 20 21  2  0  0  0
 20100  1  0  0  0
 21 23  1  0  0  0
 22 28  1  0  0  0
 22 32  2  0  0  0
 26 27  1  0  0  0
 28101  1  0  0  0
 28102  1  0  0  0
 29103  1  0  0  0
 29104  1  0  0  0
 33 34  1  0  0  0
 33 66  1  0  0  0
 33 70  2  0  0  0
 34 36  1  0  0  0
 34 59  1  0  0  0
 34105  1  0  0  0
 35 44  2  0  0  0
 35 45  1  0  0  0
 35 68  1  0  0  0
 36 56  1  0  0  0
 36106  1  0  0  0
 37 39  1  0  0  0
 37 47  1  0  0  0
 37 66  1  0  0  0
 37107  1  0  0  0
 38 43  2  0  0  0
 38 46  1  0  0  0
 38 47  1  0  0  0
 39 64  1  0  0  0
 39 67  2  0  0  0
 40 52  1  0  0  0
 40 53  2  0  0  0
 40 58  1  0  0  0
 41108  1  0  0  0
 41109  1  0  0  0
 41110  1  0  0  0
 41 48  1  0  0  0
 42 43  1  0  0  0
 42 66  1  0  0  0
 42111  1  0  0  0
 42112  1  0  0  0
 43 44  1  0  0  0
 44113  1  0  0  0
 45 46  2  0  0  0
 45114  1  0  0  0
 46115  1  0  0  0
 47116  1  0  0  0
 47117  1  0  0  0
 48 56  1  0  0  0
 48 65  1  0  0  0
 48118  1  0  0  0
 49 50  1  0  0  0
 49 53  1  0  0  0
 49 64  1  0  0  0
 49119  1  0  0  0
 50 51  1  0  0  0
 50120  1  0  0  0
 50121  1  0  0  0
 51 52  1  0  0  0
 51122  1  0  0  0
 51123  1  0  0  0
 52124  1  0  0  0
 52125  1  0  0  0
 53 54  1  0  0  0
 54 55  2  0  0  0
 54126  1  0  0  0
 55 57  1  0  0  0
 55127  1  0  0  0
 56 69  2  0  0  0
 57 58  2  0  0  0
 57128  1  0  0  0
 58129  1  0  0  0
 59 60  1  0  0  0
 59 61  1  0  0  0
 59 62  1  0  0  0
 60130  1  0  0  0
 60131  1  0  0  0
 60132  1  0  0  0
 61133  1  0  0  0
 61134  1  0  0  0
 61135  1  0  0  0
 62136  1  0  0  0
 62137  1  0  0  0
 62138  1  0  0  0
 63 65  1  0  0  0
 63139  1  0  0  0
 63140  1  0  0  0
 63141  1  0  0  0
 64142  1  0  0  0
 65143  1  0  0  0
 68 81  1  0  0  0
 71 72  2  0  0  0
 71 74  1  0  0  0
 71144  1  0  0  0
 72 75  1  0  0  0
 72145  1  0  0  0
 73 75  2  0  0  0
 73 76  1  0  0  0
 73146  1  0  0  0
 74 76  2  0  0  0
 74 82  1  0  0  0
 75 83  1  0  0  0
 76 84  1  0  0  0
 77 78  1  0  0  0
 77 79  1  0  0  0
 77147  1  0  0  0
 77148  1  0  0  0
 78 80  1  0  0  0
 78149  1  0  0  0
 78150  1  0  0  0
 79 82  1  0  0  0
 79151  1  0  0  0
 79152  1  0  0  0
 80 81  1  0  0  0
 80 82  1  0  0  0
 80153  1  0  0  0
 81154  1  0  0  0
 81155  1  0  0  0
 83156  1  0  0  0
M  ISO  4   1 100  68 101  81 101  83 100
M  END
> <chiral flag>
0

> <version>
0

> <s_m_source_file>
/data/baiqing/PycharmProjects/Reinvent-master-3.2/result/LINK_invent/BTK/process_docking_weight1_custom_product_contain_oxygen_bond_distance_aromatic_linkinvent_7_9_3/rearranged_h_0021.sdf

> <i_m_source_file_index>
36

> <r_mmod_Potential_Energy-OPLS-2005>
587.363037109375

> <r_mmod_Stretch_Energy-OPLS-2005>
212.801223754883

> <r_mmod_Bend_Energy-OPLS-2005>
316.228485107422

> <r_mmod_Torsional_Energy-OPLS-2005>
302.075347900391

> <r_mmod_Improper_Torsional_Energy-OPLS-2005>
9.86344528198242

> <r_mmod_Van_der_Waal_Energy-OPLS-2005>
129.6513671875

> <r_mmod_Electrostatic_Energy-OPLS-2005>
-333.685729980469

> <r_mmod_Solvation_Energy-OPLS-2005>
-216.405960083008

> <b_mmod_Minimization_Converged-OPLS-2005>
0

> <r_mmod_RMS_Derivative-OPLS-2005>
0.620029389858246

$$$$
36
                    3D
 Structure written by MMmdl.
172181  0  0  1  0            999 V2000
  -30.7053  -14.5759   20.5530 C   0  0  0  0  0  0
  -30.4068  -12.3693   19.4551 C   0  0  0  0  0  0
  -29.4922  -12.4995   18.2215 C   0  0  0  0  0  0
  -28.0196  -12.3313   18.6364 C   0  0  0  0  0  0
  -27.6435  -13.2119   19.8562 C   0  0  2  0  0  0
  -28.6830  -13.1016   20.9944 C   0  0  0  0  0  0
  -25.2529  -13.8166   20.5673 C   0  0  0  0  0  0
  -24.1802  -13.0436   20.9193 C   0  0  0  0  0  0
  -24.6366  -11.6907   20.8748 C   0  0  0  0  0  0
  -23.9052  -10.4294   21.0428 C   0  0  0  0  0  0
  -24.3609   -9.4204   21.9203 C   0  0  0  0  0  0
  -23.6286   -8.2241   22.0754 C   0  0  0  0  0  0
  -22.4271   -8.0282   21.3544 C   0  0  0  0  0  0
  -21.9904   -9.0254   20.4644 C   0  0  0  0  0  0
  -22.7231  -10.2136   20.3062 C   0  0  0  0  0  0
  -21.6847   -6.0740   22.5280 C   0  0  0  0  0  0
  -21.4016   -6.5641   23.8217 C   0  0  0  0  0  0
  -21.3654   -5.6788   24.9173 C   0  0  0  0  0  0
  -21.6036   -4.3054   24.7222 C   0  0  0  0  0  0
  -21.8820   -3.8155   23.4341 C   0  0  0  0  0  0
  -21.9194   -4.6970   22.3400 C   0  0  0  0  0  0
  -22.7833  -13.5231   21.1872 C   0  0  0  0  0  0
  -22.1657   -4.2159   21.0977 F   0  0  0  0  0  0
  -21.5627   -3.4541   25.7729 F   0  0  0  0  0  0
  -30.0042  -13.4053   20.4303 N   0  0  0  0  0  0
  -26.2931  -12.9332   20.3289 N   0  0  0  0  0  0
  -25.9289  -11.6494   20.5767 N   0  0  0  0  0  0
  -22.0476  -12.8216   22.0424 N   0  0  0  0  0  0
  -25.4237  -15.1888   20.4071 N   0  0  0  0  0  0
  -31.8395  -14.6761   20.0732 O   0  0  0  0  0  0
  -21.6631   -6.8883   21.4239 O   0  0  0  0  0  0
  -22.3524  -14.5546   20.6733 O   0  0  0  0  0  0
  -24.6207  -31.8626   23.2009 C   0  0  0  0  0  0
  -25.9068  -32.4802   23.8336 C   0  0  1  0  0  0
  -27.2259  -27.3633   20.1158 C   0  0  0  0  0  0
  -25.5902  -33.8599   24.2256 N   0  0  0  0  0  0
  -23.4124  -30.4843   21.5432 C   0  0  2  0  0  0
  -24.8593  -28.9403   20.1107 C   0  0  0  0  0  0
  -22.7448  -29.4628   22.4937 C   0  0  0  0  0  0
  -18.0287  -28.1372   22.8491 C   0  0  0  0  0  0
  -24.1494  -36.7299   23.2640 C   0  0  0  0  0  0
  -25.9481  -30.8088   21.3636 C   0  0  0  0  0  0
  -26.0253  -29.4387   20.7083 C   0  0  0  0  0  0
  -27.2157  -28.6628   20.6950 C   0  0  0  0  0  0
  -26.0431  -26.8979   19.5041 C   0  0  0  0  0  0
  -24.8693  -27.6754   19.4987 C   0  0  0  0  0  0
  -23.6236  -29.8142   20.1586 C   0  0  0  0  0  0
  -25.4116  -36.3094   24.0332 C   0  0  1  0  0  0
  -20.5880  -28.3677   23.1291 C   0  0  2  0  0  0
  -20.6788  -26.9403   22.5413 C   0  0  0  0  0  0
  -19.5765  -26.6368   21.5222 C   0  0  0  0  0  0
  -18.1937  -26.7912   22.1621 C   0  0  0  0  0  0
  -19.1535  -28.8841   23.2898 C   0  0  0  0  0  0
  -18.9464  -30.1447   23.8917 C   0  0  0  0  0  0
  -17.6466  -30.6587   24.0561 C   0  0  0  0  0  0
  -25.9057  -34.9468   23.5090 C   0  0  0  0  0  0
  -16.5359  -29.9082   23.6330 C   0  0  0  0  0  0
  -16.7272  -28.6496   23.0347 C   0  0  0  0  0  0
  -26.4474  -31.6610   25.0699 C   0  0  0  0  0  0
  -25.3708  -31.3724   26.1422 C   0  0  0  0  0  0
  -27.0320  -30.3048   24.6118 C   0  0  0  0  0  0
  -27.6040  -32.4347   25.7460 C   0  0  0  0  0  0
  -27.5592  -37.1782   24.8455 C   0  0  0  0  0  0
  -21.4161  -29.3044   22.3695 N   0  0  0  0  0  0
  -26.4281  -37.3796   23.9430 N   0  0  0  0  0  0
  -24.6790  -31.0675   22.0936 N   0  0  0  0  0  0
  -23.4196  -28.8172   23.2996 O   0  0  0  0  0  0
  -28.3597  -26.5596   20.1258 O   0  0  0  0  0  0
  -26.5638  -34.8944   22.4665 O   0  0  0  0  0  0
  -23.5380  -32.1397   23.7359 O   0  0  0  0  0  0
  -30.3590  -17.5794   18.8342 C   0  0  0  0  0  0
  -30.6681  -18.6002   17.9253 C   0  0  0  0  0  0
  -29.1240  -19.1851   20.1996 C   0  0  0  0  0  0
  -29.5801  -17.8349   19.9784 C   0  0  0  0  0  0
  -30.2036  -19.9175   18.1179 C   0  0  0  0  0  0
  -29.4317  -20.2368   19.2683 C   0  0  0  0  0  0
  -28.7187  -22.5585   20.2066 C   0  0  0  0  0  0
  -31.6774  -21.3910   15.1318 C   0  0  0  0  0  0
  -30.2801  -22.0037   15.0682 C   0  0  0  0  0  0
  -31.8373  -21.0059   16.6057 C   0  0  0  0  0  0
  -29.4984  -21.1911   16.1024 C   0  0  1  0  0  0
  -28.8599  -19.9339   15.4844 C   0  0  0  0  0  0
  -31.0867  -16.2113   22.2800 C   0  0  0  0  0  0
  -29.1526  -16.6105   20.8433 C   0  0  0  0  0  0
  -28.5379  -24.0166   19.6475 C   0  0  0  0  0  0
  -28.2241  -25.1930   20.6452 C   0  0  0  0  0  0
  -30.4822  -20.9078   17.1475 N   0  0  0  0  0  0
  -28.9645  -21.6082   19.2748 N   0  0  0  0  0  0
  -30.1890  -15.6162   21.2855 N   0  0  0  0  0  0
  -28.6206  -22.3139   21.4110 O   0  0  0  0  0  0
  -28.5289  -21.9593   16.5940 F   0  0  0  0  0  0
  -31.4536  -12.4491   19.1559 H   0  0  0  0  0  0
  -30.3070  -11.3781   19.8998 H   0  0  0  0  0  0
  -29.7559  -11.7489   17.4750 H   0  0  0  0  0  0
  -29.6362  -13.4717   17.7482 H   0  0  0  0  0  0
  -27.8629  -11.2793   18.8768 H   0  0  0  0  0  0
  -27.3600  -12.5499   17.7950 H   0  0  0  0  0  0
  -27.6497  -14.2328   19.4850 H   0  0  0  0  0  0
  -28.6834  -12.0988   21.4220 H   0  0  0  0  0  0
  -28.4266  -13.7738   21.8143 H   0  0  0  0  0  0
  -25.2759   -9.5678   22.4775 H   0  0  0  0  0  0
  -24.0000   -7.4625   22.7472 H   0  0  0  0  0  0
  -21.0839   -8.8776   19.8945 H   0  0  0  0  0  0
  -22.3706  -10.9679   19.6167 H   0  0  0  0  0  0
  -21.2009   -7.6147   23.9725 H   0  0  0  0  0  0
  -21.1467   -6.0518   25.9073 H   0  0  0  0  0  0
  -22.0603   -2.7618   23.2839 H   0  0  0  0  0  0
  -22.4089  -11.9855   22.4774 H   0  0  0  0  0  0
  -21.1112  -13.1259   22.2669 H   0  0  0  0  0  0
  -24.6521  -15.8389   20.5185 H   0  0  0  0  0  0
  -26.2655  -15.6305   20.0632 H   0  0  0  0  0  0
  -26.7136  -32.5483   23.1082 H   0  0  0  0  0  0
  -25.0073  -33.9776   25.0410 H   0  0  0  0  0  0
  -22.7042  -31.3024   21.3971 H   0  0  0  0  0  0
  -23.3787  -35.9598   23.3257 H   0  0  0  0  0  0
  -24.3598  -36.8963   22.2064 H   0  0  0  0  0  0
  -23.7220  -37.6472   23.6694 H   0  0  0  0  0  0
  -26.0721  -31.5730   20.5943 H   0  0  0  0  0  0
  -26.8311  -30.8570   21.9895 H   0  0  0  0  0  0
  -28.1177  -29.0423   21.1545 H   0  0  0  0  0  0
  -26.0266  -25.9258   19.0322 H   0  0  0  0  0  0
  -23.9768  -27.2879   19.0260 H   0  0  0  0  0  0
  -23.7342  -30.5894   19.3991 H   0  0  0  0  0  0
  -22.7451  -29.2390   19.8614 H   0  0  0  0  0  0
  -25.1292  -36.1930   25.0819 H   0  0  0  0  0  0
  -20.9984  -28.3245   24.1402 H   0  0  0  0  0  0
  -20.5714  -26.2282   23.3608 H   0  0  0  0  0  0
  -21.6651  -26.7448   22.1190 H   0  0  0  0  0  0
  -19.6949  -25.6279   21.1255 H   0  0  0  0  0  0
  -19.6712  -27.3182   20.6754 H   0  0  0  0  0  0
  -17.4212  -26.6682   21.4017 H   0  0  0  0  0  0
  -18.0327  -26.0037   22.8993 H   0  0  0  0  0  0
  -19.7944  -30.7258   24.2294 H   0  0  0  0  0  0
  -17.5022  -31.6279   24.5136 H   0  0  0  0  0  0
  -15.5368  -30.2994   23.7652 H   0  0  0  0  0  0
  -15.8665  -28.0836   22.7044 H   0  0  0  0  0  0
  -24.5883  -30.7086   25.7723 H   0  0  0  0  0  0
  -24.8906  -32.2890   26.4871 H   0  0  0  0  0  0
  -25.8019  -30.8874   27.0185 H   0  0  0  0  0  0
  -26.2878  -29.6794   24.1182 H   0  0  0  0  0  0
  -27.4095  -29.7311   25.4590 H   0  0  0  0  0  0
  -27.8695  -30.4368   23.9262 H   0  0  0  0  0  0
  -27.2663  -33.3652   26.2030 H   0  0  0  0  0  0
  -28.3842  -32.6903   25.0276 H   0  0  0  0  0  0
  -28.0715  -31.8484   26.5380 H   0  0  0  0  0  0
  -28.2538  -38.0147   24.7604 H   0  0  0  0  0  0
  -28.1156  -36.2690   24.6138 H   0  0  0  0  0  0
  -27.2333  -37.1237   25.8857 H   0  0  0  0  0  0
  -20.9326  -29.8757   21.6906 H   0  0  0  0  0  0
  -26.0162  -38.2849   24.1503 H   0  0  0  0  0  0
  -30.6931  -16.5789   18.6058 H   0  0  0  0  0  0
  -31.2316  -18.3428   17.0404 H   0  0  0  0  0  0
  -28.4962  -19.4010   21.0525 H   0  0  0  0  0  0
  -32.4589  -22.0685   14.7854 H   0  0  0  0  0  0
  -31.7142  -20.4950   14.5106 H   0  0  0  0  0  0
  -29.8409  -21.9732   14.0704 H   0  0  0  0  0  0
  -30.3298  -23.0501   15.3744 H   0  0  0  0  0  0
  -32.3578  -21.7991   17.1438 H   0  0  0  0  0  0
  -32.4365  -20.1026   16.7162 H   0  0  0  0  0  0
  -29.6096  -19.2401   15.1034 H   0  0  0  0  0  0
  -28.2056  -20.2002   14.6536 H   0  0  0  0  0  0
  -28.2462  -19.3977   16.2091 H   0  0  0  0  0  0
  -30.5525  -16.8605   22.9737 H   0  0  0  0  0  0
  -31.8625  -16.8048   21.7939 H   0  0  0  0  0  0
  -31.5789  -15.4401   22.8753 H   0  0  0  0  0  0
  -28.3880  -16.0854   20.2781 H   0  0  0  0  0  0
  -28.6301  -16.9807   21.7265 H   0  0  0  0  0  0
  -27.7645  -23.9900   18.8799 H   0  0  0  0  0  0
  -29.4616  -24.2622   19.1245 H   0  0  0  0  0  0
  -28.9221  -25.1216   21.4786 H   0  0  0  0  0  0
  -27.2383  -25.0386   21.0874 H   0  0  0  0  0  0
  -29.0262  -21.9946   18.3366 H   0  0  0  0  0  0
  1 25  1  0  0  0
  1 30  2  0  0  0
  1 89  1  0  0  0
  2  3  1  0  0  0
  2 25  1  0  0  0
  2 92  1  0  0  0
  2 93  1  0  0  0
  3  4  1  0  0  0
  3 94  1  0  0  0
  3 95  1  0  0  0
  4  5  1  0  0  0
  4 96  1  0  0  0
  4 97  1  0  0  0
  5  6  1  0  0  0
  5 26  1  0  0  0
  5 98  1  0  0  0
  6 25  1  0  0  0
  6 99  1  0  0  0
  6100  1  0  0  0
  7  8  2  0  0  0
  7 26  1  0  0  0
  7 29  1  0  0  0
  8  9  1  0  0  0
  8 22  1  0  0  0
  9 10  1  0  0  0
  9 27  2  0  0  0
 10 11  2  0  0  0
 10 15  1  0  0  0
 11 12  1  0  0  0
 11101  1  0  0  0
 12 13  2  0  0  0
 12102  1  0  0  0
 13 14  1  0  0  0
 13 31  1  0  0  0
 14 15  2  0  0  0
 14103  1  0  0  0
 15104  1  0  0  0
 16 17  2  0  0  0
 16 21  1  0  0  0
 16 31  1  0  0  0
 17 18  1  0  0  0
 17105  1  0  0  0
 18 19  2  0  0  0
 18106  1  0  0  0
 19 20  1  0  0  0
 19 24  1  0  0  0
 20 21  2  0  0  0
 20107  1  0  0  0
 21 23  1  0  0  0
 22 28  1  0  0  0
 22 32  2  0  0  0
 26 27  1  0  0  0
 28108  1  0  0  0
 28109  1  0  0  0
 29110  1  0  0  0
 29111  1  0  0  0
 33 34  1  0  0  0
 33 66  1  0  0  0
 33 70  2  0  0  0
 34 36  1  0  0  0
 34 59  1  0  0  0
 34112  1  0  0  0
 35 44  2  0  0  0
 35 45  1  0  0  0
 35 68  1  0  0  0
 36 56  1  0  0  0
 36113  1  0  0  0
 37 39  1  0  0  0
 37 47  1  0  0  0
 37 66  1  0  0  0
 37114  1  0  0  0
 38 43  2  0  0  0
 38 46  1  0  0  0
 38 47  1  0  0  0
 39 64  1  0  0  0
 39 67  2  0  0  0
 40 52  1  0  0  0
 40 53  2  0  0  0
 40 58  1  0  0  0
 41115  1  0  0  0
 41116  1  0  0  0
 41117  1  0  0  0
 41 48  1  0  0  0
 42 43  1  0  0  0
 42 66  1  0  0  0
 42118  1  0  0  0
 42119  1  0  0  0
 43 44  1  0  0  0
 44120  1  0  0  0
 45 46  2  0  0  0
 45121  1  0  0  0
 46122  1  0  0  0
 47123  1  0  0  0
 47124  1  0  0  0
 48 56  1  0  0  0
 48 65  1  0  0  0
 48125  1  0  0  0
 49 50  1  0  0  0
 49 53  1  0  0  0
 49 64  1  0  0  0
 49126  1  0  0  0
 50 51  1  0  0  0
 50127  1  0  0  0
 50128  1  0  0  0
 51 52  1  0  0  0
 51129  1  0  0  0
 51130  1  0  0  0
 52131  1  0  0  0
 52132  1  0  0  0
 53 54  1  0  0  0
 54 55  2  0  0  0
 54133  1  0  0  0
 55 57  1  0  0  0
 55134  1  0  0  0
 56 69  2  0  0  0
 57 58  2  0  0  0
 57135  1  0  0  0
 58136  1  0  0  0
 59 60  1  0  0  0
 59 61  1  0  0  0
 59 62  1  0  0  0
 60137  1  0  0  0
 60138  1  0  0  0
 60139  1  0  0  0
 61140  1  0  0  0
 61141  1  0  0  0
 61142  1  0  0  0
 62143  1  0  0  0
 62144  1  0  0  0
 62145  1  0  0  0
 63 65  1  0  0  0
 63146  1  0  0  0
 63147  1  0  0  0
 63148  1  0  0  0
 64149  1  0  0  0
 65150  1  0  0  0
 68 86  1  0  0  0
 71 72  2  0  0  0
 71 74  1  0  0  0
 71151  1  0  0  0
 72 75  1  0  0  0
 72152  1  0  0  0
 73 74  2  0  0  0
 73 76  1  0  0  0
 73153  1  0  0  0
 74 84  1  0  0  0
 75 76  2  0  0  0
 75 87  1  0  0  0
 76 88  1  0  0  0
 77 85  1  0  0  0
 77 88  1  0  0  0
 77 90  2  0  0  0
 78 79  1  0  0  0
 78 80  1  0  0  0
 78154  1  0  0  0
 78155  1  0  0  0
 79 81  1  0  0  0
 79156  1  0  0  0
 79157  1  0  0  0
 80 87  1  0  0  0
 80158  1  0  0  0
 80159  1  0  0  0
 81 82  1  0  0  0
 81 87  1  0  0  0
 81 91  1  0  0  0
 82160  1  0  0  0
 82161  1  0  0  0
 82162  1  0  0  0
 83 89  1  0  0  0
 83163  1  0  0  0
 83164  1  0  0  0
 83165  1  0  0  0
 84 89  1  0  0  0
 84166  1  0  0  0
 84167  1  0  0  0
 85 86  1  0  0  0
 85168  1  0  0  0
 85169  1  0  0  0
 86170  1  0  0  0
 86171  1  0  0  0
 88172  1  0  0  0
M  ISO  4   1 100  68 101  86 101  89 100
M  END
> <chiral flag>
0

> <version>
0

> <s_m_source_file>
/data/baiqing/PycharmProjects/Reinvent-master-3.2/result/LINK_invent/BTK/process_docking_weight1_custom_product_contain_oxygen_bond_distance_aromatic_linkinvent_7_9_3/rearranged_h_0021.sdf

> <i_m_source_file_index>
37

> <r_mmod_Potential_Energy-OPLS-2005>
136.149063110352

> <r_mmod_Stretch_Energy-OPLS-2005>
67.3450393676758

> <r_mmod_Bend_Energy-OPLS-2005>
193.92121887207

> <r_mmod_Torsional_Energy-OPLS-2005>
382.049987792969

> <r_mmod_Improper_Torsional_Energy-OPLS-2005>
9.13652992248535

> <r_mmod_Van_der_Waal_Energy-OPLS-2005>
145.747543334961

> <r_mmod_Electrostatic_Energy-OPLS-2005>
-480.036956787109

> <r_mmod_Solvation_Energy-OPLS-2005>
-213.605529785156

> <b_mmod_Minimization_Converged-OPLS-2005>
0

> <r_mmod_RMS_Derivative-OPLS-2005>
1.8988379240036

$$$$
37
                    3D
 Structure written by MMmdl.
157165  0  0  1  0            999 V2000
  -30.5691  -14.9433   20.4961 C   0  0  0  0  0  0
  -30.4422  -12.5946   19.5120 C   0  0  0  0  0  0
  -29.5301  -12.5635   18.2631 C   0  0  0  0  0  0
  -28.0585  -12.3487   18.6627 C   0  0  0  0  0  0
  -27.6364  -13.2545   19.8494 C   0  0  2  0  0  0
  -28.6745  -13.2368   20.9891 C   0  0  0  0  0  0
  -25.2475  -13.8229   20.5705 C   0  0  0  0  0  0
  -24.1780  -13.0446   20.9192 C   0  0  0  0  0  0
  -24.6410  -11.6935   20.8735 C   0  0  0  0  0  0
  -23.9078  -10.4304   21.0390 C   0  0  0  0  0  0
  -24.3636   -9.4225   21.9178 C   0  0  0  0  0  0
  -23.6315   -8.2263   22.0751 C   0  0  0  0  0  0
  -22.4295   -8.0287   21.3543 C   0  0  0  0  0  0
  -21.9922   -9.0248   20.4642 C   0  0  0  0  0  0
  -22.7243  -10.2139   20.3042 C   0  0  0  0  0  0
  -21.6849   -6.0756   22.5283 C   0  0  0  0  0  0
  -21.4016   -6.5658   23.8228 C   0  0  0  0  0  0
  -21.3661   -5.6802   24.9185 C   0  0  0  0  0  0
  -21.6049   -4.3059   24.7220 C   0  0  0  0  0  0
  -21.8819   -3.8161   23.4342 C   0  0  0  0  0  0
  -21.9188   -4.6987   22.3400 C   0  0  0  0  0  0
  -22.7809  -13.5232   21.1854 C   0  0  0  0  0  0
  -22.1653   -4.2186   21.0974 F   0  0  0  0  0  0
  -21.5630   -3.4529   25.7723 F   0  0  0  0  0  0
  -29.9623  -13.6797   20.4244 N   0  0  0  0  0  0
  -26.2921  -12.9475   20.3266 N   0  0  0  0  0  0
  -25.9352  -11.6597   20.5735 N   0  0  0  0  0  0
  -22.0454  -12.8222   22.0419 N   0  0  0  0  0  0
  -25.4120  -15.1967   20.4202 N   0  0  0  0  0  0
  -31.7120  -15.0314   20.0313 O   0  0  0  0  0  0
  -21.6642   -6.8895   21.4249 O   0  0  0  0  0  0
  -22.3493  -14.5531   20.6690 O   0  0  0  0  0  0
  -24.6424  -31.8450   23.1905 C   0  0  0  0  0  0
  -25.9194  -32.4702   23.8294 C   0  0  1  0  0  0
  -27.2189  -27.1318   20.1529 C   0  0  0  0  0  0
  -25.5954  -33.8509   24.2205 N   0  0  0  0  0  0
  -23.4483  -30.4624   21.5363 C   0  0  2  0  0  0
  -24.8994  -28.8931   20.1101 C   0  0  0  0  0  0
  -22.7579  -29.4530   22.4880 C   0  0  0  0  0  0
  -18.0310  -28.1395   22.8484 C   0  0  0  0  0  0
  -24.1496  -36.7251   23.2640 C   0  0  0  0  0  0
  -26.0052  -30.7137   21.3964 C   0  0  0  0  0  0
  -26.0760  -29.3259   20.7355 C   0  0  0  0  0  0
  -27.2336  -28.4592   20.7460 C   0  0  0  0  0  0
  -26.0218  -26.8158   19.4678 C   0  0  0  0  0  0
  -24.8852  -27.6514   19.4614 C   0  0  0  0  0  0
  -23.6756  -29.7937   20.1552 C   0  0  0  0  0  0
  -25.4128  -36.3037   24.0317 C   0  0  1  0  0  0
  -20.5925  -28.3713   23.1249 C   0  0  2  0  0  0
  -20.6803  -26.9421   22.5411 C   0  0  0  0  0  0
  -19.5771  -26.6381   21.5226 C   0  0  0  0  0  0
  -18.1948  -26.7937   22.1628 C   0  0  0  0  0  0
  -19.1564  -28.8874   23.2856 C   0  0  0  0  0  0
  -18.9475  -30.1475   23.8874 C   0  0  0  0  0  0
  -17.6471  -30.6590   24.0557 C   0  0  0  0  0  0
  -25.9076  -34.9414   23.5075 C   0  0  0  0  0  0
  -16.5365  -29.9076   23.6338 C   0  0  0  0  0  0
  -16.7292  -28.6495   23.0358 C   0  0  0  0  0  0
  -26.4519  -31.6575   25.0742 C   0  0  0  0  0  0
  -25.3690  -31.3767   26.1427 C   0  0  0  0  0  0
  -27.0394  -30.2969   24.6343 C   0  0  0  0  0  0
  -27.6051  -32.4352   25.7516 C   0  0  0  0  0  0
  -27.5587  -37.1778   24.8462 C   0  0  0  0  0  0
  -21.4276  -29.3038   22.3627 N   0  0  0  0  0  0
  -26.4294  -37.3749   23.9413 N   0  0  0  0  0  0
  -24.7180  -31.0286   22.0955 N   0  0  0  0  0  0
  -23.4217  -28.8087   23.3039 O   0  0  0  0  0  0
  -28.2553  -26.1272   20.2595 O   0  0  0  0  0  0
  -26.5656  -34.8905   22.4652 O   0  0  0  0  0  0
  -23.5539  -32.1341   23.7104 O   0  0  0  0  0  0
  -30.4698  -18.6683   21.3283 C   0  0  0  0  0  0
  -30.2193  -20.0901   21.1178 C   0  0  0  0  0  0
  -28.8423  -18.1190   19.7312 C   0  0  0  0  0  0
  -29.8121  -17.5788   20.6436 C   0  0  0  0  0  0
  -29.2521  -20.6261   20.2016 C   0  0  0  0  0  0
  -28.5716  -19.5396   19.5274 C   0  0  0  0  0  0
  -28.7273  -23.2911   20.5288 C   0  0  0  0  0  0
  -31.0747  -21.9607   18.2553 C   0  0  0  0  0  0
  -29.6858  -15.9346   22.5066 C   0  0  0  0  0  0
  -27.9823  -24.6389   19.8760 C   0  0  0  0  0  0
  -29.6028  -22.3803   18.4316 C   0  0  0  0  0  0
  -29.1037  -22.1163   19.7984 N   0  0  0  0  0  0
  -29.9171  -16.0905   21.0607 N   0  0  0  0  0  0
  -28.8939  -23.3054   21.7529 O   0  0  0  0  0  0
  -27.3040  -19.9173   18.4151 Cl  0  0  0  0  0  0
  -31.4800  -12.7419   19.2110 H   0  0  0  0  0  0
  -30.4235  -11.6304   20.0222 H   0  0  0  0  0  0
  -29.8556  -11.7836   17.5739 H   0  0  0  0  0  0
  -29.6239  -13.5061   17.7230 H   0  0  0  0  0  0
  -27.9336  -11.2986   18.9320 H   0  0  0  0  0  0
  -27.4093  -12.5208   17.8040 H   0  0  0  0  0  0
  -27.6123  -14.2717   19.4564 H   0  0  0  0  0  0
  -28.7665  -12.2385   21.4199 H   0  0  0  0  0  0
  -28.3309  -13.8740   21.7998 H   0  0  0  0  0  0
  -25.2789   -9.5718   22.4728 H   0  0  0  0  0  0
  -24.0031   -7.4668   22.7475 H   0  0  0  0  0  0
  -21.0851   -8.8759   19.8943 H   0  0  0  0  0  0
  -22.3697  -10.9665   19.6138 H   0  0  0  0  0  0
  -21.1998   -7.6166   23.9737 H   0  0  0  0  0  0
  -21.1488   -6.0528   25.9092 H   0  0  0  0  0  0
  -22.0591   -2.7625   23.2819 H   0  0  0  0  0  0
  -22.4061  -11.9898   22.4843 H   0  0  0  0  0  0
  -21.1051  -13.1232   22.2554 H   0  0  0  0  0  0
  -24.6455  -15.8488   20.5454 H   0  0  0  0  0  0
  -26.2750  -15.6481   20.1479 H   0  0  0  0  0  0
  -26.7257  -32.5300   23.1019 H   0  0  0  0  0  0
  -25.0093  -33.9636   25.0345 H   0  0  0  0  0  0
  -22.7503  -31.2878   21.3824 H   0  0  0  0  0  0
  -23.3780  -35.9558   23.3273 H   0  0  0  0  0  0
  -24.3583  -36.8908   22.2061 H   0  0  0  0  0  0
  -23.7222  -37.6428   23.6689 H   0  0  0  0  0  0
  -26.1695  -31.4692   20.6272 H   0  0  0  0  0  0
  -26.8714  -30.7582   22.0444 H   0  0  0  0  0  0
  -28.1227  -28.7798   21.2694 H   0  0  0  0  0  0
  -25.9162  -25.8778   18.9449 H   0  0  0  0  0  0
  -23.9897  -27.3191   18.9550 H   0  0  0  0  0  0
  -23.8124  -30.5689   19.4006 H   0  0  0  0  0  0
  -22.7918  -29.2339   19.8446 H   0  0  0  0  0  0
  -25.1316  -36.1877   25.0807 H   0  0  0  0  0  0
  -21.0002  -28.3298   24.1376 H   0  0  0  0  0  0
  -20.5726  -26.2320   23.3624 H   0  0  0  0  0  0
  -21.6664  -26.7451   22.1190 H   0  0  0  0  0  0
  -19.6934  -25.6285   21.1267 H   0  0  0  0  0  0
  -19.6711  -27.3182   20.6749 H   0  0  0  0  0  0
  -17.4231  -26.6696   21.4018 H   0  0  0  0  0  0
  -18.0330  -26.0078   22.9018 H   0  0  0  0  0  0
  -19.7946  -30.7307   24.2230 H   0  0  0  0  0  0
  -17.5013  -31.6268   24.5167 H   0  0  0  0  0  0
  -15.5356  -30.2964   23.7674 H   0  0  0  0  0  0
  -15.8696  -28.0799   22.7088 H   0  0  0  0  0  0
  -24.5859  -30.7141   25.7728 H   0  0  0  0  0  0
  -24.8890  -32.2950   26.4818 H   0  0  0  0  0  0
  -25.7947  -30.8944   27.0231 H   0  0  0  0  0  0
  -26.3023  -29.6686   24.1329 H   0  0  0  0  0  0
  -27.3976  -29.7283   25.4935 H   0  0  0  0  0  0
  -27.8946  -30.4211   23.9697 H   0  0  0  0  0  0
  -27.2642  -33.3662   26.2056 H   0  0  0  0  0  0
  -28.3865  -32.6901   25.0345 H   0  0  0  0  0  0
  -28.0716  -31.8511   26.5457 H   0  0  0  0  0  0
  -28.2582  -38.0099   24.7546 H   0  0  0  0  0  0
  -28.1111  -36.2634   24.6249 H   0  0  0  0  0  0
  -27.2309  -37.1374   25.8862 H   0  0  0  0  0  0
  -20.9499  -29.8710   21.6765 H   0  0  0  0  0  0
  -26.0170  -38.2818   24.1421 H   0  0  0  0  0  0
  -31.2111  -18.4234   22.0760 H   0  0  0  0  0  0
  -30.8222  -20.7924   21.6756 H   0  0  0  0  0  0
  -28.2285  -17.4220   19.1815 H   0  0  0  0  0  0
  -31.4075  -22.1494   17.2341 H   0  0  0  0  0  0
  -31.2351  -20.9010   18.4504 H   0  0  0  0  0  0
  -31.7260  -22.5262   18.9227 H   0  0  0  0  0  0
  -28.6169  -15.9949   22.7135 H   0  0  0  0  0  0
  -30.1729  -16.7162   23.0875 H   0  0  0  0  0  0
  -30.0572  -14.9949   22.9221 H   0  0  0  0  0  0
  -26.9535  -24.4487   20.1801 H   0  0  0  0  0  0
  -27.9511  -24.5806   18.7906 H   0  0  0  0  0  0
  -28.9840  -21.8683   17.6975 H   0  0  0  0  0  0
  -29.5690  -23.4302   18.1511 H   0  0  0  0  0  0
  1 25  1  0  0  0
  1 30  2  0  0  0
  1 83  1  0  0  0
  2  3  1  0  0  0
  2 25  1  0  0  0
  2 86  1  0  0  0
  2 87  1  0  0  0
  3  4  1  0  0  0
  3 88  1  0  0  0
  3 89  1  0  0  0
  4  5  1  0  0  0
  4 90  1  0  0  0
  4 91  1  0  0  0
  5  6  1  0  0  0
  5 26  1  0  0  0
  5 92  1  0  0  0
  6 25  1  0  0  0
  6 93  1  0  0  0
  6 94  1  0  0  0
  7  8  2  0  0  0
  7 26  1  0  0  0
  7 29  1  0  0  0
  8  9  1  0  0  0
  8 22  1  0  0  0
  9 10  1  0  0  0
  9 27  2  0  0  0
 10 11  2  0  0  0
 10 15  1  0  0  0
 11 12  1  0  0  0
 11 95  1  0  0  0
 12 13  2  0  0  0
 12 96  1  0  0  0
 13 14  1  0  0  0
 13 31  1  0  0  0
 14 15  2  0  0  0
 14 97  1  0  0  0
 15 98  1  0  0  0
 16 17  2  0  0  0
 16 21  1  0  0  0
 16 31  1  0  0  0
 17 18  1  0  0  0
 17 99  1  0  0  0
 18 19  2  0  0  0
 18100  1  0  0  0
 19 20  1  0  0  0
 19 24  1  0  0  0
 20 21  2  0  0  0
 20101  1  0  0  0
 21 23  1  0  0  0
 22 28  1  0  0  0
 22 32  2  0  0  0
 26 27  1  0  0  0
 28102  1  0  0  0
 28103  1  0  0  0
 29104  1  0  0  0
 29105  1  0  0  0
 33 34  1  0  0  0
 33 66  1  0  0  0
 33 70  2  0  0  0
 34 36  1  0  0  0
 34 59  1  0  0  0
 34106  1  0  0  0
 35 44  2  0  0  0
 35 45  1  0  0  0
 35 68  1  0  0  0
 36 56  1  0  0  0
 36107  1  0  0  0
 37 39  1  0  0  0
 37 47  1  0  0  0
 37 66  1  0  0  0
 37108  1  0  0  0
 38 43  2  0  0  0
 38 46  1  0  0  0
 38 47  1  0  0  0
 39 64  1  0  0  0
 39 67  2  0  0  0
 40 52  1  0  0  0
 40 53  2  0  0  0
 40 58  1  0  0  0
 41109  1  0  0  0
 41110  1  0  0  0
 41111  1  0  0  0
 41 48  1  0  0  0
 42 43  1  0  0  0
 42 66  1  0  0  0
 42112  1  0  0  0
 42113  1  0  0  0
 43 44  1  0  0  0
 44114  1  0  0  0
 45 46  2  0  0  0
 45115  1  0  0  0
 46116  1  0  0  0
 47117  1  0  0  0
 47118  1  0  0  0
 48 56  1  0  0  0
 48 65  1  0  0  0
 48119  1  0  0  0
 49 50  1  0  0  0
 49 53  1  0  0  0
 49 64  1  0  0  0
 49120  1  0  0  0
 50 51  1  0  0  0
 50121  1  0  0  0
 50122  1  0  0  0
 51 52  1  0  0  0
 51123  1  0  0  0
 51124  1  0  0  0
 52125  1  0  0  0
 52126  1  0  0  0
 53 54  1  0  0  0
 54 55  2  0  0  0
 54127  1  0  0  0
 55 57  1  0  0  0
 55128  1  0  0  0
 56 69  2  0  0  0
 57 58  2  0  0  0
 57129  1  0  0  0
 58130  1  0  0  0
 59 60  1  0  0  0
 59 61  1  0  0  0
 59 62  1  0  0  0
 60131  1  0  0  0
 60132  1  0  0  0
 60133  1  0  0  0
 61134  1  0  0  0
 61135  1  0  0  0
 61136  1  0  0  0
 62137  1  0  0  0
 62138  1  0  0  0
 62139  1  0  0  0
 63 65  1  0  0  0
 63140  1  0  0  0
 63141  1  0  0  0
 63142  1  0  0  0
 64143  1  0  0  0
 65144  1  0  0  0
 68 80  1  0  0  0
 71 72  2  0  0  0
 71 74  1  0  0  0
 71145  1  0  0  0
 72 75  1  0  0  0
 72146  1  0  0  0
 73 74  2  0  0  0
 73 76  1  0  0  0
 73147  1  0  0  0
 74 83  1  0  0  0
 75 76  2  0  0  0
 75 82  1  0  0  0
 76 85  1  0  0  0
 77 80  1  0  0  0
 77 82  1  0  0  0
 77 84  2  0  0  0
 78 81  1  0  0  0
 78148  1  0  0  0
 78149  1  0  0  0
 78150  1  0  0  0
 79 83  1  0  0  0
 79151  1  0  0  0
 79152  1  0  0  0
 79153  1  0  0  0
 80154  1  0  0  0
 80155  1  0  0  0
 81 82  1  0  0  0
 81156  1  0  0  0
 81157  1  0  0  0
M  ISO  4   1 100  68 101  80 101  83 100
M  END
> <chiral flag>
0

> <version>
0

> <s_m_source_file>
/data/baiqing/PycharmProjects/Reinvent-master-3.2/result/LINK_invent/BTK/process_docking_weight1_custom_product_contain_oxygen_bond_distance_aromatic_linkinvent_7_9_3/rearranged_h_0021.sdf

> <i_m_source_file_index>
38

> <r_mmod_Potential_Energy-OPLS-2005>
806.498596191406

> <r_mmod_Stretch_Energy-OPLS-2005>
262.307006835938

> <r_mmod_Bend_Energy-OPLS-2005>
271.400512695312

> <r_mmod_Torsional_Energy-OPLS-2005>
383.905578613281

> <r_mmod_Improper_Torsional_Energy-OPLS-2005>
6.84299898147583

> <r_mmod_Van_der_Waal_Energy-OPLS-2005>
146.426574707031

> <r_mmod_Electrostatic_Energy-OPLS-2005>
-244.831878662109

> <r_mmod_Solvation_Energy-OPLS-2005>
-210.509613037109

> <b_mmod_Minimization_Converged-OPLS-2005>
0

> <r_mmod_RMS_Derivative-OPLS-2005>
2.17711281776428

$$$$
38
                    3D
 Structure written by MMmdl.
167176  0  0  1  0            999 V2000
  -30.6018  -14.7410   20.4711 C   0  0  0  0  0  0
  -30.4245  -12.4523   19.4801 C   0  0  0  0  0  0
  -29.5040  -12.5020   18.2404 C   0  0  0  0  0  0
  -28.0314  -12.3236   18.6569 C   0  0  0  0  0  0
  -27.6375  -13.2273   19.8559 C   0  0  2  0  0  0
  -28.6789  -13.1599   20.9931 C   0  0  0  0  0  0
  -25.2555  -13.8169   20.5776 C   0  0  0  0  0  0
  -24.1760  -13.0430   20.9073 C   0  0  0  0  0  0
  -24.6330  -11.6902   20.8637 C   0  0  0  0  0  0
  -23.9012  -10.4289   21.0349 C   0  0  0  0  0  0
  -24.3592   -9.4223   21.9141 C   0  0  0  0  0  0
  -23.6281   -8.2249   22.0735 C   0  0  0  0  0  0
  -22.4261   -8.0268   21.3537 C   0  0  0  0  0  0
  -21.9858   -9.0236   20.4652 C   0  0  0  0  0  0
  -22.7163  -10.2127   20.3039 C   0  0  0  0  0  0
  -21.6865   -6.0720   22.5279 C   0  0  0  0  0  0
  -21.4022   -6.5633   23.8211 C   0  0  0  0  0  0
  -21.3651   -5.6787   24.9174 C   0  0  0  0  0  0
  -21.6041   -4.3051   24.7226 C   0  0  0  0  0  0
  -21.8831   -3.8144   23.4348 C   0  0  0  0  0  0
  -21.9199   -4.6950   22.3404 C   0  0  0  0  0  0
  -22.7827  -13.5267   21.1788 C   0  0  0  0  0  0
  -22.1668   -4.2142   21.0982 F   0  0  0  0  0  0
  -21.5612   -3.4531   25.7732 F   0  0  0  0  0  0
  -29.9771  -13.5155   20.4127 N   0  0  0  0  0  0
  -26.2918  -12.9359   20.3320 N   0  0  0  0  0  0
  -25.9273  -11.6510   20.5716 N   0  0  0  0  0  0
  -22.0439  -12.8284   22.0338 N   0  0  0  0  0  0
  -25.4520  -15.1918   20.4809 N   0  0  0  0  0  0
  -31.7879  -14.8083   20.1393 O   0  0  0  0  0  0
  -21.6633   -6.8859   21.4246 O   0  0  0  0  0  0
  -22.3652  -14.5668   20.6729 O   0  0  0  0  0  0
  -24.6304  -31.8546   23.1948 C   0  0  0  0  0  0
  -25.9134  -32.4755   23.8293 C   0  0  1  0  0  0
  -27.2254  -27.2714   20.1510 C   0  0  0  0  0  0
  -25.5938  -33.8553   24.2242 N   0  0  0  0  0  0
  -23.4277  -30.4733   21.5362 C   0  0  2  0  0  0
  -24.8757  -28.9104   20.1160 C   0  0  0  0  0  0
  -22.7488  -29.4593   22.4891 C   0  0  0  0  0  0
  -18.0287  -28.1377   22.8483 C   0  0  0  0  0  0
  -24.1481  -36.7277   23.2636 C   0  0  0  0  0  0
  -25.9688  -30.7736   21.3679 C   0  0  0  0  0  0
  -26.0441  -29.3915   20.7215 C   0  0  0  0  0  0
  -27.2259  -28.5861   20.7207 C   0  0  0  0  0  0
  -26.0372  -26.8425   19.5276 C   0  0  0  0  0  0
  -24.8763  -27.6445   19.5048 C   0  0  0  0  0  0
  -23.6462  -29.7974   20.1547 C   0  0  0  0  0  0
  -25.4112  -36.3078   24.0334 C   0  0  1  0  0  0
  -20.5894  -28.3688   23.1273 C   0  0  2  0  0  0
  -20.6784  -26.9408   22.5402 C   0  0  0  0  0  0
  -19.5763  -26.6385   21.5202 C   0  0  0  0  0  0
  -18.1943  -26.7919   22.1621 C   0  0  0  0  0  0
  -19.1539  -28.8849   23.2874 C   0  0  0  0  0  0
  -18.9471  -30.1460   23.8884 C   0  0  0  0  0  0
  -17.6469  -30.6580   24.0567 C   0  0  0  0  0  0
  -25.9060  -34.9450   23.5095 C   0  0  0  0  0  0
  -16.5359  -29.9083   23.6332 C   0  0  0  0  0  0
  -16.7277  -28.6500   23.0351 C   0  0  0  0  0  0
  -26.4513  -31.6564   25.0667 C   0  0  0  0  0  0
  -25.3755  -31.3691   26.1394 C   0  0  0  0  0  0
  -27.0342  -30.2982   24.6129 C   0  0  0  0  0  0
  -27.6070  -32.4282   25.7452 C   0  0  0  0  0  0
  -27.5582  -37.1792   24.8469 C   0  0  0  0  0  0
  -21.4193  -29.3042   22.3648 N   0  0  0  0  0  0
  -26.4283  -37.3790   23.9431 N   0  0  0  0  0  0
  -24.6946  -31.0527   22.0904 N   0  0  0  0  0  0
  -23.4186  -28.8151   23.3002 O   0  0  0  0  0  0
  -28.3376  -26.4100   20.1373 O   0  0  0  0  0  0
  -26.5612  -34.8937   22.4655 O   0  0  0  0  0  0
  -23.5453  -32.1329   23.7272 O   0  0  0  0  0  0
  -31.4760  -17.7657   20.4374 C   0  0  0  0  0  0
  -30.8903  -20.1463   20.3509 C   0  0  0  0  0  0
  -29.1530  -18.4503   20.6613 C   0  0  0  0  0  0
  -30.1289  -17.3504   20.5967 C   0  0  0  0  0  0
  -29.5196  -19.8635   20.5151 C   0  0  0  0  0  0
  -31.8476  -19.1186   20.3221 C   0  0  0  0  0  0
  -25.8664  -18.3466   17.6883 C   0  0  0  0  0  0
  -24.7148  -18.3600   18.7046 C   0  0  0  0  0  0
  -27.1547  -18.3758   18.5231 C   0  0  0  0  0  0
  -25.3943  -18.4421   20.0739 C   0  0  0  0  0  0
  -27.6864  -18.1661   21.0038 C   0  0  0  0  0  0
  -28.4523  -23.6495   20.0612 C   0  0  0  0  0  0
  -28.2636  -25.0746   20.8136 C   0  0  0  0  0  0
  -28.8402  -22.3345   20.9313 C   0  0  0  0  0  0
  -29.8253  -15.8809   20.7067 N   0  0  0  0  0  0
  -26.7577  -17.9099   19.8661 N   0  3  0  0  0  0
  -28.5761  -20.9359   20.4566 O   0  0  0  0  0  0
  -33.5137  -19.5239   20.1279 Cl  0  0  0  0  0  0
  -31.4660  -12.5714   19.1776 H   0  0  0  0  0  0
  -30.3672  -11.4760   19.9635 H   0  0  0  0  0  0
  -29.7859  -11.7255   17.5278 H   0  0  0  0  0  0
  -29.6281  -13.4550   17.7231 H   0  0  0  0  0  0
  -27.8944  -11.2758   18.9263 H   0  0  0  0  0  0
  -27.3700  -12.5056   17.8086 H   0  0  0  0  0  0
  -27.6268  -14.2484   19.4729 H   0  0  0  0  0  0
  -28.7172  -12.1591   21.4260 H   0  0  0  0  0  0
  -28.4139  -13.8332   21.8096 H   0  0  0  0  0  0
  -25.2748   -9.5710   22.4700 H   0  0  0  0  0  0
  -23.9999   -7.4647   22.7452 H   0  0  0  0  0  0
  -21.0773   -8.8747   19.8984 H   0  0  0  0  0  0
  -22.3587  -10.9661   19.6154 H   0  0  0  0  0  0
  -21.2029   -7.6145   23.9706 H   0  0  0  0  0  0
  -21.1455   -6.0518   25.9071 H   0  0  0  0  0  0
  -22.0617   -2.7605   23.2850 H   0  0  0  0  0  0
  -22.3965  -11.9857   22.4639 H   0  0  0  0  0  0
  -21.1093  -13.1410   22.2567 H   0  0  0  0  0  0
  -24.5277  -15.5982   20.5890 H   0  0  0  0  0  0
  -25.9624  -15.4004   21.3303 H   0  0  0  0  0  0
  -26.7207  -32.5412   23.1042 H   0  0  0  0  0  0
  -25.0149  -33.9675   25.0430 H   0  0  0  0  0  0
  -22.7240  -31.2954   21.3857 H   0  0  0  0  0  0
  -23.3760  -35.9590   23.3283 H   0  0  0  0  0  0
  -24.3572  -36.8901   22.2051 H   0  0  0  0  0  0
  -23.7204  -37.6474   23.6645 H   0  0  0  0  0  0
  -26.0965  -31.5297   20.5913 H   0  0  0  0  0  0
  -26.8506  -30.8334   21.9940 H   0  0  0  0  0  0
  -28.1271  -28.9559   21.1907 H   0  0  0  0  0  0
  -26.0079  -25.8683   19.0589 H   0  0  0  0  0  0
  -23.9841  -27.2721   19.0203 H   0  0  0  0  0  0
  -23.7720  -30.5675   19.3923 H   0  0  0  0  0  0
  -22.7664  -29.2272   19.8518 H   0  0  0  0  0  0
  -25.1290  -36.1919   25.0826 H   0  0  0  0  0  0
  -21.0000  -28.3277   24.1393 H   0  0  0  0  0  0
  -20.5686  -26.2308   23.3609 H   0  0  0  0  0  0
  -21.6658  -26.7432   22.1206 H   0  0  0  0  0  0
  -19.6924  -25.6293   21.1237 H   0  0  0  0  0  0
  -19.6701  -27.3202   20.6731 H   0  0  0  0  0  0
  -17.4213  -26.6673   21.4021 H   0  0  0  0  0  0
  -18.0349  -26.0050   22.9010 H   0  0  0  0  0  0
  -19.7947  -30.7289   24.2243 H   0  0  0  0  0  0
  -17.5018  -31.6257   24.5174 H   0  0  0  0  0  0
  -15.5356  -30.2991   23.7646 H   0  0  0  0  0  0
  -15.8682  -28.0824   22.7062 H   0  0  0  0  0  0
  -24.5966  -30.6998   25.7731 H   0  0  0  0  0  0
  -24.8911  -32.2848   26.4784 H   0  0  0  0  0  0
  -25.8102  -30.8906   27.0179 H   0  0  0  0  0  0
  -26.2893  -29.6735   24.1189 H   0  0  0  0  0  0
  -27.4072  -29.7240   25.4621 H   0  0  0  0  0  0
  -27.8756  -30.4255   23.9316 H   0  0  0  0  0  0
  -27.2690  -33.3602   26.1989 H   0  0  0  0  0  0
  -28.3911  -32.6791   25.0298 H   0  0  0  0  0  0
  -28.0695  -31.8415   26.5401 H   0  0  0  0  0  0
  -28.2593  -38.0100   24.7564 H   0  0  0  0  0  0
  -28.1088  -36.2640   24.6234 H   0  0  0  0  0  0
  -27.2310  -37.1369   25.8874 H   0  0  0  0  0  0
  -20.9366  -29.8755   21.6857 H   0  0  0  0  0  0
  -26.0159  -38.2864   24.1451 H   0  0  0  0  0  0
  -32.2868  -17.0578   20.4106 H   0  0  0  0  0  0
  -31.2350  -21.1603   20.2192 H   0  0  0  0  0  0
  -25.8187  -19.1945   17.0036 H   0  0  0  0  0  0
  -25.8224  -17.4367   17.0878 H   0  0  0  0  0  0
  -24.1352  -17.4388   18.6244 H   0  0  0  0  0  0
  -24.0296  -19.1941   18.5487 H   0  0  0  0  0  0
  -27.5185  -19.4022   18.5752 H   0  0  0  0  0  0
  -27.9465  -17.7614   18.0924 H   0  0  0  0  0  0
  -24.8473  -17.9043   20.8491 H   0  0  0  0  0  0
  -25.4510  -19.4882   20.3807 H   0  0  0  0  0  0
  -27.3246  -19.0175   21.5823 H   0  0  0  0  0  0
  -27.6278  -17.3294   21.6996 H   0  0  0  0  0  0
  -29.2192  -23.7701   19.2956 H   0  0  0  0  0  0
  -27.5306  -23.4429   19.5173 H   0  0  0  0  0  0
  -29.0568  -25.1208   21.5613 H   0  0  0  0  0  0
  -27.3460  -25.0325   21.4015 H   0  0  0  0  0  0
  -28.2556  -22.4080   21.8483 H   0  0  0  0  0  0
  -29.8654  -22.4457   21.2781 H   0  0  0  0  0  0
  -28.8742  -15.6441   20.9354 H   0  0  0  0  0  0
  -26.6351  -16.9063   19.7936 H   0  0  0  0  0  0
  1 25  1  0  0  0
  1 30  2  0  0  0
  1 85  1  0  0  0
  2  3  1  0  0  0
  2 25  1  0  0  0
  2 89  1  0  0  0
  2 90  1  0  0  0
  3  4  1  0  0  0
  3 91  1  0  0  0
  3 92  1  0  0  0
  4  5  1  0  0  0
  4 93  1  0  0  0
  4 94  1  0  0  0
  5  6  1  0  0  0
  5 26  1  0  0  0
  5 95  1  0  0  0
  6 25  1  0  0  0
  6 96  1  0  0  0
  6 97  1  0  0  0
  7  8  2  0  0  0
  7 26  1  0  0  0
  7 29  1  0  0  0
  8  9  1  0  0  0
  8 22  1  0  0  0
  9 10  1  0  0  0
  9 27  2  0  0  0
 10 11  2  0  0  0
 10 15  1  0  0  0
 11 12  1  0  0  0
 11 98  1  0  0  0
 12 13  2  0  0  0
 12 99  1  0  0  0
 13 14  1  0  0  0
 13 31  1  0  0  0
 14 15  2  0  0  0
 14100  1  0  0  0
 15101  1  0  0  0
 16 17  2  0  0  0
 16 21  1  0  0  0
 16 31  1  0  0  0
 17 18  1  0  0  0
 17102  1  0  0  0
 18 19  2  0  0  0
 18103  1  0  0  0
 19 20  1  0  0  0
 19 24  1  0  0  0
 20 21  2  0  0  0
 20104  1  0  0  0
 21 23  1  0  0  0
 22 28  1  0  0  0
 22 32  2  0  0  0
 26 27  1  0  0  0
 28105  1  0  0  0
 28106  1  0  0  0
 29107  1  0  0  0
 29108  1  0  0  0
 33 34  1  0  0  0
 33 66  1  0  0  0
 33 70  2  0  0  0
 34 36  1  0  0  0
 34 59  1  0  0  0
 34109  1  0  0  0
 35 44  2  0  0  0
 35 45  1  0  0  0
 35 68  1  0  0  0
 36 56  1  0  0  0
 36110  1  0  0  0
 37 39  1  0  0  0
 37 47  1  0  0  0
 37 66  1  0  0  0
 37111  1  0  0  0
 38 43  2  0  0  0
 38 46  1  0  0  0
 38 47  1  0  0  0
 39 64  1  0  0  0
 39 67  2  0  0  0
 40 52  1  0  0  0
 40 53  2  0  0  0
 40 58  1  0  0  0
 41112  1  0  0  0
 41113  1  0  0  0
 41114  1  0  0  0
 41 48  1  0  0  0
 42 43  1  0  0  0
 42 66  1  0  0  0
 42115  1  0  0  0
 42116  1  0  0  0
 43 44  1  0  0  0
 44117  1  0  0  0
 45 46  2  0  0  0
 45118  1  0  0  0
 46119  1  0  0  0
 47120  1  0  0  0
 47121  1  0  0  0
 48 56  1  0  0  0
 48 65  1  0  0  0
 48122  1  0  0  0
 49 50  1  0  0  0
 49 53  1  0  0  0
 49 64  1  0  0  0
 49123  1  0  0  0
 50 51  1  0  0  0
 50124  1  0  0  0
 50125  1  0  0  0
 51 52  1  0  0  0
 51126  1  0  0  0
 51127  1  0  0  0
 52128  1  0  0  0
 52129  1  0  0  0
 53 54  1  0  0  0
 54 55  2  0  0  0
 54130  1  0  0  0
 55 57  1  0  0  0
 55131  1  0  0  0
 56 69  2  0  0  0
 57 58  2  0  0  0
 57132  1  0  0  0
 58133  1  0  0  0
 59 60  1  0  0  0
 59 61  1  0  0  0
 59 62  1  0  0  0
 60134  1  0  0  0
 60135  1  0  0  0
 60136  1  0  0  0
 61137  1  0  0  0
 61138  1  0  0  0
 61139  1  0  0  0
 62140  1  0  0  0
 62141  1  0  0  0
 62142  1  0  0  0
 63 65  1  0  0  0
 63143  1  0  0  0
 63144  1  0  0  0
 63145  1  0  0  0
 64146  1  0  0  0
 65147  1  0  0  0
 68 83  1  0  0  0
 71 74  2  0  0  0
 71 76  1  0  0  0
 71148  1  0  0  0
 72 75  1  0  0  0
 72 76  2  0  0  0
 72149  1  0  0  0
 73 74  1  0  0  0
 73 75  2  0  0  0
 73 81  1  0  0  0
 74 85  1  0  0  0
 75 87  1  0  0  0
 76 88  1  0  0  0
 77 78  1  0  0  0
 77 79  1  0  0  0
 77150  1  0  0  0
 77151  1  0  0  0
 78 80  1  0  0  0
 78152  1  0  0  0
 78153  1  0  0  0
 79 86  1  0  0  0
 79154  1  0  0  0
 79155  1  0  0  0
 80 86  1  0  0  0
 80156  1  0  0  0
 80157  1  0  0  0
 81158  1  0  0  0
 81159  1  0  0  0
 81 86  1  0  0  0
 82 83  1  0  0  0
 82 84  1  0  0  0
 82160  1  0  0  0
 82161  1  0  0  0
 83162  1  0  0  0
 83163  1  0  0  0
 84 87  1  0  0  0
 84164  1  0  0  0
 84165  1  0  0  0
 85166  1  0  0  0
 86167  1  0  0  0
M  CHG  1  86   1
M  ISO  4   1 100  68 101  83 101  85 100
M  END
> <chiral flag>
0

> <version>
0

> <s_m_source_file>
/data/baiqing/PycharmProjects/Reinvent-master-3.2/result/LINK_invent/BTK/process_docking_weight1_custom_product_contain_oxygen_bond_distance_aromatic_linkinvent_7_9_3/rearranged_h_0021.sdf

> <i_m_source_file_index>
39

> <r_mmod_Potential_Energy-OPLS-2005>
187.701538085938

> <r_mmod_Stretch_Energy-OPLS-2005>
135.328262329102

> <r_mmod_Bend_Energy-OPLS-2005>
209.788909912109

> <r_mmod_Torsional_Energy-OPLS-2005>
331.426177978516

> <r_mmod_Improper_Torsional_Energy-OPLS-2005>
11.748161315918

> <r_mmod_Van_der_Waal_Energy-OPLS-2005>
129.655288696289

> <r_mmod_Electrostatic_Energy-OPLS-2005>
-262.584136962891

> <r_mmod_Solvation_Energy-OPLS-2005>
-446.409851074219

> <b_mmod_Minimization_Converged-OPLS-2005>
0

> <r_mmod_RMS_Derivative-OPLS-2005>
1.8749133348465

$$$$
39
                    3D
 Structure written by MMmdl.
158167  0  0  1  0            999 V2000
  -30.6189  -14.6346   20.5508 C   0  0  0  0  0  0
  -30.4484  -12.3984   19.4631 C   0  0  0  0  0  0
  -29.5205  -12.5213   18.2342 C   0  0  0  0  0  0
  -28.0405  -12.3551   18.6374 C   0  0  0  0  0  0
  -27.6591  -13.2132   19.8728 C   0  0  2  0  0  0
  -28.6980  -13.0445   21.0032 C   0  0  0  0  0  0
  -25.2588  -13.8171   20.5640 C   0  0  0  0  0  0
  -24.1833  -13.0451   20.9158 C   0  0  0  0  0  0
  -24.6391  -11.6918   20.8740 C   0  0  0  0  0  0
  -23.9072  -10.4306   21.0413 C   0  0  0  0  0  0
  -24.3625   -9.4221   21.9191 C   0  0  0  0  0  0
  -23.6295   -8.2269   22.0767 C   0  0  0  0  0  0
  -22.4273   -8.0309   21.3559 C   0  0  0  0  0  0
  -21.9903   -9.0287   20.4659 C   0  0  0  0  0  0
  -22.7247  -10.2154   20.3060 C   0  0  0  0  0  0
  -21.6857   -6.0746   22.5276 C   0  0  0  0  0  0
  -21.4023   -6.5655   23.8212 C   0  0  0  0  0  0
  -21.3652   -5.6803   24.9174 C   0  0  0  0  0  0
  -21.6030   -4.3065   24.7218 C   0  0  0  0  0  0
  -21.8825   -3.8158   23.4338 C   0  0  0  0  0  0
  -21.9195   -4.6969   22.3395 C   0  0  0  0  0  0
  -22.7858  -13.5257   21.1807 C   0  0  0  0  0  0
  -22.1669   -4.2164   21.0969 F   0  0  0  0  0  0
  -21.5605   -3.4541   25.7726 F   0  0  0  0  0  0
  -30.0167  -13.4046   20.4549 N   0  0  0  0  0  0
  -26.3015  -12.9333   20.3331 N   0  0  0  0  0  0
  -25.9318  -11.6489   20.5750 N   0  0  0  0  0  0
  -22.0480  -12.8295   22.0377 N   0  0  0  0  0  0
  -25.4353  -15.1873   20.3933 N   0  0  0  0  0  0
  -31.7640  -14.8157   20.1228 O   0  0  0  0  0  0
  -21.6651   -6.8894   21.4242 O   0  0  0  0  0  0
  -22.3560  -14.5564   20.6626 O   0  0  0  0  0  0
  -24.6252  -31.8585   23.2041 C   0  0  0  0  0  0
  -25.9101  -32.4768   23.8364 C   0  0  1  0  0  0
  -27.2248  -27.3148   20.1116 C   0  0  0  0  0  0
  -25.5918  -33.8573   24.2282 N   0  0  0  0  0  0
  -23.4193  -30.4825   21.5462 C   0  0  2  0  0  0
  -24.8658  -28.9399   20.1097 C   0  0  0  0  0  0
  -22.7466  -29.4621   22.4940 C   0  0  0  0  0  0
  -18.0279  -28.1376   22.8478 C   0  0  0  0  0  0
  -24.1471  -36.7296   23.2638 C   0  0  0  0  0  0
  -25.9614  -30.7874   21.3777 C   0  0  0  0  0  0
  -26.0356  -29.4163   20.7144 C   0  0  0  0  0  0
  -27.2175  -28.6160   20.7061 C   0  0  0  0  0  0
  -26.0313  -26.8983   19.4747 C   0  0  0  0  0  0
  -24.8658  -27.6855   19.4825 C   0  0  0  0  0  0
  -23.6324  -29.8177   20.1614 C   0  0  0  0  0  0
  -25.4096  -36.3074   24.0320 C   0  0  1  0  0  0
  -20.5878  -28.3679   23.1269 C   0  0  2  0  0  0
  -20.6762  -26.9399   22.5396 C   0  0  0  0  0  0
  -19.5742  -26.6377   21.5190 C   0  0  0  0  0  0
  -18.1923  -26.7924   22.1606 C   0  0  0  0  0  0
  -19.1531  -28.8848   23.2869 C   0  0  0  0  0  0
  -18.9464  -30.1451   23.8887 C   0  0  0  0  0  0
  -17.6465  -30.6584   24.0551 C   0  0  0  0  0  0
  -25.9038  -34.9438   23.5098 C   0  0  0  0  0  0
  -16.5355  -29.9072   23.6333 C   0  0  0  0  0  0
  -16.7269  -28.6483   23.0366 C   0  0  0  0  0  0
  -26.4494  -31.6593   25.0750 C   0  0  0  0  0  0
  -25.3752  -31.3726   26.1500 C   0  0  0  0  0  0
  -27.0339  -30.3008   24.6240 C   0  0  0  0  0  0
  -27.6049  -32.4340   25.7523 C   0  0  0  0  0  0
  -27.5559  -37.1795   24.8450 C   0  0  0  0  0  0
  -21.4182  -29.3029   22.3670 N   0  0  0  0  0  0
  -26.4271  -37.3765   23.9401 N   0  0  0  0  0  0
  -24.6872  -31.0596   22.0985 N   0  0  0  0  0  0
  -23.4185  -28.8157   23.3026 O   0  0  0  0  0  0
  -28.3390  -26.4579   20.1754 O   0  0  0  0  0  0
  -26.5600  -34.8908   22.4666 O   0  0  0  0  0  0
  -23.5419  -32.1385   23.7365 O   0  0  0  0  0  0
  -30.7576  -19.2521   20.0014 C   0  0  0  0  0  0
  -30.8106  -17.8310   20.1364 C   0  0  0  0  0  0
  -28.8331  -19.3307   21.4231 C   0  0  0  0  0  0
  -28.8997  -17.9137   21.6016 C   0  0  0  0  0  0
  -29.7531  -20.0551   20.6156 C   0  0  0  0  0  0
  -29.8767  -17.1123   20.9289 C   0  0  0  0  0  0
  -28.7287  -22.4376   20.7191 C   0  0  0  0  0  0
  -30.4044  -23.7146   19.6440 C   0  0  0  0  0  0
  -30.8774  -22.2722   19.9380 C   0  0  0  0  0  0
  -29.1744  -23.9299   20.5263 C   0  0  1  0  0  0
  -27.8888  -17.2998   22.5631 C   0  0  0  0  0  0
  -28.1115  -24.9990   19.9962 C   0  0  0  0  0  0
  -29.7189  -21.5278   20.4466 N   0  0  0  0  0  0
  -29.8348  -15.6480   21.0407 N   0  0  0  0  0  0
  -27.5824  -22.1537   21.0780 O   0  0  0  0  0  0
  -31.4893  -12.5353   19.1644 H   0  0  0  0  0  0
  -30.3926  -11.3972   19.8941 H   0  0  0  0  0  0
  -29.7897  -11.7771   17.4840 H   0  0  0  0  0  0
  -29.6678  -13.4951   17.7652 H   0  0  0  0  0  0
  -27.8729  -11.3004   18.8565 H   0  0  0  0  0  0
  -27.3939  -12.5972   17.7946 H   0  0  0  0  0  0
  -27.6883  -14.2534   19.5496 H   0  0  0  0  0  0
  -28.7083  -12.0109   21.3525 H   0  0  0  0  0  0
  -28.4339  -13.6448   21.8752 H   0  0  0  0  0  0
  -25.2763   -9.5708   22.4763 H   0  0  0  0  0  0
  -23.9998   -7.4663   22.7488 H   0  0  0  0  0  0
  -21.0835   -8.8819   19.8969 H   0  0  0  0  0  0
  -22.3714  -10.9696   19.6172 H   0  0  0  0  0  0
  -21.2048   -7.6163   23.9724 H   0  0  0  0  0  0
  -21.1450   -6.0527   25.9075 H   0  0  0  0  0  0
  -22.0607   -2.7617   23.2836 H   0  0  0  0  0  0
  -22.4067  -11.9975   22.4818 H   0  0  0  0  0  0
  -21.1088  -13.1348   22.2531 H   0  0  0  0  0  0
  -24.6656  -15.8424   20.4604 H   0  0  0  0  0  0
  -26.2753  -15.6063   20.0157 H   0  0  0  0  0  0
  -26.7174  -32.5424   23.1114 H   0  0  0  0  0  0
  -25.0065  -33.9718   25.0428 H   0  0  0  0  0  0
  -22.7132  -31.3030   21.4035 H   0  0  0  0  0  0
  -23.3708  -35.9654   23.3327 H   0  0  0  0  0  0
  -24.3557  -36.8894   22.2045 H   0  0  0  0  0  0
  -23.7259  -37.6524   23.6651 H   0  0  0  0  0  0
  -26.1007  -31.5552   20.6156 H   0  0  0  0  0  0
  -26.8372  -30.8284   22.0139 H   0  0  0  0  0  0
  -28.1139  -28.9749   21.1916 H   0  0  0  0  0  0
  -25.9656  -25.9450   18.9715 H   0  0  0  0  0  0
  -23.9686  -27.3165   19.0051 H   0  0  0  0  0  0
  -23.7458  -30.5928   19.4026 H   0  0  0  0  0  0
  -22.7529  -29.2435   19.8636 H   0  0  0  0  0  0
  -25.1272  -36.1926   25.0810 H   0  0  0  0  0  0
  -20.9964  -28.3250   24.1392 H   0  0  0  0  0  0
  -20.5630  -26.2287   23.3593 H   0  0  0  0  0  0
  -21.6635  -26.7409   22.1207 H   0  0  0  0  0  0
  -19.6894  -25.6283   21.1228 H   0  0  0  0  0  0
  -19.6681  -27.3171   20.6709 H   0  0  0  0  0  0
  -17.4184  -26.6668   21.4020 H   0  0  0  0  0  0
  -18.0330  -26.0064   22.9001 H   0  0  0  0  0  0
  -19.7948  -30.7259   24.2256 H   0  0  0  0  0  0
  -17.5028  -31.6273   24.5136 H   0  0  0  0  0  0
  -15.5360  -30.2968   23.7673 H   0  0  0  0  0  0
  -15.8666  -28.0789   22.7115 H   0  0  0  0  0  0
  -24.5924  -30.7066   25.7860 H   0  0  0  0  0  0
  -24.8953  -32.2882   26.4958 H   0  0  0  0  0  0
  -25.8110  -30.8909   27.0263 H   0  0  0  0  0  0
  -26.2917  -29.6762   24.1261 H   0  0  0  0  0  0
  -27.4000  -29.7273   25.4770 H   0  0  0  0  0  0
  -27.8804  -30.4270   23.9487 H   0  0  0  0  0  0
  -27.2652  -33.3639   26.2098 H   0  0  0  0  0  0
  -28.3862  -32.6911   25.0359 H   0  0  0  0  0  0
  -28.0719  -31.8484   26.5454 H   0  0  0  0  0  0
  -28.2572  -38.0094   24.7495 H   0  0  0  0  0  0
  -28.1059  -36.2627   24.6269 H   0  0  0  0  0  0
  -27.2288  -37.1436   25.8858 H   0  0  0  0  0  0
  -20.9361  -29.8759   21.6886 H   0  0  0  0  0  0
  -26.0147  -38.2838   24.1425 H   0  0  0  0  0  0
  -31.5151  -19.7096   19.3829 H   0  0  0  0  0  0
  -31.5853  -17.3005   19.6007 H   0  0  0  0  0  0
  -28.0577  -19.8699   21.9475 H   0  0  0  0  0  0
  -30.1263  -23.7981   18.5926 H   0  0  0  0  0  0
  -31.1873  -24.4487   19.8309 H   0  0  0  0  0  0
  -31.6479  -22.2727   20.7115 H   0  0  0  0  0  0
  -31.3050  -21.8298   19.0392 H   0  0  0  0  0  0
  -29.4999  -24.2550   21.5145 H   0  0  0  0  0  0
  -27.9167  -17.8338   23.5147 H   0  0  0  0  0  0
  -28.0710  -16.2502   22.7911 H   0  0  0  0  0  0
  -26.8772  -17.3888   22.1685 H   0  0  0  0  0  0
  -27.1687  -24.7480   20.4835 H   0  0  0  0  0  0
  -27.9594  -24.8181   18.9316 H   0  0  0  0  0  0
  -28.9769  -15.2983   21.4391 H   0  0  0  0  0  0
  1 25  1  0  0  0
  1 30  2  0  0  0
  1 84  1  0  0  0
  2  3  1  0  0  0
  2 25  1  0  0  0
  2 86  1  0  0  0
  2 87  1  0  0  0
  3  4  1  0  0  0
  3 88  1  0  0  0
  3 89  1  0  0  0
  4  5  1  0  0  0
  4 90  1  0  0  0
  4 91  1  0  0  0
  5  6  1  0  0  0
  5 26  1  0  0  0
  5 92  1  0  0  0
  6 25  1  0  0  0
  6 93  1  0  0  0
  6 94  1  0  0  0
  7  8  2  0  0  0
  7 26  1  0  0  0
  7 29  1  0  0  0
  8  9  1  0  0  0
  8 22  1  0  0  0
  9 10  1  0  0  0
  9 27  2  0  0  0
 10 11  2  0  0  0
 10 15  1  0  0  0
 11 12  1  0  0  0
 11 95  1  0  0  0
 12 13  2  0  0  0
 12 96  1  0  0  0
 13 14  1  0  0  0
 13 31  1  0  0  0
 14 15  2  0  0  0
 14 97  1  0  0  0
 15 98  1  0  0  0
 16 17  2  0  0  0
 16 21  1  0  0  0
 16 31  1  0  0  0
 17 18  1  0  0  0
 17 99  1  0  0  0
 18 19  2  0  0  0
 18100  1  0  0  0
 19 20  1  0  0  0
 19 24  1  0  0  0
 20 21  2  0  0  0
 20101  1  0  0  0
 21 23  1  0  0  0
 22 28  1  0  0  0
 22 32  2  0  0  0
 26 27  1  0  0  0
 28102  1  0  0  0
 28103  1  0  0  0
 29104  1  0  0  0
 29105  1  0  0  0
 33 34  1  0  0  0
 33 66  1  0  0  0
 33 70  2  0  0  0
 34 36  1  0  0  0
 34 59  1  0  0  0
 34106  1  0  0  0
 35 44  2  0  0  0
 35 45  1  0  0  0
 35 68  1  0  0  0
 36 56  1  0  0  0
 36107  1  0  0  0
 37 39  1  0  0  0
 37 47  1  0  0  0
 37 66  1  0  0  0
 37108  1  0  0  0
 38 43  2  0  0  0
 38 46  1  0  0  0
 38 47  1  0  0  0
 39 64  1  0  0  0
 39 67  2  0  0  0
 40 52  1  0  0  0
 40 53  2  0  0  0
 40 58  1  0  0  0
 41109  1  0  0  0
 41110  1  0  0  0
 41111  1  0  0  0
 41 48  1  0  0  0
 42 43  1  0  0  0
 42 66  1  0  0  0
 42112  1  0  0  0
 42113  1  0  0  0
 43 44  1  0  0  0
 44114  1  0  0  0
 45 46  2  0  0  0
 45115  1  0  0  0
 46116  1  0  0  0
 47117  1  0  0  0
 47118  1  0  0  0
 48 56  1  0  0  0
 48 65  1  0  0  0
 48119  1  0  0  0
 49 50  1  0  0  0
 49 53  1  0  0  0
 49 64  1  0  0  0
 49120  1  0  0  0
 50 51  1  0  0  0
 50121  1  0  0  0
 50122  1  0  0  0
 51 52  1  0  0  0
 51123  1  0  0  0
 51124  1  0  0  0
 52125  1  0  0  0
 52126  1  0  0  0
 53 54  1  0  0  0
 54 55  2  0  0  0
 54127  1  0  0  0
 55 57  1  0  0  0
 55128  1  0  0  0
 56 69  2  0  0  0
 57 58  2  0  0  0
 57129  1  0  0  0
 58130  1  0  0  0
 59 60  1  0  0  0
 59 61  1  0  0  0
 59 62  1  0  0  0
 60131  1  0  0  0
 60132  1  0  0  0
 60133  1  0  0  0
 61134  1  0  0  0
 61135  1  0  0  0
 61136  1  0  0  0
 62137  1  0  0  0
 62138  1  0  0  0
 62139  1  0  0  0
 63 65  1  0  0  0
 63140  1  0  0  0
 63141  1  0  0  0
 63142  1  0  0  0
 64143  1  0  0  0
 65144  1  0  0  0
 68 82  1  0  0  0
 71 72  2  0  0  0
 71 75  1  0  0  0
 71145  1  0  0  0
 72 76  1  0  0  0
 72146  1  0  0  0
 73 74  1  0  0  0
 73 75  2  0  0  0
 73147  1  0  0  0
 74 76  2  0  0  0
 74 81  1  0  0  0
 75 83  1  0  0  0
 76 84  1  0  0  0
 77 80  1  0  0  0
 77 83  1  0  0  0
 77 85  2  0  0  0
 78 79  1  0  0  0
 78 80  1  0  0  0
 78148  1  0  0  0
 78149  1  0  0  0
 79 83  1  0  0  0
 79150  1  0  0  0
 79151  1  0  0  0
 80 82  1  0  0  0
 80152  1  0  0  0
 81153  1  0  0  0
 81154  1  0  0  0
 81155  1  0  0  0
 82156  1  0  0  0
 82157  1  0  0  0
 84158  1  0  0  0
M  ISO  4   1 100  68 101  82 101  84 100
M  END
> <chiral flag>
0

> <version>
0

> <s_m_source_file>
/data/baiqing/PycharmProjects/Reinvent-master-3.2/result/LINK_invent/BTK/process_docking_weight1_custom_product_contain_oxygen_bond_distance_aromatic_linkinvent_7_9_3/rearranged_h_0021.sdf

> <i_m_source_file_index>
40

> <r_mmod_Potential_Energy-OPLS-2005>
124.555702209473

> <r_mmod_Stretch_Energy-OPLS-2005>
85.7785491943359

> <r_mmod_Bend_Energy-OPLS-2005>
171.037719726562

> <r_mmod_Torsional_Energy-OPLS-2005>
254.924530029297

> <r_mmod_Improper_Torsional_Energy-OPLS-2005>
3.53630185127258

> <r_mmod_Van_der_Waal_Energy-OPLS-2005>
147.475845336914

> <r_mmod_Electrostatic_Energy-OPLS-2005>
-371.612640380859

> <r_mmod_Solvation_Energy-OPLS-2005>
-215.024856567383

> <b_mmod_Minimization_Converged-OPLS-2005>
0

> <r_mmod_RMS_Derivative-OPLS-2005>
2.68233036994934

$$$$
40
                    3D
 Structure written by MMmdl.
162171  0  0  1  0            999 V2000
  -30.6640  -14.7125   20.4996 C   0  0  0  0  0  0
  -30.4207  -12.4452   19.4781 C   0  0  0  0  0  0
  -29.5113  -12.5179   18.2353 C   0  0  0  0  0  0
  -28.0327  -12.3541   18.6371 C   0  0  0  0  0  0
  -27.6420  -13.2394   19.8532 C   0  0  2  0  0  0
  -28.6856  -13.1745   20.9907 C   0  0  0  0  0  0
  -25.2509  -13.8221   20.5710 C   0  0  0  0  0  0
  -24.1793  -13.0440   20.9179 C   0  0  0  0  0  0
  -24.6404  -11.6927   20.8712 C   0  0  0  0  0  0
  -23.9088  -10.4292   21.0392 C   0  0  0  0  0  0
  -24.3636   -9.4211   21.9179 C   0  0  0  0  0  0
  -23.6307   -8.2248   22.0757 C   0  0  0  0  0  0
  -22.4284   -8.0280   21.3562 C   0  0  0  0  0  0
  -21.9927   -9.0249   20.4659 C   0  0  0  0  0  0
  -22.7253  -10.2130   20.3055 C   0  0  0  0  0  0
  -21.6864   -6.0704   22.5252 C   0  0  0  0  0  0
  -21.4019   -6.5609   23.8178 C   0  0  0  0  0  0
  -21.3673   -5.6773   24.9149 C   0  0  0  0  0  0
  -21.6057   -4.3032   24.7208 C   0  0  0  0  0  0
  -21.8831   -3.8119   23.4329 C   0  0  0  0  0  0
  -21.9202   -4.6931   22.3381 C   0  0  0  0  0  0
  -22.7821  -13.5227   21.1837 C   0  0  0  0  0  0
  -22.1671   -4.2107   21.0964 F   0  0  0  0  0  0
  -21.5645   -3.4525   25.7729 F   0  0  0  0  0  0
  -29.9904  -13.5130   20.4125 N   0  0  0  0  0  0
  -26.2948  -12.9437   20.3298 N   0  0  0  0  0  0
  -25.9353  -11.6569   20.5749 N   0  0  0  0  0  0
  -22.0481  -12.8202   22.0409 N   0  0  0  0  0  0
  -25.4183  -15.1941   20.4128 N   0  0  0  0  0  0
  -31.8275  -14.7775   20.0930 O   0  0  0  0  0  0
  -21.6667   -6.8863   21.4228 O   0  0  0  0  0  0
  -22.3485  -14.5516   20.6660 O   0  0  0  0  0  0
  -24.6267  -31.8573   23.2008 C   0  0  0  0  0  0
  -25.9110  -32.4766   23.8339 C   0  0  1  0  0  0
  -27.2273  -27.3003   20.1264 C   0  0  0  0  0  0
  -25.5907  -33.8567   24.2266 N   0  0  0  0  0  0
  -23.4221  -30.4795   21.5410 C   0  0  2  0  0  0
  -24.8720  -28.9311   20.1030 C   0  0  0  0  0  0
  -22.7473  -29.4610   22.4905 C   0  0  0  0  0  0
  -18.0291  -28.1394   22.8498 C   0  0  0  0  0  0
  -24.1488  -36.7295   23.2642 C   0  0  0  0  0  0
  -25.9623  -30.7839   21.3728 C   0  0  0  0  0  0
  -26.0362  -29.4083   20.7172 C   0  0  0  0  0  0
  -27.2104  -28.5984   20.7300 C   0  0  0  0  0  0
  -26.0428  -26.8735   19.4889 C   0  0  0  0  0  0
  -24.8775  -27.6689   19.4826 C   0  0  0  0  0  0
  -23.6397  -29.8137   20.1548 C   0  0  0  0  0  0
  -25.4110  -36.3080   24.0331 C   0  0  1  0  0  0
  -20.5892  -28.3696   23.1287 C   0  0  2  0  0  0
  -20.6787  -26.9418   22.5421 C   0  0  0  0  0  0
  -19.5761  -26.6393   21.5231 C   0  0  0  0  0  0
  -18.1935  -26.7939   22.1632 C   0  0  0  0  0  0
  -19.1545  -28.8859   23.2892 C   0  0  0  0  0  0
  -18.9464  -30.1459   23.8912 C   0  0  0  0  0  0
  -17.6465  -30.6594   24.0565 C   0  0  0  0  0  0
  -25.9047  -34.9448   23.5106 C   0  0  0  0  0  0
  -16.5354  -29.9096   23.6327 C   0  0  0  0  0  0
  -16.7278  -28.6511   23.0355 C   0  0  0  0  0  0
  -26.4497  -31.6582   25.0710 C   0  0  0  0  0  0
  -25.3724  -31.3725   26.1427 C   0  0  0  0  0  0
  -27.0345  -30.3006   24.6166 C   0  0  0  0  0  0
  -27.6048  -32.4322   25.7484 C   0  0  0  0  0  0
  -27.5579  -37.1798   24.8464 C   0  0  0  0  0  0
  -21.4185  -29.3038   22.3656 N   0  0  0  0  0  0
  -26.4284  -37.3776   23.9416 N   0  0  0  0  0  0
  -24.6895  -31.0560   22.0965 N   0  0  0  0  0  0
  -23.4194  -28.8171   23.3010 O   0  0  0  0  0  0
  -28.3254  -26.4325   20.2616 O   0  0  0  0  0  0
  -26.5627  -34.8918   22.4682 O   0  0  0  0  0  0
  -23.5421  -32.1376   23.7321 O   0  0  0  0  0  0
  -28.7551  -19.3891   21.0732 C   0  0  0  0  0  0
  -28.8615  -20.8021   20.8244 C   0  0  0  0  0  0
  -29.4024  -18.3992   20.2772 C   0  0  0  0  0  0
  -29.6113  -21.3759   19.7531 C   0  0  0  0  0  0
  -30.1625  -18.9350   19.2113 C   0  0  0  0  0  0
  -30.2562  -20.3468   18.9335 C   0  0  0  0  0  0
  -29.9752  -23.5894   17.3783 C   0  0  0  0  0  0
  -28.4919  -23.4270   17.7617 C   0  0  0  0  0  0
  -30.7248  -23.3427   18.7134 C   0  0  0  0  0  0
  -28.5298  -23.7573   19.2624 C   0  0  2  0  0  0
  -30.8162  -16.4673   22.1662 C   0  0  0  0  0  0
  -29.1291  -16.8254   20.4148 C   0  0  0  0  0  0
  -28.6762  -25.4134   19.2557 C   0  0  0  0  0  0
  -29.7008  -22.8547   19.6358 N   0  0  0  0  0  0
  -30.0763  -15.8354   21.0725 N   0  0  0  0  0  0
  -30.9635  -17.7964   18.1737 Cl  0  0  0  0  0  0
  -31.1601  -20.6645   17.4822 Cl  0  0  0  0  0  0
  -31.4675  -12.5393   19.1863 H   0  0  0  0  0  0
  -30.3380  -11.4688   19.9578 H   0  0  0  0  0  0
  -29.7924  -11.7526   17.5112 H   0  0  0  0  0  0
  -29.6523  -13.4770   17.7352 H   0  0  0  0  0  0
  -27.8718  -11.3017   18.8733 H   0  0  0  0  0  0
  -27.3831  -12.5736   17.7877 H   0  0  0  0  0  0
  -27.6329  -14.2645   19.4852 H   0  0  0  0  0  0
  -28.7111  -12.1818   21.4411 H   0  0  0  0  0  0
  -28.4257  -13.8634   21.7947 H   0  0  0  0  0  0
  -25.2786   -9.5666   22.4749 H   0  0  0  0  0  0
  -24.0004   -7.4640   22.7479 H   0  0  0  0  0  0
  -21.0853   -8.8763   19.8973 H   0  0  0  0  0  0
  -22.3711  -10.9659   19.6151 H   0  0  0  0  0  0
  -21.2008   -7.6118   23.9656 H   0  0  0  0  0  0
  -21.1506   -6.0513   25.9048 H   0  0  0  0  0  0
  -22.0611   -2.7580   23.2839 H   0  0  0  0  0  0
  -22.4134  -11.9884   22.4787 H   0  0  0  0  0  0
  -21.1089  -13.1203   22.2621 H   0  0  0  0  0  0
  -24.6519  -15.8485   20.5294 H   0  0  0  0  0  0
  -26.2652  -15.6368   20.0815 H   0  0  0  0  0  0
  -26.7179  -32.5439   23.1085 H   0  0  0  0  0  0
  -25.0020  -33.9716   25.0387 H   0  0  0  0  0  0
  -22.7173  -31.3005   21.3969 H   0  0  0  0  0  0
  -23.3752  -35.9622   23.3286 H   0  0  0  0  0  0
  -24.3585  -36.8938   22.2061 H   0  0  0  0  0  0
  -23.7236  -37.6487   23.6677 H   0  0  0  0  0  0
  -26.0890  -31.5439   20.6004 H   0  0  0  0  0  0
  -26.8453  -30.8375   21.9990 H   0  0  0  0  0  0
  -28.0962  -28.9518   21.2395 H   0  0  0  0  0  0
  -25.9899  -25.8892   19.0453 H   0  0  0  0  0  0
  -23.9793  -27.2902   19.0141 H   0  0  0  0  0  0
  -23.7639  -30.5937   19.4021 H   0  0  0  0  0  0
  -22.7584  -29.2468   19.8486 H   0  0  0  0  0  0
  -25.1294  -36.1925   25.0820 H   0  0  0  0  0  0
  -20.9993  -28.3288   24.1405 H   0  0  0  0  0  0
  -20.5724  -26.2306   23.3622 H   0  0  0  0  0  0
  -21.6652  -26.7474   22.1193 H   0  0  0  0  0  0
  -19.6926  -25.6311   21.1252 H   0  0  0  0  0  0
  -19.6697  -27.3219   20.6775 H   0  0  0  0  0  0
  -17.4214  -26.6714   21.4018 H   0  0  0  0  0  0
  -18.0305  -26.0070   22.9017 H   0  0  0  0  0  0
  -19.7934  -30.7276   24.2292 H   0  0  0  0  0  0
  -17.5013  -31.6277   24.5163 H   0  0  0  0  0  0
  -15.5354  -30.3006   23.7628 H   0  0  0  0  0  0
  -15.8680  -28.0830   22.7063 H   0  0  0  0  0  0
  -24.5907  -30.7064   25.7765 H   0  0  0  0  0  0
  -24.8900  -32.2888   26.4831 H   0  0  0  0  0  0
  -25.8036  -30.8923   27.0218 H   0  0  0  0  0  0
  -26.2927  -29.6738   24.1198 H   0  0  0  0  0  0
  -27.4061  -29.7271   25.4672 H   0  0  0  0  0  0
  -27.8784  -30.4302   23.9385 H   0  0  0  0  0  0
  -27.2659  -33.3633   26.2034 H   0  0  0  0  0  0
  -28.3866  -32.6859   25.0318 H   0  0  0  0  0  0
  -28.0694  -31.8456   26.5416 H   0  0  0  0  0  0
  -28.2585  -38.0108   24.7513 H   0  0  0  0  0  0
  -28.1082  -36.2632   24.6277 H   0  0  0  0  0  0
  -27.2294  -37.1435   25.8867 H   0  0  0  0  0  0
  -20.9361  -29.8713   21.6824 H   0  0  0  0  0  0
  -26.0161  -38.2847   24.1423 H   0  0  0  0  0  0
  -28.1279  -19.0651   21.8914 H   0  0  0  0  0  0
  -28.3413  -21.4683   21.4983 H   0  0  0  0  0  0
  -30.1892  -24.5954   17.0135 H   0  0  0  0  0  0
  -30.2417  -22.9104   16.5719 H   0  0  0  0  0  0
  -28.1677  -22.3960   17.6051 H   0  0  0  0  0  0
  -27.8231  -24.0486   17.1645 H   0  0  0  0  0  0
  -31.1416  -24.2703   19.1050 H   0  0  0  0  0  0
  -31.6155  -22.7259   18.6436 H   0  0  0  0  0  0
  -27.5988  -23.4422   19.7367 H   0  0  0  0  0  0
  -31.6314  -17.0835   21.7816 H   0  0  0  0  0  0
  -31.2439  -15.7155   22.8311 H   0  0  0  0  0  0
  -30.1629  -17.1008   22.7673 H   0  0  0  0  0  0
  -28.8925  -16.4494   19.4184 H   0  0  0  0  0  0
  -28.1933  -16.7232   20.9639 H   0  0  0  0  0  0
  -28.1784  -25.7779   18.3583 H   0  0  0  0  0  0
  -29.7036  -25.6945   19.0454 H   0  0  0  0  0  0
  1 25  1  0  0  0
  1 30  2  0  0  0
  1 85  1  0  0  0
  2  3  1  0  0  0
  2 25  1  0  0  0
  2 88  1  0  0  0
  2 89  1  0  0  0
  3  4  1  0  0  0
  3 90  1  0  0  0
  3 91  1  0  0  0
  4  5  1  0  0  0
  4 92  1  0  0  0
  4 93  1  0  0  0
  5  6  1  0  0  0
  5 26  1  0  0  0
  5 94  1  0  0  0
  6 25  1  0  0  0
  6 95  1  0  0  0
  6 96  1  0  0  0
  7  8  2  0  0  0
  7 26  1  0  0  0
  7 29  1  0  0  0
  8  9  1  0  0  0
  8 22  1  0  0  0
  9 10  1  0  0  0
  9 27  2  0  0  0
 10 11  2  0  0  0
 10 15  1  0  0  0
 11 12  1  0  0  0
 11 97  1  0  0  0
 12 13  2  0  0  0
 12 98  1  0  0  0
 13 14  1  0  0  0
 13 31  1  0  0  0
 14 15  2  0  0  0
 14 99  1  0  0  0
 15100  1  0  0  0
 16 17  2  0  0  0
 16 21  1  0  0  0
 16 31  1  0  0  0
 17 18  1  0  0  0
 17101  1  0  0  0
 18 19  2  0  0  0
 18102  1  0  0  0
 19 20  1  0  0  0
 19 24  1  0  0  0
 20 21  2  0  0  0
 20103  1  0  0  0
 21 23  1  0  0  0
 22 28  1  0  0  0
 22 32  2  0  0  0
 26 27  1  0  0  0
 28104  1  0  0  0
 28105  1  0  0  0
 29106  1  0  0  0
 29107  1  0  0  0
 33 34  1  0  0  0
 33 66  1  0  0  0
 33 70  2  0  0  0
 34 36  1  0  0  0
 34 59  1  0  0  0
 34108  1  0  0  0
 35 44  2  0  0  0
 35 45  1  0  0  0
 35 68  1  0  0  0
 36 56  1  0  0  0
 36109  1  0  0  0
 37 39  1  0  0  0
 37 47  1  0  0  0
 37 66  1  0  0  0
 37110  1  0  0  0
 38 43  2  0  0  0
 38 46  1  0  0  0
 38 47  1  0  0  0
 39 64  1  0  0  0
 39 67  2  0  0  0
 40 52  1  0  0  0
 40 53  2  0  0  0
 40 58  1  0  0  0
 41111  1  0  0  0
 41112  1  0  0  0
 41113  1  0  0  0
 41 48  1  0  0  0
 42 43  1  0  0  0
 42 66  1  0  0  0
 42114  1  0  0  0
 42115  1  0  0  0
 43 44  1  0  0  0
 44116  1  0  0  0
 45 46  2  0  0  0
 45117  1  0  0  0
 46118  1  0  0  0
 47119  1  0  0  0
 47120  1  0  0  0
 48 56  1  0  0  0
 48 65  1  0  0  0
 48121  1  0  0  0
 49 50  1  0  0  0
 49 53  1  0  0  0
 49 64  1  0  0  0
 49122  1  0  0  0
 50 51  1  0  0  0
 50123  1  0  0  0
 50124  1  0  0  0
 51 52  1  0  0  0
 51125  1  0  0  0
 51126  1  0  0  0
 52127  1  0  0  0
 52128  1  0  0  0
 53 54  1  0  0  0
 54 55  2  0  0  0
 54129  1  0  0  0
 55 57  1  0  0  0
 55130  1  0  0  0
 56 69  2  0  0  0
 57 58  2  0  0  0
 57131  1  0  0  0
 58132  1  0  0  0
 59 60  1  0  0  0
 59 61  1  0  0  0
 59 62  1  0  0  0
 60133  1  0  0  0
 60134  1  0  0  0
 60135  1  0  0  0
 61136  1  0  0  0
 61137  1  0  0  0
 61138  1  0  0  0
 62139  1  0  0  0
 62140  1  0  0  0
 62141  1  0  0  0
 63 65  1  0  0  0
 63142  1  0  0  0
 63143  1  0  0  0
 63144  1  0  0  0
 64145  1  0  0  0
 65146  1  0  0  0
 68 83  1  0  0  0
 71 72  2  0  0  0
 71 73  1  0  0  0
 71147  1  0  0  0
 72 74  1  0  0  0
 72148  1  0  0  0
 73 75  2  0  0  0
 73 82  1  0  0  0
 74 76  2  0  0  0
 74 84  1  0  0  0
 75 76  1  0  0  0
 75 86  1  0  0  0
 76 87  1  0  0  0
 77 78  1  0  0  0
 77 79  1  0  0  0
 77149  1  0  0  0
 77150  1  0  0  0
 78 80  1  0  0  0
 78151  1  0  0  0
 78152  1  0  0  0
 79 84  1  0  0  0
 79153  1  0  0  0
 79154  1  0  0  0
 80 83  1  0  0  0
 80 84  1  0  0  0
 80155  1  0  0  0
 81 85  1  0  0  0
 81156  1  0  0  0
 81157  1  0  0  0
 81158  1  0  0  0
 82 85  1  0  0  0
 82159  1  0  0  0
 82160  1  0  0  0
 83161  1  0  0  0
 83162  1  0  0  0
M  ISO  4   1 100  68 101  83 101  85 100
M  END
> <chiral flag>
0

> <version>
0

> <s_m_source_file>
/data/baiqing/PycharmProjects/Reinvent-master-3.2/result/LINK_invent/BTK/process_docking_weight1_custom_product_contain_oxygen_bond_distance_aromatic_linkinvent_7_9_3/rearranged_h_0021.sdf

> <i_m_source_file_index>
41

> <r_mmod_Potential_Energy-OPLS-2005>
587.272216796875

> <r_mmod_Stretch_Energy-OPLS-2005>
137.021789550781

> <r_mmod_Bend_Energy-OPLS-2005>
296.642028808594

> <r_mmod_Torsional_Energy-OPLS-2005>
350.413848876953

> <r_mmod_Improper_Torsional_Energy-OPLS-2005>
10.7359838485718

> <r_mmod_Van_der_Waal_Energy-OPLS-2005>
173.836791992188

> <r_mmod_Electrostatic_Energy-OPLS-2005>
-231.947891235352

> <r_mmod_Solvation_Energy-OPLS-2005>
-220.759414672852

> <b_mmod_Minimization_Converged-OPLS-2005>
0

> <r_mmod_RMS_Derivative-OPLS-2005>
2.61817455291748

$$$$
41
                    3D
 Structure written by MMmdl.
155163  0  0  1  0            999 V2000
  -30.6205  -14.7624   20.5428 C   0  0  0  0  0  0
  -30.4468  -12.4973   19.4572 C   0  0  0  0  0  0
  -29.5118  -12.5441   18.2255 C   0  0  0  0  0  0
  -28.0326  -12.3659   18.6300 C   0  0  0  0  0  0
  -27.6483  -13.2244   19.8633 C   0  0  2  0  0  0
  -28.6993  -13.0467   20.9760 C   0  0  0  0  0  0
  -25.2514  -13.8162   20.5666 C   0  0  0  0  0  0
  -24.1801  -13.0419   20.9187 C   0  0  0  0  0  0
  -24.6394  -11.6902   20.8741 C   0  0  0  0  0  0
  -23.9068  -10.4282   21.0405 C   0  0  0  0  0  0
  -24.3617   -9.4201   21.9188 C   0  0  0  0  0  0
  -23.6290   -8.2238   22.0757 C   0  0  0  0  0  0
  -22.4273   -8.0280   21.3550 C   0  0  0  0  0  0
  -21.9907   -9.0255   20.4657 C   0  0  0  0  0  0
  -22.7238  -10.2129   20.3060 C   0  0  0  0  0  0
  -21.6850   -6.0735   22.5284 C   0  0  0  0  0  0
  -21.4016   -6.5642   23.8220 C   0  0  0  0  0  0
  -21.3659   -5.6789   24.9177 C   0  0  0  0  0  0
  -21.6035   -4.3049   24.7217 C   0  0  0  0  0  0
  -21.8816   -3.8147   23.4339 C   0  0  0  0  0  0
  -21.9188   -4.6965   22.3400 C   0  0  0  0  0  0
  -22.7820  -13.5214   21.1835 C   0  0  0  0  0  0
  -22.1660   -4.2155   21.0978 F   0  0  0  0  0  0
  -21.5623   -3.4538   25.7729 F   0  0  0  0  0  0
  -29.9844  -13.5261   20.4315 N   0  0  0  0  0  0
  -26.2963  -12.9370   20.3321 N   0  0  0  0  0  0
  -25.9330  -11.6513   20.5760 N   0  0  0  0  0  0
  -22.0449  -12.8244   22.0409 N   0  0  0  0  0  0
  -25.4123  -15.1891   20.4048 N   0  0  0  0  0  0
  -31.7769  -14.8315   20.1106 O   0  0  0  0  0  0
  -21.6635   -6.8884   21.4249 O   0  0  0  0  0  0
  -22.3508  -14.5511   20.6665 O   0  0  0  0  0  0
  -24.6296  -31.8563   23.1959 C   0  0  0  0  0  0
  -25.9122  -32.4760   23.8310 C   0  0  1  0  0  0
  -27.2320  -27.2828   20.1334 C   0  0  0  0  0  0
  -25.5921  -33.8559   24.2254 N   0  0  0  0  0  0
  -23.4259  -30.4766   21.5391 C   0  0  2  0  0  0
  -24.8746  -28.9137   20.1183 C   0  0  0  0  0  0
  -22.7486  -29.4626   22.4916 C   0  0  0  0  0  0
  -18.0295  -28.1395   22.8484 C   0  0  0  0  0  0
  -24.1490  -36.7290   23.2641 C   0  0  0  0  0  0
  -25.9686  -30.7752   21.3707 C   0  0  0  0  0  0
  -26.0448  -29.3954   20.7205 C   0  0  0  0  0  0
  -27.2291  -28.5946   20.7109 C   0  0  0  0  0  0
  -26.0396  -26.8509   19.5188 C   0  0  0  0  0  0
  -24.8752  -27.6475   19.5080 C   0  0  0  0  0  0
  -23.6437  -29.8000   20.1592 C   0  0  0  0  0  0
  -25.4116  -36.3077   24.0329 C   0  0  1  0  0  0
  -20.5895  -28.3713   23.1270 C   0  0  2  0  0  0
  -20.6790  -26.9434   22.5408 C   0  0  0  0  0  0
  -19.5765  -26.6393   21.5216 C   0  0  0  0  0  0
  -18.1941  -26.7936   22.1625 C   0  0  0  0  0  0
  -19.1544  -28.8869   23.2873 C   0  0  0  0  0  0
  -18.9469  -30.1465   23.8898 C   0  0  0  0  0  0
  -17.6469  -30.6594   24.0570 C   0  0  0  0  0  0
  -25.9054  -34.9444   23.5098 C   0  0  0  0  0  0
  -16.5361  -29.9095   23.6329 C   0  0  0  0  0  0
  -16.7279  -28.6514   23.0348 C   0  0  0  0  0  0
  -26.4489  -31.6567   25.0689 C   0  0  0  0  0  0
  -25.3708  -31.3724   26.1408 C   0  0  0  0  0  0
  -27.0333  -30.2984   24.6160 C   0  0  0  0  0  0
  -27.6049  -32.4296   25.7462 C   0  0  0  0  0  0
  -27.5585  -37.1800   24.8466 C   0  0  0  0  0  0
  -21.4199  -29.3058   22.3649 N   0  0  0  0  0  0
  -26.4297  -37.3773   23.9407 N   0  0  0  0  0  0
  -24.6936  -31.0541   22.0923 N   0  0  0  0  0  0
  -23.4180  -28.8187   23.3036 O   0  0  0  0  0  0
  -28.3514  -26.4288   20.1094 O   0  0  0  0  0  0
  -26.5637  -34.8924   22.4675 O   0  0  0  0  0  0
  -23.5449  -32.1381   23.7264 O   0  0  0  0  0  0
  -32.1338  -19.0778   20.7190 C   0  0  0  0  0  0
  -31.2161  -20.1306   20.5229 C   0  0  0  0  0  0
  -31.7170  -17.7310   20.7900 C   0  0  0  0  0  0
  -29.8380  -19.8763   20.3693 C   0  0  0  0  0  0
  -30.3561  -17.3626   20.6546 C   0  0  0  0  0  0
  -29.4323  -18.4748   20.4285 C   0  0  0  0  0  0
  -28.9141  -15.8985   21.9697 C   0  0  0  0  0  0
  -28.6551  -23.6995   19.9160 C   0  0  0  0  0  0
  -29.0150  -22.3629   20.7649 C   0  0  0  0  0  0
  -28.2589  -25.0586   20.7062 C   0  0  0  0  0  0
  -28.9390  -20.9891   20.1190 N   0  0  0  0  0  0
  -29.9399  -15.9452   20.9212 N   0  0  0  0  0  0
  -28.1117  -18.2006   20.2841 F   0  0  0  0  0  0
  -31.4777  -12.6533   19.1364 H   0  0  0  0  0  0
  -30.4411  -11.5040   19.9084 H   0  0  0  0  0  0
  -29.7989  -11.7760   17.5059 H   0  0  0  0  0  0
  -29.6350  -13.4998   17.7126 H   0  0  0  0  0  0
  -27.8736  -11.3110   18.8543 H   0  0  0  0  0  0
  -27.3799  -12.5974   17.7870 H   0  0  0  0  0  0
  -27.6664  -14.2664   19.5427 H   0  0  0  0  0  0
  -28.7700  -11.9899   21.2360 H   0  0  0  0  0  0
  -28.3924  -13.4952   21.9111 H   0  0  0  0  0  0
  -25.2755   -9.5677   22.4771 H   0  0  0  0  0  0
  -23.9991   -7.4628   22.7479 H   0  0  0  0  0  0
  -21.0832   -8.8781   19.8972 H   0  0  0  0  0  0
  -22.3696  -10.9673   19.6173 H   0  0  0  0  0  0
  -21.2028   -7.6151   23.9729 H   0  0  0  0  0  0
  -21.1480   -6.0517   25.9082 H   0  0  0  0  0  0
  -22.0596   -2.7610   23.2835 H   0  0  0  0  0  0
  -22.4049  -11.9940   22.4872 H   0  0  0  0  0  0
  -21.1071  -13.1307   22.2579 H   0  0  0  0  0  0
  -24.6373  -15.8328   20.5164 H   0  0  0  0  0  0
  -26.2623  -15.6452   20.0995 H   0  0  0  0  0  0
  -26.7193  -32.5421   23.1056 H   0  0  0  0  0  0
  -25.0045  -33.9683   25.0385 H   0  0  0  0  0  0
  -22.7235  -31.2987   21.3887 H   0  0  0  0  0  0
  -23.3752  -35.9621   23.3300 H   0  0  0  0  0  0
  -24.3587  -36.8913   22.2058 H   0  0  0  0  0  0
  -23.7239  -37.6490   23.6663 H   0  0  0  0  0  0
  -26.1023  -31.5321   20.5962 H   0  0  0  0  0  0
  -26.8484  -30.8300   21.9999 H   0  0  0  0  0  0
  -28.1315  -28.9660   21.1770 H   0  0  0  0  0  0
  -26.0083  -25.8786   19.0470 H   0  0  0  0  0  0
  -23.9790  -27.2703   19.0343 H   0  0  0  0  0  0
  -23.7653  -30.5708   19.3974 H   0  0  0  0  0  0
  -22.7625  -29.2293   19.8599 H   0  0  0  0  0  0
  -25.1298  -36.1933   25.0823 H   0  0  0  0  0  0
  -20.9996  -28.3306   24.1387 H   0  0  0  0  0  0
  -20.5713  -26.2330   23.3614 H   0  0  0  0  0  0
  -21.6658  -26.7475   22.1195 H   0  0  0  0  0  0
  -19.6937  -25.6302   21.1252 H   0  0  0  0  0  0
  -19.6703  -27.3200   20.6741 H   0  0  0  0  0  0
  -17.4219  -26.6682   21.4023 H   0  0  0  0  0  0
  -18.0346  -26.0076   22.9021 H   0  0  0  0  0  0
  -19.7944  -30.7280   24.2268 H   0  0  0  0  0  0
  -17.5026  -31.6271   24.5175 H   0  0  0  0  0  0
  -15.5362  -30.3004   23.7646 H   0  0  0  0  0  0
  -15.8679  -28.0835   22.7059 H   0  0  0  0  0  0
  -24.5867  -30.7101   25.7726 H   0  0  0  0  0  0
  -24.8915  -32.2900   26.4829 H   0  0  0  0  0  0
  -25.8003  -30.8887   27.0188 H   0  0  0  0  0  0
  -26.2913  -29.6729   24.1189 H   0  0  0  0  0  0
  -27.4035  -29.7250   25.4668 H   0  0  0  0  0  0
  -27.8777  -30.4270   23.9385 H   0  0  0  0  0  0
  -27.2664  -33.3600   26.2035 H   0  0  0  0  0  0
  -28.3855  -32.6852   25.0283 H   0  0  0  0  0  0
  -28.0719  -31.8421   26.5377 H   0  0  0  0  0  0
  -28.2602  -38.0099   24.7513 H   0  0  0  0  0  0
  -28.1084  -36.2630   24.6290 H   0  0  0  0  0  0
  -27.2306  -37.1445   25.8871 H   0  0  0  0  0  0
  -20.9385  -29.8739   21.6815 H   0  0  0  0  0  0
  -26.0182  -38.2854   24.1388 H   0  0  0  0  0  0
  -33.1834  -19.3110   20.8349 H   0  0  0  0  0  0
  -31.5943  -21.1416   20.4713 H   0  0  0  0  0  0
  -32.4729  -16.9899   21.0039 H   0  0  0  0  0  0
  -27.9425  -15.6190   21.5668 H   0  0  0  0  0  0
  -28.7744  -16.8633   22.4596 H   0  0  0  0  0  0
  -29.2056  -15.2272   22.7783 H   0  0  0  0  0  0
  -27.8365  -23.4753   19.2334 H   0  0  0  0  0  0
  -29.5099  -23.9182   19.2748 H   0  0  0  0  0  0
  -28.3224  -22.3269   21.6075 H   0  0  0  0  0  0
  -29.9950  -22.4999   21.2228 H   0  0  0  0  0  0
  -28.9114  -25.1061   21.5783 H   0  0  0  0  0  0
  -27.2617  -24.9209   21.1274 H   0  0  0  0  0  0
  -27.9878  -20.6700   19.9449 H   0  0  0  0  0  0
  1 25  1  0  0  0
  1 30  2  0  0  0
  1 82  1  0  0  0
  2  3  1  0  0  0
  2 25  1  0  0  0
  2 84  1  0  0  0
  2 85  1  0  0  0
  3  4  1  0  0  0
  3 86  1  0  0  0
  3 87  1  0  0  0
  4  5  1  0  0  0
  4 88  1  0  0  0
  4 89  1  0  0  0
  5  6  1  0  0  0
  5 26  1  0  0  0
  5 90  1  0  0  0
  6 25  1  0  0  0
  6 91  1  0  0  0
  6 92  1  0  0  0
  7  8  2  0  0  0
  7 26  1  0  0  0
  7 29  1  0  0  0
  8  9  1  0  0  0
  8 22  1  0  0  0
  9 10  1  0  0  0
  9 27  2  0  0  0
 10 11  2  0  0  0
 10 15  1  0  0  0
 11 12  1  0  0  0
 11 93  1  0  0  0
 12 13  2  0  0  0
 12 94  1  0  0  0
 13 14  1  0  0  0
 13 31  1  0  0  0
 14 15  2  0  0  0
 14 95  1  0  0  0
 15 96  1  0  0  0
 16 17  2  0  0  0
 16 21  1  0  0  0
 16 31  1  0  0  0
 17 18  1  0  0  0
 17 97  1  0  0  0
 18 19  2  0  0  0
 18 98  1  0  0  0
 19 20  1  0  0  0
 19 24  1  0  0  0
 20 21  2  0  0  0
 20 99  1  0  0  0
 21 23  1  0  0  0
 22 28  1  0  0  0
 22 32  2  0  0  0
 26 27  1  0  0  0
 28100  1  0  0  0
 28101  1  0  0  0
 29102  1  0  0  0
 29103  1  0  0  0
 33 34  1  0  0  0
 33 66  1  0  0  0
 33 70  2  0  0  0
 34 36  1  0  0  0
 34 59  1  0  0  0
 34104  1  0  0  0
 35 44  2  0  0  0
 35 45  1  0  0  0
 35 68  1  0  0  0
 36 56  1  0  0  0
 36105  1  0  0  0
 37 39  1  0  0  0
 37 47  1  0  0  0
 37 66  1  0  0  0
 37106  1  0  0  0
 38 43  2  0  0  0
 38 46  1  0  0  0
 38 47  1  0  0  0
 39 64  1  0  0  0
 39 67  2  0  0  0
 40 52  1  0  0  0
 40 53  2  0  0  0
 40 58  1  0  0  0
 41107  1  0  0  0
 41108  1  0  0  0
 41109  1  0  0  0
 41 48  1  0  0  0
 42 43  1  0  0  0
 42 66  1  0  0  0
 42110  1  0  0  0
 42111  1  0  0  0
 43 44  1  0  0  0
 44112  1  0  0  0
 45 46  2  0  0  0
 45113  1  0  0  0
 46114  1  0  0  0
 47115  1  0  0  0
 47116  1  0  0  0
 48 56  1  0  0  0
 48 65  1  0  0  0
 48117  1  0  0  0
 49 50  1  0  0  0
 49 53  1  0  0  0
 49 64  1  0  0  0
 49118  1  0  0  0
 50 51  1  0  0  0
 50119  1  0  0  0
 50120  1  0  0  0
 51 52  1  0  0  0
 51121  1  0  0  0
 51122  1  0  0  0
 52123  1  0  0  0
 52124  1  0  0  0
 53 54  1  0  0  0
 54 55  2  0  0  0
 54125  1  0  0  0
 55 57  1  0  0  0
 55126  1  0  0  0
 56 69  2  0  0  0
 57 58  2  0  0  0
 57127  1  0  0  0
 58128  1  0  0  0
 59 60  1  0  0  0
 59 61  1  0  0  0
 59 62  1  0  0  0
 60129  1  0  0  0
 60130  1  0  0  0
 60131  1  0  0  0
 61132  1  0  0  0
 61133  1  0  0  0
 61134  1  0  0  0
 62135  1  0  0  0
 62136  1  0  0  0
 62137  1  0  0  0
 63 65  1  0  0  0
 63138  1  0  0  0
 63139  1  0  0  0
 63140  1  0  0  0
 64141  1  0  0  0
 65142  1  0  0  0
 68 80  1  0  0  0
 71 72  2  0  0  0
 71 73  1  0  0  0
 71143  1  0  0  0
 72 74  1  0  0  0
 72144  1  0  0  0
 73 75  2  0  0  0
 73145  1  0  0  0
 74 76  2  0  0  0
 74 81  1  0  0  0
 75 76  1  0  0  0
 75 82  1  0  0  0
 76 83  1  0  0  0
 77 82  1  0  0  0
 77146  1  0  0  0
 77147  1  0  0  0
 77148  1  0  0  0
 78 79  1  0  0  0
 78 80  1  0  0  0
 78149  1  0  0  0
 78150  1  0  0  0
 79 81  1  0  0  0
 79151  1  0  0  0
 79152  1  0  0  0
 80153  1  0  0  0
 80154  1  0  0  0
 81155  1  0  0  0
M  ISO  4   1 100  68 101  80 101  82 100
M  END
> <chiral flag>
0

> <version>
0

> <s_m_source_file>
/data/baiqing/PycharmProjects/Reinvent-master-3.2/result/LINK_invent/BTK/process_docking_weight1_custom_product_contain_oxygen_bond_distance_aromatic_linkinvent_7_9_3/rearranged_h_0021.sdf

> <i_m_source_file_index>
42

> <r_mmod_Potential_Energy-OPLS-2005>
410.120819091797

> <r_mmod_Stretch_Energy-OPLS-2005>
135.608612060547

> <r_mmod_Bend_Energy-OPLS-2005>
191.659072875977

> <r_mmod_Torsional_Energy-OPLS-2005>
300.877349853516

> <r_mmod_Improper_Torsional_Energy-OPLS-2005>
8.77779769897461

> <r_mmod_Van_der_Waal_Energy-OPLS-2005>
154.710006713867

> <r_mmod_Electrostatic_Energy-OPLS-2005>
-262.114959716797

> <r_mmod_Solvation_Energy-OPLS-2005>
-191.353042602539

> <b_mmod_Minimization_Converged-OPLS-2005>
0

> <r_mmod_RMS_Derivative-OPLS-2005>
1.42196810245514

$$$$
42
                    3D
 Structure written by MMmdl.
159168  0  0  1  0            999 V2000
  -30.6683  -14.6365   20.4600 C   0  0  0  0  0  0
  -30.4143  -12.3841   19.4661 C   0  0  0  0  0  0
  -29.4984  -12.4889   18.2286 C   0  0  0  0  0  0
  -28.0215  -12.3408   18.6408 C   0  0  0  0  0  0
  -27.6430  -13.2298   19.8560 C   0  0  2  0  0  0
  -28.6880  -13.1337   20.9900 C   0  0  0  0  0  0
  -25.2504  -13.8203   20.5712 C   0  0  0  0  0  0
  -24.1798  -13.0439   20.9218 C   0  0  0  0  0  0
  -24.6382  -11.6913   20.8750 C   0  0  0  0  0  0
  -23.9058  -10.4281   21.0399 C   0  0  0  0  0  0
  -24.3611   -9.4203   21.9182 C   0  0  0  0  0  0
  -23.6294   -8.2235   22.0747 C   0  0  0  0  0  0
  -22.4281   -8.0269   21.3537 C   0  0  0  0  0  0
  -21.9903   -9.0239   20.4642 C   0  0  0  0  0  0
  -22.7226  -10.2120   20.3050 C   0  0  0  0  0  0
  -21.6856   -6.0727   22.5280 C   0  0  0  0  0  0
  -21.4020   -6.5633   23.8211 C   0  0  0  0  0  0
  -21.3659   -5.6789   24.9179 C   0  0  0  0  0  0
  -21.6047   -4.3051   24.7233 C   0  0  0  0  0  0
  -21.8824   -3.8138   23.4356 C   0  0  0  0  0  0
  -21.9196   -4.6951   22.3408 C   0  0  0  0  0  0
  -22.7820  -13.5213   21.1871 C   0  0  0  0  0  0
  -22.1662   -4.2134   21.0989 F   0  0  0  0  0  0
  -21.5621   -3.4539   25.7748 F   0  0  0  0  0  0
  -29.9988  -13.4436   20.4092 N   0  0  0  0  0  0
  -26.2936  -12.9408   20.3318 N   0  0  0  0  0  0
  -25.9317  -11.6544   20.5775 N   0  0  0  0  0  0
  -22.0470  -12.8202   22.0431 N   0  0  0  0  0  0
  -25.4203  -15.1926   20.4129 N   0  0  0  0  0  0
  -31.8566  -14.6974   20.1335 O   0  0  0  0  0  0
  -21.6648   -6.8863   21.4237 O   0  0  0  0  0  0
  -22.3491  -14.5509   20.6710 O   0  0  0  0  0  0
  -24.6247  -31.8623   23.2047 C   0  0  0  0  0  0
  -25.9102  -32.4791   23.8372 C   0  0  1  0  0  0
  -27.2141  -27.3357   20.1143 C   0  0  0  0  0  0
  -25.5919  -33.8591   24.2294 N   0  0  0  0  0  0
  -23.4171  -30.4873   21.5477 C   0  0  2  0  0  0
  -24.8609  -28.9472   20.1100 C   0  0  0  0  0  0
  -22.7473  -29.4637   22.4951 C   0  0  0  0  0  0
  -18.0289  -28.1379   22.8500 C   0  0  0  0  0  0
  -24.1489  -36.7299   23.2637 C   0  0  0  0  0  0
  -25.9571  -30.7976   21.3752 C   0  0  0  0  0  0
  -26.0296  -29.4273   20.7158 C   0  0  0  0  0  0
  -27.2128  -28.6326   20.7083 C   0  0  0  0  0  0
  -26.0293  -26.9109   19.4750 C   0  0  0  0  0  0
  -24.8609  -27.6934   19.4814 C   0  0  0  0  0  0
  -23.6297  -29.8263   20.1612 C   0  0  0  0  0  0
  -25.4111  -36.3092   24.0333 C   0  0  1  0  0  0
  -20.5892  -28.3680   23.1298 C   0  0  2  0  0  0
  -20.6780  -26.9407   22.5412 C   0  0  0  0  0  0
  -19.5743  -26.6385   21.5225 C   0  0  0  0  0  0
  -18.1927  -26.7925   22.1640 C   0  0  0  0  0  0
  -19.1540  -28.8846   23.2898 C   0  0  0  0  0  0
  -18.9462  -30.1454   23.8904 C   0  0  0  0  0  0
  -17.6457  -30.6581   24.0566 C   0  0  0  0  0  0
  -25.9048  -34.9460   23.5117 C   0  0  0  0  0  0
  -16.5352  -29.9077   23.6325 C   0  0  0  0  0  0
  -16.7278  -28.6495   23.0352 C   0  0  0  0  0  0
  -26.4484  -31.6591   25.0735 C   0  0  0  0  0  0
  -25.3718  -31.3726   26.1460 C   0  0  0  0  0  0
  -27.0313  -30.3005   24.6189 C   0  0  0  0  0  0
  -27.6048  -32.4318   25.7502 C   0  0  0  0  0  0
  -27.5584  -37.1804   24.8462 C   0  0  0  0  0  0
  -21.4188  -29.3039   22.3694 N   0  0  0  0  0  0
  -26.4290  -37.3785   23.9415 N   0  0  0  0  0  0
  -24.6850  -31.0654   22.0994 N   0  0  0  0  0  0
  -23.4205  -28.8180   23.3022 O   0  0  0  0  0  0
  -28.3188  -26.4786   20.1379 O   0  0  0  0  0  0
  -26.5623  -34.8925   22.4686 O   0  0  0  0  0  0
  -23.5413  -32.1415   23.7388 O   0  0  0  0  0  0
  -29.1579  -18.9170   21.4483 C   0  0  0  0  0  0
  -28.8272  -20.2863   21.6932 C   0  0  0  0  0  0
  -29.8893  -20.9536   19.6461 C   0  0  0  0  0  0
  -29.8885  -18.5358   20.2974 C   0  0  0  0  0  0
  -29.2007  -21.3504   20.8174 C   0  0  0  0  0  0
  -30.2284  -19.5913   19.4008 C   0  0  0  0  0  0
  -30.6701  -24.1228   22.0933 C   0  0  0  0  0  0
  -30.5217  -24.3690   20.5903 C   0  0  0  0  0  0
  -29.5903  -23.0822   22.4385 C   0  0  0  0  0  0
  -29.0889  -23.9249   20.3006 C   0  0  2  0  0  0
  -30.4521  -17.0966   20.0053 C   0  0  0  0  0  0
  -28.0688  -25.1080   20.6347 C   0  0  0  0  0  0
  -28.9327  -22.7218   21.1783 N   0  0  0  0  0  0
  -29.9494  -15.8002   20.5905 N   0  0  0  0  0  0
  -30.9362  -19.2998   18.2826 F   0  0  0  0  0  0
  -31.4593  -12.4733   19.1652 H   0  0  0  0  0  0
  -30.3210  -11.4025   19.9340 H   0  0  0  0  0  0
  -29.7606  -11.7201   17.5002 H   0  0  0  0  0  0
  -29.6524  -13.4483   17.7312 H   0  0  0  0  0  0
  -27.8541  -11.2903   18.8843 H   0  0  0  0  0  0
  -27.3692  -12.5610   17.7947 H   0  0  0  0  0  0
  -27.6474  -14.2583   19.4954 H   0  0  0  0  0  0
  -28.6950  -12.1332   21.4238 H   0  0  0  0  0  0
  -28.4466  -13.8194   21.8029 H   0  0  0  0  0  0
  -25.2749   -9.5697   22.4762 H   0  0  0  0  0  0
  -24.0011   -7.4631   22.7460 H   0  0  0  0  0  0
  -21.0832   -8.8744   19.8957 H   0  0  0  0  0  0
  -22.3664  -10.9656   19.6163 H   0  0  0  0  0  0
  -21.2025   -7.6142   23.9715 H   0  0  0  0  0  0
  -21.1472   -6.0520   25.9079 H   0  0  0  0  0  0
  -22.0608   -2.7597   23.2868 H   0  0  0  0  0  0
  -22.4087  -11.9876   22.4837 H   0  0  0  0  0  0
  -21.1083  -13.1211   22.2626 H   0  0  0  0  0  0
  -24.6561  -15.8494   20.5342 H   0  0  0  0  0  0
  -26.2684  -15.6318   20.0776 H   0  0  0  0  0  0
  -26.7174  -32.5465   23.1128 H   0  0  0  0  0  0
  -25.0039  -33.9745   25.0420 H   0  0  0  0  0  0
  -22.7093  -31.3074   21.4084 H   0  0  0  0  0  0
  -23.3757  -35.9624   23.3287 H   0  0  0  0  0  0
  -24.3584  -36.8929   22.2054 H   0  0  0  0  0  0
  -23.7234  -37.6496   23.6660 H   0  0  0  0  0  0
  -26.0906  -31.5652   20.6116 H   0  0  0  0  0  0
  -26.8367  -30.8411   22.0055 H   0  0  0  0  0  0
  -28.1104  -28.9956   21.1889 H   0  0  0  0  0  0
  -25.9930  -25.9607   18.9630 H   0  0  0  0  0  0
  -23.9673  -27.3263   18.9948 H   0  0  0  0  0  0
  -23.7474  -30.6049   19.4070 H   0  0  0  0  0  0
  -22.7496  -29.2563   19.8591 H   0  0  0  0  0  0
  -25.1291  -36.1943   25.0825 H   0  0  0  0  0  0
  -20.9991  -28.3248   24.1417 H   0  0  0  0  0  0
  -20.5701  -26.2289   23.3612 H   0  0  0  0  0  0
  -21.6646  -26.7451   22.1190 H   0  0  0  0  0  0
  -19.6904  -25.6300   21.1246 H   0  0  0  0  0  0
  -19.6669  -27.3211   20.6767 H   0  0  0  0  0  0
  -17.4203  -26.6695   21.4036 H   0  0  0  0  0  0
  -18.0309  -26.0060   22.9021 H   0  0  0  0  0  0
  -19.7932  -30.7279   24.2271 H   0  0  0  0  0  0
  -17.5003  -31.6262   24.5162 H   0  0  0  0  0  0
  -15.5349  -30.2978   23.7634 H   0  0  0  0  0  0
  -15.8685  -28.0815   22.7055 H   0  0  0  0  0  0
  -24.5892  -30.7079   25.7786 H   0  0  0  0  0  0
  -24.8910  -32.2889   26.4892 H   0  0  0  0  0  0
  -25.8040  -30.8894   27.0232 H   0  0  0  0  0  0
  -26.2884  -29.6771   24.1198 H   0  0  0  0  0  0
  -27.3978  -29.7246   25.4699 H   0  0  0  0  0  0
  -27.8772  -30.4275   23.9429 H   0  0  0  0  0  0
  -27.2663  -33.3617   26.2083 H   0  0  0  0  0  0
  -28.3853  -32.6883   25.0326 H   0  0  0  0  0  0
  -28.0718  -31.8440   26.5413 H   0  0  0  0  0  0
  -28.2593  -38.0110   24.7529 H   0  0  0  0  0  0
  -28.1091  -36.2648   24.6257 H   0  0  0  0  0  0
  -27.2311  -37.1418   25.8865 H   0  0  0  0  0  0
  -20.9357  -29.8748   21.6901 H   0  0  0  0  0  0
  -26.0174  -38.2861   24.1413 H   0  0  0  0  0  0
  -28.8785  -18.1680   22.1748 H   0  0  0  0  0  0
  -28.2962  -20.5246   22.6049 H   0  0  0  0  0  0
  -30.2149  -21.6950   18.9322 H   0  0  0  0  0  0
  -30.4927  -25.0439   22.6501 H   0  0  0  0  0  0
  -31.6749  -23.7771   22.3422 H   0  0  0  0  0  0
  -31.2236  -23.7407   20.0405 H   0  0  0  0  0  0
  -30.7206  -25.4028   20.3044 H   0  0  0  0  0  0
  -28.8559  -23.5000   23.1292 H   0  0  0  0  0  0
  -30.0511  -22.2341   22.9470 H   0  0  0  0  0  0
  -28.9822  -23.6578   19.2483 H   0  0  0  0  0  0
  -31.5150  -17.1773   20.2387 H   0  0  0  0  0  0
  -30.4122  -16.9606   18.9228 H   0  0  0  0  0  0
  -27.9931  -25.2155   21.7167 H   0  0  0  0  0  0
  -27.0879  -24.7441   20.3352 H   0  0  0  0  0  0
  -28.9691  -15.7300   20.8165 H   0  0  0  0  0  0
  1 25  1  0  0  0
  1 30  2  0  0  0
  1 84  1  0  0  0
  2  3  1  0  0  0
  2 25  1  0  0  0
  2 86  1  0  0  0
  2 87  1  0  0  0
  3  4  1  0  0  0
  3 88  1  0  0  0
  3 89  1  0  0  0
  4  5  1  0  0  0
  4 90  1  0  0  0
  4 91  1  0  0  0
  5  6  1  0  0  0
  5 26  1  0  0  0
  5 92  1  0  0  0
  6 25  1  0  0  0
  6 93  1  0  0  0
  6 94  1  0  0  0
  7  8  2  0  0  0
  7 26  1  0  0  0
  7 29  1  0  0  0
  8  9  1  0  0  0
  8 22  1  0  0  0
  9 10  1  0  0  0
  9 27  2  0  0  0
 10 11  2  0  0  0
 10 15  1  0  0  0
 11 12  1  0  0  0
 11 95  1  0  0  0
 12 13  2  0  0  0
 12 96  1  0  0  0
 13 14  1  0  0  0
 13 31  1  0  0  0
 14 15  2  0  0  0
 14 97  1  0  0  0
 15 98  1  0  0  0
 16 17  2  0  0  0
 16 21  1  0  0  0
 16 31  1  0  0  0
 17 18  1  0  0  0
 17 99  1  0  0  0
 18 19  2  0  0  0
 18100  1  0  0  0
 19 20  1  0  0  0
 19 24  1  0  0  0
 20 21  2  0  0  0
 20101  1  0  0  0
 21 23  1  0  0  0
 22 28  1  0  0  0
 22 32  2  0  0  0
 26 27  1  0  0  0
 28102  1  0  0  0
 28103  1  0  0  0
 29104  1  0  0  0
 29105  1  0  0  0
 33 34  1  0  0  0
 33 66  1  0  0  0
 33 70  2  0  0  0
 34 36  1  0  0  0
 34 59  1  0  0  0
 34106  1  0  0  0
 35 44  2  0  0  0
 35 45  1  0  0  0
 35 68  1  0  0  0
 36 56  1  0  0  0
 36107  1  0  0  0
 37 39  1  0  0  0
 37 47  1  0  0  0
 37 66  1  0  0  0
 37108  1  0  0  0
 38 43  2  0  0  0
 38 46  1  0  0  0
 38 47  1  0  0  0
 39 64  1  0  0  0
 39 67  2  0  0  0
 40 52  1  0  0  0
 40 53  2  0  0  0
 40 58  1  0  0  0
 41109  1  0  0  0
 41110  1  0  0  0
 41111  1  0  0  0
 41 48  1  0  0  0
 42 43  1  0  0  0
 42 66  1  0  0  0
 42112  1  0  0  0
 42113  1  0  0  0
 43 44  1  0  0  0
 44114  1  0  0  0
 45 46  2  0  0  0
 45115  1  0  0  0
 46116  1  0  0  0
 47117  1  0  0  0
 47118  1  0  0  0
 48 56  1  0  0  0
 48 65  1  0  0  0
 48119  1  0  0  0
 49 50  1  0  0  0
 49 53  1  0  0  0
 49 64  1  0  0  0
 49120  1  0  0  0
 50 51  1  0  0  0
 50121  1  0  0  0
 50122  1  0  0  0
 51 52  1  0  0  0
 51123  1  0  0  0
 51124  1  0  0  0
 52125  1  0  0  0
 52126  1  0  0  0
 53 54  1  0  0  0
 54 55  2  0  0  0
 54127  1  0  0  0
 55 57  1  0  0  0
 55128  1  0  0  0
 56 69  2  0  0  0
 57 58  2  0  0  0
 57129  1  0  0  0
 58130  1  0  0  0
 59 60  1  0  0  0
 59 61  1  0  0  0
 59 62  1  0  0  0
 60131  1  0  0  0
 60132  1  0  0  0
 60133  1  0  0  0
 61134  1  0  0  0
 61135  1  0  0  0
 61136  1  0  0  0
 62137  1  0  0  0
 62138  1  0  0  0
 62139  1  0  0  0
 63 65  1  0  0  0
 63140  1  0  0  0
 63141  1  0  0  0
 63142  1  0  0  0
 64143  1  0  0  0
 65144  1  0  0  0
 68 82  1  0  0  0
 71 72  2  0  0  0
 71 74  1  0  0  0
 71145  1  0  0  0
 72 75  1  0  0  0
 72146  1  0  0  0
 73 75  2  0  0  0
 73 76  1  0  0  0
 73147  1  0  0  0
 74 76  2  0  0  0
 74 81  1  0  0  0
 75 83  1  0  0  0
 76 85  1  0  0  0
 77 78  1  0  0  0
 77 79  1  0  0  0
 77148  1  0  0  0
 77149  1  0  0  0
 78 80  1  0  0  0
 78150  1  0  0  0
 78151  1  0  0  0
 79 83  1  0  0  0
 79152  1  0  0  0
 79153  1  0  0  0
 80 82  1  0  0  0
 80 83  1  0  0  0
 80154  1  0  0  0
 81 84  1  0  0  0
 81155  1  0  0  0
 81156  1  0  0  0
 82157  1  0  0  0
 82158  1  0  0  0
 84159  1  0  0  0
M  ISO  4   1 100  68 101  82 101  84 100
M  END
> <chiral flag>
0

> <version>
0

> <s_m_source_file>
/data/baiqing/PycharmProjects/Reinvent-master-3.2/result/LINK_invent/BTK/process_docking_weight1_custom_product_contain_oxygen_bond_distance_aromatic_linkinvent_7_9_3/rearranged_h_0021.sdf

> <i_m_source_file_index>
43

> <r_mmod_Potential_Energy-OPLS-2005>
163.269943237305

> <r_mmod_Stretch_Energy-OPLS-2005>
76.5566024780273

> <r_mmod_Bend_Energy-OPLS-2005>
181.912155151367

> <r_mmod_Torsional_Energy-OPLS-2005>
296.850830078125

> <r_mmod_Improper_Torsional_Energy-OPLS-2005>
13.2063093185425

> <r_mmod_Van_der_Waal_Energy-OPLS-2005>
149.345596313477

> <r_mmod_Electrostatic_Energy-OPLS-2005>
-385.298614501953

> <r_mmod_Solvation_Energy-OPLS-2005>
-218.593826293945

> <b_mmod_Minimization_Converged-OPLS-2005>
0

> <r_mmod_RMS_Derivative-OPLS-2005>
1.46990787982941

$$$$
43
                    3D
 Structure written by MMmdl.
155163  0  0  1  0            999 V2000
  -30.6966  -14.4344   20.6386 C   0  0  0  0  0  0
  -30.4291  -12.3063   19.4071 C   0  0  0  0  0  0
  -29.4936  -12.5281   18.2002 C   0  0  0  0  0  0
  -28.0142  -12.3818   18.6096 C   0  0  0  0  0  0
  -27.6670  -13.2002   19.8810 C   0  0  2  0  0  0
  -28.7030  -12.9325   20.9948 C   0  0  0  0  0  0
  -25.2607  -13.8153   20.5663 C   0  0  0  0  0  0
  -24.1846  -13.0440   20.9149 C   0  0  0  0  0  0
  -24.6390  -11.6904   20.8711 C   0  0  0  0  0  0
  -23.9050  -10.4298   21.0393 C   0  0  0  0  0  0
  -24.3603   -9.4218   21.9176 C   0  0  0  0  0  0
  -23.6279   -8.2255   22.0760 C   0  0  0  0  0  0
  -22.4267   -8.0289   21.3548 C   0  0  0  0  0  0
  -21.9894   -9.0263   20.4654 C   0  0  0  0  0  0
  -22.7218  -10.2143   20.3055 C   0  0  0  0  0  0
  -21.6856   -6.0734   22.5272 C   0  0  0  0  0  0
  -21.4021   -6.5640   23.8204 C   0  0  0  0  0  0
  -21.3655   -5.6795   24.9169 C   0  0  0  0  0  0
  -21.6038   -4.3058   24.7220 C   0  0  0  0  0  0
  -21.8821   -3.8148   23.4344 C   0  0  0  0  0  0
  -21.9193   -4.6962   22.3399 C   0  0  0  0  0  0
  -22.7870  -13.5242   21.1819 C   0  0  0  0  0  0
  -22.1657   -4.2145   21.0976 F   0  0  0  0  0  0
  -21.5628   -3.4542   25.7732 F   0  0  0  0  0  0
  -30.0442  -13.2527   20.4655 N   0  0  0  0  0  0
  -26.3043  -12.9307   20.3365 N   0  0  0  0  0  0
  -25.9312  -11.6471   20.5733 N   0  0  0  0  0  0
  -22.0509  -12.8247   22.0385 N   0  0  0  0  0  0
  -25.4350  -15.1869   20.4092 N   0  0  0  0  0  0
  -31.7604  -14.7094   20.0734 O   0  0  0  0  0  0
  -21.6644   -6.8879   21.4237 O   0  0  0  0  0  0
  -22.3554  -14.5549   20.6670 O   0  0  0  0  0  0
  -24.6129  -31.8686   23.2097 C   0  0  0  0  0  0
  -25.9025  -32.4825   23.8394 C   0  0  1  0  0  0
  -27.2427  -27.4502   20.1007 C   0  0  0  0  0  0
  -25.5885  -33.8623   24.2328 N   0  0  0  0  0  0
  -23.4018  -30.4898   21.5498 C   0  0  2  0  0  0
  -24.8517  -28.9523   20.1195 C   0  0  0  0  0  0
  -22.7404  -29.4662   22.4999 C   0  0  0  0  0  0
  -18.0274  -28.1371   22.8499 C   0  0  0  0  0  0
  -24.1486  -36.7321   23.2637 C   0  0  0  0  0  0
  -25.9278  -30.8387   21.3604 C   0  0  0  0  0  0
  -26.0095  -29.4714   20.7142 C   0  0  0  0  0  0
  -27.2106  -28.7274   20.7016 C   0  0  0  0  0  0
  -26.0723  -26.9367   19.5064 C   0  0  0  0  0  0
  -24.8767  -27.6825   19.5137 C   0  0  0  0  0  0
  -23.6116  -29.8171   20.1661 C   0  0  0  0  0  0
  -25.4107  -36.3114   24.0336 C   0  0  1  0  0  0
  -20.5861  -28.3662   23.1320 C   0  0  2  0  0  0
  -20.6765  -26.9402   22.5414 C   0  0  0  0  0  0
  -19.5745  -26.6387   21.5212 C   0  0  0  0  0  0
  -18.1926  -26.7917   22.1633 C   0  0  0  0  0  0
  -19.1522  -28.8836   23.2907 C   0  0  0  0  0  0
  -18.9450  -30.1442   23.8913 C   0  0  0  0  0  0
  -17.6453  -30.6584   24.0566 C   0  0  0  0  0  0
  -25.9031  -34.9476   23.5130 C   0  0  0  0  0  0
  -16.5346  -29.9087   23.6319 C   0  0  0  0  0  0
  -16.7263  -28.6502   23.0348 C   0  0  0  0  0  0
  -26.4460  -31.6594   25.0710 C   0  0  0  0  0  0
  -25.3740  -31.3703   26.1470 C   0  0  0  0  0  0
  -27.0278  -30.3037   24.6060 C   0  0  0  0  0  0
  -27.6047  -32.4300   25.7464 C   0  0  0  0  0  0
  -27.5580  -37.1815   24.8467 C   0  0  0  0  0  0
  -21.4133  -29.3031   22.3729 N   0  0  0  0  0  0
  -26.4300  -37.3792   23.9401 N   0  0  0  0  0  0
  -24.6657  -31.0795   22.0990 N   0  0  0  0  0  0
  -23.4175  -28.8215   23.3052 O   0  0  0  0  0  0
  -28.4024  -26.7128   20.0629 O   0  0  0  0  0  0
  -26.5595  -34.8926   22.4692 O   0  0  0  0  0  0
  -23.5324  -32.1429   23.7497 O   0  0  0  0  0  0
  -30.1396  -18.9335   20.5571 C   0  0  0  0  0  0
  -29.9414  -18.6905   22.9643 C   0  0  0  0  0  0
  -29.9987  -19.5315   21.8323 C   0  0  0  0  0  0
  -30.1502  -16.6922   21.5634 C   0  0  0  0  0  0
  -30.2089  -17.5266   20.4182 C   0  0  0  0  0  0
  -30.0045  -17.2887   22.8314 C   0  0  0  0  0  0
  -29.2656  -23.2633   21.5109 C   0  0  0  0  0  0
  -29.0283  -24.3553   20.4418 C   0  0  0  0  0  0
  -29.6638  -21.8771   20.9519 C   0  0  0  0  0  0
  -28.4794  -25.6707   21.0414 C   0  0  0  0  0  0
  -30.1044  -15.2694   21.5054 N   0  0  0  0  0  0
  -29.9021  -20.9232   22.0347 N   0  0  0  0  0  0
  -30.2716  -16.9920   19.1739 F   0  0  0  0  0  0
  -29.9069  -16.5055   23.9345 F   0  0  0  0  0  0
  -31.4716  -12.4238   19.1065 H   0  0  0  0  0  0
  -30.3419  -11.2824   19.7736 H   0  0  0  0  0  0
  -29.7309  -11.8199   17.4053 H   0  0  0  0  0  0
  -29.6606  -13.5225   17.7833 H   0  0  0  0  0  0
  -27.8198  -11.3227   18.7839 H   0  0  0  0  0  0
  -27.3660  -12.6773   17.7838 H   0  0  0  0  0  0
  -27.7260  -14.2560   19.6146 H   0  0  0  0  0  0
  -28.6749  -11.8819   21.2873 H   0  0  0  0  0  0
  -28.4411  -13.4826   21.8989 H   0  0  0  0  0  0
  -25.2755   -9.5693   22.4740 H   0  0  0  0  0  0
  -23.9985   -7.4652   22.7488 H   0  0  0  0  0  0
  -21.0824   -8.8779   19.8962 H   0  0  0  0  0  0
  -22.3671  -10.9683   19.6167 H   0  0  0  0  0  0
  -21.2021   -7.6152   23.9701 H   0  0  0  0  0  0
  -21.1471   -6.0534   25.9068 H   0  0  0  0  0  0
  -22.0604   -2.7612   23.2843 H   0  0  0  0  0  0
  -22.4114  -11.9899   22.4760 H   0  0  0  0  0  0
  -21.1141  -13.1301   22.2606 H   0  0  0  0  0  0
  -24.6731  -15.8467   20.5234 H   0  0  0  0  0  0
  -26.2958  -15.6254   20.1054 H   0  0  0  0  0  0
  -26.7102  -32.5549   23.1171 H   0  0  0  0  0  0
  -25.0037  -33.9788   25.0473 H   0  0  0  0  0  0
  -22.6903  -31.3059   21.4084 H   0  0  0  0  0  0
  -23.3726  -35.9679   23.3338 H   0  0  0  0  0  0
  -24.3568  -36.8888   22.2041 H   0  0  0  0  0  0
  -23.7265  -37.6555   23.6615 H   0  0  0  0  0  0
  -26.0339  -31.6020   20.5882 H   0  0  0  0  0  0
  -26.8176  -30.8974   21.9751 H   0  0  0  0  0  0
  -28.1082  -29.1279   21.1521 H   0  0  0  0  0  0
  -26.0912  -25.9634   19.0362 H   0  0  0  0  0  0
  -23.9873  -27.2755   19.0526 H   0  0  0  0  0  0
  -23.7172  -30.5904   19.4042 H   0  0  0  0  0  0
  -22.7373  -29.2331   19.8722 H   0  0  0  0  0  0
  -25.1285  -36.1987   25.0831 H   0  0  0  0  0  0
  -20.9953  -28.3220   24.1440 H   0  0  0  0  0  0
  -20.5679  -26.2269   23.3600 H   0  0  0  0  0  0
  -21.6632  -26.7452   22.1197 H   0  0  0  0  0  0
  -19.6908  -25.6302   21.1232 H   0  0  0  0  0  0
  -19.6683  -27.3207   20.6748 H   0  0  0  0  0  0
  -17.4194  -26.6658   21.4039 H   0  0  0  0  0  0
  -18.0343  -26.0054   22.9028 H   0  0  0  0  0  0
  -19.7927  -30.7252   24.2289 H   0  0  0  0  0  0
  -17.5012  -31.6263   24.5168 H   0  0  0  0  0  0
  -15.5349  -30.3002   23.7630 H   0  0  0  0  0  0
  -15.8664  -28.0830   22.7050 H   0  0  0  0  0  0
  -24.5883  -30.7089   25.7800 H   0  0  0  0  0  0
  -24.8975  -32.2870   26.4957 H   0  0  0  0  0  0
  -25.8097  -30.8828   27.0202 H   0  0  0  0  0  0
  -26.2807  -29.6812   24.1121 H   0  0  0  0  0  0
  -27.4067  -29.7253   25.4496 H   0  0  0  0  0  0
  -27.8635  -30.4360   23.9183 H   0  0  0  0  0  0
  -27.2678  -33.3591   26.2072 H   0  0  0  0  0  0
  -28.3842  -32.6871   25.0279 H   0  0  0  0  0  0
  -28.0732  -31.8401   26.5353 H   0  0  0  0  0  0
  -28.2619  -38.0091   24.7478 H   0  0  0  0  0  0
  -28.1051  -36.2617   24.6337 H   0  0  0  0  0  0
  -27.2289  -37.1518   25.8870 H   0  0  0  0  0  0
  -20.9295  -29.8745   21.6941 H   0  0  0  0  0  0
  -26.0191  -38.2878   24.1373 H   0  0  0  0  0  0
  -30.1794  -19.5400   19.6644 H   0  0  0  0  0  0
  -29.8288  -19.1095   23.9534 H   0  0  0  0  0  0
  -28.3598  -23.1576   22.1104 H   0  0  0  0  0  0
  -30.0403  -23.6154   22.1948 H   0  0  0  0  0  0
  -28.3298  -23.9880   19.6891 H   0  0  0  0  0  0
  -29.9652  -24.5555   19.9206 H   0  0  0  0  0  0
  -30.5675  -21.9638   20.3456 H   0  0  0  0  0  0
  -28.8723  -21.5041   20.2990 H   0  0  0  0  0  0
  -29.1382  -26.0159   21.8390 H   0  0  0  0  0  0
  -27.5106  -25.4785   21.5073 H   0  0  0  0  0  0
  -29.4287  -14.8430   22.1200 H   0  0  0  0  0  0
  -29.7967  -21.2648   22.9878 H   0  0  0  0  0  0
  1 25  1  0  0  0
  1 30  2  0  0  0
  1 81  1  0  0  0
  2  3  1  0  0  0
  2 25  1  0  0  0
  2 85  1  0  0  0
  2 86  1  0  0  0
  3  4  1  0  0  0
  3 87  1  0  0  0
  3 88  1  0  0  0
  4  5  1  0  0  0
  4 89  1  0  0  0
  4 90  1  0  0  0
  5  6  1  0  0  0
  5 26  1  0  0  0
  5 91  1  0  0  0
  6 25  1  0  0  0
  6 92  1  0  0  0
  6 93  1  0  0  0
  7  8  2  0  0  0
  7 26  1  0  0  0
  7 29  1  0  0  0
  8  9  1  0  0  0
  8 22  1  0  0  0
  9 10  1  0  0  0
  9 27  2  0  0  0
 10 11  2  0  0  0
 10 15  1  0  0  0
 11 12  1  0  0  0
 11 94  1  0  0  0
 12 13  2  0  0  0
 12 95  1  0  0  0
 13 14  1  0  0  0
 13 31  1  0  0  0
 14 15  2  0  0  0
 14 96  1  0  0  0
 15 97  1  0  0  0
 16 17  2  0  0  0
 16 21  1  0  0  0
 16 31  1  0  0  0
 17 18  1  0  0  0
 17 98  1  0  0  0
 18 19  2  0  0  0
 18 99  1  0  0  0
 19 20  1  0  0  0
 19 24  1  0  0  0
 20 21  2  0  0  0
 20100  1  0  0  0
 21 23  1  0  0  0
 22 28  1  0  0  0
 22 32  2  0  0  0
 26 27  1  0  0  0
 28101  1  0  0  0
 28102  1  0  0  0
 29103  1  0  0  0
 29104  1  0  0  0
 33 34  1  0  0  0
 33 66  1  0  0  0
 33 70  2  0  0  0
 34 36  1  0  0  0
 34 59  1  0  0  0
 34105  1  0  0  0
 35 44  2  0  0  0
 35 45  1  0  0  0
 35 68  1  0  0  0
 36 56  1  0  0  0
 36106  1  0  0  0
 37 39  1  0  0  0
 37 47  1  0  0  0
 37 66  1  0  0  0
 37107  1  0  0  0
 38 43  2  0  0  0
 38 46  1  0  0  0
 38 47  1  0  0  0
 39 64  1  0  0  0
 39 67  2  0  0  0
 40 52  1  0  0  0
 40 53  2  0  0  0
 40 58  1  0  0  0
 41108  1  0  0  0
 41109  1  0  0  0
 41110  1  0  0  0
 41 48  1  0  0  0
 42 43  1  0  0  0
 42 66  1  0  0  0
 42111  1  0  0  0
 42112  1  0  0  0
 43 44  1  0  0  0
 44113  1  0  0  0
 45 46  2  0  0  0
 45114  1  0  0  0
 46115  1  0  0  0
 47116  1  0  0  0
 47117  1  0  0  0
 48 56  1  0  0  0
 48 65  1  0  0  0
 48118  1  0  0  0
 49 50  1  0  0  0
 49 53  1  0  0  0
 49 64  1  0  0  0
 49119  1  0  0  0
 50 51  1  0  0  0
 50120  1  0  0  0
 50121  1  0  0  0
 51 52  1  0  0  0
 51122  1  0  0  0
 51123  1  0  0  0
 52124  1  0  0  0
 52125  1  0  0  0
 53 54  1  0  0  0
 54 55  2  0  0  0
 54126  1  0  0  0
 55 57  1  0  0  0
 55127  1  0  0  0
 56 69  2  0  0  0
 57 58  2  0  0  0
 57128  1  0  0  0
 58129  1  0  0  0
 59 60  1  0  0  0
 59 61  1  0  0  0
 59 62  1  0  0  0
 60130  1  0  0  0
 60131  1  0  0  0
 60132  1  0  0  0
 61133  1  0  0  0
 61134  1  0  0  0
 61135  1  0  0  0
 62136  1  0  0  0
 62137  1  0  0  0
 62138  1  0  0  0
 63 65  1  0  0  0
 63139  1  0  0  0
 63140  1  0  0  0
 63141  1  0  0  0
 64142  1  0  0  0
 65143  1  0  0  0
 68 80  1  0  0  0
 71 73  2  0  0  0
 71 75  1  0  0  0
 71144  1  0  0  0
 72 73  1  0  0  0
 72 76  2  0  0  0
 72145  1  0  0  0
 73 82  1  0  0  0
 74 75  2  0  0  0
 74 76  1  0  0  0
 74 81  1  0  0  0
 75 83  1  0  0  0
 76 84  1  0  0  0
 77 78  1  0  0  0
 77 79  1  0  0  0
 77146  1  0  0  0
 77147  1  0  0  0
 78 80  1  0  0  0
 78148  1  0  0  0
 78149  1  0  0  0
 79 82  1  0  0  0
 79150  1  0  0  0
 79151  1  0  0  0
 80152  1  0  0  0
 80153  1  0  0  0
 81154  1  0  0  0
 82155  1  0  0  0
M  ISO  4   1 100  68 101  80 101  81 100
M  END
> <chiral flag>
0

> <version>
0

> <s_m_source_file>
/data/baiqing/PycharmProjects/Reinvent-master-3.2/result/LINK_invent/BTK/process_docking_weight1_custom_product_contain_oxygen_bond_distance_aromatic_linkinvent_7_9_3/rearranged_h_0021.sdf

> <i_m_source_file_index>
44

> <r_mmod_Potential_Energy-OPLS-2005>
-113.291236877441

> <r_mmod_Stretch_Energy-OPLS-2005>
34.9105415344238

> <r_mmod_Bend_Energy-OPLS-2005>
103.063957214355

> <r_mmod_Torsional_Energy-OPLS-2005>
236.215194702148

> <r_mmod_Improper_Torsional_Energy-OPLS-2005>
3.19012880325317

> <r_mmod_Van_der_Waal_Energy-OPLS-2005>
149.468002319336

> <r_mmod_Electrostatic_Energy-OPLS-2005>
-435.658752441406

> <r_mmod_Solvation_Energy-OPLS-2005>
-213.033706665039

> <b_mmod_Minimization_Converged-OPLS-2005>
0

> <r_mmod_RMS_Derivative-OPLS-2005>
1.10980939865112

$$$$
44
                    3D
 Structure written by MMmdl.
159168  0  0  1  0            999 V2000
  -30.5048  -14.9038   20.4250 C   0  0  0  0  0  0
  -30.4539  -12.5520   19.4901 C   0  0  0  0  0  0
  -29.5299  -12.5287   18.2487 C   0  0  0  0  0  0
  -28.0577  -12.3183   18.6584 C   0  0  0  0  0  0
  -27.6383  -13.2325   19.8404 C   0  0  2  0  0  0
  -28.6812  -13.2041   20.9790 C   0  0  0  0  0  0
  -25.2512  -13.8176   20.5675 C   0  0  0  0  0  0
  -24.1811  -13.0430   20.9227 C   0  0  0  0  0  0
  -24.6408  -11.6907   20.8737 C   0  0  0  0  0  0
  -23.9075  -10.4293   21.0396 C   0  0  0  0  0  0
  -24.3627   -9.4214   21.9182 C   0  0  0  0  0  0
  -23.6313   -8.2240   22.0742 C   0  0  0  0  0  0
  -22.4297   -8.0267   21.3525 C   0  0  0  0  0  0
  -21.9924   -9.0242   20.4630 C   0  0  0  0  0  0
  -22.7240  -10.2136   20.3047 C   0  0  0  0  0  0
  -21.6860   -6.0746   22.5284 C   0  0  0  0  0  0
  -21.4008   -6.5642   23.8222 C   0  0  0  0  0  0
  -21.3660   -5.6785   24.9177 C   0  0  0  0  0  0
  -21.6047   -4.3052   24.7220 C   0  0  0  0  0  0
  -21.8816   -3.8152   23.4340 C   0  0  0  0  0  0
  -21.9194   -4.6974   22.3403 C   0  0  0  0  0  0
  -22.7832  -13.5213   21.1877 C   0  0  0  0  0  0
  -22.1658   -4.2161   21.0980 F   0  0  0  0  0  0
  -21.5640   -3.4533   25.7728 F   0  0  0  0  0  0
  -29.9678  -13.6212   20.4014 N   0  0  0  0  0  0
  -26.2918  -12.9377   20.3198 N   0  0  0  0  0  0
  -25.9328  -11.6523   20.5693 N   0  0  0  0  0  0
  -22.0465  -12.8215   22.0428 N   0  0  0  0  0  0
  -25.4214  -15.1895   20.4071 N   0  0  0  0  0  0
  -31.6941  -15.0487   20.1167 O   0  0  0  0  0  0
  -21.6639   -6.8881   21.4235 O   0  0  0  0  0  0
  -22.3530  -14.5523   20.6720 O   0  0  0  0  0  0
  -24.6407  -31.8460   23.1899 C   0  0  0  0  0  0
  -25.9189  -32.4705   23.8273 C   0  0  1  0  0  0
  -27.2192  -27.1596   20.1453 C   0  0  0  0  0  0
  -25.5949  -33.8509   24.2193 N   0  0  0  0  0  0
  -23.4419  -30.4680   21.5338 C   0  0  2  0  0  0
  -24.8923  -28.8983   20.1107 C   0  0  0  0  0  0
  -22.7547  -29.4570   22.4852 C   0  0  0  0  0  0
  -18.0292  -28.1393   22.8465 C   0  0  0  0  0  0
  -24.1498  -36.7266   23.2640 C   0  0  0  0  0  0
  -25.9984  -30.7275   21.3863 C   0  0  0  0  0  0
  -26.0703  -29.3415   20.7261 C   0  0  0  0  0  0
  -27.2359  -28.4890   20.7245 C   0  0  0  0  0  0
  -26.0118  -26.8128   19.4978 C   0  0  0  0  0  0
  -24.8754  -27.6464   19.4812 C   0  0  0  0  0  0
  -23.6678  -29.7970   20.1533 C   0  0  0  0  0  0
  -25.4133  -36.3040   24.0310 C   0  0  1  0  0  0
  -20.5902  -28.3726   23.1228 C   0  0  2  0  0  0
  -20.6784  -26.9434   22.5391 C   0  0  0  0  0  0
  -19.5759  -26.6381   21.5201 C   0  0  0  0  0  0
  -18.1943  -26.7933   22.1612 C   0  0  0  0  0  0
  -19.1545  -28.8875   23.2844 C   0  0  0  0  0  0
  -18.9473  -30.1474   23.8866 C   0  0  0  0  0  0
  -17.6470  -30.6592   24.0560 C   0  0  0  0  0  0
  -25.9077  -34.9408   23.5064 C   0  0  0  0  0  0
  -16.5359  -29.9084   23.6338 C   0  0  0  0  0  0
  -16.7281  -28.6502   23.0358 C   0  0  0  0  0  0
  -26.4523  -31.6551   25.0699 C   0  0  0  0  0  0
  -25.3705  -31.3742   26.1386 C   0  0  0  0  0  0
  -27.0384  -30.2936   24.6288 C   0  0  0  0  0  0
  -27.6049  -32.4320   25.7488 C   0  0  0  0  0  0
  -27.5586  -37.1788   24.8458 C   0  0  0  0  0  0
  -21.4237  -29.3056   22.3600 N   0  0  0  0  0  0
  -26.4299  -37.3748   23.9399 N   0  0  0  0  0  0
  -24.7131  -31.0343   22.0918 N   0  0  0  0  0  0
  -23.4210  -28.8113   23.2992 O   0  0  0  0  0  0
  -28.2789  -26.1871   20.2116 O   0  0  0  0  0  0
  -26.5664  -34.8894   22.4645 O   0  0  0  0  0  0
  -23.5538  -32.1309   23.7158 O   0  0  0  0  0  0
  -30.2410  -19.9094   19.9718 C   0  0  0  0  0  0
  -30.5070  -18.4746   20.0973 C   0  0  0  0  0  0
  -28.2766  -18.1504   20.7829 C   0  0  0  0  0  0
  -28.9689  -20.5409   20.2309 C   0  0  0  0  0  0
  -29.5242  -17.5035   20.5019 C   0  0  0  0  0  0
  -28.0062  -19.5637   20.6477 C   0  0  0  0  0  0
  -29.5889  -22.8510   17.9642 C   0  0  0  0  0  0
  -30.1458  -23.5439   19.2182 C   0  0  0  0  0  0
  -28.3962  -22.0150   18.4570 C   0  0  0  0  0  0
  -29.0372  -23.3584   20.2619 C   0  0  1  0  0  0
  -29.5665  -23.3667   21.7020 C   0  0  0  0  0  0
  -27.9863  -24.6704   20.0730 C   0  0  0  0  0  0
  -28.5357  -21.9323   19.9067 N   0  0  0  0  0  0
  -29.6148  -15.9796   20.6369 N   0  0  0  0  0  0
  -26.7394  -19.9833   20.8911 F   0  0  0  0  0  0
  -31.4875  -12.7238   19.1842 H   0  0  0  0  0  0
  -30.4478  -11.5837   19.9932 H   0  0  0  0  0  0
  -29.8481  -11.7443   17.5598 H   0  0  0  0  0  0
  -29.6289  -13.4677   17.7031 H   0  0  0  0  0  0
  -27.9451  -11.2735   18.9473 H   0  0  0  0  0  0
  -27.3996  -12.4681   17.8013 H   0  0  0  0  0  0
  -27.6172  -14.2455   19.4398 H   0  0  0  0  0  0
  -28.7554  -12.2054   21.4117 H   0  0  0  0  0  0
  -28.3835  -13.8685   21.7927 H   0  0  0  0  0  0
  -25.2771   -9.5709   22.4748 H   0  0  0  0  0  0
  -24.0030   -7.4638   22.7472 H   0  0  0  0  0  0
  -21.0844   -8.8760   19.8946 H   0  0  0  0  0  0
  -22.3687  -10.9671   19.6154 H   0  0  0  0  0  0
  -21.1981   -7.6149   23.9725 H   0  0  0  0  0  0
  -21.1487   -6.0518   25.9086 H   0  0  0  0  0  0
  -22.0597   -2.7613   23.2835 H   0  0  0  0  0  0
  -22.4069  -11.9891   22.4851 H   0  0  0  0  0  0
  -21.1071  -13.1236   22.2577 H   0  0  0  0  0  0
  -24.6437  -15.8339   20.4999 H   0  0  0  0  0  0
  -26.2325  -15.6143   19.9786 H   0  0  0  0  0  0
  -26.7249  -32.5327   23.1001 H   0  0  0  0  0  0
  -25.0052  -33.9605   25.0311 H   0  0  0  0  0  0
  -22.7430  -31.2936   21.3810 H   0  0  0  0  0  0
  -23.3760  -35.9593   23.3273 H   0  0  0  0  0  0
  -24.3595  -36.8928   22.2061 H   0  0  0  0  0  0
  -23.7231  -37.6447   23.6692 H   0  0  0  0  0  0
  -26.1547  -31.4843   20.6160 H   0  0  0  0  0  0
  -26.8689  -30.7752   22.0292 H   0  0  0  0  0  0
  -28.1364  -28.8264   21.2198 H   0  0  0  0  0  0
  -25.9037  -25.8581   19.0100 H   0  0  0  0  0  0
  -23.9763  -27.3023   18.9882 H   0  0  0  0  0  0
  -23.7991  -30.5691   19.3946 H   0  0  0  0  0  0
  -22.7837  -29.2343   19.8486 H   0  0  0  0  0  0
  -25.1320  -36.1876   25.0803 H   0  0  0  0  0  0
  -21.0004  -28.3328   24.1345 H   0  0  0  0  0  0
  -20.5679  -26.2348   23.3617 H   0  0  0  0  0  0
  -21.6657  -26.7449   22.1190 H   0  0  0  0  0  0
  -19.6933  -25.6286   21.1250 H   0  0  0  0  0  0
  -19.6699  -27.3169   20.6721 H   0  0  0  0  0  0
  -17.4216  -26.6661   21.4020 H   0  0  0  0  0  0
  -18.0363  -26.0080   22.9016 H   0  0  0  0  0  0
  -19.7953  -30.7300   24.2220 H   0  0  0  0  0  0
  -17.5025  -31.6268   24.5174 H   0  0  0  0  0  0
  -15.5360  -30.2989   23.7674 H   0  0  0  0  0  0
  -15.8675  -28.0821   22.7094 H   0  0  0  0  0  0
  -24.5886  -30.7100   25.7683 H   0  0  0  0  0  0
  -24.8898  -32.2932   26.4751 H   0  0  0  0  0  0
  -25.7975  -30.8931   27.0195 H   0  0  0  0  0  0
  -26.2997  -29.6649   24.1308 H   0  0  0  0  0  0
  -27.3984  -29.7248   25.4872 H   0  0  0  0  0  0
  -27.8913  -30.4135   23.9606 H   0  0  0  0  0  0
  -27.2624  -33.3626   26.2029 H   0  0  0  0  0  0
  -28.3886  -32.6877   25.0342 H   0  0  0  0  0  0
  -28.0692  -31.8472   26.5442 H   0  0  0  0  0  0
  -28.2582  -38.0106   24.7539 H   0  0  0  0  0  0
  -28.1104  -36.2638   24.6257 H   0  0  0  0  0  0
  -27.2307  -37.1402   25.8859 H   0  0  0  0  0  0
  -20.9446  -29.8773   21.6777 H   0  0  0  0  0  0
  -26.0171  -38.2815   24.1404 H   0  0  0  0  0  0
  -31.0440  -20.5342   19.6088 H   0  0  0  0  0  0
  -31.4967  -18.1221   19.8475 H   0  0  0  0  0  0
  -27.4453  -17.5341   21.0940 H   0  0  0  0  0  0
  -30.3516  -22.2255   17.4992 H   0  0  0  0  0  0
  -29.2587  -23.5727   17.2159 H   0  0  0  0  0  0
  -30.3946  -24.5916   19.0399 H   0  0  0  0  0  0
  -31.0634  -23.0456   19.5338 H   0  0  0  0  0  0
  -28.3558  -21.0446   17.9573 H   0  0  0  0  0  0
  -27.4553  -22.5139   18.2235 H   0  0  0  0  0  0
  -29.9394  -24.3534   21.9801 H   0  0  0  0  0  0
  -30.3844  -22.6586   21.8367 H   0  0  0  0  0  0
  -28.7791  -23.0990   22.4082 H   0  0  0  0  0  0
  -27.1389  -24.4745   20.7312 H   0  0  0  0  0  0
  -27.5889  -24.5726   19.0658 H   0  0  0  0  0  0
  -28.7237  -15.5840   20.8941 H   0  0  0  0  0  0
  1 25  1  0  0  0
  1 30  2  0  0  0
  1 84  1  0  0  0
  2  3  1  0  0  0
  2 25  1  0  0  0
  2 86  1  0  0  0
  2 87  1  0  0  0
  3  4  1  0  0  0
  3 88  1  0  0  0
  3 89  1  0  0  0
  4  5  1  0  0  0
  4 90  1  0  0  0
  4 91  1  0  0  0
  5  6  1  0  0  0
  5 26  1  0  0  0
  5 92  1  0  0  0
  6 25  1  0  0  0
  6 93  1  0  0  0
  6 94  1  0  0  0
  7  8  2  0  0  0
  7 26  1  0  0  0
  7 29  1  0  0  0
  8  9  1  0  0  0
  8 22  1  0  0  0
  9 10  1  0  0  0
  9 27  2  0  0  0
 10 11  2  0  0  0
 10 15  1  0  0  0
 11 12  1  0  0  0
 11 95  1  0  0  0
 12 13  2  0  0  0
 12 96  1  0  0  0
 13 14  1  0  0  0
 13 31  1  0  0  0
 14 15  2  0  0  0
 14 97  1  0  0  0
 15 98  1  0  0  0
 16 17  2  0  0  0
 16 21  1  0  0  0
 16 31  1  0  0  0
 17 18  1  0  0  0
 17 99  1  0  0  0
 18 19  2  0  0  0
 18100  1  0  0  0
 19 20  1  0  0  0
 19 24  1  0  0  0
 20 21  2  0  0  0
 20101  1  0  0  0
 21 23  1  0  0  0
 22 28  1  0  0  0
 22 32  2  0  0  0
 26 27  1  0  0  0
 28102  1  0  0  0
 28103  1  0  0  0
 29104  1  0  0  0
 29105  1  0  0  0
 33 34  1  0  0  0
 33 66  1  0  0  0
 33 70  2  0  0  0
 34 36  1  0  0  0
 34 59  1  0  0  0
 34106  1  0  0  0
 35 44  2  0  0  0
 35 45  1  0  0  0
 35 68  1  0  0  0
 36 56  1  0  0  0
 36107  1  0  0  0
 37 39  1  0  0  0
 37 47  1  0  0  0
 37 66  1  0  0  0
 37108  1  0  0  0
 38 43  2  0  0  0
 38 46  1  0  0  0
 38 47  1  0  0  0
 39 64  1  0  0  0
 39 67  2  0  0  0
 40 52  1  0  0  0
 40 53  2  0  0  0
 40 58  1  0  0  0
 41109  1  0  0  0
 41110  1  0  0  0
 41111  1  0  0  0
 41 48  1  0  0  0
 42 43  1  0  0  0
 42 66  1  0  0  0
 42112  1  0  0  0
 42113  1  0  0  0
 43 44  1  0  0  0
 44114  1  0  0  0
 45 46  2  0  0  0
 45115  1  0  0  0
 46116  1  0  0  0
 47117  1  0  0  0
 47118  1  0  0  0
 48 56  1  0  0  0
 48 65  1  0  0  0
 48119  1  0  0  0
 49 50  1  0  0  0
 49 53  1  0  0  0
 49 64  1  0  0  0
 49120  1  0  0  0
 50 51  1  0  0  0
 50121  1  0  0  0
 50122  1  0  0  0
 51 52  1  0  0  0
 51123  1  0  0  0
 51124  1  0  0  0
 52125  1  0  0  0
 52126  1  0  0  0
 53 54  1  0  0  0
 54 55  2  0  0  0
 54127  1  0  0  0
 55 57  1  0  0  0
 55128  1  0  0  0
 56 69  2  0  0  0
 57 58  2  0  0  0
 57129  1  0  0  0
 58130  1  0  0  0
 59 60  1  0  0  0
 59 61  1  0  0  0
 59 62  1  0  0  0
 60131  1  0  0  0
 60132  1  0  0  0
 60133  1  0  0  0
 61134  1  0  0  0
 61135  1  0  0  0
 61136  1  0  0  0
 62137  1  0  0  0
 62138  1  0  0  0
 62139  1  0  0  0
 63 65  1  0  0  0
 63140  1  0  0  0
 63141  1  0  0  0
 63142  1  0  0  0
 64143  1  0  0  0
 65144  1  0  0  0
 68 82  1  0  0  0
 71 72  2  0  0  0
 71 74  1  0  0  0
 71145  1  0  0  0
 72 75  1  0  0  0
 72146  1  0  0  0
 73 75  2  0  0  0
 73 76  1  0  0  0
 73147  1  0  0  0
 74 76  2  0  0  0
 74 83  1  0  0  0
 75 84  1  0  0  0
 76 85  1  0  0  0
 77 78  1  0  0  0
 77 79  1  0  0  0
 77148  1  0  0  0
 77149  1  0  0  0
 78 80  1  0  0  0
 78150  1  0  0  0
 78151  1  0  0  0
 79 83  1  0  0  0
 79152  1  0  0  0
 79153  1  0  0  0
 80 81  1  0  0  0
 80 82  1  0  0  0
 80 83  1  0  0  0
 81154  1  0  0  0
 81155  1  0  0  0
 81156  1  0  0  0
 82157  1  0  0  0
 82158  1  0  0  0
 84159  1  0  0  0
M  ISO  4   1 100  68 101  82 101  84 100
M  END
> <chiral flag>
0

> <version>
0

> <s_m_source_file>
/data/baiqing/PycharmProjects/Reinvent-master-3.2/result/LINK_invent/BTK/process_docking_weight1_custom_product_contain_oxygen_bond_distance_aromatic_linkinvent_7_9_3/rearranged_h_0021.sdf

> <i_m_source_file_index>
45

> <r_mmod_Potential_Energy-OPLS-2005>
567.724182128906

> <r_mmod_Stretch_Energy-OPLS-2005>
213.278137207031

> <r_mmod_Bend_Energy-OPLS-2005>
308.187255859375

> <r_mmod_Torsional_Energy-OPLS-2005>
301.020416259766

> <r_mmod_Improper_Torsional_Energy-OPLS-2005>
11.0544557571411

> <r_mmod_Van_der_Waal_Energy-OPLS-2005>
129.29362487793

> <r_mmod_Electrostatic_Energy-OPLS-2005>
-353.305419921875

> <r_mmod_Solvation_Energy-OPLS-2005>
-210.380737304688

> <b_mmod_Minimization_Converged-OPLS-2005>
0

> <r_mmod_RMS_Derivative-OPLS-2005>
2.39038825035095

$$$$
45
                    3D
 Structure written by MMmdl.
166175  0  0  1  0            999 V2000
  -30.5998  -14.6534   20.5161 C   0  0  0  0  0  0
  -30.4465  -12.4104   19.4494 C   0  0  0  0  0  0
  -29.5120  -12.5287   18.2243 C   0  0  0  0  0  0
  -28.0341  -12.3594   18.6316 C   0  0  0  0  0  0
  -27.6574  -13.2169   19.8696 C   0  0  2  0  0  0
  -28.7016  -13.0485   20.9961 C   0  0  0  0  0  0
  -25.2577  -13.8165   20.5687 C   0  0  0  0  0  0
  -24.1842  -13.0428   20.9180 C   0  0  0  0  0  0
  -24.6404  -11.6900   20.8730 C   0  0  0  0  0  0
  -23.9062  -10.4282   21.0387 C   0  0  0  0  0  0
  -24.3613   -9.4199   21.9168 C   0  0  0  0  0  0
  -23.6292   -8.2231   22.0743 C   0  0  0  0  0  0
  -22.4271   -8.0272   21.3529 C   0  0  0  0  0  0
  -21.9902   -9.0246   20.4632 C   0  0  0  0  0  0
  -22.7231  -10.2122   20.3042 C   0  0  0  0  0  0
  -21.6852   -6.0730   22.5281 C   0  0  0  0  0  0
  -21.4010   -6.5632   23.8214 C   0  0  0  0  0  0
  -21.3660   -5.6783   24.9179 C   0  0  0  0  0  0
  -21.6045   -4.3048   24.7221 C   0  0  0  0  0  0
  -21.8820   -3.8137   23.4345 C   0  0  0  0  0  0
  -21.9185   -4.6958   22.3401 C   0  0  0  0  0  0
  -22.7856  -13.5218   21.1841 C   0  0  0  0  0  0
  -22.1654   -4.2145   21.0977 F   0  0  0  0  0  0
  -21.5629   -3.4529   25.7732 F   0  0  0  0  0  0
  -30.0157  -13.4137   20.4449 N   0  0  0  0  0  0
  -26.3012  -12.9347   20.3330 N   0  0  0  0  0  0
  -25.9336  -11.6499   20.5750 N   0  0  0  0  0  0
  -22.0477  -12.8235   22.0408 N   0  0  0  0  0  0
  -25.4282  -15.1893   20.4130 N   0  0  0  0  0  0
  -31.7376  -14.8491   20.0763 O   0  0  0  0  0  0
  -21.6630   -6.8874   21.4242 O   0  0  0  0  0  0
  -22.3541  -14.5511   20.6667 O   0  0  0  0  0  0
  -24.6248  -31.8586   23.2014 C   0  0  0  0  0  0
  -25.9103  -32.4770   23.8343 C   0  0  1  0  0  0
  -27.2336  -27.3318   20.1287 C   0  0  0  0  0  0
  -25.5923  -33.8571   24.2263 N   0  0  0  0  0  0
  -23.4186  -30.4803   21.5410 C   0  0  2  0  0  0
  -24.8675  -28.9245   20.1176 C   0  0  0  0  0  0
  -22.7456  -29.4624   22.4919 C   0  0  0  0  0  0
  -18.0279  -28.1387   22.8476 C   0  0  0  0  0  0
  -24.1486  -36.7287   23.2646 C   0  0  0  0  0  0
  -25.9563  -30.7938   21.3689 C   0  0  0  0  0  0
  -26.0331  -29.4193   20.7165 C   0  0  0  0  0  0
  -27.2217  -28.6368   20.7046 C   0  0  0  0  0  0
  -26.0456  -26.8701   19.5258 C   0  0  0  0  0  0
  -24.8733  -27.6543   19.5155 C   0  0  0  0  0  0
  -23.6364  -29.8071   20.1590 C   0  0  0  0  0  0
  -25.4113  -36.3074   24.0327 C   0  0  1  0  0  0
  -20.5881  -28.3694   23.1270 C   0  0  2  0  0  0
  -20.6768  -26.9417   22.5402 C   0  0  0  0  0  0
  -19.5751  -26.6387   21.5194 C   0  0  0  0  0  0
  -18.1931  -26.7931   22.1604 C   0  0  0  0  0  0
  -19.1535  -28.8847   23.2875 C   0  0  0  0  0  0
  -18.9466  -30.1446   23.8904 C   0  0  0  0  0  0
  -17.6471  -30.6596   24.0562 C   0  0  0  0  0  0
  -25.9047  -34.9445   23.5089 C   0  0  0  0  0  0
  -16.5355  -29.9106   23.6328 C   0  0  0  0  0  0
  -16.7267  -28.6514   23.0353 C   0  0  0  0  0  0
  -26.4504  -31.6593   25.0716 C   0  0  0  0  0  0
  -25.3750  -31.3734   26.1455 C   0  0  0  0  0  0
  -27.0360  -30.3019   24.6177 C   0  0  0  0  0  0
  -27.6041  -32.4354   25.7492 C   0  0  0  0  0  0
  -27.5575  -37.1801   24.8468 C   0  0  0  0  0  0
  -21.4169  -29.3052   22.3659 N   0  0  0  0  0  0
  -26.4286  -37.3772   23.9408 N   0  0  0  0  0  0
  -24.6852  -31.0621   22.0940 N   0  0  0  0  0  0
  -23.4177  -28.8169   23.3007 O   0  0  0  0  0  0
  -28.3802  -26.5346   20.1109 O   0  0  0  0  0  0
  -26.5617  -34.8915   22.4657 O   0  0  0  0  0  0
  -23.5413  -32.1371   23.7355 O   0  0  0  0  0  0
  -28.9373  -18.9909   19.3595 C   0  0  0  0  0  0
  -29.2577  -17.6107   19.5206 C   0  0  0  0  0  0
  -29.9782  -18.0665   21.7611 C   0  0  0  0  0  0
  -29.0858  -19.9566   20.3960 C   0  0  0  0  0  0
  -29.6666  -19.4617   21.6121 C   0  0  0  0  0  0
  -29.7635  -17.0995   20.7402 C   0  0  0  0  0  0
  -30.5180  -23.2360   18.1759 C   0  0  0  0  0  0
  -29.7193  -24.4673   18.5727 C   0  0  0  0  0  0
  -30.6163  -22.4712   19.4922 C   0  0  0  0  0  0
  -28.7031  -23.9598   19.6133 C   0  0  2  0  0  0
  -31.4756  -20.6303   22.9548 C   0  0  0  0  0  0
  -28.4650  -21.4065   20.1726 C   0  0  0  0  0  0
  -28.3231  -25.1436   20.6144 C   0  0  0  0  0  0
  -29.9710  -20.3648   22.8136 C   0  0  0  0  0  0
  -29.8195  -15.6628   21.0199 N   0  0  0  0  0  0
  -29.3190  -22.6664   20.1870 N   0  3  1  0  0  0
  -29.5491  -19.7651   23.9270 F   0  0  0  0  0  0
  -29.3577  -21.5460   22.7457 F   0  0  0  0  0  0
  -31.4849  -12.5543   19.1450 H   0  0  0  0  0  0
  -30.3977  -11.4071   19.8757 H   0  0  0  0  0  0
  -29.7833  -11.7851   17.4742 H   0  0  0  0  0  0
  -29.6511  -13.5031   17.7533 H   0  0  0  0  0  0
  -27.8728  -11.3044   18.8540 H   0  0  0  0  0  0
  -27.3801  -12.5956   17.7909 H   0  0  0  0  0  0
  -27.6807  -14.2576   19.5459 H   0  0  0  0  0  0
  -28.7188  -12.0150   21.3455 H   0  0  0  0  0  0
  -28.4410  -13.6495   21.8681 H   0  0  0  0  0  0
  -25.2759   -9.5678   22.4743 H   0  0  0  0  0  0
  -23.9993   -7.4627   22.7474 H   0  0  0  0  0  0
  -21.0814   -8.8764   19.8959 H   0  0  0  0  0  0
  -22.3680  -10.9655   19.6148 H   0  0  0  0  0  0
  -21.2002   -7.6139   23.9724 H   0  0  0  0  0  0
  -21.1486   -6.0505   25.9082 H   0  0  0  0  0  0
  -22.0599   -2.7600   23.2840 H   0  0  0  0  0  0
  -22.4071  -11.9908   22.4845 H   0  0  0  0  0  0
  -21.1093  -13.1281   22.2572 H   0  0  0  0  0  0
  -24.6639  -15.8440   20.5375 H   0  0  0  0  0  0
  -26.2797  -15.6329   20.0926 H   0  0  0  0  0  0
  -26.7168  -32.5439   23.1090 H   0  0  0  0  0  0
  -25.0099  -33.9718   25.0429 H   0  0  0  0  0  0
  -22.7137  -31.3013   21.3937 H   0  0  0  0  0  0
  -23.3744  -35.9623   23.3306 H   0  0  0  0  0  0
  -24.3588  -36.8914   22.2064 H   0  0  0  0  0  0
  -23.7238  -37.6485   23.6675 H   0  0  0  0  0  0
  -26.0889  -31.5568   20.6007 H   0  0  0  0  0  0
  -26.8357  -30.8420   21.9997 H   0  0  0  0  0  0
  -28.1230  -29.0198   21.1627 H   0  0  0  0  0  0
  -26.0214  -25.8957   19.0589 H   0  0  0  0  0  0
  -23.9772  -27.2684   19.0484 H   0  0  0  0  0  0
  -23.7647  -30.5800   19.4009 H   0  0  0  0  0  0
  -22.7550  -29.2414   19.8517 H   0  0  0  0  0  0
  -25.1299  -36.1918   25.0819 H   0  0  0  0  0  0
  -20.9974  -28.3277   24.1391 H   0  0  0  0  0  0
  -20.5649  -26.2311   23.3607 H   0  0  0  0  0  0
  -21.6642  -26.7449   22.1211 H   0  0  0  0  0  0
  -19.6922  -25.6295   21.1236 H   0  0  0  0  0  0
  -19.6696  -27.3182   20.6712 H   0  0  0  0  0  0
  -17.4200  -26.6660   21.4013 H   0  0  0  0  0  0
  -18.0352  -26.0076   22.9004 H   0  0  0  0  0  0
  -19.7948  -30.7242   24.2292 H   0  0  0  0  0  0
  -17.5041  -31.6279   24.5163 H   0  0  0  0  0  0
  -15.5364  -30.3017   23.7653 H   0  0  0  0  0  0
  -15.8661  -28.0839   22.7080 H   0  0  0  0  0  0
  -24.5891  -30.7124   25.7790 H   0  0  0  0  0  0
  -24.8997  -32.2911   26.4925 H   0  0  0  0  0  0
  -25.8092  -30.8875   27.0202 H   0  0  0  0  0  0
  -26.2929  -29.6740   24.1248 H   0  0  0  0  0  0
  -27.4106  -29.7313   25.4688 H   0  0  0  0  0  0
  -27.8777  -30.4306   23.9366 H   0  0  0  0  0  0
  -27.2615  -33.3637   26.2076 H   0  0  0  0  0  0
  -28.3850  -32.6954   25.0334 H   0  0  0  0  0  0
  -28.0714  -31.8494   26.5415 H   0  0  0  0  0  0
  -28.2591  -38.0098   24.7511 H   0  0  0  0  0  0
  -28.1068  -36.2631   24.6295 H   0  0  0  0  0  0
  -27.2303  -37.1452   25.8874 H   0  0  0  0  0  0
  -20.9339  -29.8774   21.6874 H   0  0  0  0  0  0
  -26.0161  -38.2840   24.1417 H   0  0  0  0  0  0
  -28.4950  -19.2956   18.4208 H   0  0  0  0  0  0
  -29.0394  -16.9314   18.7088 H   0  0  0  0  0  0
  -30.3553  -17.7222   22.7140 H   0  0  0  0  0  0
  -31.4940  -23.4771   17.7531 H   0  0  0  0  0  0
  -29.9688  -22.6483   17.4390 H   0  0  0  0  0  0
  -29.2394  -24.9524   17.7212 H   0  0  0  0  0  0
  -30.3964  -25.1958   19.0237 H   0  0  0  0  0  0
  -31.3989  -22.9143   20.1100 H   0  0  0  0  0  0
  -30.9008  -21.4315   19.3327 H   0  0  0  0  0  0
  -27.7981  -23.6934   19.0655 H   0  0  0  0  0  0
  -31.6846  -21.2882   23.7985 H   0  0  0  0  0  0
  -31.8812  -21.1021   22.0603 H   0  0  0  0  0  0
  -32.0296  -19.7061   23.1187 H   0  0  0  0  0  0
  -27.6569  -21.5415   20.8925 H   0  0  0  0  0  0
  -27.9645  -21.3826   19.2044 H   0  0  0  0  0  0
  -29.0347  -25.1200   21.4399 H   0  0  0  0  0  0
  -27.3559  -24.9393   21.0743 H   0  0  0  0  0  0
  -28.9959  -15.3083   21.4819 H   0  0  0  0  0  0
  -29.5390  -22.8113   21.1634 H   0  0  0  0  0  0
  1 25  1  0  0  0
  1 30  2  0  0  0
  1 85  1  0  0  0
  2  3  1  0  0  0
  2 25  1  0  0  0
  2 89  1  0  0  0
  2 90  1  0  0  0
  3  4  1  0  0  0
  3 91  1  0  0  0
  3 92  1  0  0  0
  4  5  1  0  0  0
  4 93  1  0  0  0
  4 94  1  0  0  0
  5  6  1  0  0  0
  5 26  1  0  0  0
  5 95  1  0  0  0
  6 25  1  0  0  0
  6 96  1  0  0  0
  6 97  1  0  0  0
  7  8  2  0  0  0
  7 26  1  0  0  0
  7 29  1  0  0  0
  8  9  1  0  0  0
  8 22  1  0  0  0
  9 10  1  0  0  0
  9 27  2  0  0  0
 10 11  2  0  0  0
 10 15  1  0  0  0
 11 12  1  0  0  0
 11 98  1  0  0  0
 12 13  2  0  0  0
 12 99  1  0  0  0
 13 14  1  0  0  0
 13 31  1  0  0  0
 14 15  2  0  0  0
 14100  1  0  0  0
 15101  1  0  0  0
 16 17  2  0  0  0
 16 21  1  0  0  0
 16 31  1  0  0  0
 17 18  1  0  0  0
 17102  1  0  0  0
 18 19  2  0  0  0
 18103  1  0  0  0
 19 20  1  0  0  0
 19 24  1  0  0  0
 20 21  2  0  0  0
 20104  1  0  0  0
 21 23  1  0  0  0
 22 28  1  0  0  0
 22 32  2  0  0  0
 26 27  1  0  0  0
 28105  1  0  0  0
 28106  1  0  0  0
 29107  1  0  0  0
 29108  1  0  0  0
 33 34  1  0  0  0
 33 66  1  0  0  0
 33 70  2  0  0  0
 34 36  1  0  0  0
 34 59  1  0  0  0
 34109  1  0  0  0
 35 44  2  0  0  0
 35 45  1  0  0  0
 35 68  1  0  0  0
 36 56  1  0  0  0
 36110  1  0  0  0
 37 39  1  0  0  0
 37 47  1  0  0  0
 37 66  1  0  0  0
 37111  1  0  0  0
 38 43  2  0  0  0
 38 46  1  0  0  0
 38 47  1  0  0  0
 39 64  1  0  0  0
 39 67  2  0  0  0
 40 52  1  0  0  0
 40 53  2  0  0  0
 40 58  1  0  0  0
 41112  1  0  0  0
 41113  1  0  0  0
 41114  1  0  0  0
 41 48  1  0  0  0
 42 43  1  0  0  0
 42 66  1  0  0  0
 42115  1  0  0  0
 42116  1  0  0  0
 43 44  1  0  0  0
 44117  1  0  0  0
 45 46  2  0  0  0
 45118  1  0  0  0
 46119  1  0  0  0
 47120  1  0  0  0
 47121  1  0  0  0
 48 56  1  0  0  0
 48 65  1  0  0  0
 48122  1  0  0  0
 49 50  1  0  0  0
 49 53  1  0  0  0
 49 64  1  0  0  0
 49123  1  0  0  0
 50 51  1  0  0  0
 50124  1  0  0  0
 50125  1  0  0  0
 51 52  1  0  0  0
 51126  1  0  0  0
 51127  1  0  0  0
 52128  1  0  0  0
 52129  1  0  0  0
 53 54  1  0  0  0
 54 55  2  0  0  0
 54130  1  0  0  0
 55 57  1  0  0  0
 55131  1  0  0  0
 56 69  2  0  0  0
 57 58  2  0  0  0
 57132  1  0  0  0
 58133  1  0  0  0
 59 60  1  0  0  0
 59 61  1  0  0  0
 59 62  1  0  0  0
 60134  1  0  0  0
 60135  1  0  0  0
 60136  1  0  0  0
 61137  1  0  0  0
 61138  1  0  0  0
 61139  1  0  0  0
 62140  1  0  0  0
 62141  1  0  0  0
 62142  1  0  0  0
 63 65  1  0  0  0
 63143  1  0  0  0
 63144  1  0  0  0
 63145  1  0  0  0
 64146  1  0  0  0
 65147  1  0  0  0
 68 83  1  0  0  0
 71 72  2  0  0  0
 71 74  1  0  0  0
 71148  1  0  0  0
 72 76  1  0  0  0
 72149  1  0  0  0
 73 75  1  0  0  0
 73 76  2  0  0  0
 73150  1  0  0  0
 74 75  2  0  0  0
 74 82  1  0  0  0
 75 84  1  0  0  0
 76 85  1  0  0  0
 77 78  1  0  0  0
 77 79  1  0  0  0
 77151  1  0  0  0
 77152  1  0  0  0
 78 80  1  0  0  0
 78153  1  0  0  0
 78154  1  0  0  0
 79 86  1  0  0  0
 79155  1  0  0  0
 79156  1  0  0  0
 80 83  1  0  0  0
 80 86  1  0  0  0
 80157  1  0  0  0
 81158  1  0  0  0
 81159  1  0  0  0
 81160  1  0  0  0
 81 84  1  0  0  0
 82161  1  0  0  0
 82162  1  0  0  0
 82 86  1  0  0  0
 83163  1  0  0  0
 83164  1  0  0  0
 84 87  1  0  0  0
 84 88  1  0  0  0
 85165  1  0  0  0
 86166  1  0  0  0
M  CHG  1  86   1
M  ISO  4   1 100  68 101  83 101  85 100
M  END
> <chiral flag>
0

> <version>
0

> <s_m_source_file>
/data/baiqing/PycharmProjects/Reinvent-master-3.2/result/LINK_invent/BTK/process_docking_weight1_custom_product_contain_oxygen_bond_distance_aromatic_linkinvent_7_9_3/rearranged_h_0021.sdf

> <i_m_source_file_index>
46

> <r_mmod_Potential_Energy-OPLS-2005>
85.7219619750977

> <r_mmod_Stretch_Energy-OPLS-2005>
87.8987579345703

> <r_mmod_Bend_Energy-OPLS-2005>
172.531982421875

> <r_mmod_Torsional_Energy-OPLS-2005>
326.955413818359

> <r_mmod_Improper_Torsional_Energy-OPLS-2005>
5.41609001159668

> <r_mmod_Van_der_Waal_Energy-OPLS-2005>
135.750076293945

> <r_mmod_Electrostatic_Energy-OPLS-2005>
-269.545104980469

> <r_mmod_Solvation_Energy-OPLS-2005>
-418.495300292969

> <b_mmod_Minimization_Converged-OPLS-2005>
0

> <r_mmod_RMS_Derivative-OPLS-2005>
1.82044982910156

$$$$
46
                    3D
 Structure written by MMmdl.
162171  0  0  1  0            999 V2000
  -30.6729  -14.6316   20.5091 C   0  0  0  0  0  0
  -30.4283  -12.3987   19.4452 C   0  0  0  0  0  0
  -29.4983  -12.4975   18.2184 C   0  0  0  0  0  0
  -28.0260  -12.3327   18.6409 C   0  0  0  0  0  0
  -27.6490  -13.2232   19.8551 C   0  0  2  0  0  0
  -28.6972  -13.1155   20.9856 C   0  0  0  0  0  0
  -25.2549  -13.8188   20.5687 C   0  0  0  0  0  0
  -24.1826  -13.0445   20.9190 C   0  0  0  0  0  0
  -24.6409  -11.6919   20.8753 C   0  0  0  0  0  0
  -23.9082  -10.4297   21.0411 C   0  0  0  0  0  0
  -24.3629   -9.4210   21.9185 C   0  0  0  0  0  0
  -23.6294   -8.2253   22.0759 C   0  0  0  0  0  0
  -22.4277   -8.0294   21.3554 C   0  0  0  0  0  0
  -21.9919   -9.0266   20.4657 C   0  0  0  0  0  0
  -22.7253  -10.2143   20.3059 C   0  0  0  0  0  0
  -21.6857   -6.0738   22.5270 C   0  0  0  0  0  0
  -21.4026   -6.5634   23.8207 C   0  0  0  0  0  0
  -21.3653   -5.6786   24.9164 C   0  0  0  0  0  0
  -21.6036   -4.3047   24.7216 C   0  0  0  0  0  0
  -21.8824   -3.8143   23.4337 C   0  0  0  0  0  0
  -21.9203   -4.6964   22.3400 C   0  0  0  0  0  0
  -22.7847  -13.5244   21.1828 C   0  0  0  0  0  0
  -22.1667   -4.2145   21.0980 F   0  0  0  0  0  0
  -21.5621   -3.4535   25.7733 F   0  0  0  0  0  0
  -30.0057  -13.4402   20.4040 N   0  0  0  0  0  0
  -26.2983  -12.9383   20.3314 N   0  0  0  0  0  0
  -25.9343  -11.6528   20.5777 N   0  0  0  0  0  0
  -22.0494  -12.8238   22.0384 N   0  0  0  0  0  0
  -25.4246  -15.1912   20.4088 N   0  0  0  0  0  0
  -31.8509  -14.7256   20.1584 O   0  0  0  0  0  0
  -21.6645   -6.8887   21.4236 O   0  0  0  0  0  0
  -22.3527  -14.5547   20.6670 O   0  0  0  0  0  0
  -24.6264  -31.8608   23.2037 C   0  0  0  0  0  0
  -25.9115  -32.4787   23.8372 C   0  0  1  0  0  0
  -27.2150  -27.3117   20.1188 C   0  0  0  0  0  0
  -25.5931  -33.8585   24.2293 N   0  0  0  0  0  0
  -23.4194  -30.4851   21.5489 C   0  0  2  0  0  0
  -24.8636  -28.9462   20.1075 C   0  0  0  0  0  0
  -22.7485  -29.4615   22.4954 C   0  0  0  0  0  0
  -18.0290  -28.1398   22.8502 C   0  0  0  0  0  0
  -24.1487  -36.7292   23.2638 C   0  0  0  0  0  0
  -25.9615  -30.7892   21.3766 C   0  0  0  0  0  0
  -26.0322  -29.4165   20.7191 C   0  0  0  0  0  0
  -27.2096  -28.6094   20.7185 C   0  0  0  0  0  0
  -26.0270  -26.9075   19.4630 C   0  0  0  0  0  0
  -24.8639  -27.6977   19.4698 C   0  0  0  0  0  0
  -23.6319  -29.8255   20.1618 C   0  0  0  0  0  0
  -25.4114  -36.3092   24.0331 C   0  0  1  0  0  0
  -20.5892  -28.3687   23.1306 C   0  0  2  0  0  0
  -20.6772  -26.9410   22.5426 C   0  0  0  0  0  0
  -19.5741  -26.6395   21.5230 C   0  0  0  0  0  0
  -18.1926  -26.7944   22.1643 C   0  0  0  0  0  0
  -19.1544  -28.8862   23.2897 C   0  0  0  0  0  0
  -18.9456  -30.1470   23.8898 C   0  0  0  0  0  0
  -17.6452  -30.6594   24.0571 C   0  0  0  0  0  0
  -25.9053  -34.9458   23.5115 C   0  0  0  0  0  0
  -16.5345  -29.9090   23.6339 C   0  0  0  0  0  0
  -16.7276  -28.6517   23.0352 C   0  0  0  0  0  0
  -26.4501  -31.6597   25.0737 C   0  0  0  0  0  0
  -25.3745  -31.3712   26.1472 C   0  0  0  0  0  0
  -27.0336  -30.3029   24.6168 C   0  0  0  0  0  0
  -27.6074  -32.4328   25.7496 C   0  0  0  0  0  0
  -27.5580  -37.1802   24.8468 C   0  0  0  0  0  0
  -21.4196  -29.3029   22.3698 N   0  0  0  0  0  0
  -26.4292  -37.3787   23.9411 N   0  0  0  0  0  0
  -24.6885  -31.0619   22.0995 N   0  0  0  0  0  0
  -23.4214  -28.8154   23.3030 O   0  0  0  0  0  0
  -28.3225  -26.4491   20.2019 O   0  0  0  0  0  0
  -26.5618  -34.8918   22.4679 O   0  0  0  0  0  0
  -23.5429  -32.1405   23.7363 O   0  0  0  0  0  0
  -29.2559  -18.7813   19.7270 C   0  0  0  0  0  0
  -29.9752  -20.9435   21.3686 C   0  0  0  0  0  0
  -28.9170  -20.1255   19.3651 C   0  0  0  0  0  0
  -29.9889  -18.4863   20.9008 C   0  0  0  0  0  0
  -29.3030  -21.2552   20.1612 C   0  0  0  0  0  0
  -30.3125  -19.6041   21.7214 C   0  0  0  0  0  0
  -31.1269  -23.8249   19.1622 C   0  0  0  0  0  0
  -30.5547  -24.3314   20.4873 C   0  0  0  0  0  0
  -30.0624  -22.8765   18.5942 C   0  0  0  0  0  0
  -29.0947  -23.8747   20.4782 C   0  0  2  0  0  0
  -28.1431  -20.3286   18.0707 C   0  0  0  0  0  0
  -30.5673  -17.0686   21.2742 C   0  0  0  0  0  0
  -28.1427  -25.0124   19.8701 C   0  0  0  0  0  0
  -29.1186  -22.6048   19.6786 N   0  0  0  0  0  0
  -29.9642  -15.7513   20.8628 N   0  0  0  0  0  0
  -31.0101  -19.3991   22.8648 F   0  0  0  0  0  0
  -31.4680  -12.5128   19.1320 H   0  0  0  0  0  0
  -30.3610  -11.4098   19.9042 H   0  0  0  0  0  0
  -29.7612  -11.7389   17.4805 H   0  0  0  0  0  0
  -29.6342  -13.4618   17.7259 H   0  0  0  0  0  0
  -27.8750  -11.2823   18.8939 H   0  0  0  0  0  0
  -27.3644  -12.5401   17.7990 H   0  0  0  0  0  0
  -27.6589  -14.2522   19.4928 H   0  0  0  0  0  0
  -28.7113  -12.1101   21.4107 H   0  0  0  0  0  0
  -28.4494  -13.7879   21.8087 H   0  0  0  0  0  0
  -25.2775   -9.5671   22.4751 H   0  0  0  0  0  0
  -23.9988   -7.4651   22.7488 H   0  0  0  0  0  0
  -21.0842   -8.8805   19.8972 H   0  0  0  0  0  0
  -22.3721  -10.9686   19.6168 H   0  0  0  0  0  0
  -21.2027   -7.6144   23.9706 H   0  0  0  0  0  0
  -21.1461   -6.0517   25.9067 H   0  0  0  0  0  0
  -22.0612   -2.7603   23.2842 H   0  0  0  0  0  0
  -22.4122  -11.9908   22.4774 H   0  0  0  0  0  0
  -21.1126  -13.1281   22.2614 H   0  0  0  0  0  0
  -24.6557  -15.8430   20.5175 H   0  0  0  0  0  0
  -26.2710  -15.6317   20.0701 H   0  0  0  0  0  0
  -26.7178  -32.5452   23.1120 H   0  0  0  0  0  0
  -25.0067  -33.9736   25.0430 H   0  0  0  0  0  0
  -22.7122  -31.3057   21.4105 H   0  0  0  0  0  0
  -23.3749  -35.9627   23.3307 H   0  0  0  0  0  0
  -24.3576  -36.8900   22.2050 H   0  0  0  0  0  0
  -23.7233  -37.6494   23.6658 H   0  0  0  0  0  0
  -26.0923  -31.5502   20.6057 H   0  0  0  0  0  0
  -26.8428  -30.8390   22.0048 H   0  0  0  0  0  0
  -28.1027  -28.9601   21.2163 H   0  0  0  0  0  0
  -25.9583  -25.9629   18.9452 H   0  0  0  0  0  0
  -23.9709  -27.3388   18.9768 H   0  0  0  0  0  0
  -23.7499  -30.6056   19.4084 H   0  0  0  0  0  0
  -22.7499  -29.2572   19.8589 H   0  0  0  0  0  0
  -25.1290  -36.1942   25.0821 H   0  0  0  0  0  0
  -20.9987  -28.3254   24.1428 H   0  0  0  0  0  0
  -20.5692  -26.2284   23.3619 H   0  0  0  0  0  0
  -21.6634  -26.7450   22.1204 H   0  0  0  0  0  0
  -19.6887  -25.6307   21.1251 H   0  0  0  0  0  0
  -19.6678  -27.3215   20.6766 H   0  0  0  0  0  0
  -17.4199  -26.6716   21.4041 H   0  0  0  0  0  0
  -18.0299  -26.0083   22.9027 H   0  0  0  0  0  0
  -19.7920  -30.7305   24.2257 H   0  0  0  0  0  0
  -17.4994  -31.6270   24.5173 H   0  0  0  0  0  0
  -15.5339  -30.2985   23.7664 H   0  0  0  0  0  0
  -15.8679  -28.0837   22.7058 H   0  0  0  0  0  0
  -24.5938  -30.7035   25.7805 H   0  0  0  0  0  0
  -24.8916  -32.2861   26.4915 H   0  0  0  0  0  0
  -25.8089  -30.8890   27.0239 H   0  0  0  0  0  0
  -26.2895  -29.6781   24.1212 H   0  0  0  0  0  0
  -27.4055  -29.7291   25.4663 H   0  0  0  0  0  0
  -27.8765  -30.4319   23.9372 H   0  0  0  0  0  0
  -27.2705  -33.3629   26.2087 H   0  0  0  0  0  0
  -28.3880  -32.6876   25.0313 H   0  0  0  0  0  0
  -28.0764  -31.8442   26.5392 H   0  0  0  0  0  0
  -28.2606  -38.0090   24.7513 H   0  0  0  0  0  0
  -28.1065  -36.2620   24.6306 H   0  0  0  0  0  0
  -27.2301  -37.1472   25.8872 H   0  0  0  0  0  0
  -20.9376  -29.8741   21.6895 H   0  0  0  0  0  0
  -26.0168  -38.2863   24.1415 H   0  0  0  0  0  0
  -28.9879  -17.9688   19.0670 H   0  0  0  0  0  0
  -30.3006  -21.7370   22.0228 H   0  0  0  0  0  0
  -32.0706  -23.3037   19.3344 H   0  0  0  0  0  0
  -31.3210  -24.6434   18.4678 H   0  0  0  0  0  0
  -30.6624  -25.4100   20.6116 H   0  0  0  0  0  0
  -31.0826  -23.8616   21.3186 H   0  0  0  0  0  0
  -30.5412  -21.9778   18.2000 H   0  0  0  0  0  0
  -29.5357  -23.3422   17.7600 H   0  0  0  0  0  0
  -28.7799  -23.6712   21.5024 H   0  0  0  0  0  0
  -27.4024  -21.1217   18.1783 H   0  0  0  0  0  0
  -27.6139  -19.4217   17.7804 H   0  0  0  0  0  0
  -28.8169  -20.5977   17.2582 H   0  0  0  0  0  0
  -30.6251  -17.0270   22.3620 H   0  0  0  0  0  0
  -31.6087  -17.0969   20.9505 H   0  0  0  0  0  0
  -27.1446  -24.6900   20.1671 H   0  0  0  0  0  0
  -28.1678  -24.9551   18.7816 H   0  0  0  0  0  0
  -28.9838  -15.6209   21.0576 H   0  0  0  0  0  0
  1 25  1  0  0  0
  1 30  2  0  0  0
  1 85  1  0  0  0
  2  3  1  0  0  0
  2 25  1  0  0  0
  2 87  1  0  0  0
  2 88  1  0  0  0
  3  4  1  0  0  0
  3 89  1  0  0  0
  3 90  1  0  0  0
  4  5  1  0  0  0
  4 91  1  0  0  0
  4 92  1  0  0  0
  5  6  1  0  0  0
  5 26  1  0  0  0
  5 93  1  0  0  0
  6 25  1  0  0  0
  6 94  1  0  0  0
  6 95  1  0  0  0
  7  8  2  0  0  0
  7 26  1  0  0  0
  7 29  1  0  0  0
  8  9  1  0  0  0
  8 22  1  0  0  0
  9 10  1  0  0  0
  9 27  2  0  0  0
 10 11  2  0  0  0
 10 15  1  0  0  0
 11 12  1  0  0  0
 11 96  1  0  0  0
 12 13  2  0  0  0
 12 97  1  0  0  0
 13 14  1  0  0  0
 13 31  1  0  0  0
 14 15  2  0  0  0
 14 98  1  0  0  0
 15 99  1  0  0  0
 16 17  2  0  0  0
 16 21  1  0  0  0
 16 31  1  0  0  0
 17 18  1  0  0  0
 17100  1  0  0  0
 18 19  2  0  0  0
 18101  1  0  0  0
 19 20  1  0  0  0
 19 24  1  0  0  0
 20 21  2  0  0  0
 20102  1  0  0  0
 21 23  1  0  0  0
 22 28  1  0  0  0
 22 32  2  0  0  0
 26 27  1  0  0  0
 28103  1  0  0  0
 28104  1  0  0  0
 29105  1  0  0  0
 29106  1  0  0  0
 33 34  1  0  0  0
 33 66  1  0  0  0
 33 70  2  0  0  0
 34 36  1  0  0  0
 34 59  1  0  0  0
 34107  1  0  0  0
 35 44  2  0  0  0
 35 45  1  0  0  0
 35 68  1  0  0  0
 36 56  1  0  0  0
 36108  1  0  0  0
 37 39  1  0  0  0
 37 47  1  0  0  0
 37 66  1  0  0  0
 37109  1  0  0  0
 38 43  2  0  0  0
 38 46  1  0  0  0
 38 47  1  0  0  0
 39 64  1  0  0  0
 39 67  2  0  0  0
 40 52  1  0  0  0
 40 53  2  0  0  0
 40 58  1  0  0  0
 41110  1  0  0  0
 41111  1  0  0  0
 41112  1  0  0  0
 41 48  1  0  0  0
 42 43  1  0  0  0
 42 66  1  0  0  0
 42113  1  0  0  0
 42114  1  0  0  0
 43 44  1  0  0  0
 44115  1  0  0  0
 45 46  2  0  0  0
 45116  1  0  0  0
 46117  1  0  0  0
 47118  1  0  0  0
 47119  1  0  0  0
 48 56  1  0  0  0
 48 65  1  0  0  0
 48120  1  0  0  0
 49 50  1  0  0  0
 49 53  1  0  0  0
 49 64  1  0  0  0
 49121  1  0  0  0
 50 51  1  0  0  0
 50122  1  0  0  0
 50123  1  0  0  0
 51 52  1  0  0  0
 51124  1  0  0  0
 51125  1  0  0  0
 52126  1  0  0  0
 52127  1  0  0  0
 53 54  1  0  0  0
 54 55  2  0  0  0
 54128  1  0  0  0
 55 57  1  0  0  0
 55129  1  0  0  0
 56 69  2  0  0  0
 57 58  2  0  0  0
 57130  1  0  0  0
 58131  1  0  0  0
 59 60  1  0  0  0
 59 61  1  0  0  0
 59 62  1  0  0  0
 60132  1  0  0  0
 60133  1  0  0  0
 60134  1  0  0  0
 61135  1  0  0  0
 61136  1  0  0  0
 61137  1  0  0  0
 62138  1  0  0  0
 62139  1  0  0  0
 62140  1  0  0  0
 63 65  1  0  0  0
 63141  1  0  0  0
 63142  1  0  0  0
 63143  1  0  0  0
 64144  1  0  0  0
 65145  1  0  0  0
 68 83  1  0  0  0
 71 73  2  0  0  0
 71 74  1  0  0  0
 71146  1  0  0  0
 72 75  2  0  0  0
 72 76  1  0  0  0
 72147  1  0  0  0
 73 75  1  0  0  0
 73 81  1  0  0  0
 74 76  2  0  0  0
 74 82  1  0  0  0
 75 84  1  0  0  0
 76 86  1  0  0  0
 77 78  1  0  0  0
 77 79  1  0  0  0
 77148  1  0  0  0
 77149  1  0  0  0
 78 80  1  0  0  0
 78150  1  0  0  0
 78151  1  0  0  0
 79 84  1  0  0  0
 79152  1  0  0  0
 79153  1  0  0  0
 80 83  1  0  0  0
 80 84  1  0  0  0
 80154  1  0  0  0
 81155  1  0  0  0
 81156  1  0  0  0
 81157  1  0  0  0
 82 85  1  0  0  0
 82158  1  0  0  0
 82159  1  0  0  0
 83160  1  0  0  0
 83161  1  0  0  0
 85162  1  0  0  0
M  ISO  4   1 100  68 101  83 101  85 100
M  END
> <chiral flag>
0

> <version>
0

> <s_m_source_file>
/data/baiqing/PycharmProjects/Reinvent-master-3.2/result/LINK_invent/BTK/process_docking_weight1_custom_product_contain_oxygen_bond_distance_aromatic_linkinvent_7_9_3/rearranged_h_0021.sdf

> <i_m_source_file_index>
47

> <r_mmod_Potential_Energy-OPLS-2005>
146.369003295898

> <r_mmod_Stretch_Energy-OPLS-2005>
82.6320343017578

> <r_mmod_Bend_Energy-OPLS-2005>
181.584609985352

> <r_mmod_Torsional_Energy-OPLS-2005>
287.382476806641

> <r_mmod_Improper_Torsional_Energy-OPLS-2005>
9.7637825012207

> <r_mmod_Van_der_Waal_Energy-OPLS-2005>
150.755035400391

> <r_mmod_Electrostatic_Energy-OPLS-2005>
-407.624542236328

> <r_mmod_Solvation_Energy-OPLS-2005>
-210.940994262695

> <b_mmod_Minimization_Converged-OPLS-2005>
0

> <r_mmod_RMS_Derivative-OPLS-2005>
1.7002717256546

$$$$
47
                    3D
 Structure written by MMmdl.
163172  0  0  1  0            999 V2000
  -30.6884  -14.4326   20.5987 C   0  0  0  0  0  0
  -30.4304  -12.2915   19.4091 C   0  0  0  0  0  0
  -29.4937  -12.5026   18.2006 C   0  0  0  0  0  0
  -28.0131  -12.3703   18.6111 C   0  0  0  0  0  0
  -27.6663  -13.1948   19.8793 C   0  0  2  0  0  0
  -28.7054  -12.9334   20.9942 C   0  0  0  0  0  0
  -25.2620  -13.8132   20.5667 C   0  0  0  0  0  0
  -24.1860  -13.0428   20.9180 C   0  0  0  0  0  0
  -24.6382  -11.6892   20.8721 C   0  0  0  0  0  0
  -23.9042  -10.4288   21.0405 C   0  0  0  0  0  0
  -24.3606   -9.4209   21.9183 C   0  0  0  0  0  0
  -23.6290   -8.2241   22.0751 C   0  0  0  0  0  0
  -22.4268   -8.0277   21.3549 C   0  0  0  0  0  0
  -21.9903   -9.0243   20.4643 C   0  0  0  0  0  0
  -22.7220  -10.2128   20.3054 C   0  0  0  0  0  0
  -21.6857   -6.0731   22.5282 C   0  0  0  0  0  0
  -21.4008   -6.5637   23.8212 C   0  0  0  0  0  0
  -21.3658   -5.6794   24.9176 C   0  0  0  0  0  0
  -21.6050   -4.3056   24.7233 C   0  0  0  0  0  0
  -21.8817   -3.8144   23.4352 C   0  0  0  0  0  0
  -21.9194   -4.6959   22.3407 C   0  0  0  0  0  0
  -22.7886  -13.5245   21.1834 C   0  0  0  0  0  0
  -22.1666   -4.2146   21.0985 F   0  0  0  0  0  0
  -21.5629   -3.4537   25.7745 F   0  0  0  0  0  0
  -30.0415  -13.2476   20.4546 N   0  0  0  0  0  0
  -26.3043  -12.9276   20.3364 N   0  0  0  0  0  0
  -25.9307  -11.6443   20.5758 N   0  0  0  0  0  0
  -22.0517  -12.8242   22.0381 N   0  0  0  0  0  0
  -25.4339  -15.1847   20.4060 N   0  0  0  0  0  0
  -31.7968  -14.6669   20.1114 O   0  0  0  0  0  0
  -21.6639   -6.8872   21.4240 O   0  0  0  0  0  0
  -22.3583  -14.5550   20.6676 O   0  0  0  0  0  0
  -24.6126  -31.8681   23.2119 C   0  0  0  0  0  0
  -25.9035  -32.4829   23.8384 C   0  0  1  0  0  0
  -27.2442  -27.4606   20.1066 C   0  0  0  0  0  0
  -25.5898  -33.8616   24.2328 N   0  0  0  0  0  0
  -23.3997  -30.4910   21.5506 C   0  0  2  0  0  0
  -24.8512  -28.9565   20.1236 C   0  0  0  0  0  0
  -22.7401  -29.4648   22.4987 C   0  0  0  0  0  0
  -18.0264  -28.1357   22.8482 C   0  0  0  0  0  0
  -24.1497  -36.7319   23.2632 C   0  0  0  0  0  0
  -25.9247  -30.8430   21.3614 C   0  0  0  0  0  0
  -26.0069  -29.4750   20.7234 C   0  0  0  0  0  0
  -27.2085  -28.7323   20.7218 C   0  0  0  0  0  0
  -26.0804  -26.9597   19.4921 C   0  0  0  0  0  0
  -24.8783  -27.6924   19.5100 C   0  0  0  0  0  0
  -23.6105  -29.8214   20.1670 C   0  0  0  0  0  0
  -25.4100  -36.3101   24.0353 C   0  0  1  0  0  0
  -20.5857  -28.3630   23.1317 C   0  0  2  0  0  0
  -20.6771  -26.9368   22.5410 C   0  0  0  0  0  0
  -19.5748  -26.6368   21.5201 C   0  0  0  0  0  0
  -18.1918  -26.7897   22.1608 C   0  0  0  0  0  0
  -19.1515  -28.8810   23.2894 C   0  0  0  0  0  0
  -18.9449  -30.1422   23.8888 C   0  0  0  0  0  0
  -17.6456  -30.6569   24.0562 C   0  0  0  0  0  0
  -25.9027  -34.9471   23.5133 C   0  0  0  0  0  0
  -16.5344  -29.9078   23.6320 C   0  0  0  0  0  0
  -16.7255  -28.6500   23.0327 C   0  0  0  0  0  0
  -26.4459  -31.6606   25.0701 C   0  0  0  0  0  0
  -25.3732  -31.3725   26.1460 C   0  0  0  0  0  0
  -27.0249  -30.3044   24.6032 C   0  0  0  0  0  0
  -27.6022  -32.4328   25.7491 C   0  0  0  0  0  0
  -27.5583  -37.1795   24.8450 C   0  0  0  0  0  0
  -21.4132  -29.3005   22.3733 N   0  0  0  0  0  0
  -26.4283  -37.3796   23.9424 N   0  0  0  0  0  0
  -24.6641  -31.0818   22.1002 N   0  0  0  0  0  0
  -23.4181  -28.8158   23.2995 O   0  0  0  0  0  0
  -28.3835  -26.7000   20.0015 O   0  0  0  0  0  0
  -26.5586  -34.8935   22.4686 O   0  0  0  0  0  0
  -23.5333  -32.1395   23.7558 O   0  0  0  0  0  0
  -30.4567  -17.1422   19.5676 C   0  0  0  0  0  0
  -32.0885  -19.6840   22.6756 C   0  0  0  0  0  0
  -32.0295  -21.0863   22.8193 C   0  0  0  0  0  0
  -29.8311  -21.0976   21.7847 C   0  0  0  0  0  0
  -31.0217  -18.9756   22.0822 C   0  0  0  0  0  0
  -29.8784  -19.6935   21.6494 C   0  0  0  0  0  0
  -30.9063  -21.8058   22.3622 C   0  0  0  0  0  0
  -31.1188  -17.4541   21.9362 C   0  0  0  0  0  0
  -28.6885  -18.9902   21.0238 C   0  0  0  0  0  0
  -28.6985  -17.4736   21.2515 C   0  0  0  0  0  0
  -30.0773  -16.8445   20.9673 C   0  0  1  0  0  0
  -29.3544  -25.0062   21.5727 C   0  0  0  0  0  0
  -30.5186  -23.9953   21.3234 C   0  0  0  0  0  0
  -29.2143  -26.5128   21.1578 C   0  0  0  0  0  0
  -30.7460  -17.3723   18.4682 N   0  0  0  0  0  0
  -30.8756  -23.2024   22.5052 N   0  0  0  0  0  0
  -29.9448  -15.3944   21.1651 N   0  0  0  0  0  0
  -31.4721  -12.4089   19.1048 H   0  0  0  0  0  0
  -30.3458  -11.2716   19.7852 H   0  0  0  0  0  0
  -29.7262  -11.7796   17.4175 H   0  0  0  0  0  0
  -29.6665  -13.4894   17.7671 H   0  0  0  0  0  0
  -27.8113  -11.3128   18.7882 H   0  0  0  0  0  0
  -27.3660  -12.6645   17.7839 H   0  0  0  0  0  0
  -27.7228  -14.2478   19.6030 H   0  0  0  0  0  0
  -28.6761  -11.8849   21.2948 H   0  0  0  0  0  0
  -28.4649  -13.4945   21.8979 H   0  0  0  0  0  0
  -25.2750   -9.5688   22.4755 H   0  0  0  0  0  0
  -24.0006   -7.4632   22.7466 H   0  0  0  0  0  0
  -21.0839   -8.8747   19.8948 H   0  0  0  0  0  0
  -22.3674  -10.9660   19.6165 H   0  0  0  0  0  0
  -21.1990   -7.6143   23.9712 H   0  0  0  0  0  0
  -21.1485   -6.0526   25.9081 H   0  0  0  0  0  0
  -22.0598   -2.7605   23.2855 H   0  0  0  0  0  0
  -22.4138  -11.9921   22.4792 H   0  0  0  0  0  0
  -21.1125  -13.1248   22.2551 H   0  0  0  0  0  0
  -24.6575  -15.8307   20.4998 H   0  0  0  0  0  0
  -26.2646  -15.6174   20.0254 H   0  0  0  0  0  0
  -26.7114  -32.5568   23.1159 H   0  0  0  0  0  0
  -25.0064  -33.9766   25.0488 H   0  0  0  0  0  0
  -22.6867  -31.3074   21.4112 H   0  0  0  0  0  0
  -23.3748  -35.9659   23.3281 H   0  0  0  0  0  0
  -24.3597  -36.8938   22.2044 H   0  0  0  0  0  0
  -23.7273  -37.6537   23.6649 H   0  0  0  0  0  0
  -26.0252  -31.6030   20.5850 H   0  0  0  0  0  0
  -26.8191  -30.9060   21.9706 H   0  0  0  0  0  0
  -28.1019  -29.1475   21.1650 H   0  0  0  0  0  0
  -26.1078  -25.9982   18.9989 H   0  0  0  0  0  0
  -23.9932  -27.2879   19.0398 H   0  0  0  0  0  0
  -23.7161  -30.5934   19.4025 H   0  0  0  0  0  0
  -22.7375  -29.2364   19.8735 H   0  0  0  0  0  0
  -25.1277  -36.1944   25.0852 H   0  0  0  0  0  0
  -20.9939  -28.3184   24.1443 H   0  0  0  0  0  0
  -20.5660  -26.2224   23.3585 H   0  0  0  0  0  0
  -21.6639  -26.7396   22.1197 H   0  0  0  0  0  0
  -19.6915  -25.6284   21.1219 H   0  0  0  0  0  0
  -19.6720  -27.3192   20.6742 H   0  0  0  0  0  0
  -17.4193  -26.6634   21.4019 H   0  0  0  0  0  0
  -18.0318  -26.0036   22.8993 H   0  0  0  0  0  0
  -19.7929  -30.7236   24.2255 H   0  0  0  0  0  0
  -17.5016  -31.6258   24.5147 H   0  0  0  0  0  0
  -15.5341  -30.2983   23.7668 H   0  0  0  0  0  0
  -15.8644  -28.0856   22.6999 H   0  0  0  0  0  0
  -24.5908  -30.7061   25.7816 H   0  0  0  0  0  0
  -24.8911  -32.2893   26.4861 H   0  0  0  0  0  0
  -25.8078  -30.8931   27.0231 H   0  0  0  0  0  0
  -26.2742  -29.6871   24.1073 H   0  0  0  0  0  0
  -27.4009  -29.7226   25.4449 H   0  0  0  0  0  0
  -27.8608  -30.4359   23.9153 H   0  0  0  0  0  0
  -27.2590  -33.3611   26.2068 H   0  0  0  0  0  0
  -28.3833  -32.6913   25.0333 H   0  0  0  0  0  0
  -28.0673  -31.8445   26.5409 H   0  0  0  0  0  0
  -28.2556  -38.0133   24.7530 H   0  0  0  0  0  0
  -28.1125  -36.2661   24.6218 H   0  0  0  0  0  0
  -27.2309  -37.1371   25.8854 H   0  0  0  0  0  0
  -20.9273  -29.8727   21.6977 H   0  0  0  0  0  0
  -26.0166  -38.2867   24.1450 H   0  0  0  0  0  0
  -32.9634  -19.1544   23.0248 H   0  0  0  0  0  0
  -32.8649  -21.6005   23.2757 H   0  0  0  0  0  0
  -28.9523  -21.6312   21.4498 H   0  0  0  0  0  0
  -30.9915  -17.0276   22.9323 H   0  0  0  0  0  0
  -32.1268  -17.1840   21.6175 H   0  0  0  0  0  0
  -28.6926  -19.2086   19.9554 H   0  0  0  0  0  0
  -27.7639  -19.4140   21.4195 H   0  0  0  0  0  0
  -27.9272  -17.0187   20.6285 H   0  0  0  0  0  0
  -28.4152  -17.2740   22.2865 H   0  0  0  0  0  0
  -29.3689  -24.9114   20.4903 H   0  0  0  0  0  0
  -30.0285  -25.4255   22.3241 H   0  0  0  0  0  0
  -31.4116  -24.5335   20.9960 H   0  0  0  0  0  0
  -30.2928  -23.3025   20.5048 H   0  0  0  0  0  0
  -30.1906  -26.9461   20.9257 H   0  0  0  0  0  0
  -28.8306  -27.0797   22.0093 H   0  0  0  0  0  0
  -31.6663  -23.5780   23.0234 H   0  0  0  0  0  0
  -29.0705  -15.0816   21.5576 H   0  0  0  0  0  0
  1 25  1  0  0  0
  1 30  2  0  0  0
  1 87  1  0  0  0
  2  3  1  0  0  0
  2 25  1  0  0  0
  2 88  1  0  0  0
  2 89  1  0  0  0
  3  4  1  0  0  0
  3 90  1  0  0  0
  3 91  1  0  0  0
  4  5  1  0  0  0
  4 92  1  0  0  0
  4 93  1  0  0  0
  5  6  1  0  0  0
  5 26  1  0  0  0
  5 94  1  0  0  0
  6 25  1  0  0  0
  6 95  1  0  0  0
  6 96  1  0  0  0
  7  8  2  0  0  0
  7 26  1  0  0  0
  7 29  1  0  0  0
  8  9  1  0  0  0
  8 22  1  0  0  0
  9 10  1  0  0  0
  9 27  2  0  0  0
 10 11  2  0  0  0
 10 15  1  0  0  0
 11 12  1  0  0  0
 11 97  1  0  0  0
 12 13  2  0  0  0
 12 98  1  0  0  0
 13 14  1  0  0  0
 13 31  1  0  0  0
 14 15  2  0  0  0
 14 99  1  0  0  0
 15100  1  0  0  0
 16 17  2  0  0  0
 16 21  1  0  0  0
 16 31  1  0  0  0
 17 18  1  0  0  0
 17101  1  0  0  0
 18 19  2  0  0  0
 18102  1  0  0  0
 19 20  1  0  0  0
 19 24  1  0  0  0
 20 21  2  0  0  0
 20103  1  0  0  0
 21 23  1  0  0  0
 22 28  1  0  0  0
 22 32  2  0  0  0
 26 27  1  0  0  0
 28104  1  0  0  0
 28105  1  0  0  0
 29106  1  0  0  0
 29107  1  0  0  0
 33 34  1  0  0  0
 33 66  1  0  0  0
 33 70  2  0  0  0
 34 36  1  0  0  0
 34 59  1  0  0  0
 34108  1  0  0  0
 35 44  2  0  0  0
 35 45  1  0  0  0
 35 68  1  0  0  0
 36 56  1  0  0  0
 36109  1  0  0  0
 37 39  1  0  0  0
 37 47  1  0  0  0
 37 66  1  0  0  0
 37110  1  0  0  0
 38 43  2  0  0  0
 38 46  1  0  0  0
 38 47  1  0  0  0
 39 64  1  0  0  0
 39 67  2  0  0  0
 40 52  1  0  0  0
 40 53  2  0  0  0
 40 58  1  0  0  0
 41111  1  0  0  0
 41112  1  0  0  0
 41113  1  0  0  0
 41 48  1  0  0  0
 42 43  1  0  0  0
 42 66  1  0  0  0
 42114  1  0  0  0
 42115  1  0  0  0
 43 44  1  0  0  0
 44116  1  0  0  0
 45 46  2  0  0  0
 45117  1  0  0  0
 46118  1  0  0  0
 47119  1  0  0  0
 47120  1  0  0  0
 48 56  1  0  0  0
 48 65  1  0  0  0
 48121  1  0  0  0
 49 50  1  0  0  0
 49 53  1  0  0  0
 49 64  1  0  0  0
 49122  1  0  0  0
 50 51  1  0  0  0
 50123  1  0  0  0
 50124  1  0  0  0
 51 52  1  0  0  0
 51125  1  0  0  0
 51126  1  0  0  0
 52127  1  0  0  0
 52128  1  0  0  0
 53 54  1  0  0  0
 54 55  2  0  0  0
 54129  1  0  0  0
 55 57  1  0  0  0
 55130  1  0  0  0
 56 69  2  0  0  0
 57 58  2  0  0  0
 57131  1  0  0  0
 58132  1  0  0  0
 59 60  1  0  0  0
 59 61  1  0  0  0
 59 62  1  0  0  0
 60133  1  0  0  0
 60134  1  0  0  0
 60135  1  0  0  0
 61136  1  0  0  0
 61137  1  0  0  0
 61138  1  0  0  0
 62139  1  0  0  0
 62140  1  0  0  0
 62141  1  0  0  0
 63 65  1  0  0  0
 63142  1  0  0  0
 63143  1  0  0  0
 63144  1  0  0  0
 64145  1  0  0  0
 65146  1  0  0  0
 68 84  1  0  0  0
 71 85  3  0  0  0
 71 81  1  0  0  0
 72 73  2  0  0  0
 72 75  1  0  0  0
 72147  1  0  0  0
 73 77  1  0  0  0
 73148  1  0  0  0
 74 76  1  0  0  0
 74 77  2  0  0  0
 74149  1  0  0  0
 75 76  2  0  0  0
 75 78  1  0  0  0
 76 79  1  0  0  0
 77 86  1  0  0  0
 78 81  1  0  0  0
 78150  1  0  0  0
 78151  1  0  0  0
 79 80  1  0  0  0
 79152  1  0  0  0
 79153  1  0  0  0
 80 81  1  0  0  0
 80154  1  0  0  0
 80155  1  0  0  0
 81 87  1  0  0  0
 82 83  1  0  0  0
 82 84  1  0  0  0
 82156  1  0  0  0
 82157  1  0  0  0
 83 86  1  0  0  0
 83158  1  0  0  0
 83159  1  0  0  0
 84160  1  0  0  0
 84161  1  0  0  0
 86162  1  0  0  0
 87163  1  0  0  0
M  ISO  4   1 100  68 101  84 101  87 100
M  END
> <chiral flag>
0

> <version>
0

> <s_m_source_file>
/data/baiqing/PycharmProjects/Reinvent-master-3.2/result/LINK_invent/BTK/process_docking_weight1_custom_product_contain_oxygen_bond_distance_aromatic_linkinvent_7_9_3/rearranged_h_0021.sdf

> <i_m_source_file_index>
48

> <r_mmod_Potential_Energy-OPLS-2005>
101.557144165039

> <r_mmod_Stretch_Energy-OPLS-2005>
37.3230400085449

> <r_mmod_Bend_Energy-OPLS-2005>
325.470642089844

> <r_mmod_Torsional_Energy-OPLS-2005>
227.18327331543

> <r_mmod_Improper_Torsional_Energy-OPLS-2005>
9.1525707244873

> <r_mmod_Van_der_Waal_Energy-OPLS-2005>
175.688568115234

> <r_mmod_Electrostatic_Energy-OPLS-2005>
-437.501190185547

> <r_mmod_Solvation_Energy-OPLS-2005>
-244.13786315918

> <b_mmod_Minimization_Converged-OPLS-2005>
0

> <r_mmod_RMS_Derivative-OPLS-2005>
2.50298738479614

$$$$
48
                    3D
 Structure written by MMmdl.
166175  0  0  1  0            999 V2000
  -30.6014  -14.7918   20.4295 C   0  0  0  0  0  0
  -30.4304  -12.4781   19.4676 C   0  0  0  0  0  0
  -29.5089  -12.5103   18.2292 C   0  0  0  0  0  0
  -28.0372  -12.3251   18.6506 C   0  0  0  0  0  0
  -27.6385  -13.2358   19.8446 C   0  0  2  0  0  0
  -28.6892  -13.1931   20.9761 C   0  0  0  0  0  0
  -25.2504  -13.8192   20.5705 C   0  0  0  0  0  0
  -24.1799  -13.0425   20.9197 C   0  0  0  0  0  0
  -24.6400  -11.6912   20.8733 C   0  0  0  0  0  0
  -23.9073  -10.4287   21.0398 C   0  0  0  0  0  0
  -24.3616   -9.4210   21.9185 C   0  0  0  0  0  0
  -23.6288   -8.2248   22.0764 C   0  0  0  0  0  0
  -22.4273   -8.0279   21.3546 C   0  0  0  0  0  0
  -21.9907   -9.0257   20.4653 C   0  0  0  0  0  0
  -22.7238  -10.2134   20.3063 C   0  0  0  0  0  0
  -21.6855   -6.0739   22.5283 C   0  0  0  0  0  0
  -21.4011   -6.5639   23.8217 C   0  0  0  0  0  0
  -21.3667   -5.6790   24.9177 C   0  0  0  0  0  0
  -21.6051   -4.3053   24.7224 C   0  0  0  0  0  0
  -21.8815   -3.8147   23.4342 C   0  0  0  0  0  0
  -21.9191   -4.6968   22.3403 C   0  0  0  0  0  0
  -22.7823  -13.5214   21.1861 C   0  0  0  0  0  0
  -22.1659   -4.2161   21.0976 F   0  0  0  0  0  0
  -21.5639   -3.4532   25.7734 F   0  0  0  0  0  0
  -29.9773  -13.5608   20.3748 N   0  0  0  0  0  0
  -26.2942  -12.9418   20.3284 N   0  0  0  0  0  0
  -25.9338  -11.6555   20.5741 N   0  0  0  0  0  0
  -22.0456  -12.8215   22.0412 N   0  0  0  0  0  0
  -25.4110  -15.1928   20.4149 N   0  0  0  0  0  0
  -31.7979  -14.8582   20.1333 O   0  0  0  0  0  0
  -21.6638   -6.8878   21.4244 O   0  0  0  0  0  0
  -22.3523  -14.5534   20.6727 O   0  0  0  0  0  0
  -24.6356  -31.8533   23.1918 C   0  0  0  0  0  0
  -25.9146  -32.4748   23.8303 C   0  0  1  0  0  0
  -27.2248  -27.2190   20.1283 C   0  0  0  0  0  0
  -25.5940  -33.8550   24.2243 N   0  0  0  0  0  0
  -23.4371  -30.4730   21.5370 C   0  0  2  0  0  0
  -24.8841  -28.9046   20.1172 C   0  0  0  0  0  0
  -22.7534  -29.4591   22.4872 C   0  0  0  0  0  0
  -18.0310  -28.1393   22.8452 C   0  0  0  0  0  0
  -24.1497  -36.7270   23.2648 C   0  0  0  0  0  0
  -25.9875  -30.7470   21.3820 C   0  0  0  0  0  0
  -26.0590  -29.3652   20.7254 C   0  0  0  0  0  0
  -27.2306  -28.5352   20.7163 C   0  0  0  0  0  0
  -26.0271  -26.8393   19.4844 C   0  0  0  0  0  0
  -24.8746  -27.6501   19.4886 C   0  0  0  0  0  0
  -23.6628  -29.8036   20.1567 C   0  0  0  0  0  0
  -25.4127  -36.3065   24.0331 C   0  0  1  0  0  0
  -20.5913  -28.3719   23.1227 C   0  0  2  0  0  0
  -20.6799  -26.9435   22.5383 C   0  0  0  0  0  0
  -19.5775  -26.6384   21.5195 C   0  0  0  0  0  0
  -18.1951  -26.7925   22.1604 C   0  0  0  0  0  0
  -19.1561  -28.8866   23.2840 C   0  0  0  0  0  0
  -18.9499  -30.1459   23.8889 C   0  0  0  0  0  0
  -17.6500  -30.6588   24.0552 C   0  0  0  0  0  0
  -25.9067  -34.9436   23.5086 C   0  0  0  0  0  0
  -16.5388  -29.9092   23.6328 C   0  0  0  0  0  0
  -16.7294  -28.6508   23.0340 C   0  0  0  0  0  0
  -26.4500  -31.6588   25.0711 C   0  0  0  0  0  0
  -25.3687  -31.3747   26.1408 C   0  0  0  0  0  0
  -27.0380  -30.3015   24.6211 C   0  0  0  0  0  0
  -27.6068  -32.4336   25.7471 C   0  0  0  0  0  0
  -27.5579  -37.1791   24.8469 C   0  0  0  0  0  0
  -21.4238  -29.3063   22.3619 N   0  0  0  0  0  0
  -26.4299  -37.3764   23.9406 N   0  0  0  0  0  0
  -24.7062  -31.0435   22.0931 N   0  0  0  0  0  0
  -23.4220  -28.8139   23.2992 O   0  0  0  0  0  0
  -28.3285  -26.3222   20.1469 O   0  0  0  0  0  0
  -26.5637  -34.8912   22.4651 O   0  0  0  0  0  0
  -23.5481  -32.1392   23.7155 O   0  0  0  0  0  0
  -29.4613  -18.5924   20.4246 C   0  0  0  0  0  0
  -31.5240  -18.8862   22.2062 C   0  0  0  0  0  0
  -29.7371  -19.9615   20.9039 C   0  0  0  0  0  0
  -30.7472  -20.0464   21.9313 C   0  0  0  0  0  0
  -30.1739  -17.3749   20.8400 C   0  0  0  0  0  0
  -31.2481  -17.6023   21.7203 C   0  0  0  0  0  0
  -29.3959  -23.9200   19.7625 C   0  0  0  0  0  0
  -30.7065  -23.1618   24.0484 C   0  0  0  0  0  0
  -31.2193  -22.0937   24.9910 C   0  0  0  0  0  0
  -30.1485  -22.3365   22.8998 C   0  0  0  0  0  0
  -31.6847  -20.9775   24.0527 C   0  0  0  0  0  0
  -30.7919  -22.0275   19.0445 C   0  0  0  0  0  0
  -28.9096  -21.2681   20.3776 C   0  0  0  0  0  0
  -28.1482  -24.8044   20.2560 C   0  0  0  0  0  0
  -31.0299  -21.1851   22.7484 N   0  0  0  0  0  0
  -29.8191  -15.9517   20.5172 N   0  0  0  0  0  0
  -29.6002  -22.5089   19.7709 N   0  0  0  0  0  0
  -30.2938  -24.6301   19.2929 O   0  0  0  0  0  0
  -31.9901  -16.5762   22.2001 F   0  0  0  0  0  0
  -31.4730  -12.5960   19.1678 H   0  0  0  0  0  0
  -30.3717  -11.5071   19.9617 H   0  0  0  0  0  0
  -29.7940  -11.7341   17.5172 H   0  0  0  0  0  0
  -29.6298  -13.4605   17.7066 H   0  0  0  0  0  0
  -27.9042  -11.2768   18.9229 H   0  0  0  0  0  0
  -27.3760  -12.5015   17.8016 H   0  0  0  0  0  0
  -27.6195  -14.2523   19.4511 H   0  0  0  0  0  0
  -28.7425  -12.1993   21.4243 H   0  0  0  0  0  0
  -28.4271  -13.8805   21.7824 H   0  0  0  0  0  0
  -25.2761   -9.5703   22.4760 H   0  0  0  0  0  0
  -24.0005   -7.4654   22.7500 H   0  0  0  0  0  0
  -21.0842   -8.8775   19.8963 H   0  0  0  0  0  0
  -22.3691  -10.9674   19.6181 H   0  0  0  0  0  0
  -21.1993   -7.6143   23.9725 H   0  0  0  0  0  0
  -21.1499   -6.0513   25.9084 H   0  0  0  0  0  0
  -22.0585   -2.7610   23.2831 H   0  0  0  0  0  0
  -22.4045  -11.9863   22.4786 H   0  0  0  0  0  0
  -21.1106  -13.1310   22.2663 H   0  0  0  0  0  0
  -24.6284  -15.8273   20.5283 H   0  0  0  0  0  0
  -26.2481  -15.6537   20.0824 H   0  0  0  0  0  0
  -26.7213  -32.5407   23.1049 H   0  0  0  0  0  0
  -25.0119  -33.9698   25.0406 H   0  0  0  0  0  0
  -22.7374  -31.2967   21.3812 H   0  0  0  0  0  0
  -23.3777  -35.9585   23.3319 H   0  0  0  0  0  0
  -24.3588  -36.8880   22.2061 H   0  0  0  0  0  0
  -23.7222  -37.6462   23.6663 H   0  0  0  0  0  0
  -26.1319  -31.5050   20.6111 H   0  0  0  0  0  0
  -26.8638  -30.7972   22.0172 H   0  0  0  0  0  0
  -28.1333  -28.8813   21.1994 H   0  0  0  0  0  0
  -25.9565  -25.8960   18.9656 H   0  0  0  0  0  0
  -23.9776  -27.2932   19.0024 H   0  0  0  0  0  0
  -23.8076  -30.5796   19.4032 H   0  0  0  0  0  0
  -22.7802  -29.2452   19.8395 H   0  0  0  0  0  0
  -25.1305  -36.1928   25.0824 H   0  0  0  0  0  0
  -21.0000  -28.3314   24.1349 H   0  0  0  0  0  0
  -20.5707  -26.2346   23.3598 H   0  0  0  0  0  0
  -21.6675  -26.7451   22.1193 H   0  0  0  0  0  0
  -19.6964  -25.6289   21.1247 H   0  0  0  0  0  0
  -19.6730  -27.3170   20.6705 H   0  0  0  0  0  0
  -17.4230  -26.6661   21.4003 H   0  0  0  0  0  0
  -18.0377  -26.0061   22.9002 H   0  0  0  0  0  0
  -19.7978  -30.7256   24.2276 H   0  0  0  0  0  0
  -17.5059  -31.6262   24.5167 H   0  0  0  0  0  0
  -15.5386  -30.3001   23.7644 H   0  0  0  0  0  0
  -15.8687  -28.0824   22.7067 H   0  0  0  0  0  0
  -24.5880  -30.7090   25.7697 H   0  0  0  0  0  0
  -24.8866  -32.2927   26.4783 H   0  0  0  0  0  0
  -25.7964  -30.8939   27.0217 H   0  0  0  0  0  0
  -26.2984  -29.6737   24.1238 H   0  0  0  0  0  0
  -27.4089  -29.7292   25.4719 H   0  0  0  0  0  0
  -27.8828  -30.4330   23.9451 H   0  0  0  0  0  0
  -27.2717  -33.3673   26.2002 H   0  0  0  0  0  0
  -28.3888  -32.6848   25.0287 H   0  0  0  0  0  0
  -28.0726  -31.8491   26.5417 H   0  0  0  0  0  0
  -28.2598  -38.0085   24.7523 H   0  0  0  0  0  0
  -28.1084  -36.2622   24.6310 H   0  0  0  0  0  0
  -27.2301  -37.1440   25.8872 H   0  0  0  0  0  0
  -20.9438  -29.8805   21.6827 H   0  0  0  0  0  0
  -26.0191  -38.2842   24.1410 H   0  0  0  0  0  0
  -28.6515  -18.4763   19.7184 H   0  0  0  0  0  0
  -32.3580  -18.9220   22.8898 H   0  0  0  0  0  0
  -31.5340  -23.7796   23.6943 H   0  0  0  0  0  0
  -29.9647  -23.8221   24.4989 H   0  0  0  0  0  0
  -30.3975  -21.7369   25.6133 H   0  0  0  0  0  0
  -32.0070  -22.4521   25.6543 H   0  0  0  0  0  0
  -30.1657  -22.9801   22.0358 H   0  0  0  0  0  0
  -29.1263  -22.0203   23.1135 H   0  0  0  0  0  0
  -31.4326  -20.0176   24.5095 H   0  0  0  0  0  0
  -32.7678  -21.0133   23.9253 H   0  0  0  0  0  0
  -31.0834  -22.6539   18.1982 H   0  0  0  0  0  0
  -30.6278  -21.0352   18.6210 H   0  0  0  0  0  0
  -31.6443  -21.9646   19.7219 H   0  0  0  0  0  0
  -28.2329  -21.5935   21.1648 H   0  0  0  0  0  0
  -28.2383  -20.9048   19.5990 H   0  0  0  0  0  0
  -27.2819  -24.4512   19.7023 H   0  0  0  0  0  0
  -27.9617  -24.5630   21.3026 H   0  0  0  0  0  0
  -28.8287  -15.7791   20.4676 H   0  0  0  0  0  0
  1 25  1  0  0  0
  1 30  2  0  0  0
  1 86  1  0  0  0
  2  3  1  0  0  0
  2 25  1  0  0  0
  2 90  1  0  0  0
  2 91  1  0  0  0
  3  4  1  0  0  0
  3 92  1  0  0  0
  3 93  1  0  0  0
  4  5  1  0  0  0
  4 94  1  0  0  0
  4 95  1  0  0  0
  5  6  1  0  0  0
  5 26  1  0  0  0
  5 96  1  0  0  0
  6 25  1  0  0  0
  6 97  1  0  0  0
  6 98  1  0  0  0
  7  8  2  0  0  0
  7 26  1  0  0  0
  7 29  1  0  0  0
  8  9  1  0  0  0
  8 22  1  0  0  0
  9 10  1  0  0  0
  9 27  2  0  0  0
 10 11  2  0  0  0
 10 15  1  0  0  0
 11 12  1  0  0  0
 11 99  1  0  0  0
 12 13  2  0  0  0
 12100  1  0  0  0
 13 14  1  0  0  0
 13 31  1  0  0  0
 14 15  2  0  0  0
 14101  1  0  0  0
 15102  1  0  0  0
 16 17  2  0  0  0
 16 21  1  0  0  0
 16 31  1  0  0  0
 17 18  1  0  0  0
 17103  1  0  0  0
 18 19  2  0  0  0
 18104  1  0  0  0
 19 20  1  0  0  0
 19 24  1  0  0  0
 20 21  2  0  0  0
 20105  1  0  0  0
 21 23  1  0  0  0
 22 28  1  0  0  0
 22 32  2  0  0  0
 26 27  1  0  0  0
 28106  1  0  0  0
 28107  1  0  0  0
 29108  1  0  0  0
 29109  1  0  0  0
 33 34  1  0  0  0
 33 66  1  0  0  0
 33 70  2  0  0  0
 34 36  1  0  0  0
 34 59  1  0  0  0
 34110  1  0  0  0
 35 44  2  0  0  0
 35 45  1  0  0  0
 35 68  1  0  0  0
 36 56  1  0  0  0
 36111  1  0  0  0
 37 39  1  0  0  0
 37 47  1  0  0  0
 37 66  1  0  0  0
 37112  1  0  0  0
 38 43  2  0  0  0
 38 46  1  0  0  0
 38 47  1  0  0  0
 39 64  1  0  0  0
 39 67  2  0  0  0
 40 52  1  0  0  0
 40 53  2  0  0  0
 40 58  1  0  0  0
 41113  1  0  0  0
 41114  1  0  0  0
 41115  1  0  0  0
 41 48  1  0  0  0
 42 43  1  0  0  0
 42 66  1  0  0  0
 42116  1  0  0  0
 42117  1  0  0  0
 43 44  1  0  0  0
 44118  1  0  0  0
 45 46  2  0  0  0
 45119  1  0  0  0
 46120  1  0  0  0
 47121  1  0  0  0
 47122  1  0  0  0
 48 56  1  0  0  0
 48 65  1  0  0  0
 48123  1  0  0  0
 49 50  1  0  0  0
 49 53  1  0  0  0
 49 64  1  0  0  0
 49124  1  0  0  0
 50 51  1  0  0  0
 50125  1  0  0  0
 50126  1  0  0  0
 51 52  1  0  0  0
 51127  1  0  0  0
 51128  1  0  0  0
 52129  1  0  0  0
 52130  1  0  0  0
 53 54  1  0  0  0
 54 55  2  0  0  0
 54131  1  0  0  0
 55 57  1  0  0  0
 55132  1  0  0  0
 56 69  2  0  0  0
 57 58  2  0  0  0
 57133  1  0  0  0
 58134  1  0  0  0
 59 60  1  0  0  0
 59 61  1  0  0  0
 59 62  1  0  0  0
 60135  1  0  0  0
 60136  1  0  0  0
 60137  1  0  0  0
 61138  1  0  0  0
 61139  1  0  0  0
 61140  1  0  0  0
 62141  1  0  0  0
 62142  1  0  0  0
 62143  1  0  0  0
 63 65  1  0  0  0
 63144  1  0  0  0
 63145  1  0  0  0
 63146  1  0  0  0
 64147  1  0  0  0
 65148  1  0  0  0
 68 84  1  0  0  0
 71 73  2  0  0  0
 71 75  1  0  0  0
 71149  1  0  0  0
 72 74  2  0  0  0
 72 76  1  0  0  0
 72150  1  0  0  0
 73 74  1  0  0  0
 73 83  1  0  0  0
 74 85  1  0  0  0
 75 76  2  0  0  0
 75 86  1  0  0  0
 76 89  1  0  0  0
 77 84  1  0  0  0
 77 87  1  0  0  0
 77 88  2  0  0  0
 78 79  1  0  0  0
 78 80  1  0  0  0
 78151  1  0  0  0
 78152  1  0  0  0
 79 81  1  0  0  0
 79153  1  0  0  0
 79154  1  0  0  0
 80 85  1  0  0  0
 80155  1  0  0  0
 80156  1  0  0  0
 81 85  1  0  0  0
 81157  1  0  0  0
 81158  1  0  0  0
 82 87  1  0  0  0
 82159  1  0  0  0
 82160  1  0  0  0
 82161  1  0  0  0
 83 87  1  0  0  0
 83162  1  0  0  0
 83163  1  0  0  0
 84164  1  0  0  0
 84165  1  0  0  0
 86166  1  0  0  0
M  ISO  4   1 100  68 101  84 101  86 100
M  END
> <chiral flag>
0

> <version>
0

> <s_m_source_file>
/data/baiqing/PycharmProjects/Reinvent-master-3.2/result/LINK_invent/BTK/process_docking_weight1_custom_product_contain_oxygen_bond_distance_aromatic_linkinvent_7_9_3/rearranged_h_0021.sdf

> <i_m_source_file_index>
49

> <r_mmod_Potential_Energy-OPLS-2005>
393.410278320312

> <r_mmod_Stretch_Energy-OPLS-2005>
182.247970581055

> <r_mmod_Bend_Energy-OPLS-2005>
262.315948486328

> <r_mmod_Torsional_Energy-OPLS-2005>
304.693725585938

> <r_mmod_Improper_Torsional_Energy-OPLS-2005>
11.3938055038452

> <r_mmod_Van_der_Waal_Energy-OPLS-2005>
169.602920532227

> <r_mmod_Electrostatic_Energy-OPLS-2005>
-377.108337402344

> <r_mmod_Solvation_Energy-OPLS-2005>
-265.987152099609

> <b_mmod_Minimization_Converged-OPLS-2005>
0

> <r_mmod_RMS_Derivative-OPLS-2005>
2.59171509742737

$$$$
49
                    3D
 Structure written by MMmdl.
159168  0  0  1  0            999 V2000
  -30.6626  -14.6300   20.5106 C   0  0  0  0  0  0
  -30.4271  -12.3917   19.4629 C   0  0  0  0  0  0
  -29.5047  -12.4925   18.2317 C   0  0  0  0  0  0
  -28.0296  -12.3303   18.6450 C   0  0  0  0  0  0
  -27.6492  -13.2188   19.8594 C   0  0  2  0  0  0
  -28.6895  -13.1054   20.9941 C   0  0  0  0  0  0
  -25.2565  -13.8190   20.5648 C   0  0  0  0  0  0
  -24.1836  -13.0468   20.9197 C   0  0  0  0  0  0
  -24.6398  -11.6940   20.8751 C   0  0  0  0  0  0
  -23.9054  -10.4310   21.0415 C   0  0  0  0  0  0
  -24.3620   -9.4221   21.9182 C   0  0  0  0  0  0
  -23.6299   -8.2254   22.0752 C   0  0  0  0  0  0
  -22.4284   -8.0293   21.3534 C   0  0  0  0  0  0
  -21.9906   -9.0265   20.4646 C   0  0  0  0  0  0
  -22.7226  -10.2147   20.3057 C   0  0  0  0  0  0
  -21.6855   -6.0756   22.5283 C   0  0  0  0  0  0
  -21.4009   -6.5655   23.8215 C   0  0  0  0  0  0
  -21.3663   -5.6800   24.9179 C   0  0  0  0  0  0
  -21.6034   -4.3062   24.7221 C   0  0  0  0  0  0
  -21.8828   -3.8161   23.4346 C   0  0  0  0  0  0
  -21.9197   -4.6986   22.3400 C   0  0  0  0  0  0
  -22.7838  -13.5271   21.1826 C   0  0  0  0  0  0
  -22.1668   -4.2180   21.0973 F   0  0  0  0  0  0
  -21.5631   -3.4531   25.7726 F   0  0  0  0  0  0
  -30.0001  -13.4362   20.4170 N   0  0  0  0  0  0
  -26.2982  -12.9361   20.3309 N   0  0  0  0  0  0
  -25.9334  -11.6515   20.5769 N   0  0  0  0  0  0
  -22.0484  -12.8269   22.0409 N   0  0  0  0  0  0
  -25.4324  -15.1889   20.4037 N   0  0  0  0  0  0
  -31.8383  -14.7245   20.1397 O   0  0  0  0  0  0
  -21.6646   -6.8905   21.4245 O   0  0  0  0  0  0
  -22.3545  -14.5570   20.6679 O   0  0  0  0  0  0
  -24.6329  -31.8667   23.2103 C   0  0  0  0  0  0
  -25.9200  -32.4778   23.8393 C   0  0  1  0  0  0
  -27.1853  -27.2895   20.1180 C   0  0  0  0  0  0
  -25.5999  -33.8553   24.2318 N   0  0  0  0  0  0
  -23.4203  -30.5018   21.5556 C   0  0  2  0  0  0
  -24.8573  -28.9510   20.1086 C   0  0  0  0  0  0
  -22.7519  -29.4725   22.4979 C   0  0  0  0  0  0
  -18.0282  -28.1388   22.8523 C   0  0  0  0  0  0
  -24.1472  -36.7280   23.2679 C   0  0  0  0  0  0
  -25.9679  -30.7811   21.3957 C   0  0  0  0  0  0
  -26.0254  -29.4096   20.7303 C   0  0  0  0  0  0
  -27.1869  -28.5816   20.7320 C   0  0  0  0  0  0
  -25.9956  -26.8959   19.4649 C   0  0  0  0  0  0
  -24.8429  -27.7019   19.4694 C   0  0  0  0  0  0
  -23.6386  -29.8531   20.1631 C   0  0  0  0  0  0
  -25.4100  -36.3069   24.0353 C   0  0  1  0  0  0
  -20.5902  -28.3725   23.1287 C   0  0  2  0  0  0
  -20.6797  -26.9457   22.5399 C   0  0  0  0  0  0
  -19.5753  -26.6427   21.5222 C   0  0  0  0  0  0
  -18.1947  -26.7906   22.1692 C   0  0  0  0  0  0
  -19.1551  -28.8861   23.2887 C   0  0  0  0  0  0
  -18.9459  -30.1443   23.8915 C   0  0  0  0  0  0
  -17.6472  -30.6613   24.0563 C   0  0  0  0  0  0
  -25.9067  -34.9424   23.5153 C   0  0  0  0  0  0
  -16.5362  -29.9157   23.6246 C   0  0  0  0  0  0
  -16.7258  -28.6546   23.0316 C   0  0  0  0  0  0
  -26.4656  -31.6572   25.0736 C   0  0  0  0  0  0
  -25.4006  -31.3530   26.1517 C   0  0  0  0  0  0
  -27.0638  -30.3027   24.6228 C   0  0  0  0  0  0
  -27.6154  -32.4434   25.7460 C   0  0  0  0  0  0
  -27.5548  -37.1807   24.8456 C   0  0  0  0  0  0
  -21.4242  -29.3126   22.3719 N   0  0  0  0  0  0
  -26.4244  -37.3780   23.9452 N   0  0  0  0  0  0
  -24.6917  -31.0697   22.1073 N   0  0  0  0  0  0
  -23.4228  -28.8180   23.2997 O   0  0  0  0  0  0
  -28.3020  -26.4457   20.2034 O   0  0  0  0  0  0
  -26.5593  -34.8894   22.4694 O   0  0  0  0  0  0
  -23.5495  -32.1416   23.7470 O   0  0  0  0  0  0
  -29.2824  -19.3073   21.6780 C   0  0  0  0  0  0
  -30.3060  -19.1041   19.5101 C   0  0  0  0  0  0
  -29.0593  -20.7059   21.4469 C   0  0  0  0  0  0
  -30.0987  -20.4970   19.2952 C   0  0  0  0  0  0
  -29.9588  -18.4814   20.7352 C   0  0  0  0  0  0
  -29.5153  -21.3557   20.2661 C   0  0  0  0  0  0
  -30.9077  -24.4528   21.0790 C   0  0  0  0  0  0
  -29.5806  -24.2957   21.8142 C   0  0  0  0  0  0
  -30.8609  -23.3538   19.9932 C   0  0  0  0  0  0
  -28.6756  -23.8230   20.6835 C   0  0  2  0  0  0
  -30.5835  -17.0971   21.1427 C   0  0  0  0  0  0
  -28.3106  -25.0426   19.7073 C   0  0  0  0  0  0
  -29.5077  -22.7757   20.0206 N   0  0  0  0  0  0
  -29.9620  -15.7574   20.8599 N   0  0  0  0  0  0
  -31.4688  -12.5038   19.1584 H   0  0  0  0  0  0
  -30.3587  -11.4059   19.9261 H   0  0  0  0  0  0
  -29.7762  -11.7328   17.4997 H   0  0  0  0  0  0
  -29.6463  -13.4578   17.7449 H   0  0  0  0  0  0
  -27.8709  -11.2797   18.8909 H   0  0  0  0  0  0
  -27.3757  -12.5403   17.8005 H   0  0  0  0  0  0
  -27.6658  -14.2483   19.5024 H   0  0  0  0  0  0
  -28.7035  -12.0942   21.4041 H   0  0  0  0  0  0
  -28.4340  -13.7656   21.8249 H   0  0  0  0  0  0
  -25.2778   -9.5713   22.4756 H   0  0  0  0  0  0
  -24.0035   -7.4646   22.7452 H   0  0  0  0  0  0
  -21.0855   -8.8787   19.8936 H   0  0  0  0  0  0
  -22.3693  -10.9700   19.6178 H   0  0  0  0  0  0
  -21.1989   -7.6155   23.9735 H   0  0  0  0  0  0
  -21.1467   -6.0514   25.9081 H   0  0  0  0  0  0
  -22.0599   -2.7623   23.2817 H   0  0  0  0  0  0
  -22.4097  -11.9946   22.4826 H   0  0  0  0  0  0
  -21.1095  -13.1285   22.2591 H   0  0  0  0  0  0
  -24.6657  -15.8455   20.5020 H   0  0  0  0  0  0
  -26.2811  -15.6164   20.0568 H   0  0  0  0  0  0
  -26.7233  -32.5369   23.1119 H   0  0  0  0  0  0
  -25.0066  -33.9624   25.0405 H   0  0  0  0  0  0
  -22.7085  -31.3230   21.4253 H   0  0  0  0  0  0
  -23.3722  -35.9612   23.3360 H   0  0  0  0  0  0
  -24.3598  -36.8869   22.2087 H   0  0  0  0  0  0
  -23.7258  -37.6494   23.6699 H   0  0  0  0  0  0
  -26.1115  -31.5526   20.6373 H   0  0  0  0  0  0
  -26.8506  -30.8143   22.0241 H   0  0  0  0  0  0
  -28.0708  -28.9166   21.2507 H   0  0  0  0  0  0
  -25.8906  -25.9567   18.9520 H   0  0  0  0  0  0
  -23.9447  -27.3428   18.9856 H   0  0  0  0  0  0
  -23.7910  -30.6527   19.4345 H   0  0  0  0  0  0
  -22.7483  -29.3133   19.8397 H   0  0  0  0  0  0
  -25.1281  -36.1886   25.0830 H   0  0  0  0  0  0
  -20.9864  -28.3239   24.1452 H   0  0  0  0  0  0
  -20.5650  -26.2374   23.3631 H   0  0  0  0  0  0
  -21.6656  -26.7506   22.1167 H   0  0  0  0  0  0
  -19.6932  -25.6340   21.1270 H   0  0  0  0  0  0
  -19.6608  -27.3246   20.6740 H   0  0  0  0  0  0
  -17.4185  -26.6639   21.4135 H   0  0  0  0  0  0
  -18.0326  -26.0029   22.9069 H   0  0  0  0  0  0
  -19.7917  -30.7266   24.2328 H   0  0  0  0  0  0
  -17.5029  -31.6248   24.5271 H   0  0  0  0  0  0
  -15.5371  -30.3132   23.7501 H   0  0  0  0  0  0
  -15.8638  -28.0901   22.7024 H   0  0  0  0  0  0
  -24.6159  -30.6958   25.7780 H   0  0  0  0  0  0
  -24.9314  -32.2623   26.5202 H   0  0  0  0  0  0
  -25.8478  -30.8486   27.0109 H   0  0  0  0  0  0
  -26.3196  -29.6537   24.1626 H   0  0  0  0  0  0
  -27.4718  -29.7497   25.4712 H   0  0  0  0  0  0
  -27.8865  -30.4258   23.9200 H   0  0  0  0  0  0
  -27.2650  -33.3659   26.2085 H   0  0  0  0  0  0
  -28.3844  -32.7164   25.0223 H   0  0  0  0  0  0
  -28.1022  -31.8648   26.5289 H   0  0  0  0  0  0
  -28.2579  -38.0087   24.7463 H   0  0  0  0  0  0
  -28.1047  -36.2623   24.6350 H   0  0  0  0  0  0
  -27.2275  -37.1533   25.8858 H   0  0  0  0  0  0
  -20.9447  -29.8956   21.7022 H   0  0  0  0  0  0
  -26.0120  -38.2836   24.1565 H   0  0  0  0  0  0
  -28.9978  -18.8856   22.6352 H   0  0  0  0  0  0
  -30.8240  -18.5346   18.7490 H   0  0  0  0  0  0
  -28.5990  -21.2872   22.2344 H   0  0  0  0  0  0
  -30.4501  -20.9243   18.3668 H   0  0  0  0  0  0
  -31.7679  -24.3684   21.7518 H   0  0  0  0  0  0
  -30.9336  -25.4419   20.6143 H   0  0  0  0  0  0
  -29.2250  -25.2052   22.3022 H   0  0  0  0  0  0
  -29.6677  -23.5249   22.5834 H   0  0  0  0  0  0
  -31.6383  -22.6121   20.1788 H   0  0  0  0  0  0
  -31.0563  -23.7839   19.0089 H   0  0  0  0  0  0
  -27.7693  -23.3915   21.1081 H   0  0  0  0  0  0
  -30.7436  -17.1337   22.2219 H   0  0  0  0  0  0
  -31.5916  -17.1135   20.7210 H   0  0  0  0  0  0
  -27.4343  -24.7360   19.1440 H   0  0  0  0  0  0
  -29.0818  -25.0850   18.9395 H   0  0  0  0  0  0
  -28.9931  -15.6323   21.1161 H   0  0  0  0  0  0
  1 25  1  0  0  0
  1 30  2  0  0  0
  1 84  1  0  0  0
  2  3  1  0  0  0
  2 25  1  0  0  0
  2 85  1  0  0  0
  2 86  1  0  0  0
  3  4  1  0  0  0
  3 87  1  0  0  0
  3 88  1  0  0  0
  4  5  1  0  0  0
  4 89  1  0  0  0
  4 90  1  0  0  0
  5  6  1  0  0  0
  5 26  1  0  0  0
  5 91  1  0  0  0
  6 25  1  0  0  0
  6 92  1  0  0  0
  6 93  1  0  0  0
  7  8  2  0  0  0
  7 26  1  0  0  0
  7 29  1  0  0  0
  8  9  1  0  0  0
  8 22  1  0  0  0
  9 10  1  0  0  0
  9 27  2  0  0  0
 10 11  2  0  0  0
 10 15  1  0  0  0
 11 12  1  0  0  0
 11 94  1  0  0  0
 12 13  2  0  0  0
 12 95  1  0  0  0
 13 14  1  0  0  0
 13 31  1  0  0  0
 14 15  2  0  0  0
 14 96  1  0  0  0
 15 97  1  0  0  0
 16 17  2  0  0  0
 16 21  1  0  0  0
 16 31  1  0  0  0
 17 18  1  0  0  0
 17 98  1  0  0  0
 18 19  2  0  0  0
 18 99  1  0  0  0
 19 20  1  0  0  0
 19 24  1  0  0  0
 20 21  2  0  0  0
 20100  1  0  0  0
 21 23  1  0  0  0
 22 28  1  0  0  0
 22 32  2  0  0  0
 26 27  1  0  0  0
 28101  1  0  0  0
 28102  1  0  0  0
 29103  1  0  0  0
 29104  1  0  0  0
 33 34  1  0  0  0
 33 66  1  0  0  0
 33 70  2  0  0  0
 34 36  1  0  0  0
 34 59  1  0  0  0
 34105  1  0  0  0
 35 44  2  0  0  0
 35 45  1  0  0  0
 35 68  1  0  0  0
 36 56  1  0  0  0
 36106  1  0  0  0
 37 39  1  0  0  0
 37 47  1  0  0  0
 37 66  1  0  0  0
 37107  1  0  0  0
 38 43  2  0  0  0
 38 46  1  0  0  0
 38 47  1  0  0  0
 39 64  1  0  0  0
 39 67  2  0  0  0
 40 52  1  0  0  0
 40 53  2  0  0  0
 40 58  1  0  0  0
 41108  1  0  0  0
 41109  1  0  0  0
 41110  1  0  0  0
 41 48  1  0  0  0
 42 43  1  0  0  0
 42 66  1  0  0  0
 42111  1  0  0  0
 42112  1  0  0  0
 43 44  1  0  0  0
 44113  1  0  0  0
 45 46  2  0  0  0
 45114  1  0  0  0
 46115  1  0  0  0
 47116  1  0  0  0
 47117  1  0  0  0
 48 56  1  0  0  0
 48 65  1  0  0  0
 48118  1  0  0  0
 49 50  1  0  0  0
 49 53  1  0  0  0
 49 64  1  0  0  0
 49119  1  0  0  0
 50 51  1  0  0  0
 50120  1  0  0  0
 50121  1  0  0  0
 51 52  1  0  0  0
 51122  1  0  0  0
 51123  1  0  0  0
 52124  1  0  0  0
 52125  1  0  0  0
 53 54  1  0  0  0
 54 55  2  0  0  0
 54126  1  0  0  0
 55 57  1  0  0  0
 55127  1  0  0  0
 56 69  2  0  0  0
 57 58  2  0  0  0
 57128  1  0  0  0
 58129  1  0  0  0
 59 60  1  0  0  0
 59 61  1  0  0  0
 59 62  1  0  0  0
 60130  1  0  0  0
 60131  1  0  0  0
 60132  1  0  0  0
 61133  1  0  0  0
 61134  1  0  0  0
 61135  1  0  0  0
 62136  1  0  0  0
 62137  1  0  0  0
 62138  1  0  0  0
 63 65  1  0  0  0
 63139  1  0  0  0
 63140  1  0  0  0
 63141  1  0  0  0
 64142  1  0  0  0
 65143  1  0  0  0
 68 82  1  0  0  0
 71 73  2  0  0  0
 71 75  1  0  0  0
 71144  1  0  0  0
 72 74  1  0  0  0
 72 75  2  0  0  0
 72145  1  0  0  0
 73 76  1  0  0  0
 73146  1  0  0  0
 74 76  2  0  0  0
 74147  1  0  0  0
 75 81  1  0  0  0
 76 83  1  0  0  0
 77 78  1  0  0  0
 77 79  1  0  0  0
 77148  1  0  0  0
 77149  1  0  0  0
 78 80  1  0  0  0
 78150  1  0  0  0
 78151  1  0  0  0
 79 83  1  0  0  0
 79152  1  0  0  0
 79153  1  0  0  0
 80 82  1  0  0  0
 80 83  1  0  0  0
 80154  1  0  0  0
 81 84  1  0  0  0
 81155  1  0  0  0
 81156  1  0  0  0
 82157  1  0  0  0
 82158  1  0  0  0
 84159  1  0  0  0
M  ISO  4   1 100  68 101  82 101  84 100
M  END
> <chiral flag>
0

> <version>
0

> <s_m_source_file>
/data/baiqing/PycharmProjects/Reinvent-master-3.2/result/LINK_invent/BTK/process_docking_weight1_custom_product_contain_oxygen_bond_distance_aromatic_linkinvent_7_9_3/rearranged_h_0021.sdf

> <i_m_source_file_index>
50

> <r_mmod_Potential_Energy-OPLS-2005>
167.540740966797

> <r_mmod_Stretch_Energy-OPLS-2005>
79.7425308227539

> <r_mmod_Bend_Energy-OPLS-2005>
206.320938110352

> <r_mmod_Torsional_Energy-OPLS-2005>
292.113128662109

> <r_mmod_Improper_Torsional_Energy-OPLS-2005>
11.2662229537964

> <r_mmod_Van_der_Waal_Energy-OPLS-2005>
151.043914794922

> <r_mmod_Electrostatic_Energy-OPLS-2005>
-409.900146484375

> <r_mmod_Solvation_Energy-OPLS-2005>
-219.620483398438

> <b_mmod_Minimization_Converged-OPLS-2005>
0

> <r_mmod_RMS_Derivative-OPLS-2005>
7.86694145202637

$$$$
50
                    3D
 Structure written by MMmdl.
159168  0  0  1  0            999 V2000
  -30.6680  -14.6366   20.4745 C   0  0  0  0  0  0
  -30.4186  -12.3896   19.4673 C   0  0  0  0  0  0
  -29.5072  -12.5034   18.2287 C   0  0  0  0  0  0
  -28.0297  -12.3453   18.6339 C   0  0  0  0  0  0
  -27.6451  -13.2294   19.8530 C   0  0  2  0  0  0
  -28.6858  -13.1332   20.9899 C   0  0  0  0  0  0
  -25.2529  -13.8205   20.5692 C   0  0  0  0  0  0
  -24.1813  -13.0453   20.9197 C   0  0  0  0  0  0
  -24.6397  -11.6927   20.8716 C   0  0  0  0  0  0
  -23.9074  -10.4301   21.0384 C   0  0  0  0  0  0
  -24.3632   -9.4219   21.9161 C   0  0  0  0  0  0
  -23.6306   -8.2255   22.0742 C   0  0  0  0  0  0
  -22.4279   -8.0286   21.3546 C   0  0  0  0  0  0
  -21.9919   -9.0251   20.4636 C   0  0  0  0  0  0
  -22.7245  -10.2130   20.3035 C   0  0  0  0  0  0
  -21.6859   -6.0727   22.5277 C   0  0  0  0  0  0
  -21.4019   -6.5630   23.8210 C   0  0  0  0  0  0
  -21.3666   -5.6776   24.9167 C   0  0  0  0  0  0
  -21.6053   -4.3042   24.7212 C   0  0  0  0  0  0
  -21.8829   -3.8140   23.4335 C   0  0  0  0  0  0
  -21.9207   -4.6957   22.3398 C   0  0  0  0  0  0
  -22.7837  -13.5240   21.1858 C   0  0  0  0  0  0
  -22.1668   -4.2142   21.0968 F   0  0  0  0  0  0
  -21.5635   -3.4531   25.7730 F   0  0  0  0  0  0
  -30.0009  -13.4415   20.4183 N   0  0  0  0  0  0
  -26.2950  -12.9406   20.3274 N   0  0  0  0  0  0
  -25.9324  -11.6546   20.5724 N   0  0  0  0  0  0
  -22.0473  -12.8228   22.0402 N   0  0  0  0  0  0
  -25.4241  -15.1927   20.4097 N   0  0  0  0  0  0
  -31.8482  -14.7095   20.1268 O   0  0  0  0  0  0
  -21.6661   -6.8867   21.4232 O   0  0  0  0  0  0
  -22.3510  -14.5523   20.6674 O   0  0  0  0  0  0
  -24.6245  -31.8597   23.2026 C   0  0  0  0  0  0
  -25.9095  -32.4772   23.8355 C   0  0  1  0  0  0
  -27.2229  -27.3419   20.1235 C   0  0  0  0  0  0
  -25.5916  -33.8572   24.2274 N   0  0  0  0  0  0
  -23.4163  -30.4816   21.5457 C   0  0  2  0  0  0
  -24.8615  -28.9336   20.1169 C   0  0  0  0  0  0
  -22.7442  -29.4636   22.4963 C   0  0  0  0  0  0
  -18.0270  -28.1401   22.8488 C   0  0  0  0  0  0
  -24.1488  -36.7303   23.2637 C   0  0  0  0  0  0
  -25.9530  -30.8013   21.3660 C   0  0  0  0  0  0
  -26.0289  -29.4290   20.7110 C   0  0  0  0  0  0
  -27.2175  -28.6450   20.7000 C   0  0  0  0  0  0
  -26.0361  -26.8820   19.5185 C   0  0  0  0  0  0
  -24.8643  -27.6641   19.5121 C   0  0  0  0  0  0
  -23.6281  -29.8103   20.1628 C   0  0  0  0  0  0
  -25.4110  -36.3076   24.0325 C   0  0  1  0  0  0
  -20.5866  -28.3709   23.1299 C   0  0  2  0  0  0
  -20.6775  -26.9437   22.5417 C   0  0  0  0  0  0
  -19.5755  -26.6394   21.5221 C   0  0  0  0  0  0
  -18.1927  -26.7944   22.1618 C   0  0  0  0  0  0
  -19.1526  -28.8868   23.2883 C   0  0  0  0  0  0
  -18.9445  -30.1467   23.8905 C   0  0  0  0  0  0
  -17.6447  -30.6601   24.0580 C   0  0  0  0  0  0
  -25.9048  -34.9445   23.5098 C   0  0  0  0  0  0
  -16.5340  -29.9098   23.6340 C   0  0  0  0  0  0
  -16.7257  -28.6517   23.0358 C   0  0  0  0  0  0
  -26.4492  -31.6583   25.0725 C   0  0  0  0  0  0
  -25.3745  -31.3721   26.1469 C   0  0  0  0  0  0
  -27.0337  -30.3006   24.6188 C   0  0  0  0  0  0
  -27.6032  -32.4338   25.7506 C   0  0  0  0  0  0
  -27.5577  -37.1803   24.8457 C   0  0  0  0  0  0
  -21.4156  -29.3059   22.3695 N   0  0  0  0  0  0
  -26.4285  -37.3773   23.9400 N   0  0  0  0  0  0
  -24.6836  -31.0638   22.0955 N   0  0  0  0  0  0
  -23.4151  -28.8175   23.3040 O   0  0  0  0  0  0
  -28.3462  -26.5187   20.1134 O   0  0  0  0  0  0
  -26.5610  -34.8910   22.4664 O   0  0  0  0  0  0
  -23.5420  -32.1379   23.7373 O   0  0  0  0  0  0
  -29.2227  -19.3041   19.4289 C   0  0  0  0  0  0
  -28.9712  -20.7036   19.5852 C   0  0  0  0  0  0
  -30.0150  -19.1702   21.6924 C   0  0  0  0  0  0
  -29.8050  -18.5129   20.4588 C   0  0  0  0  0  0
  -29.2965  -21.3925   20.7838 C   0  0  0  0  0  0
  -29.7654  -20.5644   21.8560 C   0  0  0  0  0  0
  -31.0033  -23.7412   19.5056 C   0  0  0  0  0  0
  -29.6397  -24.0936   18.9069 C   0  0  0  0  0  0
  -30.6933  -23.2959   20.9355 C   0  0  0  0  0  0
  -28.6282  -23.8463   20.0379 C   0  0  2  0  0  0
  -30.4545  -17.1177   20.1508 C   0  0  0  0  0  0
  -28.2498  -25.2133   20.7925 C   0  0  0  0  0  0
  -29.3050  -22.8337   20.9141 N   0  0  0  0  0  0
  -29.9493  -15.7928   20.6550 N   0  0  0  0  0  0
  -30.1276  -21.2544   23.4034 Cl  0  0  0  0  0  0
  -31.4648  -12.4819   19.1686 H   0  0  0  0  0  0
  -30.3262  -11.4055   19.9272 H   0  0  0  0  0  0
  -29.7780  -11.7487   17.4888 H   0  0  0  0  0  0
  -29.6576  -13.4712   17.7470 H   0  0  0  0  0  0
  -27.8647  -11.2927   18.8683 H   0  0  0  0  0  0
  -27.3828  -12.5714   17.7855 H   0  0  0  0  0  0
  -27.6517  -14.2585   19.4944 H   0  0  0  0  0  0
  -28.6899  -12.1340   21.4270 H   0  0  0  0  0  0
  -28.4367  -13.8214   21.7984 H   0  0  0  0  0  0
  -25.2769   -9.5712   22.4739 H   0  0  0  0  0  0
  -24.0029   -7.4652   22.7460 H   0  0  0  0  0  0
  -21.0854   -8.8752   19.8938 H   0  0  0  0  0  0
  -22.3686  -10.9663   19.6151 H   0  0  0  0  0  0
  -21.1992   -7.6133   23.9712 H   0  0  0  0  0  0
  -21.1488   -6.0496   25.9066 H   0  0  0  0  0  0
  -22.0605   -2.7601   23.2839 H   0  0  0  0  0  0
  -22.4088  -11.9908   22.4815 H   0  0  0  0  0  0
  -21.1078  -13.1237   22.2567 H   0  0  0  0  0  0
  -24.6578  -15.8482   20.5150 H   0  0  0  0  0  0
  -26.2723  -15.6316   20.0735 H   0  0  0  0  0  0
  -26.7171  -32.5449   23.1114 H   0  0  0  0  0  0
  -25.0068  -33.9727   25.0425 H   0  0  0  0  0  0
  -22.7125  -31.3034   21.4007 H   0  0  0  0  0  0
  -23.3740  -35.9646   23.3290 H   0  0  0  0  0  0
  -24.3592  -36.8942   22.2055 H   0  0  0  0  0  0
  -23.7249  -37.6503   23.6677 H   0  0  0  0  0  0
  -26.0798  -31.5654   20.5974 H   0  0  0  0  0  0
  -26.8334  -30.8511   21.9941 H   0  0  0  0  0  0
  -28.1212  -29.0221   21.1579 H   0  0  0  0  0  0
  -26.0149  -25.9057   19.0567 H   0  0  0  0  0  0
  -23.9655  -27.2781   19.0517 H   0  0  0  0  0  0
  -23.7434  -30.5834   19.4018 H   0  0  0  0  0  0
  -22.7491  -29.2350   19.8663 H   0  0  0  0  0  0
  -25.1297  -36.1930   25.0822 H   0  0  0  0  0  0
  -20.9957  -28.3285   24.1417 H   0  0  0  0  0  0
  -20.5718  -26.2305   23.3610 H   0  0  0  0  0  0
  -21.6642  -26.7510   22.1189 H   0  0  0  0  0  0
  -19.6933  -25.6297   21.1264 H   0  0  0  0  0  0
  -19.6704  -27.3191   20.6743 H   0  0  0  0  0  0
  -17.4205  -26.6696   21.4005 H   0  0  0  0  0  0
  -18.0329  -26.0088   22.9015 H   0  0  0  0  0  0
  -19.7923  -30.7292   24.2266 H   0  0  0  0  0  0
  -17.5004  -31.6287   24.5169 H   0  0  0  0  0  0
  -15.5343  -30.3015   23.7656 H   0  0  0  0  0  0
  -15.8653  -28.0843   22.7080 H   0  0  0  0  0  0
  -24.5896  -30.7104   25.7804 H   0  0  0  0  0  0
  -24.8976  -32.2893   26.4938 H   0  0  0  0  0  0
  -25.8084  -30.8862   27.0220 H   0  0  0  0  0  0
  -26.2914  -29.6754   24.1213 H   0  0  0  0  0  0
  -27.4019  -29.7272   25.4705 H   0  0  0  0  0  0
  -27.8789  -30.4274   23.9417 H   0  0  0  0  0  0
  -27.2608  -33.3618   26.2103 H   0  0  0  0  0  0
  -28.3836  -32.6943   25.0342 H   0  0  0  0  0  0
  -28.0726  -31.8472   26.5421 H   0  0  0  0  0  0
  -28.2574  -38.0117   24.7518 H   0  0  0  0  0  0
  -28.1088  -36.2646   24.6260 H   0  0  0  0  0  0
  -27.2307  -37.1435   25.8863 H   0  0  0  0  0  0
  -20.9328  -29.8747   21.6882 H   0  0  0  0  0  0
  -26.0164  -38.2844   24.1410 H   0  0  0  0  0  0
  -29.0426  -18.8610   18.4594 H   0  0  0  0  0  0
  -28.5980  -21.2551   18.7344 H   0  0  0  0  0  0
  -30.4664  -18.6261   22.5098 H   0  0  0  0  0  0
  -31.7016  -24.5786   19.4815 H   0  0  0  0  0  0
  -31.4527  -22.9214   18.9408 H   0  0  0  0  0  0
  -29.4277  -23.4267   18.0698 H   0  0  0  0  0  0
  -29.6124  -25.1103   18.5141 H   0  0  0  0  0  0
  -30.7869  -24.1335   21.6295 H   0  0  0  0  0  0
  -31.4139  -22.5457   21.2642 H   0  0  0  0  0  0
  -27.7132  -23.4331   19.6077 H   0  0  0  0  0  0
  -31.4887  -17.2156   20.4861 H   0  0  0  0  0  0
  -30.5308  -17.0350   19.0649 H   0  0  0  0  0  0
  -28.9082  -25.3285   21.6533 H   0  0  0  0  0  0
  -27.2625  -25.0907   21.2419 H   0  0  0  0  0  0
  -28.9797  -15.7237   20.9238 H   0  0  0  0  0  0
  1 25  1  0  0  0
  1 30  2  0  0  0
  1 84  1  0  0  0
  2  3  1  0  0  0
  2 25  1  0  0  0
  2 86  1  0  0  0
  2 87  1  0  0  0
  3  4  1  0  0  0
  3 88  1  0  0  0
  3 89  1  0  0  0
  4  5  1  0  0  0
  4 90  1  0  0  0
  4 91  1  0  0  0
  5  6  1  0  0  0
  5 26  1  0  0  0
  5 92  1  0  0  0
  6 25  1  0  0  0
  6 93  1  0  0  0
  6 94  1  0  0  0
  7  8  2  0  0  0
  7 26  1  0  0  0
  7 29  1  0  0  0
  8  9  1  0  0  0
  8 22  1  0  0  0
  9 10  1  0  0  0
  9 27  2  0  0  0
 10 11  2  0  0  0
 10 15  1  0  0  0
 11 12  1  0  0  0
 11 95  1  0  0  0
 12 13  2  0  0  0
 12 96  1  0  0  0
 13 14  1  0  0  0
 13 31  1  0  0  0
 14 15  2  0  0  0
 14 97  1  0  0  0
 15 98  1  0  0  0
 16 17  2  0  0  0
 16 21  1  0  0  0
 16 31  1  0  0  0
 17 18  1  0  0  0
 17 99  1  0  0  0
 18 19  2  0  0  0
 18100  1  0  0  0
 19 20  1  0  0  0
 19 24  1  0  0  0
 20 21  2  0  0  0
 20101  1  0  0  0
 21 23  1  0  0  0
 22 28  1  0  0  0
 22 32  2  0  0  0
 26 27  1  0  0  0
 28102  1  0  0  0
 28103  1  0  0  0
 29104  1  0  0  0
 29105  1  0  0  0
 33 34  1  0  0  0
 33 66  1  0  0  0
 33 70  2  0  0  0
 34 36  1  0  0  0
 34 59  1  0  0  0
 34106  1  0  0  0
 35 44  2  0  0  0
 35 45  1  0  0  0
 35 68  1  0  0  0
 36 56  1  0  0  0
 36107  1  0  0  0
 37 39  1  0  0  0
 37 47  1  0  0  0
 37 66  1  0  0  0
 37108  1  0  0  0
 38 43  2  0  0  0
 38 46  1  0  0  0
 38 47  1  0  0  0
 39 64  1  0  0  0
 39 67  2  0  0  0
 40 52  1  0  0  0
 40 53  2  0  0  0
 40 58  1  0  0  0
 41109  1  0  0  0
 41110  1  0  0  0
 41111  1  0  0  0
 41 48  1  0  0  0
 42 43  1  0  0  0
 42 66  1  0  0  0
 42112  1  0  0  0
 42113  1  0  0  0
 43 44  1  0  0  0
 44114  1  0  0  0
 45 46  2  0  0  0
 45115  1  0  0  0
 46116  1  0  0  0
 47117  1  0  0  0
 47118  1  0  0  0
 48 56  1  0  0  0
 48 65  1  0  0  0
 48119  1  0  0  0
 49 50  1  0  0  0
 49 53  1  0  0  0
 49 64  1  0  0  0
 49120  1  0  0  0
 50 51  1  0  0  0
 50121  1  0  0  0
 50122  1  0  0  0
 51 52  1  0  0  0
 51123  1  0  0  0
 51124  1  0  0  0
 52125  1  0  0  0
 52126  1  0  0  0
 53 54  1  0  0  0
 54 55  2  0  0  0
 54127  1  0  0  0
 55 57  1  0  0  0
 55128  1  0  0  0
 56 69  2  0  0  0
 57 58  2  0  0  0
 57129  1  0  0  0
 58130  1  0  0  0
 59 60  1  0  0  0
 59 61  1  0  0  0
 59 62  1  0  0  0
 60131  1  0  0  0
 60132  1  0  0  0
 60133  1  0  0  0
 61134  1  0  0  0
 61135  1  0  0  0
 61136  1  0  0  0
 62137  1  0  0  0
 62138  1  0  0  0
 62139  1  0  0  0
 63 65  1  0  0  0
 63140  1  0  0  0
 63141  1  0  0  0
 63142  1  0  0  0
 64143  1  0  0  0
 65144  1  0  0  0
 68 82  1  0  0  0
 71 72  2  0  0  0
 71 74  1  0  0  0
 71145  1  0  0  0
 72 75  1  0  0  0
 72146  1  0  0  0
 73 74  2  0  0  0
 73 76  1  0  0  0
 73147  1  0  0  0
 74 81  1  0  0  0
 75 76  2  0  0  0
 75 83  1  0  0  0
 76 85  1  0  0  0
 77 78  1  0  0  0
 77 79  1  0  0  0
 77148  1  0  0  0
 77149  1  0  0  0
 78 80  1  0  0  0
 78150  1  0  0  0
 78151  1  0  0  0
 79 83  1  0  0  0
 79152  1  0  0  0
 79153  1  0  0  0
 80 82  1  0  0  0
 80 83  1  0  0  0
 80154  1  0  0  0
 81 84  1  0  0  0
 81155  1  0  0  0
 81156  1  0  0  0
 82157  1  0  0  0
 82158  1  0  0  0
 84159  1  0  0  0
M  ISO  4   1 100  68 101  82 101  84 100
M  END
> <chiral flag>
0

> <version>
0

> <s_m_source_file>
/data/baiqing/PycharmProjects/Reinvent-master-3.2/result/LINK_invent/BTK/process_docking_weight1_custom_product_contain_oxygen_bond_distance_aromatic_linkinvent_7_9_3/rearranged_h_0021.sdf

> <i_m_source_file_index>
51

> <r_mmod_Potential_Energy-OPLS-2005>
202.340545654297

> <r_mmod_Stretch_Energy-OPLS-2005>
77.2297897338867

> <r_mmod_Bend_Energy-OPLS-2005>
181.316467285156

> <r_mmod_Torsional_Energy-OPLS-2005>
330.058685302734

> <r_mmod_Improper_Torsional_Energy-OPLS-2005>
15.2025270462036

> <r_mmod_Van_der_Waal_Energy-OPLS-2005>
144.528259277344

> <r_mmod_Electrostatic_Energy-OPLS-2005>
-375.354095458984

> <r_mmod_Solvation_Energy-OPLS-2005>
-215.586273193359

> <b_mmod_Minimization_Converged-OPLS-2005>
0

> <r_mmod_RMS_Derivative-OPLS-2005>
2.38005375862122

$$$$
51
                    3D
 Structure written by MMmdl.
159167  0  0  1  0            999 V2000
  -30.7012  -14.4378   20.6125 C   0  0  0  0  0  0
  -30.4326  -12.3001   19.4041 C   0  0  0  0  0  0
  -29.4933  -12.5046   18.1970 C   0  0  0  0  0  0
  -28.0136  -12.3701   18.6121 C   0  0  0  0  0  0
  -27.6681  -13.1968   19.8784 C   0  0  2  0  0  0
  -28.7080  -12.9374   20.9911 C   0  0  0  0  0  0
  -25.2631  -13.8136   20.5661 C   0  0  0  0  0  0
  -24.1867  -13.0442   20.9176 C   0  0  0  0  0  0
  -24.6394  -11.6900   20.8736 C   0  0  0  0  0  0
  -23.9055  -10.4294   21.0406 C   0  0  0  0  0  0
  -24.3610   -9.4213   21.9191 C   0  0  0  0  0  0
  -23.6288   -8.2245   22.0760 C   0  0  0  0  0  0
  -22.4277   -8.0269   21.3545 C   0  0  0  0  0  0
  -21.9902   -9.0242   20.4653 C   0  0  0  0  0  0
  -22.7224  -10.2127   20.3060 C   0  0  0  0  0  0
  -21.6856   -6.0736   22.5281 C   0  0  0  0  0  0
  -21.4005   -6.5645   23.8211 C   0  0  0  0  0  0
  -21.3656   -5.6798   24.9179 C   0  0  0  0  0  0
  -21.6047   -4.3055   24.7226 C   0  0  0  0  0  0
  -21.8819   -3.8149   23.4346 C   0  0  0  0  0  0
  -21.9192   -4.6966   22.3407 C   0  0  0  0  0  0
  -22.7895  -13.5258   21.1828 C   0  0  0  0  0  0
  -22.1665   -4.2156   21.0985 F   0  0  0  0  0  0
  -21.5632   -3.4536   25.7736 F   0  0  0  0  0  0
  -30.0436  -13.2582   20.4497 N   0  0  0  0  0  0
  -26.3063  -12.9284   20.3379 N   0  0  0  0  0  0
  -25.9318  -11.6458   20.5766 N   0  0  0  0  0  0
  -22.0521  -12.8251   22.0374 N   0  0  0  0  0  0
  -25.4391  -15.1840   20.4043 N   0  0  0  0  0  0
  -31.8013  -14.6736   20.1002 O   0  0  0  0  0  0
  -21.6640   -6.8874   21.4238 O   0  0  0  0  0  0
  -22.3594  -14.5566   20.6682 O   0  0  0  0  0  0
  -24.6123  -31.8675   23.2094 C   0  0  0  0  0  0
  -25.9018  -32.4830   23.8389 C   0  0  1  0  0  0
  -27.2462  -27.4511   20.0956 C   0  0  0  0  0  0
  -25.5851  -33.8620   24.2330 N   0  0  0  0  0  0
  -23.4016  -30.4895   21.5476 C   0  0  2  0  0  0
  -24.8507  -28.9506   20.1196 C   0  0  0  0  0  0
  -22.7414  -29.4658   22.4985 C   0  0  0  0  0  0
  -18.0278  -28.1368   22.8523 C   0  0  0  0  0  0
  -24.1475  -36.7304   23.2643 C   0  0  0  0  0  0
  -25.9281  -30.8387   21.3572 C   0  0  0  0  0  0
  -26.0098  -29.4700   20.7128 C   0  0  0  0  0  0
  -27.2112  -28.7279   20.6997 C   0  0  0  0  0  0
  -26.0722  -26.9365   19.5060 C   0  0  0  0  0  0
  -24.8756  -27.6801   19.5167 C   0  0  0  0  0  0
  -23.6113  -29.8162   20.1647 C   0  0  0  0  0  0
  -25.4098  -36.3111   24.0351 C   0  0  1  0  0  0
  -20.5879  -28.3630   23.1333 C   0  0  2  0  0  0
  -20.6773  -26.9359   22.5423 C   0  0  0  0  0  0
  -19.5740  -26.6375   21.5226 C   0  0  0  0  0  0
  -18.1925  -26.7934   22.1627 C   0  0  0  0  0  0
  -19.1535  -28.8821   23.2928 C   0  0  0  0  0  0
  -18.9463  -30.1443   23.8909 C   0  0  0  0  0  0
  -17.6468  -30.6581   24.0571 C   0  0  0  0  0  0
  -25.9022  -34.9482   23.5146 C   0  0  0  0  0  0
  -16.5357  -29.9082   23.6328 C   0  0  0  0  0  0
  -16.7272  -28.6499   23.0350 C   0  0  0  0  0  0
  -26.4438  -31.6608   25.0712 C   0  0  0  0  0  0
  -25.3708  -31.3705   26.1470 C   0  0  0  0  0  0
  -27.0277  -30.3077   24.6032 C   0  0  0  0  0  0
  -27.6037  -32.4295   25.7466 C   0  0  0  0  0  0
  -27.5575  -37.1812   24.8473 C   0  0  0  0  0  0
  -21.4143  -29.3021   22.3747 N   0  0  0  0  0  0
  -26.4287  -37.3792   23.9407 N   0  0  0  0  0  0
  -24.6663  -31.0806   22.0973 N   0  0  0  0  0  0
  -23.4199  -28.8202   23.3019 O   0  0  0  0  0  0
  -28.4171  -26.7325   20.0364 O   0  0  0  0  0  0
  -26.5588  -34.8940   22.4711 O   0  0  0  0  0  0
  -23.5336  -32.1392   23.7528 O   0  0  0  0  0  0
  -31.5098  -18.8044   21.6273 C   0  0  0  0  0  0
  -31.4294  -17.4002   21.4913 C   0  0  0  0  0  0
  -29.0130  -17.5747   21.2772 C   0  0  0  0  0  0
  -30.3424  -19.6036   21.6103 C   0  0  0  0  0  0
  -30.1729  -16.7724   21.3294 C   0  0  0  0  0  0
  -29.0913  -18.9764   21.4029 C   0  0  0  0  0  0
  -31.1771  -22.1347   19.8327 C   0  0  0  0  0  0
  -30.4288  -21.0981   21.9352 C   0  0  0  0  0  0
  -29.2254  -24.4122   20.2844 C   0  0  0  0  0  0
  -29.5686  -23.3247   21.3376 C   0  0  0  0  0  0
  -28.4942  -25.6151   20.9271 C   0  0  0  0  0  0
  -30.0056  -15.3590   21.3007 N   0  0  0  0  0  0
  -30.0742  -22.0155   20.8167 N   0  3  1  0  0  0
  -27.6377  -19.9080   21.3238 Cl  0  0  0  0  0  0
  -31.4737  -12.4174   19.0962 H   0  0  0  0  0  0
  -30.3505  -11.2815   19.7845 H   0  0  0  0  0  0
  -29.7265  -11.7806   17.4146 H   0  0  0  0  0  0
  -29.6621  -13.4900   17.7584 H   0  0  0  0  0  0
  -27.8144  -11.3130   18.7957 H   0  0  0  0  0  0
  -27.3629  -12.6585   17.7857 H   0  0  0  0  0  0
  -27.7260  -14.2504   19.6027 H   0  0  0  0  0  0
  -28.6831  -11.8880   21.2873 H   0  0  0  0  0  0
  -28.4613  -13.4911   21.8976 H   0  0  0  0  0  0
  -25.2755   -9.5690   22.4761 H   0  0  0  0  0  0
  -24.0004   -7.4635   22.7475 H   0  0  0  0  0  0
  -21.0843   -8.8765   19.8948 H   0  0  0  0  0  0
  -22.3693  -10.9670   19.6164 H   0  0  0  0  0  0
  -21.1988   -7.6147   23.9717 H   0  0  0  0  0  0
  -21.1483   -6.0527   25.9085 H   0  0  0  0  0  0
  -22.0596   -2.7612   23.2848 H   0  0  0  0  0  0
  -22.4124  -11.9905   22.4753 H   0  0  0  0  0  0
  -21.1132  -13.1279   22.2567 H   0  0  0  0  0  0
  -24.6711  -15.8394   20.4992 H   0  0  0  0  0  0
  -26.2813  -15.6088   20.0381 H   0  0  0  0  0  0
  -26.7082  -32.5544   23.1152 H   0  0  0  0  0  0
  -25.0035  -33.9771   25.0506 H   0  0  0  0  0  0
  -22.6935  -31.3078   21.4064 H   0  0  0  0  0  0
  -23.3744  -35.9625   23.3322 H   0  0  0  0  0  0
  -24.3597  -36.8894   22.2053 H   0  0  0  0  0  0
  -23.7228  -37.6518   23.6642 H   0  0  0  0  0  0
  -26.0352  -31.5993   20.5832 H   0  0  0  0  0  0
  -26.8200  -30.9018   21.9695 H   0  0  0  0  0  0
  -28.1096  -29.1278   21.1500 H   0  0  0  0  0  0
  -26.0910  -25.9662   19.0284 H   0  0  0  0  0  0
  -23.9851  -27.2741   19.0566 H   0  0  0  0  0  0
  -23.7176  -30.5869   19.4002 H   0  0  0  0  0  0
  -22.7367  -29.2311   19.8728 H   0  0  0  0  0  0
  -25.1281  -36.1972   25.0844 H   0  0  0  0  0  0
  -20.9984  -28.3165   24.1437 H   0  0  0  0  0  0
  -20.5671  -26.2220   23.3606 H   0  0  0  0  0  0
  -21.6644  -26.7400   22.1203 H   0  0  0  0  0  0
  -19.6890  -25.6289   21.1215 H   0  0  0  0  0  0
  -19.6695  -27.3232   20.6796 H   0  0  0  0  0  0
  -17.4204  -26.6705   21.4008 H   0  0  0  0  0  0
  -18.0299  -26.0077   22.9019 H   0  0  0  0  0  0
  -19.7941  -30.7278   24.2256 H   0  0  0  0  0  0
  -17.5015  -31.6264   24.5168 H   0  0  0  0  0  0
  -15.5352  -30.2980   23.7666 H   0  0  0  0  0  0
  -15.8677  -28.0839   22.7012 H   0  0  0  0  0  0
  -24.5874  -30.7054   25.7819 H   0  0  0  0  0  0
  -24.8892  -32.2857   26.4924 H   0  0  0  0  0  0
  -25.8060  -30.8874   27.0228 H   0  0  0  0  0  0
  -26.2817  -29.6845   24.1090 H   0  0  0  0  0  0
  -27.4122  -29.7292   25.4440 H   0  0  0  0  0  0
  -27.8595  -30.4467   23.9130 H   0  0  0  0  0  0
  -27.2693  -33.3601   26.2061 H   0  0  0  0  0  0
  -28.3830  -32.6834   25.0271 H   0  0  0  0  0  0
  -28.0704  -31.8391   26.5359 H   0  0  0  0  0  0
  -28.2608  -38.0097   24.7521 H   0  0  0  0  0  0
  -28.1058  -36.2639   24.6294 H   0  0  0  0  0  0
  -27.2308  -37.1459   25.8882 H   0  0  0  0  0  0
  -20.9293  -29.8755   21.6991 H   0  0  0  0  0  0
  -26.0180  -38.2863   24.1430 H   0  0  0  0  0  0
  -32.4768  -19.2595   21.7919 H   0  0  0  0  0  0
  -32.3341  -16.8122   21.5547 H   0  0  0  0  0  0
  -28.0419  -17.1177   21.1551 H   0  0  0  0  0  0
  -31.5297  -21.1524   19.5176 H   0  0  0  0  0  0
  -32.0232  -22.6759   20.2553 H   0  0  0  0  0  0
  -30.8536  -22.6540   18.9316 H   0  0  0  0  0  0
  -31.4225  -21.3429   22.3140 H   0  0  0  0  0  0
  -29.7588  -21.2676   22.7786 H   0  0  0  0  0  0
  -28.6065  -23.9954   19.4887 H   0  0  0  0  0  0
  -30.1443  -24.7675   19.8146 H   0  0  0  0  0  0
  -28.6696  -23.1186   21.9228 H   0  0  0  0  0  0
  -30.2977  -23.7345   22.0386 H   0  0  0  0  0  0
  -29.0338  -25.9429   21.8171 H   0  0  0  0  0  0
  -27.5075  -25.2973   21.2707 H   0  0  0  0  0  0
  -29.1177  -15.0164   21.6345 H   0  0  0  0  0  0
  -29.2953  -21.5821   20.3417 H   0  0  0  0  0  0
  1 25  1  0  0  0
  1 30  2  0  0  0
  1 82  1  0  0  0
  2  3  1  0  0  0
  2 25  1  0  0  0
  2 85  1  0  0  0
  2 86  1  0  0  0
  3  4  1  0  0  0
  3 87  1  0  0  0
  3 88  1  0  0  0
  4  5  1  0  0  0
  4 89  1  0  0  0
  4 90  1  0  0  0
  5  6  1  0  0  0
  5 26  1  0  0  0
  5 91  1  0  0  0
  6 25  1  0  0  0
  6 92  1  0  0  0
  6 93  1  0  0  0
  7  8  2  0  0  0
  7 26  1  0  0  0
  7 29  1  0  0  0
  8  9  1  0  0  0
  8 22  1  0  0  0
  9 10  1  0  0  0
  9 27  2  0  0  0
 10 11  2  0  0  0
 10 15  1  0  0  0
 11 12  1  0  0  0
 11 94  1  0  0  0
 12 13  2  0  0  0
 12 95  1  0  0  0
 13 14  1  0  0  0
 13 31  1  0  0  0
 14 15  2  0  0  0
 14 96  1  0  0  0
 15 97  1  0  0  0
 16 17  2  0  0  0
 16 21  1  0  0  0
 16 31  1  0  0  0
 17 18  1  0  0  0
 17 98  1  0  0  0
 18 19  2  0  0  0
 18 99  1  0  0  0
 19 20  1  0  0  0
 19 24  1  0  0  0
 20 21  2  0  0  0
 20100  1  0  0  0
 21 23  1  0  0  0
 22 28  1  0  0  0
 22 32  2  0  0  0
 26 27  1  0  0  0
 28101  1  0  0  0
 28102  1  0  0  0
 29103  1  0  0  0
 29104  1  0  0  0
 33 34  1  0  0  0
 33 66  1  0  0  0
 33 70  2  0  0  0
 34 36  1  0  0  0
 34 59  1  0  0  0
 34105  1  0  0  0
 35 44  2  0  0  0
 35 45  1  0  0  0
 35 68  1  0  0  0
 36 56  1  0  0  0
 36106  1  0  0  0
 37 39  1  0  0  0
 37 47  1  0  0  0
 37 66  1  0  0  0
 37107  1  0  0  0
 38 43  2  0  0  0
 38 46  1  0  0  0
 38 47  1  0  0  0
 39 64  1  0  0  0
 39 67  2  0  0  0
 40 52  1  0  0  0
 40 53  2  0  0  0
 40 58  1  0  0  0
 41108  1  0  0  0
 41109  1  0  0  0
 41110  1  0  0  0
 41 48  1  0  0  0
 42 43  1  0  0  0
 42 66  1  0  0  0
 42111  1  0  0  0
 42112  1  0  0  0
 43 44  1  0  0  0
 44113  1  0  0  0
 45 46  2  0  0  0
 45114  1  0  0  0
 46115  1  0  0  0
 47116  1  0  0  0
 47117  1  0  0  0
 48 56  1  0  0  0
 48 65  1  0  0  0
 48118  1  0  0  0
 49 50  1  0  0  0
 49 53  1  0  0  0
 49 64  1  0  0  0
 49119  1  0  0  0
 50 51  1  0  0  0
 50120  1  0  0  0
 50121  1  0  0  0
 51 52  1  0  0  0
 51122  1  0  0  0
 51123  1  0  0  0
 52124  1  0  0  0
 52125  1  0  0  0
 53 54  1  0  0  0
 54 55  2  0  0  0
 54126  1  0  0  0
 55 57  1  0  0  0
 55127  1  0  0  0
 56 69  2  0  0  0
 57 58  2  0  0  0
 57128  1  0  0  0
 58129  1  0  0  0
 59 60  1  0  0  0
 59 61  1  0  0  0
 59 62  1  0  0  0
 60130  1  0  0  0
 60131  1  0  0  0
 60132  1  0  0  0
 61133  1  0  0  0
 61134  1  0  0  0
 61135  1  0  0  0
 62136  1  0  0  0
 62137  1  0  0  0
 62138  1  0  0  0
 63 65  1  0  0  0
 63139  1  0  0  0
 63140  1  0  0  0
 63141  1  0  0  0
 64142  1  0  0  0
 65143  1  0  0  0
 68 81  1  0  0  0
 71 72  2  0  0  0
 71 74  1  0  0  0
 71144  1  0  0  0
 72 75  1  0  0  0
 72145  1  0  0  0
 73 75  2  0  0  0
 73 76  1  0  0  0
 73146  1  0  0  0
 74 76  2  0  0  0
 74 78  1  0  0  0
 75 82  1  0  0  0
 76 84  1  0  0  0
 77147  1  0  0  0
 77148  1  0  0  0
 77149  1  0  0  0
 77 83  1  0  0  0
 78 83  1  0  0  0
 78150  1  0  0  0
 78151  1  0  0  0
 79 80  1  0  0  0
 79 81  1  0  0  0
 79152  1  0  0  0
 79153  1  0  0  0
 80 83  1  0  0  0
 80154  1  0  0  0
 80155  1  0  0  0
 81156  1  0  0  0
 81157  1  0  0  0
 82158  1  0  0  0
 83159  1  0  0  0
M  CHG  1  83   1
M  ISO  4   1 100  68 101  81 101  82 100
M  END
> <chiral flag>
0

> <version>
0

> <s_m_source_file>
/data/baiqing/PycharmProjects/Reinvent-master-3.2/result/LINK_invent/BTK/process_docking_weight1_custom_product_contain_oxygen_bond_distance_aromatic_linkinvent_7_9_3/rearranged_h_0021.sdf

> <i_m_source_file_index>
52

> <r_mmod_Potential_Energy-OPLS-2005>
-185.747268676758

> <r_mmod_Stretch_Energy-OPLS-2005>
36.4302978515625

> <r_mmod_Bend_Energy-OPLS-2005>
96.0629959106445

> <r_mmod_Torsional_Energy-OPLS-2005>
241.308090209961

> <r_mmod_Improper_Torsional_Energy-OPLS-2005>
3.97059798240662

> <r_mmod_Van_der_Waal_Energy-OPLS-2005>
148.284637451172

> <r_mmod_Electrostatic_Energy-OPLS-2005>
-278.846374511719

> <r_mmod_Solvation_Energy-OPLS-2005>
-441.600494384766

> <b_mmod_Minimization_Converged-OPLS-2005>
0

> <r_mmod_RMS_Derivative-OPLS-2005>
2.7357611656189

$$$$
52
                    3D
 Structure written by MMmdl.
162171  0  0  1  0            999 V2000
  -30.5173  -14.9223   20.4226 C   0  0  0  0  0  0
  -30.4490  -12.5699   19.4864 C   0  0  0  0  0  0
  -29.5235  -12.5346   18.2475 C   0  0  0  0  0  0
  -28.0546  -12.3200   18.6645 C   0  0  0  0  0  0
  -27.6333  -13.2418   19.8388 C   0  0  2  0  0  0
  -28.6774  -13.2392   20.9754 C   0  0  0  0  0  0
  -25.2472  -13.8194   20.5704 C   0  0  0  0  0  0
  -24.1782  -13.0424   20.9220 C   0  0  0  0  0  0
  -24.6399  -11.6911   20.8745 C   0  0  0  0  0  0
  -23.9080  -10.4286   21.0404 C   0  0  0  0  0  0
  -24.3631   -9.4199   21.9183 C   0  0  0  0  0  0
  -23.6297   -8.2239   22.0755 C   0  0  0  0  0  0
  -22.4276   -8.0282   21.3548 C   0  0  0  0  0  0
  -21.9917   -9.0257   20.4650 C   0  0  0  0  0  0
  -22.7253  -10.2127   20.3052 C   0  0  0  0  0  0
  -21.6848   -6.0741   22.5283 C   0  0  0  0  0  0
  -21.4021   -6.5646   23.8218 C   0  0  0  0  0  0
  -21.3657   -5.6792   24.9176 C   0  0  0  0  0  0
  -21.6037   -4.3054   24.7224 C   0  0  0  0  0  0
  -21.8817   -3.8152   23.4344 C   0  0  0  0  0  0
  -21.9190   -4.6971   22.3402 C   0  0  0  0  0  0
  -22.7801  -13.5202   21.1875 C   0  0  0  0  0  0
  -22.1657   -4.2159   21.0977 F   0  0  0  0  0  0
  -21.5621   -3.4534   25.7734 F   0  0  0  0  0  0
  -29.9579  -13.6500   20.3826 N   0  0  0  0  0  0
  -26.2897  -12.9422   20.3226 N   0  0  0  0  0  0
  -25.9327  -11.6557   20.5718 N   0  0  0  0  0  0
  -22.0446  -12.8200   22.0432 N   0  0  0  0  0  0
  -25.4109  -15.1927   20.4158 N   0  0  0  0  0  0
  -31.7228  -15.0337   20.1717 O   0  0  0  0  0  0
  -21.6635   -6.8885   21.4246 O   0  0  0  0  0  0
  -22.3491  -14.5505   20.6709 O   0  0  0  0  0  0
  -24.6428  -31.8456   23.1876 C   0  0  0  0  0  0
  -25.9205  -32.4707   23.8265 C   0  0  1  0  0  0
  -27.2219  -27.1565   20.1550 C   0  0  0  0  0  0
  -25.5955  -33.8509   24.2191 N   0  0  0  0  0  0
  -23.4452  -30.4639   21.5335 C   0  0  2  0  0  0
  -24.8938  -28.8858   20.1166 C   0  0  0  0  0  0
  -22.7561  -29.4556   22.4868 C   0  0  0  0  0  0
  -18.0305  -28.1401   22.8476 C   0  0  0  0  0  0
  -24.1491  -36.7257   23.2642 C   0  0  0  0  0  0
  -25.9984  -30.7280   21.3798 C   0  0  0  0  0  0
  -26.0715  -29.3380   20.7264 C   0  0  0  0  0  0
  -27.2402  -28.4916   20.7210 C   0  0  0  0  0  0
  -26.0169  -26.7889   19.5233 C   0  0  0  0  0  0
  -24.8771  -27.6233   19.5009 C   0  0  0  0  0  0
  -23.6714  -29.7893   20.1543 C   0  0  0  0  0  0
  -25.4124  -36.3037   24.0314 C   0  0  1  0  0  0
  -20.5916  -28.3726   23.1246 C   0  0  2  0  0  0
  -20.6791  -26.9433   22.5410 C   0  0  0  0  0  0
  -19.5766  -26.6386   21.5216 C   0  0  0  0  0  0
  -18.1945  -26.7938   22.1623 C   0  0  0  0  0  0
  -19.1561  -28.8879   23.2854 C   0  0  0  0  0  0
  -18.9475  -30.1473   23.8883 C   0  0  0  0  0  0
  -17.6472  -30.6594   24.0562 C   0  0  0  0  0  0
  -25.9075  -34.9416   23.5062 C   0  0  0  0  0  0
  -16.5364  -29.9088   23.6332 C   0  0  0  0  0  0
  -16.7288  -28.6509   23.0348 C   0  0  0  0  0  0
  -26.4528  -31.6568   25.0702 C   0  0  0  0  0  0
  -25.3714  -31.3750   26.1397 C   0  0  0  0  0  0
  -27.0389  -30.2968   24.6264 C   0  0  0  0  0  0
  -27.6058  -32.4328   25.7495 C   0  0  0  0  0  0
  -27.5575  -37.1790   24.8466 C   0  0  0  0  0  0
  -21.4255  -29.3052   22.3617 N   0  0  0  0  0  0
  -26.4286  -37.3751   23.9410 N   0  0  0  0  0  0
  -24.7155  -31.0330   22.0894 N   0  0  0  0  0  0
  -23.4210  -28.8107   23.3016 O   0  0  0  0  0  0
  -28.3020  -26.2116   20.1416 O   0  0  0  0  0  0
  -26.5657  -34.8911   22.4638 O   0  0  0  0  0  0
  -23.5551  -32.1315   23.7113 O   0  0  0  0  0  0
  -28.7872  -19.8079   19.5654 C   0  0  0  0  0  0
  -30.1444  -19.8474   21.4774 C   0  0  0  0  0  0
  -28.9208  -18.3505   19.5247 C   0  0  0  0  0  0
  -30.3109  -18.4034   21.4410 C   0  0  0  0  0  0
  -29.3895  -20.6583   20.5513 C   0  0  0  0  0  0
  -29.7028  -17.5637   20.4539 C   0  0  0  0  0  0
  -31.0610  -23.5194   19.7676 C   0  0  0  0  0  0
  -29.8032  -23.6686   18.9095 C   0  0  0  0  0  0
  -30.6163  -22.7266   21.0059 C   0  0  0  0  0  0
  -28.6696  -23.3126   19.8670 C   0  0  2  0  0  0
  -28.1629  -17.6108   18.4363 C   0  0  0  0  0  0
  -31.1270  -17.7487   22.5407 C   0  0  0  0  0  0
  -28.1494  -24.7408   20.6103 C   0  0  0  0  0  0
  -29.3061  -22.1505   20.6853 N   0  0  0  0  0  0
  -29.6426  -16.0335   20.5131 N   0  0  0  0  0  0
  -31.4814  -12.7416   19.1776 H   0  0  0  0  0  0
  -30.4453  -11.6089   20.0034 H   0  0  0  0  0  0
  -29.8397  -11.7493   17.5599 H   0  0  0  0  0  0
  -29.6128  -13.4737   17.6987 H   0  0  0  0  0  0
  -27.9467  -11.2767   18.9622 H   0  0  0  0  0  0
  -27.3922  -12.4624   17.8095 H   0  0  0  0  0  0
  -27.6020  -14.2491   19.4228 H   0  0  0  0  0  0
  -28.7553  -12.2533   21.4357 H   0  0  0  0  0  0
  -28.3816  -13.9265   21.7698 H   0  0  0  0  0  0
  -25.2776   -9.5672   22.4763 H   0  0  0  0  0  0
  -23.9999   -7.4630   22.7474 H   0  0  0  0  0  0
  -21.0846   -8.8783   19.8960 H   0  0  0  0  0  0
  -22.3716  -10.9669   19.6162 H   0  0  0  0  0  0
  -21.2026   -7.6154   23.9728 H   0  0  0  0  0  0
  -21.1477   -6.0519   25.9079 H   0  0  0  0  0  0
  -22.0598   -2.7615   23.2835 H   0  0  0  0  0  0
  -22.4055  -11.9873   22.4848 H   0  0  0  0  0  0
  -21.1066  -13.1238   22.2627 H   0  0  0  0  0  0
  -24.6374  -15.8374   20.5402 H   0  0  0  0  0  0
  -26.2452  -15.6423   20.0678 H   0  0  0  0  0  0
  -26.7276  -32.5326   23.1000 H   0  0  0  0  0  0
  -25.0086  -33.9625   25.0328 H   0  0  0  0  0  0
  -22.7472  -31.2889   21.3785 H   0  0  0  0  0  0
  -23.3757  -35.9585   23.3293 H   0  0  0  0  0  0
  -24.3576  -36.8898   22.2058 H   0  0  0  0  0  0
  -23.7241  -37.6448   23.6685 H   0  0  0  0  0  0
  -26.1480  -31.4820   20.6054 H   0  0  0  0  0  0
  -26.8706  -30.7827   22.0194 H   0  0  0  0  0  0
  -28.1464  -28.8410   21.1958 H   0  0  0  0  0  0
  -25.9479  -25.8199   19.0486 H   0  0  0  0  0  0
  -23.9762  -27.2718   19.0170 H   0  0  0  0  0  0
  -23.8110  -30.5625   19.3976 H   0  0  0  0  0  0
  -22.7854  -29.2332   19.8436 H   0  0  0  0  0  0
  -25.1316  -36.1862   25.0805 H   0  0  0  0  0  0
  -21.0008  -28.3313   24.1367 H   0  0  0  0  0  0
  -20.5695  -26.2338   23.3625 H   0  0  0  0  0  0
  -21.6657  -26.7451   22.1205 H   0  0  0  0  0  0
  -19.6930  -25.6291   21.1257 H   0  0  0  0  0  0
  -19.6699  -27.3187   20.6737 H   0  0  0  0  0  0
  -17.4219  -26.6686   21.4020 H   0  0  0  0  0  0
  -18.0339  -26.0089   22.9029 H   0  0  0  0  0  0
  -19.7948  -30.7292   24.2250 H   0  0  0  0  0  0
  -17.5024  -31.6270   24.5171 H   0  0  0  0  0  0
  -15.5364  -30.2987   23.7661 H   0  0  0  0  0  0
  -15.8687  -28.0825   22.7065 H   0  0  0  0  0  0
  -24.5902  -30.7091   25.7712 H   0  0  0  0  0  0
  -24.8892  -32.2929   26.4769 H   0  0  0  0  0  0
  -25.7997  -30.8957   27.0209 H   0  0  0  0  0  0
  -26.2994  -29.6689   24.1281 H   0  0  0  0  0  0
  -27.4019  -29.7272   25.4829 H   0  0  0  0  0  0
  -27.8893  -30.4204   23.9556 H   0  0  0  0  0  0
  -27.2650  -33.3645   26.2022 H   0  0  0  0  0  0
  -28.3899  -32.6861   25.0349 H   0  0  0  0  0  0
  -28.0691  -31.8486   26.5455 H   0  0  0  0  0  0
  -28.2593  -38.0088   24.7512 H   0  0  0  0  0  0
  -28.1072  -36.2617   24.6296 H   0  0  0  0  0  0
  -27.2293  -37.1439   25.8870 H   0  0  0  0  0  0
  -20.9465  -29.8763   21.6796 H   0  0  0  0  0  0
  -26.0151  -38.2820   24.1408 H   0  0  0  0  0  0
  -28.1791  -20.2836   18.8091 H   0  0  0  0  0  0
  -30.6196  -20.3545   22.3040 H   0  0  0  0  0  0
  -31.4673  -24.4893   20.0583 H   0  0  0  0  0  0
  -31.8381  -22.9886   19.2158 H   0  0  0  0  0  0
  -29.8276  -22.9498   18.0889 H   0  0  0  0  0  0
  -29.7023  -24.6604   18.4669 H   0  0  0  0  0  0
  -30.5137  -23.3897   21.8666 H   0  0  0  0  0  0
  -31.3970  -22.0101   21.2585 H   0  0  0  0  0  0
  -27.8369  -22.9213   19.2807 H   0  0  0  0  0  0
  -27.8889  -18.2755   17.6170 H   0  0  0  0  0  0
  -27.2478  -17.1788   18.8402 H   0  0  0  0  0  0
  -28.7678  -16.8066   18.0167 H   0  0  0  0  0  0
  -31.5118  -18.4805   23.2512 H   0  0  0  0  0  0
  -31.9782  -17.2187   22.1137 H   0  0  0  0  0  0
  -30.5202  -17.0299   23.0919 H   0  0  0  0  0  0
  -28.6337  -24.7577   21.5861 H   0  0  0  0  0  0
  -27.0993  -24.5899   20.8624 H   0  0  0  0  0  0
  -28.6935  -15.6998   20.5565 H   0  0  0  0  0  0
  1 25  1  0  0  0
  1 30  2  0  0  0
  1 85  1  0  0  0
  2  3  1  0  0  0
  2 25  1  0  0  0
  2 86  1  0  0  0
  2 87  1  0  0  0
  3  4  1  0  0  0
  3 88  1  0  0  0
  3 89  1  0  0  0
  4  5  1  0  0  0
  4 90  1  0  0  0
  4 91  1  0  0  0
  5  6  1  0  0  0
  5 26  1  0  0  0
  5 92  1  0  0  0
  6 25  1  0  0  0
  6 93  1  0  0  0
  6 94  1  0  0  0
  7  8  2  0  0  0
  7 26  1  0  0  0
  7 29  1  0  0  0
  8  9  1  0  0  0
  8 22  1  0  0  0
  9 10  1  0  0  0
  9 27  2  0  0  0
 10 11  2  0  0  0
 10 15  1  0  0  0
 11 12  1  0  0  0
 11 95  1  0  0  0
 12 13  2  0  0  0
 12 96  1  0  0  0
 13 14  1  0  0  0
 13 31  1  0  0  0
 14 15  2  0  0  0
 14 97  1  0  0  0
 15 98  1  0  0  0
 16 17  2  0  0  0
 16 21  1  0  0  0
 16 31  1  0  0  0
 17 18  1  0  0  0
 17 99  1  0  0  0
 18 19  2  0  0  0
 18100  1  0  0  0
 19 20  1  0  0  0
 19 24  1  0  0  0
 20 21  2  0  0  0
 20101  1  0  0  0
 21 23  1  0  0  0
 22 28  1  0  0  0
 22 32  2  0  0  0
 26 27  1  0  0  0
 28102  1  0  0  0
 28103  1  0  0  0
 29104  1  0  0  0
 29105  1  0  0  0
 33 34  1  0  0  0
 33 66  1  0  0  0
 33 70  2  0  0  0
 34 36  1  0  0  0
 34 59  1  0  0  0
 34106  1  0  0  0
 35 44  2  0  0  0
 35 45  1  0  0  0
 35 68  1  0  0  0
 36 56  1  0  0  0
 36107  1  0  0  0
 37 39  1  0  0  0
 37 47  1  0  0  0
 37 66  1  0  0  0
 37108  1  0  0  0
 38 43  2  0  0  0
 38 46  1  0  0  0
 38 47  1  0  0  0
 39 64  1  0  0  0
 39 67  2  0  0  0
 40 52  1  0  0  0
 40 53  2  0  0  0
 40 58  1  0  0  0
 41109  1  0  0  0
 41110  1  0  0  0
 41111  1  0  0  0
 41 48  1  0  0  0
 42 43  1  0  0  0
 42 66  1  0  0  0
 42112  1  0  0  0
 42113  1  0  0  0
 43 44  1  0  0  0
 44114  1  0  0  0
 45 46  2  0  0  0
 45115  1  0  0  0
 46116  1  0  0  0
 47117  1  0  0  0
 47118  1  0  0  0
 48 56  1  0  0  0
 48 65  1  0  0  0
 48119  1  0  0  0
 49 50  1  0  0  0
 49 53  1  0  0  0
 49 64  1  0  0  0
 49120  1  0  0  0
 50 51  1  0  0  0
 50121  1  0  0  0
 50122  1  0  0  0
 51 52  1  0  0  0
 51123  1  0  0  0
 51124  1  0  0  0
 52125  1  0  0  0
 52126  1  0  0  0
 53 54  1  0  0  0
 54 55  2  0  0  0
 54127  1  0  0  0
 55 57  1  0  0  0
 55128  1  0  0  0
 56 69  2  0  0  0
 57 58  2  0  0  0
 57129  1  0  0  0
 58130  1  0  0  0
 59 60  1  0  0  0
 59 61  1  0  0  0
 59 62  1  0  0  0
 60131  1  0  0  0
 60132  1  0  0  0
 60133  1  0  0  0
 61134  1  0  0  0
 61135  1  0  0  0
 61136  1  0  0  0
 62137  1  0  0  0
 62138  1  0  0  0
 62139  1  0  0  0
 63 65  1  0  0  0
 63140  1  0  0  0
 63141  1  0  0  0
 63142  1  0  0  0
 64143  1  0  0  0
 65144  1  0  0  0
 68 83  1  0  0  0
 71 73  2  0  0  0
 71 75  1  0  0  0
 71145  1  0  0  0
 72 74  1  0  0  0
 72 75  2  0  0  0
 72146  1  0  0  0
 73 76  1  0  0  0
 73 81  1  0  0  0
 74 76  2  0  0  0
 74 82  1  0  0  0
 75 84  1  0  0  0
 76 85  1  0  0  0
 77 78  1  0  0  0
 77 79  1  0  0  0
 77147  1  0  0  0
 77148  1  0  0  0
 78 80  1  0  0  0
 78149  1  0  0  0
 78150  1  0  0  0
 79 84  1  0  0  0
 79151  1  0  0  0
 79152  1  0  0  0
 80 83  1  0  0  0
 80 84  1  0  0  0
 80153  1  0  0  0
 81154  1  0  0  0
 81155  1  0  0  0
 81156  1  0  0  0
 82157  1  0  0  0
 82158  1  0  0  0
 82159  1  0  0  0
 83160  1  0  0  0
 83161  1  0  0  0
 85162  1  0  0  0
M  ISO  4   1 100  68 101  83 101  85 100
M  END
> <chiral flag>
0

> <version>
0

> <s_m_source_file>
/data/baiqing/PycharmProjects/Reinvent-master-3.2/result/LINK_invent/BTK/process_docking_weight1_custom_product_contain_oxygen_bond_distance_aromatic_linkinvent_7_9_3/rearranged_h_0021.sdf

> <i_m_source_file_index>
53

> <r_mmod_Potential_Energy-OPLS-2005>
540.288513183594

> <r_mmod_Stretch_Energy-OPLS-2005>
221.306793212891

> <r_mmod_Bend_Energy-OPLS-2005>
307.026977539062

> <r_mmod_Torsional_Energy-OPLS-2005>
324.906433105469

> <r_mmod_Improper_Torsional_Energy-OPLS-2005>
11.4501819610596

> <r_mmod_Van_der_Waal_Energy-OPLS-2005>
127.744369506836

> <r_mmod_Electrostatic_Energy-OPLS-2005>
-400.411926269531

> <r_mmod_Solvation_Energy-OPLS-2005>
-223.223785400391

> <b_mmod_Minimization_Converged-OPLS-2005>
0

> <r_mmod_RMS_Derivative-OPLS-2005>
1.00902676582336

$$$$
53
                    3D
 Structure written by MMmdl.
164173  0  0  1  0            999 V2000
  -30.7459  -14.4606   20.6051 C   0  0  0  0  0  0
  -30.4147  -12.3219   19.4111 C   0  0  0  0  0  0
  -29.4840  -12.5148   18.1989 C   0  0  0  0  0  0
  -28.0108  -12.3501   18.6177 C   0  0  0  0  0  0
  -27.6526  -13.1970   19.8656 C   0  0  2  0  0  0
  -28.7002  -13.0106   20.9878 C   0  0  0  0  0  0
  -25.2569  -13.8131   20.5682 C   0  0  0  0  0  0
  -24.1821  -13.0422   20.9201 C   0  0  0  0  0  0
  -24.6367  -11.6883   20.8755 C   0  0  0  0  0  0
  -23.9037  -10.4276   21.0415 C   0  0  0  0  0  0
  -24.3601   -9.4197   21.9190 C   0  0  0  0  0  0
  -23.6282   -8.2230   22.0751 C   0  0  0  0  0  0
  -22.4268   -8.0268   21.3542 C   0  0  0  0  0  0
  -21.9897   -9.0240   20.4647 C   0  0  0  0  0  0
  -22.7216  -10.2120   20.3058 C   0  0  0  0  0  0
  -21.6847   -6.0728   22.5283 C   0  0  0  0  0  0
  -21.4001   -6.5638   23.8217 C   0  0  0  0  0  0
  -21.3654   -5.6788   24.9180 C   0  0  0  0  0  0
  -21.6043   -4.3051   24.7231 C   0  0  0  0  0  0
  -21.8819   -3.8141   23.4354 C   0  0  0  0  0  0
  -21.9192   -4.6955   22.3408 C   0  0  0  0  0  0
  -22.7848  -13.5238   21.1865 C   0  0  0  0  0  0
  -22.1661   -4.2143   21.0988 F   0  0  0  0  0  0
  -21.5636   -3.4531   25.7741 F   0  0  0  0  0  0
  -30.0308  -13.3115   20.4320 N   0  0  0  0  0  0
  -26.2979  -12.9264   20.3345 N   0  0  0  0  0  0
  -25.9287  -11.6443   20.5773 N   0  0  0  0  0  0
  -22.0473  -12.8228   22.0407 N   0  0  0  0  0  0
  -25.4305  -15.1840   20.4051 N   0  0  0  0  0  0
  -31.8673  -14.6169   20.1109 O   0  0  0  0  0  0
  -21.6633   -6.8866   21.4242 O   0  0  0  0  0  0
  -22.3548  -14.5554   20.6721 O   0  0  0  0  0  0
  -24.6139  -31.8690   23.2117 C   0  0  0  0  0  0
  -25.9039  -32.4824   23.8403 C   0  0  1  0  0  0
  -27.2258  -27.4351   20.0953 C   0  0  0  0  0  0
  -25.5921  -33.8623   24.2340 N   0  0  0  0  0  0
  -23.4005  -30.4952   21.5522 C   0  0  2  0  0  0
  -24.8451  -28.9679   20.1107 C   0  0  0  0  0  0
  -22.7412  -29.4660   22.4988 C   0  0  0  0  0  0
  -18.0271  -28.1365   22.8490 C   0  0  0  0  0  0
  -24.1483  -36.7295   23.2636 C   0  0  0  0  0  0
  -25.9302  -30.8369   21.3632 C   0  0  0  0  0  0
  -26.0074  -29.4739   20.7062 C   0  0  0  0  0  0
  -27.2019  -28.7169   20.6928 C   0  0  0  0  0  0
  -26.0450  -26.9535   19.4803 C   0  0  0  0  0  0
  -24.8595  -27.7074   19.4930 C   0  0  0  0  0  0
  -23.6070  -29.8329   20.1648 C   0  0  0  0  0  0
  -25.4101  -36.3108   24.0351 C   0  0  1  0  0  0
  -20.5862  -28.3647   23.1319 C   0  0  2  0  0  0
  -20.6755  -26.9382   22.5425 C   0  0  0  0  0  0
  -19.5748  -26.6375   21.5206 C   0  0  0  0  0  0
  -18.1917  -26.7924   22.1594 C   0  0  0  0  0  0
  -19.1522  -28.8819   23.2905 C   0  0  0  0  0  0
  -18.9452  -30.1428   23.8912 C   0  0  0  0  0  0
  -17.6456  -30.6571   24.0561 C   0  0  0  0  0  0
  -25.9038  -34.9480   23.5135 C   0  0  0  0  0  0
  -16.5345  -29.9073   23.6327 C   0  0  0  0  0  0
  -16.7261  -28.6491   23.0348 C   0  0  0  0  0  0
  -26.4479  -31.6595   25.0719 C   0  0  0  0  0  0
  -25.3765  -31.3696   26.1483 C   0  0  0  0  0  0
  -27.0297  -30.3039   24.6066 C   0  0  0  0  0  0
  -27.6064  -32.4309   25.7476 C   0  0  0  0  0  0
  -27.5588  -37.1789   24.8452 C   0  0  0  0  0  0
  -21.4139  -29.3020   22.3731 N   0  0  0  0  0  0
  -26.4273  -37.3804   23.9439 N   0  0  0  0  0  0
  -24.6666  -31.0809   22.1007 N   0  0  0  0  0  0
  -23.4200  -28.8195   23.3013 O   0  0  0  0  0  0
  -28.3800  -26.6750   20.1383 O   0  0  0  0  0  0
  -26.5584  -34.8935   22.4684 O   0  0  0  0  0  0
  -23.5338  -32.1430   23.7528 O   0  0  0  0  0  0
  -28.8801  -18.6250   21.8516 C   0  0  0  0  0  0
  -28.9987  -20.0300   21.7997 C   0  0  0  0  0  0
  -30.1356  -19.8452   19.6720 C   0  0  0  0  0  0
  -29.3726  -17.8094   20.8102 C   0  0  0  0  0  0
  -30.0215  -18.4363   19.7169 C   0  0  0  0  0  0
  -29.6087  -20.6757   20.6936 C   0  0  0  0  0  0
  -29.0066  -23.0632   21.2293 C   0  0  0  0  0  0
  -30.5257  -24.2571   19.8054 C   0  0  0  0  0  0
  -30.5788  -22.7406   19.5714 C   0  0  0  0  0  0
  -29.3825  -24.4850   20.7948 C   0  0  1  0  0  0
  -30.5824  -17.6283   18.5593 C   0  0  0  0  0  0
  -31.0286  -16.0291   22.4364 C   0  0  0  0  0  0
  -29.1224  -16.2911   20.8607 C   0  0  0  0  0  0
  -28.1772  -25.2511   20.2025 C   0  0  0  0  0  0
  -29.7169  -22.1153   20.5760 N   0  0  0  0  0  0
  -30.2027  -15.4265   21.3861 N   0  0  0  0  0  0
  -28.1432  -22.8741   22.0923 O   0  0  0  0  0  0
  -31.4571  -12.4157   19.1015 H   0  0  0  0  0  0
  -30.3192  -11.3119   19.8128 H   0  0  0  0  0  0
  -29.7326  -11.8011   17.4121 H   0  0  0  0  0  0
  -29.6351  -13.5072   17.7703 H   0  0  0  0  0  0
  -27.8386  -11.2925   18.8237 H   0  0  0  0  0  0
  -27.3526  -12.6075   17.7872 H   0  0  0  0  0  0
  -27.6714  -14.2311   19.5355 H   0  0  0  0  0  0
  -28.6839  -11.9834   21.3545 H   0  0  0  0  0  0
  -28.4550  -13.6291   21.8518 H   0  0  0  0  0  0
  -25.2746   -9.5670   22.4763 H   0  0  0  0  0  0
  -23.9994   -7.4612   22.7460 H   0  0  0  0  0  0
  -21.0831   -8.8747   19.8952 H   0  0  0  0  0  0
  -22.3680  -10.9653   19.6161 H   0  0  0  0  0  0
  -21.1978   -7.6146   23.9715 H   0  0  0  0  0  0
  -21.1483   -6.0522   25.9082 H   0  0  0  0  0  0
  -22.0603   -2.7602   23.2848 H   0  0  0  0  0  0
  -22.4063  -11.9871   22.4775 H   0  0  0  0  0  0
  -21.1092  -13.1259   22.2611 H   0  0  0  0  0  0
  -24.6630  -15.8385   20.5100 H   0  0  0  0  0  0
  -26.2764  -15.6199   20.0610 H   0  0  0  0  0  0
  -26.7108  -32.5539   23.1169 H   0  0  0  0  0  0
  -25.0148  -33.9791   25.0537 H   0  0  0  0  0  0
  -22.6877  -31.3116   21.4167 H   0  0  0  0  0  0
  -23.3774  -35.9594   23.3258 H   0  0  0  0  0  0
  -24.3596  -36.8935   22.2057 H   0  0  0  0  0  0
  -23.7191  -37.6473   23.6664 H   0  0  0  0  0  0
  -26.0447  -31.6054   20.5980 H   0  0  0  0  0  0
  -26.8175  -30.8856   21.9831 H   0  0  0  0  0  0
  -28.0961  -29.1024   21.1630 H   0  0  0  0  0  0
  -26.0179  -25.9927   18.9873 H   0  0  0  0  0  0
  -23.9688  -27.3142   19.0235 H   0  0  0  0  0  0
  -23.7121  -30.6096   19.4063 H   0  0  0  0  0  0
  -22.7310  -29.2519   19.8699 H   0  0  0  0  0  0
  -25.1269  -36.1963   25.0842 H   0  0  0  0  0  0
  -20.9954  -28.3198   24.1443 H   0  0  0  0  0  0
  -20.5616  -26.2262   23.3613 H   0  0  0  0  0  0
  -21.6631  -26.7400   22.1239 H   0  0  0  0  0  0
  -19.6907  -25.6291   21.1212 H   0  0  0  0  0  0
  -19.6709  -27.3197   20.6754 H   0  0  0  0  0  0
  -17.4211  -26.6713   21.3967 H   0  0  0  0  0  0
  -18.0277  -26.0036   22.8951 H   0  0  0  0  0  0
  -19.7932  -30.7234   24.2282 H   0  0  0  0  0  0
  -17.5018  -31.6254   24.5154 H   0  0  0  0  0  0
  -15.5347  -30.2979   23.7654 H   0  0  0  0  0  0
  -15.8660  -28.0817   22.7055 H   0  0  0  0  0  0
  -24.6012  -30.6930   25.7866 H   0  0  0  0  0  0
  -24.8870  -32.2836   26.4855 H   0  0  0  0  0  0
  -25.8163  -30.8983   27.0281 H   0  0  0  0  0  0
  -26.2820  -29.6803   24.1152 H   0  0  0  0  0  0
  -27.4113  -29.7266   25.4495 H   0  0  0  0  0  0
  -27.8639  -30.4358   23.9172 H   0  0  0  0  0  0
  -27.2701  -33.3623   26.2044 H   0  0  0  0  0  0
  -28.3888  -32.6836   25.0307 H   0  0  0  0  0  0
  -28.0715  -31.8433   26.5399 H   0  0  0  0  0  0
  -28.2566  -38.0127   24.7571 H   0  0  0  0  0  0
  -28.1123  -36.2670   24.6167 H   0  0  0  0  0  0
  -27.2343  -37.1297   25.8861 H   0  0  0  0  0  0
  -20.9287  -29.8780   21.6994 H   0  0  0  0  0  0
  -26.0157  -38.2868   24.1497 H   0  0  0  0  0  0
  -28.3844  -18.1723   22.6992 H   0  0  0  0  0  0
  -28.6003  -20.5903   22.6321 H   0  0  0  0  0  0
  -30.6213  -20.2843   18.8130 H   0  0  0  0  0  0
  -30.3789  -24.7978   18.8690 H   0  0  0  0  0  0
  -31.4658  -24.6079   20.2333 H   0  0  0  0  0  0
  -31.6016  -22.3676   19.6422 H   0  0  0  0  0  0
  -30.1999  -22.5087   18.5749 H   0  0  0  0  0  0
  -29.7445  -25.0117   21.6786 H   0  0  0  0  0  0
  -31.0883  -18.2657   17.8338 H   0  0  0  0  0  0
  -29.7883  -17.0984   18.0334 H   0  0  0  0  0  0
  -31.3130  -16.9046   18.9150 H   0  0  0  0  0  0
  -30.4035  -16.4835   23.2054 H   0  0  0  0  0  0
  -31.6837  -16.7981   22.0241 H   0  0  0  0  0  0
  -31.6559  -15.2833   22.9279 H   0  0  0  0  0  0
  -28.8533  -15.9889   19.8499 H   0  0  0  0  0  0
  -28.2302  -16.1022   21.4589 H   0  0  0  0  0  0
  -27.3033  -25.0442   20.8246 H   0  0  0  0  0  0
  -27.9540  -24.8653   19.2058 H   0  0  0  0  0  0
  1 25  1  0  0  0
  1 30  2  0  0  0
  1 86  1  0  0  0
  2  3  1  0  0  0
  2 25  1  0  0  0
  2 88  1  0  0  0
  2 89  1  0  0  0
  3  4  1  0  0  0
  3 90  1  0  0  0
  3 91  1  0  0  0
  4  5  1  0  0  0
  4 92  1  0  0  0
  4 93  1  0  0  0
  5  6  1  0  0  0
  5 26  1  0  0  0
  5 94  1  0  0  0
  6 25  1  0  0  0
  6 95  1  0  0  0
  6 96  1  0  0  0
  7  8  2  0  0  0
  7 26  1  0  0  0
  7 29  1  0  0  0
  8  9  1  0  0  0
  8 22  1  0  0  0
  9 10  1  0  0  0
  9 27  2  0  0  0
 10 11  2  0  0  0
 10 15  1  0  0  0
 11 12  1  0  0  0
 11 97  1  0  0  0
 12 13  2  0  0  0
 12 98  1  0  0  0
 13 14  1  0  0  0
 13 31  1  0  0  0
 14 15  2  0  0  0
 14 99  1  0  0  0
 15100  1  0  0  0
 16 17  2  0  0  0
 16 21  1  0  0  0
 16 31  1  0  0  0
 17 18  1  0  0  0
 17101  1  0  0  0
 18 19  2  0  0  0
 18102  1  0  0  0
 19 20  1  0  0  0
 19 24  1  0  0  0
 20 21  2  0  0  0
 20103  1  0  0  0
 21 23  1  0  0  0
 22 28  1  0  0  0
 22 32  2  0  0  0
 26 27  1  0  0  0
 28104  1  0  0  0
 28105  1  0  0  0
 29106  1  0  0  0
 29107  1  0  0  0
 33 34  1  0  0  0
 33 66  1  0  0  0
 33 70  2  0  0  0
 34 36  1  0  0  0
 34 59  1  0  0  0
 34108  1  0  0  0
 35 44  2  0  0  0
 35 45  1  0  0  0
 35 68  1  0  0  0
 36 56  1  0  0  0
 36109  1  0  0  0
 37 39  1  0  0  0
 37 47  1  0  0  0
 37 66  1  0  0  0
 37110  1  0  0  0
 38 43  2  0  0  0
 38 46  1  0  0  0
 38 47  1  0  0  0
 39 64  1  0  0  0
 39 67  2  0  0  0
 40 52  1  0  0  0
 40 53  2  0  0  0
 40 58  1  0  0  0
 41111  1  0  0  0
 41112  1  0  0  0
 41113  1  0  0  0
 41 48  1  0  0  0
 42 43  1  0  0  0
 42 66  1  0  0  0
 42114  1  0  0  0
 42115  1  0  0  0
 43 44  1  0  0  0
 44116  1  0  0  0
 45 46  2  0  0  0
 45117  1  0  0  0
 46118  1  0  0  0
 47119  1  0  0  0
 47120  1  0  0  0
 48 56  1  0  0  0
 48 65  1  0  0  0
 48121  1  0  0  0
 49 50  1  0  0  0
 49 53  1  0  0  0
 49 64  1  0  0  0
 49122  1  0  0  0
 50 51  1  0  0  0
 50123  1  0  0  0
 50124  1  0  0  0
 51 52  1  0  0  0
 51125  1  0  0  0
 51126  1  0  0  0
 52127  1  0  0  0
 52128  1  0  0  0
 53 54  1  0  0  0
 54 55  2  0  0  0
 54129  1  0  0  0
 55 57  1  0  0  0
 55130  1  0  0  0
 56 69  2  0  0  0
 57 58  2  0  0  0
 57131  1  0  0  0
 58132  1  0  0  0
 59 60  1  0  0  0
 59 61  1  0  0  0
 59 62  1  0  0  0
 60133  1  0  0  0
 60134  1  0  0  0
 60135  1  0  0  0
 61136  1  0  0  0
 61137  1  0  0  0
 61138  1  0  0  0
 62139  1  0  0  0
 62140  1  0  0  0
 62141  1  0  0  0
 63 65  1  0  0  0
 63142  1  0  0  0
 63143  1  0  0  0
 63144  1  0  0  0
 64145  1  0  0  0
 65146  1  0  0  0
 68 84  1  0  0  0
 71 72  2  0  0  0
 71 74  1  0  0  0
 71147  1  0  0  0
 72 76  1  0  0  0
 72148  1  0  0  0
 73 75  1  0  0  0
 73 76  2  0  0  0
 73149  1  0  0  0
 74 75  2  0  0  0
 74 83  1  0  0  0
 75 81  1  0  0  0
 76 85  1  0  0  0
 77 80  1  0  0  0
 77 85  1  0  0  0
 77 87  2  0  0  0
 78 79  1  0  0  0
 78 80  1  0  0  0
 78150  1  0  0  0
 78151  1  0  0  0
 79 85  1  0  0  0
 79152  1  0  0  0
 79153  1  0  0  0
 80 84  1  0  0  0
 80154  1  0  0  0
 81155  1  0  0  0
 81156  1  0  0  0
 81157  1  0  0  0
 82 86  1  0  0  0
 82158  1  0  0  0
 82159  1  0  0  0
 82160  1  0  0  0
 83 86  1  0  0  0
 83161  1  0  0  0
 83162  1  0  0  0
 84163  1  0  0  0
 84164  1  0  0  0
M  ISO  4   1 100  68 101  84 101  86 100
M  END
> <chiral flag>
0

> <version>
0

> <s_m_source_file>
/data/baiqing/PycharmProjects/Reinvent-master-3.2/result/LINK_invent/BTK/process_docking_weight1_custom_product_contain_oxygen_bond_distance_aromatic_linkinvent_7_9_3/rearranged_h_0021.sdf

> <i_m_source_file_index>
54

> <r_mmod_Potential_Energy-OPLS-2005>
165.526870727539

> <r_mmod_Stretch_Energy-OPLS-2005>
42.540340423584

> <r_mmod_Bend_Energy-OPLS-2005>
120.316818237305

> <r_mmod_Torsional_Energy-OPLS-2005>
327.200408935547

> <r_mmod_Improper_Torsional_Energy-OPLS-2005>
3.91936445236206

> <r_mmod_Van_der_Waal_Energy-OPLS-2005>
161.869201660156

> <r_mmod_Electrostatic_Energy-OPLS-2005>
-298.470672607422

> <r_mmod_Solvation_Energy-OPLS-2005>
-206.3056640625

> <b_mmod_Minimization_Converged-OPLS-2005>
0

> <r_mmod_RMS_Derivative-OPLS-2005>
1.19944989681244

$$$$
54
                    3D
 Structure written by MMmdl.
164173  0  0  1  0            999 V2000
  -30.7134  -14.5165   20.4190 C   0  0  0  0  0  0
  -30.4215  -12.2754   19.4587 C   0  0  0  0  0  0
  -29.4996  -12.3583   18.2224 C   0  0  0  0  0  0
  -28.0116  -12.3114   18.6228 C   0  0  0  0  0  0
  -27.6527  -13.2045   19.8447 C   0  0  2  0  0  0
  -28.7016  -13.0945   20.9718 C   0  0  0  0  0  0
  -25.2602  -13.8164   20.5613 C   0  0  0  0  0  0
  -24.1865  -13.0460   20.9183 C   0  0  0  0  0  0
  -24.6418  -11.6923   20.8780 C   0  0  0  0  0  0
  -23.9083  -10.4306   21.0407 C   0  0  0  0  0  0
  -24.3646   -9.4213   21.9167 C   0  0  0  0  0  0
  -23.6315   -8.2249   22.0743 C   0  0  0  0  0  0
  -22.4298   -8.0277   21.3518 C   0  0  0  0  0  0
  -21.9929   -9.0262   20.4627 C   0  0  0  0  0  0
  -22.7266  -10.2141   20.3037 C   0  0  0  0  0  0
  -21.6860   -6.0726   22.5267 C   0  0  0  0  0  0
  -21.4024   -6.5632   23.8201 C   0  0  0  0  0  0
  -21.3670   -5.6785   24.9162 C   0  0  0  0  0  0
  -21.6051   -4.3046   24.7207 C   0  0  0  0  0  0
  -21.8832   -3.8134   23.4328 C   0  0  0  0  0  0
  -21.9209   -4.6953   22.3387 C   0  0  0  0  0  0
  -22.7894  -13.5268   21.1806 C   0  0  0  0  0  0
  -22.1669   -4.2138   21.0964 F   0  0  0  0  0  0
  -21.5623   -3.4530   25.7716 F   0  0  0  0  0  0
  -30.0232  -13.3445   20.3831 N   0  0  0  0  0  0
  -26.3013  -12.9318   20.3272 N   0  0  0  0  0  0
  -25.9347  -11.6500   20.5849 N   0  0  0  0  0  0
  -22.0535  -12.8267   22.0361 N   0  0  0  0  0  0
  -25.4390  -15.1852   20.3879 N   0  0  0  0  0  0
  -31.9369  -14.5583   20.2720 O   0  0  0  0  0  0
  -21.6647   -6.8875   21.4223 O   0  0  0  0  0  0
  -22.3597  -14.5566   20.6629 O   0  0  0  0  0  0
  -24.6127  -31.8705   23.2129 C   0  0  0  0  0  0
  -25.9016  -32.4845   23.8439 C   0  0  1  0  0  0
  -27.2286  -27.4589   20.0875 C   0  0  0  0  0  0
  -25.5867  -33.8649   24.2378 N   0  0  0  0  0  0
  -23.4013  -30.4984   21.5503 C   0  0  2  0  0  0
  -24.8491  -28.9732   20.1078 C   0  0  0  0  0  0
  -22.7397  -29.4683   22.4943 C   0  0  0  0  0  0
  -18.0270  -28.1361   22.8511 C   0  0  0  0  0  0
  -24.1478  -36.7328   23.2644 C   0  0  0  0  0  0
  -25.9316  -30.8440   21.3637 C   0  0  0  0  0  0
  -26.0096  -29.4840   20.7033 C   0  0  0  0  0  0
  -27.2077  -28.7349   20.6898 C   0  0  0  0  0  0
  -26.0562  -26.9705   19.4687 C   0  0  0  0  0  0
  -24.8642  -27.7157   19.4865 C   0  0  0  0  0  0
  -23.6102  -29.8371   20.1627 C   0  0  0  0  0  0
  -25.4098  -36.3141   24.0356 C   0  0  1  0  0  0
  -20.5873  -28.3649   23.1308 C   0  0  2  0  0  0
  -20.6754  -26.9375   22.5409 C   0  0  0  0  0  0
  -19.5730  -26.6376   21.5208 C   0  0  0  0  0  0
  -18.1914  -26.7924   22.1624 C   0  0  0  0  0  0
  -19.1523  -28.8816   23.2916 C   0  0  0  0  0  0
  -18.9462  -30.1426   23.8915 C   0  0  0  0  0  0
  -17.6465  -30.6578   24.0561 C   0  0  0  0  0  0
  -25.9011  -34.9500   23.5169 C   0  0  0  0  0  0
  -16.5357  -29.9085   23.6320 C   0  0  0  0  0  0
  -16.7256  -28.6497   23.0355 C   0  0  0  0  0  0
  -26.4450  -31.6608   25.0741 C   0  0  0  0  0  0
  -25.3733  -31.3725   26.1503 C   0  0  0  0  0  0
  -27.0257  -30.3059   24.6069 C   0  0  0  0  0  0
  -27.6045  -32.4316   25.7482 C   0  0  0  0  0  0
  -27.5587  -37.1814   24.8464 C   0  0  0  0  0  0
  -21.4130  -29.3041   22.3707 N   0  0  0  0  0  0
  -26.4295  -37.3814   23.9418 N   0  0  0  0  0  0
  -24.6667  -31.0836   22.1011 N   0  0  0  0  0  0
  -23.4191  -28.8190   23.2942 O   0  0  0  0  0  0
  -28.3555  -26.6730   20.1638 O   0  0  0  0  0  0
  -26.5575  -34.8946   22.4733 O   0  0  0  0  0  0
  -23.5320  -32.1447   23.7528 O   0  0  0  0  0  0
  -28.9661  -19.0898   20.2802 C   0  0  0  0  0  0
  -28.8692  -17.6872   20.4163 C   0  0  0  0  0  0
  -31.2776  -17.5552   20.7376 C   0  0  0  0  0  0
  -30.2294  -19.7193   20.2778 C   0  0  0  0  0  0
  -30.0398  -16.9019   20.5269 C   0  0  0  0  0  0
  -31.3769  -18.9559   20.5976 C   0  0  0  0  0  0
  -29.7234  -23.4866   20.2769 C   0  0  0  0  0  0
  -30.0764  -23.0891   23.1202 C   0  0  0  0  0  0
  -29.0359  -24.1132   22.6834 C   0  0  0  0  0  0
  -30.0493  -21.8830   22.1770 C   0  0  0  0  0  0
  -29.2931  -24.6136   21.2457 C   0  0  2  0  0  0
  -29.9471  -15.6975   18.4926 C   0  0  0  0  0  0
  -30.3496  -21.1721   19.7998 C   0  0  0  0  0  0
  -28.0583  -25.3806   20.7165 C   0  0  0  0  0  0
  -30.0033  -22.2416   20.7497 N   0  0  0  0  0  0
  -29.9983  -15.5848   19.9668 N   0  0  0  0  0  0
  -29.8045  -23.7561   19.0721 O   0  0  0  0  0  0
  -32.9407  -19.6880   20.7073 Cl  0  0  0  0  0  0
  -31.4698  -12.3477   19.1606 H   0  0  0  0  0  0
  -30.3144  -11.3055   19.9489 H   0  0  0  0  0  0
  -29.7193  -11.5232   17.5551 H   0  0  0  0  0  0
  -29.7050  -13.2446   17.6320 H   0  0  0  0  0  0
  -27.7779  -11.2698   18.8453 H   0  0  0  0  0  0
  -27.3925  -12.5770   17.7646 H   0  0  0  0  0  0
  -27.6594  -14.2307   19.4863 H   0  0  0  0  0  0
  -28.6758  -12.1041   21.4285 H   0  0  0  0  0  0
  -28.4901  -13.8121   21.7664 H   0  0  0  0  0  0
  -25.2791   -9.5681   22.4740 H   0  0  0  0  0  0
  -24.0007   -7.4651   22.7483 H   0  0  0  0  0  0
  -21.0840   -8.8803   19.8962 H   0  0  0  0  0  0
  -22.3721  -10.9676   19.6151 H   0  0  0  0  0  0
  -21.2013   -7.6140   23.9697 H   0  0  0  0  0  0
  -21.1479   -6.0507   25.9068 H   0  0  0  0  0  0
  -22.0603   -2.7588   23.2828 H   0  0  0  0  0  0
  -22.4189  -11.9945   22.4742 H   0  0  0  0  0  0
  -21.1157  -13.1280   22.2576 H   0  0  0  0  0  0
  -24.6770  -15.8510   20.4581 H   0  0  0  0  0  0
  -26.2796  -15.5807   19.9873 H   0  0  0  0  0  0
  -26.7090  -32.5556   23.1205 H   0  0  0  0  0  0
  -25.0015  -33.9834   25.0529 H   0  0  0  0  0  0
  -22.6910  -31.3154   21.4135 H   0  0  0  0  0  0
  -23.3759  -35.9636   23.3303 H   0  0  0  0  0  0
  -24.3602  -36.8930   22.2059 H   0  0  0  0  0  0
  -23.7205  -37.6530   23.6648 H   0  0  0  0  0  0
  -26.0467  -31.6121   20.5998 H   0  0  0  0  0  0
  -26.8211  -30.8958   21.9795 H   0  0  0  0  0  0
  -28.0980  -29.1162   21.1688 H   0  0  0  0  0  0
  -26.0483  -26.0107   18.9743 H   0  0  0  0  0  0
  -23.9705  -27.3191   19.0257 H   0  0  0  0  0  0
  -23.7256  -30.6173   19.4099 H   0  0  0  0  0  0
  -22.7337  -29.2601   19.8584 H   0  0  0  0  0  0
  -25.1275  -36.2018   25.0845 H   0  0  0  0  0  0
  -21.0002  -28.3193   24.1412 H   0  0  0  0  0  0
  -20.5640  -26.2246   23.3591 H   0  0  0  0  0  0
  -21.6622  -26.7384   22.1197 H   0  0  0  0  0  0
  -19.6879  -25.6297   21.1199 H   0  0  0  0  0  0
  -19.6679  -27.3212   20.6758 H   0  0  0  0  0  0
  -17.4187  -26.6693   21.4011 H   0  0  0  0  0  0
  -18.0304  -26.0058   22.9001 H   0  0  0  0  0  0
  -19.7941  -30.7241   24.2288 H   0  0  0  0  0  0
  -17.5020  -31.6257   24.5165 H   0  0  0  0  0  0
  -15.5361  -30.2984   23.7643 H   0  0  0  0  0  0
  -15.8658  -28.0813   22.7056 H   0  0  0  0  0  0
  -24.5850  -30.7131   25.7846 H   0  0  0  0  0  0
  -24.8993  -32.2890   26.5021 H   0  0  0  0  0  0
  -25.8089  -30.8827   27.0216 H   0  0  0  0  0  0
  -26.2774  -29.6837   24.1132 H   0  0  0  0  0  0
  -27.4075  -29.7262   25.4482 H   0  0  0  0  0  0
  -27.8594  -30.4429   23.9185 H   0  0  0  0  0  0
  -27.2698  -33.3629   26.2074 H   0  0  0  0  0  0
  -28.3834  -32.6844   25.0274 H   0  0  0  0  0  0
  -28.0721  -31.8414   26.5376 H   0  0  0  0  0  0
  -28.2594  -38.0113   24.7520 H   0  0  0  0  0  0
  -28.1096  -36.2658   24.6279 H   0  0  0  0  0  0
  -27.2321  -37.1430   25.8865 H   0  0  0  0  0  0
  -20.9261  -29.8840   21.7015 H   0  0  0  0  0  0
  -26.0196  -38.2892   24.1428 H   0  0  0  0  0  0
  -28.0748  -19.6617   20.0597 H   0  0  0  0  0  0
  -27.9082  -17.2129   20.2650 H   0  0  0  0  0  0
  -32.1938  -16.9944   20.8400 H   0  0  0  0  0  0
  -29.8853  -22.7652   24.1433 H   0  0  0  0  0  0
  -31.0691  -23.5432   23.1188 H   0  0  0  0  0  0
  -29.0456  -24.9572   23.3731 H   0  0  0  0  0  0
  -28.0415  -23.6684   22.7576 H   0  0  0  0  0  0
  -29.1792  -21.2643   22.4023 H   0  0  0  0  0  0
  -30.9298  -21.2702   22.3735 H   0  0  0  0  0  0
  -30.1337  -25.3065   21.2953 H   0  0  0  0  0  0
  -28.9918  -15.3606   18.0967 H   0  0  0  0  0  0
  -30.7492  -15.1448   17.9989 H   0  0  0  0  0  0
  -30.0824  -16.7242   18.1450 H   0  0  0  0  0  0
  -29.7072  -21.2444   18.9198 H   0  0  0  0  0  0
  -31.3502  -21.3699   19.4169 H   0  0  0  0  0  0
  -27.3411  -25.5058   21.5324 H   0  0  0  0  0  0
  -27.5389  -24.7706   19.9754 H   0  0  0  0  0  0
  1 25  1  0  0  0
  1 30  2  0  0  0
  1 86  1  0  0  0
  2  3  1  0  0  0
  2 25  1  0  0  0
  2 89  1  0  0  0
  2 90  1  0  0  0
  3  4  1  0  0  0
  3 91  1  0  0  0
  3 92  1  0  0  0
  4  5  1  0  0  0
  4 93  1  0  0  0
  4 94  1  0  0  0
  5  6  1  0  0  0
  5 26  1  0  0  0
  5 95  1  0  0  0
  6 25  1  0  0  0
  6 96  1  0  0  0
  6 97  1  0  0  0
  7  8  2  0  0  0
  7 26  1  0  0  0
  7 29  1  0  0  0
  8  9  1  0  0  0
  8 22  1  0  0  0
  9 10  1  0  0  0
  9 27  2  0  0  0
 10 11  2  0  0  0
 10 15  1  0  0  0
 11 12  1  0  0  0
 11 98  1  0  0  0
 12 13  2  0  0  0
 12 99  1  0  0  0
 13 14  1  0  0  0
 13 31  1  0  0  0
 14 15  2  0  0  0
 14100  1  0  0  0
 15101  1  0  0  0
 16 17  2  0  0  0
 16 21  1  0  0  0
 16 31  1  0  0  0
 17 18  1  0  0  0
 17102  1  0  0  0
 18 19  2  0  0  0
 18103  1  0  0  0
 19 20  1  0  0  0
 19 24  1  0  0  0
 20 21  2  0  0  0
 20104  1  0  0  0
 21 23  1  0  0  0
 22 28  1  0  0  0
 22 32  2  0  0  0
 26 27  1  0  0  0
 28105  1  0  0  0
 28106  1  0  0  0
 29107  1  0  0  0
 29108  1  0  0  0
 33 34  1  0  0  0
 33 66  1  0  0  0
 33 70  2  0  0  0
 34 36  1  0  0  0
 34 59  1  0  0  0
 34109  1  0  0  0
 35 44  2  0  0  0
 35 45  1  0  0  0
 35 68  1  0  0  0
 36 56  1  0  0  0
 36110  1  0  0  0
 37 39  1  0  0  0
 37 47  1  0  0  0
 37 66  1  0  0  0
 37111  1  0  0  0
 38 43  2  0  0  0
 38 46  1  0  0  0
 38 47  1  0  0  0
 39 64  1  0  0  0
 39 67  2  0  0  0
 40 52  1  0  0  0
 40 53  2  0  0  0
 40 58  1  0  0  0
 41112  1  0  0  0
 41113  1  0  0  0
 41114  1  0  0  0
 41 48  1  0  0  0
 42 43  1  0  0  0
 42 66  1  0  0  0
 42115  1  0  0  0
 42116  1  0  0  0
 43 44  1  0  0  0
 44117  1  0  0  0
 45 46  2  0  0  0
 45118  1  0  0  0
 46119  1  0  0  0
 47120  1  0  0  0
 47121  1  0  0  0
 48 56  1  0  0  0
 48 65  1  0  0  0
 48122  1  0  0  0
 49 50  1  0  0  0
 49 53  1  0  0  0
 49 64  1  0  0  0
 49123  1  0  0  0
 50 51  1  0  0  0
 50124  1  0  0  0
 50125  1  0  0  0
 51 52  1  0  0  0
 51126  1  0  0  0
 51127  1  0  0  0
 52128  1  0  0  0
 52129  1  0  0  0
 53 54  1  0  0  0
 54 55  2  0  0  0
 54130  1  0  0  0
 55 57  1  0  0  0
 55131  1  0  0  0
 56 69  2  0  0  0
 57 58  2  0  0  0
 57132  1  0  0  0
 58133  1  0  0  0
 59 60  1  0  0  0
 59 61  1  0  0  0
 59 62  1  0  0  0
 60134  1  0  0  0
 60135  1  0  0  0
 60136  1  0  0  0
 61137  1  0  0  0
 61138  1  0  0  0
 61139  1  0  0  0
 62140  1  0  0  0
 62141  1  0  0  0
 62142  1  0  0  0
 63 65  1  0  0  0
 63143  1  0  0  0
 63144  1  0  0  0
 63145  1  0  0  0
 64146  1  0  0  0
 65147  1  0  0  0
 68 84  1  0  0  0
 71 72  2  0  0  0
 71 74  1  0  0  0
 71148  1  0  0  0
 72 75  1  0  0  0
 72149  1  0  0  0
 73 75  2  0  0  0
 73 76  1  0  0  0
 73150  1  0  0  0
 74 76  2  0  0  0
 74 83  1  0  0  0
 75 86  1  0  0  0
 76 88  1  0  0  0
 77 81  1  0  0  0
 77 85  1  0  0  0
 77 87  2  0  0  0
 78 79  1  0  0  0
 78 80  1  0  0  0
 78151  1  0  0  0
 78152  1  0  0  0
 79 81  1  0  0  0
 79153  1  0  0  0
 79154  1  0  0  0
 80 85  1  0  0  0
 80155  1  0  0  0
 80156  1  0  0  0
 81 84  1  0  0  0
 81157  1  0  0  0
 82 86  1  0  0  0
 82158  1  0  0  0
 82159  1  0  0  0
 82160  1  0  0  0
 83 85  1  0  0  0
 83161  1  0  0  0
 83162  1  0  0  0
 84163  1  0  0  0
 84164  1  0  0  0
M  ISO  4   1 100  68 101  84 101  86 100
M  END
> <chiral flag>
0

> <version>
0

> <s_m_source_file>
/data/baiqing/PycharmProjects/Reinvent-master-3.2/result/LINK_invent/BTK/process_docking_weight1_custom_product_contain_oxygen_bond_distance_aromatic_linkinvent_7_9_3/rearranged_h_0021.sdf

> <i_m_source_file_index>
55

> <r_mmod_Potential_Energy-OPLS-2005>
310.904907226562

> <r_mmod_Stretch_Energy-OPLS-2005>
41.4231071472168

> <r_mmod_Bend_Energy-OPLS-2005>
114.165031433105

> <r_mmod_Torsional_Energy-OPLS-2005>
397.408142089844

> <r_mmod_Improper_Torsional_Energy-OPLS-2005>
33.1113891601562

> <r_mmod_Van_der_Waal_Energy-OPLS-2005>
181.130706787109

> <r_mmod_Electrostatic_Energy-OPLS-2005>
-283.476440429688

> <r_mmod_Solvation_Energy-OPLS-2005>
-209.030349731445

> <b_mmod_Minimization_Converged-OPLS-2005>
0

> <r_mmod_RMS_Derivative-OPLS-2005>
3.40795063972473

$$$$
55
                    3D
 Structure written by MMmdl.
156165  0  0  1  0            999 V2000
  -30.5236  -14.9050   20.4506 C   0  0  0  0  0  0
  -30.4545  -12.5578   19.4966 C   0  0  0  0  0  0
  -29.5284  -12.5339   18.2565 C   0  0  0  0  0  0
  -28.0578  -12.3258   18.6687 C   0  0  0  0  0  0
  -27.6408  -13.2396   19.8508 C   0  0  2  0  0  0
  -28.6843  -13.2126   20.9902 C   0  0  0  0  0  0
  -25.2463  -13.8156   20.5610 C   0  0  0  0  0  0
  -24.1786  -13.0404   20.9184 C   0  0  0  0  0  0
  -24.6407  -11.6897   20.8749 C   0  0  0  0  0  0
  -23.9081  -10.4278   21.0408 C   0  0  0  0  0  0
  -24.3625   -9.4194   21.9187 C   0  0  0  0  0  0
  -23.6295   -8.2235   22.0756 C   0  0  0  0  0  0
  -22.4278   -8.0276   21.3546 C   0  0  0  0  0  0
  -21.9916   -9.0251   20.4649 C   0  0  0  0  0  0
  -22.7252  -10.2124   20.3057 C   0  0  0  0  0  0
  -21.6850   -6.0731   22.5279 C   0  0  0  0  0  0
  -21.4013   -6.5634   23.8213 C   0  0  0  0  0  0
  -21.3662   -5.6788   24.9174 C   0  0  0  0  0  0
  -21.6049   -4.3053   24.7227 C   0  0  0  0  0  0
  -21.8820   -3.8142   23.4348 C   0  0  0  0  0  0
  -21.9191   -4.6958   22.3401 C   0  0  0  0  0  0
  -22.7809  -13.5195   21.1851 C   0  0  0  0  0  0
  -22.1660   -4.2143   21.0980 F   0  0  0  0  0  0
  -21.5627   -3.4537   25.7739 F   0  0  0  0  0  0
  -29.9726  -13.6273   20.4128 N   0  0  0  0  0  0
  -26.2938  -12.9402   20.3275 N   0  0  0  0  0  0
  -25.9352  -11.6538   20.5769 N   0  0  0  0  0  0
  -22.0460  -12.8204   22.0427 N   0  0  0  0  0  0
  -25.4037  -15.1854   20.3884 N   0  0  0  0  0  0
  -31.7007  -15.0468   20.1011 O   0  0  0  0  0  0
  -21.6638   -6.8876   21.4243 O   0  0  0  0  0  0
  -22.3486  -14.5496   20.6696 O   0  0  0  0  0  0
  -24.6423  -31.8458   23.1898 C   0  0  0  0  0  0
  -25.9198  -32.4709   23.8286 C   0  0  1  0  0  0
  -27.2226  -27.1553   20.1518 C   0  0  0  0  0  0
  -25.5944  -33.8515   24.2196 N   0  0  0  0  0  0
  -23.4450  -30.4653   21.5354 C   0  0  2  0  0  0
  -24.8955  -28.8937   20.1149 C   0  0  0  0  0  0
  -22.7560  -29.4559   22.4873 C   0  0  0  0  0  0
  -18.0303  -28.1395   22.8479 C   0  0  0  0  0  0
  -24.1489  -36.7267   23.2640 C   0  0  0  0  0  0
  -26.0003  -30.7254   21.3867 C   0  0  0  0  0  0
  -26.0725  -29.3375   20.7308 C   0  0  0  0  0  0
  -27.2383  -28.4854   20.7303 C   0  0  0  0  0  0
  -26.0206  -26.8118   19.4934 C   0  0  0  0  0  0
  -24.8813  -27.6431   19.4810 C   0  0  0  0  0  0
  -23.6711  -29.7934   20.1555 C   0  0  0  0  0  0
  -25.4122  -36.3045   24.0312 C   0  0  1  0  0  0
  -20.5914  -28.3719   23.1236 C   0  0  2  0  0  0
  -20.6786  -26.9424   22.5399 C   0  0  0  0  0  0
  -19.5760  -26.6381   21.5207 C   0  0  0  0  0  0
  -18.1943  -26.7932   22.1624 C   0  0  0  0  0  0
  -19.1558  -28.8875   23.2850 C   0  0  0  0  0  0
  -18.9475  -30.1472   23.8877 C   0  0  0  0  0  0
  -17.6471  -30.6592   24.0561 C   0  0  0  0  0  0
  -25.9072  -34.9418   23.5064 C   0  0  0  0  0  0
  -16.5363  -29.9086   23.6336 C   0  0  0  0  0  0
  -16.7287  -28.6504   23.0356 C   0  0  0  0  0  0
  -26.4521  -31.6577   25.0726 C   0  0  0  0  0  0
  -25.3701  -31.3768   26.1416 C   0  0  0  0  0  0
  -27.0383  -30.2972   24.6308 C   0  0  0  0  0  0
  -27.6043  -32.4351   25.7516 C   0  0  0  0  0  0
  -27.5576  -37.1788   24.8464 C   0  0  0  0  0  0
  -21.4253  -29.3049   22.3614 N   0  0  0  0  0  0
  -26.4288  -37.3755   23.9405 N   0  0  0  0  0  0
  -24.7155  -31.0330   22.0924 N   0  0  0  0  0  0
  -23.4207  -28.8104   23.3019 O   0  0  0  0  0  0
  -28.2910  -26.1913   20.1846 O   0  0  0  0  0  0
  -26.5667  -34.8909   22.4650 O   0  0  0  0  0  0
  -23.5546  -32.1325   23.7127 O   0  0  0  0  0  0
  -30.1635  -19.9377   20.0819 C   0  0  0  0  0  0
  -30.4247  -18.4949   20.0664 C   0  0  0  0  0  0
  -29.0348  -20.5643   20.7256 C   0  0  0  0  0  0
  -29.5825  -17.5131   20.7005 C   0  0  0  0  0  0
  -28.1917  -19.5657   21.3352 C   0  0  0  0  0  0
  -28.4602  -18.1396   21.3329 C   0  0  0  0  0  0
  -30.2699  -23.2830   22.3046 C   0  0  0  0  0  0
  -30.4020  -23.7331   20.8467 C   0  0  0  0  0  0
  -29.0572  -22.3410   22.3285 C   0  0  0  0  0  0
  -29.0555  -23.3666   20.2279 C   0  0  2  0  0  0
  -28.0152  -24.6818   20.4253 C   0  0  0  0  0  0
  -28.7452  -22.0194   20.9344 N   0  0  0  0  0  0
  -29.6659  -15.9832   20.7517 N   0  0  0  0  0  0
  -26.7494  -20.1045   22.1400 Cl  0  0  0  0  0  0
  -27.3647  -17.0948   22.1774 Cl  0  0  0  0  0  0
  -31.4878  -12.7241   19.1879 H   0  0  0  0  0  0
  -30.4475  -11.5913   20.0025 H   0  0  0  0  0  0
  -29.8398  -11.7472   17.5680 H   0  0  0  0  0  0
  -29.6252  -13.4738   17.7106 H   0  0  0  0  0  0
  -27.9418  -11.2798   18.9556 H   0  0  0  0  0  0
  -27.3986  -12.4814   17.8140 H   0  0  0  0  0  0
  -27.6200  -14.2536   19.4501 H   0  0  0  0  0  0
  -28.7575  -12.2156   21.4272 H   0  0  0  0  0  0
  -28.3863  -13.8758   21.8036 H   0  0  0  0  0  0
  -25.2765   -9.5668   22.4772 H   0  0  0  0  0  0
  -23.9993   -7.4626   22.7480 H   0  0  0  0  0  0
  -21.0843   -8.8782   19.8958 H   0  0  0  0  0  0
  -22.3714  -10.9668   19.6173 H   0  0  0  0  0  0
  -21.2007   -7.6141   23.9717 H   0  0  0  0  0  0
  -21.1483   -6.0514   25.9077 H   0  0  0  0  0  0
  -22.0596   -2.7603   23.2847 H   0  0  0  0  0  0
  -22.4072  -11.9879   22.4842 H   0  0  0  0  0  0
  -21.1082  -13.1242   22.2629 H   0  0  0  0  0  0
  -24.6392  -15.8340   20.5356 H   0  0  0  0  0  0
  -26.2621  -15.6437   20.1158 H   0  0  0  0  0  0
  -26.7266  -32.5325   23.1019 H   0  0  0  0  0  0
  -25.0046  -33.9637   25.0310 H   0  0  0  0  0  0
  -22.7477  -31.2913   21.3810 H   0  0  0  0  0  0
  -23.3754  -35.9596   23.3295 H   0  0  0  0  0  0
  -24.3570  -36.8911   22.2056 H   0  0  0  0  0  0
  -23.7239  -37.6457   23.6684 H   0  0  0  0  0  0
  -26.1547  -31.4792   20.6135 H   0  0  0  0  0  0
  -26.8714  -30.7764   22.0282 H   0  0  0  0  0  0
  -28.1383  -28.8248   21.2237 H   0  0  0  0  0  0
  -25.9344  -25.8688   18.9768 H   0  0  0  0  0  0
  -23.9852  -27.3019   18.9809 H   0  0  0  0  0  0
  -23.8070  -30.5667   19.3985 H   0  0  0  0  0  0
  -22.7871  -29.2331   19.8460 H   0  0  0  0  0  0
  -25.1308  -36.1877   25.0804 H   0  0  0  0  0  0
  -21.0012  -28.3306   24.1356 H   0  0  0  0  0  0
  -20.5674  -26.2336   23.3617 H   0  0  0  0  0  0
  -21.6652  -26.7426   22.1201 H   0  0  0  0  0  0
  -19.6918  -25.6285   21.1254 H   0  0  0  0  0  0
  -19.6692  -27.3178   20.6726 H   0  0  0  0  0  0
  -17.4207  -26.6674   21.4032 H   0  0  0  0  0  0
  -18.0349  -26.0079   22.9028 H   0  0  0  0  0  0
  -19.7949  -30.7294   24.2236 H   0  0  0  0  0  0
  -17.5023  -31.6269   24.5167 H   0  0  0  0  0  0
  -15.5361  -30.2982   23.7665 H   0  0  0  0  0  0
  -15.8689  -28.0815   22.7082 H   0  0  0  0  0  0
  -24.5887  -30.7114   25.7729 H   0  0  0  0  0  0
  -24.8883  -32.2952   26.4781 H   0  0  0  0  0  0
  -25.7976  -30.8976   27.0233 H   0  0  0  0  0  0
  -26.2995  -29.6700   24.1305 H   0  0  0  0  0  0
  -27.3978  -29.7274   25.4888 H   0  0  0  0  0  0
  -27.8917  -30.4205   23.9634 H   0  0  0  0  0  0
  -27.2622  -33.3663   26.2048 H   0  0  0  0  0  0
  -28.3877  -32.6900   25.0367 H   0  0  0  0  0  0
  -28.0687  -31.8515   26.5476 H   0  0  0  0  0  0
  -28.2588  -38.0090   24.7511 H   0  0  0  0  0  0
  -28.1075  -36.2618   24.6290 H   0  0  0  0  0  0
  -27.2294  -37.1439   25.8867 H   0  0  0  0  0  0
  -20.9464  -29.8771   21.6799 H   0  0  0  0  0  0
  -26.0158  -38.2823   24.1409 H   0  0  0  0  0  0
  -30.8840  -20.5804   19.5974 H   0  0  0  0  0  0
  -31.3068  -18.1474   19.5485 H   0  0  0  0  0  0
  -30.1040  -24.1300   22.9715 H   0  0  0  0  0  0
  -31.1772  -22.7765   22.6365 H   0  0  0  0  0  0
  -31.1971  -23.1678   20.3577 H   0  0  0  0  0  0
  -30.6450  -24.7918   20.7475 H   0  0  0  0  0  0
  -28.1960  -22.8350   22.7821 H   0  0  0  0  0  0
  -29.2713  -21.4678   22.9483 H   0  0  0  0  0  0
  -29.1903  -23.1937   19.1591 H   0  0  0  0  0  0
  -27.6825  -24.6604   21.4627 H   0  0  0  0  0  0
  -27.1292  -24.4008   19.8620 H   0  0  0  0  0  0
  -28.7980  -15.6062   21.1045 H   0  0  0  0  0  0
  1 25  1  0  0  0
  1 30  2  0  0  0
  1 83  1  0  0  0
  2  3  1  0  0  0
  2 25  1  0  0  0
  2 86  1  0  0  0
  2 87  1  0  0  0
  3  4  1  0  0  0
  3 88  1  0  0  0
  3 89  1  0  0  0
  4  5  1  0  0  0
  4 90  1  0  0  0
  4 91  1  0  0  0
  5  6  1  0  0  0
  5 26  1  0  0  0
  5 92  1  0  0  0
  6 25  1  0  0  0
  6 93  1  0  0  0
  6 94  1  0  0  0
  7  8  2  0  0  0
  7 26  1  0  0  0
  7 29  1  0  0  0
  8  9  1  0  0  0
  8 22  1  0  0  0
  9 10  1  0  0  0
  9 27  2  0  0  0
 10 11  2  0  0  0
 10 15  1  0  0  0
 11 12  1  0  0  0
 11 95  1  0  0  0
 12 13  2  0  0  0
 12 96  1  0  0  0
 13 14  1  0  0  0
 13 31  1  0  0  0
 14 15  2  0  0  0
 14 97  1  0  0  0
 15 98  1  0  0  0
 16 17  2  0  0  0
 16 21  1  0  0  0
 16 31  1  0  0  0
 17 18  1  0  0  0
 17 99  1  0  0  0
 18 19  2  0  0  0
 18100  1  0  0  0
 19 20  1  0  0  0
 19 24  1  0  0  0
 20 21  2  0  0  0
 20101  1  0  0  0
 21 23  1  0  0  0
 22 28  1  0  0  0
 22 32  2  0  0  0
 26 27  1  0  0  0
 28102  1  0  0  0
 28103  1  0  0  0
 29104  1  0  0  0
 29105  1  0  0  0
 33 34  1  0  0  0
 33 66  1  0  0  0
 33 70  2  0  0  0
 34 36  1  0  0  0
 34 59  1  0  0  0
 34106  1  0  0  0
 35 44  2  0  0  0
 35 45  1  0  0  0
 35 68  1  0  0  0
 36 56  1  0  0  0
 36107  1  0  0  0
 37 39  1  0  0  0
 37 47  1  0  0  0
 37 66  1  0  0  0
 37108  1  0  0  0
 38 43  2  0  0  0
 38 46  1  0  0  0
 38 47  1  0  0  0
 39 64  1  0  0  0
 39 67  2  0  0  0
 40 52  1  0  0  0
 40 53  2  0  0  0
 40 58  1  0  0  0
 41109  1  0  0  0
 41110  1  0  0  0
 41111  1  0  0  0
 41 48  1  0  0  0
 42 43  1  0  0  0
 42 66  1  0  0  0
 42112  1  0  0  0
 42113  1  0  0  0
 43 44  1  0  0  0
 44114  1  0  0  0
 45 46  2  0  0  0
 45115  1  0  0  0
 46116  1  0  0  0
 47117  1  0  0  0
 47118  1  0  0  0
 48 56  1  0  0  0
 48 65  1  0  0  0
 48119  1  0  0  0
 49 50  1  0  0  0
 49 53  1  0  0  0
 49 64  1  0  0  0
 49120  1  0  0  0
 50 51  1  0  0  0
 50121  1  0  0  0
 50122  1  0  0  0
 51 52  1  0  0  0
 51123  1  0  0  0
 51124  1  0  0  0
 52125  1  0  0  0
 52126  1  0  0  0
 53 54  1  0  0  0
 54 55  2  0  0  0
 54127  1  0  0  0
 55 57  1  0  0  0
 55128  1  0  0  0
 56 69  2  0  0  0
 57 58  2  0  0  0
 57129  1  0  0  0
 58130  1  0  0  0
 59 60  1  0  0  0
 59 61  1  0  0  0
 59 62  1  0  0  0
 60131  1  0  0  0
 60132  1  0  0  0
 60133  1  0  0  0
 61134  1  0  0  0
 61135  1  0  0  0
 61136  1  0  0  0
 62137  1  0  0  0
 62138  1  0  0  0
 62139  1  0  0  0
 63 65  1  0  0  0
 63140  1  0  0  0
 63141  1  0  0  0
 63142  1  0  0  0
 64143  1  0  0  0
 65144  1  0  0  0
 68 81  1  0  0  0
 71 72  2  0  0  0
 71 73  1  0  0  0
 71145  1  0  0  0
 72 74  1  0  0  0
 72146  1  0  0  0
 73 75  2  0  0  0
 73 82  1  0  0  0
 74 76  2  0  0  0
 74 83  1  0  0  0
 75 76  1  0  0  0
 75 84  1  0  0  0
 76 85  1  0  0  0
 77 78  1  0  0  0
 77 79  1  0  0  0
 77147  1  0  0  0
 77148  1  0  0  0
 78 80  1  0  0  0
 78149  1  0  0  0
 78150  1  0  0  0
 79 82  1  0  0  0
 79151  1  0  0  0
 79152  1  0  0  0
 80 81  1  0  0  0
 80 82  1  0  0  0
 80153  1  0  0  0
 81154  1  0  0  0
 81155  1  0  0  0
 83156  1  0  0  0
M  ISO  4   1 100  68 101  81 101  83 100
M  END
> <chiral flag>
0

> <version>
0

> <s_m_source_file>
/data/baiqing/PycharmProjects/Reinvent-master-3.2/result/LINK_invent/BTK/process_docking_weight1_custom_product_contain_oxygen_bond_distance_aromatic_linkinvent_7_9_3/rearranged_h_0021.sdf

> <i_m_source_file_index>
56

> <r_mmod_Potential_Energy-OPLS-2005>
599.439575195312

> <r_mmod_Stretch_Energy-OPLS-2005>
218.062744140625

> <r_mmod_Bend_Energy-OPLS-2005>
319.788360595703

> <r_mmod_Torsional_Energy-OPLS-2005>
298.786956787109

> <r_mmod_Improper_Torsional_Energy-OPLS-2005>
8.27709293365479

> <r_mmod_Van_der_Waal_Energy-OPLS-2005>
135.08464050293

> <r_mmod_Electrostatic_Energy-OPLS-2005>
-334.139587402344

> <r_mmod_Solvation_Energy-OPLS-2005>
-213.158905029297

> <b_mmod_Minimization_Converged-OPLS-2005>
0

> <r_mmod_RMS_Derivative-OPLS-2005>
0.719257712364197

$$$$
56
                    3D
 Structure written by MMmdl.
162171  0  0  1  0            999 V2000
  -30.5227  -14.9037   20.4368 C   0  0  0  0  0  0
  -30.4526  -12.5533   19.4953 C   0  0  0  0  0  0
  -29.5278  -12.5325   18.2545 C   0  0  0  0  0  0
  -28.0566  -12.3229   18.6659 C   0  0  0  0  0  0
  -27.6400  -13.2364   19.8472 C   0  0  2  0  0  0
  -28.6828  -13.2136   20.9858 C   0  0  0  0  0  0
  -25.2517  -13.8190   20.5688 C   0  0  0  0  0  0
  -24.1808  -13.0440   20.9208 C   0  0  0  0  0  0
  -24.6395  -11.6916   20.8739 C   0  0  0  0  0  0
  -23.9055  -10.4301   21.0397 C   0  0  0  0  0  0
  -24.3607   -9.4218   21.9177 C   0  0  0  0  0  0
  -23.6287   -8.2251   22.0751 C   0  0  0  0  0  0
  -22.4270   -8.0284   21.3543 C   0  0  0  0  0  0
  -21.9900   -9.0253   20.4640 C   0  0  0  0  0  0
  -22.7223  -10.2137   20.3048 C   0  0  0  0  0  0
  -21.6858   -6.0726   22.5277 C   0  0  0  0  0  0
  -21.4014   -6.5630   23.8207 C   0  0  0  0  0  0
  -21.3662   -5.6785   24.9171 C   0  0  0  0  0  0
  -21.6051   -4.3047   24.7220 C   0  0  0  0  0  0
  -21.8819   -3.8135   23.4338 C   0  0  0  0  0  0
  -21.9192   -4.6954   22.3396 C   0  0  0  0  0  0
  -22.7831  -13.5231   21.1857 C   0  0  0  0  0  0
  -22.1661   -4.2139   21.0974 F   0  0  0  0  0  0
  -21.5633   -3.4535   25.7732 F   0  0  0  0  0  0
  -29.9697  -13.6272   20.4057 N   0  0  0  0  0  0
  -26.2935  -12.9393   20.3253 N   0  0  0  0  0  0
  -25.9327  -11.6535   20.5730 N   0  0  0  0  0  0
  -22.0454  -12.8247   22.0413 N   0  0  0  0  0  0
  -25.4222  -15.1913   20.4104 N   0  0  0  0  0  0
  -31.7105  -15.0253   20.1172 O   0  0  0  0  0  0
  -21.6645   -6.8873   21.4239 O   0  0  0  0  0  0
  -22.3520  -14.5534   20.6689 O   0  0  0  0  0  0
  -24.6414  -31.8449   23.1894 C   0  0  0  0  0  0
  -25.9188  -32.4693   23.8283 C   0  0  1  0  0  0
  -27.2213  -27.1577   20.1480 C   0  0  0  0  0  0
  -25.5942  -33.8500   24.2208 N   0  0  0  0  0  0
  -23.4439  -30.4655   21.5336 C   0  0  2  0  0  0
  -24.8937  -28.8922   20.1151 C   0  0  0  0  0  0
  -22.7551  -29.4559   22.4857 C   0  0  0  0  0  0
  -18.0294  -28.1402   22.8472 C   0  0  0  0  0  0
  -24.1491  -36.7266   23.2639 C   0  0  0  0  0  0
  -25.9982  -30.7268   21.3837 C   0  0  0  0  0  0
  -26.0711  -29.3371   20.7303 C   0  0  0  0  0  0
  -27.2372  -28.4867   20.7286 C   0  0  0  0  0  0
  -26.0211  -26.8123   19.4898 C   0  0  0  0  0  0
  -24.8803  -27.6414   19.4804 C   0  0  0  0  0  0
  -23.6703  -29.7938   20.1539 C   0  0  0  0  0  0
  -25.4119  -36.3031   24.0314 C   0  0  1  0  0  0
  -20.5907  -28.3717   23.1239 C   0  0  2  0  0  0
  -20.6783  -26.9426   22.5403 C   0  0  0  0  0  0
  -19.5756  -26.6385   21.5210 C   0  0  0  0  0  0
  -18.1936  -26.7939   22.1626 C   0  0  0  0  0  0
  -19.1554  -28.8877   23.2854 C   0  0  0  0  0  0
  -18.9473  -30.1475   23.8881 C   0  0  0  0  0  0
  -17.6470  -30.6599   24.0560 C   0  0  0  0  0  0
  -25.9067  -34.9401   23.5070 C   0  0  0  0  0  0
  -16.5360  -29.9096   23.6331 C   0  0  0  0  0  0
  -16.7278  -28.6518   23.0344 C   0  0  0  0  0  0
  -26.4501  -31.6526   25.0701 C   0  0  0  0  0  0
  -25.3690  -31.3699   26.1385 C   0  0  0  0  0  0
  -27.0346  -30.2916   24.6255 C   0  0  0  0  0  0
  -27.6032  -32.4270   25.7506 C   0  0  0  0  0  0
  -27.5574  -37.1792   24.8457 C   0  0  0  0  0  0
  -21.4240  -29.3056   22.3618 N   0  0  0  0  0  0
  -26.4278  -37.3747   23.9403 N   0  0  0  0  0  0
  -24.7144  -31.0332   22.0910 N   0  0  0  0  0  0
  -23.4205  -28.8096   23.2994 O   0  0  0  0  0  0
  -28.2887  -26.1954   20.1700 O   0  0  0  0  0  0
  -26.5660  -34.8893   22.4658 O   0  0  0  0  0  0
  -23.5542  -32.1303   23.7134 O   0  0  0  0  0  0
  -30.1299  -19.9518   19.9745 C   0  0  0  0  0  0
  -28.4954  -18.1641   21.2911 C   0  0  0  0  0  0
  -30.4023  -18.5093   19.9445 C   0  0  0  0  0  0
  -28.2258  -19.5839   21.3237 C   0  0  0  0  0  0
  -29.0344  -20.5783   20.6714 C   0  0  0  0  0  0
  -29.5891  -17.5266   20.6269 C   0  0  0  0  0  0
  -30.5345  -23.2504   21.9893 C   0  0  0  0  0  0
  -30.4305  -23.7049   20.5303 C   0  0  0  0  0  0
  -29.3059  -22.3582   22.2250 C   0  0  0  0  0  0
  -28.9964  -23.3596   20.1382 C   0  0  2  0  0  0
  -31.5995  -18.0383   19.1432 C   0  0  0  0  0  0
  -27.0124  -20.0278   22.1275 C   0  0  0  0  0  0
  -28.0222  -24.6968   20.4696 C   0  0  0  0  0  0
  -28.7707  -22.0292   20.9040 N   0  0  0  0  0  0
  -29.6578  -15.9953   20.6879 N   0  0  0  0  0  0
  -31.4875  -12.7172   19.1913 H   0  0  0  0  0  0
  -30.4393  -11.5859   20.0008 H   0  0  0  0  0  0
  -29.8384  -11.7494   17.5626 H   0  0  0  0  0  0
  -29.6230  -13.4746   17.7131 H   0  0  0  0  0  0
  -27.9412  -11.2769   18.9515 H   0  0  0  0  0  0
  -27.3966  -12.4796   17.8116 H   0  0  0  0  0  0
  -27.6180  -14.2480   19.4407 H   0  0  0  0  0  0
  -28.7572  -12.2170   21.4230 H   0  0  0  0  0  0
  -28.3876  -13.8796   21.7980 H   0  0  0  0  0  0
  -25.2743   -9.5710   22.4753 H   0  0  0  0  0  0
  -23.9999   -7.4644   22.7474 H   0  0  0  0  0  0
  -21.0825   -8.8758   19.8943 H   0  0  0  0  0  0
  -22.3660  -10.9672   19.6160 H   0  0  0  0  0  0
  -21.2004   -7.6140   23.9707 H   0  0  0  0  0  0
  -21.1492   -6.0516   25.9076 H   0  0  0  0  0  0
  -22.0595   -2.7596   23.2843 H   0  0  0  0  0  0
  -22.4047  -11.9924   22.4846 H   0  0  0  0  0  0
  -21.1064  -13.1287   22.2559 H   0  0  0  0  0  0
  -24.6499  -15.8414   20.5105 H   0  0  0  0  0  0
  -26.2573  -15.6256   20.0402 H   0  0  0  0  0  0
  -26.7261  -32.5314   23.1028 H   0  0  0  0  0  0
  -25.0041  -33.9619   25.0321 H   0  0  0  0  0  0
  -22.7455  -31.2908   21.3799 H   0  0  0  0  0  0
  -23.3747  -35.9605   23.3281 H   0  0  0  0  0  0
  -24.3586  -36.8918   22.2056 H   0  0  0  0  0  0
  -23.7261  -37.6466   23.6690 H   0  0  0  0  0  0
  -26.1466  -31.4778   20.6068 H   0  0  0  0  0  0
  -26.8717  -30.7834   22.0216 H   0  0  0  0  0  0
  -28.1366  -28.8249   21.2245 H   0  0  0  0  0  0
  -25.9420  -25.8677   18.9734 H   0  0  0  0  0  0
  -23.9852  -27.2990   18.9792 H   0  0  0  0  0  0
  -23.8081  -30.5669   19.3964 H   0  0  0  0  0  0
  -22.7854  -29.2357   19.8429 H   0  0  0  0  0  0
  -25.1317  -36.1855   25.0809 H   0  0  0  0  0  0
  -21.0009  -28.3304   24.1354 H   0  0  0  0  0  0
  -20.5661  -26.2341   23.3623 H   0  0  0  0  0  0
  -21.6651  -26.7426   22.1213 H   0  0  0  0  0  0
  -19.6914  -25.6288   21.1260 H   0  0  0  0  0  0
  -19.6694  -27.3175   20.6723 H   0  0  0  0  0  0
  -17.4207  -26.6665   21.4033 H   0  0  0  0  0  0
  -18.0345  -26.0094   22.9039 H   0  0  0  0  0  0
  -19.7947  -30.7295   24.2248 H   0  0  0  0  0  0
  -17.5021  -31.6272   24.5171 H   0  0  0  0  0  0
  -15.5361  -30.2999   23.7657 H   0  0  0  0  0  0
  -15.8676  -28.0837   22.7061 H   0  0  0  0  0  0
  -24.5882  -30.7041   25.7685 H   0  0  0  0  0  0
  -24.8847  -32.2869   26.4748 H   0  0  0  0  0  0
  -25.7964  -30.8911   27.0204 H   0  0  0  0  0  0
  -26.2925  -29.6640   24.1298 H   0  0  0  0  0  0
  -27.3984  -29.7212   25.4813 H   0  0  0  0  0  0
  -27.8833  -30.4139   23.9524 H   0  0  0  0  0  0
  -27.2617  -33.3571   26.2068 H   0  0  0  0  0  0
  -28.3891  -32.6793   25.0377 H   0  0  0  0  0  0
  -28.0642  -31.8395   26.5454 H   0  0  0  0  0  0
  -28.2581  -38.0096   24.7508 H   0  0  0  0  0  0
  -28.1090  -36.2631   24.6290 H   0  0  0  0  0  0
  -27.2300  -37.1449   25.8862 H   0  0  0  0  0  0
  -20.9436  -29.8811   21.6840 H   0  0  0  0  0  0
  -26.0139  -38.2816   24.1409 H   0  0  0  0  0  0
  -30.8178  -20.6077   19.4598 H   0  0  0  0  0  0
  -27.8115  -17.5229   21.8288 H   0  0  0  0  0  0
  -30.5263  -24.0988   22.6752 H   0  0  0  0  0  0
  -31.4632  -22.7023   22.1544 H   0  0  0  0  0  0
  -31.1257  -23.1302   19.9159 H   0  0  0  0  0  0
  -30.6694  -24.7608   20.3949 H   0  0  0  0  0  0
  -28.5442  -22.8959   22.7918 H   0  0  0  0  0  0
  -29.5764  -21.4856   22.8235 H   0  0  0  0  0  0
  -28.9593  -23.1683   19.0646 H   0  0  0  0  0  0
  -32.3510  -17.6079   19.8045 H   0  0  0  0  0  0
  -32.0656  -18.8580   18.5964 H   0  0  0  0  0  0
  -31.3012  -17.2832   18.4160 H   0  0  0  0  0  0
  -26.3009  -19.2128   22.2609 H   0  0  0  0  0  0
  -26.4828  -20.8410   21.6303 H   0  0  0  0  0  0
  -27.3208  -20.3696   23.1155 H   0  0  0  0  0  0
  -27.8638  -24.6972   21.5475 H   0  0  0  0  0  0
  -27.0468  -24.4313   20.0680 H   0  0  0  0  0  0
  -28.7797  -15.6128   21.0029 H   0  0  0  0  0  0
  1 25  1  0  0  0
  1 30  2  0  0  0
  1 85  1  0  0  0
  2  3  1  0  0  0
  2 25  1  0  0  0
  2 86  1  0  0  0
  2 87  1  0  0  0
  3  4  1  0  0  0
  3 88  1  0  0  0
  3 89  1  0  0  0
  4  5  1  0  0  0
  4 90  1  0  0  0
  4 91  1  0  0  0
  5  6  1  0  0  0
  5 26  1  0  0  0
  5 92  1  0  0  0
  6 25  1  0  0  0
  6 93  1  0  0  0
  6 94  1  0  0  0
  7  8  2  0  0  0
  7 26  1  0  0  0
  7 29  1  0  0  0
  8  9  1  0  0  0
  8 22  1  0  0  0
  9 10  1  0  0  0
  9 27  2  0  0  0
 10 11  2  0  0  0
 10 15  1  0  0  0
 11 12  1  0  0  0
 11 95  1  0  0  0
 12 13  2  0  0  0
 12 96  1  0  0  0
 13 14  1  0  0  0
 13 31  1  0  0  0
 14 15  2  0  0  0
 14 97  1  0  0  0
 15 98  1  0  0  0
 16 17  2  0  0  0
 16 21  1  0  0  0
 16 31  1  0  0  0
 17 18  1  0  0  0
 17 99  1  0  0  0
 18 19  2  0  0  0
 18100  1  0  0  0
 19 20  1  0  0  0
 19 24  1  0  0  0
 20 21  2  0  0  0
 20101  1  0  0  0
 21 23  1  0  0  0
 22 28  1  0  0  0
 22 32  2  0  0  0
 26 27  1  0  0  0
 28102  1  0  0  0
 28103  1  0  0  0
 29104  1  0  0  0
 29105  1  0  0  0
 33 34  1  0  0  0
 33 66  1  0  0  0
 33 70  2  0  0  0
 34 36  1  0  0  0
 34 59  1  0  0  0
 34106  1  0  0  0
 35 44  2  0  0  0
 35 45  1  0  0  0
 35 68  1  0  0  0
 36 56  1  0  0  0
 36107  1  0  0  0
 37 39  1  0  0  0
 37 47  1  0  0  0
 37 66  1  0  0  0
 37108  1  0  0  0
 38 43  2  0  0  0
 38 46  1  0  0  0
 38 47  1  0  0  0
 39 64  1  0  0  0
 39 67  2  0  0  0
 40 52  1  0  0  0
 40 53  2  0  0  0
 40 58  1  0  0  0
 41109  1  0  0  0
 41110  1  0  0  0
 41111  1  0  0  0
 41 48  1  0  0  0
 42 43  1  0  0  0
 42 66  1  0  0  0
 42112  1  0  0  0
 42113  1  0  0  0
 43 44  1  0  0  0
 44114  1  0  0  0
 45 46  2  0  0  0
 45115  1  0  0  0
 46116  1  0  0  0
 47117  1  0  0  0
 47118  1  0  0  0
 48 56  1  0  0  0
 48 65  1  0  0  0
 48119  1  0  0  0
 49 50  1  0  0  0
 49 53  1  0  0  0
 49 64  1  0  0  0
 49120  1  0  0  0
 50 51  1  0  0  0
 50121  1  0  0  0
 50122  1  0  0  0
 51 52  1  0  0  0
 51123  1  0  0  0
 51124  1  0  0  0
 52125  1  0  0  0
 52126  1  0  0  0
 53 54  1  0  0  0
 54 55  2  0  0  0
 54127  1  0  0  0
 55 57  1  0  0  0
 55128  1  0  0  0
 56 69  2  0  0  0
 57 58  2  0  0  0
 57129  1  0  0  0
 58130  1  0  0  0
 59 60  1  0  0  0
 59 61  1  0  0  0
 59 62  1  0  0  0
 60131  1  0  0  0
 60132  1  0  0  0
 60133  1  0  0  0
 61134  1  0  0  0
 61135  1  0  0  0
 61136  1  0  0  0
 62137  1  0  0  0
 62138  1  0  0  0
 62139  1  0  0  0
 63 65  1  0  0  0
 63140  1  0  0  0
 63141  1  0  0  0
 63142  1  0  0  0
 64143  1  0  0  0
 65144  1  0  0  0
 68 83  1  0  0  0
 71 73  2  0  0  0
 71 75  1  0  0  0
 71145  1  0  0  0
 72 74  1  0  0  0
 72 76  2  0  0  0
 72146  1  0  0  0
 73 76  1  0  0  0
 73 81  1  0  0  0
 74 75  2  0  0  0
 74 82  1  0  0  0
 75 84  1  0  0  0
 76 85  1  0  0  0
 77 78  1  0  0  0
 77 79  1  0  0  0
 77147  1  0  0  0
 77148  1  0  0  0
 78 80  1  0  0  0
 78149  1  0  0  0
 78150  1  0  0  0
 79 84  1  0  0  0
 79151  1  0  0  0
 79152  1  0  0  0
 80 83  1  0  0  0
 80 84  1  0  0  0
 80153  1  0  0  0
 81154  1  0  0  0
 81155  1  0  0  0
 81156  1  0  0  0
 82157  1  0  0  0
 82158  1  0  0  0
 82159  1  0  0  0
 83160  1  0  0  0
 83161  1  0  0  0
 85162  1  0  0  0
M  ISO  4   1 100  68 101  83 101  85 100
M  END
> <chiral flag>
0

> <version>
0

> <s_m_source_file>
/data/baiqing/PycharmProjects/Reinvent-master-3.2/result/LINK_invent/BTK/process_docking_weight1_custom_product_contain_oxygen_bond_distance_aromatic_linkinvent_7_9_3/rearranged_h_0021.sdf

> <i_m_source_file_index>
57

> <r_mmod_Potential_Energy-OPLS-2005>
525.000122070312

> <r_mmod_Stretch_Energy-OPLS-2005>
214.605484008789

> <r_mmod_Bend_Energy-OPLS-2005>
320.761840820312

> <r_mmod_Torsional_Energy-OPLS-2005>
305.239532470703

> <r_mmod_Improper_Torsional_Energy-OPLS-2005>
9.26723766326904

> <r_mmod_Van_der_Waal_Energy-OPLS-2005>
131.797485351562

> <r_mmod_Electrostatic_Energy-OPLS-2005>
-409.854064941406

> <r_mmod_Solvation_Energy-OPLS-2005>
-210.907119750977

> <b_mmod_Minimization_Converged-OPLS-2005>
0

> <r_mmod_RMS_Derivative-OPLS-2005>
1.58479428291321

$$$$
57
                    3D
 Structure written by MMmdl.
161169  0  0  1  0            999 V2000
  -30.7217  -14.5333   20.6137 C   0  0  0  0  0  0
  -30.4222  -12.3615   19.4445 C   0  0  0  0  0  0
  -29.5004  -12.5294   18.2189 C   0  0  0  0  0  0
  -28.0216  -12.3821   18.6271 C   0  0  0  0  0  0
  -27.6603  -13.2245   19.8804 C   0  0  2  0  0  0
  -28.7006  -13.0404   21.0085 C   0  0  0  0  0  0
  -25.2576  -13.8198   20.5734 C   0  0  0  0  0  0
  -24.1837  -13.0445   20.9183 C   0  0  0  0  0  0
  -24.6398  -11.6917   20.8707 C   0  0  0  0  0  0
  -23.9063  -10.4292   21.0389 C   0  0  0  0  0  0
  -24.3609   -9.4212   21.9175 C   0  0  0  0  0  0
  -23.6304   -8.2239   22.0731 C   0  0  0  0  0  0
  -22.4296   -8.0253   21.3527 C   0  0  0  0  0  0
  -21.9912   -9.0219   20.4634 C   0  0  0  0  0  0
  -22.7230  -10.2114   20.3046 C   0  0  0  0  0  0
  -21.6848   -6.0716   22.5278 C   0  0  0  0  0  0
  -21.4001   -6.5613   23.8212 C   0  0  0  0  0  0
  -21.3667   -5.6769   24.9177 C   0  0  0  0  0  0
  -21.6060   -4.3031   24.7217 C   0  0  0  0  0  0
  -21.8825   -3.8120   23.4339 C   0  0  0  0  0  0
  -21.9193   -4.6942   22.3396 C   0  0  0  0  0  0
  -22.7858  -13.5220   21.1842 C   0  0  0  0  0  0
  -22.1676   -4.2128   21.0972 F   0  0  0  0  0  0
  -21.5640   -3.4521   25.7741 F   0  0  0  0  0  0
  -30.0289  -13.3598   20.4616 N   0  0  0  0  0  0
  -26.3030  -12.9401   20.3415 N   0  0  0  0  0  0
  -25.9340  -11.6532   20.5762 N   0  0  0  0  0  0
  -22.0492  -12.8221   22.0406 N   0  0  0  0  0  0
  -25.4319  -15.1925   20.4155 N   0  0  0  0  0  0
  -31.7951  -14.7146   20.0288 O   0  0  0  0  0  0
  -21.6642   -6.8861   21.4241 O   0  0  0  0  0  0
  -22.3553  -14.5526   20.6700 O   0  0  0  0  0  0
  -24.6180  -31.8649   23.2069 C   0  0  0  0  0  0
  -25.9064  -32.4804   23.8379 C   0  0  1  0  0  0
  -27.2284  -27.3743   20.1126 C   0  0  0  0  0  0
  -25.5910  -33.8604   24.2303 N   0  0  0  0  0  0
  -23.4095  -30.4889   21.5467 C   0  0  2  0  0  0
  -24.8571  -28.9540   20.1079 C   0  0  0  0  0  0
  -22.7429  -29.4653   22.4948 C   0  0  0  0  0  0
  -18.0275  -28.1375   22.8492 C   0  0  0  0  0  0
  -24.1492  -36.7302   23.2639 C   0  0  0  0  0  0
  -25.9441  -30.8136   21.3707 C   0  0  0  0  0  0
  -26.0195  -29.4456   20.7132 C   0  0  0  0  0  0
  -27.2068  -28.6649   20.7109 C   0  0  0  0  0  0
  -26.0496  -26.9307   19.4676 C   0  0  0  0  0  0
  -24.8717  -27.6996   19.4774 C   0  0  0  0  0  0
  -23.6212  -29.8249   20.1605 C   0  0  0  0  0  0
  -25.4116  -36.3100   24.0339 C   0  0  1  0  0  0
  -20.5867  -28.3677   23.1301 C   0  0  2  0  0  0
  -20.6769  -26.9406   22.5412 C   0  0  0  0  0  0
  -19.5749  -26.6383   21.5212 C   0  0  0  0  0  0
  -18.1929  -26.7932   22.1622 C   0  0  0  0  0  0
  -19.1526  -28.8848   23.2898 C   0  0  0  0  0  0
  -18.9450  -30.1454   23.8904 C   0  0  0  0  0  0
  -17.6453  -30.6587   24.0569 C   0  0  0  0  0  0
  -25.9054  -34.9464   23.5122 C   0  0  0  0  0  0
  -16.5341  -29.9090   23.6329 C   0  0  0  0  0  0
  -16.7261  -28.6501   23.0351 C   0  0  0  0  0  0
  -26.4478  -31.6590   25.0722 C   0  0  0  0  0  0
  -25.3726  -31.3700   26.1454 C   0  0  0  0  0  0
  -27.0310  -30.3022   24.6128 C   0  0  0  0  0  0
  -27.6043  -32.4316   25.7485 C   0  0  0  0  0  0
  -27.5588  -37.1799   24.8458 C   0  0  0  0  0  0
  -21.4153  -29.3037   22.3690 N   0  0  0  0  0  0
  -26.4290  -37.3795   23.9426 N   0  0  0  0  0  0
  -24.6754  -31.0719   22.0989 N   0  0  0  0  0  0
  -23.4185  -28.8208   23.3021 O   0  0  0  0  0  0
  -28.3768  -26.5856   20.1830 O   0  0  0  0  0  0
  -26.5609  -34.8931   22.4681 O   0  0  0  0  0  0
  -23.5370  -32.1418   23.7435 O   0  0  0  0  0  0
  -27.6368  -19.0422   22.7583 C   0  0  0  0  0  0
  -28.4321  -17.9728   22.3096 C   0  0  0  0  0  0
  -27.7229  -20.3044   22.1478 C   0  0  0  0  0  0
  -29.3699  -18.1454   21.2631 C   0  0  0  0  0  0
  -28.6094  -20.5341   21.0764 C   0  0  0  0  0  0
  -29.4490  -19.4467   20.6499 C   0  0  0  0  0  0
  -27.5361  -21.7568   19.3186 C   0  0  0  0  0  0
  -30.3009  -15.4596   22.7830 C   0  0  0  0  0  0
  -30.2756  -16.9617   20.7781 C   0  0  0  0  0  0
  -29.2158  -24.2666   20.8330 C   0  0  0  0  0  0
  -29.5707  -22.7928   20.3902 C   0  0  0  0  0  0
  -28.2944  -25.1478   19.9254 C   0  0  0  0  0  0
  -28.4796  -21.7996   20.4298 N   0  0  0  0  0  0
  -30.1468  -15.5589   21.3210 N   0  0  0  0  0  0
  -30.5441  -19.6952   19.3303 Cl  0  0  0  0  0  0
  -31.4682  -12.4507   19.1434 H   0  0  0  0  0  0
  -30.3251  -11.3551   19.8547 H   0  0  0  0  0  0
  -29.7548  -11.7948   17.4531 H   0  0  0  0  0  0
  -29.6675  -13.5086   17.7671 H   0  0  0  0  0  0
  -27.8321  -11.3256   18.8191 H   0  0  0  0  0  0
  -27.3722  -12.6589   17.7963 H   0  0  0  0  0  0
  -27.6966  -14.2720   19.5776 H   0  0  0  0  0  0
  -28.6935  -12.0146   21.3775 H   0  0  0  0  0  0
  -28.4386  -13.6622   21.8635 H   0  0  0  0  0  0
  -25.2759   -9.5697   22.4751 H   0  0  0  0  0  0
  -24.0020   -7.4619   22.7437 H   0  0  0  0  0  0
  -21.0846   -8.8714   19.8951 H   0  0  0  0  0  0
  -22.3676  -10.9622   19.6136 H   0  0  0  0  0  0
  -21.1980   -7.6122   23.9714 H   0  0  0  0  0  0
  -21.1504   -6.0489   25.9082 H   0  0  0  0  0  0
  -22.0607   -2.7583   23.2826 H   0  0  0  0  0  0
  -22.4096  -11.9885   22.4815 H   0  0  0  0  0  0
  -21.1094  -13.1216   22.2552 H   0  0  0  0  0  0
  -24.6747  -15.8546   20.5386 H   0  0  0  0  0  0
  -26.2985  -15.6333   20.1293 H   0  0  0  0  0  0
  -26.7124  -32.5508   23.1132 H   0  0  0  0  0  0
  -25.0090  -33.9763   25.0468 H   0  0  0  0  0  0
  -22.6999  -31.3066   21.4061 H   0  0  0  0  0  0
  -23.3767  -35.9618   23.3281 H   0  0  0  0  0  0
  -24.3601  -36.8936   22.2058 H   0  0  0  0  0  0
  -23.7217  -37.6492   23.6666 H   0  0  0  0  0  0
  -26.0690  -31.5820   20.6068 H   0  0  0  0  0  0
  -26.8272  -30.8607   21.9964 H   0  0  0  0  0  0
  -28.0975  -29.0401   21.1954 H   0  0  0  0  0  0
  -26.0083  -25.9859   18.9462 H   0  0  0  0  0  0
  -23.9848  -27.3212   18.9876 H   0  0  0  0  0  0
  -23.7306  -30.6016   19.4023 H   0  0  0  0  0  0
  -22.7458  -29.2451   19.8634 H   0  0  0  0  0  0
  -25.1298  -36.1955   25.0829 H   0  0  0  0  0  0
  -20.9978  -28.3242   24.1417 H   0  0  0  0  0  0
  -20.5669  -26.2295   23.3611 H   0  0  0  0  0  0
  -21.6639  -26.7444   22.1199 H   0  0  0  0  0  0
  -19.6921  -25.6294   21.1245 H   0  0  0  0  0  0
  -19.6707  -27.3186   20.6741 H   0  0  0  0  0  0
  -17.4216  -26.6685   21.4005 H   0  0  0  0  0  0
  -18.0320  -26.0051   22.8992 H   0  0  0  0  0  0
  -19.7941  -30.7256   24.2266 H   0  0  0  0  0  0
  -17.5022  -31.6275   24.5164 H   0  0  0  0  0  0
  -15.5343  -30.2994   23.7653 H   0  0  0  0  0  0
  -15.8666  -28.0827   22.7057 H   0  0  0  0  0  0
  -24.5921  -30.7027   25.7789 H   0  0  0  0  0  0
  -24.8893  -32.2847   26.4885 H   0  0  0  0  0  0
  -25.8069  -30.8886   27.0223 H   0  0  0  0  0  0
  -26.2859  -29.6782   24.1173 H   0  0  0  0  0  0
  -27.4050  -29.7271   25.4613 H   0  0  0  0  0  0
  -27.8722  -30.4333   23.9312 H   0  0  0  0  0  0
  -27.2658  -33.3617   26.2066 H   0  0  0  0  0  0
  -28.3847  -32.6866   25.0298 H   0  0  0  0  0  0
  -28.0716  -31.8431   26.5394 H   0  0  0  0  0  0
  -28.2567  -38.0130   24.7558 H   0  0  0  0  0  0
  -28.1113  -36.2666   24.6206 H   0  0  0  0  0  0
  -27.2327  -37.1351   25.8860 H   0  0  0  0  0  0
  -20.9312  -29.8755   21.6913 H   0  0  0  0  0  0
  -26.0175  -38.2871   24.1434 H   0  0  0  0  0  0
  -26.9318  -18.8903   23.5653 H   0  0  0  0  0  0
  -28.2886  -17.0208   22.7905 H   0  0  0  0  0  0
  -27.0692  -21.0954   22.4868 H   0  0  0  0  0  0
  -26.5730  -21.3607   19.6457 H   0  0  0  0  0  0
  -27.9103  -21.1168   18.5172 H   0  0  0  0  0  0
  -27.3594  -22.7451   18.8963 H   0  0  0  0  0  0
  -29.3512  -15.2173   23.2576 H   0  0  0  0  0  0
  -30.6678  -16.3900   23.2194 H   0  0  0  0  0  0
  -31.0059  -14.6804   23.0841 H   0  0  0  0  0  0
  -31.3113  -17.2734   20.9275 H   0  0  0  0  0  0
  -30.1460  -16.9082   19.6958 H   0  0  0  0  0  0
  -30.1671  -24.7933   20.9164 H   0  0  0  0  0  0
  -28.8116  -24.2549   21.8461 H   0  0  0  0  0  0
  -30.3749  -22.4281   21.0320 H   0  0  0  0  0  0
  -29.9913  -22.8127   19.3835 H   0  0  0  0  0  0
  -27.2871  -24.7638   20.0792 H   0  0  0  0  0  0
  -28.5443  -24.9866   18.8764 H   0  0  0  0  0  0
  1 25  1  0  0  0
  1 30  2  0  0  0
  1 84  1  0  0  0
  2  3  1  0  0  0
  2 25  1  0  0  0
  2 86  1  0  0  0
  2 87  1  0  0  0
  3  4  1  0  0  0
  3 88  1  0  0  0
  3 89  1  0  0  0
  4  5  1  0  0  0
  4 90  1  0  0  0
  4 91  1  0  0  0
  5  6  1  0  0  0
  5 26  1  0  0  0
  5 92  1  0  0  0
  6 25  1  0  0  0
  6 93  1  0  0  0
  6 94  1  0  0  0
  7  8  2  0  0  0
  7 26  1  0  0  0
  7 29  1  0  0  0
  8  9  1  0  0  0
  8 22  1  0  0  0
  9 10  1  0  0  0
  9 27  2  0  0  0
 10 11  2  0  0  0
 10 15  1  0  0  0
 11 12  1  0  0  0
 11 95  1  0  0  0
 12 13  2  0  0  0
 12 96  1  0  0  0
 13 14  1  0  0  0
 13 31  1  0  0  0
 14 15  2  0  0  0
 14 97  1  0  0  0
 15 98  1  0  0  0
 16 17  2  0  0  0
 16 21  1  0  0  0
 16 31  1  0  0  0
 17 18  1  0  0  0
 17 99  1  0  0  0
 18 19  2  0  0  0
 18100  1  0  0  0
 19 20  1  0  0  0
 19 24  1  0  0  0
 20 21  2  0  0  0
 20101  1  0  0  0
 21 23  1  0  0  0
 22 28  1  0  0  0
 22 32  2  0  0  0
 26 27  1  0  0  0
 28102  1  0  0  0
 28103  1  0  0  0
 29104  1  0  0  0
 29105  1  0  0  0
 33 34  1  0  0  0
 33 66  1  0  0  0
 33 70  2  0  0  0
 34 36  1  0  0  0
 34 59  1  0  0  0
 34106  1  0  0  0
 35 44  2  0  0  0
 35 45  1  0  0  0
 35 68  1  0  0  0
 36 56  1  0  0  0
 36107  1  0  0  0
 37 39  1  0  0  0
 37 47  1  0  0  0
 37 66  1  0  0  0
 37108  1  0  0  0
 38 43  2  0  0  0
 38 46  1  0  0  0
 38 47  1  0  0  0
 39 64  1  0  0  0
 39 67  2  0  0  0
 40 52  1  0  0  0
 40 53  2  0  0  0
 40 58  1  0  0  0
 41109  1  0  0  0
 41110  1  0  0  0
 41111  1  0  0  0
 41 48  1  0  0  0
 42 43  1  0  0  0
 42 66  1  0  0  0
 42112  1  0  0  0
 42113  1  0  0  0
 43 44  1  0  0  0
 44114  1  0  0  0
 45 46  2  0  0  0
 45115  1  0  0  0
 46116  1  0  0  0
 47117  1  0  0  0
 47118  1  0  0  0
 48 56  1  0  0  0
 48 65  1  0  0  0
 48119  1  0  0  0
 49 50  1  0  0  0
 49 53  1  0  0  0
 49 64  1  0  0  0
 49120  1  0  0  0
 50 51  1  0  0  0
 50121  1  0  0  0
 50122  1  0  0  0
 51 52  1  0  0  0
 51123  1  0  0  0
 51124  1  0  0  0
 52125  1  0  0  0
 52126  1  0  0  0
 53 54  1  0  0  0
 54 55  2  0  0  0
 54127  1  0  0  0
 55 57  1  0  0  0
 55128  1  0  0  0
 56 69  2  0  0  0
 57 58  2  0  0  0
 57129  1  0  0  0
 58130  1  0  0  0
 59 60  1  0  0  0
 59 61  1  0  0  0
 59 62  1  0  0  0
 60131  1  0  0  0
 60132  1  0  0  0
 60133  1  0  0  0
 61134  1  0  0  0
 61135  1  0  0  0
 61136  1  0  0  0
 62137  1  0  0  0
 62138  1  0  0  0
 62139  1  0  0  0
 63 65  1  0  0  0
 63140  1  0  0  0
 63141  1  0  0  0
 63142  1  0  0  0
 64143  1  0  0  0
 65144  1  0  0  0
 68 82  1  0  0  0
 71 72  2  0  0  0
 71 73  1  0  0  0
 71145  1  0  0  0
 72 74  1  0  0  0
 72146  1  0  0  0
 73 75  2  0  0  0
 73147  1  0  0  0
 74 76  2  0  0  0
 74 79  1  0  0  0
 75 76  1  0  0  0
 75 83  1  0  0  0
 76 85  1  0  0  0
 77 83  1  0  0  0
 77148  1  0  0  0
 77149  1  0  0  0
 77150  1  0  0  0
 78 84  1  0  0  0
 78151  1  0  0  0
 78152  1  0  0  0
 78153  1  0  0  0
 79 84  1  0  0  0
 79154  1  0  0  0
 79155  1  0  0  0
 80 81  1  0  0  0
 80 82  1  0  0  0
 80156  1  0  0  0
 80157  1  0  0  0
 81 83  1  0  0  0
 81158  1  0  0  0
 81159  1  0  0  0
 82160  1  0  0  0
 82161  1  0  0  0
M  ISO  4   1 100  68 101  82 101  84 100
M  END
> <chiral flag>
0

> <version>
0

> <s_m_source_file>
/data/baiqing/PycharmProjects/Reinvent-master-3.2/result/LINK_invent/BTK/process_docking_weight1_custom_product_contain_oxygen_bond_distance_aromatic_linkinvent_7_9_3/rearranged_h_0021.sdf

> <i_m_source_file_index>
58

> <r_mmod_Potential_Energy-OPLS-2005>
223.751007080078

> <r_mmod_Stretch_Energy-OPLS-2005>
66.7087097167969

> <r_mmod_Bend_Energy-OPLS-2005>
143.363510131836

> <r_mmod_Torsional_Energy-OPLS-2005>
289.474731445312

> <r_mmod_Improper_Torsional_Energy-OPLS-2005>
8.65684509277344

> <r_mmod_Van_der_Waal_Energy-OPLS-2005>
151.864501953125

> <r_mmod_Electrostatic_Energy-OPLS-2005>
-264.373779296875

> <r_mmod_Solvation_Energy-OPLS-2005>
-196.061233520508

> <b_mmod_Minimization_Converged-OPLS-2005>
0

> <r_mmod_RMS_Derivative-OPLS-2005>
2.53523850440979

$$$$
58
                    3D
 Structure written by MMmdl.
160169  0  0  1  0            999 V2000
  -30.5136  -15.0478   20.4093 C   0  0  0  0  0  0
  -30.4411  -12.6594   19.4975 C   0  0  0  0  0  0
  -29.5206  -12.5302   18.2610 C   0  0  0  0  0  0
  -28.0616  -12.2927   18.6920 C   0  0  0  0  0  0
  -27.6209  -13.2517   19.8274 C   0  0  2  0  0  0
  -28.6639  -13.3364   20.9603 C   0  0  0  0  0  0
  -25.2426  -13.8212   20.5709 C   0  0  0  0  0  0
  -24.1761  -13.0434   20.9251 C   0  0  0  0  0  0
  -24.6386  -11.6922   20.8770 C   0  0  0  0  0  0
  -23.9075  -10.4292   21.0418 C   0  0  0  0  0  0
  -24.3624   -9.4204   21.9191 C   0  0  0  0  0  0
  -23.6299   -8.2238   22.0753 C   0  0  0  0  0  0
  -22.4279   -8.0278   21.3545 C   0  0  0  0  0  0
  -21.9919   -9.0253   20.4645 C   0  0  0  0  0  0
  -22.7249  -10.2136   20.3062 C   0  0  0  0  0  0
  -21.6853   -6.0736   22.5281 C   0  0  0  0  0  0
  -21.4009   -6.5640   23.8214 C   0  0  0  0  0  0
  -21.3659   -5.6793   24.9174 C   0  0  0  0  0  0
  -21.6044   -4.3057   24.7226 C   0  0  0  0  0  0
  -21.8816   -3.8150   23.4348 C   0  0  0  0  0  0
  -21.9190   -4.6965   22.3402 C   0  0  0  0  0  0
  -22.7780  -13.5205   21.1903 C   0  0  0  0  0  0
  -22.1661   -4.2151   21.0980 F   0  0  0  0  0  0
  -21.5629   -3.4537   25.7740 F   0  0  0  0  0  0
  -29.9206  -13.7787   20.3416 N   0  0  0  0  0  0
  -26.2847  -12.9452   20.3223 N   0  0  0  0  0  0
  -25.9318  -11.6583   20.5749 N   0  0  0  0  0  0
  -22.0433  -12.8190   22.0459 N   0  0  0  0  0  0
  -25.4072  -15.1939   20.4088 N   0  0  0  0  0  0
  -31.7344  -15.0753   20.2111 O   0  0  0  0  0  0
  -21.6640   -6.8881   21.4246 O   0  0  0  0  0  0
  -22.3467  -14.5507   20.6742 O   0  0  0  0  0  0
  -24.6507  -31.8374   23.1820 C   0  0  0  0  0  0
  -25.9244  -32.4663   23.8235 C   0  0  1  0  0  0
  -27.2156  -27.0598   20.1639 C   0  0  0  0  0  0
  -25.5963  -33.8471   24.2141 N   0  0  0  0  0  0
  -23.4584  -30.4553   21.5292 C   0  0  2  0  0  0
  -24.9092  -28.8693   20.1121 C   0  0  0  0  0  0
  -22.7601  -29.4516   22.4825 C   0  0  0  0  0  0
  -18.0311  -28.1402   22.8467 C   0  0  0  0  0  0
  -24.1493  -36.7242   23.2640 C   0  0  0  0  0  0
  -26.0201  -30.6870   21.3929 C   0  0  0  0  0  0
  -26.0910  -29.2910   20.7348 C   0  0  0  0  0  0
  -27.2446  -28.4056   20.7391 C   0  0  0  0  0  0
  -26.0051  -26.7613   19.4986 C   0  0  0  0  0  0
  -24.8838  -27.6201   19.4761 C   0  0  0  0  0  0
  -23.6905  -29.7815   20.1510 C   0  0  0  0  0  0
  -25.4125  -36.3011   24.0307 C   0  0  1  0  0  0
  -20.5926  -28.3736   23.1214 C   0  0  2  0  0  0
  -20.6793  -26.9429   22.5406 C   0  0  0  0  0  0
  -19.5772  -26.6379   21.5210 C   0  0  0  0  0  0
  -18.1949  -26.7939   22.1613 C   0  0  0  0  0  0
  -19.1570  -28.8887   23.2829 C   0  0  0  0  0  0
  -18.9486  -30.1477   23.8865 C   0  0  0  0  0  0
  -17.6483  -30.6594   24.0559 C   0  0  0  0  0  0
  -25.9085  -34.9391   23.5035 C   0  0  0  0  0  0
  -16.5373  -29.9088   23.6337 C   0  0  0  0  0  0
  -16.7298  -28.6506   23.0359 C   0  0  0  0  0  0
  -26.4530  -31.6565   25.0713 C   0  0  0  0  0  0
  -25.3683  -31.3810   26.1394 C   0  0  0  0  0  0
  -27.0388  -30.2936   24.6367 C   0  0  0  0  0  0
  -27.6059  -32.4341   25.7496 C   0  0  0  0  0  0
  -27.5574  -37.1766   24.8460 C   0  0  0  0  0  0
  -21.4285  -29.3053   22.3573 N   0  0  0  0  0  0
  -26.4281  -37.3735   23.9408 N   0  0  0  0  0  0
  -24.7301  -31.0162   22.0896 N   0  0  0  0  0  0
  -23.4205  -28.8062   23.3005 O   0  0  0  0  0  0
  -28.2427  -26.0215   20.2249 O   0  0  0  0  0  0
  -26.5682  -34.8903   22.4625 O   0  0  0  0  0  0
  -23.5606  -32.1282   23.6995 O   0  0  0  0  0  0
  -31.5408  -19.3962   21.7302 C   0  0  0  0  0  0
  -31.2169  -18.0859   21.3237 C   0  0  0  0  0  0
  -29.2280  -19.0279   20.3195 C   0  0  0  0  0  0
  -30.7461  -20.5479   21.4665 C   0  0  0  0  0  0
  -30.0287  -17.7840   20.6371 C   0  0  0  0  0  0
  -29.5603  -20.4649   20.6678 C   0  0  0  0  0  0
  -29.0122  -23.1993   20.2478 C   0  0  0  0  0  0
  -32.6735  -21.8439   23.9232 C   0  0  0  0  0  0
  -31.2721  -21.5659   24.4769 C   0  0  0  0  0  0
  -32.4797  -22.0606   22.4143 C   0  0  0  0  0  0
  -30.3299  -21.9763   23.3469 C   0  0  0  0  0  0
  -27.8935  -24.4656   20.2208 C   0  0  0  0  0  0
  -31.0820  -21.7528   22.1198 N   0  0  0  0  0  0
  -28.7308  -21.7801   20.3953 N   0  0  0  0  0  0
  -29.7303  -16.2644   20.4256 N   0  0  0  0  0  0
  -30.1729  -23.5513   20.0237 O   0  0  0  0  0  0
  -31.4668  -12.8407   19.1726 H   0  0  0  0  0  0
  -30.4692  -11.7272   20.0643 H   0  0  0  0  0  0
  -29.8594  -11.7159   17.6187 H   0  0  0  0  0  0
  -29.5819  -13.4404   17.6623 H   0  0  0  0  0  0
  -27.9893  -11.2615   19.0402 H   0  0  0  0  0  0
  -27.3900  -12.3727   17.8362 H   0  0  0  0  0  0
  -27.5654  -14.2377   19.3655 H   0  0  0  0  0  0
  -28.7815  -12.3757   21.4634 H   0  0  0  0  0  0
  -28.3463  -14.0510   21.7216 H   0  0  0  0  0  0
  -25.2761   -9.5677   22.4776 H   0  0  0  0  0  0
  -24.0000   -7.4626   22.7468 H   0  0  0  0  0  0
  -21.0850   -8.8780   19.8948 H   0  0  0  0  0  0
  -22.3706  -10.9680   19.6174 H   0  0  0  0  0  0
  -21.2003   -7.6147   23.9719 H   0  0  0  0  0  0
  -21.1481   -6.0522   25.9078 H   0  0  0  0  0  0
  -22.0596   -2.7612   23.2848 H   0  0  0  0  0  0
  -22.4056  -11.9854   22.4848 H   0  0  0  0  0  0
  -21.1048  -13.1208   22.2663 H   0  0  0  0  0  0
  -24.6324  -15.8407   20.5074 H   0  0  0  0  0  0
  -26.2395  -15.6324   20.0387 H   0  0  0  0  0  0
  -26.7307  -32.5241   23.0955 H   0  0  0  0  0  0
  -25.0071  -33.9580   25.0263 H   0  0  0  0  0  0
  -22.7654  -31.2837   21.3691 H   0  0  0  0  0  0
  -23.3766  -35.9563   23.3277 H   0  0  0  0  0  0
  -24.3576  -36.8913   22.2060 H   0  0  0  0  0  0
  -23.7235  -37.6422   23.6706 H   0  0  0  0  0  0
  -26.1841  -31.4376   20.6184 H   0  0  0  0  0  0
  -26.8869  -30.7404   22.0401 H   0  0  0  0  0  0
  -28.1426  -28.7260   21.2486 H   0  0  0  0  0  0
  -25.8849  -25.8137   18.9981 H   0  0  0  0  0  0
  -23.9846  -27.2921   18.9730 H   0  0  0  0  0  0
  -23.8345  -30.5552   19.3959 H   0  0  0  0  0  0
  -22.8032  -29.2292   19.8370 H   0  0  0  0  0  0
  -25.1312  -36.1830   25.0798 H   0  0  0  0  0  0
  -21.0015  -28.3344   24.1334 H   0  0  0  0  0  0
  -20.5682  -26.2352   23.3636 H   0  0  0  0  0  0
  -21.6660  -26.7425   22.1208 H   0  0  0  0  0  0
  -19.6939  -25.6281   21.1265 H   0  0  0  0  0  0
  -19.6722  -27.3169   20.6726 H   0  0  0  0  0  0
  -17.4221  -26.6689   21.4011 H   0  0  0  0  0  0
  -18.0333  -26.0089   22.9015 H   0  0  0  0  0  0
  -19.7970  -30.7286   24.2229 H   0  0  0  0  0  0
  -17.5048  -31.6276   24.5158 H   0  0  0  0  0  0
  -15.5376  -30.2981   23.7685 H   0  0  0  0  0  0
  -15.8695  -28.0815   22.7095 H   0  0  0  0  0  0
  -24.5917  -30.7086   25.7735 H   0  0  0  0  0  0
  -24.8805  -32.3006   26.4638 H   0  0  0  0  0  0
  -25.7940  -30.9136   27.0282 H   0  0  0  0  0  0
  -26.3019  -29.6652   24.1355 H   0  0  0  0  0  0
  -27.3927  -29.7263   25.4986 H   0  0  0  0  0  0
  -27.8965  -30.4124   23.9744 H   0  0  0  0  0  0
  -27.2669  -33.3703   26.1942 H   0  0  0  0  0  0
  -28.3930  -32.6796   25.0355 H   0  0  0  0  0  0
  -28.0649  -31.8543   26.5514 H   0  0  0  0  0  0
  -28.2572  -38.0079   24.7507 H   0  0  0  0  0  0
  -28.1086  -36.2605   24.6280 H   0  0  0  0  0  0
  -27.2293  -37.1404   25.8864 H   0  0  0  0  0  0
  -20.9502  -29.8772   21.6751 H   0  0  0  0  0  0
  -26.0145  -38.2798   24.1441 H   0  0  0  0  0  0
  -32.4274  -19.4824   22.3389 H   0  0  0  0  0  0
  -31.8852  -17.2918   21.6233 H   0  0  0  0  0  0
  -28.3007  -18.8725   19.7885 H   0  0  0  0  0  0
  -33.3460  -21.0099   24.1291 H   0  0  0  0  0  0
  -33.1078  -22.7346   24.3796 H   0  0  0  0  0  0
  -31.0684  -22.1015   25.4053 H   0  0  0  0  0  0
  -31.1615  -20.4995   24.6803 H   0  0  0  0  0  0
  -33.1853  -21.4763   21.8210 H   0  0  0  0  0  0
  -32.6632  -23.1068   22.1631 H   0  0  0  0  0  0
  -30.0833  -23.0370   23.4201 H   0  0  0  0  0  0
  -29.3915  -21.4185   23.3855 H   0  0  0  0  0  0
  -27.2246  -24.2972   21.0651 H   0  0  0  0  0  0
  -27.2975  -24.2636   19.3326 H   0  0  0  0  0  0
  -27.7371  -21.6060   20.3468 H   0  0  0  0  0  0
  -28.7470  -16.0649   20.3252 H   0  0  0  0  0  0
  1 25  1  0  0  0
  1 30  2  0  0  0
  1 85  1  0  0  0
  2  3  1  0  0  0
  2 25  1  0  0  0
  2 87  1  0  0  0
  2 88  1  0  0  0
  3  4  1  0  0  0
  3 89  1  0  0  0
  3 90  1  0  0  0
  4  5  1  0  0  0
  4 91  1  0  0  0
  4 92  1  0  0  0
  5  6  1  0  0  0
  5 26  1  0  0  0
  5 93  1  0  0  0
  6 25  1  0  0  0
  6 94  1  0  0  0
  6 95  1  0  0  0
  7  8  2  0  0  0
  7 26  1  0  0  0
  7 29  1  0  0  0
  8  9  1  0  0  0
  8 22  1  0  0  0
  9 10  1  0  0  0
  9 27  2  0  0  0
 10 11  2  0  0  0
 10 15  1  0  0  0
 11 12  1  0  0  0
 11 96  1  0  0  0
 12 13  2  0  0  0
 12 97  1  0  0  0
 13 14  1  0  0  0
 13 31  1  0  0  0
 14 15  2  0  0  0
 14 98  1  0  0  0
 15 99  1  0  0  0
 16 17  2  0  0  0
 16 21  1  0  0  0
 16 31  1  0  0  0
 17 18  1  0  0  0
 17100  1  0  0  0
 18 19  2  0  0  0
 18101  1  0  0  0
 19 20  1  0  0  0
 19 24  1  0  0  0
 20 21  2  0  0  0
 20102  1  0  0  0
 21 23  1  0  0  0
 22 28  1  0  0  0
 22 32  2  0  0  0
 26 27  1  0  0  0
 28103  1  0  0  0
 28104  1  0  0  0
 29105  1  0  0  0
 29106  1  0  0  0
 33 34  1  0  0  0
 33 66  1  0  0  0
 33 70  2  0  0  0
 34 36  1  0  0  0
 34 59  1  0  0  0
 34107  1  0  0  0
 35 44  2  0  0  0
 35 45  1  0  0  0
 35 68  1  0  0  0
 36 56  1  0  0  0
 36108  1  0  0  0
 37 39  1  0  0  0
 37 47  1  0  0  0
 37 66  1  0  0  0
 37109  1  0  0  0
 38 43  2  0  0  0
 38 46  1  0  0  0
 38 47  1  0  0  0
 39 64  1  0  0  0
 39 67  2  0  0  0
 40 52  1  0  0  0
 40 53  2  0  0  0
 40 58  1  0  0  0
 41110  1  0  0  0
 41111  1  0  0  0
 41112  1  0  0  0
 41 48  1  0  0  0
 42 43  1  0  0  0
 42 66  1  0  0  0
 42113  1  0  0  0
 42114  1  0  0  0
 43 44  1  0  0  0
 44115  1  0  0  0
 45 46  2  0  0  0
 45116  1  0  0  0
 46117  1  0  0  0
 47118  1  0  0  0
 47119  1  0  0  0
 48 56  1  0  0  0
 48 65  1  0  0  0
 48120  1  0  0  0
 49 50  1  0  0  0
 49 53  1  0  0  0
 49 64  1  0  0  0
 49121  1  0  0  0
 50 51  1  0  0  0
 50122  1  0  0  0
 50123  1  0  0  0
 51 52  1  0  0  0
 51124  1  0  0  0
 51125  1  0  0  0
 52126  1  0  0  0
 52127  1  0  0  0
 53 54  1  0  0  0
 54 55  2  0  0  0
 54128  1  0  0  0
 55 57  1  0  0  0
 55129  1  0  0  0
 56 69  2  0  0  0
 57 58  2  0  0  0
 57130  1  0  0  0
 58131  1  0  0  0
 59 60  1  0  0  0
 59 61  1  0  0  0
 59 62  1  0  0  0
 60132  1  0  0  0
 60133  1  0  0  0
 60134  1  0  0  0
 61135  1  0  0  0
 61136  1  0  0  0
 61137  1  0  0  0
 62138  1  0  0  0
 62139  1  0  0  0
 62140  1  0  0  0
 63 65  1  0  0  0
 63141  1  0  0  0
 63142  1  0  0  0
 63143  1  0  0  0
 64144  1  0  0  0
 65145  1  0  0  0
 68 82  1  0  0  0
 71 72  2  0  0  0
 71 74  1  0  0  0
 71146  1  0  0  0
 72 75  1  0  0  0
 72147  1  0  0  0
 73 75  2  0  0  0
 73 76  1  0  0  0
 73148  1  0  0  0
 74 76  2  0  0  0
 74 83  1  0  0  0
 75 85  1  0  0  0
 76 84  1  0  0  0
 77 82  1  0  0  0
 77 84  1  0  0  0
 77 86  2  0  0  0
 78 79  1  0  0  0
 78 80  1  0  0  0
 78149  1  0  0  0
 78150  1  0  0  0
 79 81  1  0  0  0
 79151  1  0  0  0
 79152  1  0  0  0
 80 83  1  0  0  0
 80153  1  0  0  0
 80154  1  0  0  0
 81 83  1  0  0  0
 81155  1  0  0  0
 81156  1  0  0  0
 82157  1  0  0  0
 82158  1  0  0  0
 84159  1  0  0  0
 85160  1  0  0  0
M  ISO  4   1 100  68 101  82 101  85 100
M  END
> <chiral flag>
0

> <version>
0

> <s_m_source_file>
/data/baiqing/PycharmProjects/Reinvent-master-3.2/result/LINK_invent/BTK/process_docking_weight1_custom_product_contain_oxygen_bond_distance_aromatic_linkinvent_7_9_3/rearranged_h_0021.sdf

> <i_m_source_file_index>
59

> <r_mmod_Potential_Energy-OPLS-2005>
739.676940917969

> <r_mmod_Stretch_Energy-OPLS-2005>
353.788482666016

> <r_mmod_Bend_Energy-OPLS-2005>
302.117431640625

> <r_mmod_Torsional_Energy-OPLS-2005>
323.075592041016

> <r_mmod_Improper_Torsional_Energy-OPLS-2005>
13.4069147109985

> <r_mmod_Van_der_Waal_Energy-OPLS-2005>
138.420837402344

> <r_mmod_Electrostatic_Energy-OPLS-2005>
-388.657165527344

> <r_mmod_Solvation_Energy-OPLS-2005>
-273.187377929688

> <b_mmod_Minimization_Converged-OPLS-2005>
0

> <r_mmod_RMS_Derivative-OPLS-2005>
0.992422223091125

$$$$
59
                    3D
 Structure written by MMmdl.
152160  0  0  1  0            999 V2000
  -30.6374  -14.6290   20.5097 C   0  0  0  0  0  0
  -30.4370  -12.3873   19.4543 C   0  0  0  0  0  0
  -29.5074  -12.5097   18.2263 C   0  0  0  0  0  0
  -28.0300  -12.3502   18.6373 C   0  0  0  0  0  0
  -27.6547  -13.2187   19.8678 C   0  0  2  0  0  0
  -28.7001  -13.0699   20.9971 C   0  0  0  0  0  0
  -25.2525  -13.8143   20.5629 C   0  0  0  0  0  0
  -24.1808  -13.0411   20.9163 C   0  0  0  0  0  0
  -24.6399  -11.6893   20.8741 C   0  0  0  0  0  0
  -23.9069  -10.4279   21.0407 C   0  0  0  0  0  0
  -24.3618   -9.4197   21.9187 C   0  0  0  0  0  0
  -23.6290   -8.2235   22.0756 C   0  0  0  0  0  0
  -22.4273   -8.0276   21.3545 C   0  0  0  0  0  0
  -21.9910   -9.0249   20.4647 C   0  0  0  0  0  0
  -22.7241  -10.2126   20.3056 C   0  0  0  0  0  0
  -21.6851   -6.0733   22.5279 C   0  0  0  0  0  0
  -21.4012   -6.5638   23.8212 C   0  0  0  0  0  0
  -21.3659   -5.6791   24.9175 C   0  0  0  0  0  0
  -21.6044   -4.3054   24.7226 C   0  0  0  0  0  0
  -21.8820   -3.8145   23.4347 C   0  0  0  0  0  0
  -21.9192   -4.6961   22.3403 C   0  0  0  0  0  0
  -22.7833  -13.5208   21.1838 C   0  0  0  0  0  0
  -22.1661   -4.2147   21.0980 F   0  0  0  0  0  0
  -21.5629   -3.4538   25.7739 F   0  0  0  0  0  0
  -30.0187  -13.4078   20.4362 N   0  0  0  0  0  0
  -26.2996  -12.9354   20.3348 N   0  0  0  0  0  0
  -25.9338  -11.6504   20.5790 N   0  0  0  0  0  0
  -22.0488  -12.8207   22.0410 N   0  0  0  0  0  0
  -25.4154  -15.1844   20.3960 N   0  0  0  0  0  0
  -31.7927  -14.7850   20.1048 O   0  0  0  0  0  0
  -21.6636   -6.8875   21.4241 O   0  0  0  0  0  0
  -22.3509  -14.5515   20.6695 O   0  0  0  0  0  0
  -24.6257  -31.8611   23.2041 C   0  0  0  0  0  0
  -25.9109  -32.4786   23.8365 C   0  0  1  0  0  0
  -27.2248  -27.3282   20.1112 C   0  0  0  0  0  0
  -25.5926  -33.8587   24.2291 N   0  0  0  0  0  0
  -23.4185  -30.4863   21.5471 C   0  0  2  0  0  0
  -24.8642  -28.9453   20.1121 C   0  0  0  0  0  0
  -22.7472  -29.4633   22.4943 C   0  0  0  0  0  0
  -18.0286  -28.1383   22.8487 C   0  0  0  0  0  0
  -24.1489  -36.7297   23.2639 C   0  0  0  0  0  0
  -25.9600  -30.7953   21.3738 C   0  0  0  0  0  0
  -26.0345  -29.4244   20.7140 C   0  0  0  0  0  0
  -27.2182  -28.6285   20.7027 C   0  0  0  0  0  0
  -26.0267  -26.9017   19.4889 C   0  0  0  0  0  0
  -24.8619  -27.6887   19.4915 C   0  0  0  0  0  0
  -23.6323  -29.8241   20.1617 C   0  0  0  0  0  0
  -25.4113  -36.3089   24.0331 C   0  0  1  0  0  0
  -20.5886  -28.3688   23.1284 C   0  0  2  0  0  0
  -20.6776  -26.9412   22.5408 C   0  0  0  0  0  0
  -19.5751  -26.6385   21.5210 C   0  0  0  0  0  0
  -18.1932  -26.7926   22.1624 C   0  0  0  0  0  0
  -19.1538  -28.8852   23.2881 C   0  0  0  0  0  0
  -18.9462  -30.1454   23.8898 C   0  0  0  0  0  0
  -17.6462  -30.6586   24.0563 C   0  0  0  0  0  0
  -25.9050  -34.9457   23.5110 C   0  0  0  0  0  0
  -16.5353  -29.9085   23.6329 C   0  0  0  0  0  0
  -16.7274  -28.6502   23.0351 C   0  0  0  0  0  0
  -26.4495  -31.6590   25.0729 C   0  0  0  0  0  0
  -25.3730  -31.3721   26.1457 C   0  0  0  0  0  0
  -27.0335  -30.3017   24.6173 C   0  0  0  0  0  0
  -27.6057  -32.4321   25.7500 C   0  0  0  0  0  0
  -27.5580  -37.1805   24.8466 C   0  0  0  0  0  0
  -21.4187  -29.3045   22.3682 N   0  0  0  0  0  0
  -26.4294  -37.3781   23.9407 N   0  0  0  0  0  0
  -24.6869  -31.0634   22.0987 N   0  0  0  0  0  0
  -23.4200  -28.8169   23.3016 O   0  0  0  0  0  0
  -28.3460  -26.4826   20.1562 O   0  0  0  0  0  0
  -26.5616  -34.8921   22.4675 O   0  0  0  0  0  0
  -23.5423  -32.1405   23.7373 O   0  0  0  0  0  0
  -31.0287  -19.2425   20.0297 C   0  0  0  0  0  0
  -31.0336  -17.8219   20.1592 C   0  0  0  0  0  0
  -28.8604  -19.3576   21.0563 C   0  0  0  0  0  0
  -29.9459  -20.0527   20.4668 C   0  0  0  0  0  0
  -29.9485  -17.1261   20.7544 C   0  0  0  0  0  0
  -28.8690  -17.9380   21.2078 C   0  0  0  0  0  0
  -29.2779  -23.9908   20.3250 C   0  0  0  0  0  0
  -28.8858  -22.4432   20.3391 C   0  0  0  0  0  0
  -28.1037  -25.0253   20.0649 C   0  0  0  0  0  0
  -29.8538  -15.6731   20.9169 N   0  0  0  0  0  0
  -30.0247  -21.4785   20.3252 N   0  0  0  0  0  0
  -27.5200  -17.1892   21.9850 Cl  0  0  0  0  0  0
  -31.4790  -12.5063   19.1520 H   0  0  0  0  0  0
  -30.3667  -11.3908   19.8930 H   0  0  0  0  0  0
  -29.7697  -11.7600   17.4786 H   0  0  0  0  0  0
  -29.6525  -13.4805   17.7497 H   0  0  0  0  0  0
  -27.8641  -11.2968   18.8656 H   0  0  0  0  0  0
  -27.3762  -12.5846   17.7965 H   0  0  0  0  0  0
  -27.6736  -14.2556   19.5313 H   0  0  0  0  0  0
  -28.7080  -12.0477   21.3785 H   0  0  0  0  0  0
  -28.4454  -13.7008   21.8499 H   0  0  0  0  0  0
  -25.2763   -9.5672   22.4761 H   0  0  0  0  0  0
  -23.9997   -7.4626   22.7476 H   0  0  0  0  0  0
  -21.0840   -8.8769   19.8952 H   0  0  0  0  0  0
  -22.3702  -10.9665   19.6164 H   0  0  0  0  0  0
  -21.2004   -7.6146   23.9715 H   0  0  0  0  0  0
  -21.1481   -6.0522   25.9078 H   0  0  0  0  0  0
  -22.0600   -2.7607   23.2848 H   0  0  0  0  0  0
  -22.4110  -11.9869   22.4794 H   0  0  0  0  0  0
  -21.1111  -13.1236   22.2631 H   0  0  0  0  0  0
  -24.6549  -15.8383   20.5415 H   0  0  0  0  0  0
  -26.2851  -15.6407   20.1547 H   0  0  0  0  0  0
  -26.7178  -32.5460   23.1116 H   0  0  0  0  0  0
  -25.0075  -33.9733   25.0436 H   0  0  0  0  0  0
  -22.7119  -31.3069   21.4060 H   0  0  0  0  0  0
  -23.3751  -35.9631   23.3306 H   0  0  0  0  0  0
  -24.3581  -36.8911   22.2052 H   0  0  0  0  0  0
  -23.7243  -37.6501   23.6655 H   0  0  0  0  0  0
  -26.0906  -31.5605   20.6073 H   0  0  0  0  0  0
  -26.8408  -30.8426   22.0025 H   0  0  0  0  0  0
  -28.1163  -28.9931   21.1815 H   0  0  0  0  0  0
  -25.9526  -25.9445   18.9972 H   0  0  0  0  0  0
  -23.9649  -27.3153   19.0166 H   0  0  0  0  0  0
  -23.7512  -30.6019   19.4065 H   0  0  0  0  0  0
  -22.7523  -29.2539   19.8586 H   0  0  0  0  0  0
  -25.1293  -36.1946   25.0823 H   0  0  0  0  0  0
  -20.9978  -28.3260   24.1405 H   0  0  0  0  0  0
  -20.5678  -26.2297   23.3606 H   0  0  0  0  0  0
  -21.6645  -26.7444   22.1200 H   0  0  0  0  0  0
  -19.6913  -25.6296   21.1239 H   0  0  0  0  0  0
  -19.6686  -27.3197   20.6741 H   0  0  0  0  0  0
  -17.4199  -26.6671   21.4029 H   0  0  0  0  0  0
  -18.0336  -26.0068   22.9022 H   0  0  0  0  0  0
  -19.7938  -30.7268   24.2269 H   0  0  0  0  0  0
  -17.5017  -31.6267   24.5164 H   0  0  0  0  0  0
  -15.5353  -30.2988   23.7652 H   0  0  0  0  0  0
  -15.8673  -28.0821   22.7066 H   0  0  0  0  0  0
  -24.5909  -30.7065   25.7786 H   0  0  0  0  0  0
  -24.8915  -32.2883   26.4884 H   0  0  0  0  0  0
  -25.8057  -30.8900   27.0231 H   0  0  0  0  0  0
  -26.2906  -29.6771   24.1198 H   0  0  0  0  0  0
  -27.4041  -29.7267   25.4670 H   0  0  0  0  0  0
  -27.8773  -30.4309   23.9390 H   0  0  0  0  0  0
  -27.2671  -33.3621   26.2079 H   0  0  0  0  0  0
  -28.3867  -32.6881   25.0327 H   0  0  0  0  0  0
  -28.0725  -31.8444   26.5414 H   0  0  0  0  0  0
  -28.2601  -38.0099   24.7509 H   0  0  0  0  0  0
  -28.1072  -36.2630   24.6297 H   0  0  0  0  0  0
  -27.2296  -37.1462   25.8869 H   0  0  0  0  0  0
  -20.9362  -29.8775   21.6901 H   0  0  0  0  0  0
  -26.0177  -38.2858   24.1404 H   0  0  0  0  0  0
  -31.8910  -19.7103   19.5756 H   0  0  0  0  0  0
  -31.8928  -17.2805   19.7925 H   0  0  0  0  0  0
  -28.0079  -19.9075   21.4250 H   0  0  0  0  0  0
  -30.0379  -24.1577   19.5612 H   0  0  0  0  0  0
  -29.7529  -24.2370   21.2752 H   0  0  0  0  0  0
  -28.2650  -22.2314   19.4670 H   0  0  0  0  0  0
  -28.2588  -22.2463   21.2099 H   0  0  0  0  0  0
  -27.7379  -24.8048   19.0621 H   0  0  0  0  0  0
  -27.2941  -24.7778   20.7537 H   0  0  0  0  0  0
  -28.9661  -15.3742   21.2927 H   0  0  0  0  0  0
  -30.8865  -21.8347   19.9169 H   0  0  0  0  0  0
  1 25  1  0  0  0
  1 30  2  0  0  0
  1 80  1  0  0  0
  2  3  1  0  0  0
  2 25  1  0  0  0
  2 83  1  0  0  0
  2 84  1  0  0  0
  3  4  1  0  0  0
  3 85  1  0  0  0
  3 86  1  0  0  0
  4  5  1  0  0  0
  4 87  1  0  0  0
  4 88  1  0  0  0
  5  6  1  0  0  0
  5 26  1  0  0  0
  5 89  1  0  0  0
  6 25  1  0  0  0
  6 90  1  0  0  0
  6 91  1  0  0  0
  7  8  2  0  0  0
  7 26  1  0  0  0
  7 29  1  0  0  0
  8  9  1  0  0  0
  8 22  1  0  0  0
  9 10  1  0  0  0
  9 27  2  0  0  0
 10 11  2  0  0  0
 10 15  1  0  0  0
 11 12  1  0  0  0
 11 92  1  0  0  0
 12 13  2  0  0  0
 12 93  1  0  0  0
 13 14  1  0  0  0
 13 31  1  0  0  0
 14 15  2  0  0  0
 14 94  1  0  0  0
 15 95  1  0  0  0
 16 17  2  0  0  0
 16 21  1  0  0  0
 16 31  1  0  0  0
 17 18  1  0  0  0
 17 96  1  0  0  0
 18 19  2  0  0  0
 18 97  1  0  0  0
 19 20  1  0  0  0
 19 24  1  0  0  0
 20 21  2  0  0  0
 20 98  1  0  0  0
 21 23  1  0  0  0
 22 28  1  0  0  0
 22 32  2  0  0  0
 26 27  1  0  0  0
 28 99  1  0  0  0
 28100  1  0  0  0
 29101  1  0  0  0
 29102  1  0  0  0
 33 34  1  0  0  0
 33 66  1  0  0  0
 33 70  2  0  0  0
 34 36  1  0  0  0
 34 59  1  0  0  0
 34103  1  0  0  0
 35 44  2  0  0  0
 35 45  1  0  0  0
 35 68  1  0  0  0
 36 56  1  0  0  0
 36104  1  0  0  0
 37 39  1  0  0  0
 37 47  1  0  0  0
 37 66  1  0  0  0
 37105  1  0  0  0
 38 43  2  0  0  0
 38 46  1  0  0  0
 38 47  1  0  0  0
 39 64  1  0  0  0
 39 67  2  0  0  0
 40 52  1  0  0  0
 40 53  2  0  0  0
 40 58  1  0  0  0
 41106  1  0  0  0
 41107  1  0  0  0
 41108  1  0  0  0
 41 48  1  0  0  0
 42 43  1  0  0  0
 42 66  1  0  0  0
 42109  1  0  0  0
 42110  1  0  0  0
 43 44  1  0  0  0
 44111  1  0  0  0
 45 46  2  0  0  0
 45112  1  0  0  0
 46113  1  0  0  0
 47114  1  0  0  0
 47115  1  0  0  0
 48 56  1  0  0  0
 48 65  1  0  0  0
 48116  1  0  0  0
 49 50  1  0  0  0
 49 53  1  0  0  0
 49 64  1  0  0  0
 49117  1  0  0  0
 50 51  1  0  0  0
 50118  1  0  0  0
 50119  1  0  0  0
 51 52  1  0  0  0
 51120  1  0  0  0
 51121  1  0  0  0
 52122  1  0  0  0
 52123  1  0  0  0
 53 54  1  0  0  0
 54 55  2  0  0  0
 54124  1  0  0  0
 55 57  1  0  0  0
 55125  1  0  0  0
 56 69  2  0  0  0
 57 58  2  0  0  0
 57126  1  0  0  0
 58127  1  0  0  0
 59 60  1  0  0  0
 59 61  1  0  0  0
 59 62  1  0  0  0
 60128  1  0  0  0
 60129  1  0  0  0
 60130  1  0  0  0
 61131  1  0  0  0
 61132  1  0  0  0
 61133  1  0  0  0
 62134  1  0  0  0
 62135  1  0  0  0
 62136  1  0  0  0
 63 65  1  0  0  0
 63137  1  0  0  0
 63138  1  0  0  0
 63139  1  0  0  0
 64140  1  0  0  0
 65141  1  0  0  0
 68 79  1  0  0  0
 71 72  2  0  0  0
 71 74  1  0  0  0
 71142  1  0  0  0
 72 75  1  0  0  0
 72143  1  0  0  0
 73 74  2  0  0  0
 73 76  1  0  0  0
 73144  1  0  0  0
 74 81  1  0  0  0
 75 76  2  0  0  0
 75 80  1  0  0  0
 76 82  1  0  0  0
 77 78  1  0  0  0
 77 79  1  0  0  0
 77145  1  0  0  0
 77146  1  0  0  0
 78 81  1  0  0  0
 78147  1  0  0  0
 78148  1  0  0  0
 79149  1  0  0  0
 79150  1  0  0  0
 80151  1  0  0  0
 81152  1  0  0  0
M  ISO  4   1 100  68 101  79 101  80 100
M  END
> <chiral flag>
0

> <version>
0

> <s_m_source_file>
/data/baiqing/PycharmProjects/Reinvent-master-3.2/result/LINK_invent/BTK/process_docking_weight1_custom_product_contain_oxygen_bond_distance_aromatic_linkinvent_7_9_3/rearranged_h_0021.sdf

> <i_m_source_file_index>
60

> <r_mmod_Potential_Energy-OPLS-2005>
1.95512580871582

> <r_mmod_Stretch_Energy-OPLS-2005>
73.7315979003906

> <r_mmod_Bend_Energy-OPLS-2005>
143.329742431641

> <r_mmod_Torsional_Energy-OPLS-2005>
201.478042602539

> <r_mmod_Improper_Torsional_Energy-OPLS-2005>
4.33145427703857

> <r_mmod_Van_der_Waal_Energy-OPLS-2005>
144.735977172852

> <r_mmod_Electrostatic_Energy-OPLS-2005>
-397.236511230469

> <r_mmod_Solvation_Energy-OPLS-2005>
-212.790084838867

> <b_mmod_Minimization_Converged-OPLS-2005>
0

> <r_mmod_RMS_Derivative-OPLS-2005>
0.141707301139832

$$$$
60
                    3D
 Structure written by MMmdl.
170179  0  0  1  0            999 V2000
  -30.6577  -14.5383   20.5427 C   0  0  0  0  0  0
  -30.4300  -12.3350   19.4562 C   0  0  0  0  0  0
  -29.5181  -12.5111   18.2203 C   0  0  0  0  0  0
  -28.0332  -12.3623   18.6166 C   0  0  0  0  0  0
  -27.6558  -13.1970   19.8698 C   0  0  2  0  0  0
  -28.6905  -13.0191   21.0009 C   0  0  0  0  0  0
  -25.2584  -13.8136   20.5701 C   0  0  0  0  0  0
  -24.1815  -13.0434   20.9156 C   0  0  0  0  0  0
  -24.6322  -11.6887   20.8694 C   0  0  0  0  0  0
  -23.8982  -10.4270   21.0376 C   0  0  0  0  0  0
  -24.3545   -9.4203   21.9163 C   0  0  0  0  0  0
  -23.6234   -8.2231   22.0749 C   0  0  0  0  0  0
  -22.4220   -8.0251   21.3529 C   0  0  0  0  0  0
  -21.9819   -9.0231   20.4637 C   0  0  0  0  0  0
  -22.7139  -10.2112   20.3033 C   0  0  0  0  0  0
  -21.6839   -6.0706   22.5263 C   0  0  0  0  0  0
  -21.4029   -6.5616   23.8207 C   0  0  0  0  0  0
  -21.3677   -5.6759   24.9159 C   0  0  0  0  0  0
  -21.6032   -4.3019   24.7208 C   0  0  0  0  0  0
  -21.8811   -3.8131   23.4338 C   0  0  0  0  0  0
  -21.9193   -4.6939   22.3382 C   0  0  0  0  0  0
  -22.7846  -13.5278   21.1788 C   0  0  0  0  0  0
  -22.1662   -4.2137   21.0960 F   0  0  0  0  0  0
  -21.5626   -3.4502   25.7734 F   0  0  0  0  0  0
  -30.0101  -13.3433   20.4437 N   0  0  0  0  0  0
  -26.2965  -12.9254   20.3286 N   0  0  0  0  0  0
  -25.9229  -11.6437   20.5652 N   0  0  0  0  0  0
  -22.0445  -12.8349   22.0350 N   0  0  0  0  0  0
  -25.4383  -15.1840   20.4229 N   0  0  0  0  0  0
  -31.8399  -14.6617   20.1928 O   0  0  0  0  0  0
  -21.6598   -6.8843   21.4229 O   0  0  0  0  0  0
  -22.3563  -14.5582   20.6599 O   0  0  0  0  0  0
  -24.6141  -31.8664   23.2071 C   0  0  0  0  0  0
  -25.9031  -32.4817   23.8382 C   0  0  1  0  0  0
  -27.2532  -27.4232   20.1302 C   0  0  0  0  0  0
  -25.5884  -33.8617   24.2326 N   0  0  0  0  0  0
  -23.4071  -30.4818   21.5477 C   0  0  2  0  0  0
  -24.8620  -28.9383   20.1248 C   0  0  0  0  0  0
  -22.7412  -29.4646   22.5020 C   0  0  0  0  0  0
  -18.0267  -28.1373   22.8506 C   0  0  0  0  0  0
  -24.1476  -36.7297   23.2639 C   0  0  0  0  0  0
  -25.9334  -30.8290   21.3609 C   0  0  0  0  0  0
  -26.0180  -29.4575   20.7208 C   0  0  0  0  0  0
  -27.2183  -28.7093   20.7172 C   0  0  0  0  0  0
  -26.0858  -26.9185   19.5223 C   0  0  0  0  0  0
  -24.8913  -27.6676   19.5192 C   0  0  0  0  0  0
  -23.6201  -29.8015   20.1679 C   0  0  0  0  0  0
  -25.4097  -36.3110   24.0346 C   0  0  1  0  0  0
  -20.5854  -28.3651   23.1335 C   0  0  2  0  0  0
  -20.6753  -26.9388   22.5442 C   0  0  0  0  0  0
  -19.5743  -26.6387   21.5220 C   0  0  0  0  0  0
  -18.1908  -26.7924   22.1619 C   0  0  0  0  0  0
  -19.1518  -28.8832   23.2910 C   0  0  0  0  0  0
  -18.9446  -30.1439   23.8912 C   0  0  0  0  0  0
  -17.6453  -30.6584   24.0561 C   0  0  0  0  0  0
  -25.9032  -34.9478   23.5137 C   0  0  0  0  0  0
  -16.5343  -29.9084   23.6333 C   0  0  0  0  0  0
  -16.7259  -28.6501   23.0361 C   0  0  0  0  0  0
  -26.4472  -31.6592   25.0705 C   0  0  0  0  0  0
  -25.3759  -31.3678   26.1475 C   0  0  0  0  0  0
  -27.0299  -30.3041   24.6048 C   0  0  0  0  0  0
  -27.6073  -32.4304   25.7435 C   0  0  0  0  0  0
  -27.5580  -37.1779   24.8460 C   0  0  0  0  0  0
  -21.4147  -29.3018   22.3751 N   0  0  0  0  0  0
  -26.4282  -37.3800   23.9429 N   0  0  0  0  0  0
  -24.6697  -31.0755   22.0967 N   0  0  0  0  0  0
  -23.4185  -28.8206   23.3087 O   0  0  0  0  0  0
  -28.4202  -26.6862   20.1013 O   0  0  0  0  0  0
  -26.5602  -34.8935   22.4704 O   0  0  0  0  0  0
  -23.5333  -32.1410   23.7454 O   0  0  0  0  0  0
  -27.9713  -18.3061   22.0944 C   0  0  0  0  0  0
  -30.3157  -18.8014   21.7633 C   0  0  0  0  0  0
  -27.6772  -19.6906   22.0440 C   0  0  0  0  0  0
  -30.0190  -20.1847   21.6942 C   0  0  0  0  0  0
  -29.2928  -17.8373   21.9184 C   0  0  0  0  0  0
  -28.6869  -20.6550   21.8105 C   0  0  0  0  0  0
  -28.8037  -24.2359   20.3006 C   0  0  0  0  0  0
  -28.7149  -24.0335   18.9730 C   0  0  0  0  0  0
  -29.8848  -24.7732   22.9971 C   0  0  0  0  0  0
  -29.6300  -25.9286   22.0243 C   0  0  0  0  0  0
  -30.2975  -23.5073   22.2323 C   0  0  0  0  0  0
  -28.5197  -25.5728   21.0198 C   0  0  1  0  0  0
  -28.5212  -16.8586   18.8050 C   0  0  0  0  0  0
  -29.6107  -16.3195   21.9048 C   0  0  0  0  0  0
  -28.2761  -22.1474   21.6878 C   0  0  0  0  0  0
  -29.9051  -16.5326   19.3990 C   0  0  0  0  0  0
  -29.8581  -15.6481   20.5914 N   0  0  0  0  0  0
  -29.3100  -23.1078   21.1933 N   0  3  1  0  0  0
  -31.4828  -12.4319   19.1853 H   0  0  0  0  0  0
  -30.3208  -11.3349   19.8740 H   0  0  0  0  0  0
  -29.7790  -11.7786   17.4550 H   0  0  0  0  0  0
  -29.6848  -13.4932   17.7752 H   0  0  0  0  0  0
  -27.8489  -11.3038   18.8132 H   0  0  0  0  0  0
  -27.3967  -12.6339   17.7751 H   0  0  0  0  0  0
  -27.6806  -14.2374   19.5618 H   0  0  0  0  0  0
  -28.6865  -11.9915   21.3679 H   0  0  0  0  0  0
  -28.4454  -13.6444   21.8581 H   0  0  0  0  0  0
  -25.2693   -9.5715   22.4750 H   0  0  0  0  0  0
  -23.9954   -7.4629   22.7466 H   0  0  0  0  0  0
  -21.0761   -8.8734   19.8928 H   0  0  0  0  0  0
  -22.3597  -10.9651   19.6133 H   0  0  0  0  0  0
  -21.2039   -7.6119   23.9718 H   0  0  0  0  0  0
  -21.1501   -6.0473   25.9057 H   0  0  0  0  0  0
  -22.0577   -2.7598   23.2810 H   0  0  0  0  0  0
  -22.4037  -12.0069   22.4840 H   0  0  0  0  0  0
  -21.1051  -13.1454   22.2465 H   0  0  0  0  0  0
  -24.6745  -15.8443   20.5296 H   0  0  0  0  0  0
  -26.3038  -15.6135   20.1247 H   0  0  0  0  0  0
  -26.7098  -32.5558   23.1149 H   0  0  0  0  0  0
  -25.0015  -33.9765   25.0456 H   0  0  0  0  0  0
  -22.6949  -31.2958   21.4021 H   0  0  0  0  0  0
  -23.3758  -35.9609   23.3296 H   0  0  0  0  0  0
  -24.3578  -36.8916   22.2059 H   0  0  0  0  0  0
  -23.7196  -37.6486   23.6659 H   0  0  0  0  0  0
  -26.0376  -31.5864   20.5832 H   0  0  0  0  0  0
  -26.8229  -30.8959   21.9748 H   0  0  0  0  0  0
  -28.1130  -29.1099   21.1723 H   0  0  0  0  0  0
  -26.1061  -25.9469   19.0482 H   0  0  0  0  0  0
  -24.0054  -27.2607   19.0525 H   0  0  0  0  0  0
  -23.7213  -30.5668   19.3986 H   0  0  0  0  0  0
  -22.7479  -29.2117   19.8831 H   0  0  0  0  0  0
  -25.1259  -36.1963   25.0841 H   0  0  0  0  0  0
  -20.9934  -28.3215   24.1461 H   0  0  0  0  0  0
  -20.5643  -26.2255   23.3621 H   0  0  0  0  0  0
  -21.6628  -26.7429   22.1242 H   0  0  0  0  0  0
  -19.6894  -25.6302   21.1235 H   0  0  0  0  0  0
  -19.6680  -27.3214   20.6761 H   0  0  0  0  0  0
  -17.4184  -26.6698   21.4003 H   0  0  0  0  0  0
  -18.0285  -26.0056   22.9003 H   0  0  0  0  0  0
  -19.7922  -30.7253   24.2291 H   0  0  0  0  0  0
  -17.5006  -31.6266   24.5154 H   0  0  0  0  0  0
  -15.5340  -30.2985   23.7655 H   0  0  0  0  0  0
  -15.8655  -28.0816   22.7082 H   0  0  0  0  0  0
  -24.5922  -30.7035   25.7807 H   0  0  0  0  0  0
  -24.8967  -32.2834   26.4960 H   0  0  0  0  0  0
  -25.8150  -30.8818   27.0201 H   0  0  0  0  0  0
  -26.2814  -29.6781   24.1182 H   0  0  0  0  0  0
  -27.4171  -29.7290   25.4464 H   0  0  0  0  0  0
  -27.8602  -30.4362   23.9106 H   0  0  0  0  0  0
  -27.2720  -33.3600   26.2033 H   0  0  0  0  0  0
  -28.3849  -32.6868   25.0231 H   0  0  0  0  0  0
  -28.0777  -31.8420   26.5315 H   0  0  0  0  0  0
  -28.2589  -38.0088   24.7575 H   0  0  0  0  0  0
  -28.1092  -36.2640   24.6201 H   0  0  0  0  0  0
  -27.2333  -37.1329   25.8869 H   0  0  0  0  0  0
  -20.9311  -29.8694   21.6920 H   0  0  0  0  0  0
  -26.0173  -38.2867   24.1489 H   0  0  0  0  0  0
  -27.1639  -17.6032   22.2498 H   0  0  0  0  0  0
  -31.3398  -18.4765   21.6525 H   0  0  0  0  0  0
  -26.6499  -20.0097   22.1664 H   0  0  0  0  0  0
  -30.8453  -20.8622   21.5327 H   0  0  0  0  0  0
  -28.4007  -24.8283   18.3109 H   0  0  0  0  0  0
  -28.9571  -23.0816   18.5259 H   0  0  0  0  0  0
  -28.9950  -24.5875   23.5990 H   0  0  0  0  0  0
  -30.6787  -25.0468   23.6947 H   0  0  0  0  0  0
  -30.5541  -26.1630   21.4897 H   0  0  0  0  0  0
  -29.3670  -26.8315   22.5772 H   0  0  0  0  0  0
  -30.4705  -22.6919   22.9380 H   0  0  0  0  0  0
  -31.2527  -23.6866   21.7370 H   0  0  0  0  0  0
  -27.5816  -25.4542   21.5649 H   0  0  0  0  0  0
  -28.6259  -17.5742   17.9884 H   0  0  0  0  0  0
  -27.8392  -17.2989   19.5312 H   0  0  0  0  0  0
  -28.0459  -15.9776   18.3815 H   0  0  0  0  0  0
  -28.7897  -15.8043   22.4026 H   0  0  0  0  0  0
  -30.4799  -16.1679   22.5492 H   0  0  0  0  0  0
  -27.8666  -22.4994   22.6353 H   0  0  0  0  0  0
  -27.4439  -22.1692   20.9820 H   0  0  0  0  0  0
  -30.4376  -17.4547   19.6094 H   0  0  0  0  0  0
  -30.4919  -16.0747   18.5995 H   0  0  0  0  0  0
  -29.8533  -22.5172   20.5849 H   0  0  0  0  0  0
  1 25  1  0  0  0
  1 30  2  0  0  0
  1 87  1  0  0  0
  2  3  1  0  0  0
  2 25  1  0  0  0
  2 89  1  0  0  0
  2 90  1  0  0  0
  3  4  1  0  0  0
  3 91  1  0  0  0
  3 92  1  0  0  0
  4  5  1  0  0  0
  4 93  1  0  0  0
  4 94  1  0  0  0
  5  6  1  0  0  0
  5 26  1  0  0  0
  5 95  1  0  0  0
  6 25  1  0  0  0
  6 96  1  0  0  0
  6 97  1  0  0  0
  7  8  2  0  0  0
  7 26  1  0  0  0
  7 29  1  0  0  0
  8  9  1  0  0  0
  8 22  1  0  0  0
  9 10  1  0  0  0
  9 27  2  0  0  0
 10 11  2  0  0  0
 10 15  1  0  0  0
 11 12  1  0  0  0
 11 98  1  0  0  0
 12 13  2  0  0  0
 12 99  1  0  0  0
 13 14  1  0  0  0
 13 31  1  0  0  0
 14 15  2  0  0  0
 14100  1  0  0  0
 15101  1  0  0  0
 16 17  2  0  0  0
 16 21  1  0  0  0
 16 31  1  0  0  0
 17 18  1  0  0  0
 17102  1  0  0  0
 18 19  2  0  0  0
 18103  1  0  0  0
 19 20  1  0  0  0
 19 24  1  0  0  0
 20 21  2  0  0  0
 20104  1  0  0  0
 21 23  1  0  0  0
 22 28  1  0  0  0
 22 32  2  0  0  0
 26 27  1  0  0  0
 28105  1  0  0  0
 28106  1  0  0  0
 29107  1  0  0  0
 29108  1  0  0  0
 33 34  1  0  0  0
 33 66  1  0  0  0
 33 70  2  0  0  0
 34 36  1  0  0  0
 34 59  1  0  0  0
 34109  1  0  0  0
 35 44  2  0  0  0
 35 45  1  0  0  0
 35 68  1  0  0  0
 36 56  1  0  0  0
 36110  1  0  0  0
 37 39  1  0  0  0
 37 47  1  0  0  0
 37 66  1  0  0  0
 37111  1  0  0  0
 38 43  2  0  0  0
 38 46  1  0  0  0
 38 47  1  0  0  0
 39 64  1  0  0  0
 39 67  2  0  0  0
 40 52  1  0  0  0
 40 53  2  0  0  0
 40 58  1  0  0  0
 41112  1  0  0  0
 41113  1  0  0  0
 41114  1  0  0  0
 41 48  1  0  0  0
 42 43  1  0  0  0
 42 66  1  0  0  0
 42115  1  0  0  0
 42116  1  0  0  0
 43 44  1  0  0  0
 44117  1  0  0  0
 45 46  2  0  0  0
 45118  1  0  0  0
 46119  1  0  0  0
 47120  1  0  0  0
 47121  1  0  0  0
 48 56  1  0  0  0
 48 65  1  0  0  0
 48122  1  0  0  0
 49 50  1  0  0  0
 49 53  1  0  0  0
 49 64  1  0  0  0
 49123  1  0  0  0
 50 51  1  0  0  0
 50124  1  0  0  0
 50125  1  0  0  0
 51 52  1  0  0  0
 51126  1  0  0  0
 51127  1  0  0  0
 52128  1  0  0  0
 52129  1  0  0  0
 53 54  1  0  0  0
 54 55  2  0  0  0
 54130  1  0  0  0
 55 57  1  0  0  0
 55131  1  0  0  0
 56 69  2  0  0  0
 57 58  2  0  0  0
 57132  1  0  0  0
 58133  1  0  0  0
 59 60  1  0  0  0
 59 61  1  0  0  0
 59 62  1  0  0  0
 60134  1  0  0  0
 60135  1  0  0  0
 60136  1  0  0  0
 61137  1  0  0  0
 61138  1  0  0  0
 61139  1  0  0  0
 62140  1  0  0  0
 62141  1  0  0  0
 62142  1  0  0  0
 63 65  1  0  0  0
 63143  1  0  0  0
 63144  1  0  0  0
 63145  1  0  0  0
 64146  1  0  0  0
 65147  1  0  0  0
 68 82  1  0  0  0
 71 73  2  0  0  0
 71 75  1  0  0  0
 71148  1  0  0  0
 72 74  1  0  0  0
 72 75  2  0  0  0
 72149  1  0  0  0
 73 76  1  0  0  0
 73150  1  0  0  0
 74 76  2  0  0  0
 74151  1  0  0  0
 75 84  1  0  0  0
 76 85  1  0  0  0
 77 78  2  0  0  0
 77 82  1  0  0  0
 77 88  1  0  0  0
 78152  1  0  0  0
 78153  1  0  0  0
 79 80  1  0  0  0
 79 81  1  0  0  0
 79154  1  0  0  0
 79155  1  0  0  0
 80 82  1  0  0  0
 80156  1  0  0  0
 80157  1  0  0  0
 81 88  1  0  0  0
 81158  1  0  0  0
 81159  1  0  0  0
 82160  1  0  0  0
 83 86  1  0  0  0
 83161  1  0  0  0
 83162  1  0  0  0
 83163  1  0  0  0
 84 87  1  0  0  0
 84164  1  0  0  0
 84165  1  0  0  0
 85166  1  0  0  0
 85167  1  0  0  0
 85 88  1  0  0  0
 86 87  1  0  0  0
 86168  1  0  0  0
 86169  1  0  0  0
 88170  1  0  0  0
M  CHG  1  88   1
M  ISO  4   1 100  68 101  82 101  87 100
M  END
> <chiral flag>
0

> <version>
0

> <s_m_source_file>
/data/baiqing/PycharmProjects/Reinvent-master-3.2/result/LINK_invent/BTK/process_docking_weight1_custom_product_contain_oxygen_bond_distance_aromatic_linkinvent_7_9_3/rearranged_h_0021.sdf

> <i_m_source_file_index>
61

> <r_mmod_Potential_Energy-OPLS-2005>
70.1833419799805

> <r_mmod_Stretch_Energy-OPLS-2005>
53.6599578857422

> <r_mmod_Bend_Energy-OPLS-2005>
119.583824157715

> <r_mmod_Torsional_Energy-OPLS-2005>
332.407470703125

> <r_mmod_Improper_Torsional_Energy-OPLS-2005>
16.0509166717529

> <r_mmod_Van_der_Waal_Energy-OPLS-2005>
143.76301574707

> <r_mmod_Electrostatic_Energy-OPLS-2005>
-205.066375732422

> <r_mmod_Solvation_Energy-OPLS-2005>
-411.023712158203

> <b_mmod_Minimization_Converged-OPLS-2005>
0

> <r_mmod_RMS_Derivative-OPLS-2005>
4.70836496353149

$$$$
61
                    3D
 Structure written by MMmdl.
156165  0  0  1  0            999 V2000
  -30.5141  -14.9027   20.4423 C   0  0  0  0  0  0
  -30.4549  -12.5560   19.4915 C   0  0  0  0  0  0
  -29.5268  -12.5320   18.2522 C   0  0  0  0  0  0
  -28.0560  -12.3227   18.6656 C   0  0  0  0  0  0
  -27.6397  -13.2356   19.8480 C   0  0  2  0  0  0
  -28.6834  -13.2072   20.9865 C   0  0  0  0  0  0
  -25.2508  -13.8188   20.5691 C   0  0  0  0  0  0
  -24.1808  -13.0433   20.9224 C   0  0  0  0  0  0
  -24.6403  -11.6911   20.8751 C   0  0  0  0  0  0
  -23.9073  -10.4291   21.0411 C   0  0  0  0  0  0
  -24.3621   -9.4203   21.9188 C   0  0  0  0  0  0
  -23.6291   -8.2240   22.0757 C   0  0  0  0  0  0
  -22.4273   -8.0282   21.3546 C   0  0  0  0  0  0
  -21.9912   -9.0257   20.4650 C   0  0  0  0  0  0
  -22.7245  -10.2132   20.3060 C   0  0  0  0  0  0
  -21.6853   -6.0735   22.5280 C   0  0  0  0  0  0
  -21.4016   -6.5638   23.8212 C   0  0  0  0  0  0
  -21.3658   -5.6791   24.9175 C   0  0  0  0  0  0
  -21.6045   -4.3053   24.7225 C   0  0  0  0  0  0
  -21.8815   -3.8145   23.4346 C   0  0  0  0  0  0
  -21.9192   -4.6962   22.3403 C   0  0  0  0  0  0
  -22.7827  -13.5217   21.1873 C   0  0  0  0  0  0
  -22.1659   -4.2147   21.0980 F   0  0  0  0  0  0
  -21.5630   -3.4538   25.7737 F   0  0  0  0  0  0
  -29.9698  -13.6233   20.4068 N   0  0  0  0  0  0
  -26.2930  -12.9396   20.3253 N   0  0  0  0  0  0
  -25.9334  -11.6537   20.5736 N   0  0  0  0  0  0
  -22.0467  -12.8216   22.0429 N   0  0  0  0  0  0
  -25.4184  -15.1912   20.4073 N   0  0  0  0  0  0
  -31.6986  -15.0476   20.1189 O   0  0  0  0  0  0
  -21.6639   -6.8879   21.4241 O   0  0  0  0  0  0
  -22.3515  -14.5522   20.6715 O   0  0  0  0  0  0
  -24.6418  -31.8459   23.1904 C   0  0  0  0  0  0
  -25.9195  -32.4708   23.8287 C   0  0  1  0  0  0
  -27.2199  -27.1555   20.1477 C   0  0  0  0  0  0
  -25.5945  -33.8513   24.2198 N   0  0  0  0  0  0
  -23.4444  -30.4660   21.5360 C   0  0  2  0  0  0
  -24.8936  -28.8953   20.1142 C   0  0  0  0  0  0
  -22.7557  -29.4559   22.4874 C   0  0  0  0  0  0
  -18.0302  -28.1396   22.8479 C   0  0  0  0  0  0
  -24.1491  -36.7264   23.2642 C   0  0  0  0  0  0
  -25.9994  -30.7255   21.3871 C   0  0  0  0  0  0
  -26.0713  -29.3378   20.7303 C   0  0  0  0  0  0
  -27.2362  -28.4845   20.7291 C   0  0  0  0  0  0
  -26.0165  -26.8135   19.4907 C   0  0  0  0  0  0
  -24.8777  -27.6453   19.4800 C   0  0  0  0  0  0
  -23.6701  -29.7959   20.1558 C   0  0  0  0  0  0
  -25.4122  -36.3039   24.0314 C   0  0  1  0  0  0
  -20.5913  -28.3720   23.1242 C   0  0  2  0  0  0
  -20.6788  -26.9427   22.5404 C   0  0  0  0  0  0
  -19.5760  -26.6384   21.5213 C   0  0  0  0  0  0
  -18.1941  -26.7935   22.1625 C   0  0  0  0  0  0
  -19.1557  -28.8875   23.2853 C   0  0  0  0  0  0
  -18.9475  -30.1473   23.8878 C   0  0  0  0  0  0
  -17.6472  -30.6593   24.0561 C   0  0  0  0  0  0
  -25.9071  -34.9413   23.5066 C   0  0  0  0  0  0
  -16.5364  -29.9087   23.6336 C   0  0  0  0  0  0
  -16.7286  -28.6505   23.0356 C   0  0  0  0  0  0
  -26.4518  -31.6574   25.0726 C   0  0  0  0  0  0
  -25.3702  -31.3764   26.1422 C   0  0  0  0  0  0
  -27.0380  -30.2970   24.6302 C   0  0  0  0  0  0
  -27.6046  -32.4341   25.7511 C   0  0  0  0  0  0
  -27.5574  -37.1790   24.8463 C   0  0  0  0  0  0
  -21.4250  -29.3052   22.3619 N   0  0  0  0  0  0
  -26.4286  -37.3749   23.9406 N   0  0  0  0  0  0
  -24.7149  -31.0333   22.0932 N   0  0  0  0  0  0
  -23.4208  -28.8106   23.3016 O   0  0  0  0  0  0
  -28.2866  -26.1896   20.1830 O   0  0  0  0  0  0
  -26.5658  -34.8906   22.4647 O   0  0  0  0  0  0
  -23.5540  -32.1328   23.7133 O   0  0  0  0  0  0
  -30.2517  -19.9481   20.2430 C   0  0  0  0  0  0
  -30.5131  -18.5042   20.2360 C   0  0  0  0  0  0
  -28.3028  -18.1246   20.9544 C   0  0  0  0  0  0
  -28.9993  -20.5582   20.6227 C   0  0  0  0  0  0
  -29.5443  -17.5042   20.6099 C   0  0  0  0  0  0
  -28.0389  -19.5438   20.9660 C   0  0  0  0  0  0
  -30.1084  -23.1666   22.3904 C   0  0  0  0  0  0
  -30.3421  -23.7074   20.9754 C   0  0  0  0  0  0
  -28.8723  -22.2603   22.2812 C   0  0  0  0  0  0
  -29.0534  -23.3674   20.2306 C   0  0  2  0  0  0
  -27.9996  -24.6761   20.3780 C   0  0  0  0  0  0
  -28.6763  -21.9983   20.8560 N   0  0  0  0  0  0
  -29.6315  -15.9778   20.6883 N   0  0  0  0  0  0
  -26.4527  -20.0287   21.4628 Cl  0  0  0  0  0  0
  -31.4874  -12.7283   19.1833 H   0  0  0  0  0  0
  -30.4518  -11.5891   19.9970 H   0  0  0  0  0  0
  -29.8371  -11.7469   17.5614 H   0  0  0  0  0  0
  -29.6222  -13.4728   17.7076 H   0  0  0  0  0  0
  -27.9408  -11.2765   18.9516 H   0  0  0  0  0  0
  -27.3946  -12.4797   17.8126 H   0  0  0  0  0  0
  -27.6185  -14.2481   19.4446 H   0  0  0  0  0  0
  -28.7576  -12.2095   21.4221 H   0  0  0  0  0  0
  -28.3869  -13.8707   21.8005 H   0  0  0  0  0  0
  -25.2764   -9.5676   22.4763 H   0  0  0  0  0  0
  -23.9998   -7.4630   22.7475 H   0  0  0  0  0  0
  -21.0843   -8.8779   19.8954 H   0  0  0  0  0  0
  -22.3706  -10.9673   19.6170 H   0  0  0  0  0  0
  -21.2010   -7.6146   23.9716 H   0  0  0  0  0  0
  -21.1485   -6.0522   25.9079 H   0  0  0  0  0  0
  -22.0595   -2.7607   23.2847 H   0  0  0  0  0  0
  -22.4079  -11.9885   22.4833 H   0  0  0  0  0  0
  -21.1083  -13.1246   22.2623 H   0  0  0  0  0  0
  -24.6358  -15.8311   20.4913 H   0  0  0  0  0  0
  -26.2331  -15.6180   19.9873 H   0  0  0  0  0  0
  -26.7261  -32.5323   23.1018 H   0  0  0  0  0  0
  -25.0061  -33.9632   25.0323 H   0  0  0  0  0  0
  -22.7459  -31.2913   21.3826 H   0  0  0  0  0  0
  -23.3753  -35.9596   23.3295 H   0  0  0  0  0  0
  -24.3576  -36.8908   22.2059 H   0  0  0  0  0  0
  -23.7250  -37.6458   23.6686 H   0  0  0  0  0  0
  -26.1518  -31.4797   20.6139 H   0  0  0  0  0  0
  -26.8713  -30.7768   22.0279 H   0  0  0  0  0  0
  -28.1354  -28.8203   21.2263 H   0  0  0  0  0  0
  -25.9241  -25.8720   18.9732 H   0  0  0  0  0  0
  -23.9809  -27.3050   18.9804 H   0  0  0  0  0  0
  -23.8061  -30.5702   19.3998 H   0  0  0  0  0  0
  -22.7855  -29.2369   19.8457 H   0  0  0  0  0  0
  -25.1311  -36.1866   25.0805 H   0  0  0  0  0  0
  -21.0002  -28.3308   24.1363 H   0  0  0  0  0  0
  -20.5685  -26.2333   23.3620 H   0  0  0  0  0  0
  -21.6654  -26.7435   22.1200 H   0  0  0  0  0  0
  -19.6923  -25.6288   21.1258 H   0  0  0  0  0  0
  -19.6696  -27.3181   20.6732 H   0  0  0  0  0  0
  -17.4210  -26.6676   21.4032 H   0  0  0  0  0  0
  -18.0344  -26.0083   22.9025 H   0  0  0  0  0  0
  -19.7950  -30.7295   24.2241 H   0  0  0  0  0  0
  -17.5024  -31.6271   24.5166 H   0  0  0  0  0  0
  -15.5363  -30.2983   23.7671 H   0  0  0  0  0  0
  -15.8686  -28.0818   22.7083 H   0  0  0  0  0  0
  -24.5882  -30.7111   25.7742 H   0  0  0  0  0  0
  -24.8888  -32.2948   26.4794 H   0  0  0  0  0  0
  -25.7984  -30.8971   27.0234 H   0  0  0  0  0  0
  -26.2996  -29.6699   24.1292 H   0  0  0  0  0  0
  -27.3973  -29.7266   25.4878 H   0  0  0  0  0  0
  -27.8912  -30.4209   23.9629 H   0  0  0  0  0  0
  -27.2633  -33.3655   26.2039 H   0  0  0  0  0  0
  -28.3883  -32.6880   25.0362 H   0  0  0  0  0  0
  -28.0683  -31.8501   26.5471 H   0  0  0  0  0  0
  -28.2585  -38.0092   24.7503 H   0  0  0  0  0  0
  -28.1076  -36.2621   24.6296 H   0  0  0  0  0  0
  -27.2291  -37.1442   25.8866 H   0  0  0  0  0  0
  -20.9459  -29.8763   21.6798 H   0  0  0  0  0  0
  -26.0153  -38.2817   24.1407 H   0  0  0  0  0  0
  -31.0703  -20.6037   19.9844 H   0  0  0  0  0  0
  -31.5009  -18.1732   19.9488 H   0  0  0  0  0  0
  -27.4854  -17.4840   21.2514 H   0  0  0  0  0  0
  -29.9304  -23.9719   23.1046 H   0  0  0  0  0  0
  -30.9811  -22.6099   22.7349 H   0  0  0  0  0  0
  -31.1806  -23.1826   20.5154 H   0  0  0  0  0  0
  -30.5770  -24.7726   20.9584 H   0  0  0  0  0  0
  -27.9900  -22.7671   22.6750 H   0  0  0  0  0  0
  -29.0019  -21.3594   22.8852 H   0  0  0  0  0  0
  -29.2803  -23.2280   19.1724 H   0  0  0  0  0  0
  -27.5885  -24.6317   21.3862 H   0  0  0  0  0  0
  -27.1635  -24.4027   19.7406 H   0  0  0  0  0  0
  -28.7460  -15.5791   20.9599 H   0  0  0  0  0  0
  1 25  1  0  0  0
  1 30  2  0  0  0
  1 83  1  0  0  0
  2  3  1  0  0  0
  2 25  1  0  0  0
  2 85  1  0  0  0
  2 86  1  0  0  0
  3  4  1  0  0  0
  3 87  1  0  0  0
  3 88  1  0  0  0
  4  5  1  0  0  0
  4 89  1  0  0  0
  4 90  1  0  0  0
  5  6  1  0  0  0
  5 26  1  0  0  0
  5 91  1  0  0  0
  6 25  1  0  0  0
  6 92  1  0  0  0
  6 93  1  0  0  0
  7  8  2  0  0  0
  7 26  1  0  0  0
  7 29  1  0  0  0
  8  9  1  0  0  0
  8 22  1  0  0  0
  9 10  1  0  0  0
  9 27  2  0  0  0
 10 11  2  0  0  0
 10 15  1  0  0  0
 11 12  1  0  0  0
 11 94  1  0  0  0
 12 13  2  0  0  0
 12 95  1  0  0  0
 13 14  1  0  0  0
 13 31  1  0  0  0
 14 15  2  0  0  0
 14 96  1  0  0  0
 15 97  1  0  0  0
 16 17  2  0  0  0
 16 21  1  0  0  0
 16 31  1  0  0  0
 17 18  1  0  0  0
 17 98  1  0  0  0
 18 19  2  0  0  0
 18 99  1  0  0  0
 19 20  1  0  0  0
 19 24  1  0  0  0
 20 21  2  0  0  0
 20100  1  0  0  0
 21 23  1  0  0  0
 22 28  1  0  0  0
 22 32  2  0  0  0
 26 27  1  0  0  0
 28101  1  0  0  0
 28102  1  0  0  0
 29103  1  0  0  0
 29104  1  0  0  0
 33 34  1  0  0  0
 33 66  1  0  0  0
 33 70  2  0  0  0
 34 36  1  0  0  0
 34 59  1  0  0  0
 34105  1  0  0  0
 35 44  2  0  0  0
 35 45  1  0  0  0
 35 68  1  0  0  0
 36 56  1  0  0  0
 36106  1  0  0  0
 37 39  1  0  0  0
 37 47  1  0  0  0
 37 66  1  0  0  0
 37107  1  0  0  0
 38 43  2  0  0  0
 38 46  1  0  0  0
 38 47  1  0  0  0
 39 64  1  0  0  0
 39 67  2  0  0  0
 40 52  1  0  0  0
 40 53  2  0  0  0
 40 58  1  0  0  0
 41108  1  0  0  0
 41109  1  0  0  0
 41110  1  0  0  0
 41 48  1  0  0  0
 42 43  1  0  0  0
 42 66  1  0  0  0
 42111  1  0  0  0
 42112  1  0  0  0
 43 44  1  0  0  0
 44113  1  0  0  0
 45 46  2  0  0  0
 45114  1  0  0  0
 46115  1  0  0  0
 47116  1  0  0  0
 47117  1  0  0  0
 48 56  1  0  0  0
 48 65  1  0  0  0
 48118  1  0  0  0
 49 50  1  0  0  0
 49 53  1  0  0  0
 49 64  1  0  0  0
 49119  1  0  0  0
 50 51  1  0  0  0
 50120  1  0  0  0
 50121  1  0  0  0
 51 52  1  0  0  0
 51122  1  0  0  0
 51123  1  0  0  0
 52124  1  0  0  0
 52125  1  0  0  0
 53 54  1  0  0  0
 54 55  2  0  0  0
 54126  1  0  0  0
 55 57  1  0  0  0
 55127  1  0  0  0
 56 69  2  0  0  0
 57 58  2  0  0  0
 57128  1  0  0  0
 58129  1  0  0  0
 59 60  1  0  0  0
 59 61  1  0  0  0
 59 62  1  0  0  0
 60130  1  0  0  0
 60131  1  0  0  0
 60132  1  0  0  0
 61133  1  0  0  0
 61134  1  0  0  0
 61135  1  0  0  0
 62136  1  0  0  0
 62137  1  0  0  0
 62138  1  0  0  0
 63 65  1  0  0  0
 63139  1  0  0  0
 63140  1  0  0  0
 63141  1  0  0  0
 64142  1  0  0  0
 65143  1  0  0  0
 68 81  1  0  0  0
 71 72  2  0  0  0
 71 74  1  0  0  0
 71144  1  0  0  0
 72 75  1  0  0  0
 72145  1  0  0  0
 73 75  2  0  0  0
 73 76  1  0  0  0
 73146  1  0  0  0
 74 76  2  0  0  0
 74 82  1  0  0  0
 75 83  1  0  0  0
 76 84  1  0  0  0
 77 78  1  0  0  0
 77 79  1  0  0  0
 77147  1  0  0  0
 77148  1  0  0  0
 78 80  1  0  0  0
 78149  1  0  0  0
 78150  1  0  0  0
 79 82  1  0  0  0
 79151  1  0  0  0
 79152  1  0  0  0
 80 81  1  0  0  0
 80 82  1  0  0  0
 80153  1  0  0  0
 81154  1  0  0  0
 81155  1  0  0  0
 83156  1  0  0  0
M  ISO  4   1 100  68 101  81 101  83 100
M  END
> <chiral flag>
0

> <version>
0

> <s_m_source_file>
/data/baiqing/PycharmProjects/Reinvent-master-3.2/result/LINK_invent/BTK/process_docking_weight1_custom_product_contain_oxygen_bond_distance_aromatic_linkinvent_7_9_3/rearranged_h_0021.sdf

> <i_m_source_file_index>
62

> <r_mmod_Potential_Energy-OPLS-2005>
587.363037109375

> <r_mmod_Stretch_Energy-OPLS-2005>
212.801223754883

> <r_mmod_Bend_Energy-OPLS-2005>
316.228485107422

> <r_mmod_Torsional_Energy-OPLS-2005>
302.075347900391

> <r_mmod_Improper_Torsional_Energy-OPLS-2005>
9.86344528198242

> <r_mmod_Van_der_Waal_Energy-OPLS-2005>
129.6513671875

> <r_mmod_Electrostatic_Energy-OPLS-2005>
-333.685729980469

> <r_mmod_Solvation_Energy-OPLS-2005>
-216.405960083008

> <b_mmod_Minimization_Converged-OPLS-2005>
0

> <r_mmod_RMS_Derivative-OPLS-2005>
0.620029389858246

$$$$
62
                    3D
 Structure written by MMmdl.
164172  0  0  1  0            999 V2000
  -30.6303  -14.6280   20.5229 C   0  0  0  0  0  0
  -30.4382  -12.3878   19.4549 C   0  0  0  0  0  0
  -29.5091  -12.5143   18.2265 C   0  0  0  0  0  0
  -28.0314  -12.3541   18.6347 C   0  0  0  0  0  0
  -27.6565  -13.2165   19.8693 C   0  0  2  0  0  0
  -28.6995  -13.0575   20.9988 C   0  0  0  0  0  0
  -25.2540  -13.8135   20.5598 C   0  0  0  0  0  0
  -24.1827  -13.0414   20.9172 C   0  0  0  0  0  0
  -24.6415  -11.6893   20.8751 C   0  0  0  0  0  0
  -23.9086  -10.4279   21.0420 C   0  0  0  0  0  0
  -24.3634   -9.4191   21.9195 C   0  0  0  0  0  0
  -23.6302   -8.2231   22.0762 C   0  0  0  0  0  0
  -22.4281   -8.0280   21.3551 C   0  0  0  0  0  0
  -21.9925   -9.0257   20.4651 C   0  0  0  0  0  0
  -22.7263  -10.2129   20.3064 C   0  0  0  0  0  0
  -21.6852   -6.0741   22.5285 C   0  0  0  0  0  0
  -21.4011   -6.5645   23.8218 C   0  0  0  0  0  0
  -21.3656   -5.6797   24.9178 C   0  0  0  0  0  0
  -21.6042   -4.3061   24.7229 C   0  0  0  0  0  0
  -21.8819   -3.8153   23.4351 C   0  0  0  0  0  0
  -21.9191   -4.6968   22.3405 C   0  0  0  0  0  0
  -22.7851  -13.5215   21.1839 C   0  0  0  0  0  0
  -22.1661   -4.2156   21.0984 F   0  0  0  0  0  0
  -21.5631   -3.4546   25.7741 F   0  0  0  0  0  0
  -30.0191  -13.4022   20.4436 N   0  0  0  0  0  0
  -26.3007  -12.9337   20.3336 N   0  0  0  0  0  0
  -25.9351  -11.6493   20.5790 N   0  0  0  0  0  0
  -22.0507  -12.8209   22.0408 N   0  0  0  0  0  0
  -25.4171  -15.1830   20.3837 N   0  0  0  0  0  0
  -31.7730  -14.8042   20.0892 O   0  0  0  0  0  0
  -21.6641   -6.8883   21.4247 O   0  0  0  0  0  0
  -22.3524  -14.5517   20.6686 O   0  0  0  0  0  0
  -24.6256  -31.8605   23.2028 C   0  0  0  0  0  0
  -25.9111  -32.4777   23.8350 C   0  0  1  0  0  0
  -27.2248  -27.3238   20.1094 C   0  0  0  0  0  0
  -25.5937  -33.8576   24.2281 N   0  0  0  0  0  0
  -23.4184  -30.4849   21.5461 C   0  0  2  0  0  0
  -24.8639  -28.9424   20.1108 C   0  0  0  0  0  0
  -22.7467  -29.4623   22.4938 C   0  0  0  0  0  0
  -18.0286  -28.1366   22.8480 C   0  0  0  0  0  0
  -24.1496  -36.7291   23.2641 C   0  0  0  0  0  0
  -25.9600  -30.7918   21.3732 C   0  0  0  0  0  0
  -26.0333  -29.4211   20.7132 C   0  0  0  0  0  0
  -27.2163  -28.6238   20.7026 C   0  0  0  0  0  0
  -26.0290  -26.8992   19.4830 C   0  0  0  0  0  0
  -24.8640  -27.6868   19.4870 C   0  0  0  0  0  0
  -23.6310  -29.8209   20.1612 C   0  0  0  0  0  0
  -25.4117  -36.3077   24.0337 C   0  0  1  0  0  0
  -20.5887  -28.3668   23.1284 C   0  0  2  0  0  0
  -20.6772  -26.9394   22.5408 C   0  0  0  0  0  0
  -19.5750  -26.6369   21.5208 C   0  0  0  0  0  0
  -18.1929  -26.7908   22.1618 C   0  0  0  0  0  0
  -19.1540  -28.8832   23.2874 C   0  0  0  0  0  0
  -18.9468  -30.1436   23.8887 C   0  0  0  0  0  0
  -17.6469  -30.6571   24.0552 C   0  0  0  0  0  0
  -25.9055  -34.9450   23.5104 C   0  0  0  0  0  0
  -16.5356  -29.9074   23.6329 C   0  0  0  0  0  0
  -16.7274  -28.6492   23.0343 C   0  0  0  0  0  0
  -26.4494  -31.6585   25.0718 C   0  0  0  0  0  0
  -25.3732  -31.3726   26.1451 C   0  0  0  0  0  0
  -27.0335  -30.3015   24.6153 C   0  0  0  0  0  0
  -27.6049  -32.4324   25.7491 C   0  0  0  0  0  0
  -27.5577  -37.1800   24.8466 C   0  0  0  0  0  0
  -21.4184  -29.3035   22.3684 N   0  0  0  0  0  0
  -26.4288  -37.3770   23.9413 N   0  0  0  0  0  0
  -24.6868  -31.0618   22.0970 N   0  0  0  0  0  0
  -23.4204  -28.8155   23.2998 O   0  0  0  0  0  0
  -28.3467  -26.4786   20.1567 O   0  0  0  0  0  0
  -26.5612  -34.8921   22.4664 O   0  0  0  0  0  0
  -23.5424  -32.1403   23.7363 O   0  0  0  0  0  0
  -30.6043  -19.1974   19.7451 C   0  0  0  0  0  0
  -30.6165  -17.7803   19.8627 C   0  0  0  0  0  0
  -29.2947  -19.3870   21.7667 C   0  0  0  0  0  0
  -29.2821  -17.9452   21.8780 C   0  0  0  0  0  0
  -29.9398  -20.0416   20.6715 C   0  0  0  0  0  0
  -29.9526  -17.1123   20.9212 C   0  0  0  0  0  0
  -28.6380  -20.2582   22.8393 C   0  0  0  0  0  0
  -27.0219  -17.3364   22.9071 C   0  0  0  0  0  0
  -31.3015  -21.9413   21.2032 C   0  0  0  0  0  0
  -28.5485  -17.2744   23.0483 C   0  0  0  0  0  0
  -29.2925  -24.0009   20.3650 C   0  0  0  0  0  0
  -28.9480  -22.4350   20.3591 C   0  0  0  0  0  0
  -28.1190  -25.0196   20.0355 C   0  0  0  0  0  0
  -29.8583  -15.6509   21.0041 N   0  0  0  0  0  0
  -30.0846  -21.4703   20.5450 N   0  0  0  0  0  0
  -31.4807  -12.5092   19.1555 H   0  0  0  0  0  0
  -30.3682  -11.3885   19.8884 H   0  0  0  0  0  0
  -29.7725  -11.7677   17.4763 H   0  0  0  0  0  0
  -29.6545  -13.4869   17.7533 H   0  0  0  0  0  0
  -27.8638  -11.2996   18.8566 H   0  0  0  0  0  0
  -27.3791  -12.5947   17.7941 H   0  0  0  0  0  0
  -27.6802  -14.2559   19.5403 H   0  0  0  0  0  0
  -28.7081  -12.0310   21.3691 H   0  0  0  0  0  0
  -28.4398  -13.6760   21.8590 H   0  0  0  0  0  0
  -25.2782   -9.5656   22.4771 H   0  0  0  0  0  0
  -24.0005   -7.4619   22.7482 H   0  0  0  0  0  0
  -21.0857   -8.8785   19.8957 H   0  0  0  0  0  0
  -22.3736  -10.9672   19.6172 H   0  0  0  0  0  0
  -21.2003   -7.6154   23.9724 H   0  0  0  0  0  0
  -21.1475   -6.0527   25.9082 H   0  0  0  0  0  0
  -22.0600   -2.7618   23.2849 H   0  0  0  0  0  0
  -22.4135  -11.9870   22.4783 H   0  0  0  0  0  0
  -21.1132  -13.1234   22.2635 H   0  0  0  0  0  0
  -24.6412  -15.8293   20.4731 H   0  0  0  0  0  0
  -26.2613  -15.6232   20.0413 H   0  0  0  0  0  0
  -26.7172  -32.5438   23.1092 H   0  0  0  0  0  0
  -25.0116  -33.9724   25.0446 H   0  0  0  0  0  0
  -22.7110  -31.3044   21.4040 H   0  0  0  0  0  0
  -23.3755  -35.9624   23.3303 H   0  0  0  0  0  0
  -24.3591  -36.8906   22.2053 H   0  0  0  0  0  0
  -23.7258  -37.6501   23.6660 H   0  0  0  0  0  0
  -26.0921  -31.5556   20.6059 H   0  0  0  0  0  0
  -26.8401  -30.8373   22.0032 H   0  0  0  0  0  0
  -28.1115  -28.9871   21.1862 H   0  0  0  0  0  0
  -25.9603  -25.9421   18.9887 H   0  0  0  0  0  0
  -23.9681  -27.3145   19.0098 H   0  0  0  0  0  0
  -23.7457  -30.5979   19.4043 H   0  0  0  0  0  0
  -22.7515  -29.2491   19.8606 H   0  0  0  0  0  0
  -25.1292  -36.1928   25.0827 H   0  0  0  0  0  0
  -20.9973  -28.3230   24.1407 H   0  0  0  0  0  0
  -20.5660  -26.2276   23.3599 H   0  0  0  0  0  0
  -21.6638  -26.7410   22.1205 H   0  0  0  0  0  0
  -19.6914  -25.6283   21.1231 H   0  0  0  0  0  0
  -19.6693  -27.3175   20.6736 H   0  0  0  0  0  0
  -17.4198  -26.6661   21.4019 H   0  0  0  0  0  0
  -18.0324  -26.0036   22.9000 H   0  0  0  0  0  0
  -19.7943  -30.7249   24.2246 H   0  0  0  0  0  0
  -17.5027  -31.6252   24.5150 H   0  0  0  0  0  0
  -15.5356  -30.2970   23.7657 H   0  0  0  0  0  0
  -15.8672  -28.0809   22.7064 H   0  0  0  0  0  0
  -24.5907  -30.7072   25.7787 H   0  0  0  0  0  0
  -24.8927  -32.2895   26.4871 H   0  0  0  0  0  0
  -25.8060  -30.8910   27.0230 H   0  0  0  0  0  0
  -26.2898  -29.6774   24.1181 H   0  0  0  0  0  0
  -27.4055  -29.7258   25.4638 H   0  0  0  0  0  0
  -27.8756  -30.4316   23.9355 H   0  0  0  0  0  0
  -27.2653  -33.3630   26.2057 H   0  0  0  0  0  0
  -28.3864  -32.6882   25.0323 H   0  0  0  0  0  0
  -28.0712  -31.8462   26.5422 H   0  0  0  0  0  0
  -28.2586  -38.0102   24.7500 H   0  0  0  0  0  0
  -28.1083  -36.2631   24.6300 H   0  0  0  0  0  0
  -27.2299  -37.1450   25.8870 H   0  0  0  0  0  0
  -20.9348  -29.8791   21.6930 H   0  0  0  0  0  0
  -26.0174  -38.2847   24.1402 H   0  0  0  0  0  0
  -31.1390  -19.6451   18.9200 H   0  0  0  0  0  0
  -31.1364  -17.2081   19.1073 H   0  0  0  0  0  0
  -27.6273  -20.5277   22.5357 H   0  0  0  0  0  0
  -29.1978  -21.1787   23.0007 H   0  0  0  0  0  0
  -28.5777  -19.7916   23.8180 H   0  0  0  0  0  0
  -26.5306  -16.7939   23.7156 H   0  0  0  0  0  0
  -26.7028  -16.8915   21.9672 H   0  0  0  0  0  0
  -26.6496  -18.3596   22.9272 H   0  0  0  0  0  0
  -32.0317  -21.1420   21.3459 H   0  0  0  0  0  0
  -31.0746  -22.3618   22.1840 H   0  0  0  0  0  0
  -31.7834  -22.7176   20.6083 H   0  0  0  0  0  0
  -28.8623  -17.7142   23.9933 H   0  0  0  0  0  0
  -28.8393  -16.2317   23.1639 H   0  0  0  0  0  0
  -30.0996  -24.1887   19.6575 H   0  0  0  0  0  0
  -29.6875  -24.2638   21.3462 H   0  0  0  0  0  0
  -28.4859  -22.1928   19.4001 H   0  0  0  0  0  0
  -28.1791  -22.2445   21.1061 H   0  0  0  0  0  0
  -27.2767  -24.7560   20.6771 H   0  0  0  0  0  0
  -27.8076  -24.8103   19.0117 H   0  0  0  0  0  0
  -29.0164  -15.3163   21.4465 H   0  0  0  0  0  0
  1 25  1  0  0  0
  1 30  2  0  0  0
  1 84  1  0  0  0
  2  3  1  0  0  0
  2 25  1  0  0  0
  2 86  1  0  0  0
  2 87  1  0  0  0
  3  4  1  0  0  0
  3 88  1  0  0  0
  3 89  1  0  0  0
  4  5  1  0  0  0
  4 90  1  0  0  0
  4 91  1  0  0  0
  5  6  1  0  0  0
  5 26  1  0  0  0
  5 92  1  0  0  0
  6 25  1  0  0  0
  6 93  1  0  0  0
  6 94  1  0  0  0
  7  8  2  0  0  0
  7 26  1  0  0  0
  7 29  1  0  0  0
  8  9  1  0  0  0
  8 22  1  0  0  0
  9 10  1  0  0  0
  9 27  2  0  0  0
 10 11  2  0  0  0
 10 15  1  0  0  0
 11 12  1  0  0  0
 11 95  1  0  0  0
 12 13  2  0  0  0
 12 96  1  0  0  0
 13 14  1  0  0  0
 13 31  1  0  0  0
 14 15  2  0  0  0
 14 97  1  0  0  0
 15 98  1  0  0  0
 16 17  2  0  0  0
 16 21  1  0  0  0
 16 31  1  0  0  0
 17 18  1  0  0  0
 17 99  1  0  0  0
 18 19  2  0  0  0
 18100  1  0  0  0
 19 20  1  0  0  0
 19 24  1  0  0  0
 20 21  2  0  0  0
 20101  1  0  0  0
 21 23  1  0  0  0
 22 28  1  0  0  0
 22 32  2  0  0  0
 26 27  1  0  0  0
 28102  1  0  0  0
 28103  1  0  0  0
 29104  1  0  0  0
 29105  1  0  0  0
 33 34  1  0  0  0
 33 66  1  0  0  0
 33 70  2  0  0  0
 34 36  1  0  0  0
 34 59  1  0  0  0
 34106  1  0  0  0
 35 44  2  0  0  0
 35 45  1  0  0  0
 35 68  1  0  0  0
 36 56  1  0  0  0
 36107  1  0  0  0
 37 39  1  0  0  0
 37 47  1  0  0  0
 37 66  1  0  0  0
 37108  1  0  0  0
 38 43  2  0  0  0
 38 46  1  0  0  0
 38 47  1  0  0  0
 39 64  1  0  0  0
 39 67  2  0  0  0
 40 52  1  0  0  0
 40 53  2  0  0  0
 40 58  1  0  0  0
 41109  1  0  0  0
 41110  1  0  0  0
 41111  1  0  0  0
 41 48  1  0  0  0
 42 43  1  0  0  0
 42 66  1  0  0  0
 42112  1  0  0  0
 42113  1  0  0  0
 43 44  1  0  0  0
 44114  1  0  0  0
 45 46  2  0  0  0
 45115  1  0  0  0
 46116  1  0  0  0
 47117  1  0  0  0
 47118  1  0  0  0
 48 56  1  0  0  0
 48 65  1  0  0  0
 48119  1  0  0  0
 49 50  1  0  0  0
 49 53  1  0  0  0
 49 64  1  0  0  0
 49120  1  0  0  0
 50 51  1  0  0  0
 50121  1  0  0  0
 50122  1  0  0  0
 51 52  1  0  0  0
 51123  1  0  0  0
 51124  1  0  0  0
 52125  1  0  0  0
 52126  1  0  0  0
 53 54  1  0  0  0
 54 55  2  0  0  0
 54127  1  0  0  0
 55 57  1  0  0  0
 55128  1  0  0  0
 56 69  2  0  0  0
 57 58  2  0  0  0
 57129  1  0  0  0
 58130  1  0  0  0
 59 60  1  0  0  0
 59 61  1  0  0  0
 59 62  1  0  0  0
 60131  1  0  0  0
 60132  1  0  0  0
 60133  1  0  0  0
 61134  1  0  0  0
 61135  1  0  0  0
 61136  1  0  0  0
 62137  1  0  0  0
 62138  1  0  0  0
 62139  1  0  0  0
 63 65  1  0  0  0
 63140  1  0  0  0
 63141  1  0  0  0
 63142  1  0  0  0
 64143  1  0  0  0
 65144  1  0  0  0
 68 83  1  0  0  0
 71 72  2  0  0  0
 71 75  1  0  0  0
 71145  1  0  0  0
 72 76  1  0  0  0
 72146  1  0  0  0
 73 74  1  0  0  0
 73 75  2  0  0  0
 73 77  1  0  0  0
 74 76  2  0  0  0
 74 80  1  0  0  0
 75 85  1  0  0  0
 76 84  1  0  0  0
 77147  1  0  0  0
 77148  1  0  0  0
 77149  1  0  0  0
 78 80  1  0  0  0
 78150  1  0  0  0
 78151  1  0  0  0
 78152  1  0  0  0
 79 85  1  0  0  0
 79153  1  0  0  0
 79154  1  0  0  0
 79155  1  0  0  0
 80156  1  0  0  0
 80157  1  0  0  0
 81 82  1  0  0  0
 81 83  1  0  0  0
 81158  1  0  0  0
 81159  1  0  0  0
 82 85  1  0  0  0
 82160  1  0  0  0
 82161  1  0  0  0
 83162  1  0  0  0
 83163  1  0  0  0
 84164  1  0  0  0
M  ISO  4   1 100  68 101  83 101  84 100
M  END
> <chiral flag>
0

> <version>
0

> <s_m_source_file>
/data/baiqing/PycharmProjects/Reinvent-master-3.2/result/LINK_invent/BTK/process_docking_weight1_custom_product_contain_oxygen_bond_distance_aromatic_linkinvent_7_9_3/rearranged_h_0021.sdf

> <i_m_source_file_index>
63

> <r_mmod_Potential_Energy-OPLS-2005>
49.4701728820801

> <r_mmod_Stretch_Energy-OPLS-2005>
84.7407989501953

> <r_mmod_Bend_Energy-OPLS-2005>
142.181518554688

> <r_mmod_Torsional_Energy-OPLS-2005>
243.81282043457

> <r_mmod_Improper_Torsional_Energy-OPLS-2005>
5.42721462249756

> <r_mmod_Van_der_Waal_Energy-OPLS-2005>
155.563415527344

> <r_mmod_Electrostatic_Energy-OPLS-2005>
-412.298614501953

> <r_mmod_Solvation_Energy-OPLS-2005>
-214.561798095703

> <b_mmod_Minimization_Converged-OPLS-2005>
0

> <r_mmod_RMS_Derivative-OPLS-2005>
1.30514299869537

$$$$
63
                    3D
 Structure written by MMmdl.
154162  0  0  1  0            999 V2000
  -30.6179  -14.6523   20.4798 C   0  0  0  0  0  0
  -30.4374  -12.3976   19.4499 C   0  0  0  0  0  0
  -29.5158  -12.5283   18.2186 C   0  0  0  0  0  0
  -28.0300  -12.3863   18.6145 C   0  0  0  0  0  0
  -27.6528  -13.2285   19.8652 C   0  0  2  0  0  0
  -28.7006  -13.0787   20.9919 C   0  0  0  0  0  0
  -25.2535  -13.8193   20.5699 C   0  0  0  0  0  0
  -24.1827  -13.0421   20.9222 C   0  0  0  0  0  0
  -24.6411  -11.6908   20.8727 C   0  0  0  0  0  0
  -23.9086  -10.4276   21.0389 C   0  0  0  0  0  0
  -24.3627   -9.4203   21.9184 C   0  0  0  0  0  0
  -23.6292   -8.2244   22.0770 C   0  0  0  0  0  0
  -22.4272   -8.0278   21.3566 C   0  0  0  0  0  0
  -21.9907   -9.0245   20.4670 C   0  0  0  0  0  0
  -22.7238  -10.2122   20.3056 C   0  0  0  0  0  0
  -21.6850   -6.0745   22.5286 C   0  0  0  0  0  0
  -21.4011   -6.5644   23.8219 C   0  0  0  0  0  0
  -21.3661   -5.6791   24.9174 C   0  0  0  0  0  0
  -21.6056   -4.3057   24.7219 C   0  0  0  0  0  0
  -21.8808   -3.8161   23.4327 C   0  0  0  0  0  0
  -21.9187   -4.6979   22.3394 C   0  0  0  0  0  0
  -22.7834  -13.5208   21.1890 C   0  0  0  0  0  0
  -22.1662   -4.2177   21.0964 F   0  0  0  0  0  0
  -21.5636   -3.4525   25.7726 F   0  0  0  0  0  0
  -30.0139  -13.4232   20.4234 N   0  0  0  0  0  0
  -26.2984  -12.9398   20.3290 N   0  0  0  0  0  0
  -25.9343  -11.6542   20.5715 N   0  0  0  0  0  0
  -22.0465  -12.8192   22.0451 N   0  0  0  0  0  0
  -25.4113  -15.1922   20.4097 N   0  0  0  0  0  0
  -31.7922  -14.7992   20.1265 O   0  0  0  0  0  0
  -21.6638   -6.8872   21.4249 O   0  0  0  0  0  0
  -22.3501  -14.5500   20.6730 O   0  0  0  0  0  0
  -24.6262  -31.8587   23.2056 C   0  0  0  0  0  0
  -25.9137  -32.4763   23.8342 C   0  0  1  0  0  0
  -27.2324  -27.3335   20.1167 C   0  0  0  0  0  0
  -25.5983  -33.8567   24.2289 N   0  0  0  0  0  0
  -23.4187  -30.4859   21.5463 C   0  0  2  0  0  0
  -24.8685  -28.9516   20.1097 C   0  0  0  0  0  0
  -22.7465  -29.4626   22.4927 C   0  0  0  0  0  0
  -18.0289  -28.1384   22.8488 C   0  0  0  0  0  0
  -24.1510  -36.7264   23.2636 C   0  0  0  0  0  0
  -25.9583  -30.8032   21.3706 C   0  0  0  0  0  0
  -26.0370  -29.4328   20.7099 C   0  0  0  0  0  0
  -27.2199  -28.6363   20.7037 C   0  0  0  0  0  0
  -26.0378  -26.9122   19.4823 C   0  0  0  0  0  0
  -24.8707  -27.6971   19.4848 C   0  0  0  0  0  0
  -23.6331  -29.8248   20.1602 C   0  0  0  0  0  0
  -25.4128  -36.3064   24.0332 C   0  0  1  0  0  0
  -20.5892  -28.3690   23.1295 C   0  0  2  0  0  0
  -20.6788  -26.9412   22.5436 C   0  0  0  0  0  0
  -19.5751  -26.6386   21.5238 C   0  0  0  0  0  0
  -18.1929  -26.7937   22.1618 C   0  0  0  0  0  0
  -19.1539  -28.8851   23.2889 C   0  0  0  0  0  0
  -18.9459  -30.1458   23.8895 C   0  0  0  0  0  0
  -17.6458  -30.6587   24.0560 C   0  0  0  0  0  0
  -25.9070  -34.9447   23.5099 C   0  0  0  0  0  0
  -16.5347  -29.9075   23.6341 C   0  0  0  0  0  0
  -16.7278  -28.6502   23.0352 C   0  0  0  0  0  0
  -26.4547  -31.6535   25.0678 C   0  0  0  0  0  0
  -25.3788  -31.3631   26.1391 C   0  0  0  0  0  0
  -27.0399  -30.2963   24.6099 C   0  0  0  0  0  0
  -27.6118  -32.4245   25.7444 C   0  0  0  0  0  0
  -27.5579  -37.1778   24.8452 C   0  0  0  0  0  0
  -21.4181  -29.3033   22.3666 N   0  0  0  0  0  0
  -26.4278  -37.3774   23.9425 N   0  0  0  0  0  0
  -24.6857  -31.0643   22.0977 N   0  0  0  0  0  0
  -23.4191  -28.8153   23.3002 O   0  0  0  0  0  0
  -28.3560  -26.4889   20.1862 O   0  0  0  0  0  0
  -26.5589  -34.8912   22.4631 O   0  0  0  0  0  0
  -23.5443  -32.1357   23.7430 O   0  0  0  0  0  0
  -28.9054  -19.4369   20.9429 C   0  0  0  0  0  0
  -28.8459  -18.0099   21.0145 C   0  0  0  0  0  0
  -31.0802  -17.8518   20.1419 C   0  0  0  0  0  0
  -30.0613  -20.1142   20.4796 C   0  0  0  0  0  0
  -29.9339  -17.1721   20.6352 C   0  0  0  0  0  0
  -31.1402  -19.2762   20.0688 C   0  0  0  0  0  0
  -29.2200  -24.0246   20.4449 C   0  0  0  0  0  0
  -28.3645  -22.2489   18.9583 C   0  0  0  0  0  0
  -30.2369  -21.6837   20.5556 C   0  0  0  0  0  0
  -28.1812  -25.0557   19.8406 C   0  0  0  0  0  0
  -29.7922  -15.7133   20.7588 N   0  0  0  0  0  0
  -29.2212  -22.6906   20.0605 N   0  0  0  0  0  0
  -30.0208  -24.4420   21.2866 O   0  0  0  0  0  0
  -32.2815  -19.8422   19.6063 F   0  0  0  0  0  0
  -31.4815  -12.5164   19.1563 H   0  0  0  0  0  0
  -30.3597  -11.4004   19.8859 H   0  0  0  0  0  0
  -29.7824  -11.7852   17.4664 H   0  0  0  0  0  0
  -29.6770  -13.4996   17.7479 H   0  0  0  0  0  0
  -27.8302  -11.3300   18.7945 H   0  0  0  0  0  0
  -27.3963  -12.6738   17.7738 H   0  0  0  0  0  0
  -27.6664  -14.2714   19.5474 H   0  0  0  0  0  0
  -28.7163  -12.0579   21.3786 H   0  0  0  0  0  0
  -28.4545  -13.7161   21.8445 H   0  0  0  0  0  0
  -25.2764   -9.5686   22.4775 H   0  0  0  0  0  0
  -24.0001   -7.4641   22.7487 H   0  0  0  0  0  0
  -21.0836   -8.8731   19.8996 H   0  0  0  0  0  0
  -22.3665  -10.9646   19.6164 H   0  0  0  0  0  0
  -21.2002   -7.6157   23.9709 H   0  0  0  0  0  0
  -21.1514   -6.0544   25.9071 H   0  0  0  0  0  0
  -22.0597   -2.7633   23.2819 H   0  0  0  0  0  0
  -22.4030  -11.9810   22.4798 H   0  0  0  0  0  0
  -21.1096  -13.1257   22.2673 H   0  0  0  0  0  0
  -24.6259  -15.8222   20.5289 H   0  0  0  0  0  0
  -26.2039  -15.6395   19.9669 H   0  0  0  0  0  0
  -26.7184  -32.5453   23.1072 H   0  0  0  0  0  0
  -25.0254  -33.9711   25.0518 H   0  0  0  0  0  0
  -22.7117  -31.3061   21.4046 H   0  0  0  0  0  0
  -23.3812  -35.9557   23.3247 H   0  0  0  0  0  0
  -24.3628  -36.8925   22.2062 H   0  0  0  0  0  0
  -23.7212  -37.6433   23.6675 H   0  0  0  0  0  0
  -26.0868  -31.5770   20.6122 H   0  0  0  0  0  0
  -26.8395  -30.8462   21.9996 H   0  0  0  0  0  0
  -28.1178  -29.0100   21.1763 H   0  0  0  0  0  0
  -25.9648  -25.9595   18.9819 H   0  0  0  0  0  0
  -23.9756  -27.3273   19.0050 H   0  0  0  0  0  0
  -23.7413  -30.6003   19.4002 H   0  0  0  0  0  0
  -22.7555  -29.2462   19.8662 H   0  0  0  0  0  0
  -25.1313  -36.1898   25.0820 H   0  0  0  0  0  0
  -20.9979  -28.3275   24.1421 H   0  0  0  0  0  0
  -20.5751  -26.2278   23.3636 H   0  0  0  0  0  0
  -21.6645  -26.7483   22.1182 H   0  0  0  0  0  0
  -19.6927  -25.6309   21.1239 H   0  0  0  0  0  0
  -19.6698  -27.3226   20.6794 H   0  0  0  0  0  0
  -17.4220  -26.6736   21.3983 H   0  0  0  0  0  0
  -18.0272  -26.0061   22.8987 H   0  0  0  0  0  0
  -19.7936  -30.7285   24.2245 H   0  0  0  0  0  0
  -17.5012  -31.6280   24.5145 H   0  0  0  0  0  0
  -15.5349  -30.2969   23.7686 H   0  0  0  0  0  0
  -15.8676  -28.0834   22.7045 H   0  0  0  0  0  0
  -24.6097  -30.6810   25.7727 H   0  0  0  0  0  0
  -24.8840  -32.2767   26.4681 H   0  0  0  0  0  0
  -25.8165  -30.8947   27.0212 H   0  0  0  0  0  0
  -26.2962  -29.6656   24.1209 H   0  0  0  0  0  0
  -27.4205  -29.7244   25.4569 H   0  0  0  0  0  0
  -27.8770  -30.4242   23.9240 H   0  0  0  0  0  0
  -27.2780  -33.3607   26.1913 H   0  0  0  0  0  0
  -28.3999  -32.6658   25.0302 H   0  0  0  0  0  0
  -28.0675  -31.8392   26.5433 H   0  0  0  0  0  0
  -28.2544  -38.0133   24.7618 H   0  0  0  0  0  0
  -28.1137  -36.2674   24.6156 H   0  0  0  0  0  0
  -27.2299  -37.1256   25.8849 H   0  0  0  0  0  0
  -20.9345  -29.8711   21.6846 H   0  0  0  0  0  0
  -26.0154  -38.2824   24.1506 H   0  0  0  0  0  0
  -28.0601  -20.0243   21.2762 H   0  0  0  0  0  0
  -27.9381  -17.5594   21.3920 H   0  0  0  0  0  0
  -31.9477  -17.2931   19.8260 H   0  0  0  0  0  0
  -28.6768  -22.7186   18.0236 H   0  0  0  0  0  0
  -27.3248  -22.5159   19.1460 H   0  0  0  0  0  0
  -28.3923  -21.1743   18.7926 H   0  0  0  0  0  0
  -31.1658  -21.9349   20.0433 H   0  0  0  0  0  0
  -30.4305  -21.8926   21.6094 H   0  0  0  0  0  0
  -27.2122  -24.6991   20.1891 H   0  0  0  0  0  0
  -28.1966  -24.9777   18.7536 H   0  0  0  0  0  0
  -28.8657  -15.4113   21.0218 H   0  0  0  0  0  0
  1 25  1  0  0  0
  1 30  2  0  0  0
  1 81  1  0  0  0
  2  3  1  0  0  0
  2 25  1  0  0  0
  2 85  1  0  0  0
  2 86  1  0  0  0
  3  4  1  0  0  0
  3 87  1  0  0  0
  3 88  1  0  0  0
  4  5  1  0  0  0
  4 89  1  0  0  0
  4 90  1  0  0  0
  5  6  1  0  0  0
  5 26  1  0  0  0
  5 91  1  0  0  0
  6 25  1  0  0  0
  6 92  1  0  0  0
  6 93  1  0  0  0
  7  8  2  0  0  0
  7 26  1  0  0  0
  7 29  1  0  0  0
  8  9  1  0  0  0
  8 22  1  0  0  0
  9 10  1  0  0  0
  9 27  2  0  0  0
 10 11  2  0  0  0
 10 15  1  0  0  0
 11 12  1  0  0  0
 11 94  1  0  0  0
 12 13  2  0  0  0
 12 95  1  0  0  0
 13 14  1  0  0  0
 13 31  1  0  0  0
 14 15  2  0  0  0
 14 96  1  0  0  0
 15 97  1  0  0  0
 16 17  2  0  0  0
 16 21  1  0  0  0
 16 31  1  0  0  0
 17 18  1  0  0  0
 17 98  1  0  0  0
 18 19  2  0  0  0
 18 99  1  0  0  0
 19 20  1  0  0  0
 19 24  1  0  0  0
 20 21  2  0  0  0
 20100  1  0  0  0
 21 23  1  0  0  0
 22 28  1  0  0  0
 22 32  2  0  0  0
 26 27  1  0  0  0
 28101  1  0  0  0
 28102  1  0  0  0
 29103  1  0  0  0
 29104  1  0  0  0
 33 34  1  0  0  0
 33 66  1  0  0  0
 33 70  2  0  0  0
 34 36  1  0  0  0
 34 59  1  0  0  0
 34105  1  0  0  0
 35 44  2  0  0  0
 35 45  1  0  0  0
 35 68  1  0  0  0
 36 56  1  0  0  0
 36106  1  0  0  0
 37 39  1  0  0  0
 37 47  1  0  0  0
 37 66  1  0  0  0
 37107  1  0  0  0
 38 43  2  0  0  0
 38 46  1  0  0  0
 38 47  1  0  0  0
 39 64  1  0  0  0
 39 67  2  0  0  0
 40 52  1  0  0  0
 40 53  2  0  0  0
 40 58  1  0  0  0
 41108  1  0  0  0
 41109  1  0  0  0
 41110  1  0  0  0
 41 48  1  0  0  0
 42 43  1  0  0  0
 42 66  1  0  0  0
 42111  1  0  0  0
 42112  1  0  0  0
 43 44  1  0  0  0
 44113  1  0  0  0
 45 46  2  0  0  0
 45114  1  0  0  0
 46115  1  0  0  0
 47116  1  0  0  0
 47117  1  0  0  0
 48 56  1  0  0  0
 48 65  1  0  0  0
 48118  1  0  0  0
 49 50  1  0  0  0
 49 53  1  0  0  0
 49 64  1  0  0  0
 49119  1  0  0  0
 50 51  1  0  0  0
 50120  1  0  0  0
 50121  1  0  0  0
 51 52  1  0  0  0
 51122  1  0  0  0
 51123  1  0  0  0
 52124  1  0  0  0
 52125  1  0  0  0
 53 54  1  0  0  0
 54 55  2  0  0  0
 54126  1  0  0  0
 55 57  1  0  0  0
 55127  1  0  0  0
 56 69  2  0  0  0
 57 58  2  0  0  0
 57128  1  0  0  0
 58129  1  0  0  0
 59 60  1  0  0  0
 59 61  1  0  0  0
 59 62  1  0  0  0
 60130  1  0  0  0
 60131  1  0  0  0
 60132  1  0  0  0
 61133  1  0  0  0
 61134  1  0  0  0
 61135  1  0  0  0
 62136  1  0  0  0
 62137  1  0  0  0
 62138  1  0  0  0
 63 65  1  0  0  0
 63139  1  0  0  0
 63140  1  0  0  0
 63141  1  0  0  0
 64142  1  0  0  0
 65143  1  0  0  0
 68 80  1  0  0  0
 71 72  2  0  0  0
 71 74  1  0  0  0
 71144  1  0  0  0
 72 75  1  0  0  0
 72145  1  0  0  0
 73 75  2  0  0  0
 73 76  1  0  0  0
 73146  1  0  0  0
 74 76  2  0  0  0
 74 79  1  0  0  0
 75 81  1  0  0  0
 76 84  1  0  0  0
 77 80  1  0  0  0
 77 82  1  0  0  0
 77 83  2  0  0  0
 78 82  1  0  0  0
 78147  1  0  0  0
 78148  1  0  0  0
 78149  1  0  0  0
 79 82  1  0  0  0
 79150  1  0  0  0
 79151  1  0  0  0
 80152  1  0  0  0
 80153  1  0  0  0
 81154  1  0  0  0
M  ISO  4   1 100  68 101  80 101  81 100
M  END
> <chiral flag>
0

> <version>
0

> <s_m_source_file>
/data/baiqing/PycharmProjects/Reinvent-master-3.2/result/LINK_invent/BTK/process_docking_weight1_custom_product_contain_oxygen_bond_distance_aromatic_linkinvent_7_9_3/rearranged_h_0021.sdf

> <i_m_source_file_index>
64

> <r_mmod_Potential_Energy-OPLS-2005>
91.5552597045898

> <r_mmod_Stretch_Energy-OPLS-2005>
86.0524749755859

> <r_mmod_Bend_Energy-OPLS-2005>
144.418182373047

> <r_mmod_Torsional_Energy-OPLS-2005>
223.218185424805

> <r_mmod_Improper_Torsional_Energy-OPLS-2005>
5.78272294998169

> <r_mmod_Van_der_Waal_Energy-OPLS-2005>
154.181411743164

> <r_mmod_Electrostatic_Energy-OPLS-2005>
-329.850646972656

> <r_mmod_Solvation_Energy-OPLS-2005>
-240.583358764648

> <b_mmod_Minimization_Converged-OPLS-2005>
0

> <r_mmod_RMS_Derivative-OPLS-2005>
3.8045711517334

$$$$
64
                    3D
 Structure written by MMmdl.
156165  0  0  1  0            999 V2000
  -30.4901  -14.9457   20.4234 C   0  0  0  0  0  0
  -30.4490  -12.5820   19.5019 C   0  0  0  0  0  0
  -29.5261  -12.5369   18.2596 C   0  0  0  0  0  0
  -28.0562  -12.3216   18.6717 C   0  0  0  0  0  0
  -27.6346  -13.2426   19.8477 C   0  0  2  0  0  0
  -28.6750  -13.2332   20.9886 C   0  0  0  0  0  0
  -25.2467  -13.8202   20.5700 C   0  0  0  0  0  0
  -24.1775  -13.0433   20.9220 C   0  0  0  0  0  0
  -24.6391  -11.6918   20.8761 C   0  0  0  0  0  0
  -23.9084  -10.4288   21.0422 C   0  0  0  0  0  0
  -24.3634   -9.4204   21.9202 C   0  0  0  0  0  0
  -23.6297   -8.2241   22.0761 C   0  0  0  0  0  0
  -22.4282   -8.0282   21.3545 C   0  0  0  0  0  0
  -21.9934   -9.0258   20.4648 C   0  0  0  0  0  0
  -22.7262  -10.2133   20.3063 C   0  0  0  0  0  0
  -21.6848   -6.0751   22.5281 C   0  0  0  0  0  0
  -21.4013   -6.5651   23.8217 C   0  0  0  0  0  0
  -21.3648   -5.6801   24.9174 C   0  0  0  0  0  0
  -21.6040   -4.3064   24.7222 C   0  0  0  0  0  0
  -21.8818   -3.8162   23.4345 C   0  0  0  0  0  0
  -21.9190   -4.6981   22.3403 C   0  0  0  0  0  0
  -22.7795  -13.5213   21.1876 C   0  0  0  0  0  0
  -22.1655   -4.2171   21.0980 F   0  0  0  0  0  0
  -21.5626   -3.4549   25.7735 F   0  0  0  0  0  0
  -29.9543  -13.6598   20.4052 N   0  0  0  0  0  0
  -26.2901  -12.9428   20.3272 N   0  0  0  0  0  0
  -25.9331  -11.6564   20.5770 N   0  0  0  0  0  0
  -22.0435  -12.8201   22.0423 N   0  0  0  0  0  0
  -25.4136  -15.1933   20.4129 N   0  0  0  0  0  0
  -31.6738  -15.0756   20.0892 O   0  0  0  0  0  0
  -21.6632   -6.8891   21.4241 O   0  0  0  0  0  0
  -22.3484  -14.5517   20.6714 O   0  0  0  0  0  0
  -24.6425  -31.8430   23.1859 C   0  0  0  0  0  0
  -25.9205  -32.4693   23.8244 C   0  0  1  0  0  0
  -27.2232  -27.1324   20.1500 C   0  0  0  0  0  0
  -25.5950  -33.8491   24.2164 N   0  0  0  0  0  0
  -23.4443  -30.4612   21.5314 C   0  0  2  0  0  0
  -24.8934  -28.8784   20.1097 C   0  0  0  0  0  0
  -22.7545  -29.4548   22.4869 C   0  0  0  0  0  0
  -18.0296  -28.1393   22.8467 C   0  0  0  0  0  0
  -24.1479  -36.7220   23.2647 C   0  0  0  0  0  0
  -25.9980  -30.7147   21.3825 C   0  0  0  0  0  0
  -26.0671  -29.3241   20.7261 C   0  0  0  0  0  0
  -27.2278  -28.4658   20.7284 C   0  0  0  0  0  0
  -26.0226  -26.7817   19.5006 C   0  0  0  0  0  0
  -24.8832  -27.6201   19.4839 C   0  0  0  0  0  0
  -23.6699  -29.7821   20.1529 C   0  0  0  0  0  0
  -25.4117  -36.3015   24.0316 C   0  0  1  0  0  0
  -20.5899  -28.3715   23.1246 C   0  0  2  0  0  0
  -20.6784  -26.9425   22.5400 C   0  0  0  0  0  0
  -19.5760  -26.6377   21.5211 C   0  0  0  0  0  0
  -18.1933  -26.7931   22.1608 C   0  0  0  0  0  0
  -19.1549  -28.8868   23.2842 C   0  0  0  0  0  0
  -18.9483  -30.1469   23.8874 C   0  0  0  0  0  0
  -17.6492  -30.6597   24.0562 C   0  0  0  0  0  0
  -25.9080  -34.9407   23.5051 C   0  0  0  0  0  0
  -16.5373  -29.9092   23.6351 C   0  0  0  0  0  0
  -16.7279  -28.6514   23.0369 C   0  0  0  0  0  0
  -26.4526  -31.6575   25.0696 C   0  0  0  0  0  0
  -25.3701  -31.3745   26.1379 C   0  0  0  0  0  0
  -27.0435  -30.2998   24.6265 C   0  0  0  0  0  0
  -27.6037  -32.4364   25.7494 C   0  0  0  0  0  0
  -27.5556  -37.1761   24.8466 C   0  0  0  0  0  0
  -21.4236  -29.3045   22.3618 N   0  0  0  0  0  0
  -26.4259  -37.3751   23.9431 N   0  0  0  0  0  0
  -24.7148  -31.0283   22.0889 N   0  0  0  0  0  0
  -23.4193  -28.8110   23.3026 O   0  0  0  0  0  0
  -28.3303  -26.2147   20.2397 O   0  0  0  0  0  0
  -26.5665  -34.8921   22.4634 O   0  0  0  0  0  0
  -23.5552  -32.1301   23.7096 O   0  0  0  0  0  0
  -30.3726  -18.4317   19.6993 C   0  0  0  0  0  0
  -28.3544  -19.7768   21.0508 C   0  0  0  0  0  0
  -30.1580  -19.8717   19.5378 C   0  0  0  0  0  0
  -29.1191  -20.6417   20.1996 C   0  0  0  0  0  0
  -29.5761  -17.5736   20.5268 C   0  0  0  0  0  0
  -28.5575  -18.3416   21.1934 C   0  0  0  0  0  0
  -27.8675  -24.0075   18.6625 C   0  0  0  0  0  0
  -28.4895  -22.5617   18.5914 C   0  0  0  0  0  0
  -28.6105  -23.3397   20.8173 C   0  0  0  0  0  0
  -28.4962  -24.6936   19.8875 C   0  0  2  0  0  0
  -31.1191  -20.5878   18.6050 C   0  0  0  0  0  0
  -28.8244  -22.0924   19.9470 N   0  0  0  0  0  0
  -29.6328  -16.0446   20.6940 N   0  0  0  0  0  0
  -27.7074  -17.6643   22.0025 F   0  0  0  0  0  0
  -31.4816  -12.7554   19.1933 H   0  0  0  0  0  0
  -30.4512  -11.6217   20.0194 H   0  0  0  0  0  0
  -29.8451  -11.7434   17.5823 H   0  0  0  0  0  0
  -29.6156  -13.4712   17.7019 H   0  0  0  0  0  0
  -27.9497  -11.2775   18.9694 H   0  0  0  0  0  0
  -27.3941  -12.4654   17.8161 H   0  0  0  0  0  0
  -27.6075  -14.2522   19.4366 H   0  0  0  0  0  0
  -28.7583  -12.2414   21.4364 H   0  0  0  0  0  0
  -28.3713  -13.9071   21.7918 H   0  0  0  0  0  0
  -25.2781   -9.5684   22.4780 H   0  0  0  0  0  0
  -24.0006   -7.4643   22.7495 H   0  0  0  0  0  0
  -21.0870   -8.8787   19.8955 H   0  0  0  0  0  0
  -22.3739  -10.9676   19.6171 H   0  0  0  0  0  0
  -21.1999   -7.6159   23.9737 H   0  0  0  0  0  0
  -21.1465   -6.0522   25.9079 H   0  0  0  0  0  0
  -22.0604   -2.7627   23.2840 H   0  0  0  0  0  0
  -22.4041  -11.9857   22.4815 H   0  0  0  0  0  0
  -21.1057  -13.1242   22.2620 H   0  0  0  0  0  0
  -24.6488  -15.8471   20.5402 H   0  0  0  0  0  0
  -26.2633  -15.6427   20.0984 H   0  0  0  0  0  0
  -26.7267  -32.5298   23.0965 H   0  0  0  0  0  0
  -25.0090  -33.9606   25.0308 H   0  0  0  0  0  0
  -22.7451  -31.2855   21.3738 H   0  0  0  0  0  0
  -23.3780  -35.9511   23.3276 H   0  0  0  0  0  0
  -24.3545  -36.8883   22.2064 H   0  0  0  0  0  0
  -23.7198  -37.6385   23.6717 H   0  0  0  0  0  0
  -26.1513  -31.4687   20.6095 H   0  0  0  0  0  0
  -26.8706  -30.7637   22.0226 H   0  0  0  0  0  0
  -28.1242  -28.8049   21.2281 H   0  0  0  0  0  0
  -25.9263  -25.8240   19.0199 H   0  0  0  0  0  0
  -23.9854  -27.2676   18.9961 H   0  0  0  0  0  0
  -23.8033  -30.5527   19.3932 H   0  0  0  0  0  0
  -22.7840  -29.2227   19.8477 H   0  0  0  0  0  0
  -25.1309  -36.1810   25.0806 H   0  0  0  0  0  0
  -20.9979  -28.3304   24.1371 H   0  0  0  0  0  0
  -20.5698  -26.2323   23.3610 H   0  0  0  0  0  0
  -21.6651  -26.7450   22.1187 H   0  0  0  0  0  0
  -19.6935  -25.6283   21.1252 H   0  0  0  0  0  0
  -19.6714  -27.3185   20.6741 H   0  0  0  0  0  0
  -17.4208  -26.6687   21.4005 H   0  0  0  0  0  0
  -18.0326  -26.0067   22.9004 H   0  0  0  0  0  0
  -19.7969  -30.7278   24.2232 H   0  0  0  0  0  0
  -17.5056  -31.6287   24.5150 H   0  0  0  0  0  0
  -15.5382  -30.3009   23.7700 H   0  0  0  0  0  0
  -15.8661  -28.0840   22.7120 H   0  0  0  0  0  0
  -24.5890  -30.7094   25.7675 H   0  0  0  0  0  0
  -24.8884  -32.2923   26.4765 H   0  0  0  0  0  0
  -25.7959  -30.8927   27.0188 H   0  0  0  0  0  0
  -26.3075  -29.6687   24.1269 H   0  0  0  0  0  0
  -27.4093  -29.7318   25.4827 H   0  0  0  0  0  0
  -27.8939  -30.4291   23.9565 H   0  0  0  0  0  0
  -27.2622  -33.3701   26.1979 H   0  0  0  0  0  0
  -28.3899  -32.6864   25.0358 H   0  0  0  0  0  0
  -28.0648  -31.8549   26.5487 H   0  0  0  0  0  0
  -28.2547  -38.0084   24.7565 H   0  0  0  0  0  0
  -28.1079  -36.2619   24.6241 H   0  0  0  0  0  0
  -27.2266  -37.1327   25.8862 H   0  0  0  0  0  0
  -20.9449  -29.8723   21.6764 H   0  0  0  0  0  0
  -26.0103  -38.2796   24.1503 H   0  0  0  0  0  0
  -31.1690  -17.9648   19.1374 H   0  0  0  0  0  0
  -27.5321  -20.2114   21.5978 H   0  0  0  0  0  0
  -26.7918  -23.9066   18.7963 H   0  0  0  0  0  0
  -28.0347  -24.5663   17.7406 H   0  0  0  0  0  0
  -29.3993  -22.5968   17.9927 H   0  0  0  0  0  0
  -27.8070  -21.8696   18.0946 H   0  0  0  0  0  0
  -27.6952  -23.2116   21.3973 H   0  0  0  0  0  0
  -29.4282  -23.4357   21.5329 H   0  0  0  0  0  0
  -29.5355  -24.7902   19.5687 H   0  0  0  0  0  0
  -32.0792  -20.0729   18.5557 H   0  0  0  0  0  0
  -31.3136  -21.6050   18.9460 H   0  0  0  0  0  0
  -30.7083  -20.6306   17.5964 H   0  0  0  0  0  0
  -28.7678  -15.7034   21.0857 H   0  0  0  0  0  0
  1 25  1  0  0  0
  1 30  2  0  0  0
  1 83  1  0  0  0
  2  3  1  0  0  0
  2 25  1  0  0  0
  2 85  1  0  0  0
  2 86  1  0  0  0
  3  4  1  0  0  0
  3 87  1  0  0  0
  3 88  1  0  0  0
  4  5  1  0  0  0
  4 89  1  0  0  0
  4 90  1  0  0  0
  5  6  1  0  0  0
  5 26  1  0  0  0
  5 91  1  0  0  0
  6 25  1  0  0  0
  6 92  1  0  0  0
  6 93  1  0  0  0
  7  8  2  0  0  0
  7 26  1  0  0  0
  7 29  1  0  0  0
  8  9  1  0  0  0
  8 22  1  0  0  0
  9 10  1  0  0  0
  9 27  2  0  0  0
 10 11  2  0  0  0
 10 15  1  0  0  0
 11 12  1  0  0  0
 11 94  1  0  0  0
 12 13  2  0  0  0
 12 95  1  0  0  0
 13 14  1  0  0  0
 13 31  1  0  0  0
 14 15  2  0  0  0
 14 96  1  0  0  0
 15 97  1  0  0  0
 16 17  2  0  0  0
 16 21  1  0  0  0
 16 31  1  0  0  0
 17 18  1  0  0  0
 17 98  1  0  0  0
 18 19  2  0  0  0
 18 99  1  0  0  0
 19 20  1  0  0  0
 19 24  1  0  0  0
 20 21  2  0  0  0
 20100  1  0  0  0
 21 23  1  0  0  0
 22 28  1  0  0  0
 22 32  2  0  0  0
 26 27  1  0  0  0
 28101  1  0  0  0
 28102  1  0  0  0
 29103  1  0  0  0
 29104  1  0  0  0
 33 34  1  0  0  0
 33 66  1  0  0  0
 33 70  2  0  0  0
 34 36  1  0  0  0
 34 59  1  0  0  0
 34105  1  0  0  0
 35 44  2  0  0  0
 35 45  1  0  0  0
 35 68  1  0  0  0
 36 56  1  0  0  0
 36106  1  0  0  0
 37 39  1  0  0  0
 37 47  1  0  0  0
 37 66  1  0  0  0
 37107  1  0  0  0
 38 43  2  0  0  0
 38 46  1  0  0  0
 38 47  1  0  0  0
 39 64  1  0  0  0
 39 67  2  0  0  0
 40 52  1  0  0  0
 40 53  2  0  0  0
 40 58  1  0  0  0
 41108  1  0  0  0
 41109  1  0  0  0
 41110  1  0  0  0
 41 48  1  0  0  0
 42 43  1  0  0  0
 42 66  1  0  0  0
 42111  1  0  0  0
 42112  1  0  0  0
 43 44  1  0  0  0
 44113  1  0  0  0
 45 46  2  0  0  0
 45114  1  0  0  0
 46115  1  0  0  0
 47116  1  0  0  0
 47117  1  0  0  0
 48 56  1  0  0  0
 48 65  1  0  0  0
 48118  1  0  0  0
 49 50  1  0  0  0
 49 53  1  0  0  0
 49 64  1  0  0  0
 49119  1  0  0  0
 50 51  1  0  0  0
 50120  1  0  0  0
 50121  1  0  0  0
 51 52  1  0  0  0
 51122  1  0  0  0
 51123  1  0  0  0
 52124  1  0  0  0
 52125  1  0  0  0
 53 54  1  0  0  0
 54 55  2  0  0  0
 54126  1  0  0  0
 55 57  1  0  0  0
 55127  1  0  0  0
 56 69  2  0  0  0
 57 58  2  0  0  0
 57128  1  0  0  0
 58129  1  0  0  0
 59 60  1  0  0  0
 59 61  1  0  0  0
 59 62  1  0  0  0
 60130  1  0  0  0
 60131  1  0  0  0
 60132  1  0  0  0
 61133  1  0  0  0
 61134  1  0  0  0
 61135  1  0  0  0
 62136  1  0  0  0
 62137  1  0  0  0
 62138  1  0  0  0
 63 65  1  0  0  0
 63139  1  0  0  0
 63140  1  0  0  0
 63141  1  0  0  0
 64142  1  0  0  0
 65143  1  0  0  0
 68 80  1  0  0  0
 71 73  2  0  0  0
 71 75  1  0  0  0
 71144  1  0  0  0
 72 74  2  0  0  0
 72 76  1  0  0  0
 72145  1  0  0  0
 73 74  1  0  0  0
 73 81  1  0  0  0
 74 82  1  0  0  0
 75 76  2  0  0  0
 75 83  1  0  0  0
 76 84  1  0  0  0
 77 78  1  0  0  0
 77 80  1  0  0  0
 77146  1  0  0  0
 77147  1  0  0  0
 78 82  1  0  0  0
 78148  1  0  0  0
 78149  1  0  0  0
 79 80  1  0  0  0
 79 82  1  0  0  0
 79150  1  0  0  0
 79151  1  0  0  0
 80152  1  0  0  0
 81153  1  0  0  0
 81154  1  0  0  0
 81155  1  0  0  0
 83156  1  0  0  0
M  ISO  4   1 100  68 101  80 101  83 100
M  END
> <chiral flag>
0

> <version>
0

> <s_m_source_file>
/data/baiqing/PycharmProjects/Reinvent-master-3.2/result/LINK_invent/BTK/process_docking_weight1_custom_product_contain_oxygen_bond_distance_aromatic_linkinvent_7_9_3/rearranged_h_0021.sdf

> <i_m_source_file_index>
65

> <r_mmod_Potential_Energy-OPLS-2005>
546.953674316406

> <r_mmod_Stretch_Energy-OPLS-2005>
220.051071166992

> <r_mmod_Bend_Energy-OPLS-2005>
373.808013916016

> <r_mmod_Torsional_Energy-OPLS-2005>
272.921417236328

> <r_mmod_Improper_Torsional_Energy-OPLS-2005>
3.55909752845764

> <r_mmod_Van_der_Waal_Energy-OPLS-2005>
126.104583740234

> <r_mmod_Electrostatic_Energy-OPLS-2005>
-424.200500488281

> <r_mmod_Solvation_Energy-OPLS-2005>
-212.505523681641

> <b_mmod_Minimization_Converged-OPLS-2005>
0

> <r_mmod_RMS_Derivative-OPLS-2005>
1.7503809928894

$$$$
65
                    3D
 Structure written by MMmdl.
152160  0  0  1  0            999 V2000
  -30.6115  -14.6223   20.5173 C   0  0  0  0  0  0
  -30.4412  -12.3860   19.4413 C   0  0  0  0  0  0
  -29.5064  -12.5175   18.2174 C   0  0  0  0  0  0
  -28.0282  -12.3552   18.6272 C   0  0  0  0  0  0
  -27.6569  -13.2124   19.8667 C   0  0  2  0  0  0
  -28.7027  -13.0352   20.9920 C   0  0  0  0  0  0
  -25.2578  -13.8164   20.5675 C   0  0  0  0  0  0
  -24.1839  -13.0431   20.9199 C   0  0  0  0  0  0
  -24.6403  -11.6903   20.8734 C   0  0  0  0  0  0
  -23.9077  -10.4286   21.0403 C   0  0  0  0  0  0
  -24.3620   -9.4202   21.9186 C   0  0  0  0  0  0
  -23.6288   -8.2243   22.0751 C   0  0  0  0  0  0
  -22.4269   -8.0287   21.3551 C   0  0  0  0  0  0
  -21.9904   -9.0258   20.4652 C   0  0  0  0  0  0
  -22.7244  -10.2134   20.3059 C   0  0  0  0  0  0
  -21.6845   -6.0744   22.5283 C   0  0  0  0  0  0
  -21.4017   -6.5647   23.8217 C   0  0  0  0  0  0
  -21.3657   -5.6794   24.9174 C   0  0  0  0  0  0
  -21.6041   -4.3059   24.7227 C   0  0  0  0  0  0
  -21.8818   -3.8156   23.4346 C   0  0  0  0  0  0
  -21.9185   -4.6972   22.3403 C   0  0  0  0  0  0
  -22.7861  -13.5225   21.1849 C   0  0  0  0  0  0
  -22.1653   -4.2165   21.0979 F   0  0  0  0  0  0
  -21.5623   -3.4537   25.7732 F   0  0  0  0  0  0
  -30.0199  -13.3894   20.4370 N   0  0  0  0  0  0
  -26.3002  -12.9333   20.3320 N   0  0  0  0  0  0
  -25.9325  -11.6487   20.5749 N   0  0  0  0  0  0
  -22.0497  -12.8212   22.0410 N   0  0  0  0  0  0
  -25.4294  -15.1883   20.4073 N   0  0  0  0  0  0
  -31.7555  -14.8232   20.0962 O   0  0  0  0  0  0
  -21.6637   -6.8882   21.4243 O   0  0  0  0  0  0
  -22.3542  -14.5525   20.6683 O   0  0  0  0  0  0
  -24.6250  -31.8610   23.2019 C   0  0  0  0  0  0
  -25.9095  -32.4786   23.8359 C   0  0  1  0  0  0
  -27.2229  -27.3239   20.1096 C   0  0  0  0  0  0
  -25.5924  -33.8592   24.2279 N   0  0  0  0  0  0
  -23.4201  -30.4849   21.5444 C   0  0  2  0  0  0
  -24.8664  -28.9463   20.1073 C   0  0  0  0  0  0
  -22.7460  -29.4632   22.4913 C   0  0  0  0  0  0
  -18.0290  -28.1398   22.8472 C   0  0  0  0  0  0
  -24.1483  -36.7319   23.2640 C   0  0  0  0  0  0
  -25.9610  -30.7936   21.3734 C   0  0  0  0  0  0
  -26.0350  -29.4215   20.7146 C   0  0  0  0  0  0
  -27.2162  -28.6214   20.7087 C   0  0  0  0  0  0
  -26.0333  -26.9113   19.4615 C   0  0  0  0  0  0
  -24.8679  -27.6969   19.4723 C   0  0  0  0  0  0
  -23.6331  -29.8230   20.1593 C   0  0  0  0  0  0
  -25.4113  -36.3102   24.0324 C   0  0  1  0  0  0
  -20.5883  -28.3715   23.1272 C   0  0  2  0  0  0
  -20.6775  -26.9437   22.5411 C   0  0  0  0  0  0
  -19.5762  -26.6394   21.5217 C   0  0  0  0  0  0
  -18.1936  -26.7937   22.1613 C   0  0  0  0  0  0
  -19.1538  -28.8873   23.2870 C   0  0  0  0  0  0
  -18.9457  -30.1464   23.8909 C   0  0  0  0  0  0
  -17.6458  -30.6594   24.0571 C   0  0  0  0  0  0
  -25.9053  -34.9461   23.5101 C   0  0  0  0  0  0
  -16.5350  -29.9095   23.6327 C   0  0  0  0  0  0
  -16.7276  -28.6513   23.0342 C   0  0  0  0  0  0
  -26.4475  -31.6604   25.0727 C   0  0  0  0  0  0
  -25.3700  -31.3746   26.1446 C   0  0  0  0  0  0
  -27.0315  -30.3019   24.6186 C   0  0  0  0  0  0
  -27.6037  -32.4334   25.7496 C   0  0  0  0  0  0
  -27.5583  -37.1808   24.8455 C   0  0  0  0  0  0
  -21.4170  -29.3067   22.3653 N   0  0  0  0  0  0
  -26.4291  -37.3794   23.9406 N   0  0  0  0  0  0
  -24.6875  -31.0623   22.0971 N   0  0  0  0  0  0
  -23.4181  -28.8164   23.2995 O   0  0  0  0  0  0
  -28.3319  -26.4638   20.1787 O   0  0  0  0  0  0
  -26.5607  -34.8916   22.4660 O   0  0  0  0  0  0
  -23.5406  -32.1405   23.7338 O   0  0  0  0  0  0
  -29.8059  -19.2250   22.1514 C   0  0  0  0  0  0
  -29.6589  -19.2727   19.7544 C   0  0  0  0  0  0
  -29.6731  -20.0053   20.9739 C   0  0  0  0  0  0
  -29.9000  -17.0762   20.9171 C   0  0  0  0  0  0
  -29.9005  -17.8067   22.1294 C   0  0  0  0  0  0
  -29.7766  -17.8434   19.7208 C   0  0  0  0  0  0
  -29.1446  -23.9468   20.5258 C   0  0  0  0  0  0
  -28.8587  -22.3987   20.2360 C   0  0  0  0  0  0
  -28.0952  -25.0118   19.9893 C   0  0  0  0  0  0
  -29.8070  -15.6211   20.9781 N   0  0  0  0  0  0
  -29.6132  -21.4366   21.0951 N   0  0  0  0  0  0
  -29.9747  -17.1347   23.3052 F   0  0  0  0  0  0
  -29.7047  -17.0476   18.1874 Cl  0  0  0  0  0  0
  -31.4812  -12.5187   19.1397 H   0  0  0  0  0  0
  -30.3778  -11.3821   19.8649 H   0  0  0  0  0  0
  -29.7669  -11.7736   17.4631 H   0  0  0  0  0  0
  -29.6508  -13.4924   17.7470 H   0  0  0  0  0  0
  -27.8595  -11.2993   18.8475 H   0  0  0  0  0  0
  -27.3721  -12.5973   17.7899 H   0  0  0  0  0  0
  -27.6842  -14.2538   19.5461 H   0  0  0  0  0  0
  -28.7112  -12.0025   21.3421 H   0  0  0  0  0  0
  -28.4460  -13.6373   21.8639 H   0  0  0  0  0  0
  -25.2770   -9.5665   22.4755 H   0  0  0  0  0  0
  -24.0001   -7.4621   22.7459 H   0  0  0  0  0  0
  -21.0837   -8.8778   19.8953 H   0  0  0  0  0  0
  -22.3712  -10.9668   19.6163 H   0  0  0  0  0  0
  -21.2027   -7.6152   23.9727 H   0  0  0  0  0  0
  -21.1474   -6.0527   25.9079 H   0  0  0  0  0  0
  -22.0603   -2.7622   23.2840 H   0  0  0  0  0  0
  -22.4110  -11.9881   22.4827 H   0  0  0  0  0  0
  -21.1117  -13.1248   22.2589 H   0  0  0  0  0  0
  -24.6619  -15.8410   20.5214 H   0  0  0  0  0  0
  -26.2636  -15.6205   20.0292 H   0  0  0  0  0  0
  -26.7154  -32.5447   23.1109 H   0  0  0  0  0  0
  -25.0065  -33.9765   25.0414 H   0  0  0  0  0  0
  -22.7171  -31.3069   21.3994 H   0  0  0  0  0  0
  -23.3740  -35.9661   23.3303 H   0  0  0  0  0  0
  -24.3574  -36.8949   22.2060 H   0  0  0  0  0  0
  -23.7232  -37.6519   23.6655 H   0  0  0  0  0  0
  -26.0883  -31.5564   20.6033 H   0  0  0  0  0  0
  -26.8425  -30.8434   21.9994 H   0  0  0  0  0  0
  -28.1111  -28.9791   21.1976 H   0  0  0  0  0  0
  -25.9754  -25.9647   18.9441 H   0  0  0  0  0  0
  -23.9750  -27.3333   18.9829 H   0  0  0  0  0  0
  -23.7491  -30.5994   19.4021 H   0  0  0  0  0  0
  -22.7535  -29.2516   19.8563 H   0  0  0  0  0  0
  -25.1287  -36.1972   25.0816 H   0  0  0  0  0  0
  -20.9989  -28.3300   24.1387 H   0  0  0  0  0  0
  -20.5687  -26.2330   23.3618 H   0  0  0  0  0  0
  -21.6640  -26.7470   22.1205 H   0  0  0  0  0  0
  -19.6935  -25.6311   21.1251 H   0  0  0  0  0  0
  -19.6694  -27.3189   20.6742 H   0  0  0  0  0  0
  -17.4199  -26.6675   21.4010 H   0  0  0  0  0  0
  -18.0331  -26.0091   22.9026 H   0  0  0  0  0  0
  -19.7932  -30.7273   24.2275 H   0  0  0  0  0  0
  -17.5016  -31.6271   24.5176 H   0  0  0  0  0  0
  -15.5350  -30.3001   23.7662 H   0  0  0  0  0  0
  -15.8664  -28.0842   22.7056 H   0  0  0  0  0  0
  -24.5880  -30.7086   25.7772 H   0  0  0  0  0  0
  -24.8881  -32.2919   26.4834 H   0  0  0  0  0  0
  -25.8020  -30.8944   27.0237 H   0  0  0  0  0  0
  -26.2891  -29.6763   24.1201 H   0  0  0  0  0  0
  -27.3993  -29.7270   25.4705 H   0  0  0  0  0  0
  -27.8772  -30.4291   23.9416 H   0  0  0  0  0  0
  -27.2645  -33.3634   26.2068 H   0  0  0  0  0  0
  -28.3850  -32.6904   25.0328 H   0  0  0  0  0  0
  -28.0697  -31.8459   26.5415 H   0  0  0  0  0  0
  -28.2583  -38.0118   24.7530 H   0  0  0  0  0  0
  -28.1078  -36.2651   24.6234 H   0  0  0  0  0  0
  -27.2296  -37.1425   25.8852 H   0  0  0  0  0  0
  -20.9332  -29.8810   21.6888 H   0  0  0  0  0  0
  -26.0173  -38.2864   24.1414 H   0  0  0  0  0  0
  -29.8177  -19.7107   23.1164 H   0  0  0  0  0  0
  -29.5648  -19.8044   18.8194 H   0  0  0  0  0  0
  -30.1231  -24.1989   20.1157 H   0  0  0  0  0  0
  -29.2294  -24.0925   21.6025 H   0  0  0  0  0  0
  -29.0634  -22.1863   19.1858 H   0  0  0  0  0  0
  -27.7942  -22.2057   20.3808 H   0  0  0  0  0  0
  -27.1546  -24.7554   20.4782 H   0  0  0  0  0  0
  -27.9484  -24.8323   18.9234 H   0  0  0  0  0  0
  -28.9653  -15.2805   21.4165 H   0  0  0  0  0  0
  -29.7490  -21.7760   22.0448 H   0  0  0  0  0  0
  1 25  1  0  0  0
  1 30  2  0  0  0
  1 80  1  0  0  0
  2  3  1  0  0  0
  2 25  1  0  0  0
  2 84  1  0  0  0
  2 85  1  0  0  0
  3  4  1  0  0  0
  3 86  1  0  0  0
  3 87  1  0  0  0
  4  5  1  0  0  0
  4 88  1  0  0  0
  4 89  1  0  0  0
  5  6  1  0  0  0
  5 26  1  0  0  0
  5 90  1  0  0  0
  6 25  1  0  0  0
  6 91  1  0  0  0
  6 92  1  0  0  0
  7  8  2  0  0  0
  7 26  1  0  0  0
  7 29  1  0  0  0
  8  9  1  0  0  0
  8 22  1  0  0  0
  9 10  1  0  0  0
  9 27  2  0  0  0
 10 11  2  0  0  0
 10 15  1  0  0  0
 11 12  1  0  0  0
 11 93  1  0  0  0
 12 13  2  0  0  0
 12 94  1  0  0  0
 13 14  1  0  0  0
 13 31  1  0  0  0
 14 15  2  0  0  0
 14 95  1  0  0  0
 15 96  1  0  0  0
 16 17  2  0  0  0
 16 21  1  0  0  0
 16 31  1  0  0  0
 17 18  1  0  0  0
 17 97  1  0  0  0
 18 19  2  0  0  0
 18 98  1  0  0  0
 19 20  1  0  0  0
 19 24  1  0  0  0
 20 21  2  0  0  0
 20 99  1  0  0  0
 21 23  1  0  0  0
 22 28  1  0  0  0
 22 32  2  0  0  0
 26 27  1  0  0  0
 28100  1  0  0  0
 28101  1  0  0  0
 29102  1  0  0  0
 29103  1  0  0  0
 33 34  1  0  0  0
 33 66  1  0  0  0
 33 70  2  0  0  0
 34 36  1  0  0  0
 34 59  1  0  0  0
 34104  1  0  0  0
 35 44  2  0  0  0
 35 45  1  0  0  0
 35 68  1  0  0  0
 36 56  1  0  0  0
 36105  1  0  0  0
 37 39  1  0  0  0
 37 47  1  0  0  0
 37 66  1  0  0  0
 37106  1  0  0  0
 38 43  2  0  0  0
 38 46  1  0  0  0
 38 47  1  0  0  0
 39 64  1  0  0  0
 39 67  2  0  0  0
 40 52  1  0  0  0
 40 53  2  0  0  0
 40 58  1  0  0  0
 41107  1  0  0  0
 41108  1  0  0  0
 41109  1  0  0  0
 41 48  1  0  0  0
 42 43  1  0  0  0
 42 66  1  0  0  0
 42110  1  0  0  0
 42111  1  0  0  0
 43 44  1  0  0  0
 44112  1  0  0  0
 45 46  2  0  0  0
 45113  1  0  0  0
 46114  1  0  0  0
 47115  1  0  0  0
 47116  1  0  0  0
 48 56  1  0  0  0
 48 65  1  0  0  0
 48117  1  0  0  0
 49 50  1  0  0  0
 49 53  1  0  0  0
 49 64  1  0  0  0
 49118  1  0  0  0
 50 51  1  0  0  0
 50119  1  0  0  0
 50120  1  0  0  0
 51 52  1  0  0  0
 51121  1  0  0  0
 51122  1  0  0  0
 52123  1  0  0  0
 52124  1  0  0  0
 53 54  1  0  0  0
 54 55  2  0  0  0
 54125  1  0  0  0
 55 57  1  0  0  0
 55126  1  0  0  0
 56 69  2  0  0  0
 57 58  2  0  0  0
 57127  1  0  0  0
 58128  1  0  0  0
 59 60  1  0  0  0
 59 61  1  0  0  0
 59 62  1  0  0  0
 60129  1  0  0  0
 60130  1  0  0  0
 60131  1  0  0  0
 61132  1  0  0  0
 61133  1  0  0  0
 61134  1  0  0  0
 62135  1  0  0  0
 62136  1  0  0  0
 62137  1  0  0  0
 63 65  1  0  0  0
 63138  1  0  0  0
 63139  1  0  0  0
 63140  1  0  0  0
 64141  1  0  0  0
 65142  1  0  0  0
 68 79  1  0  0  0
 71 73  2  0  0  0
 71 75  1  0  0  0
 71143  1  0  0  0
 72 73  1  0  0  0
 72 76  2  0  0  0
 72144  1  0  0  0
 73 81  1  0  0  0
 74 75  2  0  0  0
 74 76  1  0  0  0
 74 80  1  0  0  0
 75 82  1  0  0  0
 76 83  1  0  0  0
 77 78  1  0  0  0
 77 79  1  0  0  0
 77145  1  0  0  0
 77146  1  0  0  0
 78 81  1  0  0  0
 78147  1  0  0  0
 78148  1  0  0  0
 79149  1  0  0  0
 79150  1  0  0  0
 80151  1  0  0  0
 81152  1  0  0  0
M  ISO  4   1 100  68 101  79 101  80 100
M  END
> <chiral flag>
0

> <version>
0

> <s_m_source_file>
/data/baiqing/PycharmProjects/Reinvent-master-3.2/result/LINK_invent/BTK/process_docking_weight1_custom_product_contain_oxygen_bond_distance_aromatic_linkinvent_7_9_3/rearranged_h_0021.sdf

> <i_m_source_file_index>
66

> <r_mmod_Potential_Energy-OPLS-2005>
15.4614162445068

> <r_mmod_Stretch_Energy-OPLS-2005>
74.8152847290039

> <r_mmod_Bend_Energy-OPLS-2005>
141.910537719727

> <r_mmod_Torsional_Energy-OPLS-2005>
233.516540527344

> <r_mmod_Improper_Torsional_Energy-OPLS-2005>
6.26588296890259

> <r_mmod_Van_der_Waal_Energy-OPLS-2005>
140.46696472168

> <r_mmod_Electrostatic_Energy-OPLS-2005>
-405.828063964844

> <r_mmod_Solvation_Energy-OPLS-2005>
-221.960510253906

> <b_mmod_Minimization_Converged-OPLS-2005>
0

> <r_mmod_RMS_Derivative-OPLS-2005>
2.33146286010742

$$$$
66
                    3D
 Structure written by MMmdl.
156165  0  0  1  0            999 V2000
  -30.5429  -14.8669   20.4374 C   0  0  0  0  0  0
  -30.4396  -12.5224   19.4910 C   0  0  0  0  0  0
  -29.5226  -12.5381   18.2458 C   0  0  0  0  0  0
  -28.0534  -12.3309   18.6621 C   0  0  0  0  0  0
  -27.6455  -13.2390   19.8534 C   0  0  2  0  0  0
  -28.6888  -13.1990   20.9924 C   0  0  0  0  0  0
  -25.2533  -13.8193   20.5704 C   0  0  0  0  0  0
  -24.1844  -13.0434   20.9200 C   0  0  0  0  0  0
  -24.6437  -11.6902   20.8741 C   0  0  0  0  0  0
  -23.9104  -10.4283   21.0396 C   0  0  0  0  0  0
  -24.3637   -9.4197   21.9180 C   0  0  0  0  0  0
  -23.6300   -8.2244   22.0746 C   0  0  0  0  0  0
  -22.4282   -8.0287   21.3538 C   0  0  0  0  0  0
  -21.9925   -9.0268   20.4635 C   0  0  0  0  0  0
  -22.7269  -10.2136   20.3046 C   0  0  0  0  0  0
  -21.6872   -6.0735   22.5283 C   0  0  0  0  0  0
  -21.4018   -6.5634   23.8217 C   0  0  0  0  0  0
  -21.3658   -5.6790   24.9184 C   0  0  0  0  0  0
  -21.6051   -4.3055   24.7238 C   0  0  0  0  0  0
  -21.8816   -3.8140   23.4362 C   0  0  0  0  0  0
  -21.9193   -4.6956   22.3412 C   0  0  0  0  0  0
  -22.7861  -13.5198   21.1868 C   0  0  0  0  0  0
  -22.1662   -4.2142   21.0994 F   0  0  0  0  0  0
  -21.5630   -3.4530   25.7748 F   0  0  0  0  0  0
  -29.9804  -13.5962   20.4146 N   0  0  0  0  0  0
  -26.2980  -12.9420   20.3296 N   0  0  0  0  0  0
  -25.9369  -11.6547   20.5733 N   0  0  0  0  0  0
  -22.0512  -12.8183   22.0404 N   0  0  0  0  0  0
  -25.4195  -15.1925   20.4109 N   0  0  0  0  0  0
  -31.7151  -14.9949   20.0654 O   0  0  0  0  0  0
  -21.6651   -6.8883   21.4241 O   0  0  0  0  0  0
  -22.3544  -14.5519   20.6728 O   0  0  0  0  0  0
  -24.6439  -31.8433   23.1842 C   0  0  0  0  0  0
  -25.9235  -32.4652   23.8222 C   0  0  1  0  0  0
  -27.2066  -27.1190   20.1339 C   0  0  0  0  0  0
  -25.6022  -33.8464   24.2134 N   0  0  0  0  0  0
  -23.4459  -30.4635   21.5305 C   0  0  2  0  0  0
  -24.8907  -28.8867   20.1073 C   0  0  0  0  0  0
  -22.7535  -29.4562   22.4818 C   0  0  0  0  0  0
  -18.0253  -28.1362   22.8545 C   0  0  0  0  0  0
  -24.1508  -36.7243   23.2635 C   0  0  0  0  0  0
  -26.0037  -30.7099   21.3830 C   0  0  0  0  0  0
  -26.0691  -29.3190   20.7254 C   0  0  0  0  0  0
  -27.2234  -28.4485   20.7275 C   0  0  0  0  0  0
  -26.0024  -26.8010   19.4645 C   0  0  0  0  0  0
  -24.8686  -27.6389   19.4690 C   0  0  0  0  0  0
  -23.6721  -29.7943   20.1482 C   0  0  0  0  0  0
  -25.4146  -36.2991   24.0277 C   0  0  1  0  0  0
  -20.5886  -28.3710   23.1163 C   0  0  2  0  0  0
  -20.6773  -26.9390   22.5400 C   0  0  0  0  0  0
  -19.5654  -26.6186   21.5356 C   0  0  0  0  0  0
  -18.1859  -26.7838   22.1838 C   0  0  0  0  0  0
  -19.1531  -28.8868   23.2841 C   0  0  0  0  0  0
  -18.9411  -30.1502   23.8816 C   0  0  0  0  0  0
  -17.6394  -30.6618   24.0509 C   0  0  0  0  0  0
  -25.9106  -34.9377   23.5003 C   0  0  0  0  0  0
  -16.5291  -29.9088   23.6299 C   0  0  0  0  0  0
  -16.7234  -28.6475   23.0391 C   0  0  0  0  0  0
  -26.4544  -31.6530   25.0685 C   0  0  0  0  0  0
  -25.3729  -31.3743   26.1383 C   0  0  0  0  0  0
  -27.0411  -30.2927   24.6258 C   0  0  0  0  0  0
  -27.6028  -32.4308   25.7525 C   0  0  0  0  0  0
  -27.5567  -37.1781   24.8465 C   0  0  0  0  0  0
  -21.4240  -29.2973   22.3467 N   0  0  0  0  0  0
  -26.4286  -37.3717   23.9396 N   0  0  0  0  0  0
  -24.7180  -31.0273   22.0878 N   0  0  0  0  0  0
  -23.4170  -28.8226   23.3077 O   0  0  0  0  0  0
  -28.2643  -26.1377   20.2367 O   0  0  0  0  0  0
  -26.5679  -34.8892   22.4573 O   0  0  0  0  0  0
  -23.5562  -32.1331   23.7062 O   0  0  0  0  0  0
  -29.1226  -19.8188   21.4314 C   0  0  0  0  0  0
  -29.4072  -18.4031   21.6170 C   0  0  0  0  0  0
  -29.3614  -19.5234   19.1103 C   0  0  0  0  0  0
  -29.0528  -20.4679   20.1557 C   0  0  0  0  0  0
  -29.6959  -17.4664   20.5644 C   0  0  0  0  0  0
  -29.6776  -18.1147   19.2872 C   0  0  0  0  0  0
  -26.4418  -22.2447   20.9761 C   0  0  0  0  0  0
  -27.5601  -23.0217   21.6811 C   0  0  0  0  0  0
  -27.0847  -21.6844   19.6927 C   0  0  0  0  0  0
  -28.6022  -23.2158   20.5803 C   0  0  2  0  0  0
  -28.2068  -24.6486   19.7554 C   0  0  0  0  0  0
  -28.5322  -21.8363   19.8553 N   0  0  0  0  0  0
  -29.7364  -15.9613   20.8043 N   0  0  0  0  0  0
  -29.9390  -17.1605   17.8701 Cl  0  0  0  0  0  0
  -31.4842  -12.6469   19.2004 H   0  0  0  0  0  0
  -30.3839  -11.5472   19.9800 H   0  0  0  0  0  0
  -29.8213  -11.7612   17.5413 H   0  0  0  0  0  0
  -29.6320  -13.4862   17.7158 H   0  0  0  0  0  0
  -27.9395  -11.2849   18.9518 H   0  0  0  0  0  0
  -27.3885  -12.4841   17.8114 H   0  0  0  0  0  0
  -27.6297  -14.2553   19.4607 H   0  0  0  0  0  0
  -28.7532  -12.2003   21.4292 H   0  0  0  0  0  0
  -28.4059  -13.8662   21.8072 H   0  0  0  0  0  0
  -25.2769   -9.5683   22.4767 H   0  0  0  0  0  0
  -24.0003   -7.4640   22.7467 H   0  0  0  0  0  0
  -21.0861   -8.8815   19.8940 H   0  0  0  0  0  0
  -22.3737  -10.9695   19.6171 H   0  0  0  0  0  0
  -21.2007   -7.6140   23.9726 H   0  0  0  0  0  0
  -21.1482   -6.0516   25.9094 H   0  0  0  0  0  0
  -22.0589   -2.7594   23.2879 H   0  0  0  0  0  0
  -22.4130  -11.9844   22.4808 H   0  0  0  0  0  0
  -21.1125  -13.1204   22.2596 H   0  0  0  0  0  0
  -24.6390  -15.8335   20.5041 H   0  0  0  0  0  0
  -26.2537  -15.6332   20.0436 H   0  0  0  0  0  0
  -26.7296  -32.5228   23.0932 H   0  0  0  0  0  0
  -25.0170  -33.9550   25.0282 H   0  0  0  0  0  0
  -22.7530  -31.2920   21.3723 H   0  0  0  0  0  0
  -23.3732  -35.9611   23.3294 H   0  0  0  0  0  0
  -24.3585  -36.8898   22.2051 H   0  0  0  0  0  0
  -23.7314  -37.6452   23.6699 H   0  0  0  0  0  0
  -26.1667  -31.4623   20.6097 H   0  0  0  0  0  0
  -26.8700  -30.7603   22.0309 H   0  0  0  0  0  0
  -28.1187  -28.7777   21.2350 H   0  0  0  0  0  0
  -25.8732  -25.8691   18.9431 H   0  0  0  0  0  0
  -23.9643  -27.3004   18.9822 H   0  0  0  0  0  0
  -23.8253  -30.5694   19.3954 H   0  0  0  0  0  0
  -22.7850  -29.2453   19.8254 H   0  0  0  0  0  0
  -25.1333  -36.1780   25.0760 H   0  0  0  0  0  0
  -20.9990  -28.3405   24.1271 H   0  0  0  0  0  0
  -20.5822  -26.2362   23.3693 H   0  0  0  0  0  0
  -21.6607  -26.7416   22.1091 H   0  0  0  0  0  0
  -19.6518  -27.2820   20.6751 H   0  0  0  0  0  0
  -19.6720  -25.5992   21.1613 H   0  0  0  0  0  0
  -17.4051  -26.6485   21.4340 H   0  0  0  0  0  0
  -18.0313  -26.0095   22.9379 H   0  0  0  0  0  0
  -19.7880  -30.7385   24.2115 H   0  0  0  0  0  0
  -17.4901  -31.6342   24.5019 H   0  0  0  0  0  0
  -15.5273  -30.3009   23.7539 H   0  0  0  0  0  0
  -15.8636  -28.0771   22.7142 H   0  0  0  0  0  0
  -24.5860  -30.7155   25.7704 H   0  0  0  0  0  0
  -24.8988  -32.2951   26.4791 H   0  0  0  0  0  0
  -25.8009  -30.8908   27.0168 H   0  0  0  0  0  0
  -26.3032  -29.6668   24.1227 H   0  0  0  0  0  0
  -27.4012  -29.7208   25.4820 H   0  0  0  0  0  0
  -27.8943  -30.4160   23.9580 H   0  0  0  0  0  0
  -27.2536  -33.3568   26.2091 H   0  0  0  0  0  0
  -28.3875  -32.6930   25.0423 H   0  0  0  0  0  0
  -28.0654  -31.8460   26.5483 H   0  0  0  0  0  0
  -28.2566  -38.0090   24.7475 H   0  0  0  0  0  0
  -28.1076  -36.2608   24.6324 H   0  0  0  0  0  0
  -27.2274  -37.1461   25.8867 H   0  0  0  0  0  0
  -20.9508  -29.8406   21.6370 H   0  0  0  0  0  0
  -26.0123  -38.2763   24.1422 H   0  0  0  0  0  0
  -28.8812  -20.3868   22.3169 H   0  0  0  0  0  0
  -29.3508  -18.0192   22.6264 H   0  0  0  0  0  0
  -29.3027  -19.8682   18.0893 H   0  0  0  0  0  0
  -25.6079  -22.8993   20.7206 H   0  0  0  0  0  0
  -26.0517  -21.4538   21.6179 H   0  0  0  0  0  0
  -27.9802  -22.4188   22.4865 H   0  0  0  0  0  0
  -27.2100  -23.9558   22.1225 H   0  0  0  0  0  0
  -26.7587  -22.2536   18.8197 H   0  0  0  0  0  0
  -26.7495  -20.6600   19.5084 H   0  0  0  0  0  0
  -29.5925  -23.3253   21.0275 H   0  0  0  0  0  0
  -27.2298  -24.4517   19.3324 H   0  0  0  0  0  0
  -28.8470  -24.6493   18.8723 H   0  0  0  0  0  0
  -28.9103  -15.6329   21.2811 H   0  0  0  0  0  0
  1 25  1  0  0  0
  1 30  2  0  0  0
  1 83  1  0  0  0
  2  3  1  0  0  0
  2 25  1  0  0  0
  2 85  1  0  0  0
  2 86  1  0  0  0
  3  4  1  0  0  0
  3 87  1  0  0  0
  3 88  1  0  0  0
  4  5  1  0  0  0
  4 89  1  0  0  0
  4 90  1  0  0  0
  5  6  1  0  0  0
  5 26  1  0  0  0
  5 91  1  0  0  0
  6 25  1  0  0  0
  6 92  1  0  0  0
  6 93  1  0  0  0
  7  8  2  0  0  0
  7 26  1  0  0  0
  7 29  1  0  0  0
  8  9  1  0  0  0
  8 22  1  0  0  0
  9 10  1  0  0  0
  9 27  2  0  0  0
 10 11  2  0  0  0
 10 15  1  0  0  0
 11 12  1  0  0  0
 11 94  1  0  0  0
 12 13  2  0  0  0
 12 95  1  0  0  0
 13 14  1  0  0  0
 13 31  1  0  0  0
 14 15  2  0  0  0
 14 96  1  0  0  0
 15 97  1  0  0  0
 16 17  2  0  0  0
 16 21  1  0  0  0
 16 31  1  0  0  0
 17 18  1  0  0  0
 17 98  1  0  0  0
 18 19  2  0  0  0
 18 99  1  0  0  0
 19 20  1  0  0  0
 19 24  1  0  0  0
 20 21  2  0  0  0
 20100  1  0  0  0
 21 23  1  0  0  0
 22 28  1  0  0  0
 22 32  2  0  0  0
 26 27  1  0  0  0
 28101  1  0  0  0
 28102  1  0  0  0
 29103  1  0  0  0
 29104  1  0  0  0
 33 34  1  0  0  0
 33 66  1  0  0  0
 33 70  2  0  0  0
 34 36  1  0  0  0
 34 59  1  0  0  0
 34105  1  0  0  0
 35 44  2  0  0  0
 35 45  1  0  0  0
 35 68  1  0  0  0
 36 56  1  0  0  0
 36106  1  0  0  0
 37 39  1  0  0  0
 37 47  1  0  0  0
 37 66  1  0  0  0
 37107  1  0  0  0
 38 43  2  0  0  0
 38 46  1  0  0  0
 38 47  1  0  0  0
 39 64  1  0  0  0
 39 67  2  0  0  0
 40 52  1  0  0  0
 40 53  2  0  0  0
 40 58  1  0  0  0
 41108  1  0  0  0
 41109  1  0  0  0
 41110  1  0  0  0
 41 48  1  0  0  0
 42 43  1  0  0  0
 42 66  1  0  0  0
 42111  1  0  0  0
 42112  1  0  0  0
 43 44  1  0  0  0
 44113  1  0  0  0
 45 46  2  0  0  0
 45114  1  0  0  0
 46115  1  0  0  0
 47116  1  0  0  0
 47117  1  0  0  0
 48 56  1  0  0  0
 48 65  1  0  0  0
 48118  1  0  0  0
 49 50  1  0  0  0
 49 53  1  0  0  0
 49 64  1  0  0  0
 49119  1  0  0  0
 50 51  1  0  0  0
 50120  1  0  0  0
 50121  1  0  0  0
 51 52  1  0  0  0
 51122  1  0  0  0
 51123  1  0  0  0
 52124  1  0  0  0
 52125  1  0  0  0
 53 54  1  0  0  0
 54 55  2  0  0  0
 54126  1  0  0  0
 55 57  1  0  0  0
 55127  1  0  0  0
 56 69  2  0  0  0
 57 58  2  0  0  0
 57128  1  0  0  0
 58129  1  0  0  0
 59 60  1  0  0  0
 59 61  1  0  0  0
 59 62  1  0  0  0
 60130  1  0  0  0
 60131  1  0  0  0
 60132  1  0  0  0
 61133  1  0  0  0
 61134  1  0  0  0
 61135  1  0  0  0
 62136  1  0  0  0
 62137  1  0  0  0
 62138  1  0  0  0
 63 65  1  0  0  0
 63139  1  0  0  0
 63140  1  0  0  0
 63141  1  0  0  0
 64142  1  0  0  0
 65143  1  0  0  0
 68 81  1  0  0  0
 71 72  2  0  0  0
 71 74  1  0  0  0
 71144  1  0  0  0
 72 75  1  0  0  0
 72145  1  0  0  0
 73 74  2  0  0  0
 73 76  1  0  0  0
 73146  1  0  0  0
 74 82  1  0  0  0
 75 76  2  0  0  0
 75 83  1  0  0  0
 76 84  1  0  0  0
 77 78  1  0  0  0
 77 79  1  0  0  0
 77147  1  0  0  0
 77148  1  0  0  0
 78 80  1  0  0  0
 78149  1  0  0  0
 78150  1  0  0  0
 79 82  1  0  0  0
 79151  1  0  0  0
 79152  1  0  0  0
 80 81  1  0  0  0
 80 82  1  0  0  0
 80153  1  0  0  0
 81154  1  0  0  0
 81155  1  0  0  0
 83156  1  0  0  0
M  ISO  4   1 100  68 101  81 101  83 100
M  END
> <chiral flag>
0

> <version>
0

> <s_m_source_file>
/data/baiqing/PycharmProjects/Reinvent-master-3.2/result/LINK_invent/BTK/process_docking_weight1_custom_product_contain_oxygen_bond_distance_aromatic_linkinvent_7_9_3/rearranged_h_0021.sdf

> <i_m_source_file_index>
67

> <r_mmod_Potential_Energy-OPLS-2005>
531.282592773438

> <r_mmod_Stretch_Energy-OPLS-2005>
225.458450317383

> <r_mmod_Bend_Energy-OPLS-2005>
307.200744628906

> <r_mmod_Torsional_Energy-OPLS-2005>
312.058776855469

> <r_mmod_Improper_Torsional_Energy-OPLS-2005>
11.6037616729736

> <r_mmod_Van_der_Waal_Energy-OPLS-2005>
129.824020385742

> <r_mmod_Electrostatic_Energy-OPLS-2005>
-390.888580322266

> <r_mmod_Solvation_Energy-OPLS-2005>
-232.704711914062

> <b_mmod_Minimization_Converged-OPLS-2005>
0

> <r_mmod_RMS_Derivative-OPLS-2005>
4.25217485427856

$$$$
67
                    3D
 Structure written by MMmdl.
159168  0  0  1  0            999 V2000
  -30.5188  -14.9086   20.4364 C   0  0  0  0  0  0
  -30.4510  -12.5598   19.4891 C   0  0  0  0  0  0
  -29.5250  -12.5331   18.2503 C   0  0  0  0  0  0
  -28.0548  -12.3242   18.6641 C   0  0  0  0  0  0
  -27.6384  -13.2376   19.8460 C   0  0  2  0  0  0
  -28.6824  -13.2158   20.9826 C   0  0  0  0  0  0
  -25.2510  -13.8195   20.5713 C   0  0  0  0  0  0
  -24.1807  -13.0435   20.9221 C   0  0  0  0  0  0
  -24.6401  -11.6913   20.8739 C   0  0  0  0  0  0
  -23.9077  -10.4290   21.0398 C   0  0  0  0  0  0
  -24.3627   -9.4209   21.9176 C   0  0  0  0  0  0
  -23.6305   -8.2243   22.0748 C   0  0  0  0  0  0
  -22.4286   -8.0279   21.3542 C   0  0  0  0  0  0
  -21.9923   -9.0250   20.4639 C   0  0  0  0  0  0
  -22.7247  -10.2132   20.3049 C   0  0  0  0  0  0
  -21.6858   -6.0737   22.5281 C   0  0  0  0  0  0
  -21.4016   -6.5638   23.8213 C   0  0  0  0  0  0
  -21.3661   -5.6790   24.9173 C   0  0  0  0  0  0
  -21.6047   -4.3053   24.7225 C   0  0  0  0  0  0
  -21.8816   -3.8147   23.4348 C   0  0  0  0  0  0
  -21.9197   -4.6964   22.3402 C   0  0  0  0  0  0
  -22.7826  -13.5214   21.1878 C   0  0  0  0  0  0
  -22.1661   -4.2150   21.0980 F   0  0  0  0  0  0
  -21.5631   -3.4536   25.7736 F   0  0  0  0  0  0
  -29.9667  -13.6317   20.4005 N   0  0  0  0  0  0
  -26.2927  -12.9405   20.3258 N   0  0  0  0  0  0
  -25.9334  -11.6546   20.5727 N   0  0  0  0  0  0
  -22.0468  -12.8199   22.0427 N   0  0  0  0  0  0
  -25.4194  -15.1926   20.4143 N   0  0  0  0  0  0
  -31.7078  -15.0313   20.1253 O   0  0  0  0  0  0
  -21.6647   -6.8881   21.4240 O   0  0  0  0  0  0
  -22.3505  -14.5506   20.6708 O   0  0  0  0  0  0
  -24.6408  -31.8465   23.1899 C   0  0  0  0  0  0
  -25.9186  -32.4712   23.8283 C   0  0  1  0  0  0
  -27.2235  -27.1610   20.1554 C   0  0  0  0  0  0
  -25.5948  -33.8518   24.2211 N   0  0  0  0  0  0
  -23.4442  -30.4642   21.5353 C   0  0  2  0  0  0
  -24.8953  -28.8921   20.1158 C   0  0  0  0  0  0
  -22.7558  -29.4551   22.4878 C   0  0  0  0  0  0
  -18.0301  -28.1400   22.8474 C   0  0  0  0  0  0
  -24.1489  -36.7258   23.2641 C   0  0  0  0  0  0
  -25.9973  -30.7296   21.3838 C   0  0  0  0  0  0
  -26.0714  -29.3404   20.7310 C   0  0  0  0  0  0
  -27.2386  -28.4915   20.7317 C   0  0  0  0  0  0
  -26.0243  -26.8093   19.4991 C   0  0  0  0  0  0
  -24.8829  -27.6392   19.4845 C   0  0  0  0  0  0
  -23.6702  -29.7909   20.1556 C   0  0  0  0  0  0
  -25.4124  -36.3047   24.0318 C   0  0  1  0  0  0
  -20.5911  -28.3717   23.1246 C   0  0  2  0  0  0
  -20.6789  -26.9425   22.5404 C   0  0  0  0  0  0
  -19.5764  -26.6384   21.5213 C   0  0  0  0  0  0
  -18.1946  -26.7938   22.1621 C   0  0  0  0  0  0
  -19.1558  -28.8876   23.2851 C   0  0  0  0  0  0
  -18.9473  -30.1473   23.8876 C   0  0  0  0  0  0
  -17.6469  -30.6594   24.0559 C   0  0  0  0  0  0
  -25.9068  -34.9418   23.5073 C   0  0  0  0  0  0
  -16.5361  -29.9088   23.6336 C   0  0  0  0  0  0
  -16.7285  -28.6509   23.0350 C   0  0  0  0  0  0
  -26.4524  -31.6560   25.0704 C   0  0  0  0  0  0
  -25.3713  -31.3725   26.1393 C   0  0  0  0  0  0
  -27.0387  -30.2965   24.6250 C   0  0  0  0  0  0
  -27.6067  -32.4308   25.7493 C   0  0  0  0  0  0
  -27.5578  -37.1789   24.8467 C   0  0  0  0  0  0
  -21.4252  -29.3047   22.3624 N   0  0  0  0  0  0
  -26.4291  -37.3756   23.9409 N   0  0  0  0  0  0
  -24.7139  -31.0338   22.0925 N   0  0  0  0  0  0
  -23.4209  -28.8099   23.3024 O   0  0  0  0  0  0
  -28.2939  -26.2023   20.1757 O   0  0  0  0  0  0
  -26.5648  -34.8910   22.4649 O   0  0  0  0  0  0
  -23.5531  -32.1328   23.7127 O   0  0  0  0  0  0
  -28.5561  -18.1822   21.3768 C   0  0  0  0  0  0
  -30.1076  -19.9431   19.9290 C   0  0  0  0  0  0
  -28.3048  -19.6066   21.4176 C   0  0  0  0  0  0
  -29.0721  -20.5880   20.6973 C   0  0  0  0  0  0
  -29.5952  -17.5289   20.6410 C   0  0  0  0  0  0
  -30.3627  -18.4993   19.8930 C   0  0  0  0  0  0
  -30.7659  -23.2251   21.7382 C   0  0  0  0  0  0
  -30.4489  -23.7072   20.3176 C   0  0  0  0  0  0
  -29.5469  -22.3961   22.1658 C   0  0  0  0  0  0
  -28.9728  -23.3602   20.1208 C   0  0  2  0  0  0
  -27.1607  -20.0787   22.3030 C   0  0  0  0  0  0
  -28.0506  -24.7131   20.5345 C   0  0  0  0  0  0
  -28.8397  -22.0446   20.9361 N   0  0  0  0  0  0
  -29.6508  -15.9958   20.6900 N   0  0  0  0  0  0
  -31.6424  -17.9548   18.8703 Cl  0  0  0  0  0  0
  -31.4830  -12.7303   19.1783 H   0  0  0  0  0  0
  -30.4472  -11.5933   19.9957 H   0  0  0  0  0  0
  -29.8359  -11.7464   17.5621 H   0  0  0  0  0  0
  -29.6203  -13.4718   17.7016 H   0  0  0  0  0  0
  -27.9399  -11.2774   18.9494 H   0  0  0  0  0  0
  -27.3947  -12.4814   17.8104 H   0  0  0  0  0  0
  -27.6157  -14.2498   19.4419 H   0  0  0  0  0  0
  -28.7595  -12.2198   21.4212 H   0  0  0  0  0  0
  -28.3851  -13.8827   21.7929 H   0  0  0  0  0  0
  -25.2772   -9.5688   22.4748 H   0  0  0  0  0  0
  -24.0016   -7.4634   22.7464 H   0  0  0  0  0  0
  -21.0855   -8.8761   19.8949 H   0  0  0  0  0  0
  -22.3697  -10.9666   19.6154 H   0  0  0  0  0  0
  -21.2004   -7.6145   23.9718 H   0  0  0  0  0  0
  -21.1487   -6.0518   25.9075 H   0  0  0  0  0  0
  -22.0600   -2.7610   23.2845 H   0  0  0  0  0  0
  -22.4100  -11.9882   22.4845 H   0  0  0  0  0  0
  -21.1068  -13.1194   22.2598 H   0  0  0  0  0  0
  -24.6473  -15.8407   20.5261 H   0  0  0  0  0  0
  -26.2518  -15.6339   20.0464 H   0  0  0  0  0  0
  -26.7254  -32.5339   23.1017 H   0  0  0  0  0  0
  -25.0083  -33.9640   25.0350 H   0  0  0  0  0  0
  -22.7457  -31.2890   21.3799 H   0  0  0  0  0  0
  -23.3762  -35.9576   23.3294 H   0  0  0  0  0  0
  -24.3572  -36.8897   22.2055 H   0  0  0  0  0  0
  -23.7228  -37.6448   23.6677 H   0  0  0  0  0  0
  -26.1430  -31.4833   20.6086 H   0  0  0  0  0  0
  -26.8711  -30.7859   22.0209 H   0  0  0  0  0  0
  -28.1388  -28.8326   21.2237 H   0  0  0  0  0  0
  -25.9519  -25.8577   18.9937 H   0  0  0  0  0  0
  -23.9876  -27.2945   18.9856 H   0  0  0  0  0  0
  -23.8041  -30.5630   19.3969 H   0  0  0  0  0  0
  -22.7867  -29.2286   19.8471 H   0  0  0  0  0  0
  -25.1311  -36.1887   25.0810 H   0  0  0  0  0  0
  -20.9999  -28.3306   24.1368 H   0  0  0  0  0  0
  -20.5696  -26.2330   23.3619 H   0  0  0  0  0  0
  -21.6657  -26.7445   22.1199 H   0  0  0  0  0  0
  -19.6930  -25.6291   21.1259 H   0  0  0  0  0  0
  -19.6708  -27.3180   20.6734 H   0  0  0  0  0  0
  -17.4217  -26.6673   21.4025 H   0  0  0  0  0  0
  -18.0349  -26.0089   22.9029 H   0  0  0  0  0  0
  -19.7946  -30.7296   24.2243 H   0  0  0  0  0  0
  -17.5019  -31.6273   24.5161 H   0  0  0  0  0  0
  -15.5360  -30.2981   23.7672 H   0  0  0  0  0  0
  -15.8685  -28.0821   22.7077 H   0  0  0  0  0  0
  -24.5909  -30.7062   25.7698 H   0  0  0  0  0  0
  -24.8873  -32.2892   26.4772 H   0  0  0  0  0  0
  -25.7989  -30.8925   27.0203 H   0  0  0  0  0  0
  -26.2994  -29.6693   24.1253 H   0  0  0  0  0  0
  -27.4020  -29.7258   25.4808 H   0  0  0  0  0  0
  -27.8893  -30.4223   23.9547 H   0  0  0  0  0  0
  -27.2684  -33.3628   26.2032 H   0  0  0  0  0  0
  -28.3904  -32.6832   25.0336 H   0  0  0  0  0  0
  -28.0704  -31.8448   26.5440 H   0  0  0  0  0  0
  -28.2595  -38.0088   24.7519 H   0  0  0  0  0  0
  -28.1079  -36.2618   24.6294 H   0  0  0  0  0  0
  -27.2290  -37.1435   25.8868 H   0  0  0  0  0  0
  -20.9465  -29.8749   21.6788 H   0  0  0  0  0  0
  -26.0164  -38.2826   24.1414 H   0  0  0  0  0  0
  -27.9029  -17.5506   21.9615 H   0  0  0  0  0  0
  -30.7658  -20.5757   19.3529 H   0  0  0  0  0  0
  -30.9304  -24.0559   22.4255 H   0  0  0  0  0  0
  -31.6713  -22.6163   21.7378 H   0  0  0  0  0  0
  -31.0551  -23.1531   19.5996 H   0  0  0  0  0  0
  -30.6606  -24.7670   20.1697 H   0  0  0  0  0  0
  -28.8853  -22.9863   22.8017 H   0  0  0  0  0  0
  -29.8578  -21.5349   22.7624 H   0  0  0  0  0  0
  -28.7983  -23.1441   19.0661 H   0  0  0  0  0  0
  -26.4942  -19.2599   22.5736 H   0  0  0  0  0  0
  -26.5600  -20.8336   21.7949 H   0  0  0  0  0  0
  -27.5487  -20.5144   23.2237 H   0  0  0  0  0  0
  -28.0217  -24.7378   21.6232 H   0  0  0  0  0  0
  -27.0283  -24.4565   20.2634 H   0  0  0  0  0  0
  -28.7721  -15.6162   21.0037 H   0  0  0  0  0  0
  1 25  1  0  0  0
  1 30  2  0  0  0
  1 84  1  0  0  0
  2  3  1  0  0  0
  2 25  1  0  0  0
  2 86  1  0  0  0
  2 87  1  0  0  0
  3  4  1  0  0  0
  3 88  1  0  0  0
  3 89  1  0  0  0
  4  5  1  0  0  0
  4 90  1  0  0  0
  4 91  1  0  0  0
  5  6  1  0  0  0
  5 26  1  0  0  0
  5 92  1  0  0  0
  6 25  1  0  0  0
  6 93  1  0  0  0
  6 94  1  0  0  0
  7  8  2  0  0  0
  7 26  1  0  0  0
  7 29  1  0  0  0
  8  9  1  0  0  0
  8 22  1  0  0  0
  9 10  1  0  0  0
  9 27  2  0  0  0
 10 11  2  0  0  0
 10 15  1  0  0  0
 11 12  1  0  0  0
 11 95  1  0  0  0
 12 13  2  0  0  0
 12 96  1  0  0  0
 13 14  1  0  0  0
 13 31  1  0  0  0
 14 15  2  0  0  0
 14 97  1  0  0  0
 15 98  1  0  0  0
 16 17  2  0  0  0
 16 21  1  0  0  0
 16 31  1  0  0  0
 17 18  1  0  0  0
 17 99  1  0  0  0
 18 19  2  0  0  0
 18100  1  0  0  0
 19 20  1  0  0  0
 19 24  1  0  0  0
 20 21  2  0  0  0
 20101  1  0  0  0
 21 23  1  0  0  0
 22 28  1  0  0  0
 22 32  2  0  0  0
 26 27  1  0  0  0
 28102  1  0  0  0
 28103  1  0  0  0
 29104  1  0  0  0
 29105  1  0  0  0
 33 34  1  0  0  0
 33 66  1  0  0  0
 33 70  2  0  0  0
 34 36  1  0  0  0
 34 59  1  0  0  0
 34106  1  0  0  0
 35 44  2  0  0  0
 35 45  1  0  0  0
 35 68  1  0  0  0
 36 56  1  0  0  0
 36107  1  0  0  0
 37 39  1  0  0  0
 37 47  1  0  0  0
 37 66  1  0  0  0
 37108  1  0  0  0
 38 43  2  0  0  0
 38 46  1  0  0  0
 38 47  1  0  0  0
 39 64  1  0  0  0
 39 67  2  0  0  0
 40 52  1  0  0  0
 40 53  2  0  0  0
 40 58  1  0  0  0
 41109  1  0  0  0
 41110  1  0  0  0
 41111  1  0  0  0
 41 48  1  0  0  0
 42 43  1  0  0  0
 42 66  1  0  0  0
 42112  1  0  0  0
 42113  1  0  0  0
 43 44  1  0  0  0
 44114  1  0  0  0
 45 46  2  0  0  0
 45115  1  0  0  0
 46116  1  0  0  0
 47117  1  0  0  0
 47118  1  0  0  0
 48 56  1  0  0  0
 48 65  1  0  0  0
 48119  1  0  0  0
 49 50  1  0  0  0
 49 53  1  0  0  0
 49 64  1  0  0  0
 49120  1  0  0  0
 50 51  1  0  0  0
 50121  1  0  0  0
 50122  1  0  0  0
 51 52  1  0  0  0
 51123  1  0  0  0
 51124  1  0  0  0
 52125  1  0  0  0
 52126  1  0  0  0
 53 54  1  0  0  0
 54 55  2  0  0  0
 54127  1  0  0  0
 55 57  1  0  0  0
 55128  1  0  0  0
 56 69  2  0  0  0
 57 58  2  0  0  0
 57129  1  0  0  0
 58130  1  0  0  0
 59 60  1  0  0  0
 59 61  1  0  0  0
 59 62  1  0  0  0
 60131  1  0  0  0
 60132  1  0  0  0
 60133  1  0  0  0
 61134  1  0  0  0
 61135  1  0  0  0
 61136  1  0  0  0
 62137  1  0  0  0
 62138  1  0  0  0
 62139  1  0  0  0
 63 65  1  0  0  0
 63140  1  0  0  0
 63141  1  0  0  0
 63142  1  0  0  0
 64143  1  0  0  0
 65144  1  0  0  0
 68 82  1  0  0  0
 71 73  2  0  0  0
 71 75  1  0  0  0
 71145  1  0  0  0
 72 74  2  0  0  0
 72 76  1  0  0  0
 72146  1  0  0  0
 73 74  1  0  0  0
 73 81  1  0  0  0
 74 83  1  0  0  0
 75 76  2  0  0  0
 75 84  1  0  0  0
 76 85  1  0  0  0
 77 78  1  0  0  0
 77 79  1  0  0  0
 77147  1  0  0  0
 77148  1  0  0  0
 78 80  1  0  0  0
 78149  1  0  0  0
 78150  1  0  0  0
 79 83  1  0  0  0
 79151  1  0  0  0
 79152  1  0  0  0
 80 82  1  0  0  0
 80 83  1  0  0  0
 80153  1  0  0  0
 81154  1  0  0  0
 81155  1  0  0  0
 81156  1  0  0  0
 82157  1  0  0  0
 82158  1  0  0  0
 84159  1  0  0  0
M  ISO  4   1 100  68 101  82 101  84 100
M  END
> <chiral flag>
0

> <version>
0

> <s_m_source_file>
/data/baiqing/PycharmProjects/Reinvent-master-3.2/result/LINK_invent/BTK/process_docking_weight1_custom_product_contain_oxygen_bond_distance_aromatic_linkinvent_7_9_3/rearranged_h_0021.sdf

> <i_m_source_file_index>
68

> <r_mmod_Potential_Energy-OPLS-2005>
521.452026367188

> <r_mmod_Stretch_Energy-OPLS-2005>
215.623901367188

> <r_mmod_Bend_Energy-OPLS-2005>
317.029144287109

> <r_mmod_Torsional_Energy-OPLS-2005>
310.472961425781

> <r_mmod_Improper_Torsional_Energy-OPLS-2005>
9.26522254943848

> <r_mmod_Van_der_Waal_Energy-OPLS-2005>
128.908340454102

> <r_mmod_Electrostatic_Energy-OPLS-2005>
-403.697845458984

> <r_mmod_Solvation_Energy-OPLS-2005>
-220.963455200195

> <b_mmod_Minimization_Converged-OPLS-2005>
0

> <r_mmod_RMS_Derivative-OPLS-2005>
1.16180515289307

$$$$
68
                    3D
 Structure written by MMmdl.
158166  0  0  1  0            999 V2000
  -30.4959  -15.0631   20.3771 C   0  0  0  0  0  0
  -30.4404  -12.6532   19.5423 C   0  0  0  0  0  0
  -29.5407  -12.5507   18.2859 C   0  0  0  0  0  0
  -28.0725  -12.3219   18.6929 C   0  0  0  0  0  0
  -27.6259  -13.2647   19.8411 C   0  0  2  0  0  0
  -28.6585  -13.3433   20.9880 C   0  0  0  0  0  0
  -25.2415  -13.8232   20.5730 C   0  0  0  0  0  0
  -24.1740  -13.0445   20.9243 C   0  0  0  0  0  0
  -24.6392  -11.6941   20.8765 C   0  0  0  0  0  0
  -23.9093  -10.4290   21.0409 C   0  0  0  0  0  0
  -24.3638   -9.4197   21.9181 C   0  0  0  0  0  0
  -23.6299   -8.2242   22.0772 C   0  0  0  0  0  0
  -22.4276   -8.0284   21.3562 C   0  0  0  0  0  0
  -21.9904   -9.0268   20.4667 C   0  0  0  0  0  0
  -22.7255  -10.2130   20.3058 C   0  0  0  0  0  0
  -21.6839   -6.0744   22.5281 C   0  0  0  0  0  0
  -21.4024   -6.5652   23.8220 C   0  0  0  0  0  0
  -21.3665   -5.6800   24.9184 C   0  0  0  0  0  0
  -21.6027   -4.3057   24.7223 C   0  0  0  0  0  0
  -21.8814   -3.8153   23.4340 C   0  0  0  0  0  0
  -21.9185   -4.6972   22.3401 C   0  0  0  0  0  0
  -22.7757  -13.5222   21.1866 C   0  0  0  0  0  0
  -22.1641   -4.2169   21.0973 F   0  0  0  0  0  0
  -21.5621   -3.4539   25.7729 F   0  0  0  0  0  0
  -29.9294  -13.7771   20.3930 N   0  0  0  0  0  0
  -26.2864  -12.9508   20.3262 N   0  0  0  0  0  0
  -25.9331  -11.6622   20.5740 N   0  0  0  0  0  0
  -22.0395  -12.8256   22.0435 N   0  0  0  0  0  0
  -25.4042  -15.1965   20.4176 N   0  0  0  0  0  0
  -31.6879  -15.1093   20.0521 O   0  0  0  0  0  0
  -21.6630   -6.8887   21.4247 O   0  0  0  0  0  0
  -22.3461  -14.5527   20.6703 O   0  0  0  0  0  0
  -24.6465  -31.8343   23.1806 C   0  0  0  0  0  0
  -25.9224  -32.4647   23.8211 C   0  0  1  0  0  0
  -27.2294  -27.0770   20.1614 C   0  0  0  0  0  0
  -25.5962  -33.8456   24.2128 N   0  0  0  0  0  0
  -23.4550  -30.4479   21.5229 C   0  0  2  0  0  0
  -24.9089  -28.8558   20.1027 C   0  0  0  0  0  0
  -22.7584  -29.4486   22.4802 C   0  0  0  0  0  0
  -18.0323  -28.1395   22.8478 C   0  0  0  0  0  0
  -24.1495  -36.7220   23.2641 C   0  0  0  0  0  0
  -26.0115  -30.6872   21.3910 C   0  0  0  0  0  0
  -26.0810  -29.2935   20.7304 C   0  0  0  0  0  0
  -27.2327  -28.4161   20.7447 C   0  0  0  0  0  0
  -26.0348  -26.7464   19.4887 C   0  0  0  0  0  0
  -24.9012  -27.6002   19.4669 C   0  0  0  0  0  0
  -23.6876  -29.7647   20.1449 C   0  0  0  0  0  0
  -25.4133  -36.2989   24.0297 C   0  0  1  0  0  0
  -20.5926  -28.3718   23.1221 C   0  0  2  0  0  0
  -20.6793  -26.9408   22.5403 C   0  0  0  0  0  0
  -19.5776  -26.6360   21.5207 C   0  0  0  0  0  0
  -18.1960  -26.7935   22.1614 C   0  0  0  0  0  0
  -19.1574  -28.8875   23.2841 C   0  0  0  0  0  0
  -18.9491  -30.1474   23.8864 C   0  0  0  0  0  0
  -17.6486  -30.6586   24.0557 C   0  0  0  0  0  0
  -25.9087  -34.9375   23.5015 C   0  0  0  0  0  0
  -16.5378  -29.9072   23.6345 C   0  0  0  0  0  0
  -16.7304  -28.6491   23.0364 C   0  0  0  0  0  0
  -26.4528  -31.6576   25.0705 C   0  0  0  0  0  0
  -25.3705  -31.3810   26.1399 C   0  0  0  0  0  0
  -27.0420  -30.2965   24.6375 C   0  0  0  0  0  0
  -27.6025  -32.4373   25.7503 C   0  0  0  0  0  0
  -27.5575  -37.1760   24.8453 C   0  0  0  0  0  0
  -21.4270  -29.3026   22.3565 N   0  0  0  0  0  0
  -26.4281  -37.3715   23.9407 N   0  0  0  0  0  0
  -24.7233  -31.0143   22.0860 N   0  0  0  0  0  0
  -23.4202  -28.8037   23.2977 O   0  0  0  0  0  0
  -28.2905  -26.0985   20.3252 O   0  0  0  0  0  0
  -26.5659  -34.8889   22.4595 O   0  0  0  0  0  0
  -23.5575  -32.1225   23.7018 O   0  0  0  0  0  0
  -30.2707  -17.9240   18.7587 C   0  0  0  0  0  0
  -29.2894  -19.0451   20.6497 C   0  0  0  0  0  0
  -30.2719  -19.1714   18.0703 C   0  0  0  0  0  0
  -29.7865  -20.3848   18.6697 C   0  0  0  0  0  0
  -29.7801  -17.7448   20.0670 C   0  0  0  0  0  0
  -29.2786  -20.4106   20.0003 C   0  0  0  0  0  0
  -29.8573  -21.7073   17.8994 C   0  0  0  0  0  0
  -29.4558  -21.8804   21.9667 C   0  0  0  0  0  0
  -28.0603  -23.0230   20.1871 C   0  0  0  0  0  0
  -28.5181  -24.6317   19.7658 C   0  0  0  0  0  0
  -30.8392  -19.1745   16.6424 C   0  0  0  0  0  0
  -29.7343  -16.2742   20.6092 N   0  0  0  0  0  0
  -28.9595  -21.7680   20.6011 N   0  0  0  0  0  0
  -31.1353  -17.9513   16.2013 F   0  0  0  0  0  0
  -29.9588  -19.6893   15.7820 F   0  0  0  0  0  0
  -31.9651  -19.8889   16.5972 F   0  0  0  0  0  0
  -31.4819  -12.7969   19.2525 H   0  0  0  0  0  0
  -30.4297  -11.7183   20.1044 H   0  0  0  0  0  0
  -29.8819  -11.7453   17.6345 H   0  0  0  0  0  0
  -29.6252  -13.4685   17.7024 H   0  0  0  0  0  0
  -27.9799  -11.2840   19.0167 H   0  0  0  0  0  0
  -27.4171  -12.4320   17.8282 H   0  0  0  0  0  0
  -27.5751  -14.2581   19.3924 H   0  0  0  0  0  0
  -28.7644  -12.3843   21.4961 H   0  0  0  0  0  0
  -28.3368  -14.0568   21.7488 H   0  0  0  0  0  0
  -25.2782   -9.5671   22.4771 H   0  0  0  0  0  0
  -23.9998   -7.4634   22.7495 H   0  0  0  0  0  0
  -21.0831   -8.8798   19.8982 H   0  0  0  0  0  0
  -22.3708  -10.9683   19.6176 H   0  0  0  0  0  0
  -21.2030   -7.6158   23.9742 H   0  0  0  0  0  0
  -21.1491   -6.0520   25.9091 H   0  0  0  0  0  0
  -22.0585   -2.7618   23.2829 H   0  0  0  0  0  0
  -22.3986  -11.9939   22.4866 H   0  0  0  0  0  0
  -21.1016  -13.1309   22.2638 H   0  0  0  0  0  0
  -24.6275  -15.8396   20.5216 H   0  0  0  0  0  0
  -26.2426  -15.6407   20.0689 H   0  0  0  0  0  0
  -26.7286  -32.5221   23.0924 H   0  0  0  0  0  0
  -25.0128  -33.9562   25.0286 H   0  0  0  0  0  0
  -22.7615  -31.2753   21.3600 H   0  0  0  0  0  0
  -23.3769  -35.9533   23.3240 H   0  0  0  0  0  0
  -24.3580  -36.8925   22.2068 H   0  0  0  0  0  0
  -23.7241  -37.6384   23.6736 H   0  0  0  0  0  0
  -26.1847  -31.4428   20.6233 H   0  0  0  0  0  0
  -26.8742  -30.7327   22.0440 H   0  0  0  0  0  0
  -28.1203  -28.7380   21.2720 H   0  0  0  0  0  0
  -25.9494  -25.7729   19.0275 H   0  0  0  0  0  0
  -24.0007  -27.2588   18.9746 H   0  0  0  0  0  0
  -23.8349  -30.5338   19.3861 H   0  0  0  0  0  0
  -22.8017  -29.2099   19.8292 H   0  0  0  0  0  0
  -25.1337  -36.1777   25.0785 H   0  0  0  0  0  0
  -21.0046  -28.3328   24.1328 H   0  0  0  0  0  0
  -20.5690  -26.2324   23.3628 H   0  0  0  0  0  0
  -21.6662  -26.7404   22.1203 H   0  0  0  0  0  0
  -19.6924  -25.6256   21.1273 H   0  0  0  0  0  0
  -19.6726  -27.3131   20.6710 H   0  0  0  0  0  0
  -17.4226  -26.6690   21.4014 H   0  0  0  0  0  0
  -18.0354  -26.0088   22.9022 H   0  0  0  0  0  0
  -19.7966  -30.7306   24.2201 H   0  0  0  0  0  0
  -17.5042  -31.6272   24.5145 H   0  0  0  0  0  0
  -15.5377  -30.2962   23.7682 H   0  0  0  0  0  0
  -15.8712  -28.0798   22.7091 H   0  0  0  0  0  0
  -24.5811  -30.7260   25.7694 H   0  0  0  0  0  0
  -24.9000  -32.3033   26.4816 H   0  0  0  0  0  0
  -25.7957  -30.8934   27.0183 H   0  0  0  0  0  0
  -26.3069  -29.6658   24.1372 H   0  0  0  0  0  0
  -27.3970  -29.7312   25.4999 H   0  0  0  0  0  0
  -27.8995  -30.4155   23.9753 H   0  0  0  0  0  0
  -27.2577  -33.3683   26.2003 H   0  0  0  0  0  0
  -28.3879  -32.6928   25.0383 H   0  0  0  0  0  0
  -28.0653  -31.8581   26.5498 H   0  0  0  0  0  0
  -28.2540  -38.0105   24.7536 H   0  0  0  0  0  0
  -28.1126  -36.2630   24.6232 H   0  0  0  0  0  0
  -27.2299  -37.1346   25.8857 H   0  0  0  0  0  0
  -20.9484  -29.8724   21.6726 H   0  0  0  0  0  0
  -26.0121  -38.2759   24.1458 H   0  0  0  0  0  0
  -30.6429  -17.0528   18.2424 H   0  0  0  0  0  0
  -28.9035  -18.9925   21.6576 H   0  0  0  0  0  0
  -30.4570  -21.6789   16.9952 H   0  0  0  0  0  0
  -30.3009  -22.4912   18.5121 H   0  0  0  0  0  0
  -28.8550  -22.0221   17.6076 H   0  0  0  0  0  0
  -30.0743  -21.0334   22.2670 H   0  0  0  0  0  0
  -28.6264  -21.9571   22.6702 H   0  0  0  0  0  0
  -30.0665  -22.7798   22.0674 H   0  0  0  0  0  0
  -27.4530  -22.6635   19.3568 H   0  0  0  0  0  0
  -27.3316  -23.1315   20.9906 H   0  0  0  0  0  0
  -28.2601  -24.7226   18.7096 H   0  0  0  0  0  0
  -29.6070  -24.5817   19.7413 H   0  0  0  0  0  0
  -28.8889  -16.0776   21.1229 H   0  0  0  0  0  0
  1 25  1  0  0  0
  1 30  2  0  0  0
  1 82  1  0  0  0
  2  3  1  0  0  0
  2 25  1  0  0  0
  2 87  1  0  0  0
  2 88  1  0  0  0
  3  4  1  0  0  0
  3 89  1  0  0  0
  3 90  1  0  0  0
  4  5  1  0  0  0
  4 91  1  0  0  0
  4 92  1  0  0  0
  5  6  1  0  0  0
  5 26  1  0  0  0
  5 93  1  0  0  0
  6 25  1  0  0  0
  6 94  1  0  0  0
  6 95  1  0  0  0
  7  8  2  0  0  0
  7 26  1  0  0  0
  7 29  1  0  0  0
  8  9  1  0  0  0
  8 22  1  0  0  0
  9 10  1  0  0  0
  9 27  2  0  0  0
 10 11  2  0  0  0
 10 15  1  0  0  0
 11 12  1  0  0  0
 11 96  1  0  0  0
 12 13  2  0  0  0
 12 97  1  0  0  0
 13 14  1  0  0  0
 13 31  1  0  0  0
 14 15  2  0  0  0
 14 98  1  0  0  0
 15 99  1  0  0  0
 16 17  2  0  0  0
 16 21  1  0  0  0
 16 31  1  0  0  0
 17 18  1  0  0  0
 17100  1  0  0  0
 18 19  2  0  0  0
 18101  1  0  0  0
 19 20  1  0  0  0
 19 24  1  0  0  0
 20 21  2  0  0  0
 20102  1  0  0  0
 21 23  1  0  0  0
 22 28  1  0  0  0
 22 32  2  0  0  0
 26 27  1  0  0  0
 28103  1  0  0  0
 28104  1  0  0  0
 29105  1  0  0  0
 29106  1  0  0  0
 33 34  1  0  0  0
 33 66  1  0  0  0
 33 70  2  0  0  0
 34 36  1  0  0  0
 34 59  1  0  0  0
 34107  1  0  0  0
 35 44  2  0  0  0
 35 45  1  0  0  0
 35 68  1  0  0  0
 36 56  1  0  0  0
 36108  1  0  0  0
 37 39  1  0  0  0
 37 47  1  0  0  0
 37 66  1  0  0  0
 37109  1  0  0  0
 38 43  2  0  0  0
 38 46  1  0  0  0
 38 47  1  0  0  0
 39 64  1  0  0  0
 39 67  2  0  0  0
 40 52  1  0  0  0
 40 53  2  0  0  0
 40 58  1  0  0  0
 41110  1  0  0  0
 41111  1  0  0  0
 41112  1  0  0  0
 41 48  1  0  0  0
 42 43  1  0  0  0
 42 66  1  0  0  0
 42113  1  0  0  0
 42114  1  0  0  0
 43 44  1  0  0  0
 44115  1  0  0  0
 45 46  2  0  0  0
 45116  1  0  0  0
 46117  1  0  0  0
 47118  1  0  0  0
 47119  1  0  0  0
 48 56  1  0  0  0
 48 65  1  0  0  0
 48120  1  0  0  0
 49 50  1  0  0  0
 49 53  1  0  0  0
 49 64  1  0  0  0
 49121  1  0  0  0
 50 51  1  0  0  0
 50122  1  0  0  0
 50123  1  0  0  0
 51 52  1  0  0  0
 51124  1  0  0  0
 51125  1  0  0  0
 52126  1  0  0  0
 52127  1  0  0  0
 53 54  1  0  0  0
 54 55  2  0  0  0
 54128  1  0  0  0
 55 57  1  0  0  0
 55129  1  0  0  0
 56 69  2  0  0  0
 57 58  2  0  0  0
 57130  1  0  0  0
 58131  1  0  0  0
 59 60  1  0  0  0
 59 61  1  0  0  0
 59 62  1  0  0  0
 60132  1  0  0  0
 60133  1  0  0  0
 60134  1  0  0  0
 61135  1  0  0  0
 61136  1  0  0  0
 61137  1  0  0  0
 62138  1  0  0  0
 62139  1  0  0  0
 62140  1  0  0  0
 63 65  1  0  0  0
 63141  1  0  0  0
 63142  1  0  0  0
 63143  1  0  0  0
 64144  1  0  0  0
 65145  1  0  0  0
 68 80  1  0  0  0
 71 73  2  0  0  0
 71 75  1  0  0  0
 71146  1  0  0  0
 72 75  2  0  0  0
 72 76  1  0  0  0
 72147  1  0  0  0
 73 74  1  0  0  0
 73 81  1  0  0  0
 74 76  2  0  0  0
 74 77  1  0  0  0
 75 82  1  0  0  0
 76 83  1  0  0  0
 77148  1  0  0  0
 77149  1  0  0  0
 77150  1  0  0  0
 78 83  1  0  0  0
 78151  1  0  0  0
 78152  1  0  0  0
 78153  1  0  0  0
 79 80  1  0  0  0
 79 83  1  0  0  0
 79154  1  0  0  0
 79155  1  0  0  0
 80156  1  0  0  0
 80157  1  0  0  0
 81 84  1  0  0  0
 81 85  1  0  0  0
 81 86  1  0  0  0
 82158  1  0  0  0
M  ISO  4   1 100  68 101  80 101  82 100
M  END
> <chiral flag>
0

> <version>
0

> <s_m_source_file>
/data/baiqing/PycharmProjects/Reinvent-master-3.2/result/LINK_invent/BTK/process_docking_weight1_custom_product_contain_oxygen_bond_distance_aromatic_linkinvent_7_9_3/rearranged_h_0021.sdf

> <i_m_source_file_index>
69

> <r_mmod_Potential_Energy-OPLS-2005>
820.900207519531

> <r_mmod_Stretch_Energy-OPLS-2005>
346.789916992188

> <r_mmod_Bend_Energy-OPLS-2005>
375.378051757812

> <r_mmod_Torsional_Energy-OPLS-2005>
244.856979370117

> <r_mmod_Improper_Torsional_Energy-OPLS-2005>
4.48703765869141

> <r_mmod_Van_der_Waal_Energy-OPLS-2005>
140.081497192383

> <r_mmod_Electrostatic_Energy-OPLS-2005>
-337.125122070312

> <r_mmod_Solvation_Energy-OPLS-2005>
-221.957366943359

> <b_mmod_Minimization_Converged-OPLS-2005>
0

> <r_mmod_RMS_Derivative-OPLS-2005>
2.96391105651855

$$$$
69
                    3D
 Structure written by MMmdl.
176186  0  0  1  0            999 V2000
  -30.5936  -14.7424   20.4460 C   0  0  0  0  0  0
  -30.4436  -12.4554   19.4472 C   0  0  0  0  0  0
  -29.5080  -12.4922   18.2191 C   0  0  0  0  0  0
  -28.0354  -12.3160   18.6456 C   0  0  0  0  0  0
  -27.6423  -13.2193   19.8446 C   0  0  2  0  0  0
  -28.6951  -13.1525   20.9704 C   0  0  0  0  0  0
  -25.2541  -13.8160   20.5687 C   0  0  0  0  0  0
  -24.1815  -13.0428   20.9207 C   0  0  0  0  0  0
  -24.6386  -11.6902   20.8760 C   0  0  0  0  0  0
  -23.9057  -10.4290   21.0416 C   0  0  0  0  0  0
  -24.3611   -9.4206   21.9193 C   0  0  0  0  0  0
  -23.6284   -8.2239   22.0757 C   0  0  0  0  0  0
  -22.4267   -8.0278   21.3544 C   0  0  0  0  0  0
  -21.9907   -9.0255   20.4650 C   0  0  0  0  0  0
  -22.7233  -10.2134   20.3063 C   0  0  0  0  0  0
  -21.6849   -6.0740   22.5275 C   0  0  0  0  0  0
  -21.4013   -6.5641   23.8214 C   0  0  0  0  0  0
  -21.3659   -5.6789   24.9171 C   0  0  0  0  0  0
  -21.6041   -4.3055   24.7218 C   0  0  0  0  0  0
  -21.8823   -3.8150   23.4341 C   0  0  0  0  0  0
  -21.9192   -4.6967   22.3397 C   0  0  0  0  0  0
  -22.7846  -13.5237   21.1849 C   0  0  0  0  0  0
  -22.1664   -4.2159   21.0974 F   0  0  0  0  0  0
  -21.5627   -3.4536   25.7731 F   0  0  0  0  0  0
  -29.9845  -13.5127   20.3682 N   0  0  0  0  0  0
  -26.2951  -12.9340   20.3281 N   0  0  0  0  0  0
  -25.9317  -11.6502   20.5768 N   0  0  0  0  0  0
  -22.0475  -12.8240   22.0403 N   0  0  0  0  0  0
  -25.4225  -15.1882   20.4080 N   0  0  0  0  0  0
  -31.8059  -14.8517   20.2448 O   0  0  0  0  0  0
  -21.6630   -6.8877   21.4238 O   0  0  0  0  0  0
  -22.3545  -14.5548   20.6693 O   0  0  0  0  0  0
  -24.6290  -31.8573   23.1984 C   0  0  0  0  0  0
  -25.9127  -32.4762   23.8314 C   0  0  1  0  0  0
  -27.2114  -27.2556   20.1318 C   0  0  0  0  0  0
  -25.5955  -33.8559   24.2250 N   0  0  0  0  0  0
  -23.4270  -30.4795   21.5424 C   0  0  2  0  0  0
  -24.8746  -28.9314   20.1092 C   0  0  0  0  0  0
  -22.7507  -29.4586   22.4900 C   0  0  0  0  0  0
  -18.0308  -28.1338   22.8456 C   0  0  0  0  0  0
  -24.1519  -36.7277   23.2632 C   0  0  0  0  0  0
  -25.9743  -30.7675   21.3831 C   0  0  0  0  0  0
  -26.0470  -29.3903   20.7234 C   0  0  0  0  0  0
  -27.2197  -28.5657   20.7244 C   0  0  0  0  0  0
  -26.0228  -26.8816   19.4681 C   0  0  0  0  0  0
  -24.8688  -27.6850   19.4676 C   0  0  0  0  0  0
  -23.6460  -29.8179   20.1578 C   0  0  0  0  0  0
  -25.4146  -36.3066   24.0319 C   0  0  1  0  0  0
  -20.5913  -28.3654   23.1254 C   0  0  2  0  0  0
  -20.6815  -26.9378   22.5384 C   0  0  0  0  0  0
  -19.5794  -26.6343   21.5186 C   0  0  0  0  0  0
  -18.1963  -26.7876   22.1587 C   0  0  0  0  0  0
  -19.1557  -28.8813   23.2843 C   0  0  0  0  0  0
  -18.9477  -30.1412   23.8863 C   0  0  0  0  0  0
  -17.6473  -30.6542   24.0532 C   0  0  0  0  0  0
  -25.9070  -34.9437   23.5079 C   0  0  0  0  0  0
  -16.5366  -29.9031   23.6313 C   0  0  0  0  0  0
  -16.7291  -28.6447   23.0341 C   0  0  0  0  0  0
  -26.4494  -31.6580   25.0692 C   0  0  0  0  0  0
  -25.3710  -31.3738   26.1404 C   0  0  0  0  0  0
  -27.0357  -30.3007   24.6170 C   0  0  0  0  0  0
  -27.6051  -32.4317   25.7469 C   0  0  0  0  0  0
  -27.5601  -37.1800   24.8465 C   0  0  0  0  0  0
  -21.4219  -29.3007   22.3653 N   0  0  0  0  0  0
  -26.4323  -37.3759   23.9393 N   0  0  0  0  0  0
  -24.6954  -31.0533   22.0965 N   0  0  0  0  0  0
  -23.4209  -28.8123   23.2994 O   0  0  0  0  0  0
  -28.2917  -26.3410   20.1700 O   0  0  0  0  0  0
  -26.5618  -34.8912   22.4629 O   0  0  0  0  0  0
  -23.5446  -32.1396   23.7272 O   0  0  0  0  0  0
  -29.9504  -17.2741   22.3628 C   0  0  0  0  0  0
  -29.7083  -18.4808   20.2877 C   0  0  0  0  0  0
  -29.9287  -18.4941   23.0822 C   0  0  0  0  0  0
  -30.0757  -19.7414   22.3641 C   0  0  0  0  0  0
  -29.8896  -17.2096   20.9651 C   0  0  0  0  0  0
  -29.7668  -19.7793   20.9504 C   0  0  0  0  0  0
  -28.6603  -17.5036   26.4513 C   0  0  0  0  0  0
  -28.7849  -19.0139   26.5920 C   0  0  0  0  0  0
  -32.4638  -21.8030   24.3384 C   0  0  0  0  0  0
  -31.6519  -22.9142   23.6773 C   0  0  0  0  0  0
  -29.4125  -17.1647   25.1585 C   0  0  0  0  0  0
  -28.9963  -19.4892   25.1597 C   0  0  0  0  0  0
  -31.9717  -20.5131   23.6812 C   0  0  0  0  0  0
  -30.7890  -22.2018   22.6392 C   0  0  0  0  0  0
  -29.0449  -23.6846   20.1508 C   0  0  0  0  0  0
  -28.6272  -22.1375   20.4666 C   0  0  0  0  0  0
  -27.9974  -24.8847   20.4493 C   0  0  0  0  0  0
  -29.7652  -18.4318   24.5040 N   0  0  0  0  0  0
  -30.6712  -20.8244   23.0851 N   0  0  0  0  0  0
  -29.7652  -15.8542   20.3818 N   0  0  0  0  0  0
  -29.6100  -21.0118   20.1828 N   0  0  0  0  0  0
  -31.4802  -12.6049   19.1390 H   0  0  0  0  0  0
  -30.4077  -11.4812   19.9373 H   0  0  0  0  0  0
  -29.7885  -11.7108   17.5108 H   0  0  0  0  0  0
  -29.6274  -13.4398   17.6891 H   0  0  0  0  0  0
  -27.8985  -11.2695   18.9192 H   0  0  0  0  0  0
  -27.3716  -12.4989   17.7991 H   0  0  0  0  0  0
  -27.6327  -14.2376   19.4579 H   0  0  0  0  0  0
  -28.7408  -12.1540   21.4086 H   0  0  0  0  0  0
  -28.4395  -13.8333   21.7839 H   0  0  0  0  0  0
  -25.2753   -9.5690   22.4767 H   0  0  0  0  0  0
  -24.0000   -7.4636   22.7479 H   0  0  0  0  0  0
  -21.0842   -8.8781   19.8952 H   0  0  0  0  0  0
  -22.3695  -10.9681   19.6183 H   0  0  0  0  0  0
  -21.2009   -7.6148   23.9721 H   0  0  0  0  0  0
  -21.1474   -6.0515   25.9076 H   0  0  0  0  0  0
  -22.0601   -2.7611   23.2831 H   0  0  0  0  0  0
  -22.4077  -11.9899   22.4799 H   0  0  0  0  0  0
  -21.1104  -13.1299   22.2606 H   0  0  0  0  0  0
  -24.6490  -15.8371   20.5083 H   0  0  0  0  0  0
  -26.2630  -15.6318   20.0623 H   0  0  0  0  0  0
  -26.7181  -32.5423   23.1044 H   0  0  0  0  0  0
  -25.0200  -33.9701   25.0463 H   0  0  0  0  0  0
  -22.7210  -31.2999   21.3977 H   0  0  0  0  0  0
  -23.3790  -35.9596   23.3292 H   0  0  0  0  0  0
  -24.3625  -36.8900   22.2049 H   0  0  0  0  0  0
  -23.7271  -37.6475   23.6664 H   0  0  0  0  0  0
  -26.1203  -31.5314   20.6175 H   0  0  0  0  0  0
  -26.8482  -30.8093   22.0218 H   0  0  0  0  0  0
  -28.1155  -28.9094   21.2215 H   0  0  0  0  0  0
  -25.9610  -25.9501   18.9275 H   0  0  0  0  0  0
  -23.9801  -27.3349   18.9590 H   0  0  0  0  0  0
  -23.7680  -30.5972   19.4047 H   0  0  0  0  0  0
  -22.7657  -29.2483   19.8538 H   0  0  0  0  0  0
  -25.1330  -36.1910   25.0817 H   0  0  0  0  0  0
  -20.9999  -28.3237   24.1381 H   0  0  0  0  0  0
  -20.5738  -26.2259   23.3580 H   0  0  0  0  0  0
  -21.6681  -26.7413   22.1170 H   0  0  0  0  0  0
  -19.6983  -25.6254   21.1227 H   0  0  0  0  0  0
  -19.6756  -27.3138   20.6709 H   0  0  0  0  0  0
  -17.4247  -26.6606   21.3982 H   0  0  0  0  0  0
  -18.0372  -25.9994   22.8968 H   0  0  0  0  0  0
  -19.7958  -30.7220   24.2232 H   0  0  0  0  0  0
  -17.5031  -31.6235   24.5110 H   0  0  0  0  0  0
  -15.5361  -30.2919   23.7651 H   0  0  0  0  0  0
  -15.8692  -28.0758   22.7068 H   0  0  0  0  0  0
  -24.5894  -30.7074   25.7739 H   0  0  0  0  0  0
  -24.8875  -32.2907   26.4776 H   0  0  0  0  0  0
  -25.7982  -30.8953   27.0219 H   0  0  0  0  0  0
  -26.2939  -29.6737   24.1201 H   0  0  0  0  0  0
  -27.4081  -29.7275   25.4670 H   0  0  0  0  0  0
  -27.8797  -30.4309   23.9388 H   0  0  0  0  0  0
  -27.2678  -33.3644   26.2000 H   0  0  0  0  0  0
  -28.3879  -32.6831   25.0303 H   0  0  0  0  0  0
  -28.0697  -31.8470   26.5422 H   0  0  0  0  0  0
  -28.2590  -38.0123   24.7525 H   0  0  0  0  0  0
  -28.1123  -36.2643   24.6281 H   0  0  0  0  0  0
  -27.2307  -37.1432   25.8864 H   0  0  0  0  0  0
  -20.9388  -29.8732   21.6879 H   0  0  0  0  0  0
  -26.0198  -38.2831   24.1390 H   0  0  0  0  0  0
  -29.9695  -16.3293   22.8832 H   0  0  0  0  0  0
  -29.5383  -18.4581   19.2207 H   0  0  0  0  0  0
  -27.6101  -17.2234   26.3519 H   0  0  0  0  0  0
  -29.0595  -16.9743   27.3169 H   0  0  0  0  0  0
  -29.6602  -19.2578   27.1956 H   0  0  0  0  0  0
  -27.9164  -19.4729   27.0667 H   0  0  0  0  0  0
  -32.2680  -21.7868   25.4115 H   0  0  0  0  0  0
  -33.5376  -21.9370   24.2000 H   0  0  0  0  0  0
  -32.2781  -23.6843   23.2235 H   0  0  0  0  0  0
  -31.0154  -23.3993   24.4187 H   0  0  0  0  0  0
  -28.7577  -16.5395   24.5495 H   0  0  0  0  0  0
  -30.3163  -16.5932   25.3767 H   0  0  0  0  0  0
  -29.5045  -20.4517   25.1833 H   0  0  0  0  0  0
  -28.0420  -19.6213   24.6464 H   0  0  0  0  0  0
  -31.9435  -19.7075   24.4156 H   0  0  0  0  0  0
  -32.6656  -20.2077   22.8955 H   0  0  0  0  0  0
  -31.2726  -22.2492   21.6633 H   0  0  0  0  0  0
  -29.8244  -22.6991   22.6089 H   0  0  0  0  0  0
  -29.3139  -23.7475   19.0964 H   0  0  0  0  0  0
  -29.9604  -23.9252   20.6873 H   0  0  0  0  0  0
  -27.7531  -21.9228   19.8490 H   0  0  0  0  0  0
  -28.2518  -22.0429   21.4853 H   0  0  0  0  0  0
  -27.7552  -24.8378   21.5112 H   0  0  0  0  0  0
  -27.0800  -24.5716   19.9594 H   0  0  0  0  0  0
  -28.8170  -15.6074   20.1455 H   0  0  0  0  0  0
  -29.6949  -20.8420   19.1846 H   0  0  0  0  0  0
  1 25  1  0  0  0
  1 30  2  0  0  0
  1 90  1  0  0  0
  2  3  1  0  0  0
  2 25  1  0  0  0
  2 92  1  0  0  0
  2 93  1  0  0  0
  3  4  1  0  0  0
  3 94  1  0  0  0
  3 95  1  0  0  0
  4  5  1  0  0  0
  4 96  1  0  0  0
  4 97  1  0  0  0
  5  6  1  0  0  0
  5 26  1  0  0  0
  5 98  1  0  0  0
  6 25  1  0  0  0
  6 99  1  0  0  0
  6100  1  0  0  0
  7  8  2  0  0  0
  7 26  1  0  0  0
  7 29  1  0  0  0
  8  9  1  0  0  0
  8 22  1  0  0  0
  9 10  1  0  0  0
  9 27  2  0  0  0
 10 11  2  0  0  0
 10 15  1  0  0  0
 11 12  1  0  0  0
 11101  1  0  0  0
 12 13  2  0  0  0
 12102  1  0  0  0
 13 14  1  0  0  0
 13 31  1  0  0  0
 14 15  2  0  0  0
 14103  1  0  0  0
 15104  1  0  0  0
 16 17  2  0  0  0
 16 21  1  0  0  0
 16 31  1  0  0  0
 17 18  1  0  0  0
 17105  1  0  0  0
 18 19  2  0  0  0
 18106  1  0  0  0
 19 20  1  0  0  0
 19 24  1  0  0  0
 20 21  2  0  0  0
 20107  1  0  0  0
 21 23  1  0  0  0
 22 28  1  0  0  0
 22 32  2  0  0  0
 26 27  1  0  0  0
 28108  1  0  0  0
 28109  1  0  0  0
 29110  1  0  0  0
 29111  1  0  0  0
 33 34  1  0  0  0
 33 66  1  0  0  0
 33 70  2  0  0  0
 34 36  1  0  0  0
 34 59  1  0  0  0
 34112  1  0  0  0
 35 44  2  0  0  0
 35 45  1  0  0  0
 35 68  1  0  0  0
 36 56  1  0  0  0
 36113  1  0  0  0
 37 39  1  0  0  0
 37 47  1  0  0  0
 37 66  1  0  0  0
 37114  1  0  0  0
 38 43  2  0  0  0
 38 46  1  0  0  0
 38 47  1  0  0  0
 39 64  1  0  0  0
 39 67  2  0  0  0
 40 52  1  0  0  0
 40 53  2  0  0  0
 40 58  1  0  0  0
 41115  1  0  0  0
 41116  1  0  0  0
 41117  1  0  0  0
 41 48  1  0  0  0
 42 43  1  0  0  0
 42 66  1  0  0  0
 42118  1  0  0  0
 42119  1  0  0  0
 43 44  1  0  0  0
 44120  1  0  0  0
 45 46  2  0  0  0
 45121  1  0  0  0
 46122  1  0  0  0
 47123  1  0  0  0
 47124  1  0  0  0
 48 56  1  0  0  0
 48 65  1  0  0  0
 48125  1  0  0  0
 49 50  1  0  0  0
 49 53  1  0  0  0
 49 64  1  0  0  0
 49126  1  0  0  0
 50 51  1  0  0  0
 50127  1  0  0  0
 50128  1  0  0  0
 51 52  1  0  0  0
 51129  1  0  0  0
 51130  1  0  0  0
 52131  1  0  0  0
 52132  1  0  0  0
 53 54  1  0  0  0
 54 55  2  0  0  0
 54133  1  0  0  0
 55 57  1  0  0  0
 55134  1  0  0  0
 56 69  2  0  0  0
 57 58  2  0  0  0
 57135  1  0  0  0
 58136  1  0  0  0
 59 60  1  0  0  0
 59 61  1  0  0  0
 59 62  1  0  0  0
 60137  1  0  0  0
 60138  1  0  0  0
 60139  1  0  0  0
 61140  1  0  0  0
 61141  1  0  0  0
 61142  1  0  0  0
 62143  1  0  0  0
 62144  1  0  0  0
 62145  1  0  0  0
 63 65  1  0  0  0
 63146  1  0  0  0
 63147  1  0  0  0
 63148  1  0  0  0
 64149  1  0  0  0
 65150  1  0  0  0
 68 87  1  0  0  0
 71 73  2  0  0  0
 71 75  1  0  0  0
 71151  1  0  0  0
 72 75  2  0  0  0
 72 76  1  0  0  0
 72152  1  0  0  0
 73 74  1  0  0  0
 73 88  1  0  0  0
 74 76  2  0  0  0
 74 89  1  0  0  0
 75 90  1  0  0  0
 76 91  1  0  0  0
 77 78  1  0  0  0
 77 81  1  0  0  0
 77153  1  0  0  0
 77154  1  0  0  0
 78 82  1  0  0  0
 78155  1  0  0  0
 78156  1  0  0  0
 79 80  1  0  0  0
 79 83  1  0  0  0
 79157  1  0  0  0
 79158  1  0  0  0
 80 84  1  0  0  0
 80159  1  0  0  0
 80160  1  0  0  0
 81 88  1  0  0  0
 81161  1  0  0  0
 81162  1  0  0  0
 82 88  1  0  0  0
 82163  1  0  0  0
 82164  1  0  0  0
 83 89  1  0  0  0
 83165  1  0  0  0
 83166  1  0  0  0
 84 89  1  0  0  0
 84167  1  0  0  0
 84168  1  0  0  0
 85 86  1  0  0  0
 85 87  1  0  0  0
 85169  1  0  0  0
 85170  1  0  0  0
 86 91  1  0  0  0
 86171  1  0  0  0
 86172  1  0  0  0
 87173  1  0  0  0
 87174  1  0  0  0
 90175  1  0  0  0
 91176  1  0  0  0
M  ISO  4   1 100  68 101  87 101  90 100
M  END
> <chiral flag>
0

> <version>
0

> <s_m_source_file>
/data/baiqing/PycharmProjects/Reinvent-master-3.2/result/LINK_invent/BTK/process_docking_weight1_custom_product_contain_oxygen_bond_distance_aromatic_linkinvent_7_9_3/rearranged_h_0021.sdf

> <i_m_source_file_index>
70

> <r_mmod_Potential_Energy-OPLS-2005>
591.520324707031

> <r_mmod_Stretch_Energy-OPLS-2005>
138.800140380859

> <r_mmod_Bend_Energy-OPLS-2005>
248.117034912109

> <r_mmod_Torsional_Energy-OPLS-2005>
432.567718505859

> <r_mmod_Improper_Torsional_Energy-OPLS-2005>
24.9225845336914

> <r_mmod_Van_der_Waal_Energy-OPLS-2005>
162.989501953125

> <r_mmod_Electrostatic_Energy-OPLS-2005>
-253.863250732422

> <r_mmod_Solvation_Energy-OPLS-2005>
-253.605255126953

> <b_mmod_Minimization_Converged-OPLS-2005>
0

> <r_mmod_RMS_Derivative-OPLS-2005>
2.08260536193848

$$$$
70
                    3D
 Structure written by MMmdl.
172181  0  0  1  0            999 V2000
  -30.7189  -14.4126   20.6069 C   0  0  0  0  0  0
  -30.4216  -12.2815   19.4077 C   0  0  0  0  0  0
  -29.4921  -12.5154   18.1992 C   0  0  0  0  0  0
  -28.0107  -12.3857   18.6087 C   0  0  0  0  0  0
  -27.6683  -13.2014   19.8854 C   0  0  2  0  0  0
  -28.7100  -12.9258   20.9924 C   0  0  0  0  0  0
  -25.2618  -13.8153   20.5686 C   0  0  0  0  0  0
  -24.1855  -13.0439   20.9168 C   0  0  0  0  0  0
  -24.6398  -11.6902   20.8727 C   0  0  0  0  0  0
  -23.9059  -10.4293   21.0400 C   0  0  0  0  0  0
  -24.3610   -9.4211   21.9181 C   0  0  0  0  0  0
  -23.6285   -8.2247   22.0757 C   0  0  0  0  0  0
  -22.4271   -8.0282   21.3544 C   0  0  0  0  0  0
  -21.9905   -9.0255   20.4648 C   0  0  0  0  0  0
  -22.7229  -10.2137   20.3054 C   0  0  0  0  0  0
  -21.6852   -6.0738   22.5281 C   0  0  0  0  0  0
  -21.4015   -6.5641   23.8215 C   0  0  0  0  0  0
  -21.3660   -5.6792   24.9177 C   0  0  0  0  0  0
  -21.6043   -4.3055   24.7226 C   0  0  0  0  0  0
  -21.8819   -3.8148   23.4348 C   0  0  0  0  0  0
  -21.9191   -4.6964   22.3404 C   0  0  0  0  0  0
  -22.7877  -13.5242   21.1829 C   0  0  0  0  0  0
  -22.1657   -4.2148   21.0979 F   0  0  0  0  0  0
  -21.5630   -3.4541   25.7739 F   0  0  0  0  0  0
  -30.0412  -13.2431   20.4531 N   0  0  0  0  0  0
  -26.3060  -12.9313   20.3414 N   0  0  0  0  0  0
  -25.9326  -11.6475   20.5767 N   0  0  0  0  0  0
  -22.0513  -12.8243   22.0388 N   0  0  0  0  0  0
  -25.4351  -15.1871   20.4093 N   0  0  0  0  0  0
  -31.8254  -14.5953   20.0881 O   0  0  0  0  0  0
  -21.6636   -6.8880   21.4241 O   0  0  0  0  0  0
  -22.3564  -14.5550   20.6676 O   0  0  0  0  0  0
  -24.6078  -31.8716   23.2124 C   0  0  0  0  0  0
  -25.8994  -32.4844   23.8406 C   0  0  1  0  0  0
  -27.2581  -27.4843   20.0935 C   0  0  0  0  0  0
  -25.5878  -33.8640   24.2344 N   0  0  0  0  0  0
  -23.3949  -30.4926   21.5505 C   0  0  2  0  0  0
  -24.8474  -28.9615   20.1184 C   0  0  0  0  0  0
  -22.7375  -29.4673   22.5008 C   0  0  0  0  0  0
  -18.0263  -28.1383   22.8502 C   0  0  0  0  0  0
  -24.1488  -36.7320   23.2634 C   0  0  0  0  0  0
  -25.9162  -30.8544   21.3568 C   0  0  0  0  0  0
  -26.0003  -29.4889   20.7125 C   0  0  0  0  0  0
  -27.2060  -28.7600   20.7041 C   0  0  0  0  0  0
  -26.0877  -26.9630   19.5053 C   0  0  0  0  0  0
  -24.8826  -27.6923   19.5142 C   0  0  0  0  0  0
  -23.6033  -29.8192   20.1665 C   0  0  0  0  0  0
  -25.4102  -36.3124   24.0346 C   0  0  1  0  0  0
  -20.5848  -28.3661   23.1340 C   0  0  2  0  0  0
  -20.6751  -26.9403   22.5430 C   0  0  0  0  0  0
  -19.5734  -26.6395   21.5219 C   0  0  0  0  0  0
  -18.1911  -26.7935   22.1628 C   0  0  0  0  0  0
  -19.1511  -28.8839   23.2919 C   0  0  0  0  0  0
  -18.9439  -30.1448   23.8924 C   0  0  0  0  0  0
  -17.6443  -30.6595   24.0571 C   0  0  0  0  0  0
  -25.9028  -34.9493   23.5142 C   0  0  0  0  0  0
  -16.5335  -29.9100   23.6325 C   0  0  0  0  0  0
  -16.7252  -28.6513   23.0351 C   0  0  0  0  0  0
  -26.4449  -31.6600   25.0704 C   0  0  0  0  0  0
  -25.3741  -31.3685   26.1469 C   0  0  0  0  0  0
  -27.0271  -30.3055   24.6030 C   0  0  0  0  0  0
  -27.6031  -32.4310   25.7464 C   0  0  0  0  0  0
  -27.5596  -37.1798   24.8454 C   0  0  0  0  0  0
  -21.4109  -29.3030   22.3746 N   0  0  0  0  0  0
  -26.4287  -37.3811   23.9431 N   0  0  0  0  0  0
  -24.6574  -31.0861   22.0996 N   0  0  0  0  0  0
  -23.4170  -28.8225   23.3038 O   0  0  0  0  0  0
  -28.3893  -26.7022   20.0234 O   0  0  0  0  0  0
  -26.5595  -34.8939   22.4705 O   0  0  0  0  0  0
  -23.5286  -32.1440   23.7552 O   0  0  0  0  0  0
  -31.0869  -21.7467   23.5063 C   0  0  0  0  0  0
  -31.1474  -20.4006   23.0937 C   0  0  0  0  0  0
  -28.8680  -20.5483   22.2672 C   0  0  0  0  0  0
  -29.9123  -22.5054   23.3040 C   0  0  0  0  0  0
  -30.0431  -19.7854   22.4639 C   0  0  0  0  0  0
  -28.8017  -21.8910   22.6839 C   0  0  0  0  0  0
  -29.8192  -16.7450   20.2909 C   0  0  0  0  0  0
  -30.9927  -16.1642   22.4438 C   0  0  0  0  0  0
  -29.2582  -18.0057   20.9585 C   0  0  0  0  0  0
  -30.4309  -17.4545   23.0677 C   0  0  0  0  0  0
  -30.0775  -15.6228   21.3213 C   0  0  0  0  0  0
  -30.2732  -24.1668   25.2038 C   0  0  0  0  0  0
  -30.6213  -26.0230   20.5836 C   0  0  0  0  0  0
  -30.2328  -24.7676   21.3924 C   0  0  0  0  0  0
  -29.5788  -27.1511   20.6631 C   0  0  0  0  0  0
  -29.8339  -23.9713   23.7404 C   0  0  1  0  0  0
  -30.1476  -18.4480   22.0309 N   0  0  0  0  0  0
  -30.5813  -24.8740   22.8305 N   0  3  0  0  0  0
  -27.6633  -22.5941   22.4700 F   0  0  0  0  0  0
  -31.4657  -12.3736   19.1043 H   0  0  0  0  0  0
  -30.3154  -11.2612   19.7793 H   0  0  0  0  0  0
  -29.7227  -11.8061   17.4034 H   0  0  0  0  0  0
  -29.6727  -13.5086   17.7846 H   0  0  0  0  0  0
  -27.8053  -11.3284   18.7785 H   0  0  0  0  0  0
  -27.3645  -12.6901   17.7844 H   0  0  0  0  0  0
  -27.7294  -14.2574   19.6222 H   0  0  0  0  0  0
  -28.6813  -11.8706   21.2682 H   0  0  0  0  0  0
  -28.4713  -13.4462   21.9173 H   0  0  0  0  0  0
  -25.2758   -9.5687   22.4752 H   0  0  0  0  0  0
  -23.9995   -7.4643   22.7480 H   0  0  0  0  0  0
  -21.0838   -8.8773   19.8949 H   0  0  0  0  0  0
  -22.3687  -10.9676   19.6163 H   0  0  0  0  0  0
  -21.2010   -7.6151   23.9717 H   0  0  0  0  0  0
  -21.1482   -6.0525   25.9080 H   0  0  0  0  0  0
  -22.0599   -2.7612   23.2849 H   0  0  0  0  0  0
  -22.4116  -11.9899   22.4778 H   0  0  0  0  0  0
  -21.1128  -13.1273   22.2578 H   0  0  0  0  0  0
  -24.6715  -15.8453   20.5186 H   0  0  0  0  0  0
  -26.2945  -15.6240   20.1019 H   0  0  0  0  0  0
  -26.7070  -32.5596   23.1190 H   0  0  0  0  0  0
  -25.0048  -33.9810   25.0500 H   0  0  0  0  0  0
  -22.6805  -31.3064   21.4099 H   0  0  0  0  0  0
  -23.3773  -35.9625   23.3253 H   0  0  0  0  0  0
  -24.3600  -36.8977   22.2058 H   0  0  0  0  0  0
  -23.7209  -37.6498   23.6675 H   0  0  0  0  0  0
  -26.0145  -31.6188   20.5851 H   0  0  0  0  0  0
  -26.8084  -30.9183   21.9673 H   0  0  0  0  0  0
  -28.0811  -29.1976   21.1611 H   0  0  0  0  0  0
  -26.1144  -25.9894   19.0361 H   0  0  0  0  0  0
  -23.9970  -27.2760   19.0540 H   0  0  0  0  0  0
  -23.7031  -30.5908   19.4020 H   0  0  0  0  0  0
  -22.7315  -29.2300   19.8760 H   0  0  0  0  0  0
  -25.1267  -36.1986   25.0835 H   0  0  0  0  0  0
  -20.9941  -28.3227   24.1461 H   0  0  0  0  0  0
  -20.5652  -26.2261   23.3607 H   0  0  0  0  0  0
  -21.6623  -26.7457   22.1222 H   0  0  0  0  0  0
  -19.6895  -25.6315   21.1228 H   0  0  0  0  0  0
  -19.6676  -27.3216   20.6758 H   0  0  0  0  0  0
  -17.4181  -26.6692   21.4029 H   0  0  0  0  0  0
  -18.0309  -26.0074   22.9018 H   0  0  0  0  0  0
  -19.7915  -30.7259   24.2302 H   0  0  0  0  0  0
  -17.5002  -31.6274   24.5173 H   0  0  0  0  0  0
  -15.5336  -30.3008   23.7645 H   0  0  0  0  0  0
  -15.8650  -28.0844   22.7053 H   0  0  0  0  0  0
  -24.5893  -30.7055   25.7813 H   0  0  0  0  0  0
  -24.8954  -32.2835   26.4968 H   0  0  0  0  0  0
  -25.8113  -30.8817   27.0193 H   0  0  0  0  0  0
  -26.2793  -29.6834   24.1100 H   0  0  0  0  0  0
  -27.4080  -29.7271   25.4457 H   0  0  0  0  0  0
  -27.8610  -30.4392   23.9136 H   0  0  0  0  0  0
  -27.2650  -33.3596   26.2075 H   0  0  0  0  0  0
  -28.3820  -32.6891   25.0277 H   0  0  0  0  0  0
  -28.0719  -31.8413   26.5351 H   0  0  0  0  0  0
  -28.2561  -38.0151   24.7599 H   0  0  0  0  0  0
  -28.1147  -36.2691   24.6153 H   0  0  0  0  0  0
  -27.2333  -37.1293   25.8858 H   0  0  0  0  0  0
  -20.9255  -29.8748   21.6977 H   0  0  0  0  0  0
  -26.0180  -38.2878   24.1492 H   0  0  0  0  0  0
  -31.9555  -22.1876   23.9733 H   0  0  0  0  0  0
  -32.0646  -19.8488   23.2468 H   0  0  0  0  0  0
  -27.9944  -20.1219   21.7987 H   0  0  0  0  0  0
  -30.7426  -17.0015   19.7681 H   0  0  0  0  0  0
  -29.1240  -16.4002   19.5241 H   0  0  0  0  0  0
  -31.1155  -15.4075   23.2200 H   0  0  0  0  0  0
  -31.9922  -16.3644   22.0544 H   0  0  0  0  0  0
  -28.2649  -17.8039   21.3639 H   0  0  0  0  0  0
  -29.1473  -18.7890   20.2061 H   0  0  0  0  0  0
  -31.1359  -17.8348   23.8079 H   0  0  0  0  0  0
  -29.5077  -17.2351   23.6069 H   0  0  0  0  0  0
  -29.1194  -15.3824   21.7699 H   0  0  0  0  0  0
  -29.6852  -23.5346   25.8695 H   0  0  0  0  0  0
  -30.1266  -25.1979   25.5259 H   0  0  0  0  0  0
  -31.3235  -23.9212   25.3583 H   0  0  0  0  0  0
  -30.7361  -25.7433   19.5355 H   0  0  0  0  0  0
  -31.6001  -26.3887   20.8967 H   0  0  0  0  0  0
  -30.7517  -23.8997   20.9827 H   0  0  0  0  0  0
  -29.1673  -24.5682   21.2682 H   0  0  0  0  0  0
  -29.9545  -28.0409   20.1553 H   0  0  0  0  0  0
  -29.3928  -27.4131   21.7055 H   0  0  0  0  0  0
  -28.7888  -24.2823   23.6930 H   0  0  0  0  0  0
  -30.4024  -25.8156   23.1385 H   0  0  0  0  0  0
  -31.5692  -24.7066   22.9345 H   0  0  0  0  0  0
  1 25  1  0  0  0
  1 30  2  0  0  0
  1 81  1  0  0  0
  2  3  1  0  0  0
  2 25  1  0  0  0
  2 90  1  0  0  0
  2 91  1  0  0  0
  3  4  1  0  0  0
  3 92  1  0  0  0
  3 93  1  0  0  0
  4  5  1  0  0  0
  4 94  1  0  0  0
  4 95  1  0  0  0
  5  6  1  0  0  0
  5 26  1  0  0  0
  5 96  1  0  0  0
  6 25  1  0  0  0
  6 97  1  0  0  0
  6 98  1  0  0  0
  7  8  2  0  0  0
  7 26  1  0  0  0
  7 29  1  0  0  0
  8  9  1  0  0  0
  8 22  1  0  0  0
  9 10  1  0  0  0
  9 27  2  0  0  0
 10 11  2  0  0  0
 10 15  1  0  0  0
 11 12  1  0  0  0
 11 99  1  0  0  0
 12 13  2  0  0  0
 12100  1  0  0  0
 13 14  1  0  0  0
 13 31  1  0  0  0
 14 15  2  0  0  0
 14101  1  0  0  0
 15102  1  0  0  0
 16 17  2  0  0  0
 16 21  1  0  0  0
 16 31  1  0  0  0
 17 18  1  0  0  0
 17103  1  0  0  0
 18 19  2  0  0  0
 18104  1  0  0  0
 19 20  1  0  0  0
 19 24  1  0  0  0
 20 21  2  0  0  0
 20105  1  0  0  0
 21 23  1  0  0  0
 22 28  1  0  0  0
 22 32  2  0  0  0
 26 27  1  0  0  0
 28106  1  0  0  0
 28107  1  0  0  0
 29108  1  0  0  0
 29109  1  0  0  0
 33 34  1  0  0  0
 33 66  1  0  0  0
 33 70  2  0  0  0
 34 36  1  0  0  0
 34 59  1  0  0  0
 34110  1  0  0  0
 35 44  2  0  0  0
 35 45  1  0  0  0
 35 68  1  0  0  0
 36 56  1  0  0  0
 36111  1  0  0  0
 37 39  1  0  0  0
 37 47  1  0  0  0
 37 66  1  0  0  0
 37112  1  0  0  0
 38 43  2  0  0  0
 38 46  1  0  0  0
 38 47  1  0  0  0
 39 64  1  0  0  0
 39 67  2  0  0  0
 40 52  1  0  0  0
 40 53  2  0  0  0
 40 58  1  0  0  0
 41113  1  0  0  0
 41114  1  0  0  0
 41115  1  0  0  0
 41 48  1  0  0  0
 42 43  1  0  0  0
 42 66  1  0  0  0
 42116  1  0  0  0
 42117  1  0  0  0
 43 44  1  0  0  0
 44118  1  0  0  0
 45 46  2  0  0  0
 45119  1  0  0  0
 46120  1  0  0  0
 47121  1  0  0  0
 47122  1  0  0  0
 48 56  1  0  0  0
 48 65  1  0  0  0
 48123  1  0  0  0
 49 50  1  0  0  0
 49 53  1  0  0  0
 49 64  1  0  0  0
 49124  1  0  0  0
 50 51  1  0  0  0
 50125  1  0  0  0
 50126  1  0  0  0
 51 52  1  0  0  0
 51127  1  0  0  0
 51128  1  0  0  0
 52129  1  0  0  0
 52130  1  0  0  0
 53 54  1  0  0  0
 54 55  2  0  0  0
 54131  1  0  0  0
 55 57  1  0  0  0
 55132  1  0  0  0
 56 69  2  0  0  0
 57 58  2  0  0  0
 57133  1  0  0  0
 58134  1  0  0  0
 59 60  1  0  0  0
 59 61  1  0  0  0
 59 62  1  0  0  0
 60135  1  0  0  0
 60136  1  0  0  0
 60137  1  0  0  0
 61138  1  0  0  0
 61139  1  0  0  0
 61140  1  0  0  0
 62141  1  0  0  0
 62142  1  0  0  0
 62143  1  0  0  0
 63 65  1  0  0  0
 63144  1  0  0  0
 63145  1  0  0  0
 63146  1  0  0  0
 64147  1  0  0  0
 65148  1  0  0  0
 68 85  1  0  0  0
 71 72  2  0  0  0
 71 74  1  0  0  0
 71149  1  0  0  0
 72 75  1  0  0  0
 72150  1  0  0  0
 73 75  2  0  0  0
 73 76  1  0  0  0
 73151  1  0  0  0
 74 76  2  0  0  0
 74 86  1  0  0  0
 75 87  1  0  0  0
 76 89  1  0  0  0
 77 79  1  0  0  0
 77 81  1  0  0  0
 77152  1  0  0  0
 77153  1  0  0  0
 78 80  1  0  0  0
 78 81  1  0  0  0
 78154  1  0  0  0
 78155  1  0  0  0
 79 87  1  0  0  0
 79156  1  0  0  0
 79157  1  0  0  0
 80 87  1  0  0  0
 80158  1  0  0  0
 80159  1  0  0  0
 81160  1  0  0  0
 82161  1  0  0  0
 82162  1  0  0  0
 82163  1  0  0  0
 82 86  1  0  0  0
 83 84  1  0  0  0
 83 85  1  0  0  0
 83164  1  0  0  0
 83165  1  0  0  0
 84 88  1  0  0  0
 84166  1  0  0  0
 84167  1  0  0  0
 85168  1  0  0  0
 85169  1  0  0  0
 86 88  1  0  0  0
 86170  1  0  0  0
 88171  1  0  0  0
 88172  1  0  0  0
M  CHG  1  88   1
M  ISO  4   1 100  68 101  81 100  85 101
M  END
> <chiral flag>
0

> <version>
0

> <s_m_source_file>
/data/baiqing/PycharmProjects/Reinvent-master-3.2/result/LINK_invent/BTK/process_docking_weight1_custom_product_contain_oxygen_bond_distance_aromatic_linkinvent_7_9_3/rearranged_h_0021.sdf

> <i_m_source_file_index>
71

> <r_mmod_Potential_Energy-OPLS-2005>
-220.660217285156

> <r_mmod_Stretch_Energy-OPLS-2005>
34.9552230834961

> <r_mmod_Bend_Energy-OPLS-2005>
106.087905883789

> <r_mmod_Torsional_Energy-OPLS-2005>
207.026840209961

> <r_mmod_Improper_Torsional_Energy-OPLS-2005>
5.76949596405029

> <r_mmod_Van_der_Waal_Energy-OPLS-2005>
164.651382446289

> <r_mmod_Electrostatic_Energy-OPLS-2005>
-295.958709716797

> <r_mmod_Solvation_Energy-OPLS-2005>
-450.623046875

> <b_mmod_Minimization_Converged-OPLS-2005>
0

> <r_mmod_RMS_Derivative-OPLS-2005>
0.681307375431061

$$$$
71
                    3D
 Structure written by MMmdl.
156164  0  0  1  0            999 V2000
  -30.6137  -14.7270   20.4727 C   0  0  0  0  0  0
  -30.4315  -12.4446   19.4673 C   0  0  0  0  0  0
  -29.5077  -12.5032   18.2311 C   0  0  0  0  0  0
  -28.0332  -12.3301   18.6453 C   0  0  0  0  0  0
  -27.6416  -13.2276   19.8499 C   0  0  2  0  0  0
  -28.6863  -13.1526   20.9849 C   0  0  0  0  0  0
  -25.2511  -13.8188   20.5694 C   0  0  0  0  0  0
  -24.1798  -13.0439   20.9214 C   0  0  0  0  0  0
  -24.6385  -11.6913   20.8751 C   0  0  0  0  0  0
  -23.9062  -10.4292   21.0409 C   0  0  0  0  0  0
  -24.3618   -9.4207   21.9184 C   0  0  0  0  0  0
  -23.6294   -8.2243   22.0753 C   0  0  0  0  0  0
  -22.4275   -8.0284   21.3545 C   0  0  0  0  0  0
  -21.9911   -9.0254   20.4644 C   0  0  0  0  0  0
  -22.7238  -10.2132   20.3054 C   0  0  0  0  0  0
  -21.6855   -6.0736   22.5282 C   0  0  0  0  0  0
  -21.4014   -6.5638   23.8216 C   0  0  0  0  0  0
  -21.3656   -5.6790   24.9176 C   0  0  0  0  0  0
  -21.6044   -4.3054   24.7225 C   0  0  0  0  0  0
  -21.8819   -3.8146   23.4346 C   0  0  0  0  0  0
  -21.9193   -4.6963   22.3403 C   0  0  0  0  0  0
  -22.7824  -13.5224   21.1868 C   0  0  0  0  0  0
  -22.1664   -4.2149   21.0982 F   0  0  0  0  0  0
  -21.5624   -3.4537   25.7737 F   0  0  0  0  0  0
  -29.9873  -13.5036   20.4019 N   0  0  0  0  0  0
  -26.2932  -12.9388   20.3276 N   0  0  0  0  0  0
  -25.9312  -11.6533   20.5749 N   0  0  0  0  0  0
  -22.0468  -12.8215   22.0422 N   0  0  0  0  0  0
  -25.4197  -15.1916   20.4104 N   0  0  0  0  0  0
  -31.7959  -14.8203   20.1314 O   0  0  0  0  0  0
  -21.6641   -6.8880   21.4243 O   0  0  0  0  0  0
  -22.3513  -14.5530   20.6713 O   0  0  0  0  0  0
  -24.6309  -31.8549   23.1978 C   0  0  0  0  0  0
  -25.9136  -32.4750   23.8324 C   0  0  1  0  0  0
  -27.2204  -27.2699   20.1164 C   0  0  0  0  0  0
  -25.5935  -33.8553   24.2252 N   0  0  0  0  0  0
  -23.4265  -30.4778   21.5409 C   0  0  2  0  0  0
  -24.8704  -28.9236   20.1086 C   0  0  0  0  0  0
  -22.7500  -29.4595   22.4904 C   0  0  0  0  0  0
  -18.0294  -28.1386   22.8486 C   0  0  0  0  0  0
  -24.1491  -36.7280   23.2643 C   0  0  0  0  0  0
  -25.9713  -30.7701   21.3750 C   0  0  0  0  0  0
  -26.0410  -29.3936   20.7154 C   0  0  0  0  0  0
  -27.2147  -28.5777   20.7088 C   0  0  0  0  0  0
  -26.0197  -26.8556   19.4974 C   0  0  0  0  0  0
  -24.8639  -27.6627   19.4921 C   0  0  0  0  0  0
  -23.6430  -29.8120   20.1560 C   0  0  0  0  0  0
  -25.4115  -36.3066   24.0328 C   0  0  1  0  0  0
  -20.5898  -28.3693   23.1269 C   0  0  2  0  0  0
  -20.6784  -26.9412   22.5409 C   0  0  0  0  0  0
  -19.5761  -26.6383   21.5212 C   0  0  0  0  0  0
  -18.1939  -26.7928   22.1622 C   0  0  0  0  0  0
  -19.1549  -28.8853   23.2875 C   0  0  0  0  0  0
  -18.9474  -30.1454   23.8891 C   0  0  0  0  0  0
  -17.6475  -30.6586   24.0558 C   0  0  0  0  0  0
  -25.9057  -34.9440   23.5092 C   0  0  0  0  0  0
  -16.5362  -29.9087   23.6330 C   0  0  0  0  0  0
  -16.7282  -28.6506   23.0349 C   0  0  0  0  0  0
  -26.4502  -31.6580   25.0720 C   0  0  0  0  0  0
  -25.3724  -31.3737   26.1440 C   0  0  0  0  0  0
  -27.0349  -30.2999   24.6204 C   0  0  0  0  0  0
  -27.6052  -32.4327   25.7493 C   0  0  0  0  0  0
  -27.5575  -37.1796   24.8466 C   0  0  0  0  0  0
  -21.4209  -29.3036   22.3653 N   0  0  0  0  0  0
  -26.4289  -37.3767   23.9409 N   0  0  0  0  0  0
  -24.6953  -31.0523   22.0946 N   0  0  0  0  0  0
  -23.4209  -28.8134   23.2995 O   0  0  0  0  0  0
  -28.3506  -26.4272   20.1907 O   0  0  0  0  0  0
  -26.5627  -34.8917   22.4660 O   0  0  0  0  0  0
  -23.5459  -32.1365   23.7280 O   0  0  0  0  0  0
  -30.8406  -20.0178   21.5043 C   0  0  0  0  0  0
  -31.6956  -18.9525   21.8455 C   0  0  0  0  0  0
  -29.3140  -18.4084   20.5158 C   0  0  0  0  0  0
  -29.6246  -19.8018   20.8223 C   0  0  0  0  0  0
  -30.1748  -17.2823   20.8693 C   0  0  0  0  0  0
  -31.3698  -17.6132   21.5577 C   0  0  0  0  0  0
  -30.4272  -22.4607   19.5162 C   0  0  0  0  0  0
  -28.6366  -21.0530   20.6462 C   0  0  0  0  0  0
  -28.4879  -23.7087   20.5367 C   0  0  0  0  0  0
  -28.4403  -25.0435   19.6136 C   0  0  0  0  0  0
  -29.8216  -15.8526   20.6640 N   0  0  0  0  0  0
  -29.0068  -22.3762   19.9317 N   0  3  1  0  0  0
  -32.1955  -16.6497   22.0292 F   0  0  0  0  0  0
  -31.4726  -12.5674   19.1642 H   0  0  0  0  0  0
  -30.3747  -11.4661   19.9467 H   0  0  0  0  0  0
  -29.7880  -11.7311   17.5132 H   0  0  0  0  0  0
  -29.6370  -13.4581   17.7196 H   0  0  0  0  0  0
  -27.8868  -11.2810   18.9044 H   0  0  0  0  0  0
  -27.3759  -12.5265   17.7974 H   0  0  0  0  0  0
  -27.6381  -14.2498   19.4720 H   0  0  0  0  0  0
  -28.7192  -12.1513   21.4175 H   0  0  0  0  0  0
  -28.4228  -13.8287   21.8004 H   0  0  0  0  0  0
  -25.2763   -9.5683   22.4760 H   0  0  0  0  0  0
  -24.0002   -7.4631   22.7472 H   0  0  0  0  0  0
  -21.0844   -8.8768   19.8952 H   0  0  0  0  0  0
  -22.3697  -10.9669   19.6161 H   0  0  0  0  0  0
  -21.2010   -7.6146   23.9721 H   0  0  0  0  0  0
  -21.1478   -6.0519   25.9080 H   0  0  0  0  0  0
  -22.0602   -2.7608   23.2847 H   0  0  0  0  0  0
  -22.4084  -11.9875   22.4809 H   0  0  0  0  0  0
  -21.1081  -13.1232   22.2621 H   0  0  0  0  0  0
  -24.6468  -15.8400   20.5176 H   0  0  0  0  0  0
  -26.2542  -15.6322   20.0465 H   0  0  0  0  0  0
  -26.7199  -32.5393   23.1062 H   0  0  0  0  0  0
  -25.0089  -33.9688   25.0403 H   0  0  0  0  0  0
  -22.7234  -31.3006   21.3953 H   0  0  0  0  0  0
  -23.3755  -35.9611   23.3302 H   0  0  0  0  0  0
  -24.3584  -36.8904   22.2059 H   0  0  0  0  0  0
  -23.7249  -37.6485   23.6663 H   0  0  0  0  0  0
  -26.1115  -31.5318   20.6064 H   0  0  0  0  0  0
  -26.8489  -30.8165   22.0082 H   0  0  0  0  0  0
  -28.1139  -28.9346   21.1918 H   0  0  0  0  0  0
  -25.9248  -25.8868   19.0333 H   0  0  0  0  0  0
  -23.9629  -27.2942   19.0208 H   0  0  0  0  0  0
  -23.7696  -30.5885   19.4005 H   0  0  0  0  0  0
  -22.7607  -29.2477   19.8497 H   0  0  0  0  0  0
  -25.1302  -36.1912   25.0823 H   0  0  0  0  0  0
  -20.9996  -28.3273   24.1387 H   0  0  0  0  0  0
  -20.5687  -26.2304   23.3613 H   0  0  0  0  0  0
  -21.6654  -26.7439   22.1198 H   0  0  0  0  0  0
  -19.6925  -25.6293   21.1243 H   0  0  0  0  0  0
  -19.6697  -27.3193   20.6740 H   0  0  0  0  0  0
  -17.4212  -26.6673   21.4022 H   0  0  0  0  0  0
  -18.0332  -26.0071   22.9017 H   0  0  0  0  0  0
  -19.7952  -30.7267   24.2262 H   0  0  0  0  0  0
  -17.5034  -31.6268   24.5161 H   0  0  0  0  0  0
  -15.5365  -30.2988   23.7658 H   0  0  0  0  0  0
  -15.8682  -28.0824   22.7062 H   0  0  0  0  0  0
  -24.5905  -30.7075   25.7776 H   0  0  0  0  0  0
  -24.8904  -32.2908   26.4841 H   0  0  0  0  0  0
  -25.8040  -30.8938   27.0233 H   0  0  0  0  0  0
  -26.2932  -29.6750   24.1214 H   0  0  0  0  0  0
  -27.4022  -29.7256   25.4722 H   0  0  0  0  0  0
  -27.8815  -30.4281   23.9454 H   0  0  0  0  0  0
  -27.2652  -33.3632   26.2055 H   0  0  0  0  0  0
  -28.3868  -32.6887   25.0325 H   0  0  0  0  0  0
  -28.0717  -31.8468   26.5425 H   0  0  0  0  0  0
  -28.2590  -38.0095   24.7507 H   0  0  0  0  0  0
  -28.1074  -36.2624   24.6297 H   0  0  0  0  0  0
  -27.2288  -37.1455   25.8868 H   0  0  0  0  0  0
  -20.9393  -29.8773   21.6866 H   0  0  0  0  0  0
  -26.0165  -38.2840   24.1413 H   0  0  0  0  0  0
  -31.1167  -21.0117   21.8240 H   0  0  0  0  0  0
  -32.6045  -19.1597   22.3914 H   0  0  0  0  0  0
  -28.3685  -18.1945   20.0386 H   0  0  0  0  0  0
  -30.7683  -21.5290   19.0651 H   0  0  0  0  0  0
  -31.0758  -22.6971   20.3592 H   0  0  0  0  0  0
  -30.5734  -23.2321   18.7623 H   0  0  0  0  0  0
  -28.3269  -21.3177   21.6574 H   0  0  0  0  0  0
  -27.7267  -20.6875   20.1689 H   0  0  0  0  0  0
  -27.4788  -23.5400   20.9128 H   0  0  0  0  0  0
  -29.0942  -23.9241   21.4169 H   0  0  0  0  0  0
  -29.3912  -25.0869   19.0859 H   0  0  0  0  0  0
  -27.7252  -24.8926   18.8081 H   0  0  0  0  0  0
  -28.8352  -15.6521   20.6995 H   0  0  0  0  0  0
  -28.5112  -22.2778   19.0573 H   0  0  0  0  0  0
  1 25  1  0  0  0
  1 30  2  0  0  0
  1 81  1  0  0  0
  2  3  1  0  0  0
  2 25  1  0  0  0
  2 84  1  0  0  0
  2 85  1  0  0  0
  3  4  1  0  0  0
  3 86  1  0  0  0
  3 87  1  0  0  0
  4  5  1  0  0  0
  4 88  1  0  0  0
  4 89  1  0  0  0
  5  6  1  0  0  0
  5 26  1  0  0  0
  5 90  1  0  0  0
  6 25  1  0  0  0
  6 91  1  0  0  0
  6 92  1  0  0  0
  7  8  2  0  0  0
  7 26  1  0  0  0
  7 29  1  0  0  0
  8  9  1  0  0  0
  8 22  1  0  0  0
  9 10  1  0  0  0
  9 27  2  0  0  0
 10 11  2  0  0  0
 10 15  1  0  0  0
 11 12  1  0  0  0
 11 93  1  0  0  0
 12 13  2  0  0  0
 12 94  1  0  0  0
 13 14  1  0  0  0
 13 31  1  0  0  0
 14 15  2  0  0  0
 14 95  1  0  0  0
 15 96  1  0  0  0
 16 17  2  0  0  0
 16 21  1  0  0  0
 16 31  1  0  0  0
 17 18  1  0  0  0
 17 97  1  0  0  0
 18 19  2  0  0  0
 18 98  1  0  0  0
 19 20  1  0  0  0
 19 24  1  0  0  0
 20 21  2  0  0  0
 20 99  1  0  0  0
 21 23  1  0  0  0
 22 28  1  0  0  0
 22 32  2  0  0  0
 26 27  1  0  0  0
 28100  1  0  0  0
 28101  1  0  0  0
 29102  1  0  0  0
 29103  1  0  0  0
 33 34  1  0  0  0
 33 66  1  0  0  0
 33 70  2  0  0  0
 34 36  1  0  0  0
 34 59  1  0  0  0
 34104  1  0  0  0
 35 44  2  0  0  0
 35 45  1  0  0  0
 35 68  1  0  0  0
 36 56  1  0  0  0
 36105  1  0  0  0
 37 39  1  0  0  0
 37 47  1  0  0  0
 37 66  1  0  0  0
 37106  1  0  0  0
 38 43  2  0  0  0
 38 46  1  0  0  0
 38 47  1  0  0  0
 39 64  1  0  0  0
 39 67  2  0  0  0
 40 52  1  0  0  0
 40 53  2  0  0  0
 40 58  1  0  0  0
 41107  1  0  0  0
 41108  1  0  0  0
 41109  1  0  0  0
 41 48  1  0  0  0
 42 43  1  0  0  0
 42 66  1  0  0  0
 42110  1  0  0  0
 42111  1  0  0  0
 43 44  1  0  0  0
 44112  1  0  0  0
 45 46  2  0  0  0
 45113  1  0  0  0
 46114  1  0  0  0
 47115  1  0  0  0
 47116  1  0  0  0
 48 56  1  0  0  0
 48 65  1  0  0  0
 48117  1  0  0  0
 49 50  1  0  0  0
 49 53  1  0  0  0
 49 64  1  0  0  0
 49118  1  0  0  0
 50 51  1  0  0  0
 50119  1  0  0  0
 50120  1  0  0  0
 51 52  1  0  0  0
 51121  1  0  0  0
 51122  1  0  0  0
 52123  1  0  0  0
 52124  1  0  0  0
 53 54  1  0  0  0
 54 55  2  0  0  0
 54125  1  0  0  0
 55 57  1  0  0  0
 55126  1  0  0  0
 56 69  2  0  0  0
 57 58  2  0  0  0
 57127  1  0  0  0
 58128  1  0  0  0
 59 60  1  0  0  0
 59 61  1  0  0  0
 59 62  1  0  0  0
 60129  1  0  0  0
 60130  1  0  0  0
 60131  1  0  0  0
 61132  1  0  0  0
 61133  1  0  0  0
 61134  1  0  0  0
 62135  1  0  0  0
 62136  1  0  0  0
 62137  1  0  0  0
 63 65  1  0  0  0
 63138  1  0  0  0
 63139  1  0  0  0
 63140  1  0  0  0
 64141  1  0  0  0
 65142  1  0  0  0
 68 80  1  0  0  0
 71 72  2  0  0  0
 71 74  1  0  0  0
 71143  1  0  0  0
 72 76  1  0  0  0
 72144  1  0  0  0
 73 74  2  0  0  0
 73 75  1  0  0  0
 73145  1  0  0  0
 74 78  1  0  0  0
 75 76  2  0  0  0
 75 81  1  0  0  0
 76 83  1  0  0  0
 77146  1  0  0  0
 77147  1  0  0  0
 77148  1  0  0  0
 77 82  1  0  0  0
 78 82  1  0  0  0
 78149  1  0  0  0
 78150  1  0  0  0
 79 80  1  0  0  0
 79 82  1  0  0  0
 79151  1  0  0  0
 79152  1  0  0  0
 80153  1  0  0  0
 80154  1  0  0  0
 81155  1  0  0  0
 82156  1  0  0  0
M  CHG  1  82   1
M  ISO  4   1 100  68 101  80 101  81 100
M  END
> <chiral flag>
0

> <version>
0

> <s_m_source_file>
/data/baiqing/PycharmProjects/Reinvent-master-3.2/result/LINK_invent/BTK/process_docking_weight1_custom_product_contain_oxygen_bond_distance_aromatic_linkinvent_7_9_3/rearranged_h_0021.sdf

> <i_m_source_file_index>
72

> <r_mmod_Potential_Energy-OPLS-2005>
39.6773147583008

> <r_mmod_Stretch_Energy-OPLS-2005>
126.203804016113

> <r_mmod_Bend_Energy-OPLS-2005>
181.389770507812

> <r_mmod_Torsional_Energy-OPLS-2005>
220.370712280273

> <r_mmod_Improper_Torsional_Energy-OPLS-2005>
7.90513563156128

> <r_mmod_Van_der_Waal_Energy-OPLS-2005>
145.479476928711

> <r_mmod_Electrostatic_Energy-OPLS-2005>
-250.979354858398

> <r_mmod_Solvation_Energy-OPLS-2005>
-466.325744628906

> <b_mmod_Minimization_Converged-OPLS-2005>
0

> <r_mmod_RMS_Derivative-OPLS-2005>
0.904192805290222

$$$$
72
                    3D
 Structure written by MMmdl.
161169  0  0  1  0            999 V2000
  -30.7310  -14.4617   20.6002 C   0  0  0  0  0  0
  -30.4175  -12.3225   19.4062 C   0  0  0  0  0  0
  -29.4818  -12.5047   18.1957 C   0  0  0  0  0  0
  -28.0052  -12.3600   18.6116 C   0  0  0  0  0  0
  -27.6527  -13.2040   19.8640 C   0  0  2  0  0  0
  -28.6984  -13.0034   20.9825 C   0  0  0  0  0  0
  -25.2546  -13.8158   20.5663 C   0  0  0  0  0  0
  -24.1811  -13.0417   20.9197 C   0  0  0  0  0  0
  -24.6374  -11.6902   20.8759 C   0  0  0  0  0  0
  -23.9055  -10.4283   21.0413 C   0  0  0  0  0  0
  -24.3615   -9.4198   21.9183 C   0  0  0  0  0  0
  -23.6295   -8.2227   22.0748 C   0  0  0  0  0  0
  -22.4276   -8.0274   21.3538 C   0  0  0  0  0  0
  -21.9919   -9.0245   20.4630 C   0  0  0  0  0  0
  -22.7242  -10.2126   20.3048 C   0  0  0  0  0  0
  -21.6843   -6.0739   22.5283 C   0  0  0  0  0  0
  -21.4006   -6.5636   23.8221 C   0  0  0  0  0  0
  -21.3664   -5.6791   24.9183 C   0  0  0  0  0  0
  -21.6048   -4.3051   24.7234 C   0  0  0  0  0  0
  -21.8821   -3.8150   23.4345 C   0  0  0  0  0  0
  -21.9188   -4.6965   22.3409 C   0  0  0  0  0  0
  -22.7831  -13.5224   21.1871 C   0  0  0  0  0  0
  -22.1657   -4.2157   21.0977 F   0  0  0  0  0  0
  -21.5643   -3.4534   25.7742 F   0  0  0  0  0  0
  -30.0268  -13.3078   20.4258 N   0  0  0  0  0  0
  -26.2966  -12.9316   20.3327 N   0  0  0  0  0  0
  -25.9296  -11.6482   20.5768 N   0  0  0  0  0  0
  -22.0462  -12.8202   22.0409 N   0  0  0  0  0  0
  -25.4225  -15.1870   20.4051 N   0  0  0  0  0  0
  -31.8662  -14.6195   20.1432 O   0  0  0  0  0  0
  -21.6630   -6.8877   21.4244 O   0  0  0  0  0  0
  -22.3528  -14.5535   20.6731 O   0  0  0  0  0  0
  -24.6149  -31.8702   23.2130 C   0  0  0  0  0  0
  -25.9054  -32.4832   23.8408 C   0  0  1  0  0  0
  -27.2399  -27.4409   20.0863 C   0  0  0  0  0  0
  -25.5930  -33.8630   24.2340 N   0  0  0  0  0  0
  -23.4006  -30.4934   21.5561 C   0  0  2  0  0  0
  -24.8459  -28.9637   20.1153 C   0  0  0  0  0  0
  -22.7405  -29.4689   22.5062 C   0  0  0  0  0  0
  -18.0271  -28.1388   22.8499 C   0  0  0  0  0  0
  -24.1470  -36.7319   23.2635 C   0  0  0  0  0  0
  -25.9278  -30.8392   21.3602 C   0  0  0  0  0  0
  -26.0072  -29.4717   20.7112 C   0  0  0  0  0  0
  -27.2057  -28.7186   20.6939 C   0  0  0  0  0  0
  -26.0566  -26.9587   19.4743 C   0  0  0  0  0  0
  -24.8678  -27.7064   19.4923 C   0  0  0  0  0  0
  -23.6055  -29.8266   20.1694 C   0  0  0  0  0  0
  -25.4088  -36.3124   24.0340 C   0  0  1  0  0  0
  -20.5855  -28.3675   23.1355 C   0  0  2  0  0  0
  -20.6775  -26.9433   22.5418 C   0  0  0  0  0  0
  -19.5755  -26.6401   21.5223 C   0  0  0  0  0  0
  -18.1924  -26.7944   22.1613 C   0  0  0  0  0  0
  -19.1515  -28.8853   23.2910 C   0  0  0  0  0  0
  -18.9435  -30.1472   23.8897 C   0  0  0  0  0  0
  -17.6436  -30.6601   24.0569 C   0  0  0  0  0  0
  -25.9032  -34.9487   23.5129 C   0  0  0  0  0  0
  -16.5336  -29.9089   23.6339 C   0  0  0  0  0  0
  -16.7260  -28.6510   23.0358 C   0  0  0  0  0  0
  -26.4471  -31.6595   25.0722 C   0  0  0  0  0  0
  -25.3764  -31.3639   26.1476 C   0  0  0  0  0  0
  -27.0295  -30.3066   24.6032 C   0  0  0  0  0  0
  -27.6032  -32.4316   25.7502 C   0  0  0  0  0  0
  -27.5584  -37.1801   24.8462 C   0  0  0  0  0  0
  -21.4139  -29.3047   22.3788 N   0  0  0  0  0  0
  -26.4266  -37.3818   23.9450 N   0  0  0  0  0  0
  -24.6664  -31.0822   22.1016 N   0  0  0  0  0  0
  -23.4178  -28.8245   23.3115 O   0  0  0  0  0  0
  -28.4121  -26.7022   20.1063 O   0  0  0  0  0  0
  -26.5585  -34.8946   22.4684 O   0  0  0  0  0  0
  -23.5348  -32.1440   23.7544 O   0  0  0  0  0  0
  -30.8238  -19.8352   19.6483 C   0  0  0  0  0  0
  -29.2333  -20.1650   21.4440 C   0  0  0  0  0  0
  -30.5504  -18.4445   19.6426 C   0  0  0  0  0  0
  -29.6059  -17.8976   20.5541 C   0  0  0  0  0  0
  -30.1590  -20.7140   20.5303 C   0  0  0  0  0  0
  -28.9613  -18.7790   21.4567 C   0  0  0  0  0  0
  -31.2779  -17.5719   18.6324 C   0  0  0  0  0  0
  -30.7407  -16.0034   22.4777 C   0  0  0  0  0  0
  -29.2249  -16.3998   20.5508 C   0  0  0  0  0  0
  -29.5535  -24.4709   20.2588 C   0  0  0  0  0  0
  -29.2523  -22.9503   20.2571 C   0  0  0  0  0  0
  -28.2694  -25.2787   19.9690 C   0  0  0  0  0  0
  -30.4233  -22.0992   20.4801 N   0  0  0  0  0  0
  -30.1108  -15.4600   21.2727 N   0  0  0  0  0  0
  -28.0588  -18.2960   22.3448 F   0  0  0  0  0  0
  -31.4568  -12.4323   19.0908 H   0  0  0  0  0  0
  -30.3382  -11.3125   19.8096 H   0  0  0  0  0  0
  -29.7217  -11.7748   17.4209 H   0  0  0  0  0  0
  -29.6405  -13.4886   17.7507 H   0  0  0  0  0  0
  -27.8143  -11.3038   18.8079 H   0  0  0  0  0  0
  -27.3545  -12.6355   17.7804 H   0  0  0  0  0  0
  -27.6847  -14.2445   19.5489 H   0  0  0  0  0  0
  -28.6808  -11.9710   21.3359 H   0  0  0  0  0  0
  -28.4568  -13.6169   21.8524 H   0  0  0  0  0  0
  -25.2757   -9.5672   22.4757 H   0  0  0  0  0  0
  -24.0013   -7.4615   22.7456 H   0  0  0  0  0  0
  -21.0864   -8.8755   19.8916 H   0  0  0  0  0  0
  -22.3710  -10.9666   19.6152 H   0  0  0  0  0  0
  -21.1981   -7.6142   23.9736 H   0  0  0  0  0  0
  -21.1495   -6.0509   25.9090 H   0  0  0  0  0  0
  -22.0596   -2.7612   23.2848 H   0  0  0  0  0  0
  -22.4074  -11.9854   22.4794 H   0  0  0  0  0  0
  -21.1063  -13.1206   22.2591 H   0  0  0  0  0  0
  -24.6521  -15.8370   20.5181 H   0  0  0  0  0  0
  -26.2671  -15.6323   20.0721 H   0  0  0  0  0  0
  -26.7137  -32.5551   23.1185 H   0  0  0  0  0  0
  -25.0166  -33.9789   25.0542 H   0  0  0  0  0  0
  -22.6856  -31.3073   21.4187 H   0  0  0  0  0  0
  -23.3755  -35.9631   23.3271 H   0  0  0  0  0  0
  -24.3582  -36.8963   22.2060 H   0  0  0  0  0  0
  -23.7168  -37.6491   23.6662 H   0  0  0  0  0  0
  -26.0287  -31.6030   20.5875 H   0  0  0  0  0  0
  -26.8198  -30.9047   21.9702 H   0  0  0  0  0  0
  -28.1005  -29.1100   21.1570 H   0  0  0  0  0  0
  -26.0216  -26.0093   18.9614 H   0  0  0  0  0  0
  -23.9849  -27.3061   19.0129 H   0  0  0  0  0  0
  -23.7080  -30.6000   19.4073 H   0  0  0  0  0  0
  -22.7270  -29.2460   19.8800 H   0  0  0  0  0  0
  -25.1241  -36.1994   25.0820 H   0  0  0  0  0  0
  -20.9910  -28.3236   24.1497 H   0  0  0  0  0  0
  -20.5751  -26.2278   23.3586 H   0  0  0  0  0  0
  -21.6644  -26.7540   22.1180 H   0  0  0  0  0  0
  -19.6927  -25.6303   21.1282 H   0  0  0  0  0  0
  -19.6714  -27.3185   20.6734 H   0  0  0  0  0  0
  -17.4213  -26.6741   21.3996 H   0  0  0  0  0  0
  -18.0304  -26.0059   22.8971 H   0  0  0  0  0  0
  -19.7899  -30.7318   24.2252 H   0  0  0  0  0  0
  -17.4975  -31.6285   24.5163 H   0  0  0  0  0  0
  -15.5334  -30.2986   23.7661 H   0  0  0  0  0  0
  -15.8659  -28.0838   22.7057 H   0  0  0  0  0  0
  -24.5975  -30.6933   25.7832 H   0  0  0  0  0  0
  -24.8905  -32.2756   26.4961 H   0  0  0  0  0  0
  -25.8162  -30.8814   27.0214 H   0  0  0  0  0  0
  -26.2812  -29.6850   24.1105 H   0  0  0  0  0  0
  -27.4139  -29.7264   25.4431 H   0  0  0  0  0  0
  -27.8610  -30.4441   23.9118 H   0  0  0  0  0  0
  -27.2658  -33.3648   26.2026 H   0  0  0  0  0  0
  -28.3869  -32.6819   25.0342 H   0  0  0  0  0  0
  -28.0652  -31.8467   26.5462 H   0  0  0  0  0  0
  -28.2526  -38.0171   24.7621 H   0  0  0  0  0  0
  -28.1147  -36.2714   24.6129 H   0  0  0  0  0  0
  -27.2347  -37.1265   25.8869 H   0  0  0  0  0  0
  -20.9308  -29.8768   21.7007 H   0  0  0  0  0  0
  -26.0164  -38.2894   24.1483 H   0  0  0  0  0  0
  -31.5425  -20.2329   18.9448 H   0  0  0  0  0  0
  -28.7240  -20.7999   22.1537 H   0  0  0  0  0  0
  -31.7562  -18.1766   17.8614 H   0  0  0  0  0  0
  -30.5991  -16.8897   18.1220 H   0  0  0  0  0  0
  -32.0559  -16.9906   19.1254 H   0  0  0  0  0  0
  -30.0056  -16.5199   23.0962 H   0  0  0  0  0  0
  -31.5325  -16.7085   22.2230 H   0  0  0  0  0  0
  -31.1797  -15.2130   23.0879 H   0  0  0  0  0  0
  -29.0978  -16.0802   19.5165 H   0  0  0  0  0  0
  -28.2299  -16.2898   20.9821 H   0  0  0  0  0  0
  -30.3032  -24.7207   19.5061 H   0  0  0  0  0  0
  -29.9703  -24.7653   21.2232 H   0  0  0  0  0  0
  -28.8098  -22.6714   19.2984 H   0  0  0  0  0  0
  -28.4967  -22.7490   21.0172 H   0  0  0  0  0  0
  -27.4863  -24.9317   20.6475 H   0  0  0  0  0  0
  -27.9535  -25.0424   18.9524 H   0  0  0  0  0  0
  -31.2198  -22.3579   19.9013 H   0  0  0  0  0  0
  1 25  1  0  0  0
  1 30  2  0  0  0
  1 84  1  0  0  0
  2  3  1  0  0  0
  2 25  1  0  0  0
  2 86  1  0  0  0
  2 87  1  0  0  0
  3  4  1  0  0  0
  3 88  1  0  0  0
  3 89  1  0  0  0
  4  5  1  0  0  0
  4 90  1  0  0  0
  4 91  1  0  0  0
  5  6  1  0  0  0
  5 26  1  0  0  0
  5 92  1  0  0  0
  6 25  1  0  0  0
  6 93  1  0  0  0
  6 94  1  0  0  0
  7  8  2  0  0  0
  7 26  1  0  0  0
  7 29  1  0  0  0
  8  9  1  0  0  0
  8 22  1  0  0  0
  9 10  1  0  0  0
  9 27  2  0  0  0
 10 11  2  0  0  0
 10 15  1  0  0  0
 11 12  1  0  0  0
 11 95  1  0  0  0
 12 13  2  0  0  0
 12 96  1  0  0  0
 13 14  1  0  0  0
 13 31  1  0  0  0
 14 15  2  0  0  0
 14 97  1  0  0  0
 15 98  1  0  0  0
 16 17  2  0  0  0
 16 21  1  0  0  0
 16 31  1  0  0  0
 17 18  1  0  0  0
 17 99  1  0  0  0
 18 19  2  0  0  0
 18100  1  0  0  0
 19 20  1  0  0  0
 19 24  1  0  0  0
 20 21  2  0  0  0
 20101  1  0  0  0
 21 23  1  0  0  0
 22 28  1  0  0  0
 22 32  2  0  0  0
 26 27  1  0  0  0
 28102  1  0  0  0
 28103  1  0  0  0
 29104  1  0  0  0
 29105  1  0  0  0
 33 34  1  0  0  0
 33 66  1  0  0  0
 33 70  2  0  0  0
 34 36  1  0  0  0
 34 59  1  0  0  0
 34106  1  0  0  0
 35 44  2  0  0  0
 35 45  1  0  0  0
 35 68  1  0  0  0
 36 56  1  0  0  0
 36107  1  0  0  0
 37 39  1  0  0  0
 37 47  1  0  0  0
 37 66  1  0  0  0
 37108  1  0  0  0
 38 43  2  0  0  0
 38 46  1  0  0  0
 38 47  1  0  0  0
 39 64  1  0  0  0
 39 67  2  0  0  0
 40 52  1  0  0  0
 40 53  2  0  0  0
 40 58  1  0  0  0
 41109  1  0  0  0
 41110  1  0  0  0
 41111  1  0  0  0
 41 48  1  0  0  0
 42 43  1  0  0  0
 42 66  1  0  0  0
 42112  1  0  0  0
 42113  1  0  0  0
 43 44  1  0  0  0
 44114  1  0  0  0
 45 46  2  0  0  0
 45115  1  0  0  0
 46116  1  0  0  0
 47117  1  0  0  0
 47118  1  0  0  0
 48 56  1  0  0  0
 48 65  1  0  0  0
 48119  1  0  0  0
 49 50  1  0  0  0
 49 53  1  0  0  0
 49 64  1  0  0  0
 49120  1  0  0  0
 50 51  1  0  0  0
 50121  1  0  0  0
 50122  1  0  0  0
 51 52  1  0  0  0
 51123  1  0  0  0
 51124  1  0  0  0
 52125  1  0  0  0
 52126  1  0  0  0
 53 54  1  0  0  0
 54 55  2  0  0  0
 54127  1  0  0  0
 55 57  1  0  0  0
 55128  1  0  0  0
 56 69  2  0  0  0
 57 58  2  0  0  0
 57129  1  0  0  0
 58130  1  0  0  0
 59 60  1  0  0  0
 59 61  1  0  0  0
 59 62  1  0  0  0
 60131  1  0  0  0
 60132  1  0  0  0
 60133  1  0  0  0
 61134  1  0  0  0
 61135  1  0  0  0
 61136  1  0  0  0
 62137  1  0  0  0
 62138  1  0  0  0
 62139  1  0  0  0
 63 65  1  0  0  0
 63140  1  0  0  0
 63141  1  0  0  0
 63142  1  0  0  0
 64143  1  0  0  0
 65144  1  0  0  0
 68 82  1  0  0  0
 71 73  2  0  0  0
 71 75  1  0  0  0
 71145  1  0  0  0
 72 75  2  0  0  0
 72 76  1  0  0  0
 72146  1  0  0  0
 73 74  1  0  0  0
 73 77  1  0  0  0
 74 76  2  0  0  0
 74 79  1  0  0  0
 75 83  1  0  0  0
 76 85  1  0  0  0
 77147  1  0  0  0
 77148  1  0  0  0
 77149  1  0  0  0
 78 84  1  0  0  0
 78150  1  0  0  0
 78151  1  0  0  0
 78152  1  0  0  0
 79 84  1  0  0  0
 79153  1  0  0  0
 79154  1  0  0  0
 80 81  1  0  0  0
 80 82  1  0  0  0
 80155  1  0  0  0
 80156  1  0  0  0
 81 83  1  0  0  0
 81157  1  0  0  0
 81158  1  0  0  0
 82159  1  0  0  0
 82160  1  0  0  0
 83161  1  0  0  0
M  ISO  4   1 100  68 101  82 101  84 100
M  END
> <chiral flag>
0

> <version>
0

> <s_m_source_file>
/data/baiqing/PycharmProjects/Reinvent-master-3.2/result/LINK_invent/BTK/process_docking_weight1_custom_product_contain_oxygen_bond_distance_aromatic_linkinvent_7_9_3/rearranged_h_0021.sdf

> <i_m_source_file_index>
73

> <r_mmod_Potential_Energy-OPLS-2005>
112.314826965332

> <r_mmod_Stretch_Energy-OPLS-2005>
40.1365356445312

> <r_mmod_Bend_Energy-OPLS-2005>
97.0614318847656

> <r_mmod_Torsional_Energy-OPLS-2005>
279.231475830078

> <r_mmod_Improper_Torsional_Energy-OPLS-2005>
8.06211566925049

> <r_mmod_Van_der_Waal_Energy-OPLS-2005>
152.635955810547

> <r_mmod_Electrostatic_Energy-OPLS-2005>
-278.310943603516

> <r_mmod_Solvation_Energy-OPLS-2005>
-199.934692382812

> <b_mmod_Minimization_Converged-OPLS-2005>
0

> <r_mmod_RMS_Derivative-OPLS-2005>
2.43941879272461

$$$$
73
                    3D
 Structure written by MMmdl.
158166  0  0  1  0            999 V2000
  -30.6730  -14.6259   20.5286 C   0  0  0  0  0  0
  -30.4244  -12.4023   19.4525 C   0  0  0  0  0  0
  -29.4997  -12.5281   18.2239 C   0  0  0  0  0  0
  -28.0212  -12.3736   18.6306 C   0  0  0  0  0  0
  -27.6525  -13.2248   19.8746 C   0  0  2  0  0  0
  -28.6957  -13.0635   20.9983 C   0  0  0  0  0  0
  -25.2540  -13.8196   20.5718 C   0  0  0  0  0  0
  -24.1805  -13.0450   20.9197 C   0  0  0  0  0  0
  -24.6386  -11.6920   20.8742 C   0  0  0  0  0  0
  -23.9063  -10.4291   21.0400 C   0  0  0  0  0  0
  -24.3610   -9.4208   21.9175 C   0  0  0  0  0  0
  -23.6291   -8.2246   22.0746 C   0  0  0  0  0  0
  -22.4271   -8.0289   21.3545 C   0  0  0  0  0  0
  -21.9910   -9.0255   20.4629 C   0  0  0  0  0  0
  -22.7241  -10.2135   20.3040 C   0  0  0  0  0  0
  -21.6848   -6.0753   22.5278 C   0  0  0  0  0  0
  -21.4014   -6.5654   23.8217 C   0  0  0  0  0  0
  -21.3649   -5.6801   24.9180 C   0  0  0  0  0  0
  -21.6036   -4.3067   24.7234 C   0  0  0  0  0  0
  -21.8819   -3.8166   23.4348 C   0  0  0  0  0  0
  -21.9188   -4.6978   22.3399 C   0  0  0  0  0  0
  -22.7821  -13.5229   21.1874 C   0  0  0  0  0  0
  -22.1657   -4.2167   21.0977 F   0  0  0  0  0  0
  -21.5622   -3.4549   25.7744 F   0  0  0  0  0  0
  -30.0052  -13.4275   20.4321 N   0  0  0  0  0  0
  -26.2984  -12.9395   20.3392 N   0  0  0  0  0  0
  -25.9329  -11.6542   20.5782 N   0  0  0  0  0  0
  -22.0463  -12.8178   22.0413 N   0  0  0  0  0  0
  -25.4263  -15.1906   20.4159 N   0  0  0  0  0  0
  -31.8300  -14.7107   20.1031 O   0  0  0  0  0  0
  -21.6629   -6.8893   21.4240 O   0  0  0  0  0  0
  -22.3503  -14.5543   20.6737 O   0  0  0  0  0  0
  -24.6270  -31.8560   23.2053 C   0  0  0  0  0  0
  -25.9127  -32.4719   23.8390 C   0  0  1  0  0  0
  -27.2282  -27.3470   20.1074 C   0  0  0  0  0  0
  -25.5902  -33.8538   24.2295 N   0  0  0  0  0  0
  -23.4184  -30.4871   21.5449 C   0  0  2  0  0  0
  -24.8651  -28.9401   20.1155 C   0  0  0  0  0  0
  -22.7425  -29.4650   22.4913 C   0  0  0  0  0  0
  -18.0263  -28.1338   22.8486 C   0  0  0  0  0  0
  -24.1466  -36.7321   23.2650 C   0  0  0  0  0  0
  -25.9598  -30.7967   21.3706 C   0  0  0  0  0  0
  -26.0348  -29.4286   20.7116 C   0  0  0  0  0  0
  -27.2256  -28.6477   20.6915 C   0  0  0  0  0  0
  -26.0401  -26.9002   19.4938 C   0  0  0  0  0  0
  -24.8662  -27.6770   19.5027 C   0  0  0  0  0  0
  -23.6325  -29.8207   20.1615 C   0  0  0  0  0  0
  -25.4074  -36.3047   24.0316 C   0  0  1  0  0  0
  -20.5864  -28.3665   23.1231 C   0  0  2  0  0  0
  -20.6753  -26.9380   22.5364 C   0  0  0  0  0  0
  -19.5722  -26.6357   21.5161 C   0  0  0  0  0  0
  -18.1899  -26.7885   22.1591 C   0  0  0  0  0  0
  -19.1520  -28.8823   23.2866 C   0  0  0  0  0  0
  -18.9461  -30.1434   23.8870 C   0  0  0  0  0  0
  -17.6468  -30.6556   24.0564 C   0  0  0  0  0  0
  -25.9012  -34.9413   23.5111 C   0  0  0  0  0  0
  -16.5366  -29.9042   23.6325 C   0  0  0  0  0  0
  -16.7254  -28.6465   23.0334 C   0  0  0  0  0  0
  -26.4522  -31.6538   25.0782 C   0  0  0  0  0  0
  -25.3798  -31.3647   26.1541 C   0  0  0  0  0  0
  -27.0429  -30.2965   24.6293 C   0  0  0  0  0  0
  -27.6047  -32.4328   25.7550 C   0  0  0  0  0  0
  -27.5546  -37.1799   24.8447 C   0  0  0  0  0  0
  -21.4148  -29.3064   22.3654 N   0  0  0  0  0  0
  -26.4246  -37.3746   23.9417 N   0  0  0  0  0  0
  -24.6882  -31.0616   22.0964 N   0  0  0  0  0  0
  -23.4143  -28.8158   23.2985 O   0  0  0  0  0  0
  -28.3371  -26.5036   20.1150 O   0  0  0  0  0  0
  -26.5591  -34.8888   22.4675 O   0  0  0  0  0  0
  -23.5442  -32.1335   23.7376 O   0  0  0  0  0  0
  -28.5944  -18.8571   20.9768 C   0  0  0  0  0  0
  -28.1895  -20.2074   21.1680 C   0  0  0  0  0  0
  -30.0769  -20.9770   19.9063 C   0  0  0  0  0  0
  -29.7730  -18.5128   20.2621 C   0  0  0  0  0  0
  -30.5115  -19.6262   19.7344 C   0  0  0  0  0  0
  -28.9059  -21.3041   20.6260 C   0  0  0  0  0  0
  -31.7966  -19.4186   18.9413 C   0  0  0  0  0  0
  -29.4150  -15.9968   22.1282 C   0  0  0  0  0  0
  -30.2032  -17.0195   19.9313 C   0  0  0  0  0  0
  -28.7468  -23.8676   20.0793 C   0  0  0  0  0  0
  -28.1306  -25.1819   20.7294 C   0  0  0  0  0  0
  -28.4322  -22.6325   20.8529 N   0  0  0  0  0  0
  -29.9507  -15.7832   20.7788 N   0  0  0  0  0  0
  -31.4652  -12.5127   19.1461 H   0  0  0  0  0  0
  -30.3562  -11.4052   19.8889 H   0  0  0  0  0  0
  -29.7611  -11.7818   17.4723 H   0  0  0  0  0  0
  -29.6465  -13.5011   17.7524 H   0  0  0  0  0  0
  -27.8446  -11.3172   18.8403 H   0  0  0  0  0  0
  -27.3695  -12.6324   17.7948 H   0  0  0  0  0  0
  -27.6761  -14.2667   19.5598 H   0  0  0  0  0  0
  -28.7143  -12.0317   21.3531 H   0  0  0  0  0  0
  -28.4232  -13.6552   21.8661 H   0  0  0  0  0  0
  -25.2754   -9.5689   22.4758 H   0  0  0  0  0  0
  -24.0002   -7.4643   22.7471 H   0  0  0  0  0  0
  -21.0851   -8.8778   19.8928 H   0  0  0  0  0  0
  -22.3712  -10.9678   19.6150 H   0  0  0  0  0  0
  -21.2013   -7.6159   23.9737 H   0  0  0  0  0  0
  -21.1463   -6.0528   25.9083 H   0  0  0  0  0  0
  -22.0603   -2.7634   23.2855 H   0  0  0  0  0  0
  -22.4109  -11.9829   22.4766 H   0  0  0  0  0  0
  -21.1084  -13.1200   22.2646 H   0  0  0  0  0  0
  -24.6626  -15.8492   20.5242 H   0  0  0  0  0  0
  -26.2829  -15.6293   20.1017 H   0  0  0  0  0  0
  -26.7210  -32.5433   23.1166 H   0  0  0  0  0  0
  -25.0017  -33.9667   25.0420 H   0  0  0  0  0  0
  -22.7160  -31.3118   21.4009 H   0  0  0  0  0  0
  -23.3670  -35.9703   23.3256 H   0  0  0  0  0  0
  -24.3566  -36.9025   22.2078 H   0  0  0  0  0  0
  -23.7309  -37.6543   23.6731 H   0  0  0  0  0  0
  -26.0902  -31.5555   20.5976 H   0  0  0  0  0  0
  -26.8401  -30.8468   21.9990 H   0  0  0  0  0  0
  -28.1329  -29.0227   21.1442 H   0  0  0  0  0  0
  -26.0130  -25.9295   19.0191 H   0  0  0  0  0  0
  -23.9647  -27.2922   19.0458 H   0  0  0  0  0  0
  -23.7552  -30.6001   19.4088 H   0  0  0  0  0  0
  -22.7491  -29.2570   19.8563 H   0  0  0  0  0  0
  -25.1233  -36.1893   25.0804 H   0  0  0  0  0  0
  -20.9986  -28.3257   24.1334 H   0  0  0  0  0  0
  -20.5590  -26.2270   23.3567 H   0  0  0  0  0  0
  -21.6620  -26.7312   22.1211 H   0  0  0  0  0  0
  -19.6857  -25.6250   21.1229 H   0  0  0  0  0  0
  -19.6659  -27.3138   20.6667 H   0  0  0  0  0  0
  -17.4152  -26.6628   21.4019 H   0  0  0  0  0  0
  -18.0316  -25.9988   22.8962 H   0  0  0  0  0  0
  -19.7952  -30.7279   24.2179 H   0  0  0  0  0  0
  -17.5015  -31.6230   24.5169 H   0  0  0  0  0  0
  -15.5366  -30.2950   23.7645 H   0  0  0  0  0  0
  -15.8649  -28.0814   22.6986 H   0  0  0  0  0  0
  -24.5926  -30.6996   25.7955 H   0  0  0  0  0  0
  -24.9026  -32.2787   26.5075 H   0  0  0  0  0  0
  -25.8186  -30.8803   27.0271 H   0  0  0  0  0  0
  -26.3052  -29.6636   24.1351 H   0  0  0  0  0  0
  -27.4154  -29.7286   25.4839 H   0  0  0  0  0  0
  -27.8863  -30.4223   23.9504 H   0  0  0  0  0  0
  -27.2595  -33.3619   26.2084 H   0  0  0  0  0  0
  -28.3868  -32.6929   25.0407 H   0  0  0  0  0  0
  -28.0683  -31.8511   26.5516 H   0  0  0  0  0  0
  -28.2516  -38.0132   24.7486 H   0  0  0  0  0  0
  -28.1106  -36.2673   24.6264 H   0  0  0  0  0  0
  -27.2293  -37.1431   25.8857 H   0  0  0  0  0  0
  -20.9287  -29.8862   21.6969 H   0  0  0  0  0  0
  -26.0105  -38.2814   24.1431 H   0  0  0  0  0  0
  -27.9558  -18.0854   21.3770 H   0  0  0  0  0  0
  -27.2879  -20.3948   21.7356 H   0  0  0  0  0  0
  -30.6679  -21.7791   19.4877 H   0  0  0  0  0  0
  -32.2698  -20.3695   18.6916 H   0  0  0  0  0  0
  -31.5999  -18.8981   18.0032 H   0  0  0  0  0  0
  -32.5321  -18.8512   19.5131 H   0  0  0  0  0  0
  -28.3243  -15.9773   22.1150 H   0  0  0  0  0  0
  -29.7410  -16.9458   22.5504 H   0  0  0  0  0  0
  -29.7487  -15.2285   22.8293 H   0  0  0  0  0  0
  -31.2718  -17.0448   19.7321 H   0  0  0  0  0  0
  -29.7566  -16.7964   18.9588 H   0  0  0  0  0  0
  -29.8261  -23.9709   19.9617 H   0  0  0  0  0  0
  -28.3374  -23.7460   19.0747 H   0  0  0  0  0  0
  -28.5283  -25.2700   21.7410 H   0  0  0  0  0  0
  -27.0655  -24.9945   20.8742 H   0  0  0  0  0  0
  -27.6080  -22.7073   21.4449 H   0  0  0  0  0  0
  1 25  1  0  0  0
  1 30  2  0  0  0
  1 83  1  0  0  0
  2  3  1  0  0  0
  2 25  1  0  0  0
  2 84  1  0  0  0
  2 85  1  0  0  0
  3  4  1  0  0  0
  3 86  1  0  0  0
  3 87  1  0  0  0
  4  5  1  0  0  0
  4 88  1  0  0  0
  4 89  1  0  0  0
  5  6  1  0  0  0
  5 26  1  0  0  0
  5 90  1  0  0  0
  6 25  1  0  0  0
  6 91  1  0  0  0
  6 92  1  0  0  0
  7  8  2  0  0  0
  7 26  1  0  0  0
  7 29  1  0  0  0
  8  9  1  0  0  0
  8 22  1  0  0  0
  9 10  1  0  0  0
  9 27  2  0  0  0
 10 11  2  0  0  0
 10 15  1  0  0  0
 11 12  1  0  0  0
 11 93  1  0  0  0
 12 13  2  0  0  0
 12 94  1  0  0  0
 13 14  1  0  0  0
 13 31  1  0  0  0
 14 15  2  0  0  0
 14 95  1  0  0  0
 15 96  1  0  0  0
 16 17  2  0  0  0
 16 21  1  0  0  0
 16 31  1  0  0  0
 17 18  1  0  0  0
 17 97  1  0  0  0
 18 19  2  0  0  0
 18 98  1  0  0  0
 19 20  1  0  0  0
 19 24  1  0  0  0
 20 21  2  0  0  0
 20 99  1  0  0  0
 21 23  1  0  0  0
 22 28  1  0  0  0
 22 32  2  0  0  0
 26 27  1  0  0  0
 28100  1  0  0  0
 28101  1  0  0  0
 29102  1  0  0  0
 29103  1  0  0  0
 33 34  1  0  0  0
 33 66  1  0  0  0
 33 70  2  0  0  0
 34 36  1  0  0  0
 34 59  1  0  0  0
 34104  1  0  0  0
 35 44  2  0  0  0
 35 45  1  0  0  0
 35 68  1  0  0  0
 36 56  1  0  0  0
 36105  1  0  0  0
 37 39  1  0  0  0
 37 47  1  0  0  0
 37 66  1  0  0  0
 37106  1  0  0  0
 38 43  2  0  0  0
 38 46  1  0  0  0
 38 47  1  0  0  0
 39 64  1  0  0  0
 39 67  2  0  0  0
 40 52  1  0  0  0
 40 53  2  0  0  0
 40 58  1  0  0  0
 41107  1  0  0  0
 41108  1  0  0  0
 41109  1  0  0  0
 41 48  1  0  0  0
 42 43  1  0  0  0
 42 66  1  0  0  0
 42110  1  0  0  0
 42111  1  0  0  0
 43 44  1  0  0  0
 44112  1  0  0  0
 45 46  2  0  0  0
 45113  1  0  0  0
 46114  1  0  0  0
 47115  1  0  0  0
 47116  1  0  0  0
 48 56  1  0  0  0
 48 65  1  0  0  0
 48117  1  0  0  0
 49 50  1  0  0  0
 49 53  1  0  0  0
 49 64  1  0  0  0
 49118  1  0  0  0
 50 51  1  0  0  0
 50119  1  0  0  0
 50120  1  0  0  0
 51 52  1  0  0  0
 51121  1  0  0  0
 51122  1  0  0  0
 52123  1  0  0  0
 52124  1  0  0  0
 53 54  1  0  0  0
 54 55  2  0  0  0
 54125  1  0  0  0
 55 57  1  0  0  0
 55126  1  0  0  0
 56 69  2  0  0  0
 57 58  2  0  0  0
 57127  1  0  0  0
 58128  1  0  0  0
 59 60  1  0  0  0
 59 61  1  0  0  0
 59 62  1  0  0  0
 60129  1  0  0  0
 60130  1  0  0  0
 60131  1  0  0  0
 61132  1  0  0  0
 61133  1  0  0  0
 61134  1  0  0  0
 62135  1  0  0  0
 62136  1  0  0  0
 62137  1  0  0  0
 63 65  1  0  0  0
 63138  1  0  0  0
 63139  1  0  0  0
 63140  1  0  0  0
 64141  1  0  0  0
 65142  1  0  0  0
 68 81  1  0  0  0
 71 72  2  0  0  0
 71 74  1  0  0  0
 71143  1  0  0  0
 72 76  1  0  0  0
 72144  1  0  0  0
 73 75  1  0  0  0
 73 76  2  0  0  0
 73145  1  0  0  0
 74 75  2  0  0  0
 74 79  1  0  0  0
 75 77  1  0  0  0
 76 82  1  0  0  0
 77146  1  0  0  0
 77147  1  0  0  0
 77148  1  0  0  0
 78 83  1  0  0  0
 78149  1  0  0  0
 78150  1  0  0  0
 78151  1  0  0  0
 79 83  1  0  0  0
 79152  1  0  0  0
 79153  1  0  0  0
 80 81  1  0  0  0
 80 82  1  0  0  0
 80154  1  0  0  0
 80155  1  0  0  0
 81156  1  0  0  0
 81157  1  0  0  0
 82158  1  0  0  0
M  ISO  4   1 100  68 101  81 101  83 100
M  END
> <chiral flag>
0

> <version>
0

> <s_m_source_file>
/data/baiqing/PycharmProjects/Reinvent-master-3.2/result/LINK_invent/BTK/process_docking_weight1_custom_product_contain_oxygen_bond_distance_aromatic_linkinvent_7_9_3/rearranged_h_0021.sdf

> <i_m_source_file_index>
74

> <r_mmod_Potential_Energy-OPLS-2005>
190.65673828125

> <r_mmod_Stretch_Energy-OPLS-2005>
79.838020324707

> <r_mmod_Bend_Energy-OPLS-2005>
162.783050537109

> <r_mmod_Torsional_Energy-OPLS-2005>
267.759155273438

> <r_mmod_Improper_Torsional_Energy-OPLS-2005>
11.1849536895752

> <r_mmod_Van_der_Waal_Energy-OPLS-2005>
155.193359375

> <r_mmod_Electrostatic_Energy-OPLS-2005>
-319.808990478516

> <r_mmod_Solvation_Energy-OPLS-2005>
-205.79997253418

> <b_mmod_Minimization_Converged-OPLS-2005>
0

> <r_mmod_RMS_Derivative-OPLS-2005>
4.07783365249634

$$$$
74
                    3D
 Structure written by MMmdl.
158166  0  0  1  0            999 V2000
  -30.7155  -14.6337   20.5397 C   0  0  0  0  0  0
  -30.4190  -12.4091   19.4655 C   0  0  0  0  0  0
  -29.5008  -12.5059   18.2301 C   0  0  0  0  0  0
  -28.0284  -12.3355   18.6412 C   0  0  0  0  0  0
  -27.6476  -13.2227   19.8554 C   0  0  2  0  0  0
  -28.6866  -13.0961   20.9856 C   0  0  0  0  0  0
  -25.2548  -13.8183   20.5710 C   0  0  0  0  0  0
  -24.1808  -13.0444   20.9207 C   0  0  0  0  0  0
  -24.6390  -11.6926   20.8762 C   0  0  0  0  0  0
  -23.9070  -10.4316   21.0433 C   0  0  0  0  0  0
  -24.3638   -9.4234   21.9205 C   0  0  0  0  0  0
  -23.6331   -8.2271   22.0733 C   0  0  0  0  0  0
  -22.4310   -8.0315   21.3533 C   0  0  0  0  0  0
  -21.9942   -9.0277   20.4619 C   0  0  0  0  0  0
  -22.7257  -10.2169   20.3049 C   0  0  0  0  0  0
  -21.6870   -6.0773   22.5279 C   0  0  0  0  0  0
  -21.4012   -6.5655   23.8215 C   0  0  0  0  0  0
  -21.3648   -5.6797   24.9163 C   0  0  0  0  0  0
  -21.6038   -4.3060   24.7231 C   0  0  0  0  0  0
  -21.8809   -3.8169   23.4352 C   0  0  0  0  0  0
  -21.9203   -4.6998   22.3408 C   0  0  0  0  0  0
  -22.7826  -13.5226   21.1902 C   0  0  0  0  0  0
  -22.1667   -4.2170   21.1002 F   0  0  0  0  0  0
  -21.5647   -3.4539   25.7749 F   0  0  0  0  0  0
  -29.9996  -13.4598   20.4243 N   0  0  0  0  0  0
  -26.2956  -12.9380   20.3286 N   0  0  0  0  0  0
  -25.9307  -11.6527   20.5725 N   0  0  0  0  0  0
  -22.0479  -12.8189   22.0455 N   0  0  0  0  0  0
  -25.4334  -15.1892   20.4206 N   0  0  0  0  0  0
  -31.8743  -14.6677   20.1159 O   0  0  0  0  0  0
  -21.6661   -6.8918   21.4246 O   0  0  0  0  0  0
  -22.3549  -14.5560   20.6790 O   0  0  0  0  0  0
  -24.6263  -31.8622   23.2044 C   0  0  0  0  0  0
  -25.9096  -32.4783   23.8389 C   0  0  1  0  0  0
  -27.2196  -27.3188   20.0878 C   0  0  0  0  0  0
  -25.5897  -33.8595   24.2296 N   0  0  0  0  0  0
  -23.4169  -30.4867   21.5477 C   0  0  2  0  0  0
  -24.8582  -28.9445   20.1151 C   0  0  0  0  0  0
  -22.7493  -29.4634   22.4955 C   0  0  0  0  0  0
  -18.0287  -28.1384   22.8453 C   0  0  0  0  0  0
  -24.1485  -36.7319   23.2645 C   0  0  0  0  0  0
  -25.9599  -30.7806   21.3832 C   0  0  0  0  0  0
  -26.0302  -29.4112   20.7234 C   0  0  0  0  0  0
  -27.2081  -28.6052   20.7141 C   0  0  0  0  0  0
  -26.0205  -26.9226   19.4374 C   0  0  0  0  0  0
  -24.8542  -27.7015   19.4727 C   0  0  0  0  0  0
  -23.6316  -29.8299   20.1612 C   0  0  0  0  0  0
  -25.4110  -36.3094   24.0330 C   0  0  1  0  0  0
  -20.5881  -28.3679   23.1267 C   0  0  2  0  0  0
  -20.6768  -26.9392   22.5421 C   0  0  0  0  0  0
  -19.5756  -26.6340   21.5206 C   0  0  0  0  0  0
  -18.1927  -26.7912   22.1606 C   0  0  0  0  0  0
  -19.1540  -28.8852   23.2848 C   0  0  0  0  0  0
  -18.9465  -30.1439   23.8877 C   0  0  0  0  0  0
  -17.6456  -30.6557   24.0579 C   0  0  0  0  0  0
  -25.9040  -34.9464   23.5127 C   0  0  0  0  0  0
  -16.5347  -29.9070   23.6318 C   0  0  0  0  0  0
  -16.7275  -28.6504   23.0317 C   0  0  0  0  0  0
  -26.4477  -31.6590   25.0774 C   0  0  0  0  0  0
  -25.3731  -31.3742   26.1526 C   0  0  0  0  0  0
  -27.0333  -30.3009   24.6256 C   0  0  0  0  0  0
  -27.6020  -32.4356   25.7544 C   0  0  0  0  0  0
  -27.5584  -37.1834   24.8468 C   0  0  0  0  0  0
  -21.4203  -29.3032   22.3680 N   0  0  0  0  0  0
  -26.4300  -37.3779   23.9406 N   0  0  0  0  0  0
  -24.6857  -31.0616   22.0995 N   0  0  0  0  0  0
  -23.4243  -28.8209   23.3031 O   0  0  0  0  0  0
  -28.3497  -26.4811   20.1451 O   0  0  0  0  0  0
  -26.5641  -34.8936   22.4714 O   0  0  0  0  0  0
  -23.5423  -32.1437   23.7355 O   0  0  0  0  0  0
  -30.8597  -19.6874   20.6282 C   0  0  0  0  0  0
  -28.7007  -18.8017   20.0416 C   0  0  0  0  0  0
  -30.3549  -21.0178   20.5506 C   0  0  0  0  0  0
  -28.1998  -20.1327   19.9487 C   0  0  0  0  0  0
  -30.0559  -18.5427   20.3645 C   0  0  0  0  0  0
  -29.0114  -21.2785   20.1848 C   0  0  0  0  0  0
  -28.9781  -25.2349   18.1760 C   0  0  0  0  0  0
  -29.3153  -16.0433   22.0375 C   0  0  0  0  0  0
  -30.7200  -17.1192   20.2915 C   0  0  0  0  0  0
  -28.9864  -23.9156   20.3877 C   0  0  0  0  0  0
  -28.3347  -25.1162   19.5696 C   0  0  2  0  0  0
  -28.4524  -22.5787   19.9915 N   0  0  0  0  0  0
  -30.0885  -15.8434   20.8099 N   0  0  0  0  0  0
  -31.4597  -12.5023   19.1525 H   0  0  0  0  0  0
  -30.3484  -11.4207   19.9241 H   0  0  0  0  0  0
  -29.7702  -11.7482   17.4957 H   0  0  0  0  0  0
  -29.6320  -13.4744   17.7465 H   0  0  0  0  0  0
  -27.8874  -11.2838   18.8985 H   0  0  0  0  0  0
  -27.3711  -12.5342   17.7917 H   0  0  0  0  0  0
  -27.6655  -14.2562   19.5078 H   0  0  0  0  0  0
  -28.7117  -12.0699   21.3552 H   0  0  0  0  0  0
  -28.3851  -13.6923   21.8423 H   0  0  0  0  0  0
  -25.2778   -9.5721   22.4800 H   0  0  0  0  0  0
  -24.0041   -7.4637   22.7405 H   0  0  0  0  0  0
  -21.0889   -8.8796   19.8901 H   0  0  0  0  0  0
  -22.3716  -10.9731   19.6165 H   0  0  0  0  0  0
  -21.1981   -7.6157   23.9732 H   0  0  0  0  0  0
  -21.1470   -6.0524   25.9066 H   0  0  0  0  0  0
  -22.0604   -2.7644   23.2846 H   0  0  0  0  0  0
  -22.4115  -11.9824   22.4790 H   0  0  0  0  0  0
  -21.1066  -13.1117   22.2655 H   0  0  0  0  0  0
  -24.6853  -15.8606   20.5529 H   0  0  0  0  0  0
  -26.3048  -15.6205   20.1386 H   0  0  0  0  0  0
  -26.7190  -32.5461   23.1154 H   0  0  0  0  0  0
  -24.9997  -33.9752   25.0406 H   0  0  0  0  0  0
  -22.7072  -31.3058   21.4099 H   0  0  0  0  0  0
  -23.3732  -35.9663   23.3303 H   0  0  0  0  0  0
  -24.3562  -36.8942   22.2056 H   0  0  0  0  0  0
  -23.7268  -37.6536   23.6675 H   0  0  0  0  0  0
  -26.1117  -31.5416   20.6164 H   0  0  0  0  0  0
  -26.8305  -30.8191   22.0252 H   0  0  0  0  0  0
  -28.1025  -28.9553   21.2130 H   0  0  0  0  0  0
  -25.9233  -26.0119   18.8713 H   0  0  0  0  0  0
  -23.9591  -27.3444   18.9814 H   0  0  0  0  0  0
  -23.7629  -30.6085   19.4107 H   0  0  0  0  0  0
  -22.7465  -29.2701   19.8516 H   0  0  0  0  0  0
  -25.1285  -36.1943   25.0819 H   0  0  0  0  0  0
  -20.9959  -28.3244   24.1395 H   0  0  0  0  0  0
  -20.5634  -26.2298   23.3635 H   0  0  0  0  0  0
  -21.6650  -26.7416   22.1250 H   0  0  0  0  0  0
  -19.6892  -25.6234   21.1267 H   0  0  0  0  0  0
  -19.6664  -27.3102   20.6704 H   0  0  0  0  0  0
  -17.4212  -26.6645   21.3999 H   0  0  0  0  0  0
  -18.0327  -26.0063   22.9011 H   0  0  0  0  0  0
  -19.7952  -30.7265   24.2220 H   0  0  0  0  0  0
  -17.5023  -31.6222   24.5210 H   0  0  0  0  0  0
  -15.5348  -30.2981   23.7621 H   0  0  0  0  0  0
  -15.8685  -28.0815   22.7023 H   0  0  0  0  0  0
  -24.5861  -30.7117   25.7897 H   0  0  0  0  0  0
  -24.8988  -32.2918   26.5022 H   0  0  0  0  0  0
  -25.8071  -30.8896   27.0279 H   0  0  0  0  0  0
  -26.2926  -29.6771   24.1242 H   0  0  0  0  0  0
  -27.3967  -29.7251   25.4775 H   0  0  0  0  0  0
  -27.8823  -30.4273   23.9540 H   0  0  0  0  0  0
  -27.2572  -33.3629   26.2140 H   0  0  0  0  0  0
  -28.3809  -32.6974   25.0371 H   0  0  0  0  0  0
  -28.0716  -31.8509   26.5454 H   0  0  0  0  0  0
  -28.2614  -38.0124   24.7488 H   0  0  0  0  0  0
  -28.1073  -36.2658   24.6300 H   0  0  0  0  0  0
  -27.2323  -37.1496   25.8883 H   0  0  0  0  0  0
  -20.9383  -29.8797   21.6931 H   0  0  0  0  0  0
  -26.0174  -38.2865   24.1363 H   0  0  0  0  0  0
  -31.9072  -19.5572   20.8662 H   0  0  0  0  0  0
  -28.0381  -17.9745   19.8223 H   0  0  0  0  0  0
  -31.0385  -21.8364   20.7238 H   0  0  0  0  0  0
  -27.1668  -20.2717   19.6609 H   0  0  0  0  0  0
  -28.9505  -24.2848   17.6412 H   0  0  0  0  0  0
  -30.0253  -25.5346   18.2622 H   0  0  0  0  0  0
  -28.4694  -25.9721   17.5522 H   0  0  0  0  0  0
  -29.5406  -15.2863   22.7904 H   0  0  0  0  0  0
  -29.5517  -16.9950   22.5137 H   0  0  0  0  0  0
  -28.2439  -16.0311   21.8274 H   0  0  0  0  0  0
  -31.7030  -17.2016   20.7641 H   0  0  0  0  0  0
  -30.9285  -16.9663   19.2309 H   0  0  0  0  0  0
  -28.7489  -24.0558   21.4449 H   0  0  0  0  0  0
  -30.0737  -23.9359   20.3108 H   0  0  0  0  0  0
  -27.3179  -24.7620   19.4469 H   0  0  0  0  0  0
  -27.4935  -22.6078   19.6540 H   0  0  0  0  0  0
  1 25  1  0  0  0
  1 30  2  0  0  0
  1 83  1  0  0  0
  2  3  1  0  0  0
  2 25  1  0  0  0
  2 84  1  0  0  0
  2 85  1  0  0  0
  3  4  1  0  0  0
  3 86  1  0  0  0
  3 87  1  0  0  0
  4  5  1  0  0  0
  4 88  1  0  0  0
  4 89  1  0  0  0
  5  6  1  0  0  0
  5 26  1  0  0  0
  5 90  1  0  0  0
  6 25  1  0  0  0
  6 91  1  0  0  0
  6 92  1  0  0  0
  7  8  2  0  0  0
  7 26  1  0  0  0
  7 29  1  0  0  0
  8  9  1  0  0  0
  8 22  1  0  0  0
  9 10  1  0  0  0
  9 27  2  0  0  0
 10 11  2  0  0  0
 10 15  1  0  0  0
 11 12  1  0  0  0
 11 93  1  0  0  0
 12 13  2  0  0  0
 12 94  1  0  0  0
 13 14  1  0  0  0
 13 31  1  0  0  0
 14 15  2  0  0  0
 14 95  1  0  0  0
 15 96  1  0  0  0
 16 17  2  0  0  0
 16 21  1  0  0  0
 16 31  1  0  0  0
 17 18  1  0  0  0
 17 97  1  0  0  0
 18 19  2  0  0  0
 18 98  1  0  0  0
 19 20  1  0  0  0
 19 24  1  0  0  0
 20 21  2  0  0  0
 20 99  1  0  0  0
 21 23  1  0  0  0
 22 28  1  0  0  0
 22 32  2  0  0  0
 26 27  1  0  0  0
 28100  1  0  0  0
 28101  1  0  0  0
 29102  1  0  0  0
 29103  1  0  0  0
 33 34  1  0  0  0
 33 66  1  0  0  0
 33 70  2  0  0  0
 34 36  1  0  0  0
 34 59  1  0  0  0
 34104  1  0  0  0
 35 44  2  0  0  0
 35 45  1  0  0  0
 35 68  1  0  0  0
 36 56  1  0  0  0
 36105  1  0  0  0
 37 39  1  0  0  0
 37 47  1  0  0  0
 37 66  1  0  0  0
 37106  1  0  0  0
 38 43  2  0  0  0
 38 46  1  0  0  0
 38 47  1  0  0  0
 39 64  1  0  0  0
 39 67  2  0  0  0
 40 52  1  0  0  0
 40 53  2  0  0  0
 40 58  1  0  0  0
 41107  1  0  0  0
 41108  1  0  0  0
 41109  1  0  0  0
 41 48  1  0  0  0
 42 43  1  0  0  0
 42 66  1  0  0  0
 42110  1  0  0  0
 42111  1  0  0  0
 43 44  1  0  0  0
 44112  1  0  0  0
 45 46  2  0  0  0
 45113  1  0  0  0
 46114  1  0  0  0
 47115  1  0  0  0
 47116  1  0  0  0
 48 56  1  0  0  0
 48 65  1  0  0  0
 48117  1  0  0  0
 49 50  1  0  0  0
 49 53  1  0  0  0
 49 64  1  0  0  0
 49118  1  0  0  0
 50 51  1  0  0  0
 50119  1  0  0  0
 50120  1  0  0  0
 51 52  1  0  0  0
 51121  1  0  0  0
 51122  1  0  0  0
 52123  1  0  0  0
 52124  1  0  0  0
 53 54  1  0  0  0
 54 55  2  0  0  0
 54125  1  0  0  0
 55 57  1  0  0  0
 55126  1  0  0  0
 56 69  2  0  0  0
 57 58  2  0  0  0
 57127  1  0  0  0
 58128  1  0  0  0
 59 60  1  0  0  0
 59 61  1  0  0  0
 59 62  1  0  0  0
 60129  1  0  0  0
 60130  1  0  0  0
 60131  1  0  0  0
 61132  1  0  0  0
 61133  1  0  0  0
 61134  1  0  0  0
 62135  1  0  0  0
 62136  1  0  0  0
 62137  1  0  0  0
 63 65  1  0  0  0
 63138  1  0  0  0
 63139  1  0  0  0
 63140  1  0  0  0
 64141  1  0  0  0
 65142  1  0  0  0
 68 81  1  0  0  0
 71 73  2  0  0  0
 71 75  1  0  0  0
 71143  1  0  0  0
 72 74  1  0  0  0
 72 75  2  0  0  0
 72144  1  0  0  0
 73 76  1  0  0  0
 73145  1  0  0  0
 74 76  2  0  0  0
 74146  1  0  0  0
 75 79  1  0  0  0
 76 82  1  0  0  0
 77147  1  0  0  0
 77148  1  0  0  0
 77149  1  0  0  0
 77 81  1  0  0  0
 78 83  1  0  0  0
 78150  1  0  0  0
 78151  1  0  0  0
 78152  1  0  0  0
 79 83  1  0  0  0
 79153  1  0  0  0
 79154  1  0  0  0
 80 81  1  0  0  0
 80 82  1  0  0  0
 80155  1  0  0  0
 80156  1  0  0  0
 81157  1  0  0  0
 82158  1  0  0  0
M  ISO  4   1 100  68 101  81 101  83 100
M  END
> <chiral flag>
0

> <version>
0

> <s_m_source_file>
/data/baiqing/PycharmProjects/Reinvent-master-3.2/result/LINK_invent/BTK/process_docking_weight1_custom_product_contain_oxygen_bond_distance_aromatic_linkinvent_7_9_3/rearranged_h_0021.sdf

> <i_m_source_file_index>
75

> <r_mmod_Potential_Energy-OPLS-2005>
171.815155029297

> <r_mmod_Stretch_Energy-OPLS-2005>
80.7933502197266

> <r_mmod_Bend_Energy-OPLS-2005>
179.828094482422

> <r_mmod_Torsional_Energy-OPLS-2005>
241.623046875

> <r_mmod_Improper_Torsional_Energy-OPLS-2005>
10.9529285430908

> <r_mmod_Van_der_Waal_Energy-OPLS-2005>
156.772613525391

> <r_mmod_Electrostatic_Energy-OPLS-2005>
-343.112640380859

> <r_mmod_Solvation_Energy-OPLS-2005>
-203.617279052734

> <b_mmod_Minimization_Converged-OPLS-2005>
0

> <r_mmod_RMS_Derivative-OPLS-2005>
4.56210279464722

$$$$
75
                    3D
 Structure written by MMmdl.
153162  0  0  1  0            999 V2000
  -30.5086  -14.9614   20.4395 C   0  0  0  0  0  0
  -30.4519  -12.5979   19.5019 C   0  0  0  0  0  0
  -29.5270  -12.5405   18.2613 C   0  0  0  0  0  0
  -28.0595  -12.3205   18.6771 C   0  0  0  0  0  0
  -27.6336  -13.2441   19.8480 C   0  0  2  0  0  0
  -28.6769  -13.2505   20.9868 C   0  0  0  0  0  0
  -25.2382  -13.8094   20.5570 C   0  0  0  0  0  0
  -24.1735  -13.0348   20.9183 C   0  0  0  0  0  0
  -24.6398  -11.6859   20.8770 C   0  0  0  0  0  0
  -23.9082  -10.4247   21.0422 C   0  0  0  0  0  0
  -24.3626   -9.4166   21.9202 C   0  0  0  0  0  0
  -23.6291   -8.2210   22.0765 C   0  0  0  0  0  0
  -22.4272   -8.0263   21.3551 C   0  0  0  0  0  0
  -21.9915   -9.0235   20.4650 C   0  0  0  0  0  0
  -22.7256  -10.2104   20.3063 C   0  0  0  0  0  0
  -21.6839   -6.0730   22.5284 C   0  0  0  0  0  0
  -21.4002   -6.5637   23.8217 C   0  0  0  0  0  0
  -21.3658   -5.6790   24.9179 C   0  0  0  0  0  0
  -21.6044   -4.3052   24.7227 C   0  0  0  0  0  0
  -21.8819   -3.8145   23.4348 C   0  0  0  0  0  0
  -21.9189   -4.6962   22.3404 C   0  0  0  0  0  0
  -22.7764  -13.5144   21.1863 C   0  0  0  0  0  0
  -22.1659   -4.2151   21.0980 F   0  0  0  0  0  0
  -21.5633   -3.4534   25.7738 F   0  0  0  0  0  0
  -29.9561  -13.6795   20.4015 N   0  0  0  0  0  0
  -26.2895  -12.9388   20.3276 N   0  0  0  0  0  0
  -25.9350  -11.6524   20.5806 N   0  0  0  0  0  0
  -22.0427  -12.8151   22.0442 N   0  0  0  0  0  0
  -25.3851  -15.1764   20.3782 N   0  0  0  0  0  0
  -31.6982  -15.0787   20.1227 O   0  0  0  0  0  0
  -21.6627   -6.8870   21.4246 O   0  0  0  0  0  0
  -22.3449  -14.5462   20.6733 O   0  0  0  0  0  0
  -24.6428  -31.8428   23.1849 C   0  0  0  0  0  0
  -25.9196  -32.4692   23.8250 C   0  0  1  0  0  0
  -27.2313  -27.1360   20.1694 C   0  0  0  0  0  0
  -25.5944  -33.8496   24.2177 N   0  0  0  0  0  0
  -23.4471  -30.4581   21.5306 C   0  0  2  0  0  0
  -24.8982  -28.8699   20.1222 C   0  0  0  0  0  0
  -22.7556  -29.4542   22.4865 C   0  0  0  0  0  0
  -18.0300  -28.1401   22.8487 C   0  0  0  0  0  0
  -24.1484  -36.7249   23.2642 C   0  0  0  0  0  0
  -26.0003  -30.7184   21.3787 C   0  0  0  0  0  0
  -26.0747  -29.3236   20.7325 C   0  0  0  0  0  0
  -27.2437  -28.4760   20.7291 C   0  0  0  0  0  0
  -26.0254  -26.7668   19.5397 C   0  0  0  0  0  0
  -24.8846  -27.6035   19.5120 C   0  0  0  0  0  0
  -23.6752  -29.7751   20.1547 C   0  0  0  0  0  0
  -25.4117  -36.3029   24.0319 C   0  0  1  0  0  0
  -20.5913  -28.3722   23.1245 C   0  0  2  0  0  0
  -20.6785  -26.9425   22.5410 C   0  0  0  0  0  0
  -19.5757  -26.6384   21.5218 C   0  0  0  0  0  0
  -18.1939  -26.7943   22.1626 C   0  0  0  0  0  0
  -19.1558  -28.8879   23.2859 C   0  0  0  0  0  0
  -18.9477  -30.1477   23.8881 C   0  0  0  0  0  0
  -17.6476  -30.6600   24.0564 C   0  0  0  0  0  0
  -25.9068  -34.9406   23.5056 C   0  0  0  0  0  0
  -16.5364  -29.9098   23.6339 C   0  0  0  0  0  0
  -16.7284  -28.6515   23.0362 C   0  0  0  0  0  0
  -26.4522  -31.6561   25.0690 C   0  0  0  0  0  0
  -25.3717  -31.3763   26.1396 C   0  0  0  0  0  0
  -27.0374  -30.2961   24.6248 C   0  0  0  0  0  0
  -27.6051  -32.4324   25.7479 C   0  0  0  0  0  0
  -27.5571  -37.1776   24.8465 C   0  0  0  0  0  0
  -21.4249  -29.3049   22.3617 N   0  0  0  0  0  0
  -26.4277  -37.3746   23.9419 N   0  0  0  0  0  0
  -24.7168  -31.0281   22.0874 N   0  0  0  0  0  0
  -23.4194  -28.8093   23.3022 O   0  0  0  0  0  0
  -28.3359  -26.2156   20.1280 O   0  0  0  0  0  0
  -26.5655  -34.8910   22.4637 O   0  0  0  0  0  0
  -23.5549  -32.1293   23.7080 O   0  0  0  0  0  0
  -30.4749  -19.9987   20.1460 C   0  0  0  0  0  0
  -30.6479  -18.5437   20.1787 C   0  0  0  0  0  0
  -28.2493  -19.7829   20.8433 C   0  0  0  0  0  0
  -29.2603  -20.7196   20.4621 C   0  0  0  0  0  0
  -29.6260  -17.6149   20.5805 C   0  0  0  0  0  0
  -28.4291  -18.3419   20.9290 C   0  0  0  0  0  0
  -29.7248  -24.4862   21.3239 C   0  0  0  0  0  0
  -30.2031  -23.0020   21.1280 C   0  0  0  0  0  0
  -28.2442  -23.2840   19.8900 C   0  0  0  0  0  0
  -28.3495  -24.7466   20.6521 C   0  0  2  0  0  0
  -29.1224  -22.2096   20.5502 N   0  0  0  0  0  0
  -29.6552  -16.0728   20.6802 N   0  0  0  0  0  0
  -27.1055  -17.4446   21.5673 Cl  0  0  0  0  0  0
  -31.4818  -12.7752   19.1889 H   0  0  0  0  0  0
  -30.4608  -11.6395   20.0238 H   0  0  0  0  0  0
  -29.8488  -11.7472   17.5853 H   0  0  0  0  0  0
  -29.6107  -13.4729   17.7005 H   0  0  0  0  0  0
  -27.9567  -11.2773   18.9785 H   0  0  0  0  0  0
  -27.3960  -12.4569   17.8226 H   0  0  0  0  0  0
  -27.5997  -14.2518   19.4324 H   0  0  0  0  0  0
  -28.7658  -12.2632   21.4425 H   0  0  0  0  0  0
  -28.3699  -13.9273   21.7859 H   0  0  0  0  0  0
  -25.2767   -9.5634   22.4784 H   0  0  0  0  0  0
  -23.9989   -7.4591   22.7481 H   0  0  0  0  0  0
  -21.0848   -8.8758   19.8949 H   0  0  0  0  0  0
  -22.3726  -10.9647   19.6170 H   0  0  0  0  0  0
  -21.1988   -7.6146   23.9719 H   0  0  0  0  0  0
  -21.1481   -6.0520   25.9083 H   0  0  0  0  0  0
  -22.0601   -2.7608   23.2844 H   0  0  0  0  0  0
  -22.4040  -11.9804   22.4816 H   0  0  0  0  0  0
  -21.1055  -13.1192   22.2674 H   0  0  0  0  0  0
  -24.6195  -15.8200   20.5395 H   0  0  0  0  0  0
  -26.2490  -15.6492   20.1492 H   0  0  0  0  0  0
  -26.7258  -32.5304   23.0977 H   0  0  0  0  0  0
  -25.0082  -33.9606   25.0319 H   0  0  0  0  0  0
  -22.7509  -31.2838   21.3704 H   0  0  0  0  0  0
  -23.3758  -35.9568   23.3284 H   0  0  0  0  0  0
  -24.3573  -36.8897   22.2062 H   0  0  0  0  0  0
  -23.7217  -37.6432   23.6689 H   0  0  0  0  0  0
  -26.1472  -31.4656   20.5984 H   0  0  0  0  0  0
  -26.8745  -30.7797   22.0154 H   0  0  0  0  0  0
  -28.1513  -28.8312   21.1967 H   0  0  0  0  0  0
  -25.9622  -25.7969   19.0671 H   0  0  0  0  0  0
  -23.9845  -27.2496   19.0279 H   0  0  0  0  0  0
  -23.8155  -30.5434   19.3934 H   0  0  0  0  0  0
  -22.7900  -29.2166   19.8457 H   0  0  0  0  0  0
  -25.1304  -36.1846   25.0808 H   0  0  0  0  0  0
  -21.0010  -28.3305   24.1364 H   0  0  0  0  0  0
  -20.5677  -26.2332   23.3625 H   0  0  0  0  0  0
  -21.6648  -26.7428   22.1203 H   0  0  0  0  0  0
  -19.6915  -25.6291   21.1256 H   0  0  0  0  0  0
  -19.6697  -27.3191   20.6747 H   0  0  0  0  0  0
  -17.4206  -26.6694   21.4028 H   0  0  0  0  0  0
  -18.0333  -26.0093   22.9028 H   0  0  0  0  0  0
  -19.7954  -30.7303   24.2233 H   0  0  0  0  0  0
  -17.5032  -31.6281   24.5171 H   0  0  0  0  0  0
  -15.5366  -30.2999   23.7679 H   0  0  0  0  0  0
  -15.8681  -28.0832   22.7086 H   0  0  0  0  0  0
  -24.5888  -30.7113   25.7729 H   0  0  0  0  0  0
  -24.8917  -32.2955   26.4765 H   0  0  0  0  0  0
  -25.8009  -30.8973   27.0205 H   0  0  0  0  0  0
  -26.2975  -29.6693   24.1256 H   0  0  0  0  0  0
  -27.4006  -29.7246   25.4798 H   0  0  0  0  0  0
  -27.8875  -30.4205   23.9539 H   0  0  0  0  0  0
  -27.2653  -33.3666   26.1963 H   0  0  0  0  0  0
  -28.3922  -32.6808   25.0348 H   0  0  0  0  0  0
  -28.0649  -31.8500   26.5475 H   0  0  0  0  0  0
  -28.2568  -38.0093   24.7531 H   0  0  0  0  0  0
  -28.1084  -36.2621   24.6262 H   0  0  0  0  0  0
  -27.2297  -37.1386   25.8869 H   0  0  0  0  0  0
  -20.9455  -29.8760   21.6799 H   0  0  0  0  0  0
  -26.0136  -38.2806   24.1450 H   0  0  0  0  0  0
  -31.3389  -20.5819   19.8622 H   0  0  0  0  0  0
  -31.6136  -18.1453   19.9022 H   0  0  0  0  0  0
  -27.2946  -20.1796   21.1559 H   0  0  0  0  0  0
  -30.4793  -25.1512   20.9025 H   0  0  0  0  0  0
  -29.6684  -24.7308   22.3852 H   0  0  0  0  0  0
  -30.5274  -22.5734   22.0775 H   0  0  0  0  0  0
  -31.0622  -22.9740   20.4553 H   0  0  0  0  0  0
  -28.5770  -23.3955   18.8573 H   0  0  0  0  0  0
  -27.2063  -22.9522   19.8458 H   0  0  0  0  0  0
  -27.5993  -24.7192   21.4437 H   0  0  0  0  0  0
  -28.7491  -15.7274   20.9600 H   0  0  0  0  0  0
  1 25  1  0  0  0
  1 30  2  0  0  0
  1 82  1  0  0  0
  2  3  1  0  0  0
  2 25  1  0  0  0
  2 84  1  0  0  0
  2 85  1  0  0  0
  3  4  1  0  0  0
  3 86  1  0  0  0
  3 87  1  0  0  0
  4  5  1  0  0  0
  4 88  1  0  0  0
  4 89  1  0  0  0
  5  6  1  0  0  0
  5 26  1  0  0  0
  5 90  1  0  0  0
  6 25  1  0  0  0
  6 91  1  0  0  0
  6 92  1  0  0  0
  7  8  2  0  0  0
  7 26  1  0  0  0
  7 29  1  0  0  0
  8  9  1  0  0  0
  8 22  1  0  0  0
  9 10  1  0  0  0
  9 27  2  0  0  0
 10 11  2  0  0  0
 10 15  1  0  0  0
 11 12  1  0  0  0
 11 93  1  0  0  0
 12 13  2  0  0  0
 12 94  1  0  0  0
 13 14  1  0  0  0
 13 31  1  0  0  0
 14 15  2  0  0  0
 14 95  1  0  0  0
 15 96  1  0  0  0
 16 17  2  0  0  0
 16 21  1  0  0  0
 16 31  1  0  0  0
 17 18  1  0  0  0
 17 97  1  0  0  0
 18 19  2  0  0  0
 18 98  1  0  0  0
 19 20  1  0  0  0
 19 24  1  0  0  0
 20 21  2  0  0  0
 20 99  1  0  0  0
 21 23  1  0  0  0
 22 28  1  0  0  0
 22 32  2  0  0  0
 26 27  1  0  0  0
 28100  1  0  0  0
 28101  1  0  0  0
 29102  1  0  0  0
 29103  1  0  0  0
 33 34  1  0  0  0
 33 66  1  0  0  0
 33 70  2  0  0  0
 34 36  1  0  0  0
 34 59  1  0  0  0
 34104  1  0  0  0
 35 44  2  0  0  0
 35 45  1  0  0  0
 35 68  1  0  0  0
 36 56  1  0  0  0
 36105  1  0  0  0
 37 39  1  0  0  0
 37 47  1  0  0  0
 37 66  1  0  0  0
 37106  1  0  0  0
 38 43  2  0  0  0
 38 46  1  0  0  0
 38 47  1  0  0  0
 39 64  1  0  0  0
 39 67  2  0  0  0
 40 52  1  0  0  0
 40 53  2  0  0  0
 40 58  1  0  0  0
 41107  1  0  0  0
 41108  1  0  0  0
 41109  1  0  0  0
 41 48  1  0  0  0
 42 43  1  0  0  0
 42 66  1  0  0  0
 42110  1  0  0  0
 42111  1  0  0  0
 43 44  1  0  0  0
 44112  1  0  0  0
 45 46  2  0  0  0
 45113  1  0  0  0
 46114  1  0  0  0
 47115  1  0  0  0
 47116  1  0  0  0
 48 56  1  0  0  0
 48 65  1  0  0  0
 48117  1  0  0  0
 49 50  1  0  0  0
 49 53  1  0  0  0
 49 64  1  0  0  0
 49118  1  0  0  0
 50 51  1  0  0  0
 50119  1  0  0  0
 50120  1  0  0  0
 51 52  1  0  0  0
 51121  1  0  0  0
 51122  1  0  0  0
 52123  1  0  0  0
 52124  1  0  0  0
 53 54  1  0  0  0
 54 55  2  0  0  0
 54125  1  0  0  0
 55 57  1  0  0  0
 55126  1  0  0  0
 56 69  2  0  0  0
 57 58  2  0  0  0
 57127  1  0  0  0
 58128  1  0  0  0
 59 60  1  0  0  0
 59 61  1  0  0  0
 59 62  1  0  0  0
 60129  1  0  0  0
 60130  1  0  0  0
 60131  1  0  0  0
 61132  1  0  0  0
 61133  1  0  0  0
 61134  1  0  0  0
 62135  1  0  0  0
 62136  1  0  0  0
 62137  1  0  0  0
 63 65  1  0  0  0
 63138  1  0  0  0
 63139  1  0  0  0
 63140  1  0  0  0
 64141  1  0  0  0
 65142  1  0  0  0
 68 80  1  0  0  0
 71 72  2  0  0  0
 71 74  1  0  0  0
 71143  1  0  0  0
 72 75  1  0  0  0
 72144  1  0  0  0
 73 74  2  0  0  0
 73 76  1  0  0  0
 73145  1  0  0  0
 74 81  1  0  0  0
 75 76  2  0  0  0
 75 82  1  0  0  0
 76 83  1  0  0  0
 77 78  1  0  0  0
 77 80  1  0  0  0
 77146  1  0  0  0
 77147  1  0  0  0
 78 81  1  0  0  0
 78148  1  0  0  0
 78149  1  0  0  0
 79 80  1  0  0  0
 79 81  1  0  0  0
 79150  1  0  0  0
 79151  1  0  0  0
 80152  1  0  0  0
 82153  1  0  0  0
M  ISO  4   1 100  68 101  80 101  82 100
M  END
> <chiral flag>
0

> <version>
0

> <s_m_source_file>
/data/baiqing/PycharmProjects/Reinvent-master-3.2/result/LINK_invent/BTK/process_docking_weight1_custom_product_contain_oxygen_bond_distance_aromatic_linkinvent_7_9_3/rearranged_h_0021.sdf

> <i_m_source_file_index>
76

> <r_mmod_Potential_Energy-OPLS-2005>
545.043518066406

> <r_mmod_Stretch_Energy-OPLS-2005>
218.62190246582

> <r_mmod_Bend_Energy-OPLS-2005>
328.785736083984

> <r_mmod_Torsional_Energy-OPLS-2005>
308.305419921875

> <r_mmod_Improper_Torsional_Energy-OPLS-2005>
5.15500783920288

> <r_mmod_Van_der_Waal_Energy-OPLS-2005>
123.80982208252

> <r_mmod_Electrostatic_Energy-OPLS-2005>
-408.722198486328

> <r_mmod_Solvation_Energy-OPLS-2005>
-219.255401611328

> <b_mmod_Minimization_Converged-OPLS-2005>
0

> <r_mmod_RMS_Derivative-OPLS-2005>
0.86441570520401

$$$$
76
                    3D
 Structure written by MMmdl.
159167  0  0  1  0            999 V2000
  -30.6988  -14.4548   20.5456 C   0  0  0  0  0  0
  -30.4257  -12.2838   19.4233 C   0  0  0  0  0  0
  -29.5021  -12.5042   18.2070 C   0  0  0  0  0  0
  -28.0189  -12.3781   18.6152 C   0  0  0  0  0  0
  -27.6712  -13.2070   19.8827 C   0  0  2  0  0  0
  -28.7122  -12.9712   21.0020 C   0  0  0  0  0  0
  -25.2639  -13.8177   20.5698 C   0  0  0  0  0  0
  -24.1879  -13.0461   20.9192 C   0  0  0  0  0  0
  -24.6410  -11.6925   20.8732 C   0  0  0  0  0  0
  -23.9064  -10.4310   21.0385 C   0  0  0  0  0  0
  -24.3608   -9.4225   21.9168 C   0  0  0  0  0  0
  -23.6290   -8.2257   22.0725 C   0  0  0  0  0  0
  -22.4275   -8.0287   21.3510 C   0  0  0  0  0  0
  -21.9903   -9.0275   20.4636 C   0  0  0  0  0  0
  -22.7230  -10.2150   20.3036 C   0  0  0  0  0  0
  -21.6861   -6.0753   22.5270 C   0  0  0  0  0  0
  -21.4042   -6.5648   23.8211 C   0  0  0  0  0  0
  -21.3651   -5.6784   24.9160 C   0  0  0  0  0  0
  -21.6029   -4.3047   24.7202 C   0  0  0  0  0  0
  -21.8826   -3.8155   23.4324 C   0  0  0  0  0  0
  -21.9199   -4.6982   22.3389 C   0  0  0  0  0  0
  -22.7892  -13.5272   21.1823 C   0  0  0  0  0  0
  -22.1667   -4.2176   21.0965 F   0  0  0  0  0  0
  -21.5597   -3.4521   25.7708 F   0  0  0  0  0  0
  -30.0482  -13.2642   20.4532 N   0  0  0  0  0  0
  -26.3086  -12.9349   20.3416 N   0  0  0  0  0  0
  -25.9346  -11.6509   20.5783 N   0  0  0  0  0  0
  -22.0495  -12.8289   22.0379 N   0  0  0  0  0  0
  -25.4385  -15.1888   20.4070 N   0  0  0  0  0  0
  -31.8196  -14.6462   20.0636 O   0  0  0  0  0  0
  -21.6631   -6.8884   21.4223 O   0  0  0  0  0  0
  -22.3577  -14.5586   20.6665 O   0  0  0  0  0  0
  -24.6107  -31.8683   23.2113 C   0  0  0  0  0  0
  -25.8998  -32.4832   23.8410 C   0  0  1  0  0  0
  -27.2493  -27.4535   20.0734 C   0  0  0  0  0  0
  -25.5859  -33.8631   24.2334 N   0  0  0  0  0  0
  -23.3996  -30.4896   21.5511 C   0  0  2  0  0  0
  -24.8479  -28.9523   20.1168 C   0  0  0  0  0  0
  -22.7387  -29.4651   22.5000 C   0  0  0  0  0  0
  -18.0266  -28.1352   22.8506 C   0  0  0  0  0  0
  -24.1478  -36.7327   23.2643 C   0  0  0  0  0  0
  -25.9260  -30.8313   21.3675 C   0  0  0  0  0  0
  -26.0023  -29.4661   20.7173 C   0  0  0  0  0  0
  -27.1993  -28.7168   20.7038 C   0  0  0  0  0  0
  -26.0736  -26.9475   19.4720 C   0  0  0  0  0  0
  -24.8759  -27.6898   19.4983 C   0  0  0  0  0  0
  -23.6088  -29.8176   20.1669 C   0  0  0  0  0  0
  -25.4096  -36.3125   24.0345 C   0  0  1  0  0  0
  -20.5855  -28.3635   23.1323 C   0  0  2  0  0  0
  -20.6754  -26.9373   22.5410 C   0  0  0  0  0  0
  -19.5736  -26.6363   21.5202 C   0  0  0  0  0  0
  -18.1916  -26.7903   22.1624 C   0  0  0  0  0  0
  -19.1513  -28.8805   23.2921 C   0  0  0  0  0  0
  -18.9446  -30.1412   23.8929 C   0  0  0  0  0  0
  -17.6453  -30.6577   24.0540 C   0  0  0  0  0  0
  -25.9006  -34.9487   23.5140 C   0  0  0  0  0  0
  -16.5345  -29.9076   23.6316 C   0  0  0  0  0  0
  -16.7256  -28.6478   23.0368 C   0  0  0  0  0  0
  -26.4439  -31.6620   25.0742 C   0  0  0  0  0  0
  -25.3715  -31.3743   26.1507 C   0  0  0  0  0  0
  -27.0260  -30.3066   24.6109 C   0  0  0  0  0  0
  -27.6006  -32.4348   25.7502 C   0  0  0  0  0  0
  -27.5578  -37.1817   24.8461 C   0  0  0  0  0  0
  -21.4113  -29.3021   22.3740 N   0  0  0  0  0  0
  -26.4288  -37.3803   23.9410 N   0  0  0  0  0  0
  -24.6628  -31.0779   22.1019 N   0  0  0  0  0  0
  -23.4169  -28.8197   23.3035 O   0  0  0  0  0  0
  -28.4526  -26.7775   20.0828 O   0  0  0  0  0  0
  -26.5577  -34.8932   22.4702 O   0  0  0  0  0  0
  -23.5293  -32.1436   23.7511 O   0  0  0  0  0  0
  -30.1839  -18.6103   19.0259 C   0  0  0  0  0  0
  -30.3600  -17.2667   19.4203 C   0  0  0  0  0  0
  -29.2487  -19.1347   21.1916 C   0  0  0  0  0  0
  -29.6054  -19.5728   19.8905 C   0  0  0  0  0  0
  -29.9598  -16.8302   20.7059 C   0  0  0  0  0  0
  -29.4148  -17.7876   21.5895 C   0  0  0  0  0  0
  -29.2943  -23.3789   19.9335 C   0  0  0  0  0  0
  -28.3793  -24.3407   19.7057 C   0  0  0  0  0  0
  -30.5375  -21.6800   17.3778 C   0  0  0  0  0  0
  -28.9929  -21.9619   20.4105 C   0  0  0  0  0  0
  -28.6984  -25.7231   19.1490 C   0  0  0  0  0  0
  -29.2346  -21.1760   18.0184 C   0  0  0  0  0  0
  -29.9973  -15.4545   21.1053 N   0  0  0  0  0  0
  -29.3881  -20.9119   19.4552 N   0  0  0  0  0  0
  -28.9323  -17.3177   23.1812 Cl  0  0  0  0  0  0
  -31.4747  -12.3677   19.1280 H   0  0  0  0  0  0
  -30.3083  -11.2699   19.8119 H   0  0  0  0  0  0
  -29.7357  -11.7830   17.4223 H   0  0  0  0  0  0
  -29.6845  -13.4921   17.7802 H   0  0  0  0  0  0
  -27.8085  -11.3227   18.7920 H   0  0  0  0  0  0
  -27.3758  -12.6790   17.7874 H   0  0  0  0  0  0
  -27.7260  -14.2567   19.5942 H   0  0  0  0  0  0
  -28.6781  -11.9360   21.3459 H   0  0  0  0  0  0
  -28.4821  -13.5738   21.8818 H   0  0  0  0  0  0
  -25.2736   -9.5722   22.4746 H   0  0  0  0  0  0
  -24.0007   -7.4647   22.7448 H   0  0  0  0  0  0
  -21.0820   -8.8801   19.8962 H   0  0  0  0  0  0
  -22.3677  -10.9682   19.6143 H   0  0  0  0  0  0
  -21.2070   -7.6159   23.9737 H   0  0  0  0  0  0
  -21.1447   -6.0496   25.9063 H   0  0  0  0  0  0
  -22.0617   -2.7622   23.2803 H   0  0  0  0  0  0
  -22.4085  -11.9978   22.4827 H   0  0  0  0  0  0
  -21.1105  -13.1335   22.2546 H   0  0  0  0  0  0
  -24.6756  -15.8475   20.5134 H   0  0  0  0  0  0
  -26.2939  -15.6181   20.0781 H   0  0  0  0  0  0
  -26.7058  -32.5555   23.1164 H   0  0  0  0  0  0
  -25.0004  -33.9797   25.0479 H   0  0  0  0  0  0
  -22.6881  -31.3056   21.4099 H   0  0  0  0  0  0
  -23.3736  -35.9661   23.3319 H   0  0  0  0  0  0
  -24.3560  -36.8923   22.2048 H   0  0  0  0  0  0
  -23.7225  -37.6540   23.6637 H   0  0  0  0  0  0
  -26.0361  -31.5960   20.5976 H   0  0  0  0  0  0
  -26.8140  -30.8871   21.9851 H   0  0  0  0  0  0
  -28.0935  -29.1106   21.1667 H   0  0  0  0  0  0
  -26.0657  -25.9857   18.9794 H   0  0  0  0  0  0
  -23.9866  -27.2883   19.0330 H   0  0  0  0  0  0
  -23.7170  -30.5897   19.4041 H   0  0  0  0  0  0
  -22.7337  -29.2348   19.8722 H   0  0  0  0  0  0
  -25.1268  -36.2005   25.0839 H   0  0  0  0  0  0
  -20.9953  -28.3178   24.1439 H   0  0  0  0  0  0
  -20.5639  -26.2229   23.3588 H   0  0  0  0  0  0
  -21.6628  -26.7407   22.1209 H   0  0  0  0  0  0
  -19.6890  -25.6273   21.1226 H   0  0  0  0  0  0
  -19.6675  -27.3173   20.6731 H   0  0  0  0  0  0
  -17.4179  -26.6648   21.4030 H   0  0  0  0  0  0
  -18.0327  -26.0029   22.9008 H   0  0  0  0  0  0
  -19.7921  -30.7205   24.2340 H   0  0  0  0  0  0
  -17.5012  -31.6272   24.5104 H   0  0  0  0  0  0
  -15.5349  -30.2989   23.7611 H   0  0  0  0  0  0
  -15.8653  -28.0782   22.7111 H   0  0  0  0  0  0
  -24.5853  -30.7119   25.7873 H   0  0  0  0  0  0
  -24.8947  -32.2909   26.4988 H   0  0  0  0  0  0
  -25.8078  -30.8898   27.0251 H   0  0  0  0  0  0
  -26.2810  -29.6868   24.1106 H   0  0  0  0  0  0
  -27.3970  -29.7260   25.4565 H   0  0  0  0  0  0
  -27.8670  -30.4399   23.9300 H   0  0  0  0  0  0
  -27.2604  -33.3620   26.2130 H   0  0  0  0  0  0
  -28.3789  -32.6964   25.0322 H   0  0  0  0  0  0
  -28.0705  -31.8455   26.5386 H   0  0  0  0  0  0
  -28.2609  -38.0106   24.7498 H   0  0  0  0  0  0
  -28.1064  -36.2632   24.6296 H   0  0  0  0  0  0
  -27.2294  -37.1485   25.8867 H   0  0  0  0  0  0
  -20.9254  -29.8756   21.6990 H   0  0  0  0  0  0
  -26.0193  -38.2891   24.1400 H   0  0  0  0  0  0
  -30.4971  -18.8760   18.0283 H   0  0  0  0  0  0
  -30.7778  -16.5756   18.7035 H   0  0  0  0  0  0
  -28.8091  -19.8134   21.9067 H   0  0  0  0  0  0
  -30.3394  -23.5984   19.7626 H   0  0  0  0  0  0
  -27.3361  -24.1350   19.8968 H   0  0  0  0  0  0
  -30.3627  -22.0116   16.3552 H   0  0  0  0  0  0
  -31.3020  -20.9038   17.3438 H   0  0  0  0  0  0
  -30.9622  -22.5252   17.9145 H   0  0  0  0  0  0
  -27.9244  -21.8738   20.6157 H   0  0  0  0  0  0
  -29.5212  -21.8312   21.3555 H   0  0  0  0  0  0
  -28.1853  -25.8785   18.1987 H   0  0  0  0  0  0
  -29.7615  -25.7624   18.9047 H   0  0  0  0  0  0
  -28.8700  -20.2971   17.4839 H   0  0  0  0  0  0
  -28.4519  -21.9246   17.8783 H   0  0  0  0  0  0
  -29.2415  -15.1690   21.7106 H   0  0  0  0  0  0
  1 25  1  0  0  0
  1 30  2  0  0  0
  1 83  1  0  0  0
  2  3  1  0  0  0
  2 25  1  0  0  0
  2 86  1  0  0  0
  2 87  1  0  0  0
  3  4  1  0  0  0
  3 88  1  0  0  0
  3 89  1  0  0  0
  4  5  1  0  0  0
  4 90  1  0  0  0
  4 91  1  0  0  0
  5  6  1  0  0  0
  5 26  1  0  0  0
  5 92  1  0  0  0
  6 25  1  0  0  0
  6 93  1  0  0  0
  6 94  1  0  0  0
  7  8  2  0  0  0
  7 26  1  0  0  0
  7 29  1  0  0  0
  8  9  1  0  0  0
  8 22  1  0  0  0
  9 10  1  0  0  0
  9 27  2  0  0  0
 10 11  2  0  0  0
 10 15  1  0  0  0
 11 12  1  0  0  0
 11 95  1  0  0  0
 12 13  2  0  0  0
 12 96  1  0  0  0
 13 14  1  0  0  0
 13 31  1  0  0  0
 14 15  2  0  0  0
 14 97  1  0  0  0
 15 98  1  0  0  0
 16 17  2  0  0  0
 16 21  1  0  0  0
 16 31  1  0  0  0
 17 18  1  0  0  0
 17 99  1  0  0  0
 18 19  2  0  0  0
 18100  1  0  0  0
 19 20  1  0  0  0
 19 24  1  0  0  0
 20 21  2  0  0  0
 20101  1  0  0  0
 21 23  1  0  0  0
 22 28  1  0  0  0
 22 32  2  0  0  0
 26 27  1  0  0  0
 28102  1  0  0  0
 28103  1  0  0  0
 29104  1  0  0  0
 29105  1  0  0  0
 33 34  1  0  0  0
 33 66  1  0  0  0
 33 70  2  0  0  0
 34 36  1  0  0  0
 34 59  1  0  0  0
 34106  1  0  0  0
 35 44  2  0  0  0
 35 45  1  0  0  0
 35 68  1  0  0  0
 36 56  1  0  0  0
 36107  1  0  0  0
 37 39  1  0  0  0
 37 47  1  0  0  0
 37 66  1  0  0  0
 37108  1  0  0  0
 38 43  2  0  0  0
 38 46  1  0  0  0
 38 47  1  0  0  0
 39 64  1  0  0  0
 39 67  2  0  0  0
 40 52  1  0  0  0
 40 53  2  0  0  0
 40 58  1  0  0  0
 41109  1  0  0  0
 41110  1  0  0  0
 41111  1  0  0  0
 41 48  1  0  0  0
 42 43  1  0  0  0
 42 66  1  0  0  0
 42112  1  0  0  0
 42113  1  0  0  0
 43 44  1  0  0  0
 44114  1  0  0  0
 45 46  2  0  0  0
 45115  1  0  0  0
 46116  1  0  0  0
 47117  1  0  0  0
 47118  1  0  0  0
 48 56  1  0  0  0
 48 65  1  0  0  0
 48119  1  0  0  0
 49 50  1  0  0  0
 49 53  1  0  0  0
 49 64  1  0  0  0
 49120  1  0  0  0
 50 51  1  0  0  0
 50121  1  0  0  0
 50122  1  0  0  0
 51 52  1  0  0  0
 51123  1  0  0  0
 51124  1  0  0  0
 52125  1  0  0  0
 52126  1  0  0  0
 53 54  1  0  0  0
 54 55  2  0  0  0
 54127  1  0  0  0
 55 57  1  0  0  0
 55128  1  0  0  0
 56 69  2  0  0  0
 57 58  2  0  0  0
 57129  1  0  0  0
 58130  1  0  0  0
 59 60  1  0  0  0
 59 61  1  0  0  0
 59 62  1  0  0  0
 60131  1  0  0  0
 60132  1  0  0  0
 60133  1  0  0  0
 61134  1  0  0  0
 61135  1  0  0  0
 61136  1  0  0  0
 62137  1  0  0  0
 62138  1  0  0  0
 62139  1  0  0  0
 63 65  1  0  0  0
 63140  1  0  0  0
 63141  1  0  0  0
 63142  1  0  0  0
 64143  1  0  0  0
 65144  1  0  0  0
 68 81  1  0  0  0
 71 72  2  0  0  0
 71 74  1  0  0  0
 71145  1  0  0  0
 72 75  1  0  0  0
 72146  1  0  0  0
 73 74  2  0  0  0
 73 76  1  0  0  0
 73147  1  0  0  0
 74 84  1  0  0  0
 75 76  2  0  0  0
 75 83  1  0  0  0
 76 85  1  0  0  0
 77 78  2  0  0  0
 77 80  1  0  0  0
 77148  1  0  0  0
 78 81  1  0  0  0
 78149  1  0  0  0
 79 82  1  0  0  0
 79150  1  0  0  0
 79151  1  0  0  0
 79152  1  0  0  0
 80 84  1  0  0  0
 80153  1  0  0  0
 80154  1  0  0  0
 81155  1  0  0  0
 81156  1  0  0  0
 82 84  1  0  0  0
 82157  1  0  0  0
 82158  1  0  0  0
 83159  1  0  0  0
M  ISO  4   1 100  68 101  81 101  83 100
M  END
> <chiral flag>
0

> <version>
0

> <s_m_source_file>
/data/baiqing/PycharmProjects/Reinvent-master-3.2/result/LINK_invent/BTK/process_docking_weight1_custom_product_contain_oxygen_bond_distance_aromatic_linkinvent_7_9_3/rearranged_h_0021.sdf

> <i_m_source_file_index>
77

> <r_mmod_Potential_Energy-OPLS-2005>
-108.919357299805

> <r_mmod_Stretch_Energy-OPLS-2005>
38.973991394043

> <r_mmod_Bend_Energy-OPLS-2005>
112.267127990723

> <r_mmod_Torsional_Energy-OPLS-2005>
205.985427856445

> <r_mmod_Improper_Torsional_Energy-OPLS-2005>
4.56131839752197

> <r_mmod_Van_der_Waal_Energy-OPLS-2005>
164.225250244141

> <r_mmod_Electrostatic_Energy-OPLS-2005>
-432.588470458984

> <r_mmod_Solvation_Energy-OPLS-2005>
-213.880081176758

> <b_mmod_Minimization_Converged-OPLS-2005>
0

> <r_mmod_RMS_Derivative-OPLS-2005>
3.01892709732056

$$$$
77
                    3D
 Structure written by MMmdl.
164173  0  0  1  0            999 V2000
  -28.5378  -19.2005   20.4022 C   0  0  0  0  0  0
  -29.6086  -15.7562   19.6225 C   0  0  0  0  0  0
  -29.3971  -14.2891   18.7016 C   0  0  0  0  0  0
  -28.4444  -13.2036   19.2151 C   0  0  0  0  0  0
  -27.4787  -14.1020   19.9769 C   0  0  2  0  0  0
  -28.0288  -15.5451   20.8408 C   0  0  0  0  0  0
  -25.1001  -13.9842   20.6349 C   0  0  0  0  0  0
  -24.1328  -13.0863   20.9447 C   0  0  0  0  0  0
  -24.7202  -11.7849   20.8628 C   0  0  0  0  0  0
  -24.0049  -10.4688   21.0061 C   0  0  0  0  0  0
  -24.4219   -9.4532   21.9023 C   0  0  0  0  0  0
  -23.6691   -8.2620   22.0725 C   0  0  0  0  0  0
  -22.4664   -8.0588   21.3527 C   0  0  0  0  0  0
  -22.0478   -9.0597   20.4568 C   0  0  0  0  0  0
  -22.8039  -10.2390   20.2856 C   0  0  0  0  0  0
  -21.7025   -6.0907   22.5260 C   0  0  0  0  0  0
  -21.4155   -6.5741   23.8211 C   0  0  0  0  0  0
  -21.3700   -5.6851   24.9143 C   0  0  0  0  0  0
  -21.6035   -4.3110   24.7174 C   0  0  0  0  0  0
  -21.8805   -3.8236   23.4283 C   0  0  0  0  0  0
  -21.9245   -4.7095   22.3360 C   0  0  0  0  0  0
  -22.7098  -13.4752   21.1951 C   0  0  0  0  0  0
  -22.1678   -4.2264   21.0938 F   0  0  0  0  0  0
  -21.5591   -3.4571   25.7669 F   0  0  0  0  0  0
  -28.5347  -17.1488   20.2187 N   0  0  0  0  0  0
  -26.2746  -13.3215   20.4586 N   0  0  0  0  0  0
  -26.0485  -11.9378   20.5761 N   0  0  0  0  0  0
  -22.0117  -12.7507   22.0572 N   0  0  0  0  0  0
  -25.0680  -15.3572   20.4454 N   0  0  0  0  0  0
  -29.8022  -18.6485   20.3375 O   0  0  0  0  0  0
  -21.6907   -6.9185   21.4274 O   0  0  0  0  0  0
  -22.2383  -14.4903   20.6816 O   0  0  0  0  0  0
  -24.8845  -31.2271   23.0803 C   0  0  0  0  0  0
  -25.9879  -32.2002   23.7318 C   0  0  1  0  0  0
  -28.5947  -25.3174   19.5580 C   0  0  0  0  0  0
  -25.5239  -33.6260   24.0116 N   0  0  0  0  0  0
  -23.5892  -29.2989   21.6197 C   0  0  2  0  0  0
  -25.1092  -26.4259   19.9891 C   0  0  0  0  0  0
  -22.5814  -29.2043   22.6962 C   0  0  0  0  0  0
  -17.9544  -28.1347   22.8268 C   0  0  0  0  0  0
  -24.1437  -36.6251   23.2713 C   0  0  0  0  0  0
  -26.7296  -28.9910   22.2523 C   0  0  0  0  0  0
  -27.0519  -27.1973   21.1667 C   0  0  0  0  0  0
  -28.3987  -26.4655   20.8420 C   0  0  0  0  0  0
  -27.1176  -24.6396   18.4719 C   0  0  0  0  0  0
  -25.4055  -25.2313   18.8421 C   0  0  0  0  0  0
  -23.4539  -27.6578   20.3461 C   0  0  0  0  0  0
  -25.4136  -36.1608   24.0079 C   0  0  1  0  0  0
  -20.4627  -28.3029   23.1823 C   0  0  2  0  0  0
  -20.5394  -26.8521   22.6682 C   0  0  0  0  0  0
  -19.5259  -26.5866   21.5587 C   0  0  0  0  0  0
  -18.1158  -26.7933   22.1240 C   0  0  0  0  0  0
  -19.0715  -28.8654   23.2888 C   0  0  0  0  0  0
  -18.9001  -30.1302   23.8866 C   0  0  0  0  0  0
  -17.6107  -30.6618   24.0480 C   0  0  0  0  0  0
  -25.9150  -34.7917   23.4376 C   0  0  0  0  0  0
  -16.4933  -29.9222   23.6219 C   0  0  0  0  0  0
  -16.6646  -28.6646   23.0143 C   0  0  0  0  0  0
  -26.4993  -31.6437   25.1139 C   0  0  0  0  0  0
  -25.3689  -31.4552   26.1539 C   0  0  0  0  0  0
  -27.1654  -30.2889   24.9477 C   0  0  0  0  0  0
  -27.5896  -32.5527   25.7261 C   0  0  0  0  0  0
  -27.5381  -37.1153   24.8464 C   0  0  0  0  0  0
  -21.3084  -29.1449   22.3670 N   0  0  0  0  0  0
  -26.4080  -37.2664   23.9352 N   0  0  0  0  0  0
  -25.0958  -29.9175   22.4177 N   0  0  0  0  0  0
  -22.9770  -29.0570   23.8406 O   0  0  0  0  0  0
  -29.7275  -25.8687   19.1509 O   0  0  0  0  0  0
  -26.6584  -34.8079   22.4581 O   0  0  0  0  0  0
  -23.7569  -31.7482   23.2691 O   0  0  0  0  0  0
  -26.4158  -28.2360   19.0869 C   0  0  0  0  0  0
  -25.7639  -25.3733   21.9707 C   0  0  0  0  0  0
  -25.5240  -28.6383   20.3227 C   0  0  0  0  0  0
  -27.0507  -26.8009   18.9657 C   0  0  0  0  0  0
  -26.7864  -24.4891   20.6832 C   0  0  0  0  0  0
  -25.0545  -27.1976   22.0698 C   0  0  0  0  0  0
  -24.3690  -31.8073   18.5734 C   0  0  0  0  0  0
  -25.5990  -32.3163   19.3315 C   0  0  0  0  0  0
  -24.4198  -30.2858   18.6874 C   0  0  0  0  0  0
  -26.3098  -31.0639   19.8448 C   0  0  0  0  0  0
  -29.3780  -25.3557   16.7068 C   0  0  0  0  0  0
  -28.2431  -26.4016   16.5536 C   0  0  0  0  0  0
  -30.3110  -25.4421   17.9268 C   0  0  0  0  0  0
  -25.2855  -30.0142   19.8384 N   0  0  0  0  0  0
  -27.6594  -21.5760   20.5377 N   0  0  0  0  0  0
  -27.8009  -27.1392   17.7464 N   0  0  0  0  0  0
  -24.5973  -27.4594   23.3005 F   0  0  0  0  0  0
  -30.2395  -16.3283   18.9411 H   0  0  0  0  0  0
  -30.3499  -15.5382   20.3994 H   0  0  0  0  0  0
  -30.3732  -13.8367   18.5172 H   0  0  0  0  0  0
  -29.0418  -14.5920   17.7151 H   0  0  0  0  0  0
  -28.9477  -12.5166   19.8967 H   0  0  0  0  0  0
  -27.9733  -12.6349   18.4128 H   0  0  0  0  0  0
  -27.0380  -14.6077   19.1138 H   0  0  0  0  0  0
  -28.6846  -15.2163   21.6560 H   0  0  0  0  0  0
  -27.2026  -15.8520   21.4761 H   0  0  0  0  0  0
  -25.3280   -9.5958   22.4736 H   0  0  0  0  0  0
  -24.0276   -7.5078   22.7596 H   0  0  0  0  0  0
  -21.1376   -8.9228   19.8886 H   0  0  0  0  0  0
  -22.4483  -10.9877   19.5922 H   0  0  0  0  0  0
  -21.2221   -7.6257   23.9754 H   0  0  0  0  0  0
  -21.1500   -6.0563   25.9046 H   0  0  0  0  0  0
  -22.0522   -2.7694   23.2752 H   0  0  0  0  0  0
  -22.4119  -11.9383   22.5028 H   0  0  0  0  0  0
  -21.0622  -13.0129   22.2789 H   0  0  0  0  0  0
  -24.2105  -15.8964   20.4995 H   0  0  0  0  0  0
  -25.8735  -15.9026   20.1624 H   0  0  0  0  0  0
  -26.8255  -32.2364   23.0320 H   0  0  0  0  0  0
  -24.8250  -33.6988   24.7366 H   0  0  0  0  0  0
  -23.1869  -30.1559   21.0751 H   0  0  0  0  0  0
  -23.3677  -35.8581   23.3040 H   0  0  0  0  0  0
  -24.3461  -36.8388   22.2204 H   0  0  0  0  0  0
  -23.7245  -37.5260   23.7224 H   0  0  0  0  0  0
  -27.5277  -29.6885   21.9985 H   0  0  0  0  0  0
  -27.0048  -28.5722   23.2087 H   0  0  0  0  0  0
  -29.2878  -26.8937   21.2830 H   0  0  0  0  0  0
  -27.2555  -23.9678   17.6409 H   0  0  0  0  0  0
  -24.5955  -24.8906   18.2142 H   0  0  0  0  0  0
  -23.0573  -27.9525   19.3777 H   0  0  0  0  0  0
  -22.6762  -26.9992   20.7103 H   0  0  0  0  0  0
  -25.1460  -36.0032   25.0548 H   0  0  0  0  0  0
  -20.7950  -28.2743   24.2232 H   0  0  0  0  0  0
  -20.2844  -26.1926   23.4996 H   0  0  0  0  0  0
  -21.5479  -26.5479   22.4055 H   0  0  0  0  0  0
  -19.6307  -25.5711   21.1751 H   0  0  0  0  0  0
  -19.7004  -27.2604   20.7198 H   0  0  0  0  0  0
  -17.3829  -26.7110   21.3196 H   0  0  0  0  0  0
  -17.8788  -26.0001   22.8352 H   0  0  0  0  0  0
  -19.7615  -30.6874   24.2299 H   0  0  0  0  0  0
  -17.4791  -31.6308   24.5094 H   0  0  0  0  0  0
  -15.4984  -30.3246   23.7535 H   0  0  0  0  0  0
  -15.7988  -28.1115   22.6775 H   0  0  0  0  0  0
  -24.5977  -30.7602   25.8192 H   0  0  0  0  0  0
  -24.8746  -32.3988   26.3846 H   0  0  0  0  0  0
  -25.7599  -31.0666   27.0950 H   0  0  0  0  0  0
  -26.4088  -29.5113   24.8631 H   0  0  0  0  0  0
  -27.7228  -30.0121   25.8433 H   0  0  0  0  0  0
  -27.8976  -30.2933   24.1430 H   0  0  0  0  0  0
  -27.2027  -33.5335   26.0022 H   0  0  0  0  0  0
  -28.4111  -32.7152   25.0271 H   0  0  0  0  0  0
  -28.0146  -32.1278   26.6363 H   0  0  0  0  0  0
  -28.2199  -37.9602   24.7395 H   0  0  0  0  0  0
  -28.1043  -36.2056   24.6393 H   0  0  0  0  0  0
  -27.2069  -37.0837   25.8863 H   0  0  0  0  0  0
  -21.0279  -29.3170   21.4128 H   0  0  0  0  0  0
  -25.9646  -38.1615   24.1228 H   0  0  0  0  0  0
  -26.6223  -28.9545   18.3045 H   0  0  0  0  0  0
  -25.5130  -24.7684   22.8282 H   0  0  0  0  0  0
  -24.3548  -32.1308   17.5328 H   0  0  0  0  0  0
  -23.4572  -32.1799   19.0423 H   0  0  0  0  0  0
  -25.2830  -32.9457   20.1663 H   0  0  0  0  0  0
  -26.2589  -32.9157   18.7043 H   0  0  0  0  0  0
  -24.8171  -29.8565   17.7669 H   0  0  0  0  0  0
  -23.4067  -29.9063   18.8046 H   0  0  0  0  0  0
  -26.7197  -31.2733   20.8291 H   0  0  0  0  0  0
  -27.1480  -30.8107   19.1973 H   0  0  0  0  0  0
  -29.9975  -25.4043   15.8112 H   0  0  0  0  0  0
  -28.9855  -24.3454   16.6402 H   0  0  0  0  0  0
  -27.3856  -25.9613   16.0455 H   0  0  0  0  0  0
  -28.6112  -27.1692   15.8689 H   0  0  0  0  0  0
  -31.1068  -26.1547   17.7045 H   0  0  0  0  0  0
  -30.8022  -24.4788   18.0791 H   0  0  0  0  0  0
  -28.6294  -21.8296   20.3900 H   0  0  0  0  0  0
  -27.9846  -28.1319   17.6573 H   0  0  0  0  0  0
  1 25  1  0  0  0
  1 30  2  0  0  0
  1 85  1  0  0  0
  2  3  1  0  0  0
  2 25  1  0  0  0
  2 88  1  0  0  0
  2 89  1  0  0  0
  3  4  1  0  0  0
  3 90  1  0  0  0
  3 91  1  0  0  0
  4  5  1  0  0  0
  4 92  1  0  0  0
  4 93  1  0  0  0
  5  6  1  0  0  0
  5 26  1  0  0  0
  5 94  1  0  0  0
  6 25  1  0  0  0
  6 95  1  0  0  0
  6 96  1  0  0  0
  7  8  2  0  0  0
  7 26  1  0  0  0
  7 29  1  0  0  0
  8  9  1  0  0  0
  8 22  1  0  0  0
  9 10  1  0  0  0
  9 27  2  0  0  0
 10 11  2  0  0  0
 10 15  1  0  0  0
 11 12  1  0  0  0
 11 97  1  0  0  0
 12 13  2  0  0  0
 12 98  1  0  0  0
 13 14  1  0  0  0
 13 31  1  0  0  0
 14 15  2  0  0  0
 14 99  1  0  0  0
 15100  1  0  0  0
 16 17  2  0  0  0
 16 21  1  0  0  0
 16 31  1  0  0  0
 17 18  1  0  0  0
 17101  1  0  0  0
 18 19  2  0  0  0
 18102  1  0  0  0
 19 20  1  0  0  0
 19 24  1  0  0  0
 20 21  2  0  0  0
 20103  1  0  0  0
 21 23  1  0  0  0
 22 28  1  0  0  0
 22 32  2  0  0  0
 26 27  1  0  0  0
 28104  1  0  0  0
 28105  1  0  0  0
 29106  1  0  0  0
 29107  1  0  0  0
 33 34  1  0  0  0
 33 66  1  0  0  0
 33 70  2  0  0  0
 34 36  1  0  0  0
 34 59  1  0  0  0
 34108  1  0  0  0
 35 44  2  0  0  0
 35 45  1  0  0  0
 35 68  1  0  0  0
 36 56  1  0  0  0
 36109  1  0  0  0
 37 39  1  0  0  0
 37 47  1  0  0  0
 37 66  1  0  0  0
 37110  1  0  0  0
 38 43  2  0  0  0
 38 46  1  0  0  0
 38 47  1  0  0  0
 39 64  1  0  0  0
 39 67  2  0  0  0
 40 52  1  0  0  0
 40 53  2  0  0  0
 40 58  1  0  0  0
 41111  1  0  0  0
 41112  1  0  0  0
 41113  1  0  0  0
 41 48  1  0  0  0
 42 43  1  0  0  0
 42 66  1  0  0  0
 42114  1  0  0  0
 42115  1  0  0  0
 43 44  1  0  0  0
 44116  1  0  0  0
 45 46  2  0  0  0
 45117  1  0  0  0
 46118  1  0  0  0
 47119  1  0  0  0
 47120  1  0  0  0
 48 56  1  0  0  0
 48 65  1  0  0  0
 48121  1  0  0  0
 49 50  1  0  0  0
 49 53  1  0  0  0
 49 64  1  0  0  0
 49122  1  0  0  0
 50 51  1  0  0  0
 50123  1  0  0  0
 50124  1  0  0  0
 51 52  1  0  0  0
 51125  1  0  0  0
 51126  1  0  0  0
 52127  1  0  0  0
 52128  1  0  0  0
 53 54  1  0  0  0
 54 55  2  0  0  0
 54129  1  0  0  0
 55 57  1  0  0  0
 55130  1  0  0  0
 56 69  2  0  0  0
 57 58  2  0  0  0
 57131  1  0  0  0
 58132  1  0  0  0
 59 60  1  0  0  0
 59 61  1  0  0  0
 59 62  1  0  0  0
 60133  1  0  0  0
 60134  1  0  0  0
 60135  1  0  0  0
 61136  1  0  0  0
 61137  1  0  0  0
 61138  1  0  0  0
 62139  1  0  0  0
 62140  1  0  0  0
 62141  1  0  0  0
 63 65  1  0  0  0
 63142  1  0  0  0
 63143  1  0  0  0
 63144  1  0  0  0
 64145  1  0  0  0
 65146  1  0  0  0
 68 83  1  0  0  0
 71 73  2  0  0  0
 71 74  1  0  0  0
 71147  1  0  0  0
 72 75  1  0  0  0
 72 76  2  0  0  0
 72148  1  0  0  0
 73 76  1  0  0  0
 73 84  1  0  0  0
 74 75  2  0  0  0
 74 86  1  0  0  0
 75 85  1  0  0  0
 76 87  1  0  0  0
 77 78  1  0  0  0
 77 79  1  0  0  0
 77149  1  0  0  0
 77150  1  0  0  0
 78 80  1  0  0  0
 78151  1  0  0  0
 78152  1  0  0  0
 79 84  1  0  0  0
 79153  1  0  0  0
 79154  1  0  0  0
 80 84  1  0  0  0
 80155  1  0  0  0
 80156  1  0  0  0
 81 82  1  0  0  0
 81 83  1  0  0  0
 81157  1  0  0  0
 81158  1  0  0  0
 82 86  1  0  0  0
 82159  1  0  0  0
 82160  1  0  0  0
 83161  1  0  0  0
 83162  1  0  0  0
 85163  1  0  0  0
 86164  1  0  0  0
M  ISO  4   1 100  68 101  83 101  85 100
M  END
> <chiral flag>
0

> <version>
0

> <s_m_source_file>
/data/baiqing/PycharmProjects/Reinvent-master-3.2/result/LINK_invent/BTK/process_docking_weight1_custom_product_contain_oxygen_bond_distance_aromatic_linkinvent_7_9_3/rearranged_h_0021.sdf

> <i_m_source_file_index>
78

> <r_mmod_Potential_Energy-OPLS-2005>
43415.41796875

> <r_mmod_Stretch_Energy-OPLS-2005>
21102.486328125

> <r_mmod_Bend_Energy-OPLS-2005>
2111.5673828125

> <r_mmod_Torsional_Energy-OPLS-2005>
474.841094970703

> <r_mmod_Improper_Torsional_Energy-OPLS-2005>
34.0422172546387

> <r_mmod_Van_der_Waal_Energy-OPLS-2005>
5062.54638671875

> <r_mmod_Electrostatic_Energy-OPLS-2005>
-330.705749511719

> <r_mmod_Solvation_Energy-OPLS-2005>
-231.904388427734

> <b_mmod_Minimization_Converged-OPLS-2005>
0

> <r_mmod_RMS_Derivative-OPLS-2005>
6.4084792137146

$$$$
78
                    3D
 Structure written by MMmdl.
159168  0  0  1  0            999 V2000
  -30.6247  -14.6368   20.5373 C   0  0  0  0  0  0
  -30.4448  -12.3973   19.4548 C   0  0  0  0  0  0
  -29.5126  -12.5196   18.2284 C   0  0  0  0  0  0
  -28.0344  -12.3579   18.6349 C   0  0  0  0  0  0
  -27.6588  -13.2165   19.8723 C   0  0  2  0  0  0
  -28.7031  -13.0519   20.9998 C   0  0  0  0  0  0
  -25.2574  -13.8177   20.5666 C   0  0  0  0  0  0
  -24.1840  -13.0447   20.9187 C   0  0  0  0  0  0
  -24.6414  -11.6916   20.8757 C   0  0  0  0  0  0
  -23.9070  -10.4302   21.0421 C   0  0  0  0  0  0
  -24.3624   -9.4207   21.9195 C   0  0  0  0  0  0
  -23.6292   -8.2244   22.0764 C   0  0  0  0  0  0
  -22.4269   -8.0290   21.3547 C   0  0  0  0  0  0
  -21.9905   -9.0272   20.4654 C   0  0  0  0  0  0
  -22.7249  -10.2145   20.3067 C   0  0  0  0  0  0
  -21.6853   -6.0738   22.5275 C   0  0  0  0  0  0
  -21.4022   -6.5639   23.8216 C   0  0  0  0  0  0
  -21.3657   -5.6787   24.9174 C   0  0  0  0  0  0
  -21.6034   -4.3049   24.7221 C   0  0  0  0  0  0
  -21.8820   -3.8144   23.4347 C   0  0  0  0  0  0
  -21.9190   -4.6962   22.3398 C   0  0  0  0  0  0
  -22.7861  -13.5250   21.1838 C   0  0  0  0  0  0
  -22.1655   -4.2148   21.0976 F   0  0  0  0  0  0
  -21.5617   -3.4530   25.7733 F   0  0  0  0  0  0
  -30.0211  -13.4077   20.4470 N   0  0  0  0  0  0
  -26.3019  -12.9355   20.3347 N   0  0  0  0  0  0
  -25.9346  -11.6514   20.5781 N   0  0  0  0  0  0
  -22.0473  -12.8266   22.0387 N   0  0  0  0  0  0
  -25.4271  -15.1894   20.4053 N   0  0  0  0  0  0
  -31.7655  -14.8213   20.1001 O   0  0  0  0  0  0
  -21.6637   -6.8885   21.4241 O   0  0  0  0  0  0
  -22.3551  -14.5555   20.6678 O   0  0  0  0  0  0
  -24.6242  -31.8590   23.2036 C   0  0  0  0  0  0
  -25.9086  -32.4776   23.8367 C   0  0  1  0  0  0
  -27.2274  -27.3218   20.1365 C   0  0  0  0  0  0
  -25.5903  -33.8577   24.2297 N   0  0  0  0  0  0
  -23.4202  -30.4803   21.5446 C   0  0  2  0  0  0
  -24.8708  -28.9369   20.1120 C   0  0  0  0  0  0
  -22.7482  -29.4599   22.4937 C   0  0  0  0  0  0
  -18.0291  -28.1378   22.8484 C   0  0  0  0  0  0
  -24.1486  -36.7300   23.2643 C   0  0  0  0  0  0
  -25.9599  -30.7934   21.3733 C   0  0  0  0  0  0
  -26.0379  -29.4201   20.7187 C   0  0  0  0  0  0
  -27.2216  -28.6244   20.7206 C   0  0  0  0  0  0
  -26.0461  -26.8973   19.4890 C   0  0  0  0  0  0
  -24.8772  -27.6814   19.4844 C   0  0  0  0  0  0
  -23.6368  -29.8140   20.1601 C   0  0  0  0  0  0
  -25.4104  -36.3081   24.0336 C   0  0  1  0  0  0
  -20.5891  -28.3677   23.1283 C   0  0  2  0  0  0
  -20.6783  -26.9404   22.5408 C   0  0  0  0  0  0
  -19.5759  -26.6371   21.5213 C   0  0  0  0  0  0
  -18.1936  -26.7924   22.1617 C   0  0  0  0  0  0
  -19.1544  -28.8846   23.2878 C   0  0  0  0  0  0
  -18.9466  -30.1449   23.8900 C   0  0  0  0  0  0
  -17.6463  -30.6575   24.0562 C   0  0  0  0  0  0
  -25.9025  -34.9448   23.5115 C   0  0  0  0  0  0
  -16.5353  -29.9075   23.6326 C   0  0  0  0  0  0
  -16.7278  -28.6490   23.0352 C   0  0  0  0  0  0
  -26.4482  -31.6581   25.0727 C   0  0  0  0  0  0
  -25.3731  -31.3725   26.1470 C   0  0  0  0  0  0
  -27.0321  -30.3013   24.6161 C   0  0  0  0  0  0
  -27.6058  -32.4311   25.7470 C   0  0  0  0  0  0
  -27.5568  -37.1812   24.8466 C   0  0  0  0  0  0
  -21.4196  -29.3027   22.3678 N   0  0  0  0  0  0
  -26.4295  -37.3760   23.9386 N   0  0  0  0  0  0
  -24.6865  -31.0607   22.0978 N   0  0  0  0  0  0
  -23.4203  -28.8138   23.3016 O   0  0  0  0  0  0
  -28.3310  -26.4583   20.1809 O   0  0  0  0  0  0
  -26.5597  -34.8905   22.4681 O   0  0  0  0  0  0
  -23.5404  -32.1381   23.7364 O   0  0  0  0  0  0
  -30.7860  -19.2972   20.1808 C   0  0  0  0  0  0
  -30.8615  -17.8736   20.2792 C   0  0  0  0  0  0
  -28.6753  -19.2889   21.3116 C   0  0  0  0  0  0
  -28.7543  -17.8663   21.4483 C   0  0  0  0  0  0
  -29.6883  -20.0527   20.6780 C   0  0  0  0  0  0
  -29.8441  -17.1102   20.9118 C   0  0  0  0  0  0
  -30.3862  -23.7742   20.8369 C   0  0  0  0  0  0
  -30.8477  -22.3064   20.6481 C   0  0  0  0  0  0
  -28.4634  -22.3934   20.5846 C   0  0  0  0  0  0
  -28.9723  -23.8521   20.2404 C   0  0  1  0  0  0
  -27.6384  -17.1786   22.2248 C   0  0  0  0  0  0
  -28.0840  -25.0928   20.7089 C   0  0  0  0  0  0
  -29.6392  -21.4899   20.5621 N   0  0  0  0  0  0
  -29.8420  -15.6472   21.0359 N   0  0  0  0  0  0
  -31.4856  -12.5271   19.1526 H   0  0  0  0  0  0
  -30.3829  -11.3976   19.8880 H   0  0  0  0  0  0
  -29.7748  -11.7721   17.4781 H   0  0  0  0  0  0
  -29.6584  -13.4933   17.7556 H   0  0  0  0  0  0
  -27.8647  -11.3025   18.8535 H   0  0  0  0  0  0
  -27.3849  -12.6048   17.7943 H   0  0  0  0  0  0
  -27.6823  -14.2568   19.5466 H   0  0  0  0  0  0
  -28.7156  -12.0215   21.3592 H   0  0  0  0  0  0
  -28.4443  -13.6592   21.8677 H   0  0  0  0  0  0
  -25.2787   -9.5669   22.4759 H   0  0  0  0  0  0
  -23.9992   -7.4633   22.7488 H   0  0  0  0  0  0
  -21.0831   -8.8820   19.8964 H   0  0  0  0  0  0
  -22.3739  -10.9692   19.6166 H   0  0  0  0  0  0
  -21.2029   -7.6148   23.9722 H   0  0  0  0  0  0
  -21.1469   -6.0515   25.9076 H   0  0  0  0  0  0
  -22.0602   -2.7601   23.2851 H   0  0  0  0  0  0
  -22.4073  -11.9937   22.4806 H   0  0  0  0  0  0
  -21.1091  -13.1319   22.2562 H   0  0  0  0  0  0
  -24.6653  -15.8474   20.5323 H   0  0  0  0  0  0
  -26.2744  -15.6268   20.0685 H   0  0  0  0  0  0
  -26.7153  -32.5457   23.1116 H   0  0  0  0  0  0
  -25.0065  -33.9727   25.0455 H   0  0  0  0  0  0
  -22.7130  -31.2993   21.3999 H   0  0  0  0  0  0
  -23.3716  -35.9669   23.3350 H   0  0  0  0  0  0
  -24.3578  -36.8868   22.2050 H   0  0  0  0  0  0
  -23.7284  -37.6537   23.6629 H   0  0  0  0  0  0
  -26.0870  -31.5562   20.6035 H   0  0  0  0  0  0
  -26.8414  -30.8474   22.0008 H   0  0  0  0  0  0
  -28.1158  -28.9882   21.2075 H   0  0  0  0  0  0
  -26.0157  -25.9396   18.9896 H   0  0  0  0  0  0
  -23.9867  -27.3093   18.9967 H   0  0  0  0  0  0
  -23.7523  -30.5888   19.4014 H   0  0  0  0  0  0
  -22.7598  -29.2382   19.8602 H   0  0  0  0  0  0
  -25.1289  -36.1951   25.0834 H   0  0  0  0  0  0
  -20.9984  -28.3254   24.1404 H   0  0  0  0  0  0
  -20.5684  -26.2291   23.3604 H   0  0  0  0  0  0
  -21.6650  -26.7427   22.1205 H   0  0  0  0  0  0
  -19.6916  -25.6281   21.1244 H   0  0  0  0  0  0
  -19.6695  -27.3182   20.6744 H   0  0  0  0  0  0
  -17.4211  -26.6685   21.4014 H   0  0  0  0  0  0
  -18.0317  -26.0059   22.9000 H   0  0  0  0  0  0
  -19.7941  -30.7272   24.2267 H   0  0  0  0  0  0
  -17.5009  -31.6264   24.5150 H   0  0  0  0  0  0
  -15.5352  -30.2975   23.7634 H   0  0  0  0  0  0
  -15.8683  -28.0794   22.7076 H   0  0  0  0  0  0
  -24.5894  -30.7077   25.7815 H   0  0  0  0  0  0
  -24.8934  -32.2896   26.4907 H   0  0  0  0  0  0
  -25.8067  -30.8900   27.0237 H   0  0  0  0  0  0
  -26.2892  -29.6757   24.1200 H   0  0  0  0  0  0
  -27.4055  -29.7273   25.4649 H   0  0  0  0  0  0
  -27.8742  -30.4320   23.9363 H   0  0  0  0  0  0
  -27.2687  -33.3609   26.2060 H   0  0  0  0  0  0
  -28.3842  -32.6866   25.0270 H   0  0  0  0  0  0
  -28.0746  -31.8428   26.5365 H   0  0  0  0  0  0
  -28.2629  -38.0062   24.7433 H   0  0  0  0  0  0
  -28.1018  -36.2594   24.6384 H   0  0  0  0  0  0
  -27.2280  -37.1577   25.8871 H   0  0  0  0  0  0
  -20.9378  -29.8758   21.6895 H   0  0  0  0  0  0
  -26.0183  -38.2848   24.1336 H   0  0  0  0  0  0
  -31.5962  -19.8098   19.6847 H   0  0  0  0  0  0
  -31.7234  -17.3793   19.8567 H   0  0  0  0  0  0
  -27.8271  -19.8067   21.7372 H   0  0  0  0  0  0
  -31.0748  -24.4874   20.3807 H   0  0  0  0  0  0
  -30.3429  -24.0047   21.9029 H   0  0  0  0  0  0
  -31.4802  -21.9867   21.4790 H   0  0  0  0  0  0
  -31.4257  -22.2009   19.7295 H   0  0  0  0  0  0
  -27.7074  -22.0651   19.8688 H   0  0  0  0  0  0
  -28.0059  -22.3735   21.5746 H   0  0  0  0  0  0
  -29.0677  -23.9087   19.1553 H   0  0  0  0  0  0
  -27.8399  -17.2357   23.2952 H   0  0  0  0  0  0
  -27.5167  -16.1287   21.9652 H   0  0  0  0  0  0
  -26.6807  -17.6676   22.0409 H   0  0  0  0  0  0
  -28.1610  -25.1671   21.7948 H   0  0  0  0  0  0
  -27.0494  -24.7975   20.5411 H   0  0  0  0  0  0
  -28.9980  -15.2834   21.4484 H   0  0  0  0  0  0
  1 25  1  0  0  0
  1 30  2  0  0  0
  1 84  1  0  0  0
  2  3  1  0  0  0
  2 25  1  0  0  0
  2 85  1  0  0  0
  2 86  1  0  0  0
  3  4  1  0  0  0
  3 87  1  0  0  0
  3 88  1  0  0  0
  4  5  1  0  0  0
  4 89  1  0  0  0
  4 90  1  0  0  0
  5  6  1  0  0  0
  5 26  1  0  0  0
  5 91  1  0  0  0
  6 25  1  0  0  0
  6 92  1  0  0  0
  6 93  1  0  0  0
  7  8  2  0  0  0
  7 26  1  0  0  0
  7 29  1  0  0  0
  8  9  1  0  0  0
  8 22  1  0  0  0
  9 10  1  0  0  0
  9 27  2  0  0  0
 10 11  2  0  0  0
 10 15  1  0  0  0
 11 12  1  0  0  0
 11 94  1  0  0  0
 12 13  2  0  0  0
 12 95  1  0  0  0
 13 14  1  0  0  0
 13 31  1  0  0  0
 14 15  2  0  0  0
 14 96  1  0  0  0
 15 97  1  0  0  0
 16 17  2  0  0  0
 16 21  1  0  0  0
 16 31  1  0  0  0
 17 18  1  0  0  0
 17 98  1  0  0  0
 18 19  2  0  0  0
 18 99  1  0  0  0
 19 20  1  0  0  0
 19 24  1  0  0  0
 20 21  2  0  0  0
 20100  1  0  0  0
 21 23  1  0  0  0
 22 28  1  0  0  0
 22 32  2  0  0  0
 26 27  1  0  0  0
 28101  1  0  0  0
 28102  1  0  0  0
 29103  1  0  0  0
 29104  1  0  0  0
 33 34  1  0  0  0
 33 66  1  0  0  0
 33 70  2  0  0  0
 34 36  1  0  0  0
 34 59  1  0  0  0
 34105  1  0  0  0
 35 44  2  0  0  0
 35 45  1  0  0  0
 35 68  1  0  0  0
 36 56  1  0  0  0
 36106  1  0  0  0
 37 39  1  0  0  0
 37 47  1  0  0  0
 37 66  1  0  0  0
 37107  1  0  0  0
 38 43  2  0  0  0
 38 46  1  0  0  0
 38 47  1  0  0  0
 39 64  1  0  0  0
 39 67  2  0  0  0
 40 52  1  0  0  0
 40 53  2  0  0  0
 40 58  1  0  0  0
 41108  1  0  0  0
 41109  1  0  0  0
 41110  1  0  0  0
 41 48  1  0  0  0
 42 43  1  0  0  0
 42 66  1  0  0  0
 42111  1  0  0  0
 42112  1  0  0  0
 43 44  1  0  0  0
 44113  1  0  0  0
 45 46  2  0  0  0
 45114  1  0  0  0
 46115  1  0  0  0
 47116  1  0  0  0
 47117  1  0  0  0
 48 56  1  0  0  0
 48 65  1  0  0  0
 48118  1  0  0  0
 49 50  1  0  0  0
 49 53  1  0  0  0
 49 64  1  0  0  0
 49119  1  0  0  0
 50 51  1  0  0  0
 50120  1  0  0  0
 50121  1  0  0  0
 51 52  1  0  0  0
 51122  1  0  0  0
 51123  1  0  0  0
 52124  1  0  0  0
 52125  1  0  0  0
 53 54  1  0  0  0
 54 55  2  0  0  0
 54126  1  0  0  0
 55 57  1  0  0  0
 55127  1  0  0  0
 56 69  2  0  0  0
 57 58  2  0  0  0
 57128  1  0  0  0
 58129  1  0  0  0
 59 60  1  0  0  0
 59 61  1  0  0  0
 59 62  1  0  0  0
 60130  1  0  0  0
 60131  1  0  0  0
 60132  1  0  0  0
 61133  1  0  0  0
 61134  1  0  0  0
 61135  1  0  0  0
 62136  1  0  0  0
 62137  1  0  0  0
 62138  1  0  0  0
 63 65  1  0  0  0
 63139  1  0  0  0
 63140  1  0  0  0
 63141  1  0  0  0
 64142  1  0  0  0
 65143  1  0  0  0
 68 82  1  0  0  0
 71 72  2  0  0  0
 71 75  1  0  0  0
 71144  1  0  0  0
 72 76  1  0  0  0
 72145  1  0  0  0
 73 74  1  0  0  0
 73 75  2  0  0  0
 73146  1  0  0  0
 74 76  2  0  0  0
 74 81  1  0  0  0
 75 83  1  0  0  0
 76 84  1  0  0  0
 77 78  1  0  0  0
 77 80  1  0  0  0
 77147  1  0  0  0
 77148  1  0  0  0
 78 83  1  0  0  0
 78149  1  0  0  0
 78150  1  0  0  0
 79 80  1  0  0  0
 79 83  1  0  0  0
 79151  1  0  0  0
 79152  1  0  0  0
 80 82  1  0  0  0
 80153  1  0  0  0
 81154  1  0  0  0
 81155  1  0  0  0
 81156  1  0  0  0
 82157  1  0  0  0
 82158  1  0  0  0
 84159  1  0  0  0
M  ISO  4   1 100  68 101  82 101  84 100
M  END
> <chiral flag>
0

> <version>
0

> <s_m_source_file>
/data/baiqing/PycharmProjects/Reinvent-master-3.2/result/LINK_invent/BTK/process_docking_weight1_custom_product_contain_oxygen_bond_distance_aromatic_linkinvent_7_9_3/rearranged_h_0021.sdf

> <i_m_source_file_index>
79

> <r_mmod_Potential_Energy-OPLS-2005>
114.989028930664

> <r_mmod_Stretch_Energy-OPLS-2005>
78.1378173828125

> <r_mmod_Bend_Energy-OPLS-2005>
184.276489257812

> <r_mmod_Torsional_Energy-OPLS-2005>
282.204895019531

> <r_mmod_Improper_Torsional_Energy-OPLS-2005>
3.49180173873901

> <r_mmod_Van_der_Waal_Energy-OPLS-2005>
139.311248779297

> <r_mmod_Electrostatic_Energy-OPLS-2005>
-397.050201416016

> <r_mmod_Solvation_Energy-OPLS-2005>
-223.042617797852

> <b_mmod_Minimization_Converged-OPLS-2005>
0

> <r_mmod_RMS_Derivative-OPLS-2005>
2.11954736709595

$$$$
79
                    3D
 Structure written by MMmdl.
175185  0  0  1  0            999 V2000
  -30.6191  -14.7558   20.3753 C   0  0  0  0  0  0
  -30.4446  -12.4310   19.4819 C   0  0  0  0  0  0
  -29.5203  -12.3742   18.2455 C   0  0  0  0  0  0
  -28.0337  -12.2932   18.6547 C   0  0  0  0  0  0
  -27.6381  -13.2257   19.8346 C   0  0  2  0  0  0
  -28.6896  -13.2059   20.9612 C   0  0  0  0  0  0
  -25.2528  -13.8208   20.5698 C   0  0  0  0  0  0
  -24.1795  -13.0461   20.9212 C   0  0  0  0  0  0
  -24.6374  -11.6935   20.8776 C   0  0  0  0  0  0
  -23.9052  -10.4311   21.0428 C   0  0  0  0  0  0
  -24.3612   -9.4223   21.9201 C   0  0  0  0  0  0
  -23.6295   -8.2248   22.0754 C   0  0  0  0  0  0
  -22.4278   -8.0286   21.3543 C   0  0  0  0  0  0
  -21.9915   -9.0261   20.4645 C   0  0  0  0  0  0
  -22.7234  -10.2146   20.3071 C   0  0  0  0  0  0
  -21.6858   -6.0747   22.5276 C   0  0  0  0  0  0
  -21.4027   -6.5647   23.8211 C   0  0  0  0  0  0
  -21.3650   -5.6798   24.9170 C   0  0  0  0  0  0
  -21.6039   -4.3060   24.7224 C   0  0  0  0  0  0
  -21.8824   -3.8155   23.4343 C   0  0  0  0  0  0
  -21.9197   -4.6975   22.3401 C   0  0  0  0  0  0
  -22.7811  -13.5243   21.1860 C   0  0  0  0  0  0
  -22.1662   -4.2156   21.0979 F   0  0  0  0  0  0
  -21.5618   -3.4541   25.7733 F   0  0  0  0  0  0
  -29.9800  -13.5367   20.3466 N   0  0  0  0  0  0
  -26.2925  -12.9385   20.3255 N   0  0  0  0  0  0
  -25.9302  -11.6547   20.5784 N   0  0  0  0  0  0
  -22.0466  -12.8213   22.0424 N   0  0  0  0  0  0
  -25.4307  -15.1917   20.4132 N   0  0  0  0  0  0
  -31.8438  -14.8014   20.2300 O   0  0  0  0  0  0
  -21.6642   -6.8884   21.4233 O   0  0  0  0  0  0
  -22.3482  -14.5547   20.6717 O   0  0  0  0  0  0
  -24.6314  -31.8547   23.2005 C   0  0  0  0  0  0
  -25.9125  -32.4764   23.8357 C   0  0  1  0  0  0
  -27.2186  -27.2549   20.1121 C   0  0  0  0  0  0
  -25.5924  -33.8571   24.2266 N   0  0  0  0  0  0
  -23.4305  -30.4765   21.5440 C   0  0  2  0  0  0
  -24.8767  -28.9253   20.1111 C   0  0  0  0  0  0
  -22.7511  -29.4577   22.4917 C   0  0  0  0  0  0
  -18.0285  -28.1364   22.8460 C   0  0  0  0  0  0
  -24.1490  -36.7290   23.2639 C   0  0  0  0  0  0
  -25.9778  -30.7614   21.3864 C   0  0  0  0  0  0
  -26.0480  -29.3846   20.7254 C   0  0  0  0  0  0
  -27.2194  -28.5583   20.7192 C   0  0  0  0  0  0
  -26.0281  -26.8837   19.4437 C   0  0  0  0  0  0
  -24.8714  -27.6838   19.4626 C   0  0  0  0  0  0
  -23.6500  -29.8122   20.1603 C   0  0  0  0  0  0
  -25.4115  -36.3075   24.0327 C   0  0  1  0  0  0
  -20.5887  -28.3675   23.1246 C   0  0  2  0  0  0
  -20.6752  -26.9390   22.5390 C   0  0  0  0  0  0
  -19.5734  -26.6358   21.5184 C   0  0  0  0  0  0
  -18.1918  -26.7899   22.1604 C   0  0  0  0  0  0
  -19.1543  -28.8836   23.2842 C   0  0  0  0  0  0
  -18.9473  -30.1429   23.8865 C   0  0  0  0  0  0
  -17.6476  -30.6564   24.0537 C   0  0  0  0  0  0
  -25.9050  -34.9445   23.5102 C   0  0  0  0  0  0
  -16.5361  -29.9057   23.6331 C   0  0  0  0  0  0
  -16.7275  -28.6480   23.0338 C   0  0  0  0  0  0
  -26.4482  -31.6608   25.0768 C   0  0  0  0  0  0
  -25.3704  -31.3766   26.1498 C   0  0  0  0  0  0
  -27.0327  -30.3018   24.6278 C   0  0  0  0  0  0
  -27.6025  -32.4371   25.7536 C   0  0  0  0  0  0
  -27.5575  -37.1802   24.8461 C   0  0  0  0  0  0
  -21.4217  -29.3043   22.3667 N   0  0  0  0  0  0
  -26.4290  -37.3777   23.9405 N   0  0  0  0  0  0
  -24.6988  -31.0489   22.1001 N   0  0  0  0  0  0
  -23.4201  -28.8110   23.3019 O   0  0  0  0  0  0
  -28.3197  -26.3647   20.1931 O   0  0  0  0  0  0
  -26.5626  -34.8918   22.4671 O   0  0  0  0  0  0
  -23.5459  -32.1370   23.7287 O   0  0  0  0  0  0
  -29.5163  -18.2298   23.0016 C   0  0  0  0  0  0
  -29.6642  -17.0736   22.2161 C   0  0  0  0  0  0
  -29.7027  -18.5061   20.2517 C   0  0  0  0  0  0
  -29.5534  -19.7210   21.0370 C   0  0  0  0  0  0
  -29.4807  -19.5335   22.4446 C   0  0  0  0  0  0
  -29.7728  -17.1592   20.8179 C   0  0  0  0  0  0
  -30.7569  -20.4666   25.2488 C   0  0  0  0  0  0
  -29.3063  -20.5975   25.7081 C   0  0  0  0  0  0
  -26.9218  -23.0380   22.0524 C   0  0  0  0  0  0
  -28.2069  -23.8577   22.1659 C   0  0  0  0  0  0
  -30.7198  -21.0362   23.8344 C   0  0  0  0  0  0
  -28.4801  -20.5785   24.4150 C   0  0  0  0  0  0
  -27.2818  -21.8779   21.1077 C   0  0  0  0  0  0
  -28.8299  -23.7341   20.7711 C   0  0  2  0  0  0
  -29.6449  -16.0554   18.6055 C   0  0  0  0  0  0
  -29.6698  -21.2102   20.4401 C   0  0  0  0  0  0
  -28.1966  -24.9006   19.8397 C   0  0  0  0  0  0
  -29.4213  -20.6535   23.2950 N   0  0  0  0  0  0
  -29.8713  -15.8953   20.0479 N   0  0  0  0  0  0
  -28.5304  -22.2595   20.3928 N   0  3  1  0  0  0
  -31.4807  -12.5610   19.1641 H   0  0  0  0  0  0
  -30.4140  -11.4894   20.0308 H   0  0  0  0  0  0
  -29.7713  -11.4931   17.6532 H   0  0  0  0  0  0
  -29.7064  -13.2099   17.5773 H   0  0  0  0  0  0
  -27.8506  -11.2577   18.9443 H   0  0  0  0  0  0
  -27.3933  -12.4787   17.7912 H   0  0  0  0  0  0
  -27.6127  -14.2350   19.4284 H   0  0  0  0  0  0
  -28.7249  -12.2280   21.4438 H   0  0  0  0  0  0
  -28.4370  -13.9335   21.7340 H   0  0  0  0  0  0
  -25.2758   -9.5695   22.4777 H   0  0  0  0  0  0
  -24.0013   -7.4630   22.7457 H   0  0  0  0  0  0
  -21.0859   -8.8781   19.8932 H   0  0  0  0  0  0
  -22.3701  -10.9692   19.6182 H   0  0  0  0  0  0
  -21.2040   -7.6156   23.9718 H   0  0  0  0  0  0
  -21.1453   -6.0526   25.9068 H   0  0  0  0  0  0
  -22.0617   -2.7618   23.2843 H   0  0  0  0  0  0
  -22.4092  -11.9866   22.4784 H   0  0  0  0  0  0
  -21.1079  -13.1205   22.2642 H   0  0  0  0  0  0
  -24.6800  -15.8637   20.5302 H   0  0  0  0  0  0
  -26.3018  -15.6174   20.1220 H   0  0  0  0  0  0
  -26.7193  -32.5410   23.1096 H   0  0  0  0  0  0
  -25.0078  -33.9706   25.0418 H   0  0  0  0  0  0
  -22.7300  -31.3001   21.3954 H   0  0  0  0  0  0
  -23.3756  -35.9621   23.3301 H   0  0  0  0  0  0
  -24.3565  -36.8925   22.2054 H   0  0  0  0  0  0
  -23.7255  -37.6494   23.6667 H   0  0  0  0  0  0
  -26.1191  -31.5242   20.6185 H   0  0  0  0  0  0
  -26.8526  -30.8078   22.0236 H   0  0  0  0  0  0
  -28.1162  -28.8976   21.2188 H   0  0  0  0  0  0
  -25.9380  -25.9637   18.8890 H   0  0  0  0  0  0
  -23.9785  -27.3334   18.9636 H   0  0  0  0  0  0
  -23.7812  -30.5872   19.4051 H   0  0  0  0  0  0
  -22.7685  -29.2467   19.8520 H   0  0  0  0  0  0
  -25.1300  -36.1931   25.0826 H   0  0  0  0  0  0
  -20.9957  -28.3240   24.1368 H   0  0  0  0  0  0
  -20.5601  -26.2299   23.3599 H   0  0  0  0  0  0
  -21.6629  -26.7372   22.1222 H   0  0  0  0  0  0
  -19.6898  -25.6267   21.1215 H   0  0  0  0  0  0
  -19.6659  -27.3158   20.6706 H   0  0  0  0  0  0
  -17.4179  -26.6623   21.4010 H   0  0  0  0  0  0
  -18.0324  -26.0040   22.9008 H   0  0  0  0  0  0
  -19.7967  -30.7219   24.2232 H   0  0  0  0  0  0
  -17.5051  -31.6244   24.5137 H   0  0  0  0  0  0
  -15.5360  -30.2942   23.7683 H   0  0  0  0  0  0
  -15.8673  -28.0782   22.7074 H   0  0  0  0  0  0
  -24.5886  -30.7096   25.7849 H   0  0  0  0  0  0
  -24.8871  -32.2928   26.4907 H   0  0  0  0  0  0
  -25.8025  -30.8981   27.0299 H   0  0  0  0  0  0
  -26.2921  -29.6778   24.1263 H   0  0  0  0  0  0
  -27.3938  -29.7285   25.4826 H   0  0  0  0  0  0
  -27.8830  -30.4277   23.9572 H   0  0  0  0  0  0
  -27.2630  -33.3702   26.2048 H   0  0  0  0  0  0
  -28.3853  -32.6898   25.0372 H   0  0  0  0  0  0
  -28.0662  -31.8549   26.5509 H   0  0  0  0  0  0
  -28.2592  -38.0101   24.7506 H   0  0  0  0  0  0
  -28.1072  -36.2630   24.6289 H   0  0  0  0  0  0
  -27.2276  -37.1459   25.8861 H   0  0  0  0  0  0
  -20.9417  -29.8863   21.6945 H   0  0  0  0  0  0
  -26.0168  -38.2854   24.1419 H   0  0  0  0  0  0
  -29.4513  -18.0954   24.0706 H   0  0  0  0  0  0
  -29.6825  -16.1143   22.7103 H   0  0  0  0  0  0
  -29.8064  -18.6327   19.1837 H   0  0  0  0  0  0
  -31.0468  -19.4157   25.2247 H   0  0  0  0  0  0
  -31.4611  -20.9870   25.8986 H   0  0  0  0  0  0
  -29.1598  -21.5508   26.2181 H   0  0  0  0  0  0
  -29.0179  -19.8039   26.3988 H   0  0  0  0  0  0
  -26.1302  -23.6451   21.6120 H   0  0  0  0  0  0
  -26.5489  -22.7007   23.0194 H   0  0  0  0  0  0
  -28.8663  -23.4119   22.9104 H   0  0  0  0  0  0
  -28.0255  -24.8907   22.4682 H   0  0  0  0  0  0
  -31.5587  -20.6830   23.2324 H   0  0  0  0  0  0
  -30.7738  -22.1259   23.8613 H   0  0  0  0  0  0
  -27.8151  -21.4412   24.3901 H   0  0  0  0  0  0
  -27.8388  -19.6964   24.3667 H   0  0  0  0  0  0
  -26.4833  -21.7101   20.3848 H   0  0  0  0  0  0
  -27.3633  -20.9488   21.6637 H   0  0  0  0  0  0
  -29.9065  -23.8969   20.8250 H   0  0  0  0  0  0
  -30.5656  -16.3396   18.0935 H   0  0  0  0  0  0
  -28.8824  -16.8030   18.3903 H   0  0  0  0  0  0
  -29.2708  -15.1491   18.1467 H   0  0  0  0  0  0
  -30.0340  -21.1184   19.4172 H   0  0  0  0  0  0
  -30.5057  -21.6649   20.9714 H   0  0  0  0  0  0
  -27.1549  -24.6168   19.7479 H   0  0  0  0  0  0
  -28.6066  -24.7890   18.8357 H   0  0  0  0  0  0
  -28.2767  -22.2653   19.4153 H   0  0  0  0  0  0
  1 25  1  0  0  0
  1 30  2  0  0  0
  1 89  1  0  0  0
  2  3  1  0  0  0
  2 25  1  0  0  0
  2 91  1  0  0  0
  2 92  1  0  0  0
  3  4  1  0  0  0
  3 93  1  0  0  0
  3 94  1  0  0  0
  4  5  1  0  0  0
  4 95  1  0  0  0
  4 96  1  0  0  0
  5  6  1  0  0  0
  5 26  1  0  0  0
  5 97  1  0  0  0
  6 25  1  0  0  0
  6 98  1  0  0  0
  6 99  1  0  0  0
  7  8  2  0  0  0
  7 26  1  0  0  0
  7 29  1  0  0  0
  8  9  1  0  0  0
  8 22  1  0  0  0
  9 10  1  0  0  0
  9 27  2  0  0  0
 10 11  2  0  0  0
 10 15  1  0  0  0
 11 12  1  0  0  0
 11100  1  0  0  0
 12 13  2  0  0  0
 12101  1  0  0  0
 13 14  1  0  0  0
 13 31  1  0  0  0
 14 15  2  0  0  0
 14102  1  0  0  0
 15103  1  0  0  0
 16 17  2  0  0  0
 16 21  1  0  0  0
 16 31  1  0  0  0
 17 18  1  0  0  0
 17104  1  0  0  0
 18 19  2  0  0  0
 18105  1  0  0  0
 19 20  1  0  0  0
 19 24  1  0  0  0
 20 21  2  0  0  0
 20106  1  0  0  0
 21 23  1  0  0  0
 22 28  1  0  0  0
 22 32  2  0  0  0
 26 27  1  0  0  0
 28107  1  0  0  0
 28108  1  0  0  0
 29109  1  0  0  0
 29110  1  0  0  0
 33 34  1  0  0  0
 33 66  1  0  0  0
 33 70  2  0  0  0
 34 36  1  0  0  0
 34 59  1  0  0  0
 34111  1  0  0  0
 35 44  2  0  0  0
 35 45  1  0  0  0
 35 68  1  0  0  0
 36 56  1  0  0  0
 36112  1  0  0  0
 37 39  1  0  0  0
 37 47  1  0  0  0
 37 66  1  0  0  0
 37113  1  0  0  0
 38 43  2  0  0  0
 38 46  1  0  0  0
 38 47  1  0  0  0
 39 64  1  0  0  0
 39 67  2  0  0  0
 40 52  1  0  0  0
 40 53  2  0  0  0
 40 58  1  0  0  0
 41114  1  0  0  0
 41115  1  0  0  0
 41116  1  0  0  0
 41 48  1  0  0  0
 42 43  1  0  0  0
 42 66  1  0  0  0
 42117  1  0  0  0
 42118  1  0  0  0
 43 44  1  0  0  0
 44119  1  0  0  0
 45 46  2  0  0  0
 45120  1  0  0  0
 46121  1  0  0  0
 47122  1  0  0  0
 47123  1  0  0  0
 48 56  1  0  0  0
 48 65  1  0  0  0
 48124  1  0  0  0
 49 50  1  0  0  0
 49 53  1  0  0  0
 49 64  1  0  0  0
 49125  1  0  0  0
 50 51  1  0  0  0
 50126  1  0  0  0
 50127  1  0  0  0
 51 52  1  0  0  0
 51128  1  0  0  0
 51129  1  0  0  0
 52130  1  0  0  0
 52131  1  0  0  0
 53 54  1  0  0  0
 54 55  2  0  0  0
 54132  1  0  0  0
 55 57  1  0  0  0
 55133  1  0  0  0
 56 69  2  0  0  0
 57 58  2  0  0  0
 57134  1  0  0  0
 58135  1  0  0  0
 59 60  1  0  0  0
 59 61  1  0  0  0
 59 62  1  0  0  0
 60136  1  0  0  0
 60137  1  0  0  0
 60138  1  0  0  0
 61139  1  0  0  0
 61140  1  0  0  0
 61141  1  0  0  0
 62142  1  0  0  0
 62143  1  0  0  0
 62144  1  0  0  0
 63 65  1  0  0  0
 63145  1  0  0  0
 63146  1  0  0  0
 63147  1  0  0  0
 64148  1  0  0  0
 65149  1  0  0  0
 68 87  1  0  0  0
 71 72  2  0  0  0
 71 75  1  0  0  0
 71150  1  0  0  0
 72 76  1  0  0  0
 72151  1  0  0  0
 73 74  1  0  0  0
 73 76  2  0  0  0
 73152  1  0  0  0
 74 75  2  0  0  0
 74 86  1  0  0  0
 75 88  1  0  0  0
 76 89  1  0  0  0
 77 78  1  0  0  0
 77 81  1  0  0  0
 77153  1  0  0  0
 77154  1  0  0  0
 78 82  1  0  0  0
 78155  1  0  0  0
 78156  1  0  0  0
 79 80  1  0  0  0
 79 83  1  0  0  0
 79157  1  0  0  0
 79158  1  0  0  0
 80 84  1  0  0  0
 80159  1  0  0  0
 80160  1  0  0  0
 81 88  1  0  0  0
 81161  1  0  0  0
 81162  1  0  0  0
 82 88  1  0  0  0
 82163  1  0  0  0
 82164  1  0  0  0
 83 90  1  0  0  0
 83165  1  0  0  0
 83166  1  0  0  0
 84 87  1  0  0  0
 84 90  1  0  0  0
 84167  1  0  0  0
 85 89  1  0  0  0
 85168  1  0  0  0
 85169  1  0  0  0
 85170  1  0  0  0
 86171  1  0  0  0
 86172  1  0  0  0
 86 90  1  0  0  0
 87173  1  0  0  0
 87174  1  0  0  0
 90175  1  0  0  0
M  CHG  1  90   1
M  ISO  4   1 100  68 101  87 101  89 100
M  END
> <chiral flag>
0

> <version>
0

> <s_m_source_file>
/data/baiqing/PycharmProjects/Reinvent-master-3.2/result/LINK_invent/BTK/process_docking_weight1_custom_product_contain_oxygen_bond_distance_aromatic_linkinvent_7_9_3/rearranged_h_0021.sdf

> <i_m_source_file_index>
80

> <r_mmod_Potential_Energy-OPLS-2005>
468.102416992188

> <r_mmod_Stretch_Energy-OPLS-2005>
135.436477661133

> <r_mmod_Bend_Energy-OPLS-2005>
231.486968994141

> <r_mmod_Torsional_Energy-OPLS-2005>
448.133636474609

> <r_mmod_Improper_Torsional_Energy-OPLS-2005>
24.3263359069824

> <r_mmod_Van_der_Waal_Energy-OPLS-2005>
144.026077270508

> <r_mmod_Electrostatic_Energy-OPLS-2005>
-211.425445556641

> <r_mmod_Solvation_Energy-OPLS-2005>
-404.474090576172

> <b_mmod_Minimization_Converged-OPLS-2005>
0

> <r_mmod_RMS_Derivative-OPLS-2005>
2.35235714912415

$$$$
80
                    3D
 Structure written by MMmdl.
158166  0  0  1  0            999 V2000
  -30.7422  -14.4702   20.6257 C   0  0  0  0  0  0
  -30.4181  -12.3323   19.4193 C   0  0  0  0  0  0
  -29.4859  -12.5089   18.2047 C   0  0  0  0  0  0
  -28.0148  -12.3314   18.6232 C   0  0  0  0  0  0
  -27.6526  -13.1877   19.8611 C   0  0  2  0  0  0
  -28.6971  -13.0086   20.9886 C   0  0  0  0  0  0
  -25.2587  -13.8110   20.5671 C   0  0  0  0  0  0
  -24.1835  -13.0417   20.9188 C   0  0  0  0  0  0
  -24.6362  -11.6875   20.8750 C   0  0  0  0  0  0
  -23.9023  -10.4280   21.0409 C   0  0  0  0  0  0
  -24.3583   -9.4209   21.9193 C   0  0  0  0  0  0
  -23.6273   -8.2239   22.0758 C   0  0  0  0  0  0
  -22.4261   -8.0271   21.3538 C   0  0  0  0  0  0
  -21.9889   -9.0236   20.4636 C   0  0  0  0  0  0
  -22.7205  -10.2115   20.3047 C   0  0  0  0  0  0
  -21.6850   -6.0731   22.5283 C   0  0  0  0  0  0
  -21.4003   -6.5639   23.8218 C   0  0  0  0  0  0
  -21.3647   -5.6786   24.9173 C   0  0  0  0  0  0
  -21.6039   -4.3054   24.7221 C   0  0  0  0  0  0
  -21.8818   -3.8146   23.4346 C   0  0  0  0  0  0
  -21.9195   -4.6960   22.3399 C   0  0  0  0  0  0
  -22.7868  -13.5242   21.1847 C   0  0  0  0  0  0
  -22.1667   -4.2153   21.0976 F   0  0  0  0  0  0
  -21.5627   -3.4528   25.7726 F   0  0  0  0  0  0
  -30.0283  -13.3196   20.4422 N   0  0  0  0  0  0
  -26.2973  -12.9224   20.3304 N   0  0  0  0  0  0
  -25.9274  -11.6416   20.5760 N   0  0  0  0  0  0
  -22.0477  -12.8233   22.0367 N   0  0  0  0  0  0
  -25.4314  -15.1826   20.4055 N   0  0  0  0  0  0
  -31.8364  -14.6498   20.0787 O   0  0  0  0  0  0
  -21.6629   -6.8862   21.4241 O   0  0  0  0  0  0
  -22.3581  -14.5575   20.6718 O   0  0  0  0  0  0
  -24.6154  -31.8669   23.2093 C   0  0  0  0  0  0
  -25.9050  -32.4807   23.8391 C   0  0  1  0  0  0
  -27.2301  -27.4352   20.1035 C   0  0  0  0  0  0
  -25.5926  -33.8607   24.2325 N   0  0  0  0  0  0
  -23.4024  -30.4904   21.5495 C   0  0  2  0  0  0
  -24.8487  -28.9564   20.1131 C   0  0  0  0  0  0
  -22.7411  -29.4656   22.4994 C   0  0  0  0  0  0
  -18.0265  -28.1371   22.8489 C   0  0  0  0  0  0
  -24.1473  -36.7286   23.2642 C   0  0  0  0  0  0
  -25.9302  -30.8349   21.3594 C   0  0  0  0  0  0
  -26.0091  -29.4692   20.7084 C   0  0  0  0  0  0
  -27.2064  -28.7174   20.6976 C   0  0  0  0  0  0
  -26.0569  -26.9400   19.4943 C   0  0  0  0  0  0
  -24.8670  -27.6909   19.5016 C   0  0  0  0  0  0
  -23.6093  -29.8206   20.1642 C   0  0  0  0  0  0
  -25.4099  -36.3100   24.0348 C   0  0  1  0  0  0
  -20.5854  -28.3652   23.1317 C   0  0  2  0  0  0
  -20.6753  -26.9393   22.5412 C   0  0  0  0  0  0
  -19.5741  -26.6385   21.5199 C   0  0  0  0  0  0
  -18.1913  -26.7935   22.1596 C   0  0  0  0  0  0
  -19.1514  -28.8827   23.2902 C   0  0  0  0  0  0
  -18.9445  -30.1433   23.8906 C   0  0  0  0  0  0
  -17.6451  -30.6577   24.0561 C   0  0  0  0  0  0
  -25.9039  -34.9469   23.5126 C   0  0  0  0  0  0
  -16.5338  -29.9077   23.6340 C   0  0  0  0  0  0
  -16.7256  -28.6494   23.0356 C   0  0  0  0  0  0
  -26.4481  -31.6577   25.0713 C   0  0  0  0  0  0
  -25.3753  -31.3642   26.1457 C   0  0  0  0  0  0
  -27.0335  -30.3041   24.6059 C   0  0  0  0  0  0
  -27.6041  -32.4296   25.7516 C   0  0  0  0  0  0
  -27.5566  -37.1815   24.8457 C   0  0  0  0  0  0
  -21.4135  -29.3024   22.3729 N   0  0  0  0  0  0
  -26.4267  -37.3793   23.9420 N   0  0  0  0  0  0
  -24.6677  -31.0775   22.0984 N   0  0  0  0  0  0
  -23.4194  -28.8216   23.3044 O   0  0  0  0  0  0
  -28.3796  -26.6757   20.1087 O   0  0  0  0  0  0
  -26.5579  -34.8928   22.4674 O   0  0  0  0  0  0
  -23.5349  -32.1420   23.7495 O   0  0  0  0  0  0
  -30.0077  -18.1484   19.8876 C   0  0  0  0  0  0
  -28.9322  -20.0585   21.6525 C   0  0  0  0  0  0
  -29.3227  -17.7085   21.0404 C   0  0  0  0  0  0
  -29.5933  -20.5005   20.4821 C   0  0  0  0  0  0
  -30.1382  -19.5268   19.6113 C   0  0  0  0  0  0
  -28.7946  -18.6781   21.9256 C   0  0  0  0  0  0
  -31.2221  -15.9655   22.4829 C   0  0  0  0  0  0
  -29.0874  -16.2106   21.2792 C   0  0  0  0  0  0
  -29.0870  -24.2936   20.0948 C   0  0  0  0  0  0
  -28.9317  -22.9116   20.7787 C   0  0  0  0  0  0
  -28.2567  -25.4059   20.7743 C   0  0  0  0  0  0
  -29.7315  -21.8632   20.1379 N   0  0  0  0  0  0
  -30.2790  -15.3711   21.5309 N   0  0  0  0  0  0
  -30.7795  -19.9215   18.4838 F   0  0  0  0  0  0
  -28.1336  -18.2884   23.0421 F   0  0  0  0  0  0
  -31.4598  -12.4320   19.1101 H   0  0  0  0  0  0
  -30.3290  -11.3226   19.8236 H   0  0  0  0  0  0
  -29.7426  -11.7917   17.4244 H   0  0  0  0  0  0
  -29.6272  -13.4995   17.7704 H   0  0  0  0  0  0
  -27.8523  -11.2749   18.8420 H   0  0  0  0  0  0
  -27.3529  -12.5725   17.7916 H   0  0  0  0  0  0
  -27.6683  -14.2132   19.5073 H   0  0  0  0  0  0
  -28.6885  -11.9799   21.3507 H   0  0  0  0  0  0
  -28.4406  -13.6151   21.8570 H   0  0  0  0  0  0
  -25.2724   -9.5706   22.4772 H   0  0  0  0  0  0
  -23.9986   -7.4629   22.7477 H   0  0  0  0  0  0
  -21.0824   -8.8732   19.8931 H   0  0  0  0  0  0
  -22.3663  -10.9647   19.6144 H   0  0  0  0  0  0
  -21.1988   -7.6150   23.9720 H   0  0  0  0  0  0
  -21.1464   -6.0516   25.9076 H   0  0  0  0  0  0
  -22.0604   -2.7612   23.2832 H   0  0  0  0  0  0
  -22.4041  -11.9851   22.4718 H   0  0  0  0  0  0
  -21.1103  -13.1292   22.2549 H   0  0  0  0  0  0
  -24.6564  -15.8288   20.5061 H   0  0  0  0  0  0
  -26.2725  -15.6245   20.0589 H   0  0  0  0  0  0
  -26.7126  -32.5517   23.1155 H   0  0  0  0  0  0
  -25.0127  -33.9762   25.0508 H   0  0  0  0  0  0
  -22.6917  -31.3071   21.4099 H   0  0  0  0  0  0
  -23.3752  -35.9595   23.3277 H   0  0  0  0  0  0
  -24.3586  -36.8917   22.2063 H   0  0  0  0  0  0
  -23.7187  -37.6473   23.6658 H   0  0  0  0  0  0
  -26.0370  -31.5996   20.5883 H   0  0  0  0  0  0
  -26.8197  -30.8906   21.9749 H   0  0  0  0  0  0
  -28.1025  -29.1068   21.1608 H   0  0  0  0  0  0
  -26.0604  -25.9707   19.0150 H   0  0  0  0  0  0
  -23.9769  -27.2904   19.0368 H   0  0  0  0  0  0
  -23.7129  -30.5927   19.4002 H   0  0  0  0  0  0
  -22.7347  -29.2358   19.8735 H   0  0  0  0  0  0
  -25.1286  -36.1949   25.0841 H   0  0  0  0  0  0
  -20.9952  -28.3194   24.1434 H   0  0  0  0  0  0
  -20.5616  -26.2268   23.3599 H   0  0  0  0  0  0
  -21.6619  -26.7429   22.1206 H   0  0  0  0  0  0
  -19.6888  -25.6299   21.1219 H   0  0  0  0  0  0
  -19.6704  -27.3199   20.6741 H   0  0  0  0  0  0
  -17.4211  -26.6714   21.3967 H   0  0  0  0  0  0
  -18.0290  -26.0051   22.8954 H   0  0  0  0  0  0
  -19.7925  -30.7237   24.2274 H   0  0  0  0  0  0
  -17.5013  -31.6268   24.5142 H   0  0  0  0  0  0
  -15.5338  -30.2976   23.7668 H   0  0  0  0  0  0
  -15.8655  -28.0819   22.7067 H   0  0  0  0  0  0
  -24.5969  -30.6943   25.7785 H   0  0  0  0  0  0
  -24.8891  -32.2770   26.4907 H   0  0  0  0  0  0
  -25.8124  -30.8828   27.0213 H   0  0  0  0  0  0
  -26.2881  -29.6796   24.1115 H   0  0  0  0  0  0
  -27.4149  -29.7273   25.4490 H   0  0  0  0  0  0
  -27.8684  -30.4399   23.9180 H   0  0  0  0  0  0
  -27.2661  -33.3625   26.2038 H   0  0  0  0  0  0
  -28.3908  -32.6794   25.0386 H   0  0  0  0  0  0
  -28.0623  -31.8434   26.5486 H   0  0  0  0  0  0
  -28.2556  -38.0140   24.7544 H   0  0  0  0  0  0
  -28.1095  -36.2678   24.6231 H   0  0  0  0  0  0
  -27.2306  -37.1377   25.8863 H   0  0  0  0  0  0
  -20.9286  -29.8776   21.6981 H   0  0  0  0  0  0
  -26.0150  -38.2862   24.1442 H   0  0  0  0  0  0
  -30.4117  -17.4303   19.1893 H   0  0  0  0  0  0
  -28.5111  -20.7632   22.3534 H   0  0  0  0  0  0
  -30.6957  -16.4992   23.2755 H   0  0  0  0  0  0
  -31.8903  -16.6690   21.9834 H   0  0  0  0  0  0
  -31.8326  -15.1963   22.9588 H   0  0  0  0  0  0
  -28.5658  -15.8699   20.3905 H   0  0  0  0  0  0
  -28.3884  -16.0693   22.1042 H   0  0  0  0  0  0
  -28.7849  -24.2186   19.0496 H   0  0  0  0  0  0
  -30.1368  -24.5884   20.0936 H   0  0  0  0  0  0
  -27.8792  -22.6206   20.7679 H   0  0  0  0  0  0
  -29.2267  -22.9924   21.8265 H   0  0  0  0  0  0
  -28.5991  -25.5381   21.8011 H   0  0  0  0  0  0
  -27.2204  -25.0718   20.8536 H   0  0  0  0  0  0
  -30.1393  -22.0523   19.2247 H   0  0  0  0  0  0
  1 25  1  0  0  0
  1 30  2  0  0  0
  1 83  1  0  0  0
  2  3  1  0  0  0
  2 25  1  0  0  0
  2 86  1  0  0  0
  2 87  1  0  0  0
  3  4  1  0  0  0
  3 88  1  0  0  0
  3 89  1  0  0  0
  4  5  1  0  0  0
  4 90  1  0  0  0
  4 91  1  0  0  0
  5  6  1  0  0  0
  5 26  1  0  0  0
  5 92  1  0  0  0
  6 25  1  0  0  0
  6 93  1  0  0  0
  6 94  1  0  0  0
  7  8  2  0  0  0
  7 26  1  0  0  0
  7 29  1  0  0  0
  8  9  1  0  0  0
  8 22  1  0  0  0
  9 10  1  0  0  0
  9 27  2  0  0  0
 10 11  2  0  0  0
 10 15  1  0  0  0
 11 12  1  0  0  0
 11 95  1  0  0  0
 12 13  2  0  0  0
 12 96  1  0  0  0
 13 14  1  0  0  0
 13 31  1  0  0  0
 14 15  2  0  0  0
 14 97  1  0  0  0
 15 98  1  0  0  0
 16 17  2  0  0  0
 16 21  1  0  0  0
 16 31  1  0  0  0
 17 18  1  0  0  0
 17 99  1  0  0  0
 18 19  2  0  0  0
 18100  1  0  0  0
 19 20  1  0  0  0
 19 24  1  0  0  0
 20 21  2  0  0  0
 20101  1  0  0  0
 21 23  1  0  0  0
 22 28  1  0  0  0
 22 32  2  0  0  0
 26 27  1  0  0  0
 28102  1  0  0  0
 28103  1  0  0  0
 29104  1  0  0  0
 29105  1  0  0  0
 33 34  1  0  0  0
 33 66  1  0  0  0
 33 70  2  0  0  0
 34 36  1  0  0  0
 34 59  1  0  0  0
 34106  1  0  0  0
 35 44  2  0  0  0
 35 45  1  0  0  0
 35 68  1  0  0  0
 36 56  1  0  0  0
 36107  1  0  0  0
 37 39  1  0  0  0
 37 47  1  0  0  0
 37 66  1  0  0  0
 37108  1  0  0  0
 38 43  2  0  0  0
 38 46  1  0  0  0
 38 47  1  0  0  0
 39 64  1  0  0  0
 39 67  2  0  0  0
 40 52  1  0  0  0
 40 53  2  0  0  0
 40 58  1  0  0  0
 41109  1  0  0  0
 41110  1  0  0  0
 41111  1  0  0  0
 41 48  1  0  0  0
 42 43  1  0  0  0
 42 66  1  0  0  0
 42112  1  0  0  0
 42113  1  0  0  0
 43 44  1  0  0  0
 44114  1  0  0  0
 45 46  2  0  0  0
 45115  1  0  0  0
 46116  1  0  0  0
 47117  1  0  0  0
 47118  1  0  0  0
 48 56  1  0  0  0
 48 65  1  0  0  0
 48119  1  0  0  0
 49 50  1  0  0  0
 49 53  1  0  0  0
 49 64  1  0  0  0
 49120  1  0  0  0
 50 51  1  0  0  0
 50121  1  0  0  0
 50122  1  0  0  0
 51 52  1  0  0  0
 51123  1  0  0  0
 51124  1  0  0  0
 52125  1  0  0  0
 52126  1  0  0  0
 53 54  1  0  0  0
 54 55  2  0  0  0
 54127  1  0  0  0
 55 57  1  0  0  0
 55128  1  0  0  0
 56 69  2  0  0  0
 57 58  2  0  0  0
 57129  1  0  0  0
 58130  1  0  0  0
 59 60  1  0  0  0
 59 61  1  0  0  0
 59 62  1  0  0  0
 60131  1  0  0  0
 60132  1  0  0  0
 60133  1  0  0  0
 61134  1  0  0  0
 61135  1  0  0  0
 61136  1  0  0  0
 62137  1  0  0  0
 62138  1  0  0  0
 62139  1  0  0  0
 63 65  1  0  0  0
 63140  1  0  0  0
 63141  1  0  0  0
 63142  1  0  0  0
 64143  1  0  0  0
 65144  1  0  0  0
 68 81  1  0  0  0
 71 73  2  0  0  0
 71 75  1  0  0  0
 71145  1  0  0  0
 72 74  1  0  0  0
 72 76  2  0  0  0
 72146  1  0  0  0
 73 76  1  0  0  0
 73 78  1  0  0  0
 74 75  2  0  0  0
 74 82  1  0  0  0
 75 84  1  0  0  0
 76 85  1  0  0  0
 77 83  1  0  0  0
 77147  1  0  0  0
 77148  1  0  0  0
 77149  1  0  0  0
 78 83  1  0  0  0
 78150  1  0  0  0
 78151  1  0  0  0
 79 80  1  0  0  0
 79 81  1  0  0  0
 79152  1  0  0  0
 79153  1  0  0  0
 80 82  1  0  0  0
 80154  1  0  0  0
 80155  1  0  0  0
 81156  1  0  0  0
 81157  1  0  0  0
 82158  1  0  0  0
M  ISO  4   1 100  68 101  81 101  83 100
M  END
> <chiral flag>
0

> <version>
0

> <s_m_source_file>
/data/baiqing/PycharmProjects/Reinvent-master-3.2/result/LINK_invent/BTK/process_docking_weight1_custom_product_contain_oxygen_bond_distance_aromatic_linkinvent_7_9_3/rearranged_h_0021.sdf

> <i_m_source_file_index>
81

> <r_mmod_Potential_Energy-OPLS-2005>
113.290969848633

> <r_mmod_Stretch_Energy-OPLS-2005>
39.1464424133301

> <r_mmod_Bend_Energy-OPLS-2005>
104.356918334961

> <r_mmod_Torsional_Energy-OPLS-2005>
270.64404296875

> <r_mmod_Improper_Torsional_Energy-OPLS-2005>
5.68961668014526

> <r_mmod_Van_der_Waal_Energy-OPLS-2005>
151.931884765625

> <r_mmod_Electrostatic_Energy-OPLS-2005>
-275.015594482422

> <r_mmod_Solvation_Energy-OPLS-2005>
-196.495681762695

> <b_mmod_Minimization_Converged-OPLS-2005>
0

> <r_mmod_RMS_Derivative-OPLS-2005>
1.75242125988007

$$$$
81
                    3D
 Structure written by MMmdl.
158166  0  0  1  0            999 V2000
  -30.6476  -14.6430   20.4812 C   0  0  0  0  0  0
  -30.4182  -12.3848   19.4833 C   0  0  0  0  0  0
  -29.5092  -12.4743   18.2429 C   0  0  0  0  0  0
  -28.0287  -12.3271   18.6464 C   0  0  0  0  0  0
  -27.6428  -13.2211   19.8559 C   0  0  2  0  0  0
  -28.6794  -13.1227   20.9965 C   0  0  0  0  0  0
  -25.2539  -13.8157   20.5780 C   0  0  0  0  0  0
  -24.1782  -13.0434   20.9210 C   0  0  0  0  0  0
  -24.6343  -11.6905   20.8708 C   0  0  0  0  0  0
  -23.9021  -10.4294   21.0373 C   0  0  0  0  0  0
  -24.3572   -9.4219   21.9177 C   0  0  0  0  0  0
  -23.6267   -8.2242   22.0739 C   0  0  0  0  0  0
  -22.4253   -8.0265   21.3525 C   0  0  0  0  0  0
  -21.9868   -9.0237   20.4639 C   0  0  0  0  0  0
  -22.7178  -10.2139   20.3041 C   0  0  0  0  0  0
  -21.6842   -6.0716   22.5264 C   0  0  0  0  0  0
  -21.4036   -6.5629   23.8203 C   0  0  0  0  0  0
  -21.3665   -5.6785   24.9175 C   0  0  0  0  0  0
  -21.6016   -4.3035   24.7228 C   0  0  0  0  0  0
  -21.8823   -3.8129   23.4350 C   0  0  0  0  0  0
  -21.9215   -4.6947   22.3401 C   0  0  0  0  0  0
  -22.7818  -13.5236   21.1887 C   0  0  0  0  0  0
  -22.1658   -4.2138   21.0973 F   0  0  0  0  0  0
  -21.5644   -3.4513   25.7741 F   0  0  0  0  0  0
  -29.9874  -13.4433   20.4208 N   0  0  0  0  0  0
  -26.2919  -12.9357   20.3282 N   0  0  0  0  0  0
  -25.9271  -11.6506   20.5702 N   0  0  0  0  0  0
  -22.0431  -12.8236   22.0414 N   0  0  0  0  0  0
  -25.4336  -15.1920   20.4445 N   0  0  0  0  0  0
  -31.8358  -14.7058   20.1495 O   0  0  0  0  0  0
  -21.6625   -6.8859   21.4224 O   0  0  0  0  0  0
  -22.3511  -14.5544   20.6753 O   0  0  0  0  0  0
  -24.6293  -31.8571   23.1958 C   0  0  0  0  0  0
  -25.9140  -32.4754   23.8294 C   0  0  1  0  0  0
  -27.2344  -27.3113   20.1206 C   0  0  0  0  0  0
  -25.5933  -33.8549   24.2242 N   0  0  0  0  0  0
  -23.4251  -30.4762   21.5389 C   0  0  2  0  0  0
  -24.8697  -28.9205   20.1069 C   0  0  0  0  0  0
  -22.7479  -29.4603   22.4909 C   0  0  0  0  0  0
  -18.0273  -28.1420   22.8472 C   0  0  0  0  0  0
  -24.1482  -36.7287   23.2642 C   0  0  0  0  0  0
  -25.9645  -30.7779   21.3713 C   0  0  0  0  0  0
  -26.0344  -29.4038   20.7169 C   0  0  0  0  0  0
  -27.2143  -28.6088   20.7175 C   0  0  0  0  0  0
  -26.0478  -26.8713   19.4939 C   0  0  0  0  0  0
  -24.8787  -27.6585   19.4882 C   0  0  0  0  0  0
  -23.6407  -29.8059   20.1534 C   0  0  0  0  0  0
  -25.4098  -36.3069   24.0339 C   0  0  1  0  0  0
  -20.5869  -28.3719   23.1270 C   0  0  2  0  0  0
  -20.6766  -26.9433   22.5413 C   0  0  0  0  0  0
  -19.5739  -26.6390   21.5220 C   0  0  0  0  0  0
  -18.1913  -26.7950   22.1637 C   0  0  0  0  0  0
  -19.1524  -28.8883   23.2870 C   0  0  0  0  0  0
  -18.9468  -30.1487   23.8880 C   0  0  0  0  0  0
  -17.6467  -30.6614   24.0566 C   0  0  0  0  0  0
  -25.9061  -34.9441   23.5097 C   0  0  0  0  0  0
  -16.5356  -29.9118   23.6331 C   0  0  0  0  0  0
  -16.7260  -28.6545   23.0334 C   0  0  0  0  0  0
  -26.4496  -31.6567   25.0696 C   0  0  0  0  0  0
  -25.3741  -31.3719   26.1458 C   0  0  0  0  0  0
  -27.0347  -30.2970   24.6206 C   0  0  0  0  0  0
  -27.6040  -32.4316   25.7477 C   0  0  0  0  0  0
  -27.5572  -37.1786   24.8441 C   0  0  0  0  0  0
  -21.4184  -29.3052   22.3652 N   0  0  0  0  0  0
  -26.4260  -37.3783   23.9418 N   0  0  0  0  0  0
  -24.6920  -31.0558   22.0922 N   0  0  0  0  0  0
  -23.4176  -28.8169   23.3022 O   0  0  0  0  0  0
  -28.3699  -26.4935   20.2069 O   0  0  0  0  0  0
  -26.5644  -34.8934   22.4669 O   0  0  0  0  0  0
  -23.5458  -32.1374   23.7280 O   0  0  0  0  0  0
  -28.6217  -19.0553   20.5621 C   0  0  0  0  0  0
  -28.3010  -20.4622   20.6037 C   0  0  0  0  0  0
  -30.9394  -19.6296   20.4281 C   0  0  0  0  0  0
  -29.9677  -18.5995   20.4620 C   0  0  0  0  0  0
  -29.2935  -21.4928   20.5369 C   0  0  0  0  0  0
  -30.6300  -21.0134   20.4760 C   0  0  0  0  0  0
  -27.5410  -23.0433   18.6646 C   0  0  0  0  0  0
  -29.5647  -23.4544   21.8965 C   0  0  0  0  0  0
  -30.5228  -17.1340   20.2497 C   0  0  0  0  0  0
  -28.5336  -25.2447   19.4371 C   0  0  0  0  0  0
  -28.0463  -23.7801   19.9175 C   0  0  2  0  0  0
  -29.9332  -15.8089   20.6646 N   0  0  0  0  0  0
  -29.0609  -22.9243   20.6323 N   0  0  0  0  0  0
  -31.6611  -21.8935   20.4562 F   0  0  0  0  0  0
  -31.4643  -12.4872   19.1888 H   0  0  0  0  0  0
  -30.3398  -11.4042   19.9545 H   0  0  0  0  0  0
  -29.7803  -11.6952   17.5297 H   0  0  0  0  0  0
  -29.6640  -13.4252   17.7310 H   0  0  0  0  0  0
  -27.8678  -11.2790   18.9036 H   0  0  0  0  0  0
  -27.3817  -12.5346   17.7920 H   0  0  0  0  0  0
  -27.6505  -14.2489   19.4908 H   0  0  0  0  0  0
  -28.6890  -12.1189   21.4265 H   0  0  0  0  0  0
  -28.4265  -13.8040   21.8089 H   0  0  0  0  0  0
  -25.2725   -9.5718   22.4751 H   0  0  0  0  0  0
  -23.9982   -7.4642   22.7473 H   0  0  0  0  0  0
  -21.0778   -8.8740   19.8971 H   0  0  0  0  0  0
  -22.3588  -10.9670   19.6142 H   0  0  0  0  0  0
  -21.2003   -7.6142   23.9697 H   0  0  0  0  0  0
  -21.1485   -6.0522   25.9074 H   0  0  0  0  0  0
  -22.0602   -2.7590   23.2848 H   0  0  0  0  0  0
  -22.3995  -11.9895   22.4853 H   0  0  0  0  0  0
  -21.1048  -13.1326   22.2578 H   0  0  0  0  0  0
  -24.6979  -15.8547   20.6625 H   0  0  0  0  0  0
  -26.3136  -15.6359   20.2125 H   0  0  0  0  0  0
  -26.7228  -32.5382   23.1046 H   0  0  0  0  0  0
  -25.0064  -33.9650   25.0383 H   0  0  0  0  0  0
  -22.7237  -31.2981   21.3878 H   0  0  0  0  0  0
  -23.3746  -35.9627   23.3330 H   0  0  0  0  0  0
  -24.3554  -36.8878   22.2048 H   0  0  0  0  0  0
  -23.7230  -37.6498   23.6638 H   0  0  0  0  0  0
  -26.1116  -31.5369   20.6014 H   0  0  0  0  0  0
  -26.8423  -30.8178   22.0025 H   0  0  0  0  0  0
  -28.1085  -28.9786   21.2024 H   0  0  0  0  0  0
  -25.9951  -25.9001   19.0281 H   0  0  0  0  0  0
  -23.9891  -27.2714   19.0107 H   0  0  0  0  0  0
  -23.7678  -30.5832   19.3979 H   0  0  0  0  0  0
  -22.7616  -29.2357   19.8483 H   0  0  0  0  0  0
  -25.1265  -36.1910   25.0829 H   0  0  0  0  0  0
  -20.9957  -28.3318   24.1394 H   0  0  0  0  0  0
  -20.5641  -26.2334   23.3628 H   0  0  0  0  0  0
  -21.6641  -26.7427   22.1222 H   0  0  0  0  0  0
  -19.6891  -25.6284   21.1276 H   0  0  0  0  0  0
  -19.6699  -27.3192   20.6741 H   0  0  0  0  0  0
  -17.4171  -26.6669   21.4056 H   0  0  0  0  0  0
  -18.0341  -26.0109   22.9057 H   0  0  0  0  0  0
  -19.7948  -30.7306   24.2233 H   0  0  0  0  0  0
  -17.5032  -31.6287   24.5198 H   0  0  0  0  0  0
  -15.5364  -30.3034   23.7665 H   0  0  0  0  0  0
  -15.8658  -28.0890   22.7025 H   0  0  0  0  0  0
  -24.5862  -30.7150   25.7768 H   0  0  0  0  0  0
  -24.9041  -32.2914   26.4954 H   0  0  0  0  0  0
  -25.8091  -30.8803   27.0172 H   0  0  0  0  0  0
  -26.2961  -29.6750   24.1163 H   0  0  0  0  0  0
  -27.3933  -29.7200   25.4737 H   0  0  0  0  0  0
  -27.8871  -30.4224   23.9534 H   0  0  0  0  0  0
  -27.2602  -33.3519   26.2203 H   0  0  0  0  0  0
  -28.3781  -32.7039   25.0295 H   0  0  0  0  0  0
  -28.0845  -31.8391   26.5281 H   0  0  0  0  0  0
  -28.2545  -38.0127   24.7556 H   0  0  0  0  0  0
  -28.1118  -36.2660   24.6180 H   0  0  0  0  0  0
  -27.2324  -37.1346   25.8855 H   0  0  0  0  0  0
  -20.9378  -29.8763   21.6843 H   0  0  0  0  0  0
  -26.0151  -38.2849   24.1469 H   0  0  0  0  0  0
  -27.8205  -18.3307   20.6008 H   0  0  0  0  0  0
  -27.2634  -20.7444   20.7064 H   0  0  0  0  0  0
  -31.9801  -19.3534   20.3433 H   0  0  0  0  0  0
  -26.8557  -23.6604   18.0805 H   0  0  0  0  0  0
  -26.9959  -22.1348   18.9100 H   0  0  0  0  0  0
  -28.3682  -22.7674   18.0093 H   0  0  0  0  0  0
  -30.6258  -23.6973   21.8410 H   0  0  0  0  0  0
  -29.4320  -22.7306   22.7033 H   0  0  0  0  0  0
  -29.0352  -24.3646   22.1834 H   0  0  0  0  0  0
  -31.5194  -17.1494   20.6951 H   0  0  0  0  0  0
  -30.6968  -17.0489   19.1772 H   0  0  0  0  0  0
  -29.5965  -25.1660   19.2026 H   0  0  0  0  0  0
  -28.1033  -25.4629   18.4575 H   0  0  0  0  0  0
  -27.1966  -23.9175   20.5893 H   0  0  0  0  0  0
  -28.9538  -15.7581   20.9049 H   0  0  0  0  0  0
  1 25  1  0  0  0
  1 30  2  0  0  0
  1 82  1  0  0  0
  2  3  1  0  0  0
  2 25  1  0  0  0
  2 85  1  0  0  0
  2 86  1  0  0  0
  3  4  1  0  0  0
  3 87  1  0  0  0
  3 88  1  0  0  0
  4  5  1  0  0  0
  4 89  1  0  0  0
  4 90  1  0  0  0
  5  6  1  0  0  0
  5 26  1  0  0  0
  5 91  1  0  0  0
  6 25  1  0  0  0
  6 92  1  0  0  0
  6 93  1  0  0  0
  7  8  2  0  0  0
  7 26  1  0  0  0
  7 29  1  0  0  0
  8  9  1  0  0  0
  8 22  1  0  0  0
  9 10  1  0  0  0
  9 27  2  0  0  0
 10 11  2  0  0  0
 10 15  1  0  0  0
 11 12  1  0  0  0
 11 94  1  0  0  0
 12 13  2  0  0  0
 12 95  1  0  0  0
 13 14  1  0  0  0
 13 31  1  0  0  0
 14 15  2  0  0  0
 14 96  1  0  0  0
 15 97  1  0  0  0
 16 17  2  0  0  0
 16 21  1  0  0  0
 16 31  1  0  0  0
 17 18  1  0  0  0
 17 98  1  0  0  0
 18 19  2  0  0  0
 18 99  1  0  0  0
 19 20  1  0  0  0
 19 24  1  0  0  0
 20 21  2  0  0  0
 20100  1  0  0  0
 21 23  1  0  0  0
 22 28  1  0  0  0
 22 32  2  0  0  0
 26 27  1  0  0  0
 28101  1  0  0  0
 28102  1  0  0  0
 29103  1  0  0  0
 29104  1  0  0  0
 33 34  1  0  0  0
 33 66  1  0  0  0
 33 70  2  0  0  0
 34 36  1  0  0  0
 34 59  1  0  0  0
 34105  1  0  0  0
 35 44  2  0  0  0
 35 45  1  0  0  0
 35 68  1  0  0  0
 36 56  1  0  0  0
 36106  1  0  0  0
 37 39  1  0  0  0
 37 47  1  0  0  0
 37 66  1  0  0  0
 37107  1  0  0  0
 38 43  2  0  0  0
 38 46  1  0  0  0
 38 47  1  0  0  0
 39 64  1  0  0  0
 39 67  2  0  0  0
 40 52  1  0  0  0
 40 53  2  0  0  0
 40 58  1  0  0  0
 41108  1  0  0  0
 41109  1  0  0  0
 41110  1  0  0  0
 41 48  1  0  0  0
 42 43  1  0  0  0
 42 66  1  0  0  0
 42111  1  0  0  0
 42112  1  0  0  0
 43 44  1  0  0  0
 44113  1  0  0  0
 45 46  2  0  0  0
 45114  1  0  0  0
 46115  1  0  0  0
 47116  1  0  0  0
 47117  1  0  0  0
 48 56  1  0  0  0
 48 65  1  0  0  0
 48118  1  0  0  0
 49 50  1  0  0  0
 49 53  1  0  0  0
 49 64  1  0  0  0
 49119  1  0  0  0
 50 51  1  0  0  0
 50120  1  0  0  0
 50121  1  0  0  0
 51 52  1  0  0  0
 51122  1  0  0  0
 51123  1  0  0  0
 52124  1  0  0  0
 52125  1  0  0  0
 53 54  1  0  0  0
 54 55  2  0  0  0
 54126  1  0  0  0
 55 57  1  0  0  0
 55127  1  0  0  0
 56 69  2  0  0  0
 57 58  2  0  0  0
 57128  1  0  0  0
 58129  1  0  0  0
 59 60  1  0  0  0
 59 61  1  0  0  0
 59 62  1  0  0  0
 60130  1  0  0  0
 60131  1  0  0  0
 60132  1  0  0  0
 61133  1  0  0  0
 61134  1  0  0  0
 61135  1  0  0  0
 62136  1  0  0  0
 62137  1  0  0  0
 62138  1  0  0  0
 63 65  1  0  0  0
 63139  1  0  0  0
 63140  1  0  0  0
 63141  1  0  0  0
 64142  1  0  0  0
 65143  1  0  0  0
 68 80  1  0  0  0
 71 72  2  0  0  0
 71 74  1  0  0  0
 71144  1  0  0  0
 72 75  1  0  0  0
 72145  1  0  0  0
 73 74  2  0  0  0
 73 76  1  0  0  0
 73146  1  0  0  0
 74 79  1  0  0  0
 75 76  2  0  0  0
 75 83  1  0  0  0
 76 84  1  0  0  0
 77147  1  0  0  0
 77148  1  0  0  0
 77149  1  0  0  0
 77 81  1  0  0  0
 78 83  1  0  0  0
 78150  1  0  0  0
 78151  1  0  0  0
 78152  1  0  0  0
 79 82  1  0  0  0
 79153  1  0  0  0
 79154  1  0  0  0
 80 81  1  0  0  0
 80155  1  0  0  0
 80156  1  0  0  0
 81 83  1  0  0  0
 81157  1  0  0  0
 82158  1  0  0  0
M  ISO  4   1 100  68 101  80 101  82 100
M  END
> <chiral flag>
0

> <version>
0

> <s_m_source_file>
/data/baiqing/PycharmProjects/Reinvent-master-3.2/result/LINK_invent/BTK/process_docking_weight1_custom_product_contain_oxygen_bond_distance_aromatic_linkinvent_7_9_3/rearranged_h_0021.sdf

> <i_m_source_file_index>
82

> <r_mmod_Potential_Energy-OPLS-2005>
154.363586425781

> <r_mmod_Stretch_Energy-OPLS-2005>
89.6813430786133

> <r_mmod_Bend_Energy-OPLS-2005>
211.231430053711

> <r_mmod_Torsional_Energy-OPLS-2005>
224.249237060547

> <r_mmod_Improper_Torsional_Energy-OPLS-2005>
7.83648061752319

> <r_mmod_Van_der_Waal_Energy-OPLS-2005>
149.618362426758

> <r_mmod_Electrostatic_Energy-OPLS-2005>
-367.789520263672

> <r_mmod_Solvation_Energy-OPLS-2005>
-214.789291381836

> <b_mmod_Minimization_Converged-OPLS-2005>
0

> <r_mmod_RMS_Derivative-OPLS-2005>
4.91854190826416

$$$$
82
                    3D
 Structure written by MMmdl.
158166  0  0  1  0            999 V2000
  -30.5541  -14.6714   20.4633 C   0  0  0  0  0  0
  -30.4461  -12.4043   19.4353 C   0  0  0  0  0  0
  -29.5004  -12.4965   18.2133 C   0  0  0  0  0  0
  -28.0221  -12.3449   18.6278 C   0  0  0  0  0  0
  -27.6517  -13.2069   19.8630 C   0  0  2  0  0  0
  -28.7034  -13.0289   20.9808 C   0  0  0  0  0  0
  -25.2573  -13.8172   20.5700 C   0  0  0  0  0  0
  -24.1829  -13.0439   20.9240 C   0  0  0  0  0  0
  -24.6390  -11.6912   20.8780 C   0  0  0  0  0  0
  -23.9056  -10.4294   21.0440 C   0  0  0  0  0  0
  -24.3604   -9.4211   21.9208 C   0  0  0  0  0  0
  -23.6285   -8.2235   22.0750 C   0  0  0  0  0  0
  -22.4259   -8.0284   21.3542 C   0  0  0  0  0  0
  -21.9919   -9.0261   20.4640 C   0  0  0  0  0  0
  -22.7242  -10.2155   20.3078 C   0  0  0  0  0  0
  -21.6841   -6.0740   22.5282 C   0  0  0  0  0  0
  -21.3986   -6.5633   23.8218 C   0  0  0  0  0  0
  -21.3665   -5.6783   24.9179 C   0  0  0  0  0  0
  -21.6042   -4.3041   24.7215 C   0  0  0  0  0  0
  -21.8826   -3.8148   23.4334 C   0  0  0  0  0  0
  -21.9182   -4.6973   22.3393 C   0  0  0  0  0  0
  -22.7859  -13.5250   21.1875 C   0  0  0  0  0  0
  -22.1656   -4.2161   21.0973 F   0  0  0  0  0  0
  -21.5642   -3.4524   25.7733 F   0  0  0  0  0  0
  -30.0085  -13.4124   20.4179 N   0  0  0  0  0  0
  -26.2991  -12.9320   20.3335 N   0  0  0  0  0  0
  -25.9314  -11.6500   20.5778 N   0  0  0  0  0  0
  -22.0471  -12.8262   22.0430 N   0  0  0  0  0  0
  -25.4303  -15.1872   20.4054 N   0  0  0  0  0  0
  -31.7148  -14.8815   20.0937 O   0  0  0  0  0  0
  -21.6615   -6.8885   21.4250 O   0  0  0  0  0  0
  -22.3584  -14.5565   20.6726 O   0  0  0  0  0  0
  -24.6277  -31.8602   23.1992 C   0  0  0  0  0  0
  -25.9128  -32.4764   23.8329 C   0  0  1  0  0  0
  -27.2345  -27.3101   20.1168 C   0  0  0  0  0  0
  -25.5952  -33.8563   24.2264 N   0  0  0  0  0  0
  -23.4247  -30.4739   21.5449 C   0  0  2  0  0  0
  -24.8707  -28.9194   20.1160 C   0  0  0  0  0  0
  -22.7483  -29.4562   22.4941 C   0  0  0  0  0  0
  -18.0277  -28.1317   22.8458 C   0  0  0  0  0  0
  -24.1486  -36.7270   23.2648 C   0  0  0  0  0  0
  -25.9597  -30.7832   21.3710 C   0  0  0  0  0  0
  -26.0386  -29.4080   20.7160 C   0  0  0  0  0  0
  -27.2260  -28.6172   20.6983 C   0  0  0  0  0  0
  -26.0417  -26.8602   19.5163 C   0  0  0  0  0  0
  -24.8736  -27.6500   19.5083 C   0  0  0  0  0  0
  -23.6421  -29.8067   20.1606 C   0  0  0  0  0  0
  -25.4113  -36.3050   24.0311 C   0  0  1  0  0  0
  -20.5875  -28.3632   23.1265 C   0  0  2  0  0  0
  -20.6768  -26.9350   22.5399 C   0  0  0  0  0  0
  -19.5760  -26.6340   21.5165 C   0  0  0  0  0  0
  -18.1921  -26.7855   22.1574 C   0  0  0  0  0  0
  -19.1527  -28.8798   23.2852 C   0  0  0  0  0  0
  -18.9481  -30.1406   23.8862 C   0  0  0  0  0  0
  -17.6494  -30.6563   24.0507 C   0  0  0  0  0  0
  -25.9065  -34.9441   23.5079 C   0  0  0  0  0  0
  -16.5368  -29.9036   23.6313 C   0  0  0  0  0  0
  -16.7277  -28.6445   23.0336 C   0  0  0  0  0  0
  -26.4516  -31.6577   25.0724 C   0  0  0  0  0  0
  -25.3752  -31.3708   26.1453 C   0  0  0  0  0  0
  -27.0358  -30.3017   24.6126 C   0  0  0  0  0  0
  -27.6083  -32.4313   25.7491 C   0  0  0  0  0  0
  -27.5558  -37.1780   24.8452 C   0  0  0  0  0  0
  -21.4204  -29.2985   22.3663 N   0  0  0  0  0  0
  -26.4276  -37.3757   23.9398 N   0  0  0  0  0  0
  -24.6884  -31.0568   22.0962 N   0  0  0  0  0  0
  -23.4197  -28.8085   23.3030 O   0  0  0  0  0  0
  -28.3786  -26.5056   20.0761 O   0  0  0  0  0  0
  -26.5640  -34.8911   22.4649 O   0  0  0  0  0  0
  -23.5447  -32.1416   23.7307 O   0  0  0  0  0  0
  -29.8617  -19.3895   19.6629 C   0  0  0  0  0  0
  -30.0857  -17.9647   19.6845 C   0  0  0  0  0  0
  -28.5958  -19.2094   21.6741 C   0  0  0  0  0  0
  -28.8419  -17.8058   21.7291 C   0  0  0  0  0  0
  -29.1190  -20.0793   20.6739 C   0  0  0  0  0  0
  -29.6018  -17.1329   20.7364 C   0  0  0  0  0  0
  -28.2776  -17.0168   22.9012 C   0  0  0  0  0  0
  -28.7168  -22.0980   22.0850 C   0  0  0  0  0  0
  -28.3229  -23.8555   19.5773 C   0  0  0  0  0  0
  -29.2863  -22.5767   19.7707 C   0  0  0  0  0  0
  -28.3414  -25.1067   20.5726 C   0  0  0  0  0  0
  -29.6646  -15.6617   20.8040 N   0  0  0  0  0  0
  -28.8733  -21.5171   20.7477 N   0  0  0  0  0  0
  -31.4820  -12.5575   19.1239 H   0  0  0  0  0  0
  -30.4105  -11.4043   19.8714 H   0  0  0  0  0  0
  -29.7566  -11.7308   17.4804 H   0  0  0  0  0  0
  -29.6456  -13.4556   17.7128 H   0  0  0  0  0  0
  -27.8476  -11.2925   18.8496 H   0  0  0  0  0  0
  -27.3698  -12.5893   17.7893 H   0  0  0  0  0  0
  -27.6712  -14.2444   19.5333 H   0  0  0  0  0  0
  -28.7293  -11.9876   21.3073 H   0  0  0  0  0  0
  -28.4533  -13.6100   21.8703 H   0  0  0  0  0  0
  -25.2735   -9.5686   22.4794 H   0  0  0  0  0  0
  -23.9980   -7.4626   22.7487 H   0  0  0  0  0  0
  -21.0836   -8.8806   19.8943 H   0  0  0  0  0  0
  -22.3694  -10.9710   19.6190 H   0  0  0  0  0  0
  -21.1957   -7.6136   23.9731 H   0  0  0  0  0  0
  -21.1481   -6.0498   25.9088 H   0  0  0  0  0  0
  -22.0597   -2.7613   23.2822 H   0  0  0  0  0  0
  -22.4021  -11.9867   22.4767 H   0  0  0  0  0  0
  -21.1118  -13.1353   22.2637 H   0  0  0  0  0  0
  -24.6602  -15.8401   20.5047 H   0  0  0  0  0  0
  -26.2596  -15.6226   20.0216 H   0  0  0  0  0  0
  -26.7200  -32.5453   23.1079 H   0  0  0  0  0  0
  -25.0025  -33.9655   25.0346 H   0  0  0  0  0  0
  -22.7194  -31.2942   21.4018 H   0  0  0  0  0  0
  -23.3741  -35.9613   23.3280 H   0  0  0  0  0  0
  -24.3579  -36.8928   22.2074 H   0  0  0  0  0  0
  -23.7202  -37.6431   23.6720 H   0  0  0  0  0  0
  -26.0855  -31.5489   20.6037 H   0  0  0  0  0  0
  -26.8394  -30.8380   21.9998 H   0  0  0  0  0  0
  -28.1334  -28.9921   21.1542 H   0  0  0  0  0  0
  -26.0113  -25.8878   19.0446 H   0  0  0  0  0  0
  -23.9787  -27.2685   19.0339 H   0  0  0  0  0  0
  -23.7597  -30.5870   19.4049 H   0  0  0  0  0  0
  -22.7603  -29.2362   19.8589 H   0  0  0  0  0  0
  -25.1263  -36.1908   25.0794 H   0  0  0  0  0  0
  -20.9943  -28.3238   24.1400 H   0  0  0  0  0  0
  -20.5596  -26.2257   23.3607 H   0  0  0  0  0  0
  -21.6653  -26.7348   22.1228 H   0  0  0  0  0  0
  -19.6909  -25.6237   21.1207 H   0  0  0  0  0  0
  -19.6699  -27.3163   20.6696 H   0  0  0  0  0  0
  -17.4177  -26.6597   21.3980 H   0  0  0  0  0  0
  -18.0320  -26.0006   22.8990 H   0  0  0  0  0  0
  -19.7999  -30.7163   24.2263 H   0  0  0  0  0  0
  -17.5076  -31.6247   24.5102 H   0  0  0  0  0  0
  -15.5363  -30.2911   23.7694 H   0  0  0  0  0  0
  -15.8669  -28.0751   22.7065 H   0  0  0  0  0  0
  -24.5926  -30.7041   25.7769 H   0  0  0  0  0  0
  -24.8957  -32.2888   26.4905 H   0  0  0  0  0  0
  -25.8107  -30.8876   27.0214 H   0  0  0  0  0  0
  -26.2899  -29.6751   24.1225 H   0  0  0  0  0  0
  -27.4116  -29.7285   25.4599 H   0  0  0  0  0  0
  -27.8754  -30.4258   23.9276 H   0  0  0  0  0  0
  -27.2700  -33.3662   26.1969 H   0  0  0  0  0  0
  -28.3978  -32.6778   25.0373 H   0  0  0  0  0  0
  -28.0637  -31.8479   26.5490 H   0  0  0  0  0  0
  -28.2548  -38.0116   24.7535 H   0  0  0  0  0  0
  -28.1080  -36.2623   24.6252 H   0  0  0  0  0  0
  -27.2284  -37.1381   25.8866 H   0  0  0  0  0  0
  -20.9387  -29.8786   21.6929 H   0  0  0  0  0  0
  -26.0147  -38.2799   24.1503 H   0  0  0  0  0  0
  -30.2714  -19.9440   18.8322 H   0  0  0  0  0  0
  -30.6119  -17.5051   18.8599 H   0  0  0  0  0  0
  -27.9610  -19.6111   22.4473 H   0  0  0  0  0  0
  -29.0987  -16.6601   23.5265 H   0  0  0  0  0  0
  -27.7121  -16.1498   22.5547 H   0  0  0  0  0  0
  -27.6187  -17.6172   23.5310 H   0  0  0  0  0  0
  -28.7528  -21.3974   22.9142 H   0  0  0  0  0  0
  -27.7782  -22.6501   22.1465 H   0  0  0  0  0  0
  -29.5217  -22.8085   22.2803 H   0  0  0  0  0  0
  -27.2983  -23.4970   19.4843 H   0  0  0  0  0  0
  -28.5535  -24.2664   18.5954 H   0  0  0  0  0  0
  -30.2730  -22.9408   20.0621 H   0  0  0  0  0  0
  -29.4403  -22.1147   18.7929 H   0  0  0  0  0  0
  -29.2383  -25.0076   21.1826 H   0  0  0  0  0  0
  -27.5170  -25.0004   21.2801 H   0  0  0  0  0  0
  -28.8211  -15.2503   21.1758 H   0  0  0  0  0  0
  1 25  1  0  0  0
  1 30  2  0  0  0
  1 82  1  0  0  0
  2  3  1  0  0  0
  2 25  1  0  0  0
  2 84  1  0  0  0
  2 85  1  0  0  0
  3  4  1  0  0  0
  3 86  1  0  0  0
  3 87  1  0  0  0
  4  5  1  0  0  0
  4 88  1  0  0  0
  4 89  1  0  0  0
  5  6  1  0  0  0
  5 26  1  0  0  0
  5 90  1  0  0  0
  6 25  1  0  0  0
  6 91  1  0  0  0
  6 92  1  0  0  0
  7  8  2  0  0  0
  7 26  1  0  0  0
  7 29  1  0  0  0
  8  9  1  0  0  0
  8 22  1  0  0  0
  9 10  1  0  0  0
  9 27  2  0  0  0
 10 11  2  0  0  0
 10 15  1  0  0  0
 11 12  1  0  0  0
 11 93  1  0  0  0
 12 13  2  0  0  0
 12 94  1  0  0  0
 13 14  1  0  0  0
 13 31  1  0  0  0
 14 15  2  0  0  0
 14 95  1  0  0  0
 15 96  1  0  0  0
 16 17  2  0  0  0
 16 21  1  0  0  0
 16 31  1  0  0  0
 17 18  1  0  0  0
 17 97  1  0  0  0
 18 19  2  0  0  0
 18 98  1  0  0  0
 19 20  1  0  0  0
 19 24  1  0  0  0
 20 21  2  0  0  0
 20 99  1  0  0  0
 21 23  1  0  0  0
 22 28  1  0  0  0
 22 32  2  0  0  0
 26 27  1  0  0  0
 28100  1  0  0  0
 28101  1  0  0  0
 29102  1  0  0  0
 29103  1  0  0  0
 33 34  1  0  0  0
 33 66  1  0  0  0
 33 70  2  0  0  0
 34 36  1  0  0  0
 34 59  1  0  0  0
 34104  1  0  0  0
 35 44  2  0  0  0
 35 45  1  0  0  0
 35 68  1  0  0  0
 36 56  1  0  0  0
 36105  1  0  0  0
 37 39  1  0  0  0
 37 47  1  0  0  0
 37 66  1  0  0  0
 37106  1  0  0  0
 38 43  2  0  0  0
 38 46  1  0  0  0
 38 47  1  0  0  0
 39 64  1  0  0  0
 39 67  2  0  0  0
 40 52  1  0  0  0
 40 53  2  0  0  0
 40 58  1  0  0  0
 41107  1  0  0  0
 41108  1  0  0  0
 41109  1  0  0  0
 41 48  1  0  0  0
 42 43  1  0  0  0
 42 66  1  0  0  0
 42110  1  0  0  0
 42111  1  0  0  0
 43 44  1  0  0  0
 44112  1  0  0  0
 45 46  2  0  0  0
 45113  1  0  0  0
 46114  1  0  0  0
 47115  1  0  0  0
 47116  1  0  0  0
 48 56  1  0  0  0
 48 65  1  0  0  0
 48117  1  0  0  0
 49 50  1  0  0  0
 49 53  1  0  0  0
 49 64  1  0  0  0
 49118  1  0  0  0
 50 51  1  0  0  0
 50119  1  0  0  0
 50120  1  0  0  0
 51 52  1  0  0  0
 51121  1  0  0  0
 51122  1  0  0  0
 52123  1  0  0  0
 52124  1  0  0  0
 53 54  1  0  0  0
 54 55  2  0  0  0
 54125  1  0  0  0
 55 57  1  0  0  0
 55126  1  0  0  0
 56 69  2  0  0  0
 57 58  2  0  0  0
 57127  1  0  0  0
 58128  1  0  0  0
 59 60  1  0  0  0
 59 61  1  0  0  0
 59 62  1  0  0  0
 60129  1  0  0  0
 60130  1  0  0  0
 60131  1  0  0  0
 61132  1  0  0  0
 61133  1  0  0  0
 61134  1  0  0  0
 62135  1  0  0  0
 62136  1  0  0  0
 62137  1  0  0  0
 63 65  1  0  0  0
 63138  1  0  0  0
 63139  1  0  0  0
 63140  1  0  0  0
 64141  1  0  0  0
 65142  1  0  0  0
 68 81  1  0  0  0
 71 72  2  0  0  0
 71 75  1  0  0  0
 71143  1  0  0  0
 72 76  1  0  0  0
 72144  1  0  0  0
 73 74  1  0  0  0
 73 75  2  0  0  0
 73145  1  0  0  0
 74 76  2  0  0  0
 74 77  1  0  0  0
 75 83  1  0  0  0
 76 82  1  0  0  0
 77146  1  0  0  0
 77147  1  0  0  0
 77148  1  0  0  0
 78 83  1  0  0  0
 78149  1  0  0  0
 78150  1  0  0  0
 78151  1  0  0  0
 79 80  1  0  0  0
 79 81  1  0  0  0
 79152  1  0  0  0
 79153  1  0  0  0
 80 83  1  0  0  0
 80154  1  0  0  0
 80155  1  0  0  0
 81156  1  0  0  0
 81157  1  0  0  0
 82158  1  0  0  0
M  ISO  4   1 100  68 101  81 101  82 100
M  END
> <chiral flag>
0

> <version>
0

> <s_m_source_file>
/data/baiqing/PycharmProjects/Reinvent-master-3.2/result/LINK_invent/BTK/process_docking_weight1_custom_product_contain_oxygen_bond_distance_aromatic_linkinvent_7_9_3/rearranged_h_0021.sdf

> <i_m_source_file_index>
83

> <r_mmod_Potential_Energy-OPLS-2005>
116.56453704834

> <r_mmod_Stretch_Energy-OPLS-2005>
92.8967971801758

> <r_mmod_Bend_Energy-OPLS-2005>
190.764923095703

> <r_mmod_Torsional_Energy-OPLS-2005>
247.660934448242

> <r_mmod_Improper_Torsional_Energy-OPLS-2005>
6.44188261032104

> <r_mmod_Van_der_Waal_Energy-OPLS-2005>
143.751998901367

> <r_mmod_Electrostatic_Energy-OPLS-2005>
-395.209808349609

> <r_mmod_Solvation_Energy-OPLS-2005>
-224.020843505859

> <b_mmod_Minimization_Converged-OPLS-2005>
0

> <r_mmod_RMS_Derivative-OPLS-2005>
5.40813636779785

$$$$
83
                    3D
 Structure written by MMmdl.
156165  0  0  1  0            999 V2000
  -30.5217  -14.9217   20.4425 C   0  0  0  0  0  0
  -30.4492  -12.5670   19.5055 C   0  0  0  0  0  0
  -29.5327  -12.5604   18.2603 C   0  0  0  0  0  0
  -28.0634  -12.3402   18.6692 C   0  0  0  0  0  0
  -27.6404  -13.2459   19.8536 C   0  0  2  0  0  0
  -28.6781  -13.2325   20.9972 C   0  0  0  0  0  0
  -25.2495  -13.8203   20.5683 C   0  0  0  0  0  0
  -24.1819  -13.0439   20.9201 C   0  0  0  0  0  0
  -24.6430  -11.6920   20.8752 C   0  0  0  0  0  0
  -23.9103  -10.4299   21.0408 C   0  0  0  0  0  0
  -24.3637   -9.4207   21.9187 C   0  0  0  0  0  0
  -23.6306   -8.2246   22.0745 C   0  0  0  0  0  0
  -22.4289   -8.0297   21.3536 C   0  0  0  0  0  0
  -21.9940   -9.0277   20.4635 C   0  0  0  0  0  0
  -22.7274  -10.2149   20.3045 C   0  0  0  0  0  0
  -21.6855   -6.0755   22.5284 C   0  0  0  0  0  0
  -21.4013   -6.5644   23.8219 C   0  0  0  0  0  0
  -21.3653   -5.6783   24.9179 C   0  0  0  0  0  0
  -21.6032   -4.3049   24.7217 C   0  0  0  0  0  0
  -21.8819   -3.8154   23.4338 C   0  0  0  0  0  0
  -21.9188   -4.6981   22.3400 C   0  0  0  0  0  0
  -22.7825  -13.5201   21.1873 C   0  0  0  0  0  0
  -22.1661   -4.2164   21.0983 F   0  0  0  0  0  0
  -21.5625   -3.4534   25.7730 F   0  0  0  0  0  0
  -29.9678  -13.6430   20.4224 N   0  0  0  0  0  0
  -26.2936  -12.9433   20.3272 N   0  0  0  0  0  0
  -25.9363  -11.6569   20.5740 N   0  0  0  0  0  0
  -22.0462  -12.8206   22.0427 N   0  0  0  0  0  0
  -25.4219  -15.1939   20.4069 N   0  0  0  0  0  0
  -31.6987  -15.0410   20.0800 O   0  0  0  0  0  0
  -21.6626   -6.8916   21.4254 O   0  0  0  0  0  0
  -22.3517  -14.5517   20.6733 O   0  0  0  0  0  0
  -24.6378  -31.8397   23.1858 C   0  0  0  0  0  0
  -25.9146  -32.4687   23.8216 C   0  0  1  0  0  0
  -27.2212  -27.1439   20.1684 C   0  0  0  0  0  0
  -25.5888  -33.8474   24.2137 N   0  0  0  0  0  0
  -23.4435  -30.4526   21.5328 C   0  0  2  0  0  0
  -24.8960  -28.8785   20.1134 C   0  0  0  0  0  0
  -22.7544  -29.4480   22.4910 C   0  0  0  0  0  0
  -18.0262  -28.1408   22.8486 C   0  0  0  0  0  0
  -24.1454  -36.7223   23.2639 C   0  0  0  0  0  0
  -25.9935  -30.7232   21.3771 C   0  0  0  0  0  0
  -26.0711  -29.3318   20.7282 C   0  0  0  0  0  0
  -27.2361  -28.4795   20.7381 C   0  0  0  0  0  0
  -26.0187  -26.7834   19.5234 C   0  0  0  0  0  0
  -24.8819  -27.6183   19.4950 C   0  0  0  0  0  0
  -23.6652  -29.7693   20.1561 C   0  0  0  0  0  0
  -25.4102  -36.3029   24.0314 C   0  0  1  0  0  0
  -20.5873  -28.3678   23.1286 C   0  0  2  0  0  0
  -20.6758  -26.9387   22.5427 C   0  0  0  0  0  0
  -19.5748  -26.6404   21.5214 C   0  0  0  0  0  0
  -18.1923  -26.7949   22.1616 C   0  0  0  0  0  0
  -19.1525  -28.8866   23.2876 C   0  0  0  0  0  0
  -18.9455  -30.1470   23.8893 C   0  0  0  0  0  0
  -17.6462  -30.6627   24.0552 C   0  0  0  0  0  0
  -25.9053  -34.9400   23.5050 C   0  0  0  0  0  0
  -16.5344  -29.9121   23.6358 C   0  0  0  0  0  0
  -16.7247  -28.6525   23.0395 C   0  0  0  0  0  0
  -26.4468  -31.6573   25.0655 C   0  0  0  0  0  0
  -25.3652  -31.3785   26.1356 C   0  0  0  0  0  0
  -27.0308  -30.2981   24.6204 C   0  0  0  0  0  0
  -27.6004  -32.4307   25.7460 C   0  0  0  0  0  0
  -27.5556  -37.1758   24.8460 C   0  0  0  0  0  0
  -21.4225  -29.3009   22.3685 N   0  0  0  0  0  0
  -26.4258  -37.3759   23.9420 N   0  0  0  0  0  0
  -24.7118  -31.0260   22.0881 N   0  0  0  0  0  0
  -23.4204  -28.8025   23.3051 O   0  0  0  0  0  0
  -28.2884  -26.1825   20.2400 O   0  0  0  0  0  0
  -26.5667  -34.8919   22.4646 O   0  0  0  0  0  0
  -23.5500  -32.1191   23.7123 O   0  0  0  0  0  0
  -29.4211  -19.9531   21.4495 C   0  0  0  0  0  0
  -29.7007  -18.2354   19.2857 C   0  0  0  0  0  0
  -29.4242  -20.6363   20.1811 C   0  0  0  0  0  0
  -29.7326  -17.5602   20.5495 C   0  0  0  0  0  0
  -29.5538  -18.5087   21.6225 C   0  0  0  0  0  0
  -29.5580  -19.6722   19.1129 C   0  0  0  0  0  0
  -31.2435  -22.8230   21.5439 C   0  0  0  0  0  0
  -29.9533  -23.6098   21.8075 C   0  0  0  0  0  0
  -31.0570  -22.1739   20.1522 C   0  0  0  0  0  0
  -29.3001  -23.5476   20.4395 C   0  0  2  0  0  0
  -28.0735  -24.6435   20.1262 C   0  0  0  0  0  0
  -29.6047  -22.0983   19.8963 N   0  0  0  0  0  0
  -29.7070  -16.0373   20.7522 N   0  0  0  0  0  0
  -29.5119  -18.0218   22.8879 F   0  0  0  0  0  0
  -29.5992  -20.1430   17.8399 F   0  0  0  0  0  0
  -31.4849  -12.7232   19.1988 H   0  0  0  0  0  0
  -30.4301  -11.5943   20.0018 H   0  0  0  0  0  0
  -29.8515  -11.7941   17.5536 H   0  0  0  0  0  0
  -29.6273  -13.5136   17.7369 H   0  0  0  0  0  0
  -27.9547  -11.2934   18.9529 H   0  0  0  0  0  0
  -27.4021  -12.4931   17.8156 H   0  0  0  0  0  0
  -27.6202  -14.2612   19.4553 H   0  0  0  0  0  0
  -28.7477  -12.2426   21.4489 H   0  0  0  0  0  0
  -28.3750  -13.9096   21.7973 H   0  0  0  0  0  0
  -25.2782   -9.5662   22.4766 H   0  0  0  0  0  0
  -24.0002   -7.4622   22.7456 H   0  0  0  0  0  0
  -21.0863   -8.8797   19.8943 H   0  0  0  0  0  0
  -22.3744  -10.9688   19.6142 H   0  0  0  0  0  0
  -21.2015   -7.6154   23.9741 H   0  0  0  0  0  0
  -21.1468   -6.0509   25.9086 H   0  0  0  0  0  0
  -22.0609   -2.7621   23.2819 H   0  0  0  0  0  0
  -22.4045  -11.9850   22.4819 H   0  0  0  0  0  0
  -21.1074  -13.1249   22.2612 H   0  0  0  0  0  0
  -24.6514  -15.8472   20.4951 H   0  0  0  0  0  0
  -26.2632  -15.6233   20.0465 H   0  0  0  0  0  0
  -26.7173  -32.5296   23.0916 H   0  0  0  0  0  0
  -24.9961  -33.9545   25.0230 H   0  0  0  0  0  0
  -22.7439  -31.2750   21.3702 H   0  0  0  0  0  0
  -23.3752  -35.9514   23.3307 H   0  0  0  0  0  0
  -24.3532  -36.8842   22.2047 H   0  0  0  0  0  0
  -23.7167  -37.6397   23.6680 H   0  0  0  0  0  0
  -26.1344  -31.4759   20.5994 H   0  0  0  0  0  0
  -26.8692  -30.7893   22.0100 H   0  0  0  0  0  0
  -28.1337  -28.8183   21.2403 H   0  0  0  0  0  0
  -25.9299  -25.8141   19.0556 H   0  0  0  0  0  0
  -23.9853  -27.2609   19.0075 H   0  0  0  0  0  0
  -23.7710  -30.5261   19.3777 H   0  0  0  0  0  0
  -22.7840  -29.1910   19.8730 H   0  0  0  0  0  0
  -25.1314  -36.1845   25.0815 H   0  0  0  0  0  0
  -20.9924  -28.3240   24.1419 H   0  0  0  0  0  0
  -20.5648  -26.2253   23.3608 H   0  0  0  0  0  0
  -21.6637  -26.7420   22.1229 H   0  0  0  0  0  0
  -19.6915  -25.6322   21.1246 H   0  0  0  0  0  0
  -19.6743  -27.3209   20.6744 H   0  0  0  0  0  0
  -17.4189  -26.6641   21.4034 H   0  0  0  0  0  0
  -18.0333  -26.0132   22.9047 H   0  0  0  0  0  0
  -19.7949  -30.7271   24.2275 H   0  0  0  0  0  0
  -17.5037  -31.6317   24.5147 H   0  0  0  0  0  0
  -15.5352  -30.3029   23.7753 H   0  0  0  0  0  0
  -15.8616  -28.0854   22.7159 H   0  0  0  0  0  0
  -24.5854  -30.7091   25.7718 H   0  0  0  0  0  0
  -24.8780  -32.2953   26.4674 H   0  0  0  0  0  0
  -25.7932  -30.9057   27.0199 H   0  0  0  0  0  0
  -26.2882  -29.6739   24.1226 H   0  0  0  0  0  0
  -27.3933  -29.7274   25.4757 H   0  0  0  0  0  0
  -27.8798  -30.4223   23.9484 H   0  0  0  0  0  0
  -27.2627  -33.3646   26.1962 H   0  0  0  0  0  0
  -28.3908  -32.6788   25.0369 H   0  0  0  0  0  0
  -28.0563  -31.8446   26.5438 H   0  0  0  0  0  0
  -28.2606  -38.0035   24.7581 H   0  0  0  0  0  0
  -28.1049  -36.2593   24.6268 H   0  0  0  0  0  0
  -27.2267  -37.1361   25.8855 H   0  0  0  0  0  0
  -20.9407  -29.8675   21.6831 H   0  0  0  0  0  0
  -26.0137  -38.2806   24.1539 H   0  0  0  0  0  0
  -29.3592  -20.5522   22.3443 H   0  0  0  0  0  0
  -29.7714  -17.6390   18.3897 H   0  0  0  0  0  0
  -31.3942  -22.0713   22.3188 H   0  0  0  0  0  0
  -32.1212  -23.4727   21.5414 H   0  0  0  0  0  0
  -30.1450  -24.6353   22.1347 H   0  0  0  0  0  0
  -29.3321  -23.1193   22.5584 H   0  0  0  0  0  0
  -31.6208  -21.2372   20.0891 H   0  0  0  0  0  0
  -31.5029  -22.8025   19.3788 H   0  0  0  0  0  0
  -30.0004  -24.1298   19.8335 H   0  0  0  0  0  0
  -27.7522  -24.4611   19.0989 H   0  0  0  0  0  0
  -27.2173  -24.3836   20.7509 H   0  0  0  0  0  0
  -28.8582  -15.7338   21.2052 H   0  0  0  0  0  0
  1 25  1  0  0  0
  1 30  2  0  0  0
  1 83  1  0  0  0
  2  3  1  0  0  0
  2 25  1  0  0  0
  2 86  1  0  0  0
  2 87  1  0  0  0
  3  4  1  0  0  0
  3 88  1  0  0  0
  3 89  1  0  0  0
  4  5  1  0  0  0
  4 90  1  0  0  0
  4 91  1  0  0  0
  5  6  1  0  0  0
  5 26  1  0  0  0
  5 92  1  0  0  0
  6 25  1  0  0  0
  6 93  1  0  0  0
  6 94  1  0  0  0
  7  8  2  0  0  0
  7 26  1  0  0  0
  7 29  1  0  0  0
  8  9  1  0  0  0
  8 22  1  0  0  0
  9 10  1  0  0  0
  9 27  2  0  0  0
 10 11  2  0  0  0
 10 15  1  0  0  0
 11 12  1  0  0  0
 11 95  1  0  0  0
 12 13  2  0  0  0
 12 96  1  0  0  0
 13 14  1  0  0  0
 13 31  1  0  0  0
 14 15  2  0  0  0
 14 97  1  0  0  0
 15 98  1  0  0  0
 16 17  2  0  0  0
 16 21  1  0  0  0
 16 31  1  0  0  0
 17 18  1  0  0  0
 17 99  1  0  0  0
 18 19  2  0  0  0
 18100  1  0  0  0
 19 20  1  0  0  0
 19 24  1  0  0  0
 20 21  2  0  0  0
 20101  1  0  0  0
 21 23  1  0  0  0
 22 28  1  0  0  0
 22 32  2  0  0  0
 26 27  1  0  0  0
 28102  1  0  0  0
 28103  1  0  0  0
 29104  1  0  0  0
 29105  1  0  0  0
 33 34  1  0  0  0
 33 66  1  0  0  0
 33 70  2  0  0  0
 34 36  1  0  0  0
 34 59  1  0  0  0
 34106  1  0  0  0
 35 44  2  0  0  0
 35 45  1  0  0  0
 35 68  1  0  0  0
 36 56  1  0  0  0
 36107  1  0  0  0
 37 39  1  0  0  0
 37 47  1  0  0  0
 37 66  1  0  0  0
 37108  1  0  0  0
 38 43  2  0  0  0
 38 46  1  0  0  0
 38 47  1  0  0  0
 39 64  1  0  0  0
 39 67  2  0  0  0
 40 52  1  0  0  0
 40 53  2  0  0  0
 40 58  1  0  0  0
 41109  1  0  0  0
 41110  1  0  0  0
 41111  1  0  0  0
 41 48  1  0  0  0
 42 43  1  0  0  0
 42 66  1  0  0  0
 42112  1  0  0  0
 42113  1  0  0  0
 43 44  1  0  0  0
 44114  1  0  0  0
 45 46  2  0  0  0
 45115  1  0  0  0
 46116  1  0  0  0
 47117  1  0  0  0
 47118  1  0  0  0
 48 56  1  0  0  0
 48 65  1  0  0  0
 48119  1  0  0  0
 49 50  1  0  0  0
 49 53  1  0  0  0
 49 64  1  0  0  0
 49120  1  0  0  0
 50 51  1  0  0  0
 50121  1  0  0  0
 50122  1  0  0  0
 51 52  1  0  0  0
 51123  1  0  0  0
 51124  1  0  0  0
 52125  1  0  0  0
 52126  1  0  0  0
 53 54  1  0  0  0
 54 55  2  0  0  0
 54127  1  0  0  0
 55 57  1  0  0  0
 55128  1  0  0  0
 56 69  2  0  0  0
 57 58  2  0  0  0
 57129  1  0  0  0
 58130  1  0  0  0
 59 60  1  0  0  0
 59 61  1  0  0  0
 59 62  1  0  0  0
 60131  1  0  0  0
 60132  1  0  0  0
 60133  1  0  0  0
 61134  1  0  0  0
 61135  1  0  0  0
 61136  1  0  0  0
 62137  1  0  0  0
 62138  1  0  0  0
 62139  1  0  0  0
 63 65  1  0  0  0
 63140  1  0  0  0
 63141  1  0  0  0
 63142  1  0  0  0
 64143  1  0  0  0
 65144  1  0  0  0
 68 81  1  0  0  0
 71 73  2  0  0  0
 71 75  1  0  0  0
 71145  1  0  0  0
 72 74  1  0  0  0
 72 76  2  0  0  0
 72146  1  0  0  0
 73 76  1  0  0  0
 73 82  1  0  0  0
 74 75  2  0  0  0
 74 83  1  0  0  0
 75 84  1  0  0  0
 76 85  1  0  0  0
 77 78  1  0  0  0
 77 79  1  0  0  0
 77147  1  0  0  0
 77148  1  0  0  0
 78 80  1  0  0  0
 78149  1  0  0  0
 78150  1  0  0  0
 79 82  1  0  0  0
 79151  1  0  0  0
 79152  1  0  0  0
 80 81  1  0  0  0
 80 82  1  0  0  0
 80153  1  0  0  0
 81154  1  0  0  0
 81155  1  0  0  0
 83156  1  0  0  0
M  ISO  4   1 100  68 101  81 101  83 100
M  END
> <chiral flag>
0

> <version>
0

> <s_m_source_file>
/data/baiqing/PycharmProjects/Reinvent-master-3.2/result/LINK_invent/BTK/process_docking_weight1_custom_product_contain_oxygen_bond_distance_aromatic_linkinvent_7_9_3/rearranged_h_0021.sdf

> <i_m_source_file_index>
84

> <r_mmod_Potential_Energy-OPLS-2005>
688.581665039062

> <r_mmod_Stretch_Energy-OPLS-2005>
230.535690307617

> <r_mmod_Bend_Energy-OPLS-2005>
399.356506347656

> <r_mmod_Torsional_Energy-OPLS-2005>
309.806854248047

> <r_mmod_Improper_Torsional_Energy-OPLS-2005>
14.3776206970215

> <r_mmod_Van_der_Waal_Energy-OPLS-2005>
141.478607177734

> <r_mmod_Electrostatic_Energy-OPLS-2005>
-360.910217285156

> <r_mmod_Solvation_Energy-OPLS-2005>
-223.867889404297

> <b_mmod_Minimization_Converged-OPLS-2005>
0

> <r_mmod_RMS_Derivative-OPLS-2005>
3.73912048339844

$$$$
84
                    3D
 Structure written by MMmdl.
171180  0  0  1  0            999 V2000
  -30.7427  -14.3815   20.6951 C   0  0  0  0  0  0
  -30.4300  -12.2967   19.4071 C   0  0  0  0  0  0
  -29.5029  -12.5333   18.1999 C   0  0  0  0  0  0
  -28.0255  -12.3773   18.6072 C   0  0  0  0  0  0
  -27.6695  -13.1983   19.8739 C   0  0  2  0  0  0
  -28.6991  -12.9336   20.9943 C   0  0  0  0  0  0
  -25.2619  -13.8138   20.5657 C   0  0  0  0  0  0
  -24.1861  -13.0430   20.9142 C   0  0  0  0  0  0
  -24.6387  -11.6897   20.8667 C   0  0  0  0  0  0
  -23.9040  -10.4291   21.0366 C   0  0  0  0  0  0
  -24.3588   -9.4224   21.9154 C   0  0  0  0  0  0
  -23.6266   -8.2266   22.0757 C   0  0  0  0  0  0
  -22.4238   -8.0297   21.3558 C   0  0  0  0  0  0
  -21.9857   -9.0259   20.4643 C   0  0  0  0  0  0
  -22.7206  -10.2129   20.3032 C   0  0  0  0  0  0
  -21.6857   -6.0709   22.5258 C   0  0  0  0  0  0
  -21.4023   -6.5594   23.8202 C   0  0  0  0  0  0
  -21.3682   -5.6746   24.9155 C   0  0  0  0  0  0
  -21.6057   -4.3014   24.7211 C   0  0  0  0  0  0
  -21.8828   -3.8123   23.4326 C   0  0  0  0  0  0
  -21.9206   -4.6935   22.3382 C   0  0  0  0  0  0
  -22.7899  -13.5272   21.1817 C   0  0  0  0  0  0
  -22.1682   -4.2131   21.0959 F   0  0  0  0  0  0
  -21.5631   -3.4509   25.7729 F   0  0  0  0  0  0
  -30.0513  -13.2327   20.4736 N   0  0  0  0  0  0
  -26.3044  -12.9287   20.3287 N   0  0  0  0  0  0
  -25.9295  -11.6463   20.5641 N   0  0  0  0  0  0
  -22.0504  -12.8307   22.0365 N   0  0  0  0  0  0
  -25.4337  -15.1862   20.4134 N   0  0  0  0  0  0
  -31.7616  -14.6831   20.0625 O   0  0  0  0  0  0
  -21.6634   -6.8872   21.4241 O   0  0  0  0  0  0
  -22.3636  -14.5604   20.6670 O   0  0  0  0  0  0
  -24.6140  -31.8681   23.2084 C   0  0  0  0  0  0
  -25.9053  -32.4811   23.8352 C   0  0  1  0  0  0
  -27.2297  -27.4589   20.0744 C   0  0  0  0  0  0
  -25.5941  -33.8592   24.2333 N   0  0  0  0  0  0
  -23.3985  -30.4922   21.5500 C   0  0  2  0  0  0
  -24.8424  -28.9658   20.1115 C   0  0  0  0  0  0
  -22.7411  -29.4633   22.4979 C   0  0  0  0  0  0
  -18.0282  -28.1353   22.8463 C   0  0  0  0  0  0
  -24.1496  -36.7310   23.2628 C   0  0  0  0  0  0
  -25.9255  -30.8451   21.3530 C   0  0  0  0  0  0
  -26.0050  -29.4817   20.6990 C   0  0  0  0  0  0
  -27.2053  -28.7380   20.6708 C   0  0  0  0  0  0
  -26.0508  -26.9535   19.4872 C   0  0  0  0  0  0
  -24.8607  -27.6992   19.5007 C   0  0  0  0  0  0
  -23.6019  -29.8259   20.1645 C   0  0  0  0  0  0
  -25.4106  -36.3090   24.0334 C   0  0  1  0  0  0
  -20.5862  -28.3629   23.1318 C   0  0  2  0  0  0
  -20.6763  -26.9363   22.5406 C   0  0  0  0  0  0
  -19.5750  -26.6363   21.5184 C   0  0  0  0  0  0
  -18.1922  -26.7906   22.1597 C   0  0  0  0  0  0
  -19.1527  -28.8816   23.2880 C   0  0  0  0  0  0
  -18.9454  -30.1428   23.8880 C   0  0  0  0  0  0
  -17.6450  -30.6549   24.0557 C   0  0  0  0  0  0
  -25.9026  -34.9466   23.5122 C   0  0  0  0  0  0
  -16.5341  -29.9039   23.6310 C   0  0  0  0  0  0
  -16.7272  -28.6466   23.0305 C   0  0  0  0  0  0
  -26.4495  -31.6554   25.0653 C   0  0  0  0  0  0
  -25.3792  -31.3671   26.1432 C   0  0  0  0  0  0
  -27.0273  -30.2975   24.5986 C   0  0  0  0  0  0
  -27.6056  -32.4264   25.7453 C   0  0  0  0  0  0
  -27.5590  -37.1800   24.8454 C   0  0  0  0  0  0
  -21.4139  -29.3002   22.3744 N   0  0  0  0  0  0
  -26.4295  -37.3782   23.9410 N   0  0  0  0  0  0
  -24.6644  -31.0804   22.0966 N   0  0  0  0  0  0
  -23.4195  -28.8169   23.3004 O   0  0  0  0  0  0
  -28.3961  -26.7294   20.0501 O   0  0  0  0  0  0
  -26.5557  -34.8926   22.4660 O   0  0  0  0  0  0
  -23.5344  -32.1428   23.7491 O   0  0  0  0  0  0
  -29.2903  -17.1045   22.6689 C   0  0  0  0  0  0
  -31.3903  -17.3422   21.4609 C   0  0  0  0  0  0
  -29.2605  -18.4934   22.8930 C   0  0  0  0  0  0
  -31.3717  -18.7301   21.7082 C   0  0  0  0  0  0
  -30.3378  -16.5188   21.9286 C   0  0  0  0  0  0
  -30.2997  -19.3199   22.4105 C   0  0  0  0  0  0
  -28.1526  -22.9393   20.4259 C   0  0  0  0  0  0
  -29.6034  -23.9374   22.2729 C   0  0  0  0  0  0
  -28.2442  -24.2816   19.6742 C   0  0  0  0  0  0
  -29.5969  -25.2734   21.5127 C   0  0  0  0  0  0
  -29.3410  -22.6924   21.3855 C   0  0  1  0  0  0
  -28.3257  -25.4473   20.6765 C   0  0  1  0  0  0
  -29.4723  -20.9865   25.7611 C   0  0  0  0  0  0
  -29.0755  -21.4215   22.2376 C   0  0  0  0  0  0
  -30.7854  -20.4994   25.1326 C   0  0  0  0  0  0
  -31.1288  -21.1425   23.7705 C   0  0  0  0  0  0
  -30.2584  -15.1164   21.7085 N   0  0  0  0  0  0
  -30.2912  -20.7041   22.6480 N   0  0  0  0  0  0
  -31.4746  -12.4064   19.1099 H   0  0  0  0  0  0
  -30.3375  -11.2736   19.7734 H   0  0  0  0  0  0
  -29.7452  -11.8312   17.4002 H   0  0  0  0  0  0
  -29.6743  -13.5339   17.7987 H   0  0  0  0  0  0
  -27.8340  -11.3195   18.7843 H   0  0  0  0  0  0
  -27.3820  -12.6669   17.7768 H   0  0  0  0  0  0
  -27.7270  -14.2509   19.6023 H   0  0  0  0  0  0
  -28.6598  -11.8878   21.3000 H   0  0  0  0  0  0
  -28.4228  -13.4978   21.8823 H   0  0  0  0  0  0
  -25.2722   -9.5708   22.4736 H   0  0  0  0  0  0
  -23.9977   -7.4663   22.7477 H   0  0  0  0  0  0
  -21.0789   -8.8784   19.8946 H   0  0  0  0  0  0
  -22.3665  -10.9662   19.6150 H   0  0  0  0  0  0
  -21.2015   -7.6095   23.9703 H   0  0  0  0  0  0
  -21.1488   -6.0463   25.9053 H   0  0  0  0  0  0
  -22.0586   -2.7588   23.2845 H   0  0  0  0  0  0
  -22.4036  -11.9945   22.4763 H   0  0  0  0  0  0
  -21.1140  -13.1436   22.2520 H   0  0  0  0  0  0
  -24.6699  -15.8416   20.5274 H   0  0  0  0  0  0
  -26.2935  -15.6269   20.1107 H   0  0  0  0  0  0
  -26.7124  -32.5543   23.1106 H   0  0  0  0  0  0
  -25.0175  -33.9742   25.0538 H   0  0  0  0  0  0
  -22.6866  -31.3089   21.4139 H   0  0  0  0  0  0
  -23.3744  -35.9655   23.3285 H   0  0  0  0  0  0
  -24.3612  -36.8915   22.2046 H   0  0  0  0  0  0
  -23.7268  -37.6524   23.6636 H   0  0  0  0  0  0
  -26.0339  -31.6169   20.5880 H   0  0  0  0  0  0
  -26.8138  -30.8986   21.9667 H   0  0  0  0  0  0
  -28.1111  -29.1379   21.1049 H   0  0  0  0  0  0
  -26.0453  -25.9936   18.9968 H   0  0  0  0  0  0
  -23.9703  -27.2979   19.0366 H   0  0  0  0  0  0
  -23.7053  -30.5994   19.4034 H   0  0  0  0  0  0
  -22.7270  -29.2423   19.8720 H   0  0  0  0  0  0
  -25.1269  -36.1940   25.0825 H   0  0  0  0  0  0
  -20.9947  -28.3187   24.1439 H   0  0  0  0  0  0
  -20.5620  -26.2226   23.3576 H   0  0  0  0  0  0
  -21.6646  -26.7381   22.1228 H   0  0  0  0  0  0
  -19.6893  -25.6275   21.1186 H   0  0  0  0  0  0
  -19.6665  -27.3191   20.6722 H   0  0  0  0  0  0
  -17.4177  -26.6639   21.4009 H   0  0  0  0  0  0
  -18.0315  -26.0052   22.8991 H   0  0  0  0  0  0
  -19.7928  -30.7263   24.2207 H   0  0  0  0  0  0
  -17.4996  -31.6223   24.5168 H   0  0  0  0  0  0
  -15.5338  -30.2917   23.7654 H   0  0  0  0  0  0
  -15.8678  -28.0800   22.6972 H   0  0  0  0  0  0
  -24.5995  -30.6951   25.7839 H   0  0  0  0  0  0
  -24.8953  -32.2825   26.4845 H   0  0  0  0  0  0
  -25.8208  -30.8923   27.0201 H   0  0  0  0  0  0
  -26.2764  -29.6767   24.1075 H   0  0  0  0  0  0
  -27.4083  -29.7172   25.4401 H   0  0  0  0  0  0
  -27.8599  -30.4261   23.9060 H   0  0  0  0  0  0
  -27.2648  -33.3552   26.2048 H   0  0  0  0  0  0
  -28.3890  -32.6838   25.0310 H   0  0  0  0  0  0
  -28.0692  -31.8366   26.5376 H   0  0  0  0  0  0
  -28.2575  -38.0130   24.7538 H   0  0  0  0  0  0
  -28.1121  -36.2658   24.6213 H   0  0  0  0  0  0
  -27.2332  -37.1392   25.8867 H   0  0  0  0  0  0
  -20.9268  -29.8775   21.7029 H   0  0  0  0  0  0
  -26.0169  -38.2852   24.1416 H   0  0  0  0  0  0
  -28.4871  -16.4978   23.0608 H   0  0  0  0  0  0
  -32.2243  -16.9336   20.9129 H   0  0  0  0  0  0
  -28.4413  -18.9167   23.4558 H   0  0  0  0  0  0
  -32.1815  -19.3457   21.3437 H   0  0  0  0  0  0
  -28.1061  -22.1264   19.6992 H   0  0  0  0  0  0
  -27.2139  -22.8990   20.9815 H   0  0  0  0  0  0
  -28.8616  -23.9802   23.0707 H   0  0  0  0  0  0
  -30.5772  -23.8560   22.7503 H   0  0  0  0  0  0
  -27.3794  -24.3766   19.0221 H   0  0  0  0  0  0
  -29.1195  -24.2933   19.0225 H   0  0  0  0  0  0
  -30.4718  -25.3288   20.8615 H   0  0  0  0  0  0
  -29.6878  -26.0977   22.2234 H   0  0  0  0  0  0
  -30.2139  -22.5244   20.7530 H   0  0  0  0  0  0
  -27.4646  -25.4027   21.3478 H   0  0  0  0  0  0
  -29.3340  -20.5498   26.7511 H   0  0  0  0  0  0
  -28.6055  -20.7128   25.1603 H   0  0  0  0  0  0
  -29.4714  -22.0709   25.8798 H   0  0  0  0  0  0
  -28.4540  -20.7415   21.6510 H   0  0  0  0  0  0
  -28.4773  -21.6804   23.1111 H   0  0  0  0  0  0
  -30.7814  -19.4120   25.0645 H   0  0  0  0  0  0
  -31.5958  -20.7347   25.8231 H   0  0  0  0  0  0
  -32.1702  -20.9251   23.5282 H   0  0  0  0  0  0
  -31.0772  -22.2204   23.8926 H   0  0  0  0  0  0
  -29.5080  -14.6485   22.1941 H   0  0  0  0  0  0
  1 25  1  0  0  0
  1 30  2  0  0  0
  1 87  1  0  0  0
  2  3  1  0  0  0
  2 25  1  0  0  0
  2 89  1  0  0  0
  2 90  1  0  0  0
  3  4  1  0  0  0
  3 91  1  0  0  0
  3 92  1  0  0  0
  4  5  1  0  0  0
  4 93  1  0  0  0
  4 94  1  0  0  0
  5  6  1  0  0  0
  5 26  1  0  0  0
  5 95  1  0  0  0
  6 25  1  0  0  0
  6 96  1  0  0  0
  6 97  1  0  0  0
  7  8  2  0  0  0
  7 26  1  0  0  0
  7 29  1  0  0  0
  8  9  1  0  0  0
  8 22  1  0  0  0
  9 10  1  0  0  0
  9 27  2  0  0  0
 10 11  2  0  0  0
 10 15  1  0  0  0
 11 12  1  0  0  0
 11 98  1  0  0  0
 12 13  2  0  0  0
 12 99  1  0  0  0
 13 14  1  0  0  0
 13 31  1  0  0  0
 14 15  2  0  0  0
 14100  1  0  0  0
 15101  1  0  0  0
 16 17  2  0  0  0
 16 21  1  0  0  0
 16 31  1  0  0  0
 17 18  1  0  0  0
 17102  1  0  0  0
 18 19  2  0  0  0
 18103  1  0  0  0
 19 20  1  0  0  0
 19 24  1  0  0  0
 20 21  2  0  0  0
 20104  1  0  0  0
 21 23  1  0  0  0
 22 28  1  0  0  0
 22 32  2  0  0  0
 26 27  1  0  0  0
 28105  1  0  0  0
 28106  1  0  0  0
 29107  1  0  0  0
 29108  1  0  0  0
 33 34  1  0  0  0
 33 66  1  0  0  0
 33 70  2  0  0  0
 34 36  1  0  0  0
 34 59  1  0  0  0
 34109  1  0  0  0
 35 44  2  0  0  0
 35 45  1  0  0  0
 35 68  1  0  0  0
 36 56  1  0  0  0
 36110  1  0  0  0
 37 39  1  0  0  0
 37 47  1  0  0  0
 37 66  1  0  0  0
 37111  1  0  0  0
 38 43  2  0  0  0
 38 46  1  0  0  0
 38 47  1  0  0  0
 39 64  1  0  0  0
 39 67  2  0  0  0
 40 52  1  0  0  0
 40 53  2  0  0  0
 40 58  1  0  0  0
 41112  1  0  0  0
 41113  1  0  0  0
 41114  1  0  0  0
 41 48  1  0  0  0
 42 43  1  0  0  0
 42 66  1  0  0  0
 42115  1  0  0  0
 42116  1  0  0  0
 43 44  1  0  0  0
 44117  1  0  0  0
 45 46  2  0  0  0
 45118  1  0  0  0
 46119  1  0  0  0
 47120  1  0  0  0
 47121  1  0  0  0
 48 56  1  0  0  0
 48 65  1  0  0  0
 48122  1  0  0  0
 49 50  1  0  0  0
 49 53  1  0  0  0
 49 64  1  0  0  0
 49123  1  0  0  0
 50 51  1  0  0  0
 50124  1  0  0  0
 50125  1  0  0  0
 51 52  1  0  0  0
 51126  1  0  0  0
 51127  1  0  0  0
 52128  1  0  0  0
 52129  1  0  0  0
 53 54  1  0  0  0
 54 55  2  0  0  0
 54130  1  0  0  0
 55 57  1  0  0  0
 55131  1  0  0  0
 56 69  2  0  0  0
 57 58  2  0  0  0
 57132  1  0  0  0
 58133  1  0  0  0
 59 60  1  0  0  0
 59 61  1  0  0  0
 59 62  1  0  0  0
 60134  1  0  0  0
 60135  1  0  0  0
 60136  1  0  0  0
 61137  1  0  0  0
 61138  1  0  0  0
 61139  1  0  0  0
 62140  1  0  0  0
 62141  1  0  0  0
 62142  1  0  0  0
 63 65  1  0  0  0
 63143  1  0  0  0
 63144  1  0  0  0
 63145  1  0  0  0
 64146  1  0  0  0
 65147  1  0  0  0
 68 82  1  0  0  0
 71 73  2  0  0  0
 71 75  1  0  0  0
 71148  1  0  0  0
 72 74  1  0  0  0
 72 75  2  0  0  0
 72149  1  0  0  0
 73 76  1  0  0  0
 73150  1  0  0  0
 74 76  2  0  0  0
 74151  1  0  0  0
 75 87  1  0  0  0
 76 88  1  0  0  0
 77 79  1  0  0  0
 77 81  1  0  0  0
 77152  1  0  0  0
 77153  1  0  0  0
 78 80  1  0  0  0
 78 81  1  0  0  0
 78154  1  0  0  0
 78155  1  0  0  0
 79 82  1  0  0  0
 79156  1  0  0  0
 79157  1  0  0  0
 80 82  1  0  0  0
 80158  1  0  0  0
 80159  1  0  0  0
 81 84  1  0  0  0
 81160  1  0  0  0
 82161  1  0  0  0
 83 85  1  0  0  0
 83162  1  0  0  0
 83163  1  0  0  0
 83164  1  0  0  0
 84 88  1  0  0  0
 84165  1  0  0  0
 84166  1  0  0  0
 85 86  1  0  0  0
 85167  1  0  0  0
 85168  1  0  0  0
 86 88  1  0  0  0
 86169  1  0  0  0
 86170  1  0  0  0
 87171  1  0  0  0
M  ISO  4   1 100  68 101  82 101  87 100
M  END
> <chiral flag>
0

> <version>
0

> <s_m_source_file>
/data/baiqing/PycharmProjects/Reinvent-master-3.2/result/LINK_invent/BTK/process_docking_weight1_custom_product_contain_oxygen_bond_distance_aromatic_linkinvent_7_9_3/rearranged_h_0021.sdf

> <i_m_source_file_index>
85

> <r_mmod_Potential_Energy-OPLS-2005>
-15.6545782089233

> <r_mmod_Stretch_Energy-OPLS-2005>
35.7608184814453

> <r_mmod_Bend_Energy-OPLS-2005>
108.978950500488

> <r_mmod_Torsional_Energy-OPLS-2005>
291.809936523438

> <r_mmod_Improper_Torsional_Energy-OPLS-2005>
5.02428865432739

> <r_mmod_Van_der_Waal_Energy-OPLS-2005>
159.439788818359

> <r_mmod_Electrostatic_Energy-OPLS-2005>
-422.895538330078

> <r_mmod_Solvation_Energy-OPLS-2005>
-201.568618774414

> <b_mmod_Minimization_Converged-OPLS-2005>
0

> <r_mmod_RMS_Derivative-OPLS-2005>
4.08333826065063

$$$$
85
                    3D
 Structure written by MMmdl.
165174  0  0  1  0            999 V2000
  -30.6912  -14.6647   20.5064 C   0  0  0  0  0  0
  -30.4139  -12.4162   19.4735 C   0  0  0  0  0  0
  -29.4974  -12.4998   18.2367 C   0  0  0  0  0  0
  -28.0302  -12.3167   18.6609 C   0  0  0  0  0  0
  -27.6418  -13.2256   19.8556 C   0  0  2  0  0  0
  -28.6846  -13.1676   20.9953 C   0  0  0  0  0  0
  -25.2501  -13.8166   20.5691 C   0  0  0  0  0  0
  -24.1795  -13.0443   20.9205 C   0  0  0  0  0  0
  -24.6379  -11.6914   20.8766 C   0  0  0  0  0  0
  -23.9061  -10.4298   21.0415 C   0  0  0  0  0  0
  -24.3615   -9.4214   21.9193 C   0  0  0  0  0  0
  -23.6289   -8.2250   22.0768 C   0  0  0  0  0  0
  -22.4273   -8.0277   21.3553 C   0  0  0  0  0  0
  -21.9908   -9.0249   20.4652 C   0  0  0  0  0  0
  -22.7234  -10.2130   20.3064 C   0  0  0  0  0  0
  -21.6856   -6.0730   22.5281 C   0  0  0  0  0  0
  -21.4013   -6.5639   23.8212 C   0  0  0  0  0  0
  -21.3662   -5.6794   24.9175 C   0  0  0  0  0  0
  -21.6055   -4.3059   24.7225 C   0  0  0  0  0  0
  -21.8820   -3.8146   23.4346 C   0  0  0  0  0  0
  -21.9193   -4.6960   22.3400 C   0  0  0  0  0  0
  -22.7815  -13.5222   21.1860 C   0  0  0  0  0  0
  -22.1668   -4.2151   21.0976 F   0  0  0  0  0  0
  -21.5628   -3.4540   25.7733 F   0  0  0  0  0  0
  -29.9969  -13.4808   20.4155 N   0  0  0  0  0  0
  -26.2938  -12.9384   20.3327 N   0  0  0  0  0  0
  -25.9309  -11.6535   20.5798 N   0  0  0  0  0  0
  -22.0459  -12.8217   22.0409 N   0  0  0  0  0  0
  -25.4195  -15.1872   20.4060 N   0  0  0  0  0  0
  -31.8544  -14.7217   20.0923 O   0  0  0  0  0  0
  -21.6653   -6.8864   21.4238 O   0  0  0  0  0  0
  -22.3507  -14.5538   20.6701 O   0  0  0  0  0  0
  -24.6263  -31.8536   23.1997 C   0  0  0  0  0  0
  -25.9122  -32.4732   23.8305 C   0  0  1  0  0  0
  -27.2311  -27.3076   20.1288 C   0  0  0  0  0  0
  -25.5921  -33.8540   24.2212 N   0  0  0  0  0  0
  -23.4212  -30.4778   21.5394 C   0  0  2  0  0  0
  -24.8665  -28.9268   20.1114 C   0  0  0  0  0  0
  -22.7482  -29.4576   22.4899 C   0  0  0  0  0  0
  -18.0279  -28.1407   22.8427 C   0  0  0  0  0  0
  -24.1482  -36.7319   23.2634 C   0  0  0  0  0  0
  -25.9588  -30.7842   21.3699 C   0  0  0  0  0  0
  -26.0321  -29.4090   20.7177 C   0  0  0  0  0  0
  -27.2128  -28.6110   20.7162 C   0  0  0  0  0  0
  -26.0356  -26.8714   19.5108 C   0  0  0  0  0  0
  -24.8708  -27.6651   19.4980 C   0  0  0  0  0  0
  -23.6366  -29.8101   20.1534 C   0  0  0  0  0  0
  -25.4105  -36.3068   24.0300 C   0  0  1  0  0  0
  -20.5879  -28.3674   23.1266 C   0  0  2  0  0  0
  -20.6757  -26.9372   22.5426 C   0  0  0  0  0  0
  -19.5757  -26.6366   21.5198 C   0  0  0  0  0  0
  -18.1930  -26.7943   22.1581 C   0  0  0  0  0  0
  -19.1532  -28.8856   23.2842 C   0  0  0  0  0  0
  -18.9464  -30.1456   23.8849 C   0  0  0  0  0  0
  -17.6470  -30.6588   24.0548 C   0  0  0  0  0  0
  -25.9043  -34.9429   23.5056 C   0  0  0  0  0  0
  -16.5349  -29.9087   23.6349 C   0  0  0  0  0  0
  -16.7260  -28.6534   23.0302 C   0  0  0  0  0  0
  -26.4451  -31.6601   25.0729 C   0  0  0  0  0  0
  -25.3669  -31.3813   26.1463 C   0  0  0  0  0  0
  -27.0270  -30.3004   24.6250 C   0  0  0  0  0  0
  -27.5994  -32.4333   25.7524 C   0  0  0  0  0  0
  -27.5561  -37.1804   24.8444 C   0  0  0  0  0  0
  -21.4195  -29.3025   22.3670 N   0  0  0  0  0  0
  -26.4274  -37.3771   23.9396 N   0  0  0  0  0  0
  -24.6875  -31.0575   22.0927 N   0  0  0  0  0  0
  -23.4205  -28.8095   23.2954 O   0  0  0  0  0  0
  -28.3804  -26.5008   20.2024 O   0  0  0  0  0  0
  -26.5630  -34.8914   22.4637 O   0  0  0  0  0  0
  -23.5429  -32.1297   23.7352 O   0  0  0  0  0  0
  -29.8839  -19.1738   19.6093 C   0  0  0  0  0  0
  -29.6271  -20.5782   19.5235 C   0  0  0  0  0  0
  -27.9233  -20.3566   21.1794 C   0  0  0  0  0  0
  -29.1267  -18.2990   20.4383 C   0  0  0  0  0  0
  -28.1706  -18.9493   21.2879 C   0  0  0  0  0  0
  -28.5855  -21.2073   20.2514 C   0  0  0  0  0  0
  -26.1146  -23.2481   21.0181 C   0  0  0  0  0  0
  -27.3293  -23.9182   21.6646 C   0  0  0  0  0  0
  -26.6660  -22.5904   19.7440 C   0  0  0  0  0  0
  -28.4391  -23.8172   20.6087 C   0  0  2  0  0  0
  -30.9643  -16.5671   21.9531 C   0  0  0  0  0  0
  -29.2202  -16.7232   20.2304 C   0  0  0  0  0  0
  -28.4586  -25.1219   19.6599 C   0  0  0  0  0  0
  -27.2917  -18.1879   22.2785 C   0  0  0  0  0  0
  -28.1219  -22.5343   19.9000 N   0  0  0  0  0  0
  -30.1085  -15.8035   21.0385 N   0  0  0  0  0  0
  -27.1431  -18.8943   23.4014 F   0  0  0  0  0  0
  -26.0879  -18.0156   21.7361 F   0  0  0  0  0  0
  -27.7794  -17.0002   22.6251 F   0  0  0  0  0  0
  -31.4589  -12.5043   19.1712 H   0  0  0  0  0  0
  -30.3280  -11.4400   19.9519 H   0  0  0  0  0  0
  -29.7741  -11.7371   17.5087 H   0  0  0  0  0  0
  -29.6235  -13.4614   17.7382 H   0  0  0  0  0  0
  -27.9013  -11.2695   18.9402 H   0  0  0  0  0  0
  -27.3618  -12.4893   17.8175 H   0  0  0  0  0  0
  -27.6350  -14.2416   19.4634 H   0  0  0  0  0  0
  -28.7035  -12.1821   21.4616 H   0  0  0  0  0  0
  -28.4241  -13.8731   21.7862 H   0  0  0  0  0  0
  -25.2750   -9.5718   22.4776 H   0  0  0  0  0  0
  -24.0009   -7.4657   22.7501 H   0  0  0  0  0  0
  -21.0836   -8.8759   19.8957 H   0  0  0  0  0  0
  -22.3678  -10.9670   19.6186 H   0  0  0  0  0  0
  -21.2003   -7.6148   23.9712 H   0  0  0  0  0  0
  -21.1488   -6.0526   25.9080 H   0  0  0  0  0  0
  -22.0591   -2.7606   23.2845 H   0  0  0  0  0  0
  -22.4082  -11.9880   22.4799 H   0  0  0  0  0  0
  -21.1086  -13.1271   22.2617 H   0  0  0  0  0  0
  -24.6633  -15.8437   20.5629 H   0  0  0  0  0  0
  -26.2771  -15.6341   20.1173 H   0  0  0  0  0  0
  -26.7192  -32.5382   23.1060 H   0  0  0  0  0  0
  -25.0060  -33.9641   25.0356 H   0  0  0  0  0  0
  -22.7172  -31.2984   21.3942 H   0  0  0  0  0  0
  -23.3706  -35.9688   23.3293 H   0  0  0  0  0  0
  -24.3585  -36.8953   22.2048 H   0  0  0  0  0  0
  -23.7270  -37.6534   23.6668 H   0  0  0  0  0  0
  -26.0898  -31.5454   20.5987 H   0  0  0  0  0  0
  -26.8401  -30.8373   21.9970 H   0  0  0  0  0  0
  -28.1083  -28.9793   21.1974 H   0  0  0  0  0  0
  -25.9606  -25.9017   19.0471 H   0  0  0  0  0  0
  -23.9754  -27.2897   19.0221 H   0  0  0  0  0  0
  -23.7636  -30.5820   19.3934 H   0  0  0  0  0  0
  -22.7580  -29.2404   19.8452 H   0  0  0  0  0  0
  -25.1291  -36.1907   25.0788 H   0  0  0  0  0  0
  -20.9963  -28.3243   24.1392 H   0  0  0  0  0  0
  -20.5623  -26.2246   23.3611 H   0  0  0  0  0  0
  -21.6629  -26.7373   22.1232 H   0  0  0  0  0  0
  -19.6908  -25.6279   21.1222 H   0  0  0  0  0  0
  -19.6745  -27.3179   20.6734 H   0  0  0  0  0  0
  -17.4192  -26.6647   21.3993 H   0  0  0  0  0  0
  -18.0339  -26.0110   22.9004 H   0  0  0  0  0  0
  -19.7940  -30.7304   24.2159 H   0  0  0  0  0  0
  -17.5014  -31.6255   24.5184 H   0  0  0  0  0  0
  -15.5347  -30.2958   23.7739 H   0  0  0  0  0  0
  -15.8658  -28.0893   22.6955 H   0  0  0  0  0  0
  -24.5951  -30.6986   25.7885 H   0  0  0  0  0  0
  -24.8722  -32.2983   26.4675 H   0  0  0  0  0  0
  -25.8015  -30.9243   27.0369 H   0  0  0  0  0  0
  -26.2856  -29.6796   24.1203 H   0  0  0  0  0  0
  -27.3798  -29.7245   25.4816 H   0  0  0  0  0  0
  -27.8802  -30.4227   23.9565 H   0  0  0  0  0  0
  -27.2616  -33.3695   26.1999 H   0  0  0  0  0  0
  -28.3897  -32.6779   25.0409 H   0  0  0  0  0  0
  -28.0548  -31.8505   26.5539 H   0  0  0  0  0  0
  -28.2551  -38.0123   24.7501 H   0  0  0  0  0  0
  -28.1066  -36.2646   24.6249 H   0  0  0  0  0  0
  -27.2282  -37.1467   25.8846 H   0  0  0  0  0  0
  -20.9378  -29.8812   21.6947 H   0  0  0  0  0  0
  -26.0133  -38.2826   24.1456 H   0  0  0  0  0  0
  -30.6353  -18.7492   18.9586 H   0  0  0  0  0  0
  -30.1947  -21.1623   18.8138 H   0  0  0  0  0  0
  -27.1287  -20.7609   21.7855 H   0  0  0  0  0  0
  -25.3349  -23.9702   20.7760 H   0  0  0  0  0  0
  -25.6791  -22.5174   21.7021 H   0  0  0  0  0  0
  -27.6179  -23.3575   22.5542 H   0  0  0  0  0  0
  -27.1279  -24.9395   21.9888 H   0  0  0  0  0  0
  -26.2043  -21.6184   19.5612 H   0  0  0  0  0  0
  -26.4270  -23.2061   18.8737 H   0  0  0  0  0  0
  -29.4044  -23.7308   21.1118 H   0  0  0  0  0  0
  -30.3974  -17.2812   22.5493 H   0  0  0  0  0  0
  -31.7083  -17.1241   21.3793 H   0  0  0  0  0  0
  -31.4944  -15.9164   22.6516 H   0  0  0  0  0  0
  -29.4828  -16.5790   19.1813 H   0  0  0  0  0  0
  -28.2084  -16.3297   20.3096 H   0  0  0  0  0  0
  -27.7909  -24.9981   18.8127 H   0  0  0  0  0  0
  -29.4368  -25.0954   19.1780 H   0  0  0  0  0  0
  1 25  1  0  0  0
  1 30  2  0  0  0
  1 86  1  0  0  0
  2  3  1  0  0  0
  2 25  1  0  0  0
  2 90  1  0  0  0
  2 91  1  0  0  0
  3  4  1  0  0  0
  3 92  1  0  0  0
  3 93  1  0  0  0
  4  5  1  0  0  0
  4 94  1  0  0  0
  4 95  1  0  0  0
  5  6  1  0  0  0
  5 26  1  0  0  0
  5 96  1  0  0  0
  6 25  1  0  0  0
  6 97  1  0  0  0
  6 98  1  0  0  0
  7  8  2  0  0  0
  7 26  1  0  0  0
  7 29  1  0  0  0
  8  9  1  0  0  0
  8 22  1  0  0  0
  9 10  1  0  0  0
  9 27  2  0  0  0
 10 11  2  0  0  0
 10 15  1  0  0  0
 11 12  1  0  0  0
 11 99  1  0  0  0
 12 13  2  0  0  0
 12100  1  0  0  0
 13 14  1  0  0  0
 13 31  1  0  0  0
 14 15  2  0  0  0
 14101  1  0  0  0
 15102  1  0  0  0
 16 17  2  0  0  0
 16 21  1  0  0  0
 16 31  1  0  0  0
 17 18  1  0  0  0
 17103  1  0  0  0
 18 19  2  0  0  0
 18104  1  0  0  0
 19 20  1  0  0  0
 19 24  1  0  0  0
 20 21  2  0  0  0
 20105  1  0  0  0
 21 23  1  0  0  0
 22 28  1  0  0  0
 22 32  2  0  0  0
 26 27  1  0  0  0
 28106  1  0  0  0
 28107  1  0  0  0
 29108  1  0  0  0
 29109  1  0  0  0
 33 34  1  0  0  0
 33 66  1  0  0  0
 33 70  2  0  0  0
 34 36  1  0  0  0
 34 59  1  0  0  0
 34110  1  0  0  0
 35 44  2  0  0  0
 35 45  1  0  0  0
 35 68  1  0  0  0
 36 56  1  0  0  0
 36111  1  0  0  0
 37 39  1  0  0  0
 37 47  1  0  0  0
 37 66  1  0  0  0
 37112  1  0  0  0
 38 43  2  0  0  0
 38 46  1  0  0  0
 38 47  1  0  0  0
 39 64  1  0  0  0
 39 67  2  0  0  0
 40 52  1  0  0  0
 40 53  2  0  0  0
 40 58  1  0  0  0
 41113  1  0  0  0
 41114  1  0  0  0
 41115  1  0  0  0
 41 48  1  0  0  0
 42 43  1  0  0  0
 42 66  1  0  0  0
 42116  1  0  0  0
 42117  1  0  0  0
 43 44  1  0  0  0
 44118  1  0  0  0
 45 46  2  0  0  0
 45119  1  0  0  0
 46120  1  0  0  0
 47121  1  0  0  0
 47122  1  0  0  0
 48 56  1  0  0  0
 48 65  1  0  0  0
 48123  1  0  0  0
 49 50  1  0  0  0
 49 53  1  0  0  0
 49 64  1  0  0  0
 49124  1  0  0  0
 50 51  1  0  0  0
 50125  1  0  0  0
 50126  1  0  0  0
 51 52  1  0  0  0
 51127  1  0  0  0
 51128  1  0  0  0
 52129  1  0  0  0
 52130  1  0  0  0
 53 54  1  0  0  0
 54 55  2  0  0  0
 54131  1  0  0  0
 55 57  1  0  0  0
 55132  1  0  0  0
 56 69  2  0  0  0
 57 58  2  0  0  0
 57133  1  0  0  0
 58134  1  0  0  0
 59 60  1  0  0  0
 59 61  1  0  0  0
 59 62  1  0  0  0
 60135  1  0  0  0
 60136  1  0  0  0
 60137  1  0  0  0
 61138  1  0  0  0
 61139  1  0  0  0
 61140  1  0  0  0
 62141  1  0  0  0
 62142  1  0  0  0
 62143  1  0  0  0
 63 65  1  0  0  0
 63144  1  0  0  0
 63145  1  0  0  0
 63146  1  0  0  0
 64147  1  0  0  0
 65148  1  0  0  0
 68 83  1  0  0  0
 71 72  2  0  0  0
 71 74  1  0  0  0
 71149  1  0  0  0
 72 76  1  0  0  0
 72150  1  0  0  0
 73 75  1  0  0  0
 73 76  2  0  0  0
 73151  1  0  0  0
 74 75  2  0  0  0
 74 82  1  0  0  0
 75 84  1  0  0  0
 76 85  1  0  0  0
 77 78  1  0  0  0
 77 79  1  0  0  0
 77152  1  0  0  0
 77153  1  0  0  0
 78 80  1  0  0  0
 78154  1  0  0  0
 78155  1  0  0  0
 79 85  1  0  0  0
 79156  1  0  0  0
 79157  1  0  0  0
 80 83  1  0  0  0
 80 85  1  0  0  0
 80158  1  0  0  0
 81 86  1  0  0  0
 81159  1  0  0  0
 81160  1  0  0  0
 81161  1  0  0  0
 82 86  1  0  0  0
 82162  1  0  0  0
 82163  1  0  0  0
 83164  1  0  0  0
 83165  1  0  0  0
 84 87  1  0  0  0
 84 88  1  0  0  0
 84 89  1  0  0  0
M  ISO  4   1 100  68 101  83 101  86 100
M  END
> <chiral flag>
0

> <version>
0

> <s_m_source_file>
/data/baiqing/PycharmProjects/Reinvent-master-3.2/result/LINK_invent/BTK/process_docking_weight1_custom_product_contain_oxygen_bond_distance_aromatic_linkinvent_7_9_3/rearranged_h_0021.sdf

> <i_m_source_file_index>
86

> <r_mmod_Potential_Energy-OPLS-2005>
391.291076660156

> <r_mmod_Stretch_Energy-OPLS-2005>
94.5408554077148

> <r_mmod_Bend_Energy-OPLS-2005>
212.902114868164

> <r_mmod_Torsional_Energy-OPLS-2005>
367.527740478516

> <r_mmod_Improper_Torsional_Energy-OPLS-2005>
12.4987754821777

> <r_mmod_Van_der_Waal_Energy-OPLS-2005>
140.49592590332

> <r_mmod_Electrostatic_Energy-OPLS-2005>
-298.209075927734

> <r_mmod_Solvation_Energy-OPLS-2005>
-195.188262939453

> <b_mmod_Minimization_Converged-OPLS-2005>
0

> <r_mmod_RMS_Derivative-OPLS-2005>
3.71415543556213

$$$$
86
                    3D
 Structure written by MMmdl.
155164  0  0  1  0            999 V2000
  -30.4955  -15.0585   20.3881 C   0  0  0  0  0  0
  -30.4485  -12.6641   19.4864 C   0  0  0  0  0  0
  -29.5273  -12.5426   18.2498 C   0  0  0  0  0  0
  -28.0629  -12.3110   18.6731 C   0  0  0  0  0  0
  -27.6229  -13.2569   19.8218 C   0  0  2  0  0  0
  -28.6702  -13.3313   20.9512 C   0  0  0  0  0  0
  -25.2443  -13.8221   20.5704 C   0  0  0  0  0  0
  -24.1776  -13.0437   20.9234 C   0  0  0  0  0  0
  -24.6410  -11.6927   20.8742 C   0  0  0  0  0  0
  -23.9094  -10.4290   21.0397 C   0  0  0  0  0  0
  -24.3632   -9.4209   21.9173 C   0  0  0  0  0  0
  -23.6303   -8.2248   22.0749 C   0  0  0  0  0  0
  -22.4290   -8.0272   21.3532 C   0  0  0  0  0  0
  -21.9920   -9.0255   20.4649 C   0  0  0  0  0  0
  -22.7248  -10.2127   20.3048 C   0  0  0  0  0  0
  -21.6866   -6.0734   22.5276 C   0  0  0  0  0  0
  -21.4022   -6.5633   23.8213 C   0  0  0  0  0  0
  -21.3662   -5.6781   24.9172 C   0  0  0  0  0  0
  -21.6039   -4.3047   24.7219 C   0  0  0  0  0  0
  -21.8822   -3.8135   23.4344 C   0  0  0  0  0  0
  -21.9196   -4.6962   22.3401 C   0  0  0  0  0  0
  -22.7793  -13.5201   21.1883 C   0  0  0  0  0  0
  -22.1663   -4.2145   21.0981 F   0  0  0  0  0  0
  -21.5626   -3.4530   25.7732 F   0  0  0  0  0  0
  -29.9249  -13.7799   20.3301 N   0  0  0  0  0  0
  -26.2865  -12.9466   20.3182 N   0  0  0  0  0  0
  -25.9338  -11.6588   20.5697 N   0  0  0  0  0  0
  -22.0442  -12.8196   22.0443 N   0  0  0  0  0  0
  -25.4058  -15.1957   20.4127 N   0  0  0  0  0  0
  -31.7211  -15.1122   20.2271 O   0  0  0  0  0  0
  -21.6638   -6.8882   21.4240 O   0  0  0  0  0  0
  -22.3478  -14.5494   20.6706 O   0  0  0  0  0  0
  -24.6463  -31.8387   23.1834 C   0  0  0  0  0  0
  -25.9221  -32.4669   23.8235 C   0  0  1  0  0  0
  -27.2246  -27.0828   20.1775 C   0  0  0  0  0  0
  -25.5962  -33.8481   24.2158 N   0  0  0  0  0  0
  -23.4529  -30.4535   21.5301 C   0  0  2  0  0  0
  -24.9051  -28.8590   20.1279 C   0  0  0  0  0  0
  -22.7577  -29.4508   22.4859 C   0  0  0  0  0  0
  -18.0303  -28.1369   22.8477 C   0  0  0  0  0  0
  -24.1497  -36.7244   23.2645 C   0  0  0  0  0  0
  -26.0126  -30.6955   21.3917 C   0  0  0  0  0  0
  -26.0851  -29.2958   20.7455 C   0  0  0  0  0  0
  -27.2490  -28.4284   20.7443 C   0  0  0  0  0  0
  -26.0165  -26.7519   19.5322 C   0  0  0  0  0  0
  -24.8846  -27.5999   19.5069 C   0  0  0  0  0  0
  -23.6866  -29.7715   20.1551 C   0  0  0  0  0  0
  -25.4134  -36.3027   24.0316 C   0  0  1  0  0  0
  -20.5919  -28.3708   23.1240 C   0  0  2  0  0  0
  -20.6793  -26.9414   22.5404 C   0  0  0  0  0  0
  -19.5768  -26.6357   21.5213 C   0  0  0  0  0  0
  -18.1942  -26.7902   22.1619 C   0  0  0  0  0  0
  -19.1559  -28.8860   23.2839 C   0  0  0  0  0  0
  -18.9473  -30.1457   23.8861 C   0  0  0  0  0  0
  -17.6470  -30.6578   24.0549 C   0  0  0  0  0  0
  -25.9086  -34.9402   23.5050 C   0  0  0  0  0  0
  -16.5363  -29.9067   23.6341 C   0  0  0  0  0  0
  -16.7283  -28.6483   23.0365 C   0  0  0  0  0  0
  -26.4541  -31.6547   25.0689 C   0  0  0  0  0  0
  -25.3720  -31.3749   26.1379 C   0  0  0  0  0  0
  -27.0420  -30.2930   24.6317 C   0  0  0  0  0  0
  -27.6055  -32.4315   25.7489 C   0  0  0  0  0  0
  -27.5578  -37.1783   24.8463 C   0  0  0  0  0  0
  -21.4269  -29.3028   22.3609 N   0  0  0  0  0  0
  -26.4294  -37.3743   23.9402 N   0  0  0  0  0  0
  -24.7236  -31.0200   22.0889 N   0  0  0  0  0  0
  -23.4205  -28.8071   23.3034 O   0  0  0  0  0  0
  -28.2939  -26.1090   20.0749 O   0  0  0  0  0  0
  -26.5675  -34.8910   22.4631 O   0  0  0  0  0  0
  -23.5582  -32.1289   23.7038 O   0  0  0  0  0  0
  -28.2571  -23.1548   20.2879 C   0  0  0  0  0  0
  -31.4922  -21.2002   20.2679 C   0  0  0  0  0  0
  -31.0758  -18.6208   20.7236 C   0  0  0  0  0  0
  -28.8642  -19.0866   20.0715 C   0  0  0  0  0  0
  -30.6365  -22.4753   20.3641 C   0  0  0  0  0  0
  -30.7354  -20.1431   21.0657 C   0  0  2  0  0  0
  -29.2502  -20.5234   20.8053 C   0  0  1  0  0  0
  -29.7465  -17.8327   20.7295 C   0  0  1  0  0  0
  -28.4237  -24.7446   20.8495 C   0  0  0  0  0  0
  -29.2222  -22.0828   20.3749 N   0  0  0  0  0  0
  -29.6719  -16.2450   20.4145 N   0  0  0  0  0  0
  -27.1168  -22.8523   19.9247 O   0  0  0  0  0  0
  -31.4760  -12.8490   19.1672 H   0  0  0  0  0  0
  -30.4737  -11.7289   20.0478 H   0  0  0  0  0  0
  -29.8671  -11.7330   17.6023 H   0  0  0  0  0  0
  -29.5956  -13.4555   17.6550 H   0  0  0  0  0  0
  -27.9750  -11.2742   18.9979 H   0  0  0  0  0  0
  -27.3988  -12.4174   17.8148 H   0  0  0  0  0  0
  -27.5670  -14.2473   19.3688 H   0  0  0  0  0  0
  -28.7902  -12.3671   21.4483 H   0  0  0  0  0  0
  -28.3557  -14.0421   21.7175 H   0  0  0  0  0  0
  -25.2788   -9.5687   22.4737 H   0  0  0  0  0  0
  -24.0017   -7.4640   22.7462 H   0  0  0  0  0  0
  -21.0846   -8.8771   19.8965 H   0  0  0  0  0  0
  -22.3709  -10.9656   19.6147 H   0  0  0  0  0  0
  -21.2025   -7.6140   23.9725 H   0  0  0  0  0  0
  -21.1477   -6.0504   25.9077 H   0  0  0  0  0  0
  -22.0603   -2.7602   23.2840 H   0  0  0  0  0  0
  -22.4061  -11.9887   22.4872 H   0  0  0  0  0  0
  -21.1048  -13.1210   22.2618 H   0  0  0  0  0  0
  -24.6280  -15.8368   20.5227 H   0  0  0  0  0  0
  -26.2374  -15.6445   20.0545 H   0  0  0  0  0  0
  -26.7273  -32.5270   23.0953 H   0  0  0  0  0  0
  -25.0107  -33.9587   25.0306 H   0  0  0  0  0  0
  -22.7585  -31.2803   21.3677 H   0  0  0  0  0  0
  -23.3776  -35.9554   23.3284 H   0  0  0  0  0  0
  -24.3585  -36.8900   22.2059 H   0  0  0  0  0  0
  -23.7232  -37.6429   23.6695 H   0  0  0  0  0  0
  -26.1749  -31.4433   20.6140 H   0  0  0  0  0  0
  -26.8807  -30.7519   22.0371 H   0  0  0  0  0  0
  -28.1603  -28.7740   21.2141 H   0  0  0  0  0  0
  -25.9453  -25.7900   19.0432 H   0  0  0  0  0  0
  -23.9867  -27.2603   19.0099 H   0  0  0  0  0  0
  -23.8363  -30.5397   19.3960 H   0  0  0  0  0  0
  -22.8004  -29.2179   19.8400 H   0  0  0  0  0  0
  -25.1325  -36.1849   25.0811 H   0  0  0  0  0  0
  -21.0006  -28.3285   24.1364 H   0  0  0  0  0  0
  -20.5692  -26.2315   23.3615 H   0  0  0  0  0  0
  -21.6657  -26.7405   22.1203 H   0  0  0  0  0  0
  -19.6937  -25.6261   21.1253 H   0  0  0  0  0  0
  -19.6706  -27.3161   20.6740 H   0  0  0  0  0  0
  -17.4218  -26.6648   21.4015 H   0  0  0  0  0  0
  -18.0342  -26.0035   22.9008 H   0  0  0  0  0  0
  -19.7959  -30.7270   24.2210 H   0  0  0  0  0  0
  -17.5035  -31.6263   24.5135 H   0  0  0  0  0  0
  -15.5366  -30.2959   23.7678 H   0  0  0  0  0  0
  -15.8682  -28.0784   22.7110 H   0  0  0  0  0  0
  -24.5882  -30.7127   25.7684 H   0  0  0  0  0  0
  -24.8949  -32.2950   26.4761 H   0  0  0  0  0  0
  -25.7999  -30.8924   27.0175 H   0  0  0  0  0  0
  -26.3054  -29.6620   24.1329 H   0  0  0  0  0  0
  -27.4014  -29.7262   25.4917 H   0  0  0  0  0  0
  -27.8973  -30.4140   23.9664 H   0  0  0  0  0  0
  -27.2628  -33.3625   26.2015 H   0  0  0  0  0  0
  -28.3910  -32.6847   25.0355 H   0  0  0  0  0  0
  -28.0675  -31.8466   26.5456 H   0  0  0  0  0  0
  -28.2584  -38.0090   24.7524 H   0  0  0  0  0  0
  -28.1085  -36.2621   24.6280 H   0  0  0  0  0  0
  -27.2294  -37.1420   25.8865 H   0  0  0  0  0  0
  -20.9484  -29.8739   21.6782 H   0  0  0  0  0  0
  -26.0159  -38.2810   24.1397 H   0  0  0  0  0  0
  -32.5074  -21.3524   20.6376 H   0  0  0  0  0  0
  -31.5675  -20.8978   19.2224 H   0  0  0  0  0  0
  -31.7998  -18.2101   21.4271 H   0  0  0  0  0  0
  -31.5276  -18.5528   19.7328 H   0  0  0  0  0  0
  -29.0777  -19.1588   19.0040 H   0  0  0  0  0  0
  -27.7934  -18.8969   20.1524 H   0  0  0  0  0  0
  -30.8615  -23.1646   19.5482 H   0  0  0  0  0  0
  -30.8688  -22.9862   21.2999 H   0  0  0  0  0  0
  -30.9354  -20.3102   22.1258 H   0  0  0  0  0  0
  -28.7288  -20.5015   21.7633 H   0  0  0  0  0  0
  -29.4339  -17.8283   21.7747 H   0  0  0  0  0  0
  -29.3987  -24.7921   21.3317 H   0  0  0  0  0  0
  -27.7198  -24.8204   21.6784 H   0  0  0  0  0  0
  -28.7071  -15.9582   20.3494 H   0  0  0  0  0  0
  1 25  1  0  0  0
  1 30  2  0  0  0
  1 81  1  0  0  0
  2  3  1  0  0  0
  2 25  1  0  0  0
  2 83  1  0  0  0
  2 84  1  0  0  0
  3  4  1  0  0  0
  3 85  1  0  0  0
  3 86  1  0  0  0
  4  5  1  0  0  0
  4 87  1  0  0  0
  4 88  1  0  0  0
  5  6  1  0  0  0
  5 26  1  0  0  0
  5 89  1  0  0  0
  6 25  1  0  0  0
  6 90  1  0  0  0
  6 91  1  0  0  0
  7  8  2  0  0  0
  7 26  1  0  0  0
  7 29  1  0  0  0
  8  9  1  0  0  0
  8 22  1  0  0  0
  9 10  1  0  0  0
  9 27  2  0  0  0
 10 11  2  0  0  0
 10 15  1  0  0  0
 11 12  1  0  0  0
 11 92  1  0  0  0
 12 13  2  0  0  0
 12 93  1  0  0  0
 13 14  1  0  0  0
 13 31  1  0  0  0
 14 15  2  0  0  0
 14 94  1  0  0  0
 15 95  1  0  0  0
 16 17  2  0  0  0
 16 21  1  0  0  0
 16 31  1  0  0  0
 17 18  1  0  0  0
 17 96  1  0  0  0
 18 19  2  0  0  0
 18 97  1  0  0  0
 19 20  1  0  0  0
 19 24  1  0  0  0
 20 21  2  0  0  0
 20 98  1  0  0  0
 21 23  1  0  0  0
 22 28  1  0  0  0
 22 32  2  0  0  0
 26 27  1  0  0  0
 28 99  1  0  0  0
 28100  1  0  0  0
 29101  1  0  0  0
 29102  1  0  0  0
 33 34  1  0  0  0
 33 66  1  0  0  0
 33 70  2  0  0  0
 34 36  1  0  0  0
 34 59  1  0  0  0
 34103  1  0  0  0
 35 44  2  0  0  0
 35 45  1  0  0  0
 35 68  1  0  0  0
 36 56  1  0  0  0
 36104  1  0  0  0
 37 39  1  0  0  0
 37 47  1  0  0  0
 37 66  1  0  0  0
 37105  1  0  0  0
 38 43  2  0  0  0
 38 46  1  0  0  0
 38 47  1  0  0  0
 39 64  1  0  0  0
 39 67  2  0  0  0
 40 52  1  0  0  0
 40 53  2  0  0  0
 40 58  1  0  0  0
 41106  1  0  0  0
 41107  1  0  0  0
 41108  1  0  0  0
 41 48  1  0  0  0
 42 43  1  0  0  0
 42 66  1  0  0  0
 42109  1  0  0  0
 42110  1  0  0  0
 43 44  1  0  0  0
 44111  1  0  0  0
 45 46  2  0  0  0
 45112  1  0  0  0
 46113  1  0  0  0
 47114  1  0  0  0
 47115  1  0  0  0
 48 56  1  0  0  0
 48 65  1  0  0  0
 48116  1  0  0  0
 49 50  1  0  0  0
 49 53  1  0  0  0
 49 64  1  0  0  0
 49117  1  0  0  0
 50 51  1  0  0  0
 50118  1  0  0  0
 50119  1  0  0  0
 51 52  1  0  0  0
 51120  1  0  0  0
 51121  1  0  0  0
 52122  1  0  0  0
 52123  1  0  0  0
 53 54  1  0  0  0
 54 55  2  0  0  0
 54124  1  0  0  0
 55 57  1  0  0  0
 55125  1  0  0  0
 56 69  2  0  0  0
 57 58  2  0  0  0
 57126  1  0  0  0
 58127  1  0  0  0
 59 60  1  0  0  0
 59 61  1  0  0  0
 59 62  1  0  0  0
 60128  1  0  0  0
 60129  1  0  0  0
 60130  1  0  0  0
 61131  1  0  0  0
 61132  1  0  0  0
 61133  1  0  0  0
 62134  1  0  0  0
 62135  1  0  0  0
 62136  1  0  0  0
 63 65  1  0  0  0
 63137  1  0  0  0
 63138  1  0  0  0
 63139  1  0  0  0
 64140  1  0  0  0
 65141  1  0  0  0
 68 79  1  0  0  0
 71 79  1  0  0  0
 71 80  1  0  0  0
 71 82  2  0  0  0
 72 75  1  0  0  0
 72142  1  0  0  0
 72143  1  0  0  0
 72 76  1  0  0  0
 73 76  1  0  0  0
 73 78  1  0  0  0
 73144  1  0  0  0
 73145  1  0  0  0
 74 78  1  0  0  0
 74146  1  0  0  0
 74147  1  0  0  0
 74 77  1  0  0  0
 75 80  1  0  0  0
 75148  1  0  0  0
 75149  1  0  0  0
 76 77  1  0  0  0
 76150  1  0  0  0
 77 80  1  0  0  0
 77151  1  0  0  0
 78 81  1  0  0  0
 78152  1  0  0  0
 79153  1  0  0  0
 79154  1  0  0  0
 81155  1  0  0  0
M  ISO  4   1 100  68 101  79 101  81 100
M  END
> <chiral flag>
0

> <version>
0

> <s_m_source_file>
/data/baiqing/PycharmProjects/Reinvent-master-3.2/result/LINK_invent/BTK/process_docking_weight1_custom_product_contain_oxygen_bond_distance_aromatic_linkinvent_7_9_3/rearranged_h_0021.sdf

> <i_m_source_file_index>
87

> <r_mmod_Potential_Energy-OPLS-2005>
967.411315917969

> <r_mmod_Stretch_Energy-OPLS-2005>
324.359039306641

> <r_mmod_Bend_Energy-OPLS-2005>
456.279541015625

> <r_mmod_Torsional_Energy-OPLS-2005>
376.283294677734

> <r_mmod_Improper_Torsional_Energy-OPLS-2005>
8.65994644165039

> <r_mmod_Van_der_Waal_Energy-OPLS-2005>
100.099784851074

> <r_mmod_Electrostatic_Energy-OPLS-2005>
-315.008148193359

> <r_mmod_Solvation_Energy-OPLS-2005>
-239.304107666016

> <b_mmod_Minimization_Converged-OPLS-2005>
0

> <r_mmod_RMS_Derivative-OPLS-2005>
2.17231822013855

$$$$
87
                    3D
 Structure written by MMmdl.
159168  0  0  1  0            999 V2000
  -30.6573  -14.6762   20.4987 C   0  0  0  0  0  0
  -30.4181  -12.4224   19.4615 C   0  0  0  0  0  0
  -29.4984  -12.5056   18.2261 C   0  0  0  0  0  0
  -28.0259  -12.3348   18.6430 C   0  0  0  0  0  0
  -27.6400  -13.2283   19.8518 C   0  0  2  0  0  0
  -28.6833  -13.1469   20.9865 C   0  0  0  0  0  0
  -25.2491  -13.8191   20.5688 C   0  0  0  0  0  0
  -24.1790  -13.0437   20.9214 C   0  0  0  0  0  0
  -24.6382  -11.6917   20.8758 C   0  0  0  0  0  0
  -23.9064  -10.4293   21.0414 C   0  0  0  0  0  0
  -24.3616   -9.4208   21.9188 C   0  0  0  0  0  0
  -23.6292   -8.2243   22.0755 C   0  0  0  0  0  0
  -22.4276   -8.0281   21.3544 C   0  0  0  0  0  0
  -21.9911   -9.0255   20.4646 C   0  0  0  0  0  0
  -22.7240  -10.2135   20.3059 C   0  0  0  0  0  0
  -21.6852   -6.0737   22.5278 C   0  0  0  0  0  0
  -21.4013   -6.5639   23.8212 C   0  0  0  0  0  0
  -21.3659   -5.6792   24.9174 C   0  0  0  0  0  0
  -21.6044   -4.3056   24.7225 C   0  0  0  0  0  0
  -21.8819   -3.8148   23.4345 C   0  0  0  0  0  0
  -21.9192   -4.6966   22.3401 C   0  0  0  0  0  0
  -22.7813  -13.5220   21.1869 C   0  0  0  0  0  0
  -22.1661   -4.2152   21.0979 F   0  0  0  0  0  0
  -21.5629   -3.4538   25.7737 F   0  0  0  0  0  0
  -29.9898  -13.4783   20.4064 N   0  0  0  0  0  0
  -26.2919  -12.9398   20.3289 N   0  0  0  0  0  0
  -25.9310  -11.6543   20.5765 N   0  0  0  0  0  0
  -22.0459  -12.8209   22.0426 N   0  0  0  0  0  0
  -25.4150  -15.1912   20.4071 N   0  0  0  0  0  0
  -31.8297  -14.7556   20.1169 O   0  0  0  0  0  0
  -21.6637   -6.8881   21.4242 O   0  0  0  0  0  0
  -22.3499  -14.5526   20.6716 O   0  0  0  0  0  0
  -24.6259  -31.8564   23.1975 C   0  0  0  0  0  0
  -25.9103  -32.4755   23.8313 C   0  0  1  0  0  0
  -27.2298  -27.3027   20.1211 C   0  0  0  0  0  0
  -25.5916  -33.8558   24.2247 N   0  0  0  0  0  0
  -23.4195  -30.4759   21.5405 C   0  0  2  0  0  0
  -24.8646  -28.9179   20.1113 C   0  0  0  0  0  0
  -22.7467  -29.4599   22.4935 C   0  0  0  0  0  0
  -18.0282  -28.1377   22.8485 C   0  0  0  0  0  0
  -24.1487  -36.7285   23.2641 C   0  0  0  0  0  0
  -25.9577  -30.7838   21.3654 C   0  0  0  0  0  0
  -26.0304  -29.4074   20.7103 C   0  0  0  0  0  0
  -27.2108  -28.6111   20.7002 C   0  0  0  0  0  0
  -26.0359  -26.8492   19.5234 C   0  0  0  0  0  0
  -24.8695  -27.6456   19.5107 C   0  0  0  0  0  0
  -23.6333  -29.8014   20.1578 C   0  0  0  0  0  0
  -25.4114  -36.3070   24.0326 C   0  0  1  0  0  0
  -20.5880  -28.3679   23.1290 C   0  0  2  0  0  0
  -20.6769  -26.9402   22.5416 C   0  0  0  0  0  0
  -19.5748  -26.6380   21.5212 C   0  0  0  0  0  0
  -18.1926  -26.7921   22.1619 C   0  0  0  0  0  0
  -19.1534  -28.8846   23.2882 C   0  0  0  0  0  0
  -18.9459  -30.1448   23.8898 C   0  0  0  0  0  0
  -17.6461  -30.6583   24.0560 C   0  0  0  0  0  0
  -25.9054  -34.9440   23.5092 C   0  0  0  0  0  0
  -16.5351  -29.9083   23.6328 C   0  0  0  0  0  0
  -16.7270  -28.6499   23.0351 C   0  0  0  0  0  0
  -26.4493  -31.6579   25.0694 C   0  0  0  0  0  0
  -25.3730  -31.3715   26.1425 C   0  0  0  0  0  0
  -27.0342  -30.3008   24.6148 C   0  0  0  0  0  0
  -27.6048  -32.4321   25.7469 C   0  0  0  0  0  0
  -27.5579  -37.1792   24.8462 C   0  0  0  0  0  0
  -21.4182  -29.3030   22.3683 N   0  0  0  0  0  0
  -26.4286  -37.3771   23.9413 N   0  0  0  0  0  0
  -24.6868  -31.0565   22.0920 N   0  0  0  0  0  0
  -23.4189  -28.8158   23.3030 O   0  0  0  0  0  0
  -28.3993  -26.5325   20.1884 O   0  0  0  0  0  0
  -26.5633  -34.8916   22.4666 O   0  0  0  0  0  0
  -23.5426  -32.1368   23.7308 O   0  0  0  0  0  0
  -28.5908  -19.1191   21.2113 C   0  0  0  0  0  0
  -29.4480  -20.3964   18.9019 C   0  0  0  0  0  0
  -29.1529  -18.2866   20.1979 C   0  0  0  0  0  0
  -28.8432  -21.2372   19.8841 C   0  0  0  0  0  0
  -28.4439  -20.5424   21.0683 C   0  0  0  0  0  0
  -29.5978  -18.9847   19.0459 C   0  0  0  0  0  0
  -28.4480  -24.7068   18.3100 C   0  0  0  0  0  0
  -28.8809  -23.2199   18.2932 C   0  0  0  0  0  0
  -28.2481  -23.7835   20.5339 C   0  0  0  0  0  0
  -28.6284  -25.1208   19.7708 C   0  0  2  0  0  0
  -30.7107  -16.5207   22.0777 C   0  0  0  0  0  0
  -29.0913  -16.6944   20.2160 C   0  0  0  0  0  0
  -28.6472  -22.6594   19.6300 N   0  0  0  0  0  0
  -30.0214  -15.7990   21.0069 N   0  0  0  0  0  0
  -27.8660  -21.2349   22.0801 F   0  0  0  0  0  0
  -30.1394  -18.2837   18.0212 F   0  0  0  0  0  0
  -31.4611  -12.5265   19.1583 H   0  0  0  0  0  0
  -30.3440  -11.4410   19.9329 H   0  0  0  0  0  0
  -29.7722  -11.7403   17.4985 H   0  0  0  0  0  0
  -29.6324  -13.4666   17.7267 H   0  0  0  0  0  0
  -27.8779  -11.2851   18.8988 H   0  0  0  0  0  0
  -27.3668  -12.5363   17.7978 H   0  0  0  0  0  0
  -27.6386  -14.2516   19.4788 H   0  0  0  0  0  0
  -28.7053  -12.1484   21.4252 H   0  0  0  0  0  0
  -28.4238  -13.8309   21.7961 H   0  0  0  0  0  0
  -25.2761   -9.5685   22.4764 H   0  0  0  0  0  0
  -24.0003   -7.4634   22.7474 H   0  0  0  0  0  0
  -21.0844   -8.8776   19.8949 H   0  0  0  0  0  0
  -22.3700  -10.9676   19.6170 H   0  0  0  0  0  0
  -21.2006   -7.6148   23.9718 H   0  0  0  0  0  0
  -21.1481   -6.0521   25.9077 H   0  0  0  0  0  0
  -22.0598   -2.7611   23.2843 H   0  0  0  0  0  0
  -22.4077  -11.9873   22.4814 H   0  0  0  0  0  0
  -21.1076  -13.1233   22.2630 H   0  0  0  0  0  0
  -24.6415  -15.8391   20.5102 H   0  0  0  0  0  0
  -26.2535  -15.6299   20.0526 H   0  0  0  0  0  0
  -26.7165  -32.5418   23.1054 H   0  0  0  0  0  0
  -25.0055  -33.9698   25.0386 H   0  0  0  0  0  0
  -22.7134  -31.2957   21.3934 H   0  0  0  0  0  0
  -23.3752  -35.9613   23.3290 H   0  0  0  0  0  0
  -24.3580  -36.8927   22.2057 H   0  0  0  0  0  0
  -23.7237  -37.6478   23.6680 H   0  0  0  0  0  0
  -26.0862  -31.5451   20.5947 H   0  0  0  0  0  0
  -26.8392  -30.8362   21.9930 H   0  0  0  0  0  0
  -28.1101  -28.9867   21.1682 H   0  0  0  0  0  0
  -25.9753  -25.8648   19.0902 H   0  0  0  0  0  0
  -23.9692  -27.2589   19.0532 H   0  0  0  0  0  0
  -23.7530  -30.5737   19.3970 H   0  0  0  0  0  0
  -22.7524  -29.2304   19.8587 H   0  0  0  0  0  0
  -25.1293  -36.1914   25.0817 H   0  0  0  0  0  0
  -20.9967  -28.3254   24.1412 H   0  0  0  0  0  0
  -20.5664  -26.2287   23.3613 H   0  0  0  0  0  0
  -21.6639  -26.7430   22.1215 H   0  0  0  0  0  0
  -19.6912  -25.6292   21.1238 H   0  0  0  0  0  0
  -19.6689  -27.3191   20.6742 H   0  0  0  0  0  0
  -17.4197  -26.6671   21.4019 H   0  0  0  0  0  0
  -18.0323  -26.0059   22.9012 H   0  0  0  0  0  0
  -19.7936  -30.7259   24.2271 H   0  0  0  0  0  0
  -17.5018  -31.6264   24.5158 H   0  0  0  0  0  0
  -15.5353  -30.2986   23.7652 H   0  0  0  0  0  0
  -15.8668  -28.0822   22.7067 H   0  0  0  0  0  0
  -24.5909  -30.7057   25.7759 H   0  0  0  0  0  0
  -24.8912  -32.2877   26.4846 H   0  0  0  0  0  0
  -25.8058  -30.8901   27.0203 H   0  0  0  0  0  0
  -26.2911  -29.6745   24.1197 H   0  0  0  0  0  0
  -27.4077  -29.7276   25.4644 H   0  0  0  0  0  0
  -27.8759  -30.4301   23.9340 H   0  0  0  0  0  0
  -27.2659  -33.3634   26.2020 H   0  0  0  0  0  0
  -28.3871  -32.6863   25.0305 H   0  0  0  0  0  0
  -28.0698  -31.8463   26.5407 H   0  0  0  0  0  0
  -28.2580  -38.0104   24.7530 H   0  0  0  0  0  0
  -28.1092  -36.2636   24.6261 H   0  0  0  0  0  0
  -27.2300  -37.1408   25.8865 H   0  0  0  0  0  0
  -20.9361  -29.8748   21.6890 H   0  0  0  0  0  0
  -26.0163  -38.2840   24.1431 H   0  0  0  0  0  0
  -28.2077  -18.6579   22.1092 H   0  0  0  0  0  0
  -29.7982  -20.8194   17.9738 H   0  0  0  0  0  0
  -27.4103  -24.7814   17.9944 H   0  0  0  0  0  0
  -29.0441  -25.3128   17.6270 H   0  0  0  0  0  0
  -29.9455  -23.1516   18.0622 H   0  0  0  0  0  0
  -28.3378  -22.6681   17.5241 H   0  0  0  0  0  0
  -27.1746  -23.7393   20.7229 H   0  0  0  0  0  0
  -28.7603  -23.7180   21.4951 H   0  0  0  0  0  0
  -29.7146  -25.1254   19.8808 H   0  0  0  0  0  0
  -29.9963  -17.0404   22.7159 H   0  0  0  0  0  0
  -31.4051  -17.2544   21.6655 H   0  0  0  0  0  0
  -31.2802  -15.8455   22.7194 H   0  0  0  0  0  0
  -29.1114  -16.3570   19.1782 H   0  0  0  0  0  0
  -28.0886  -16.4449   20.5617 H   0  0  0  0  0  0
  1 25  1  0  0  0
  1 30  2  0  0  0
  1 84  1  0  0  0
  2  3  1  0  0  0
  2 25  1  0  0  0
  2 87  1  0  0  0
  2 88  1  0  0  0
  3  4  1  0  0  0
  3 89  1  0  0  0
  3 90  1  0  0  0
  4  5  1  0  0  0
  4 91  1  0  0  0
  4 92  1  0  0  0
  5  6  1  0  0  0
  5 26  1  0  0  0
  5 93  1  0  0  0
  6 25  1  0  0  0
  6 94  1  0  0  0
  6 95  1  0  0  0
  7  8  2  0  0  0
  7 26  1  0  0  0
  7 29  1  0  0  0
  8  9  1  0  0  0
  8 22  1  0  0  0
  9 10  1  0  0  0
  9 27  2  0  0  0
 10 11  2  0  0  0
 10 15  1  0  0  0
 11 12  1  0  0  0
 11 96  1  0  0  0
 12 13  2  0  0  0
 12 97  1  0  0  0
 13 14  1  0  0  0
 13 31  1  0  0  0
 14 15  2  0  0  0
 14 98  1  0  0  0
 15 99  1  0  0  0
 16 17  2  0  0  0
 16 21  1  0  0  0
 16 31  1  0  0  0
 17 18  1  0  0  0
 17100  1  0  0  0
 18 19  2  0  0  0
 18101  1  0  0  0
 19 20  1  0  0  0
 19 24  1  0  0  0
 20 21  2  0  0  0
 20102  1  0  0  0
 21 23  1  0  0  0
 22 28  1  0  0  0
 22 32  2  0  0  0
 26 27  1  0  0  0
 28103  1  0  0  0
 28104  1  0  0  0
 29105  1  0  0  0
 29106  1  0  0  0
 33 34  1  0  0  0
 33 66  1  0  0  0
 33 70  2  0  0  0
 34 36  1  0  0  0
 34 59  1  0  0  0
 34107  1  0  0  0
 35 44  2  0  0  0
 35 45  1  0  0  0
 35 68  1  0  0  0
 36 56  1  0  0  0
 36108  1  0  0  0
 37 39  1  0  0  0
 37 47  1  0  0  0
 37 66  1  0  0  0
 37109  1  0  0  0
 38 43  2  0  0  0
 38 46  1  0  0  0
 38 47  1  0  0  0
 39 64  1  0  0  0
 39 67  2  0  0  0
 40 52  1  0  0  0
 40 53  2  0  0  0
 40 58  1  0  0  0
 41110  1  0  0  0
 41111  1  0  0  0
 41112  1  0  0  0
 41 48  1  0  0  0
 42 43  1  0  0  0
 42 66  1  0  0  0
 42113  1  0  0  0
 42114  1  0  0  0
 43 44  1  0  0  0
 44115  1  0  0  0
 45 46  2  0  0  0
 45116  1  0  0  0
 46117  1  0  0  0
 47118  1  0  0  0
 47119  1  0  0  0
 48 56  1  0  0  0
 48 65  1  0  0  0
 48120  1  0  0  0
 49 50  1  0  0  0
 49 53  1  0  0  0
 49 64  1  0  0  0
 49121  1  0  0  0
 50 51  1  0  0  0
 50122  1  0  0  0
 50123  1  0  0  0
 51 52  1  0  0  0
 51124  1  0  0  0
 51125  1  0  0  0
 52126  1  0  0  0
 52127  1  0  0  0
 53 54  1  0  0  0
 54 55  2  0  0  0
 54128  1  0  0  0
 55 57  1  0  0  0
 55129  1  0  0  0
 56 69  2  0  0  0
 57 58  2  0  0  0
 57130  1  0  0  0
 58131  1  0  0  0
 59 60  1  0  0  0
 59 61  1  0  0  0
 59 62  1  0  0  0
 60132  1  0  0  0
 60133  1  0  0  0
 60134  1  0  0  0
 61135  1  0  0  0
 61136  1  0  0  0
 61137  1  0  0  0
 62138  1  0  0  0
 62139  1  0  0  0
 62140  1  0  0  0
 63 65  1  0  0  0
 63141  1  0  0  0
 63142  1  0  0  0
 63143  1  0  0  0
 64144  1  0  0  0
 65145  1  0  0  0
 68 80  1  0  0  0
 71 73  2  0  0  0
 71 75  1  0  0  0
 71146  1  0  0  0
 72 74  1  0  0  0
 72 76  2  0  0  0
 72147  1  0  0  0
 73 76  1  0  0  0
 73 82  1  0  0  0
 74 75  2  0  0  0
 74 83  1  0  0  0
 75 85  1  0  0  0
 76 86  1  0  0  0
 77 78  1  0  0  0
 77 80  1  0  0  0
 77148  1  0  0  0
 77149  1  0  0  0
 78 83  1  0  0  0
 78150  1  0  0  0
 78151  1  0  0  0
 79 80  1  0  0  0
 79 83  1  0  0  0
 79152  1  0  0  0
 79153  1  0  0  0
 80154  1  0  0  0
 81 84  1  0  0  0
 81155  1  0  0  0
 81156  1  0  0  0
 81157  1  0  0  0
 82 84  1  0  0  0
 82158  1  0  0  0
 82159  1  0  0  0
M  ISO  4   1 100  68 101  80 101  84 100
M  END
> <chiral flag>
0

> <version>
0

> <s_m_source_file>
/data/baiqing/PycharmProjects/Reinvent-master-3.2/result/LINK_invent/BTK/process_docking_weight1_custom_product_contain_oxygen_bond_distance_aromatic_linkinvent_7_9_3/rearranged_h_0021.sdf

> <i_m_source_file_index>
88

> <r_mmod_Potential_Energy-OPLS-2005>
378.776336669922

> <r_mmod_Stretch_Energy-OPLS-2005>
94.0292816162109

> <r_mmod_Bend_Energy-OPLS-2005>
265.221984863281

> <r_mmod_Torsional_Energy-OPLS-2005>
305.742248535156

> <r_mmod_Improper_Torsional_Energy-OPLS-2005>
5.00857639312744

> <r_mmod_Van_der_Waal_Energy-OPLS-2005>
134.691299438477

> <r_mmod_Electrostatic_Energy-OPLS-2005>
-269.838287353516

> <r_mmod_Solvation_Energy-OPLS-2005>
-212.181289672852

> <b_mmod_Minimization_Converged-OPLS-2005>
0

> <r_mmod_RMS_Derivative-OPLS-2005>
0.337870121002197

$$$$
88
                    3D
 Structure written by MMmdl.
155164  0  0  1  0            999 V2000
  -30.5953  -14.6687   20.4614 C   0  0  0  0  0  0
  -30.4390  -12.4044   19.4569 C   0  0  0  0  0  0
  -29.5132  -12.5093   18.2247 C   0  0  0  0  0  0
  -28.0331  -12.3582   18.6277 C   0  0  0  0  0  0
  -27.6547  -13.2245   19.8590 C   0  0  2  0  0  0
  -28.6989  -13.0804   20.9893 C   0  0  0  0  0  0
  -25.2597  -13.8211   20.5733 C   0  0  0  0  0  0
  -24.1858  -13.0469   20.9209 C   0  0  0  0  0  0
  -24.6422  -11.6943   20.8731 C   0  0  0  0  0  0
  -23.9072  -10.4323   21.0383 C   0  0  0  0  0  0
  -24.3616   -9.4242   21.9168 C   0  0  0  0  0  0
  -23.6302   -8.2271   22.0743 C   0  0  0  0  0  0
  -22.4288   -8.0297   21.3535 C   0  0  0  0  0  0
  -21.9907   -9.0271   20.4650 C   0  0  0  0  0  0
  -22.7234  -10.2150   20.3049 C   0  0  0  0  0  0
  -21.6868   -6.0741   22.5284 C   0  0  0  0  0  0
  -21.4024   -6.5630   23.8216 C   0  0  0  0  0  0
  -21.3655   -5.6779   24.9171 C   0  0  0  0  0  0
  -21.6050   -4.3042   24.7227 C   0  0  0  0  0  0
  -21.8812   -3.8141   23.4343 C   0  0  0  0  0  0
  -21.9198   -4.6965   22.3401 C   0  0  0  0  0  0
  -22.7870  -13.5255   21.1856 C   0  0  0  0  0  0
  -22.1670   -4.2153   21.0978 F   0  0  0  0  0  0
  -21.5612   -3.4522   25.7732 F   0  0  0  0  0  0
  -30.0128  -13.4281   20.4283 N   0  0  0  0  0  0
  -26.3015  -12.9397   20.3319 N   0  0  0  0  0  0
  -25.9352  -11.6538   20.5748 N   0  0  0  0  0  0
  -22.0463  -12.8293   22.0405 N   0  0  0  0  0  0
  -25.4298  -15.1933   20.4160 N   0  0  0  0  0  0
  -31.7531  -14.8417   20.0700 O   0  0  0  0  0  0
  -21.6648   -6.8901   21.4255 O   0  0  0  0  0  0
  -22.3561  -14.5530   20.6656 O   0  0  0  0  0  0
  -24.6243  -31.8606   23.1995 C   0  0  0  0  0  0
  -25.9086  -32.4782   23.8323 C   0  0  1  0  0  0
  -27.2134  -27.3086   20.1198 C   0  0  0  0  0  0
  -25.5876  -33.8580   24.2225 N   0  0  0  0  0  0
  -23.4196  -30.4826   21.5410 C   0  0  2  0  0  0
  -24.8666  -28.9365   20.1084 C   0  0  0  0  0  0
  -22.7466  -29.4625   22.4891 C   0  0  0  0  0  0
  -18.0286  -28.1386   22.8488 C   0  0  0  0  0  0
  -24.1468  -36.7317   23.2637 C   0  0  0  0  0  0
  -25.9614  -30.7888   21.3718 C   0  0  0  0  0  0
  -26.0352  -29.4157   20.7106 C   0  0  0  0  0  0
  -27.2169  -28.6153   20.7026 C   0  0  0  0  0  0
  -26.0235  -26.8827   19.4925 C   0  0  0  0  0  0
  -24.8621  -27.6746   19.4909 C   0  0  0  0  0  0
  -23.6355  -29.8166   20.1574 C   0  0  0  0  0  0
  -25.4104  -36.3079   24.0309 C   0  0  1  0  0  0
  -20.5887  -28.3688   23.1274 C   0  0  2  0  0  0
  -20.6766  -26.9403   22.5415 C   0  0  0  0  0  0
  -19.5737  -26.6378   21.5218 C   0  0  0  0  0  0
  -18.1921  -26.7929   22.1634 C   0  0  0  0  0  0
  -19.1542  -28.8854   23.2886 C   0  0  0  0  0  0
  -18.9466  -30.1451   23.8902 C   0  0  0  0  0  0
  -17.6475  -30.6596   24.0565 C   0  0  0  0  0  0
  -25.9048  -34.9454   23.5080 C   0  0  0  0  0  0
  -16.5364  -29.9094   23.6323 C   0  0  0  0  0  0
  -16.7277  -28.6507   23.0349 C   0  0  0  0  0  0
  -26.4464  -31.6604   25.0711 C   0  0  0  0  0  0
  -25.3697  -31.3788   26.1448 C   0  0  0  0  0  0
  -27.0320  -30.3009   24.6219 C   0  0  0  0  0  0
  -27.5992  -32.4359   25.7506 C   0  0  0  0  0  0
  -27.5574  -37.1803   24.8448 C   0  0  0  0  0  0
  -21.4177  -29.3054   22.3666 N   0  0  0  0  0  0
  -26.4280  -37.3779   23.9407 N   0  0  0  0  0  0
  -24.6865  -31.0608   22.0942 N   0  0  0  0  0  0
  -23.4178  -28.8150   23.2966 O   0  0  0  0  0  0
  -28.3159  -26.4460   20.1501 O   0  0  0  0  0  0
  -26.5651  -34.8923   22.4668 O   0  0  0  0  0  0
  -23.5414  -32.1393   23.7325 O   0  0  0  0  0  0
  -28.6052  -19.3534   20.7993 C   0  0  0  0  0  0
  -28.8040  -17.9819   21.1540 C   0  0  0  0  0  0
  -30.4356  -17.7438   19.4087 C   0  0  0  0  0  0
  -29.3077  -19.9585   19.7267 C   0  0  0  0  0  0
  -29.7165  -17.1284   20.4673 C   0  0  0  0  0  0
  -30.2326  -19.1111   19.0462 C   0  0  0  0  0  0
  -29.2502  -22.9759   21.1778 C   0  0  0  0  0  0
  -28.9989  -24.4490   21.5440 C   0  0  0  0  0  0
  -28.2634  -23.9147   19.3263 C   0  0  0  0  0  0
  -28.0805  -25.0050   20.4438 C   0  0  2  0  0  0
  -28.9786  -21.4000   19.1561 C   0  0  0  0  0  0
  -28.7832  -22.6659   19.9601 N   0  0  0  0  0  0
  -29.7742  -15.7049   20.8293 N   0  0  0  0  0  0
  -29.8384  -22.2051   21.9382 O   0  0  0  0  0  0
  -30.9203  -19.6001   17.9851 F   0  0  0  0  0  0
  -31.4803  -12.5313   19.1562 H   0  0  0  0  0  0
  -30.3778  -11.4125   19.9053 H   0  0  0  0  0  0
  -29.7822  -11.7474   17.4921 H   0  0  0  0  0  0
  -29.6581  -13.4732   17.7343 H   0  0  0  0  0  0
  -27.8535  -11.3053   18.8460 H   0  0  0  0  0  0
  -27.3890  -12.6050   17.7828 H   0  0  0  0  0  0
  -27.6708  -14.2638   19.5243 H   0  0  0  0  0  0
  -28.7170  -12.0609   21.3752 H   0  0  0  0  0  0
  -28.4409  -13.7156   21.8365 H   0  0  0  0  0  0
  -25.2751   -9.5720   22.4758 H   0  0  0  0  0  0
  -24.0019   -7.4651   22.7443 H   0  0  0  0  0  0
  -21.0835   -8.8780   19.8959 H   0  0  0  0  0  0
  -22.3678  -10.9681   19.6157 H   0  0  0  0  0  0
  -21.2023   -7.6134   23.9724 H   0  0  0  0  0  0
  -21.1480   -6.0503   25.9075 H   0  0  0  0  0  0
  -22.0598   -2.7612   23.2829 H   0  0  0  0  0  0
  -22.4047  -11.9994   22.4898 H   0  0  0  0  0  0
  -21.1059  -13.1319   22.2509 H   0  0  0  0  0  0
  -24.6621  -15.8460   20.5329 H   0  0  0  0  0  0
  -26.2810  -15.6351   20.0904 H   0  0  0  0  0  0
  -26.7154  -32.5449   23.1085 H   0  0  0  0  0  0
  -24.9928  -33.9706   25.0299 H   0  0  0  0  0  0
  -22.7132  -31.3039   21.3963 H   0  0  0  0  0  0
  -23.3716  -35.9657   23.3274 H   0  0  0  0  0  0
  -24.3572  -36.8987   22.2059 H   0  0  0  0  0  0
  -23.7244  -37.6514   23.6706 H   0  0  0  0  0  0
  -26.1017  -31.5549   20.6075 H   0  0  0  0  0  0
  -26.8384  -30.8302   22.0069 H   0  0  0  0  0  0
  -28.1166  -28.9787   21.1782 H   0  0  0  0  0  0
  -25.9774  -25.9157   19.0127 H   0  0  0  0  0  0
  -23.9658  -27.3010   19.0176 H   0  0  0  0  0  0
  -23.7566  -30.5913   19.3989 H   0  0  0  0  0  0
  -22.7557  -29.2451   19.8558 H   0  0  0  0  0  0
  -25.1290  -36.1902   25.0805 H   0  0  0  0  0  0
  -21.0003  -28.3272   24.1383 H   0  0  0  0  0  0
  -20.5661  -26.2305   23.3620 H   0  0  0  0  0  0
  -21.6637  -26.7428   22.1217 H   0  0  0  0  0  0
  -19.6901  -25.6283   21.1247 H   0  0  0  0  0  0
  -19.6683  -27.3184   20.6740 H   0  0  0  0  0  0
  -17.4198  -26.6668   21.4028 H   0  0  0  0  0  0
  -18.0339  -26.0079   22.9041 H   0  0  0  0  0  0
  -19.7956  -30.7256   24.2268 H   0  0  0  0  0  0
  -17.5045  -31.6274   24.5172 H   0  0  0  0  0  0
  -15.5364  -30.3011   23.7651 H   0  0  0  0  0  0
  -15.8672  -28.0839   22.7056 H   0  0  0  0  0  0
  -24.5864  -30.7148   25.7773 H   0  0  0  0  0  0
  -24.8932  -32.2989   26.4841 H   0  0  0  0  0  0
  -25.8015  -30.8963   27.0237 H   0  0  0  0  0  0
  -26.2922  -29.6776   24.1199 H   0  0  0  0  0  0
  -27.3934  -29.7273   25.4776 H   0  0  0  0  0  0
  -27.8808  -30.4278   23.9485 H   0  0  0  0  0  0
  -27.2544  -33.3648   26.2084 H   0  0  0  0  0  0
  -28.3804  -32.6992   25.0363 H   0  0  0  0  0  0
  -28.0672  -31.8517   26.5448 H   0  0  0  0  0  0
  -28.2546  -38.0146   24.7529 H   0  0  0  0  0  0
  -28.1109  -36.2671   24.6192 H   0  0  0  0  0  0
  -27.2310  -37.1346   25.8858 H   0  0  0  0  0  0
  -20.9326  -29.8805   21.6920 H   0  0  0  0  0  0
  -26.0128  -38.2824   24.1476 H   0  0  0  0  0  0
  -27.8605  -19.9265   21.3344 H   0  0  0  0  0  0
  -28.2112  -17.5720   21.9591 H   0  0  0  0  0  0
  -31.1296  -17.1643   18.8143 H   0  0  0  0  0  0
  -29.9529  -24.9738   21.5687 H   0  0  0  0  0  0
  -28.5404  -24.5262   22.5292 H   0  0  0  0  0  0
  -28.9771  -24.2529   18.5750 H   0  0  0  0  0  0
  -27.3223  -23.7226   18.8112 H   0  0  0  0  0  0
  -27.0698  -24.8857   20.8388 H   0  0  0  0  0  0
  -28.0615  -21.2702   18.5834 H   0  0  0  0  0  0
  -29.7349  -21.6435   18.4069 H   0  0  0  0  0  0
  -28.9542  -15.3739   21.3153 H   0  0  0  0  0  0
  1 25  1  0  0  0
  1 30  2  0  0  0
  1 83  1  0  0  0
  2  3  1  0  0  0
  2 25  1  0  0  0
  2 86  1  0  0  0
  2 87  1  0  0  0
  3  4  1  0  0  0
  3 88  1  0  0  0
  3 89  1  0  0  0
  4  5  1  0  0  0
  4 90  1  0  0  0
  4 91  1  0  0  0
  5  6  1  0  0  0
  5 26  1  0  0  0
  5 92  1  0  0  0
  6 25  1  0  0  0
  6 93  1  0  0  0
  6 94  1  0  0  0
  7  8  2  0  0  0
  7 26  1  0  0  0
  7 29  1  0  0  0
  8  9  1  0  0  0
  8 22  1  0  0  0
  9 10  1  0  0  0
  9 27  2  0  0  0
 10 11  2  0  0  0
 10 15  1  0  0  0
 11 12  1  0  0  0
 11 95  1  0  0  0
 12 13  2  0  0  0
 12 96  1  0  0  0
 13 14  1  0  0  0
 13 31  1  0  0  0
 14 15  2  0  0  0
 14 97  1  0  0  0
 15 98  1  0  0  0
 16 17  2  0  0  0
 16 21  1  0  0  0
 16 31  1  0  0  0
 17 18  1  0  0  0
 17 99  1  0  0  0
 18 19  2  0  0  0
 18100  1  0  0  0
 19 20  1  0  0  0
 19 24  1  0  0  0
 20 21  2  0  0  0
 20101  1  0  0  0
 21 23  1  0  0  0
 22 28  1  0  0  0
 22 32  2  0  0  0
 26 27  1  0  0  0
 28102  1  0  0  0
 28103  1  0  0  0
 29104  1  0  0  0
 29105  1  0  0  0
 33 34  1  0  0  0
 33 66  1  0  0  0
 33 70  2  0  0  0
 34 36  1  0  0  0
 34 59  1  0  0  0
 34106  1  0  0  0
 35 44  2  0  0  0
 35 45  1  0  0  0
 35 68  1  0  0  0
 36 56  1  0  0  0
 36107  1  0  0  0
 37 39  1  0  0  0
 37 47  1  0  0  0
 37 66  1  0  0  0
 37108  1  0  0  0
 38 43  2  0  0  0
 38 46  1  0  0  0
 38 47  1  0  0  0
 39 64  1  0  0  0
 39 67  2  0  0  0
 40 52  1  0  0  0
 40 53  2  0  0  0
 40 58  1  0  0  0
 41109  1  0  0  0
 41110  1  0  0  0
 41111  1  0  0  0
 41 48  1  0  0  0
 42 43  1  0  0  0
 42 66  1  0  0  0
 42112  1  0  0  0
 42113  1  0  0  0
 43 44  1  0  0  0
 44114  1  0  0  0
 45 46  2  0  0  0
 45115  1  0  0  0
 46116  1  0  0  0
 47117  1  0  0  0
 47118  1  0  0  0
 48 56  1  0  0  0
 48 65  1  0  0  0
 48119  1  0  0  0
 49 50  1  0  0  0
 49 53  1  0  0  0
 49 64  1  0  0  0
 49120  1  0  0  0
 50 51  1  0  0  0
 50121  1  0  0  0
 50122  1  0  0  0
 51 52  1  0  0  0
 51123  1  0  0  0
 51124  1  0  0  0
 52125  1  0  0  0
 52126  1  0  0  0
 53 54  1  0  0  0
 54 55  2  0  0  0
 54127  1  0  0  0
 55 57  1  0  0  0
 55128  1  0  0  0
 56 69  2  0  0  0
 57 58  2  0  0  0
 57129  1  0  0  0
 58130  1  0  0  0
 59 60  1  0  0  0
 59 61  1  0  0  0
 59 62  1  0  0  0
 60131  1  0  0  0
 60132  1  0  0  0
 60133  1  0  0  0
 61134  1  0  0  0
 61135  1  0  0  0
 61136  1  0  0  0
 62137  1  0  0  0
 62138  1  0  0  0
 62139  1  0  0  0
 63 65  1  0  0  0
 63140  1  0  0  0
 63141  1  0  0  0
 63142  1  0  0  0
 64143  1  0  0  0
 65144  1  0  0  0
 68 80  1  0  0  0
 71 72  2  0  0  0
 71 74  1  0  0  0
 71145  1  0  0  0
 72 75  1  0  0  0
 72146  1  0  0  0
 73 75  2  0  0  0
 73 76  1  0  0  0
 73147  1  0  0  0
 74 76  2  0  0  0
 74 81  1  0  0  0
 75 83  1  0  0  0
 76 85  1  0  0  0
 77 78  1  0  0  0
 77 82  1  0  0  0
 77 84  2  0  0  0
 78 80  1  0  0  0
 78148  1  0  0  0
 78149  1  0  0  0
 79 80  1  0  0  0
 79 82  1  0  0  0
 79150  1  0  0  0
 79151  1  0  0  0
 80152  1  0  0  0
 81 82  1  0  0  0
 81153  1  0  0  0
 81154  1  0  0  0
 83155  1  0  0  0
M  ISO  4   1 100  68 101  80 101  83 100
M  END
> <chiral flag>
0

> <version>
0

> <s_m_source_file>
/data/baiqing/PycharmProjects/Reinvent-master-3.2/result/LINK_invent/BTK/process_docking_weight1_custom_product_contain_oxygen_bond_distance_aromatic_linkinvent_7_9_3/rearranged_h_0021.sdf

> <i_m_source_file_index>
89

> <r_mmod_Potential_Energy-OPLS-2005>
95.5411224365234

> <r_mmod_Stretch_Energy-OPLS-2005>
80.9241256713867

> <r_mmod_Bend_Energy-OPLS-2005>
178.550094604492

> <r_mmod_Torsional_Energy-OPLS-2005>
254.414733886719

> <r_mmod_Improper_Torsional_Energy-OPLS-2005>
5.16589832305908

> <r_mmod_Van_der_Waal_Energy-OPLS-2005>
133.438262939453

> <r_mmod_Electrostatic_Energy-OPLS-2005>
-377.220764160156

> <r_mmod_Solvation_Energy-OPLS-2005>
-236.958755493164

> <b_mmod_Minimization_Converged-OPLS-2005>
0

> <r_mmod_RMS_Derivative-OPLS-2005>
3.89548230171204

$$$$
89
                    3D
 Structure written by MMmdl.
173181  0  0  1  0            999 V2000
  -30.7707  -14.3006   20.7570 C   0  0  0  0  0  0
  -30.4156  -12.2854   19.3746 C   0  0  0  0  0  0
  -29.4752  -12.5482   18.1852 C   0  0  0  0  0  0
  -28.0026  -12.3883   18.6006 C   0  0  0  0  0  0
  -27.6624  -13.1987   19.8774 C   0  0  2  0  0  0
  -28.6924  -12.9052   20.9865 C   0  0  0  0  0  0
  -25.2583  -13.8169   20.5724 C   0  0  0  0  0  0
  -24.1825  -13.0439   20.9189 C   0  0  0  0  0  0
  -24.6366  -11.6908   20.8739 C   0  0  0  0  0  0
  -23.9052  -10.4294   21.0416 C   0  0  0  0  0  0
  -24.3616   -9.4208   21.9173 C   0  0  0  0  0  0
  -23.6296   -8.2236   22.0751 C   0  0  0  0  0  0
  -22.4277   -8.0267   21.3539 C   0  0  0  0  0  0
  -21.9911   -9.0250   20.4648 C   0  0  0  0  0  0
  -22.7240  -10.2128   20.3048 C   0  0  0  0  0  0
  -21.6840   -6.0742   22.5284 C   0  0  0  0  0  0
  -21.4008   -6.5655   23.8215 C   0  0  0  0  0  0
  -21.3654   -5.6803   24.9177 C   0  0  0  0  0  0
  -21.6048   -4.3061   24.7235 C   0  0  0  0  0  0
  -21.8809   -3.8156   23.4345 C   0  0  0  0  0  0
  -21.9187   -4.6975   22.3404 C   0  0  0  0  0  0
  -22.7848  -13.5229   21.1892 C   0  0  0  0  0  0
  -22.1653   -4.2164   21.0974 F   0  0  0  0  0  0
  -21.5629   -3.4537   25.7742 F   0  0  0  0  0  0
  -30.0472  -13.1884   20.4714 N   0  0  0  0  0  0
  -26.3005  -12.9310   20.3352 N   0  0  0  0  0  0
  -25.9271  -11.6475   20.5708 N   0  0  0  0  0  0
  -22.0493  -12.8210   22.0437 N   0  0  0  0  0  0
  -25.4283  -15.1883   20.4299 N   0  0  0  0  0  0
  -31.7067  -14.7067   20.0564 O   0  0  0  0  0  0
  -21.6611   -6.8889   21.4244 O   0  0  0  0  0  0
  -22.3510  -14.5547   20.6759 O   0  0  0  0  0  0
  -24.6112  -31.8673   23.2175 C   0  0  0  0  0  0
  -25.8989  -32.4831   23.8456 C   0  0  1  0  0  0
  -27.2299  -27.4495   20.0971 C   0  0  0  0  0  0
  -25.5868  -33.8626   24.2406 N   0  0  0  0  0  0
  -23.4004  -30.4928   21.5538 C   0  0  2  0  0  0
  -24.8452  -28.9586   20.1261 C   0  0  0  0  0  0
  -22.7412  -29.4635   22.4987 C   0  0  0  0  0  0
  -18.0279  -28.1368   22.8489 C   0  0  0  0  0  0
  -24.1493  -36.7346   23.2655 C   0  0  0  0  0  0
  -25.9299  -30.8309   21.3725 C   0  0  0  0  0  0
  -26.0008  -29.4631   20.7343 C   0  0  0  0  0  0
  -27.1966  -28.7084   20.7359 C   0  0  0  0  0  0
  -26.0646  -26.9588   19.4801 C   0  0  0  0  0  0
  -24.8676  -27.6976   19.5044 C   0  0  0  0  0  0
  -23.6090  -29.8264   20.1705 C   0  0  0  0  0  0
  -25.4106  -36.3145   24.0363 C   0  0  1  0  0  0
  -20.5876  -28.3625   23.1360 C   0  0  2  0  0  0
  -20.6777  -26.9346   22.5450 C   0  0  0  0  0  0
  -19.5748  -26.6362   21.5268 C   0  0  0  0  0  0
  -18.1901  -26.7926   22.1625 C   0  0  0  0  0  0
  -19.1516  -28.8816   23.2924 C   0  0  0  0  0  0
  -18.9434  -30.1434   23.8920 C   0  0  0  0  0  0
  -17.6428  -30.6549   24.0565 C   0  0  0  0  0  0
  -25.9041  -34.9490   23.5185 C   0  0  0  0  0  0
  -16.5332  -29.9033   23.6347 C   0  0  0  0  0  0
  -16.7273  -28.6467   23.0349 C   0  0  0  0  0  0
  -26.4439  -31.6584   25.0752 C   0  0  0  0  0  0
  -25.3794  -31.3555   26.1567 C   0  0  0  0  0  0
  -27.0224  -30.3053   24.6018 C   0  0  0  0  0  0
  -27.6048  -32.4288   25.7470 C   0  0  0  0  0  0
  -27.5580  -37.1827   24.8465 C   0  0  0  0  0  0
  -21.4135  -29.3014   22.3772 N   0  0  0  0  0  0
  -26.4293  -37.3824   23.9425 N   0  0  0  0  0  0
  -24.6648  -31.0805   22.1042 N   0  0  0  0  0  0
  -23.4205  -28.8190   23.3040 O   0  0  0  0  0  0
  -28.3701  -26.6892   19.9887 O   0  0  0  0  0  0
  -26.5616  -34.8896   22.4761 O   0  0  0  0  0  0
  -23.5311  -32.1336   23.7601 O   0  0  0  0  0  0
  -26.9835  -20.0151   21.7526 C   0  0  0  0  0  0
  -28.5873  -20.3416   23.5442 C   0  0  0  0  0  0
  -28.3456  -18.1283   22.5228 C   0  0  0  0  0  0
  -27.5923  -20.8763   22.6971 C   0  0  0  0  0  0
  -27.3538  -18.6588   21.6688 C   0  0  0  0  0  0
  -28.9528  -18.9821   23.4755 C   0  0  0  0  0  0
  -24.7849  -21.6957   23.3687 C   0  0  0  0  0  0
  -28.1681  -24.2542   23.9179 C   0  0  0  0  0  0
  -30.7276  -14.3302   23.1862 C   0  0  0  0  0  0
  -28.7039  -16.6476   22.4391 C   0  0  0  0  0  0
  -29.4666  -24.9123   21.1590 C   0  0  0  0  0  0
  -28.2726  -23.9479   21.3737 C   0  0  0  0  0  0
  -25.7930  -22.5873   22.6140 C   0  0  0  0  0  0
  -30.1275  -16.3739   21.9008 C   0  0  0  0  0  0
  -29.0888  -26.4069   21.1830 C   0  0  0  0  0  0
  -28.2588  -23.2496   22.7548 C   0  0  2  0  0  0
  -27.2002  -22.2289   22.8454 N   0  0  0  0  0  0
  -30.3975  -14.9335   21.8870 N   0  0  0  0  0  0
  -26.7299  -17.8620   20.7669 F   0  0  0  0  0  0
  -30.1208  -18.3890   24.6048 Cl  0  0  0  0  0  0
  -31.4565  -12.4129   19.0679 H   0  0  0  0  0  0
  -30.3337  -11.2499   19.7122 H   0  0  0  0  0  0
  -29.7117  -11.8750   17.3622 H   0  0  0  0  0  0
  -29.6396  -13.5582   17.8079 H   0  0  0  0  0  0
  -27.8123  -11.3278   18.7735 H   0  0  0  0  0  0
  -27.3443  -12.6800   17.7806 H   0  0  0  0  0  0
  -27.7295  -14.2578   19.6225 H   0  0  0  0  0  0
  -28.6389  -11.8594   21.2900 H   0  0  0  0  0  0
  -28.4200  -13.4728   21.8749 H   0  0  0  0  0  0
  -25.2760   -9.5681   22.4736 H   0  0  0  0  0  0
  -24.0010   -7.4631   22.7466 H   0  0  0  0  0  0
  -21.0836   -8.8797   19.8947 H   0  0  0  0  0  0
  -22.3727  -10.9675   19.6158 H   0  0  0  0  0  0
  -21.1980   -7.6163   23.9738 H   0  0  0  0  0  0
  -21.1486   -6.0522   25.9093 H   0  0  0  0  0  0
  -22.0586   -2.7616   23.2843 H   0  0  0  0  0  0
  -22.4087  -11.9855   22.4821 H   0  0  0  0  0  0
  -21.1093  -13.1228   22.2589 H   0  0  0  0  0  0
  -24.6719  -15.8377   20.6117 H   0  0  0  0  0  0
  -26.2962  -15.6608   20.2119 H   0  0  0  0  0  0
  -26.7021  -32.5546   23.1187 H   0  0  0  0  0  0
  -25.0042  -33.9827   25.0552 H   0  0  0  0  0  0
  -22.6930  -31.3120   21.4117 H   0  0  0  0  0  0
  -23.3764  -35.9667   23.3328 H   0  0  0  0  0  0
  -24.3637  -36.8944   22.2070 H   0  0  0  0  0  0
  -23.7171  -37.6522   23.6672 H   0  0  0  0  0  0
  -26.0528  -31.5847   20.5947 H   0  0  0  0  0  0
  -26.8217  -30.8869   21.9846 H   0  0  0  0  0  0
  -28.0857  -29.0929   21.2106 H   0  0  0  0  0  0
  -26.0898  -26.0018   18.9764 H   0  0  0  0  0  0
  -23.9809  -27.3050   19.0261 H   0  0  0  0  0  0
  -23.7144  -30.5975   19.4089 H   0  0  0  0  0  0
  -22.7330  -29.2473   19.8757 H   0  0  0  0  0  0
  -25.1244  -36.2068   25.0845 H   0  0  0  0  0  0
  -20.9974  -28.3167   24.1477 H   0  0  0  0  0  0
  -20.5731  -26.2175   23.3607 H   0  0  0  0  0  0
  -21.6622  -26.7384   22.1176 H   0  0  0  0  0  0
  -19.6886  -25.6300   21.1228 H   0  0  0  0  0  0
  -19.6724  -27.3240   20.6879 H   0  0  0  0  0  0
  -17.4196  -26.6740   21.3993 H   0  0  0  0  0  0
  -18.0175  -26.0053   22.8983 H   0  0  0  0  0  0
  -19.7908  -30.7244   24.2275 H   0  0  0  0  0  0
  -17.4981  -31.6248   24.5123 H   0  0  0  0  0  0
  -15.5327  -30.2929   23.7672 H   0  0  0  0  0  0
  -15.8679  -28.0804   22.7064 H   0  0  0  0  0  0
  -24.6041  -30.6765   25.7999 H   0  0  0  0  0  0
  -24.8883  -32.2604   26.5155 H   0  0  0  0  0  0
  -25.8293  -30.8721   27.0261 H   0  0  0  0  0  0
  -26.2652  -29.6831   24.1218 H   0  0  0  0  0  0
  -27.4175  -29.7261   25.4380 H   0  0  0  0  0  0
  -27.8445  -30.4454   23.8993 H   0  0  0  0  0  0
  -27.2719  -33.3622   26.2048 H   0  0  0  0  0  0
  -28.3834  -32.6797   25.0253 H   0  0  0  0  0  0
  -28.0745  -31.8395   26.5359 H   0  0  0  0  0  0
  -28.2613  -38.0131   24.7568 H   0  0  0  0  0  0
  -28.1055  -36.2660   24.6215 H   0  0  0  0  0  0
  -27.2346  -37.1415   25.8890 H   0  0  0  0  0  0
  -20.9257  -29.8739   21.7012 H   0  0  0  0  0  0
  -26.0193  -38.2901   24.1436 H   0  0  0  0  0  0
  -26.2084  -20.3705   21.0908 H   0  0  0  0  0  0
  -29.0558  -20.9637   24.2931 H   0  0  0  0  0  0
  -23.7814  -22.1175   23.3056 H   0  0  0  0  0  0
  -25.0384  -21.6137   24.4250 H   0  0  0  0  0  0
  -24.7216  -20.6851   22.9644 H   0  0  0  0  0  0
  -28.9910  -24.9698   23.8961 H   0  0  0  0  0  0
  -28.2232  -23.7556   24.8869 H   0  0  0  0  0  0
  -27.2489  -24.8388   23.8895 H   0  0  0  0  0  0
  -29.8206  -13.9668   23.6730 H   0  0  0  0  0  0
  -31.2033  -15.0434   23.8590 H   0  0  0  0  0  0
  -31.4054  -13.4774   23.0908 H   0  0  0  0  0  0
  -27.9804  -16.1285   21.8086 H   0  0  0  0  0  0
  -28.5718  -16.2104   23.4311 H   0  0  0  0  0  0
  -29.9377  -24.7042   20.1968 H   0  0  0  0  0  0
  -30.2437  -24.7127   21.8982 H   0  0  0  0  0  0
  -28.3135  -23.1841   20.5955 H   0  0  0  0  0  0
  -27.3325  -24.4775   21.2097 H   0  0  0  0  0  0
  -25.6361  -23.6174   22.9333 H   0  0  0  0  0  0
  -25.5800  -22.5770   21.5430 H   0  0  0  0  0  0
  -30.8930  -16.8776   22.4867 H   0  0  0  0  0  0
  -30.2054  -16.7896   20.8930 H   0  0  0  0  0  0
  -29.9900  -27.0222   21.1987 H   0  0  0  0  0  0
  -28.5261  -26.6430   22.0843 H   0  0  0  0  0  0
  -29.2265  -22.7547   22.8583 H   0  0  0  0  0  0
  1 25  1  0  0  0
  1 30  2  0  0  0
  1 88  1  0  0  0
  2  3  1  0  0  0
  2 25  1  0  0  0
  2 91  1  0  0  0
  2 92  1  0  0  0
  3  4  1  0  0  0
  3 93  1  0  0  0
  3 94  1  0  0  0
  4  5  1  0  0  0
  4 95  1  0  0  0
  4 96  1  0  0  0
  5  6  1  0  0  0
  5 26  1  0  0  0
  5 97  1  0  0  0
  6 25  1  0  0  0
  6 98  1  0  0  0
  6 99  1  0  0  0
  7  8  2  0  0  0
  7 26  1  0  0  0
  7 29  1  0  0  0
  8  9  1  0  0  0
  8 22  1  0  0  0
  9 10  1  0  0  0
  9 27  2  0  0  0
 10 11  2  0  0  0
 10 15  1  0  0  0
 11 12  1  0  0  0
 11100  1  0  0  0
 12 13  2  0  0  0
 12101  1  0  0  0
 13 14  1  0  0  0
 13 31  1  0  0  0
 14 15  2  0  0  0
 14102  1  0  0  0
 15103  1  0  0  0
 16 17  2  0  0  0
 16 21  1  0  0  0
 16 31  1  0  0  0
 17 18  1  0  0  0
 17104  1  0  0  0
 18 19  2  0  0  0
 18105  1  0  0  0
 19 20  1  0  0  0
 19 24  1  0  0  0
 20 21  2  0  0  0
 20106  1  0  0  0
 21 23  1  0  0  0
 22 28  1  0  0  0
 22 32  2  0  0  0
 26 27  1  0  0  0
 28107  1  0  0  0
 28108  1  0  0  0
 29109  1  0  0  0
 29110  1  0  0  0
 33 34  1  0  0  0
 33 66  1  0  0  0
 33 70  2  0  0  0
 34 36  1  0  0  0
 34 59  1  0  0  0
 34111  1  0  0  0
 35 44  2  0  0  0
 35 45  1  0  0  0
 35 68  1  0  0  0
 36 56  1  0  0  0
 36112  1  0  0  0
 37 39  1  0  0  0
 37 47  1  0  0  0
 37 66  1  0  0  0
 37113  1  0  0  0
 38 43  2  0  0  0
 38 46  1  0  0  0
 38 47  1  0  0  0
 39 64  1  0  0  0
 39 67  2  0  0  0
 40 52  1  0  0  0
 40 53  2  0  0  0
 40 58  1  0  0  0
 41114  1  0  0  0
 41115  1  0  0  0
 41116  1  0  0  0
 41 48  1  0  0  0
 42 43  1  0  0  0
 42 66  1  0  0  0
 42117  1  0  0  0
 42118  1  0  0  0
 43 44  1  0  0  0
 44119  1  0  0  0
 45 46  2  0  0  0
 45120  1  0  0  0
 46121  1  0  0  0
 47122  1  0  0  0
 47123  1  0  0  0
 48 56  1  0  0  0
 48 65  1  0  0  0
 48124  1  0  0  0
 49 50  1  0  0  0
 49 53  1  0  0  0
 49 64  1  0  0  0
 49125  1  0  0  0
 50 51  1  0  0  0
 50126  1  0  0  0
 50127  1  0  0  0
 51 52  1  0  0  0
 51128  1  0  0  0
 51129  1  0  0  0
 52130  1  0  0  0
 52131  1  0  0  0
 53 54  1  0  0  0
 54 55  2  0  0  0
 54132  1  0  0  0
 55 57  1  0  0  0
 55133  1  0  0  0
 56 69  2  0  0  0
 57 58  2  0  0  0
 57134  1  0  0  0
 58135  1  0  0  0
 59 60  1  0  0  0
 59 61  1  0  0  0
 59 62  1  0  0  0
 60136  1  0  0  0
 60137  1  0  0  0
 60138  1  0  0  0
 61139  1  0  0  0
 61140  1  0  0  0
 61141  1  0  0  0
 62142  1  0  0  0
 62143  1  0  0  0
 62144  1  0  0  0
 63 65  1  0  0  0
 63145  1  0  0  0
 63146  1  0  0  0
 63147  1  0  0  0
 64148  1  0  0  0
 65149  1  0  0  0
 68 85  1  0  0  0
 71 74  2  0  0  0
 71 75  1  0  0  0
 71150  1  0  0  0
 72 74  1  0  0  0
 72 76  2  0  0  0
 72151  1  0  0  0
 73 75  2  0  0  0
 73 76  1  0  0  0
 73 80  1  0  0  0
 74 87  1  0  0  0
 75 89  1  0  0  0
 76 90  1  0  0  0
 77 83  1  0  0  0
 77152  1  0  0  0
 77153  1  0  0  0
 77154  1  0  0  0
 78155  1  0  0  0
 78156  1  0  0  0
 78157  1  0  0  0
 78 86  1  0  0  0
 79 88  1  0  0  0
 79158  1  0  0  0
 79159  1  0  0  0
 79160  1  0  0  0
 80 84  1  0  0  0
 80161  1  0  0  0
 80162  1  0  0  0
 81 82  1  0  0  0
 81 85  1  0  0  0
 81163  1  0  0  0
 81164  1  0  0  0
 82 86  1  0  0  0
 82165  1  0  0  0
 82166  1  0  0  0
 83 87  1  0  0  0
 83167  1  0  0  0
 83168  1  0  0  0
 84 88  1  0  0  0
 84169  1  0  0  0
 84170  1  0  0  0
 85171  1  0  0  0
 85172  1  0  0  0
 86 87  1  0  0  0
 86173  1  0  0  0
M  ISO  4   1 100  68 101  85 101  88 100
M  END
> <chiral flag>
0

> <version>
0

> <s_m_source_file>
/data/baiqing/PycharmProjects/Reinvent-master-3.2/result/LINK_invent/BTK/process_docking_weight1_custom_product_contain_oxygen_bond_distance_aromatic_linkinvent_7_9_3/rearranged_h_0021.sdf

> <i_m_source_file_index>
90

> <r_mmod_Potential_Energy-OPLS-2005>
99.5148696899414

> <r_mmod_Stretch_Energy-OPLS-2005>
36.7655944824219

> <r_mmod_Bend_Energy-OPLS-2005>
102.505523681641

> <r_mmod_Torsional_Energy-OPLS-2005>
325.154449462891

> <r_mmod_Improper_Torsional_Energy-OPLS-2005>
4.08268213272095

> <r_mmod_Van_der_Waal_Energy-OPLS-2005>
150.181335449219

> <r_mmod_Electrostatic_Energy-OPLS-2005>
-347.275268554688

> <r_mmod_Solvation_Energy-OPLS-2005>
-181.125473022461

> <b_mmod_Minimization_Converged-OPLS-2005>
0

> <r_mmod_RMS_Derivative-OPLS-2005>
4.7971715927124

$$$$
90
                    3D
 Structure written by MMmdl.
161169  0  0  1  0            999 V2000
  -30.7023  -14.4589   20.5443 C   0  0  0  0  0  0
  -30.4205  -12.2826   19.4304 C   0  0  0  0  0  0
  -29.4980  -12.4909   18.2104 C   0  0  0  0  0  0
  -28.0155  -12.3662   18.6151 C   0  0  0  0  0  0
  -27.6625  -13.2087   19.8734 C   0  0  2  0  0  0
  -28.7028  -12.9898   20.9976 C   0  0  0  0  0  0
  -25.2585  -13.8184   20.5662 C   0  0  0  0  0  0
  -24.1846  -13.0454   20.9187 C   0  0  0  0  0  0
  -24.6404  -11.6929   20.8738 C   0  0  0  0  0  0
  -23.9081  -10.4305   21.0403 C   0  0  0  0  0  0
  -24.3645   -9.4220   21.9172 C   0  0  0  0  0  0
  -23.6315   -8.2251   22.0736 C   0  0  0  0  0  0
  -22.4288   -8.0282   21.3538 C   0  0  0  0  0  0
  -21.9934   -9.0271   20.4645 C   0  0  0  0  0  0
  -22.7266  -10.2151   20.3054 C   0  0  0  0  0  0
  -21.6858   -6.0744   22.5284 C   0  0  0  0  0  0
  -21.4021   -6.5650   23.8223 C   0  0  0  0  0  0
  -21.3657   -5.6792   24.9178 C   0  0  0  0  0  0
  -21.6035   -4.3055   24.7224 C   0  0  0  0  0  0
  -21.8820   -3.8158   23.4344 C   0  0  0  0  0  0
  -21.9201   -4.6974   22.3403 C   0  0  0  0  0  0
  -22.7860  -13.5251   21.1842 C   0  0  0  0  0  0
  -22.1663   -4.2159   21.0981 F   0  0  0  0  0  0
  -21.5625   -3.4540   25.7736 F   0  0  0  0  0  0
  -30.0388  -13.2762   20.4468 N   0  0  0  0  0  0
  -26.3025  -12.9361   20.3347 N   0  0  0  0  0  0
  -25.9337  -11.6520   20.5763 N   0  0  0  0  0  0
  -22.0493  -12.8255   22.0390 N   0  0  0  0  0  0
  -25.4297  -15.1904   20.4070 N   0  0  0  0  0  0
  -31.8395  -14.6312   20.0981 O   0  0  0  0  0  0
  -21.6641   -6.8889   21.4244 O   0  0  0  0  0  0
  -22.3545  -14.5546   20.6656 O   0  0  0  0  0  0
  -24.6121  -31.8697   23.2133 C   0  0  0  0  0  0
  -25.9022  -32.4833   23.8418 C   0  0  1  0  0  0
  -27.2426  -27.4485   20.0990 C   0  0  0  0  0  0
  -25.5885  -33.8628   24.2341 N   0  0  0  0  0  0
  -23.4004  -30.4930   21.5524 C   0  0  2  0  0  0
  -24.8515  -28.9593   20.1216 C   0  0  0  0  0  0
  -22.7397  -29.4666   22.5001 C   0  0  0  0  0  0
  -18.0267  -28.1380   22.8485 C   0  0  0  0  0  0
  -24.1484  -36.7326   23.2639 C   0  0  0  0  0  0
  -25.9287  -30.8383   21.3669 C   0  0  0  0  0  0
  -26.0106  -29.4708   20.7215 C   0  0  0  0  0  0
  -27.2116  -28.7238   20.7151 C   0  0  0  0  0  0
  -26.0706  -26.9561   19.4939 C   0  0  0  0  0  0
  -24.8746  -27.6971   19.5056 C   0  0  0  0  0  0
  -23.6121  -29.8246   20.1673 C   0  0  0  0  0  0
  -25.4102  -36.3116   24.0341 C   0  0  1  0  0  0
  -20.5854  -28.3660   23.1324 C   0  0  2  0  0  0
  -20.6760  -26.9401   22.5421 C   0  0  0  0  0  0
  -19.5742  -26.6385   21.5212 C   0  0  0  0  0  0
  -18.1917  -26.7922   22.1618 C   0  0  0  0  0  0
  -19.1516  -28.8837   23.2900 C   0  0  0  0  0  0
  -18.9446  -30.1445   23.8906 C   0  0  0  0  0  0
  -17.6450  -30.6590   24.0565 C   0  0  0  0  0  0
  -25.9026  -34.9479   23.5136 C   0  0  0  0  0  0
  -16.5338  -29.9094   23.6322 C   0  0  0  0  0  0
  -16.7258  -28.6510   23.0339 C   0  0  0  0  0  0
  -26.4470  -31.6599   25.0729 C   0  0  0  0  0  0
  -25.3753  -31.3696   26.1493 C   0  0  0  0  0  0
  -27.0307  -30.3046   24.6085 C   0  0  0  0  0  0
  -27.6047  -32.4317   25.7479 C   0  0  0  0  0  0
  -27.5582  -37.1816   24.8464 C   0  0  0  0  0  0
  -21.4128  -29.3031   22.3737 N   0  0  0  0  0  0
  -26.4291  -37.3797   23.9414 N   0  0  0  0  0  0
  -24.6649  -31.0804   22.1024 N   0  0  0  0  0  0
  -23.4170  -28.8202   23.3036 O   0  0  0  0  0  0
  -28.3444  -26.6244   20.0158 O   0  0  0  0  0  0
  -26.5590  -34.8923   22.4699 O   0  0  0  0  0  0
  -23.5318  -32.1443   23.7535 O   0  0  0  0  0  0
  -29.5369  -20.2438   21.4202 C   0  0  0  0  0  0
  -29.7506  -21.5972   21.0656 C   0  0  0  0  0  0
  -32.0770  -21.1012   20.6301 C   0  0  0  0  0  0
  -30.5938  -19.3060   21.3879 C   0  0  0  0  0  0
  -31.0277  -22.0581   20.6605 C   0  0  0  0  0  0
  -31.8736  -19.7530   20.9891 C   0  0  0  0  0  0
  -32.6275  -23.8402   19.9754 C   0  0  0  0  0  0
  -30.3498  -17.8468   21.7919 C   0  0  0  0  0  0
  -29.9855  -25.3546   21.2934 C   0  0  0  0  0  0
  -30.1970  -16.9042   20.5807 C   0  0  0  0  0  0
  -30.2035  -24.4077   20.0885 C   0  0  0  0  0  0
  -29.4220  -26.7540   20.9363 C   0  0  0  0  0  0
  -29.9525  -15.4994   20.9458 N   0  0  0  0  0  0
  -31.2676  -23.4160   20.3056 N   0  0  0  0  0  0
  -33.2230  -18.6723   20.9360 Cl  0  0  0  0  0  0
  -31.4667  -12.3696   19.1330 H   0  0  0  0  0  0
  -30.3117  -11.2719   19.8275 H   0  0  0  0  0  0
  -29.7366  -11.7637   17.4322 H   0  0  0  0  0  0
  -29.6768  -13.4751   17.7773 H   0  0  0  0  0  0
  -27.8143  -11.3129   18.8081 H   0  0  0  0  0  0
  -27.3750  -12.6479   17.7770 H   0  0  0  0  0  0
  -27.7081  -14.2552   19.5723 H   0  0  0  0  0  0
  -28.6655  -11.9588   21.3527 H   0  0  0  0  0  0
  -28.4710  -13.6081   21.8673 H   0  0  0  0  0  0
  -25.2792   -9.5686   22.4735 H   0  0  0  0  0  0
  -24.0034   -7.4642   22.7460 H   0  0  0  0  0  0
  -21.0856   -8.8812   19.8952 H   0  0  0  0  0  0
  -22.3739  -10.9698   19.6154 H   0  0  0  0  0  0
  -21.2008   -7.6157   23.9741 H   0  0  0  0  0  0
  -21.1469   -6.0510   25.9089 H   0  0  0  0  0  0
  -22.0598   -2.7618   23.2839 H   0  0  0  0  0  0
  -22.4132  -11.9953   22.4839 H   0  0  0  0  0  0
  -21.1087  -13.1252   22.2553 H   0  0  0  0  0  0
  -24.6612  -15.8441   20.5062 H   0  0  0  0  0  0
  -26.2792  -15.6287   20.0746 H   0  0  0  0  0  0
  -26.7090  -32.5563   23.1181 H   0  0  0  0  0  0
  -25.0029  -33.9795   25.0482 H   0  0  0  0  0  0
  -22.6882  -31.3090   21.4139 H   0  0  0  0  0  0
  -23.3734  -35.9672   23.3310 H   0  0  0  0  0  0
  -24.3580  -36.8933   22.2052 H   0  0  0  0  0  0
  -23.7248  -37.6540   23.6645 H   0  0  0  0  0  0
  -26.0376  -31.5997   20.5945 H   0  0  0  0  0  0
  -26.8177  -30.8971   21.9832 H   0  0  0  0  0  0
  -28.1005  -29.1348   21.1707 H   0  0  0  0  0  0
  -26.0845  -25.9864   19.0166 H   0  0  0  0  0  0
  -23.9871  -27.2952   19.0371 H   0  0  0  0  0  0
  -23.7235  -30.6008   19.4099 H   0  0  0  0  0  0
  -22.7362  -29.2467   19.8658 H   0  0  0  0  0  0
  -25.1274  -36.1986   25.0834 H   0  0  0  0  0  0
  -20.9952  -28.3232   24.1444 H   0  0  0  0  0  0
  -20.5668  -26.2270   23.3607 H   0  0  0  0  0  0
  -21.6631  -26.7453   22.1216 H   0  0  0  0  0  0
  -19.6909  -25.6301   21.1234 H   0  0  0  0  0  0
  -19.6686  -27.3201   20.6750 H   0  0  0  0  0  0
  -17.4195  -26.6670   21.4018 H   0  0  0  0  0  0
  -18.0323  -26.0060   22.9010 H   0  0  0  0  0  0
  -19.7931  -30.7250   24.2277 H   0  0  0  0  0  0
  -17.5012  -31.6268   24.5175 H   0  0  0  0  0  0
  -15.5336  -30.2998   23.7649 H   0  0  0  0  0  0
  -15.8660  -28.0838   22.7039 H   0  0  0  0  0  0
  -24.5906  -30.7061   25.7842 H   0  0  0  0  0  0
  -24.8971  -32.2853   26.4976 H   0  0  0  0  0  0
  -25.8126  -30.8841   27.0227 H   0  0  0  0  0  0
  -26.2851  -29.6797   24.1151 H   0  0  0  0  0  0
  -27.4111  -29.7280   25.4530 H   0  0  0  0  0  0
  -27.8669  -30.4377   23.9215 H   0  0  0  0  0  0
  -27.2662  -33.3601   26.2086 H   0  0  0  0  0  0
  -28.3830  -32.6900   25.0290 H   0  0  0  0  0  0
  -28.0739  -31.8426   26.5367 H   0  0  0  0  0  0
  -28.2602  -38.0110   24.7502 H   0  0  0  0  0  0
  -28.1075  -36.2644   24.6289 H   0  0  0  0  0  0
  -27.2309  -37.1471   25.8869 H   0  0  0  0  0  0
  -20.9296  -29.8753   21.6960 H   0  0  0  0  0  0
  -26.0183  -38.2878   24.1410 H   0  0  0  0  0  0
  -28.5499  -19.9283   21.7294 H   0  0  0  0  0  0
  -28.9102  -22.2727   21.1240 H   0  0  0  0  0  0
  -33.0771  -21.3749   20.3326 H   0  0  0  0  0  0
  -33.3410  -23.5546   20.7478 H   0  0  0  0  0  0
  -32.6896  -24.9252   19.8716 H   0  0  0  0  0  0
  -32.9462  -23.4023   19.0283 H   0  0  0  0  0  0
  -29.4547  -17.7957   22.4110 H   0  0  0  0  0  0
  -31.1675  -17.5075   22.4287 H   0  0  0  0  0  0
  -30.9266  -25.5091   21.8227 H   0  0  0  0  0  0
  -29.3199  -24.8646   22.0047 H   0  0  0  0  0  0
  -31.0753  -16.9955   19.9389 H   0  0  0  0  0  0
  -29.3535  -17.2363   19.9742 H   0  0  0  0  0  0
  -30.4934  -25.0095   19.2247 H   0  0  0  0  0  0
  -29.2637  -23.9380   19.7972 H   0  0  0  0  0  0
  -30.1940  -27.3689   20.4744 H   0  0  0  0  0  0
  -29.1241  -27.2503   21.8604 H   0  0  0  0  0  0
  -29.0329  -15.2744   21.2944 H   0  0  0  0  0  0
  1 25  1  0  0  0
  1 30  2  0  0  0
  1 83  1  0  0  0
  2  3  1  0  0  0
  2 25  1  0  0  0
  2 86  1  0  0  0
  2 87  1  0  0  0
  3  4  1  0  0  0
  3 88  1  0  0  0
  3 89  1  0  0  0
  4  5  1  0  0  0
  4 90  1  0  0  0
  4 91  1  0  0  0
  5  6  1  0  0  0
  5 26  1  0  0  0
  5 92  1  0  0  0
  6 25  1  0  0  0
  6 93  1  0  0  0
  6 94  1  0  0  0
  7  8  2  0  0  0
  7 26  1  0  0  0
  7 29  1  0  0  0
  8  9  1  0  0  0
  8 22  1  0  0  0
  9 10  1  0  0  0
  9 27  2  0  0  0
 10 11  2  0  0  0
 10 15  1  0  0  0
 11 12  1  0  0  0
 11 95  1  0  0  0
 12 13  2  0  0  0
 12 96  1  0  0  0
 13 14  1  0  0  0
 13 31  1  0  0  0
 14 15  2  0  0  0
 14 97  1  0  0  0
 15 98  1  0  0  0
 16 17  2  0  0  0
 16 21  1  0  0  0
 16 31  1  0  0  0
 17 18  1  0  0  0
 17 99  1  0  0  0
 18 19  2  0  0  0
 18100  1  0  0  0
 19 20  1  0  0  0
 19 24  1  0  0  0
 20 21  2  0  0  0
 20101  1  0  0  0
 21 23  1  0  0  0
 22 28  1  0  0  0
 22 32  2  0  0  0
 26 27  1  0  0  0
 28102  1  0  0  0
 28103  1  0  0  0
 29104  1  0  0  0
 29105  1  0  0  0
 33 34  1  0  0  0
 33 66  1  0  0  0
 33 70  2  0  0  0
 34 36  1  0  0  0
 34 59  1  0  0  0
 34106  1  0  0  0
 35 44  2  0  0  0
 35 45  1  0  0  0
 35 68  1  0  0  0
 36 56  1  0  0  0
 36107  1  0  0  0
 37 39  1  0  0  0
 37 47  1  0  0  0
 37 66  1  0  0  0
 37108  1  0  0  0
 38 43  2  0  0  0
 38 46  1  0  0  0
 38 47  1  0  0  0
 39 64  1  0  0  0
 39 67  2  0  0  0
 40 52  1  0  0  0
 40 53  2  0  0  0
 40 58  1  0  0  0
 41109  1  0  0  0
 41110  1  0  0  0
 41111  1  0  0  0
 41 48  1  0  0  0
 42 43  1  0  0  0
 42 66  1  0  0  0
 42112  1  0  0  0
 42113  1  0  0  0
 43 44  1  0  0  0
 44114  1  0  0  0
 45 46  2  0  0  0
 45115  1  0  0  0
 46116  1  0  0  0
 47117  1  0  0  0
 47118  1  0  0  0
 48 56  1  0  0  0
 48 65  1  0  0  0
 48119  1  0  0  0
 49 50  1  0  0  0
 49 53  1  0  0  0
 49 64  1  0  0  0
 49120  1  0  0  0
 50 51  1  0  0  0
 50121  1  0  0  0
 50122  1  0  0  0
 51 52  1  0  0  0
 51123  1  0  0  0
 51124  1  0  0  0
 52125  1  0  0  0
 52126  1  0  0  0
 53 54  1  0  0  0
 54 55  2  0  0  0
 54127  1  0  0  0
 55 57  1  0  0  0
 55128  1  0  0  0
 56 69  2  0  0  0
 57 58  2  0  0  0
 57129  1  0  0  0
 58130  1  0  0  0
 59 60  1  0  0  0
 59 61  1  0  0  0
 59 62  1  0  0  0
 60131  1  0  0  0
 60132  1  0  0  0
 60133  1  0  0  0
 61134  1  0  0  0
 61135  1  0  0  0
 61136  1  0  0  0
 62137  1  0  0  0
 62138  1  0  0  0
 62139  1  0  0  0
 63 65  1  0  0  0
 63140  1  0  0  0
 63141  1  0  0  0
 63142  1  0  0  0
 64143  1  0  0  0
 65144  1  0  0  0
 68 82  1  0  0  0
 71 72  2  0  0  0
 71 74  1  0  0  0
 71145  1  0  0  0
 72 75  1  0  0  0
 72146  1  0  0  0
 73 75  2  0  0  0
 73 76  1  0  0  0
 73147  1  0  0  0
 74 76  2  0  0  0
 74 78  1  0  0  0
 75 84  1  0  0  0
 76 85  1  0  0  0
 77 84  1  0  0  0
 77148  1  0  0  0
 77149  1  0  0  0
 77150  1  0  0  0
 78 80  1  0  0  0
 78151  1  0  0  0
 78152  1  0  0  0
 79 81  1  0  0  0
 79 82  1  0  0  0
 79153  1  0  0  0
 79154  1  0  0  0
 80 83  1  0  0  0
 80155  1  0  0  0
 80156  1  0  0  0
 81 84  1  0  0  0
 81157  1  0  0  0
 81158  1  0  0  0
 82159  1  0  0  0
 82160  1  0  0  0
 83161  1  0  0  0
M  ISO  4   1 100  68 101  82 101  83 100
M  END
> <chiral flag>
0

> <version>
0

> <s_m_source_file>
/data/baiqing/PycharmProjects/Reinvent-master-3.2/result/LINK_invent/BTK/process_docking_weight1_custom_product_contain_oxygen_bond_distance_aromatic_linkinvent_7_9_3/rearranged_h_0021.sdf

> <i_m_source_file_index>
91

> <r_mmod_Potential_Energy-OPLS-2005>
-67.0277862548828

> <r_mmod_Stretch_Energy-OPLS-2005>
38.4779396057129

> <r_mmod_Bend_Energy-OPLS-2005>
118.274719238281

> <r_mmod_Torsional_Energy-OPLS-2005>
198.997512817383

> <r_mmod_Improper_Torsional_Energy-OPLS-2005>
6.31503582000732

> <r_mmod_Van_der_Waal_Energy-OPLS-2005>
157.818572998047

> <r_mmod_Electrostatic_Energy-OPLS-2005>
-370.948486328125

> <r_mmod_Solvation_Energy-OPLS-2005>
-228.321731567383

> <b_mmod_Minimization_Converged-OPLS-2005>
0

> <r_mmod_RMS_Derivative-OPLS-2005>
2.50894379615784

$$$$
91
                    3D
 Structure written by MMmdl.
156165  0  0  1  0            999 V2000
  -30.5429  -14.8669   20.4374 C   0  0  0  0  0  0
  -30.4396  -12.5224   19.4910 C   0  0  0  0  0  0
  -29.5226  -12.5381   18.2458 C   0  0  0  0  0  0
  -28.0534  -12.3309   18.6621 C   0  0  0  0  0  0
  -27.6455  -13.2390   19.8534 C   0  0  2  0  0  0
  -28.6888  -13.1990   20.9924 C   0  0  0  0  0  0
  -25.2533  -13.8193   20.5704 C   0  0  0  0  0  0
  -24.1844  -13.0434   20.9200 C   0  0  0  0  0  0
  -24.6437  -11.6902   20.8741 C   0  0  0  0  0  0
  -23.9104  -10.4283   21.0396 C   0  0  0  0  0  0
  -24.3637   -9.4197   21.9180 C   0  0  0  0  0  0
  -23.6300   -8.2244   22.0746 C   0  0  0  0  0  0
  -22.4282   -8.0287   21.3538 C   0  0  0  0  0  0
  -21.9925   -9.0268   20.4635 C   0  0  0  0  0  0
  -22.7269  -10.2136   20.3046 C   0  0  0  0  0  0
  -21.6872   -6.0735   22.5283 C   0  0  0  0  0  0
  -21.4018   -6.5634   23.8217 C   0  0  0  0  0  0
  -21.3658   -5.6790   24.9184 C   0  0  0  0  0  0
  -21.6051   -4.3055   24.7238 C   0  0  0  0  0  0
  -21.8816   -3.8140   23.4362 C   0  0  0  0  0  0
  -21.9193   -4.6956   22.3412 C   0  0  0  0  0  0
  -22.7861  -13.5198   21.1868 C   0  0  0  0  0  0
  -22.1662   -4.2142   21.0994 F   0  0  0  0  0  0
  -21.5630   -3.4530   25.7748 F   0  0  0  0  0  0
  -29.9804  -13.5962   20.4146 N   0  0  0  0  0  0
  -26.2980  -12.9420   20.3296 N   0  0  0  0  0  0
  -25.9369  -11.6547   20.5733 N   0  0  0  0  0  0
  -22.0512  -12.8183   22.0404 N   0  0  0  0  0  0
  -25.4195  -15.1925   20.4109 N   0  0  0  0  0  0
  -31.7151  -14.9949   20.0654 O   0  0  0  0  0  0
  -21.6651   -6.8883   21.4241 O   0  0  0  0  0  0
  -22.3544  -14.5519   20.6728 O   0  0  0  0  0  0
  -24.6439  -31.8433   23.1842 C   0  0  0  0  0  0
  -25.9235  -32.4652   23.8222 C   0  0  1  0  0  0
  -27.2066  -27.1190   20.1339 C   0  0  0  0  0  0
  -25.6022  -33.8464   24.2134 N   0  0  0  0  0  0
  -23.4459  -30.4635   21.5305 C   0  0  2  0  0  0
  -24.8907  -28.8867   20.1073 C   0  0  0  0  0  0
  -22.7535  -29.4562   22.4818 C   0  0  0  0  0  0
  -18.0253  -28.1362   22.8545 C   0  0  0  0  0  0
  -24.1508  -36.7243   23.2635 C   0  0  0  0  0  0
  -26.0037  -30.7099   21.3830 C   0  0  0  0  0  0
  -26.0691  -29.3190   20.7254 C   0  0  0  0  0  0
  -27.2234  -28.4485   20.7275 C   0  0  0  0  0  0
  -26.0024  -26.8010   19.4645 C   0  0  0  0  0  0
  -24.8686  -27.6389   19.4690 C   0  0  0  0  0  0
  -23.6721  -29.7943   20.1482 C   0  0  0  0  0  0
  -25.4146  -36.2991   24.0277 C   0  0  1  0  0  0
  -20.5886  -28.3710   23.1163 C   0  0  2  0  0  0
  -20.6773  -26.9390   22.5400 C   0  0  0  0  0  0
  -19.5654  -26.6186   21.5356 C   0  0  0  0  0  0
  -18.1859  -26.7838   22.1838 C   0  0  0  0  0  0
  -19.1531  -28.8868   23.2841 C   0  0  0  0  0  0
  -18.9411  -30.1502   23.8816 C   0  0  0  0  0  0
  -17.6394  -30.6618   24.0509 C   0  0  0  0  0  0
  -25.9106  -34.9377   23.5003 C   0  0  0  0  0  0
  -16.5291  -29.9088   23.6299 C   0  0  0  0  0  0
  -16.7234  -28.6475   23.0391 C   0  0  0  0  0  0
  -26.4544  -31.6530   25.0685 C   0  0  0  0  0  0
  -25.3729  -31.3743   26.1383 C   0  0  0  0  0  0
  -27.0411  -30.2927   24.6258 C   0  0  0  0  0  0
  -27.6028  -32.4308   25.7525 C   0  0  0  0  0  0
  -27.5567  -37.1781   24.8465 C   0  0  0  0  0  0
  -21.4240  -29.2973   22.3467 N   0  0  0  0  0  0
  -26.4286  -37.3717   23.9396 N   0  0  0  0  0  0
  -24.7180  -31.0273   22.0878 N   0  0  0  0  0  0
  -23.4170  -28.8226   23.3077 O   0  0  0  0  0  0
  -28.2643  -26.1377   20.2367 O   0  0  0  0  0  0
  -26.5679  -34.8892   22.4573 O   0  0  0  0  0  0
  -23.5562  -32.1331   23.7062 O   0  0  0  0  0  0
  -29.1226  -19.8188   21.4314 C   0  0  0  0  0  0
  -29.4072  -18.4031   21.6170 C   0  0  0  0  0  0
  -29.3614  -19.5234   19.1103 C   0  0  0  0  0  0
  -29.0528  -20.4679   20.1557 C   0  0  0  0  0  0
  -29.6959  -17.4664   20.5644 C   0  0  0  0  0  0
  -29.6776  -18.1147   19.2872 C   0  0  0  0  0  0
  -26.4418  -22.2447   20.9761 C   0  0  0  0  0  0
  -27.5601  -23.0217   21.6811 C   0  0  0  0  0  0
  -27.0847  -21.6844   19.6927 C   0  0  0  0  0  0
  -28.6022  -23.2158   20.5803 C   0  0  2  0  0  0
  -28.2068  -24.6486   19.7554 C   0  0  0  0  0  0
  -28.5322  -21.8363   19.8553 N   0  0  0  0  0  0
  -29.7364  -15.9613   20.8043 N   0  0  0  0  0  0
  -29.9390  -17.1605   17.8701 Cl  0  0  0  0  0  0
  -31.4842  -12.6469   19.2004 H   0  0  0  0  0  0
  -30.3839  -11.5472   19.9800 H   0  0  0  0  0  0
  -29.8213  -11.7612   17.5413 H   0  0  0  0  0  0
  -29.6320  -13.4862   17.7158 H   0  0  0  0  0  0
  -27.9395  -11.2849   18.9518 H   0  0  0  0  0  0
  -27.3885  -12.4841   17.8114 H   0  0  0  0  0  0
  -27.6297  -14.2553   19.4607 H   0  0  0  0  0  0
  -28.7532  -12.2003   21.4292 H   0  0  0  0  0  0
  -28.4059  -13.8662   21.8072 H   0  0  0  0  0  0
  -25.2769   -9.5683   22.4767 H   0  0  0  0  0  0
  -24.0003   -7.4640   22.7467 H   0  0  0  0  0  0
  -21.0861   -8.8815   19.8940 H   0  0  0  0  0  0
  -22.3737  -10.9695   19.6171 H   0  0  0  0  0  0
  -21.2007   -7.6140   23.9726 H   0  0  0  0  0  0
  -21.1482   -6.0516   25.9094 H   0  0  0  0  0  0
  -22.0589   -2.7594   23.2879 H   0  0  0  0  0  0
  -22.4130  -11.9844   22.4808 H   0  0  0  0  0  0
  -21.1125  -13.1204   22.2596 H   0  0  0  0  0  0
  -24.6390  -15.8335   20.5041 H   0  0  0  0  0  0
  -26.2537  -15.6332   20.0436 H   0  0  0  0  0  0
  -26.7296  -32.5228   23.0932 H   0  0  0  0  0  0
  -25.0170  -33.9550   25.0282 H   0  0  0  0  0  0
  -22.7530  -31.2920   21.3723 H   0  0  0  0  0  0
  -23.3732  -35.9611   23.3294 H   0  0  0  0  0  0
  -24.3585  -36.8898   22.2051 H   0  0  0  0  0  0
  -23.7314  -37.6452   23.6699 H   0  0  0  0  0  0
  -26.1667  -31.4623   20.6097 H   0  0  0  0  0  0
  -26.8700  -30.7603   22.0309 H   0  0  0  0  0  0
  -28.1187  -28.7777   21.2350 H   0  0  0  0  0  0
  -25.8732  -25.8691   18.9431 H   0  0  0  0  0  0
  -23.9643  -27.3004   18.9822 H   0  0  0  0  0  0
  -23.8253  -30.5694   19.3954 H   0  0  0  0  0  0
  -22.7850  -29.2453   19.8254 H   0  0  0  0  0  0
  -25.1333  -36.1780   25.0760 H   0  0  0  0  0  0
  -20.9990  -28.3405   24.1271 H   0  0  0  0  0  0
  -20.5822  -26.2362   23.3693 H   0  0  0  0  0  0
  -21.6607  -26.7416   22.1091 H   0  0  0  0  0  0
  -19.6518  -27.2820   20.6751 H   0  0  0  0  0  0
  -19.6720  -25.5992   21.1613 H   0  0  0  0  0  0
  -17.4051  -26.6485   21.4340 H   0  0  0  0  0  0
  -18.0313  -26.0095   22.9379 H   0  0  0  0  0  0
  -19.7880  -30.7385   24.2115 H   0  0  0  0  0  0
  -17.4901  -31.6342   24.5019 H   0  0  0  0  0  0
  -15.5273  -30.3009   23.7539 H   0  0  0  0  0  0
  -15.8636  -28.0771   22.7142 H   0  0  0  0  0  0
  -24.5860  -30.7155   25.7704 H   0  0  0  0  0  0
  -24.8988  -32.2951   26.4791 H   0  0  0  0  0  0
  -25.8009  -30.8908   27.0168 H   0  0  0  0  0  0
  -26.3032  -29.6668   24.1227 H   0  0  0  0  0  0
  -27.4012  -29.7208   25.4820 H   0  0  0  0  0  0
  -27.8943  -30.4160   23.9580 H   0  0  0  0  0  0
  -27.2536  -33.3568   26.2091 H   0  0  0  0  0  0
  -28.3875  -32.6930   25.0423 H   0  0  0  0  0  0
  -28.0654  -31.8460   26.5483 H   0  0  0  0  0  0
  -28.2566  -38.0090   24.7475 H   0  0  0  0  0  0
  -28.1076  -36.2608   24.6324 H   0  0  0  0  0  0
  -27.2274  -37.1461   25.8867 H   0  0  0  0  0  0
  -20.9508  -29.8406   21.6370 H   0  0  0  0  0  0
  -26.0123  -38.2763   24.1422 H   0  0  0  0  0  0
  -28.8812  -20.3868   22.3169 H   0  0  0  0  0  0
  -29.3508  -18.0192   22.6264 H   0  0  0  0  0  0
  -29.3027  -19.8682   18.0893 H   0  0  0  0  0  0
  -25.6079  -22.8993   20.7206 H   0  0  0  0  0  0
  -26.0517  -21.4538   21.6179 H   0  0  0  0  0  0
  -27.9802  -22.4188   22.4865 H   0  0  0  0  0  0
  -27.2100  -23.9558   22.1225 H   0  0  0  0  0  0
  -26.7587  -22.2536   18.8197 H   0  0  0  0  0  0
  -26.7495  -20.6600   19.5084 H   0  0  0  0  0  0
  -29.5925  -23.3253   21.0275 H   0  0  0  0  0  0
  -27.2298  -24.4517   19.3324 H   0  0  0  0  0  0
  -28.8470  -24.6493   18.8723 H   0  0  0  0  0  0
  -28.9103  -15.6329   21.2811 H   0  0  0  0  0  0
  1 25  1  0  0  0
  1 30  2  0  0  0
  1 83  1  0  0  0
  2  3  1  0  0  0
  2 25  1  0  0  0
  2 85  1  0  0  0
  2 86  1  0  0  0
  3  4  1  0  0  0
  3 87  1  0  0  0
  3 88  1  0  0  0
  4  5  1  0  0  0
  4 89  1  0  0  0
  4 90  1  0  0  0
  5  6  1  0  0  0
  5 26  1  0  0  0
  5 91  1  0  0  0
  6 25  1  0  0  0
  6 92  1  0  0  0
  6 93  1  0  0  0
  7  8  2  0  0  0
  7 26  1  0  0  0
  7 29  1  0  0  0
  8  9  1  0  0  0
  8 22  1  0  0  0
  9 10  1  0  0  0
  9 27  2  0  0  0
 10 11  2  0  0  0
 10 15  1  0  0  0
 11 12  1  0  0  0
 11 94  1  0  0  0
 12 13  2  0  0  0
 12 95  1  0  0  0
 13 14  1  0  0  0
 13 31  1  0  0  0
 14 15  2  0  0  0
 14 96  1  0  0  0
 15 97  1  0  0  0
 16 17  2  0  0  0
 16 21  1  0  0  0
 16 31  1  0  0  0
 17 18  1  0  0  0
 17 98  1  0  0  0
 18 19  2  0  0  0
 18 99  1  0  0  0
 19 20  1  0  0  0
 19 24  1  0  0  0
 20 21  2  0  0  0
 20100  1  0  0  0
 21 23  1  0  0  0
 22 28  1  0  0  0
 22 32  2  0  0  0
 26 27  1  0  0  0
 28101  1  0  0  0
 28102  1  0  0  0
 29103  1  0  0  0
 29104  1  0  0  0
 33 34  1  0  0  0
 33 66  1  0  0  0
 33 70  2  0  0  0
 34 36  1  0  0  0
 34 59  1  0  0  0
 34105  1  0  0  0
 35 44  2  0  0  0
 35 45  1  0  0  0
 35 68  1  0  0  0
 36 56  1  0  0  0
 36106  1  0  0  0
 37 39  1  0  0  0
 37 47  1  0  0  0
 37 66  1  0  0  0
 37107  1  0  0  0
 38 43  2  0  0  0
 38 46  1  0  0  0
 38 47  1  0  0  0
 39 64  1  0  0  0
 39 67  2  0  0  0
 40 52  1  0  0  0
 40 53  2  0  0  0
 40 58  1  0  0  0
 41108  1  0  0  0
 41109  1  0  0  0
 41110  1  0  0  0
 41 48  1  0  0  0
 42 43  1  0  0  0
 42 66  1  0  0  0
 42111  1  0  0  0
 42112  1  0  0  0
 43 44  1  0  0  0
 44113  1  0  0  0
 45 46  2  0  0  0
 45114  1  0  0  0
 46115  1  0  0  0
 47116  1  0  0  0
 47117  1  0  0  0
 48 56  1  0  0  0
 48 65  1  0  0  0
 48118  1  0  0  0
 49 50  1  0  0  0
 49 53  1  0  0  0
 49 64  1  0  0  0
 49119  1  0  0  0
 50 51  1  0  0  0
 50120  1  0  0  0
 50121  1  0  0  0
 51 52  1  0  0  0
 51122  1  0  0  0
 51123  1  0  0  0
 52124  1  0  0  0
 52125  1  0  0  0
 53 54  1  0  0  0
 54 55  2  0  0  0
 54126  1  0  0  0
 55 57  1  0  0  0
 55127  1  0  0  0
 56 69  2  0  0  0
 57 58  2  0  0  0
 57128  1  0  0  0
 58129  1  0  0  0
 59 60  1  0  0  0
 59 61  1  0  0  0
 59 62  1  0  0  0
 60130  1  0  0  0
 60131  1  0  0  0
 60132  1  0  0  0
 61133  1  0  0  0
 61134  1  0  0  0
 61135  1  0  0  0
 62136  1  0  0  0
 62137  1  0  0  0
 62138  1  0  0  0
 63 65  1  0  0  0
 63139  1  0  0  0
 63140  1  0  0  0
 63141  1  0  0  0
 64142  1  0  0  0
 65143  1  0  0  0
 68 81  1  0  0  0
 71 72  2  0  0  0
 71 74  1  0  0  0
 71144  1  0  0  0
 72 75  1  0  0  0
 72145  1  0  0  0
 73 74  2  0  0  0
 73 76  1  0  0  0
 73146  1  0  0  0
 74 82  1  0  0  0
 75 76  2  0  0  0
 75 83  1  0  0  0
 76 84  1  0  0  0
 77 78  1  0  0  0
 77 79  1  0  0  0
 77147  1  0  0  0
 77148  1  0  0  0
 78 80  1  0  0  0
 78149  1  0  0  0
 78150  1  0  0  0
 79 82  1  0  0  0
 79151  1  0  0  0
 79152  1  0  0  0
 80 81  1  0  0  0
 80 82  1  0  0  0
 80153  1  0  0  0
 81154  1  0  0  0
 81155  1  0  0  0
 83156  1  0  0  0
M  ISO  4   1 100  68 101  81 101  83 100
M  END
> <chiral flag>
0

> <version>
0

> <s_m_source_file>
/data/baiqing/PycharmProjects/Reinvent-master-3.2/result/LINK_invent/BTK/process_docking_weight1_custom_product_contain_oxygen_bond_distance_aromatic_linkinvent_7_9_3/rearranged_h_0021.sdf

> <i_m_source_file_index>
92

> <r_mmod_Potential_Energy-OPLS-2005>
531.282592773438

> <r_mmod_Stretch_Energy-OPLS-2005>
225.458450317383

> <r_mmod_Bend_Energy-OPLS-2005>
307.200744628906

> <r_mmod_Torsional_Energy-OPLS-2005>
312.058776855469

> <r_mmod_Improper_Torsional_Energy-OPLS-2005>
11.6037616729736

> <r_mmod_Van_der_Waal_Energy-OPLS-2005>
129.824020385742

> <r_mmod_Electrostatic_Energy-OPLS-2005>
-390.888580322266

> <r_mmod_Solvation_Energy-OPLS-2005>
-232.704711914062

> <b_mmod_Minimization_Converged-OPLS-2005>
0

> <r_mmod_RMS_Derivative-OPLS-2005>
4.25217485427856

$$$$
92
                    3D
 Structure written by MMmdl.
168176  0  0  1  0            999 V2000
  -30.7814  -14.3403   20.6907 C   0  0  0  0  0  0
  -30.4122  -12.2794   19.3893 C   0  0  0  0  0  0
  -29.4790  -12.5248   18.1899 C   0  0  0  0  0  0
  -28.0041  -12.3808   18.6085 C   0  0  0  0  0  0
  -27.6652  -13.2024   19.8796 C   0  0  2  0  0  0
  -28.7039  -12.9400   20.9927 C   0  0  0  0  0  0
  -25.2594  -13.8176   20.5659 C   0  0  0  0  0  0
  -24.1843  -13.0454   20.9180 C   0  0  0  0  0  0
  -24.6390  -11.6919   20.8744 C   0  0  0  0  0  0
  -23.9053  -10.4308   21.0408 C   0  0  0  0  0  0
  -24.3611   -9.4222   21.9180 C   0  0  0  0  0  0
  -23.6295   -8.2252   22.0749 C   0  0  0  0  0  0
  -22.4276   -8.0289   21.3542 C   0  0  0  0  0  0
  -21.9908   -9.0260   20.4642 C   0  0  0  0  0  0
  -22.7229  -10.2145   20.3054 C   0  0  0  0  0  0
  -21.6854   -6.0743   22.5278 C   0  0  0  0  0  0
  -21.4010   -6.5644   23.8212 C   0  0  0  0  0  0
  -21.3659   -5.6796   24.9174 C   0  0  0  0  0  0
  -21.6047   -4.3059   24.7224 C   0  0  0  0  0  0
  -21.8817   -3.8152   23.4343 C   0  0  0  0  0  0
  -21.9191   -4.6971   22.3399 C   0  0  0  0  0  0
  -22.7866  -13.5254   21.1844 C   0  0  0  0  0  0
  -22.1662   -4.2158   21.0978 F   0  0  0  0  0  0
  -21.5630   -3.4540   25.7735 F   0  0  0  0  0  0
  -30.0487  -13.2209   20.4575 N   0  0  0  0  0  0
  -26.3037  -12.9335   20.3385 N   0  0  0  0  0  0
  -25.9315  -11.6497   20.5769 N   0  0  0  0  0  0
  -22.0507  -12.8241   22.0404 N   0  0  0  0  0  0
  -25.4292  -15.1880   20.3975 N   0  0  0  0  0  0
  -31.8050  -14.6275   20.0611 O   0  0  0  0  0  0
  -21.6639   -6.8888   21.4243 O   0  0  0  0  0  0
  -22.3547  -14.5557   20.6698 O   0  0  0  0  0  0
  -24.6109  -31.8693   23.2122 C   0  0  0  0  0  0
  -25.9006  -32.4840   23.8404 C   0  0  1  0  0  0
  -27.2382  -27.4566   20.0944 C   0  0  0  0  0  0
  -25.5867  -33.8638   24.2337 N   0  0  0  0  0  0
  -23.3972  -30.4936   21.5515 C   0  0  2  0  0  0
  -24.8411  -28.9582   20.1181 C   0  0  0  0  0  0
  -22.7387  -29.4660   22.4994 C   0  0  0  0  0  0
  -18.0269  -28.1381   22.8478 C   0  0  0  0  0  0
  -24.1488  -36.7338   23.2643 C   0  0  0  0  0  0
  -25.9208  -30.8438   21.3576 C   0  0  0  0  0  0
  -25.9957  -29.4755   20.7144 C   0  0  0  0  0  0
  -27.1907  -28.7288   20.7022 C   0  0  0  0  0  0
  -26.0623  -26.9437   19.4959 C   0  0  0  0  0  0
  -24.8676  -27.6904   19.5095 C   0  0  0  0  0  0
  -23.6033  -29.8250   20.1650 C   0  0  0  0  0  0
  -25.4105  -36.3130   24.0346 C   0  0  1  0  0  0
  -20.5855  -28.3654   23.1325 C   0  0  2  0  0  0
  -20.6760  -26.9388   22.5424 C   0  0  0  0  0  0
  -19.5747  -26.6384   21.5213 C   0  0  0  0  0  0
  -18.1918  -26.7924   22.1622 C   0  0  0  0  0  0
  -19.1517  -28.8834   23.2901 C   0  0  0  0  0  0
  -18.9450  -30.1437   23.8914 C   0  0  0  0  0  0
  -17.6452  -30.6577   24.0568 C   0  0  0  0  0  0
  -25.9025  -34.9487   23.5141 C   0  0  0  0  0  0
  -16.5336  -29.9088   23.6324 C   0  0  0  0  0  0
  -16.7262  -28.6515   23.0328 C   0  0  0  0  0  0
  -26.4442  -31.6609   25.0713 C   0  0  0  0  0  0
  -25.3711  -31.3710   26.1465 C   0  0  0  0  0  0
  -27.0260  -30.3062   24.6043 C   0  0  0  0  0  0
  -27.6032  -32.4308   25.7476 C   0  0  0  0  0  0
  -27.5585  -37.1823   24.8462 C   0  0  0  0  0  0
  -21.4114  -29.3029   22.3733 N   0  0  0  0  0  0
  -26.4305  -37.3804   23.9401 N   0  0  0  0  0  0
  -24.6618  -31.0829   22.0999 N   0  0  0  0  0  0
  -23.4168  -28.8190   23.3015 O   0  0  0  0  0  0
  -28.4618  -26.8263   20.0854 O   0  0  0  0  0  0
  -26.5596  -34.8938   22.4703 O   0  0  0  0  0  0
  -23.5319  -32.1414   23.7542 O   0  0  0  0  0  0
  -28.5106  -20.7991   22.9987 C   0  0  0  0  0  0
  -28.6455  -22.1470   22.6332 C   0  0  0  0  0  0
  -26.2592  -22.2647   22.2030 C   0  0  0  0  0  0
  -27.2588  -20.1524   22.9330 C   0  0  0  0  0  0
  -26.1079  -20.9010   22.5632 C   0  0  0  0  0  0
  -27.5254  -22.8882   22.1996 C   0  0  0  0  0  0
  -28.5419  -16.7019   22.3671 C   0  0  0  0  0  0
  -29.8399  -25.3472   22.0487 C   0  0  0  0  0  0
  -31.3136  -15.2684   22.8427 C   0  0  0  0  0  0
  -27.2268  -18.6512   23.2049 C   0  0  0  0  0  0
  -29.6208  -16.3043   21.3569 C   0  0  0  0  0  0
  -28.6062  -25.4372   19.7997 C   0  0  0  0  0  0
  -28.8801  -24.6247   21.0843 C   0  0  2  0  0  0
  -24.7233  -20.2565   22.5114 C   0  0  0  0  0  0
  -27.6440  -24.2179   21.7557 N   0  0  0  0  0  0
  -28.1960  -17.9885   22.3448 N   0  0  0  0  0  0
  -30.3812  -15.1019   21.7218 N   0  0  0  0  0  0
  -28.0358  -15.8803   23.1325 O   0  0  0  0  0  0
  -23.7684  -21.1438   22.2305 F   0  0  0  0  0  0
  -24.6941  -19.3139   21.5692 F   0  0  0  0  0  0
  -24.4278  -19.7035   23.6886 F   0  0  0  0  0  0
  -31.4554  -12.3750   19.0814 H   0  0  0  0  0  0
  -30.3074  -11.2550   19.7505 H   0  0  0  0  0  0
  -29.7074  -11.8257   17.3841 H   0  0  0  0  0  0
  -29.6515  -13.5243   17.7884 H   0  0  0  0  0  0
  -27.8092  -11.3227   18.7887 H   0  0  0  0  0  0
  -27.3500  -12.6735   17.7866 H   0  0  0  0  0  0
  -27.7235  -14.2557   19.6061 H   0  0  0  0  0  0
  -28.6582  -11.8986   21.3130 H   0  0  0  0  0  0
  -28.4594  -13.5237   21.8803 H   0  0  0  0  0  0
  -25.2758   -9.5701   22.4749 H   0  0  0  0  0  0
  -24.0007   -7.4644   22.7464 H   0  0  0  0  0  0
  -21.0841   -8.8780   19.8946 H   0  0  0  0  0  0
  -22.3689  -10.9685   19.6163 H   0  0  0  0  0  0
  -21.2002   -7.6150   23.9721 H   0  0  0  0  0  0
  -21.1481   -6.0523   25.9078 H   0  0  0  0  0  0
  -22.0596   -2.7617   23.2837 H   0  0  0  0  0  0
  -22.4123  -11.9905   22.4794 H   0  0  0  0  0  0
  -21.1124  -13.1264   22.2610 H   0  0  0  0  0  0
  -24.6633  -15.8434   20.5036 H   0  0  0  0  0  0
  -26.2802  -15.6236   20.0692 H   0  0  0  0  0  0
  -26.7076  -32.5567   23.1179 H   0  0  0  0  0  0
  -25.0026  -33.9807   25.0486 H   0  0  0  0  0  0
  -22.6854  -31.3100   21.4122 H   0  0  0  0  0  0
  -23.3737  -35.9687   23.3320 H   0  0  0  0  0  0
  -24.3583  -36.8936   22.2054 H   0  0  0  0  0  0
  -23.7244  -37.6553   23.6637 H   0  0  0  0  0  0
  -26.0161  -31.6035   20.5809 H   0  0  0  0  0  0
  -26.8174  -30.9104   21.9630 H   0  0  0  0  0  0
  -28.0861  -29.1273   21.1578 H   0  0  0  0  0  0
  -26.0403  -25.9898   18.9929 H   0  0  0  0  0  0
  -23.9802  -27.2921   19.0381 H   0  0  0  0  0  0
  -23.7115  -30.5983   19.4032 H   0  0  0  0  0  0
  -22.7266  -29.2458   19.8707 H   0  0  0  0  0  0
  -25.1271  -36.2024   25.0842 H   0  0  0  0  0  0
  -20.9954  -28.3229   24.1446 H   0  0  0  0  0  0
  -20.5678  -26.2248   23.3606 H   0  0  0  0  0  0
  -21.6627  -26.7449   22.1195 H   0  0  0  0  0  0
  -19.6912  -25.6303   21.1228 H   0  0  0  0  0  0
  -19.6700  -27.3215   20.6756 H   0  0  0  0  0  0
  -17.4185  -26.6667   21.4026 H   0  0  0  0  0  0
  -18.0310  -26.0078   22.9030 H   0  0  0  0  0  0
  -19.7931  -30.7238   24.2292 H   0  0  0  0  0  0
  -17.5014  -31.6264   24.5158 H   0  0  0  0  0  0
  -15.5339  -30.2995   23.7643 H   0  0  0  0  0  0
  -15.8661  -28.0854   22.7003 H   0  0  0  0  0  0
  -24.5909  -30.7023   25.7816 H   0  0  0  0  0  0
  -24.8850  -32.2854   26.4877 H   0  0  0  0  0  0
  -25.8062  -30.8923   27.0243 H   0  0  0  0  0  0
  -26.2787  -29.6862   24.1074 H   0  0  0  0  0  0
  -27.4035  -29.7266   25.4476 H   0  0  0  0  0  0
  -27.8614  -30.4413   23.9166 H   0  0  0  0  0  0
  -27.2674  -33.3619   26.2059 H   0  0  0  0  0  0
  -28.3839  -32.6848   25.0292 H   0  0  0  0  0  0
  -28.0689  -31.8404   26.5384 H   0  0  0  0  0  0
  -28.2600  -38.0118   24.7494 H   0  0  0  0  0  0
  -28.1074  -36.2646   24.6294 H   0  0  0  0  0  0
  -27.2299  -37.1487   25.8865 H   0  0  0  0  0  0
  -20.9258  -29.8783   21.6994 H   0  0  0  0  0  0
  -26.0206  -38.2894   24.1386 H   0  0  0  0  0  0
  -29.3910  -20.2516   23.3048 H   0  0  0  0  0  0
  -29.6315  -22.5832   22.6760 H   0  0  0  0  0  0
  -25.3907  -22.8289   21.8965 H   0  0  0  0  0  0
  -30.7630  -25.6249   21.5392 H   0  0  0  0  0  0
  -30.1166  -24.7242   22.8987 H   0  0  0  0  0  0
  -29.3981  -26.2623   22.4444 H   0  0  0  0  0  0
  -30.7805  -15.5074   23.7635 H   0  0  0  0  0  0
  -32.0244  -16.0721   22.6443 H   0  0  0  0  0  0
  -31.8854  -14.3575   23.0331 H   0  0  0  0  0  0
  -26.2493  -18.2004   23.0444 H   0  0  0  0  0  0
  -27.4838  -18.4740   24.2511 H   0  0  0  0  0  0
  -30.3201  -17.1309   21.2163 H   0  0  0  0  0  0
  -29.1168  -16.1755   20.3958 H   0  0  0  0  0  0
  -27.8213  -24.9868   19.1987 H   0  0  0  0  0  0
  -29.4977  -25.3712   19.1742 H   0  0  0  0  0  0
  -29.3845  -23.7221   20.7354 H   0  0  0  0  0  0
  -26.7997  -24.6797   21.4281 H   0  0  0  0  0  0
  -28.6660  -18.5806   21.6745 H   0  0  0  0  0  0
  1 25  1  0  0  0
  1 30  2  0  0  0
  1 87  1  0  0  0
  2  3  1  0  0  0
  2 25  1  0  0  0
  2 92  1  0  0  0
  2 93  1  0  0  0
  3  4  1  0  0  0
  3 94  1  0  0  0
  3 95  1  0  0  0
  4  5  1  0  0  0
  4 96  1  0  0  0
  4 97  1  0  0  0
  5  6  1  0  0  0
  5 26  1  0  0  0
  5 98  1  0  0  0
  6 25  1  0  0  0
  6 99  1  0  0  0
  6100  1  0  0  0
  7  8  2  0  0  0
  7 26  1  0  0  0
  7 29  1  0  0  0
  8  9  1  0  0  0
  8 22  1  0  0  0
  9 10  1  0  0  0
  9 27  2  0  0  0
 10 11  2  0  0  0
 10 15  1  0  0  0
 11 12  1  0  0  0
 11101  1  0  0  0
 12 13  2  0  0  0
 12102  1  0  0  0
 13 14  1  0  0  0
 13 31  1  0  0  0
 14 15  2  0  0  0
 14103  1  0  0  0
 15104  1  0  0  0
 16 17  2  0  0  0
 16 21  1  0  0  0
 16 31  1  0  0  0
 17 18  1  0  0  0
 17105  1  0  0  0
 18 19  2  0  0  0
 18106  1  0  0  0
 19 20  1  0  0  0
 19 24  1  0  0  0
 20 21  2  0  0  0
 20107  1  0  0  0
 21 23  1  0  0  0
 22 28  1  0  0  0
 22 32  2  0  0  0
 26 27  1  0  0  0
 28108  1  0  0  0
 28109  1  0  0  0
 29110  1  0  0  0
 29111  1  0  0  0
 33 34  1  0  0  0
 33 66  1  0  0  0
 33 70  2  0  0  0
 34 36  1  0  0  0
 34 59  1  0  0  0
 34112  1  0  0  0
 35 44  2  0  0  0
 35 45  1  0  0  0
 35 68  1  0  0  0
 36 56  1  0  0  0
 36113  1  0  0  0
 37 39  1  0  0  0
 37 47  1  0  0  0
 37 66  1  0  0  0
 37114  1  0  0  0
 38 43  2  0  0  0
 38 46  1  0  0  0
 38 47  1  0  0  0
 39 64  1  0  0  0
 39 67  2  0  0  0
 40 52  1  0  0  0
 40 53  2  0  0  0
 40 58  1  0  0  0
 41115  1  0  0  0
 41116  1  0  0  0
 41117  1  0  0  0
 41 48  1  0  0  0
 42 43  1  0  0  0
 42 66  1  0  0  0
 42118  1  0  0  0
 42119  1  0  0  0
 43 44  1  0  0  0
 44120  1  0  0  0
 45 46  2  0  0  0
 45121  1  0  0  0
 46122  1  0  0  0
 47123  1  0  0  0
 47124  1  0  0  0
 48 56  1  0  0  0
 48 65  1  0  0  0
 48125  1  0  0  0
 49 50  1  0  0  0
 49 53  1  0  0  0
 49 64  1  0  0  0
 49126  1  0  0  0
 50 51  1  0  0  0
 50127  1  0  0  0
 50128  1  0  0  0
 51 52  1  0  0  0
 51129  1  0  0  0
 51130  1  0  0  0
 52131  1  0  0  0
 52132  1  0  0  0
 53 54  1  0  0  0
 54 55  2  0  0  0
 54133  1  0  0  0
 55 57  1  0  0  0
 55134  1  0  0  0
 56 69  2  0  0  0
 57 58  2  0  0  0
 57135  1  0  0  0
 58136  1  0  0  0
 59 60  1  0  0  0
 59 61  1  0  0  0
 59 62  1  0  0  0
 60137  1  0  0  0
 60138  1  0  0  0
 60139  1  0  0  0
 61140  1  0  0  0
 61141  1  0  0  0
 61142  1  0  0  0
 62143  1  0  0  0
 62144  1  0  0  0
 62145  1  0  0  0
 63 65  1  0  0  0
 63146  1  0  0  0
 63147  1  0  0  0
 63148  1  0  0  0
 64149  1  0  0  0
 65150  1  0  0  0
 68 82  1  0  0  0
 71 72  2  0  0  0
 71 74  1  0  0  0
 71151  1  0  0  0
 72 76  1  0  0  0
 72152  1  0  0  0
 73 75  1  0  0  0
 73 76  2  0  0  0
 73153  1  0  0  0
 74 75  2  0  0  0
 74 80  1  0  0  0
 75 84  1  0  0  0
 76 85  1  0  0  0
 77 81  1  0  0  0
 77 86  1  0  0  0
 77 88  2  0  0  0
 78154  1  0  0  0
 78155  1  0  0  0
 78156  1  0  0  0
 78 83  1  0  0  0
 79 87  1  0  0  0
 79157  1  0  0  0
 79158  1  0  0  0
 79159  1  0  0  0
 80 86  1  0  0  0
 80160  1  0  0  0
 80161  1  0  0  0
 81 87  1  0  0  0
 81162  1  0  0  0
 81163  1  0  0  0
 82 83  1  0  0  0
 82164  1  0  0  0
 82165  1  0  0  0
 83 85  1  0  0  0
 83166  1  0  0  0
 84 89  1  0  0  0
 84 90  1  0  0  0
 84 91  1  0  0  0
 85167  1  0  0  0
 86168  1  0  0  0
M  ISO  4   1 100  68 101  82 101  87 100
M  END
> <chiral flag>
0

> <version>
0

> <s_m_source_file>
/data/baiqing/PycharmProjects/Reinvent-master-3.2/result/LINK_invent/BTK/process_docking_weight1_custom_product_contain_oxygen_bond_distance_aromatic_linkinvent_7_9_3/rearranged_h_0021.sdf

> <i_m_source_file_index>
93

> <r_mmod_Potential_Energy-OPLS-2005>
-63.7702407836914

> <r_mmod_Stretch_Energy-OPLS-2005>
34.6779594421387

> <r_mmod_Bend_Energy-OPLS-2005>
120.97681427002

> <r_mmod_Torsional_Energy-OPLS-2005>
273.797698974609

> <r_mmod_Improper_Torsional_Energy-OPLS-2005>
8.24256706237793

> <r_mmod_Van_der_Waal_Energy-OPLS-2005>
157.151489257812

> <r_mmod_Electrostatic_Energy-OPLS-2005>
-449.218475341797

> <r_mmod_Solvation_Energy-OPLS-2005>
-217.755630493164

> <b_mmod_Minimization_Converged-OPLS-2005>
0

> <r_mmod_RMS_Derivative-OPLS-2005>
1.59505176544189

$$$$
93
                    3D
 Structure written by MMmdl.
170179  0  0  1  0            999 V2000
  -30.7162  -14.4310   20.5220 C   0  0  0  0  0  0
  -30.4108  -12.2667   19.4228 C   0  0  0  0  0  0
  -29.4935  -12.4908   18.2031 C   0  0  0  0  0  0
  -28.0117  -12.3688   18.6120 C   0  0  0  0  0  0
  -27.6617  -13.2063   19.8729 C   0  0  2  0  0  0
  -28.7024  -12.9931   20.9963 C   0  0  0  0  0  0
  -25.2601  -13.8156   20.5678 C   0  0  0  0  0  0
  -24.1849  -13.0440   20.9181 C   0  0  0  0  0  0
  -24.6398  -11.6908   20.8729 C   0  0  0  0  0  0
  -23.9069  -10.4297   21.0401 C   0  0  0  0  0  0
  -24.3622   -9.4217   21.9184 C   0  0  0  0  0  0
  -23.6295   -8.2253   22.0760 C   0  0  0  0  0  0
  -22.4280   -8.0289   21.3552 C   0  0  0  0  0  0
  -21.9920   -9.0257   20.4648 C   0  0  0  0  0  0
  -22.7240  -10.2136   20.3054 C   0  0  0  0  0  0
  -21.6850   -6.0743   22.5278 C   0  0  0  0  0  0
  -21.4005   -6.5645   23.8210 C   0  0  0  0  0  0
  -21.3662   -5.6796   24.9173 C   0  0  0  0  0  0
  -21.6054   -4.3062   24.7220 C   0  0  0  0  0  0
  -21.8816   -3.8154   23.4337 C   0  0  0  0  0  0
  -21.9192   -4.6972   22.3400 C   0  0  0  0  0  0
  -22.7874  -13.5257   21.1832 C   0  0  0  0  0  0
  -22.1663   -4.2163   21.0975 F   0  0  0  0  0  0
  -21.5641   -3.4543   25.7732 F   0  0  0  0  0  0
  -30.0373  -13.2603   20.4395 N   0  0  0  0  0  0
  -26.3029  -12.9322   20.3355 N   0  0  0  0  0  0
  -25.9325  -11.6485   20.5752 N   0  0  0  0  0  0
  -22.0505  -12.8260   22.0377 N   0  0  0  0  0  0
  -25.4342  -15.1867   20.4084 N   0  0  0  0  0  0
  -31.8907  -14.5438   20.1628 O   0  0  0  0  0  0
  -21.6647   -6.8883   21.4236 O   0  0  0  0  0  0
  -22.3583  -14.5581   20.6687 O   0  0  0  0  0  0
  -24.6098  -31.8694   23.2158 C   0  0  0  0  0  0
  -25.9018  -32.4833   23.8421 C   0  0  1  0  0  0
  -27.2325  -27.4815   20.0935 C   0  0  0  0  0  0
  -25.5907  -33.8633   24.2354 N   0  0  0  0  0  0
  -23.3951  -30.4931   21.5540 C   0  0  2  0  0  0
  -24.8427  -28.9658   20.1138 C   0  0  0  0  0  0
  -22.7378  -29.4656   22.5023 C   0  0  0  0  0  0
  -18.0241  -28.1380   22.8489 C   0  0  0  0  0  0
  -24.1473  -36.7313   23.2645 C   0  0  0  0  0  0
  -25.9171  -30.8532   21.3594 C   0  0  0  0  0  0
  -25.9968  -29.4901   20.7094 C   0  0  0  0  0  0
  -27.1960  -28.7526   20.7028 C   0  0  0  0  0  0
  -26.0734  -26.9671   19.4790 C   0  0  0  0  0  0
  -24.8725  -27.7017   19.4982 C   0  0  0  0  0  0
  -23.5997  -29.8220   20.1682 C   0  0  0  0  0  0
  -25.4101  -36.3122   24.0345 C   0  0  1  0  0  0
  -20.5830  -28.3650   23.1335 C   0  0  2  0  0  0
  -20.6759  -26.9395   22.5425 C   0  0  0  0  0  0
  -19.5745  -26.6385   21.5214 C   0  0  0  0  0  0
  -18.1906  -26.7932   22.1599 C   0  0  0  0  0  0
  -19.1493  -28.8826   23.2908 C   0  0  0  0  0  0
  -18.9429  -30.1431   23.8923 C   0  0  0  0  0  0
  -17.6443  -30.6602   24.0546 C   0  0  0  0  0  0
  -25.9015  -34.9483   23.5134 C   0  0  0  0  0  0
  -16.5324  -29.9103   23.6340 C   0  0  0  0  0  0
  -16.7230  -28.6502   23.0384 C   0  0  0  0  0  0
  -26.4492  -31.6605   25.0726 C   0  0  0  0  0  0
  -25.3782  -31.3693   26.1481 C   0  0  0  0  0  0
  -27.0333  -30.3049   24.6088 C   0  0  0  0  0  0
  -27.6062  -32.4345   25.7489 C   0  0  0  0  0  0
  -27.5576  -37.1812   24.8472 C   0  0  0  0  0  0
  -21.4103  -29.3020   22.3756 N   0  0  0  0  0  0
  -26.4287  -37.3799   23.9412 N   0  0  0  0  0  0
  -24.6586  -31.0852   22.1021 N   0  0  0  0  0  0
  -23.4170  -28.8183   23.3032 O   0  0  0  0  0  0
  -28.3724  -26.7220   20.1049 O   0  0  0  0  0  0
  -26.5543  -34.8927   22.4674 O   0  0  0  0  0  0
  -23.5305  -32.1396   23.7594 O   0  0  0  0  0  0
  -31.0065  -17.1584   19.2790 C   0  0  0  0  0  0
  -31.1939  -18.4875   18.8672 C   0  0  0  0  0  0
  -29.4817  -17.8989   21.0317 C   0  0  0  0  0  0
  -29.6562  -19.2373   20.6022 C   0  0  0  0  0  0
  -30.1739  -16.8471   20.3857 C   0  0  0  0  0  0
  -30.5270  -19.5260   19.5305 C   0  0  0  0  0  0
  -28.9293  -20.3747   21.2501 C   0  0  0  0  0  0
  -30.8765  -21.3174   24.2396 C   0  0  0  0  0  0
  -30.5554  -22.6752   23.6286 C   0  0  0  0  0  0
  -30.5775  -20.3292   23.1181 C   0  0  0  0  0  0
  -29.4518  -22.4044   22.5880 C   0  0  2  0  0  0
  -27.0216  -24.9205   24.0312 C   0  0  0  0  0  0
  -28.0587  -22.9002   23.0571 C   0  0  0  0  0  0
  -27.7852  -24.9502   21.6804 C   0  0  0  0  0  0
  -28.6729  -26.1820   21.3939 C   0  0  0  0  0  0
  -29.5337  -20.9605   22.3103 N   0  0  0  0  0  0
  -29.9709  -15.5060   20.8378 N   0  0  0  0  0  0
  -27.9942  -24.3873   23.0456 N   0  3  1  0  0  0
  -27.9177  -20.8331   20.7120 O   0  0  0  0  0  0
  -30.7243  -20.8029   19.1212 F   0  0  0  0  0  0
  -31.4599  -12.3385   19.1288 H   0  0  0  0  0  0
  -30.2824  -11.2576   19.8184 H   0  0  0  0  0  0
  -29.7254  -11.7656   17.4216 H   0  0  0  0  0  0
  -29.6791  -13.4754   17.7712 H   0  0  0  0  0  0
  -27.8104  -11.3129   18.7977 H   0  0  0  0  0  0
  -27.3672  -12.6557   17.7802 H   0  0  0  0  0  0
  -27.7033  -14.2536   19.5735 H   0  0  0  0  0  0
  -28.6611  -11.9674   21.3643 H   0  0  0  0  0  0
  -28.4832  -13.6250   21.8581 H   0  0  0  0  0  0
  -25.2766   -9.5700   22.4764 H   0  0  0  0  0  0
  -24.0008   -7.4651   22.7488 H   0  0  0  0  0  0
  -21.0856   -8.8756   19.8957 H   0  0  0  0  0  0
  -22.3688  -10.9672   19.6165 H   0  0  0  0  0  0
  -21.1979   -7.6150   23.9713 H   0  0  0  0  0  0
  -21.1495   -6.0531   25.9078 H   0  0  0  0  0  0
  -22.0596   -2.7616   23.2828 H   0  0  0  0  0  0
  -22.4110  -11.9906   22.4747 H   0  0  0  0  0  0
  -21.1111  -13.1281   22.2550 H   0  0  0  0  0  0
  -24.6670  -15.8415   20.5145 H   0  0  0  0  0  0
  -26.2844  -15.6224   20.0720 H   0  0  0  0  0  0
  -26.7097  -32.5565   23.1202 H   0  0  0  0  0  0
  -25.0137  -33.9815   25.0557 H   0  0  0  0  0  0
  -22.6809  -31.3080   21.4171 H   0  0  0  0  0  0
  -23.3737  -35.9644   23.3319 H   0  0  0  0  0  0
  -24.3553  -36.8904   22.2052 H   0  0  0  0  0  0
  -23.7220  -37.6527   23.6636 H   0  0  0  0  0  0
  -26.0160  -31.6217   20.5923 H   0  0  0  0  0  0
  -26.8099  -30.9113   21.9706 H   0  0  0  0  0  0
  -28.0868  -29.1576   21.1634 H   0  0  0  0  0  0
  -26.0948  -25.9948   19.0078 H   0  0  0  0  0  0
  -23.9826  -27.2938   19.0388 H   0  0  0  0  0  0
  -23.6960  -30.5927   19.4027 H   0  0  0  0  0  0
  -22.7292  -29.2299   19.8802 H   0  0  0  0  0  0
  -25.1283  -36.1986   25.0840 H   0  0  0  0  0  0
  -20.9889  -28.3210   24.1467 H   0  0  0  0  0  0
  -20.5672  -26.2252   23.3605 H   0  0  0  0  0  0
  -21.6630  -26.7485   22.1199 H   0  0  0  0  0  0
  -19.6914  -25.6297   21.1246 H   0  0  0  0  0  0
  -19.6709  -27.3189   20.6745 H   0  0  0  0  0  0
  -17.4198  -26.6672   21.3985 H   0  0  0  0  0  0
  -18.0288  -26.0067   22.8979 H   0  0  0  0  0  0
  -19.7911  -30.7218   24.2328 H   0  0  0  0  0  0
  -17.5012  -31.6302   24.5116 H   0  0  0  0  0  0
  -15.5329  -30.3027   23.7682 H   0  0  0  0  0  0
  -15.8605  -28.0827   22.7155 H   0  0  0  0  0  0
  -24.5982  -30.7008   25.7826 H   0  0  0  0  0  0
  -24.8960  -32.2842   26.4930 H   0  0  0  0  0  0
  -25.8165  -30.8878   27.0230 H   0  0  0  0  0  0
  -26.2861  -29.6775   24.1209 H   0  0  0  0  0  0
  -27.4170  -29.7321   25.4547 H   0  0  0  0  0  0
  -27.8671  -30.4363   23.9185 H   0  0  0  0  0  0
  -27.2672  -33.3646   26.2067 H   0  0  0  0  0  0
  -28.3887  -32.6903   25.0333 H   0  0  0  0  0  0
  -28.0719  -31.8476   26.5417 H   0  0  0  0  0  0
  -28.2612  -38.0093   24.7513 H   0  0  0  0  0  0
  -28.1057  -36.2627   24.6314 H   0  0  0  0  0  0
  -27.2281  -37.1475   25.8871 H   0  0  0  0  0  0
  -20.9268  -29.8725   21.6962 H   0  0  0  0  0  0
  -26.0180  -38.2879   24.1418 H   0  0  0  0  0  0
  -31.5192  -16.3966   18.7112 H   0  0  0  0  0  0
  -31.8443  -18.7123   18.0346 H   0  0  0  0  0  0
  -28.8179  -17.6880   21.8591 H   0  0  0  0  0  0
  -30.2136  -21.1244   25.0846 H   0  0  0  0  0  0
  -31.9030  -21.2438   24.6024 H   0  0  0  0  0  0
  -31.4432  -23.0626   23.1267 H   0  0  0  0  0  0
  -30.2761  -23.4027   24.3915 H   0  0  0  0  0  0
  -30.2612  -19.3619   23.5131 H   0  0  0  0  0  0
  -31.4691  -20.1706   22.5089 H   0  0  0  0  0  0
  -29.7191  -22.9148   21.6608 H   0  0  0  0  0  0
  -27.3035  -24.6390   25.0465 H   0  0  0  0  0  0
  -26.0155  -24.5417   23.8417 H   0  0  0  0  0  0
  -26.9812  -26.0107   23.9969 H   0  0  0  0  0  0
  -27.8733  -22.5210   24.0632 H   0  0  0  0  0  0
  -27.2453  -22.5121   22.4432 H   0  0  0  0  0  0
  -28.0059  -24.2058   20.9147 H   0  0  0  0  0  0
  -26.7297  -25.1889   21.5477 H   0  0  0  0  0  0
  -29.7237  -25.8937   21.4039 H   0  0  0  0  0  0
  -28.5584  -26.9372   22.1743 H   0  0  0  0  0  0
  -29.0876  -15.3098   21.2845 H   0  0  0  0  0  0
  -28.9006  -24.6991   23.3646 H   0  0  0  0  0  0
  1 25  1  0  0  0
  1 30  2  0  0  0
  1 87  1  0  0  0
  2  3  1  0  0  0
  2 25  1  0  0  0
  2 91  1  0  0  0
  2 92  1  0  0  0
  3  4  1  0  0  0
  3 93  1  0  0  0
  3 94  1  0  0  0
  4  5  1  0  0  0
  4 95  1  0  0  0
  4 96  1  0  0  0
  5  6  1  0  0  0
  5 26  1  0  0  0
  5 97  1  0  0  0
  6 25  1  0  0  0
  6 98  1  0  0  0
  6 99  1  0  0  0
  7  8  2  0  0  0
  7 26  1  0  0  0
  7 29  1  0  0  0
  8  9  1  0  0  0
  8 22  1  0  0  0
  9 10  1  0  0  0
  9 27  2  0  0  0
 10 11  2  0  0  0
 10 15  1  0  0  0
 11 12  1  0  0  0
 11100  1  0  0  0
 12 13  2  0  0  0
 12101  1  0  0  0
 13 14  1  0  0  0
 13 31  1  0  0  0
 14 15  2  0  0  0
 14102  1  0  0  0
 15103  1  0  0  0
 16 17  2  0  0  0
 16 21  1  0  0  0
 16 31  1  0  0  0
 17 18  1  0  0  0
 17104  1  0  0  0
 18 19  2  0  0  0
 18105  1  0  0  0
 19 20  1  0  0  0
 19 24  1  0  0  0
 20 21  2  0  0  0
 20106  1  0  0  0
 21 23  1  0  0  0
 22 28  1  0  0  0
 22 32  2  0  0  0
 26 27  1  0  0  0
 28107  1  0  0  0
 28108  1  0  0  0
 29109  1  0  0  0
 29110  1  0  0  0
 33 34  1  0  0  0
 33 66  1  0  0  0
 33 70  2  0  0  0
 34 36  1  0  0  0
 34 59  1  0  0  0
 34111  1  0  0  0
 35 44  2  0  0  0
 35 45  1  0  0  0
 35 68  1  0  0  0
 36 56  1  0  0  0
 36112  1  0  0  0
 37 39  1  0  0  0
 37 47  1  0  0  0
 37 66  1  0  0  0
 37113  1  0  0  0
 38 43  2  0  0  0
 38 46  1  0  0  0
 38 47  1  0  0  0
 39 64  1  0  0  0
 39 67  2  0  0  0
 40 52  1  0  0  0
 40 53  2  0  0  0
 40 58  1  0  0  0
 41114  1  0  0  0
 41115  1  0  0  0
 41116  1  0  0  0
 41 48  1  0  0  0
 42 43  1  0  0  0
 42 66  1  0  0  0
 42117  1  0  0  0
 42118  1  0  0  0
 43 44  1  0  0  0
 44119  1  0  0  0
 45 46  2  0  0  0
 45120  1  0  0  0
 46121  1  0  0  0
 47122  1  0  0  0
 47123  1  0  0  0
 48 56  1  0  0  0
 48 65  1  0  0  0
 48124  1  0  0  0
 49 50  1  0  0  0
 49 53  1  0  0  0
 49 64  1  0  0  0
 49125  1  0  0  0
 50 51  1  0  0  0
 50126  1  0  0  0
 50127  1  0  0  0
 51 52  1  0  0  0
 51128  1  0  0  0
 51129  1  0  0  0
 52130  1  0  0  0
 52131  1  0  0  0
 53 54  1  0  0  0
 54 55  2  0  0  0
 54132  1  0  0  0
 55 57  1  0  0  0
 55133  1  0  0  0
 56 69  2  0  0  0
 57 58  2  0  0  0
 57134  1  0  0  0
 58135  1  0  0  0
 59 60  1  0  0  0
 59 61  1  0  0  0
 59 62  1  0  0  0
 60136  1  0  0  0
 60137  1  0  0  0
 60138  1  0  0  0
 61139  1  0  0  0
 61140  1  0  0  0
 61141  1  0  0  0
 62142  1  0  0  0
 62143  1  0  0  0
 62144  1  0  0  0
 63 65  1  0  0  0
 63145  1  0  0  0
 63146  1  0  0  0
 63147  1  0  0  0
 64148  1  0  0  0
 65149  1  0  0  0
 68 85  1  0  0  0
 71 72  2  0  0  0
 71 75  1  0  0  0
 71150  1  0  0  0
 72 76  1  0  0  0
 72151  1  0  0  0
 73 74  1  0  0  0
 73 75  2  0  0  0
 73152  1  0  0  0
 74 76  2  0  0  0
 74 77  1  0  0  0
 75 87  1  0  0  0
 76 90  1  0  0  0
 77 86  1  0  0  0
 77 89  2  0  0  0
 78 79  1  0  0  0
 78 80  1  0  0  0
 78153  1  0  0  0
 78154  1  0  0  0
 79 81  1  0  0  0
 79155  1  0  0  0
 79156  1  0  0  0
 80 86  1  0  0  0
 80157  1  0  0  0
 80158  1  0  0  0
 81 83  1  0  0  0
 81 86  1  0  0  0
 81159  1  0  0  0
 82160  1  0  0  0
 82161  1  0  0  0
 82162  1  0  0  0
 82 88  1  0  0  0
 83 88  1  0  0  0
 83163  1  0  0  0
 83164  1  0  0  0
 84 85  1  0  0  0
 84 88  1  0  0  0
 84165  1  0  0  0
 84166  1  0  0  0
 85167  1  0  0  0
 85168  1  0  0  0
 87169  1  0  0  0
 88170  1  0  0  0
M  CHG  1  88   1
M  ISO  4   1 100  68 101  85 101  87 100
M  END
> <chiral flag>
0

> <version>
0

> <s_m_source_file>
/data/baiqing/PycharmProjects/Reinvent-master-3.2/result/LINK_invent/BTK/process_docking_weight1_custom_product_contain_oxygen_bond_distance_aromatic_linkinvent_7_9_3/rearranged_h_0021.sdf

> <i_m_source_file_index>
94

> <r_mmod_Potential_Energy-OPLS-2005>
29.9518337249756

> <r_mmod_Stretch_Energy-OPLS-2005>
35.800479888916

> <r_mmod_Bend_Energy-OPLS-2005>
109.381332397461

> <r_mmod_Torsional_Energy-OPLS-2005>
391.639678955078

> <r_mmod_Improper_Torsional_Energy-OPLS-2005>
7.63739728927612

> <r_mmod_Van_der_Waal_Energy-OPLS-2005>
154.727127075195

> <r_mmod_Electrostatic_Energy-OPLS-2005>
-258.024719238281

> <r_mmod_Solvation_Energy-OPLS-2005>
-425.259216308594

> <b_mmod_Minimization_Converged-OPLS-2005>
0

> <r_mmod_RMS_Derivative-OPLS-2005>
2.03787565231323

$$$$
94
                    3D
 Structure written by MMmdl.
156165  0  0  1  0            999 V2000
  -30.5042  -14.9026   20.4471 C   0  0  0  0  0  0
  -30.4546  -12.5489   19.5071 C   0  0  0  0  0  0
  -29.5361  -12.5213   18.2630 C   0  0  0  0  0  0
  -28.0591  -12.3263   18.6666 C   0  0  0  0  0  0
  -27.6397  -13.2393   19.8521 C   0  0  2  0  0  0
  -28.6788  -13.1975   20.9932 C   0  0  0  0  0  0
  -25.2484  -13.8200   20.5728 C   0  0  0  0  0  0
  -24.1787  -13.0426   20.9216 C   0  0  0  0  0  0
  -24.6401  -11.6914   20.8738 C   0  0  0  0  0  0
  -23.9095  -10.4275   21.0387 C   0  0  0  0  0  0
  -24.3640   -9.4189   21.9165 C   0  0  0  0  0  0
  -23.6290   -8.2241   22.0759 C   0  0  0  0  0  0
  -22.4262   -8.0285   21.3558 C   0  0  0  0  0  0
  -21.9909   -9.0270   20.4658 C   0  0  0  0  0  0
  -22.7263  -10.2140   20.3040 C   0  0  0  0  0  0
  -21.6837   -6.0732   22.5285 C   0  0  0  0  0  0
  -21.4030   -6.5632   23.8228 C   0  0  0  0  0  0
  -21.3668   -5.6784   24.9188 C   0  0  0  0  0  0
  -21.6045   -4.3046   24.7226 C   0  0  0  0  0  0
  -21.8813   -3.8135   23.4341 C   0  0  0  0  0  0
  -21.9184   -4.6963   22.3399 C   0  0  0  0  0  0
  -22.7790  -13.5211   21.1841 C   0  0  0  0  0  0
  -22.1630   -4.2157   21.0976 F   0  0  0  0  0  0
  -21.5621   -3.4515   25.7728 F   0  0  0  0  0  0
  -29.9647  -13.6201   20.4185 N   0  0  0  0  0  0
  -26.2918  -12.9434   20.3248 N   0  0  0  0  0  0
  -25.9325  -11.6562   20.5698 N   0  0  0  0  0  0
  -22.0400  -12.8271   22.0421 N   0  0  0  0  0  0
  -25.4089  -15.1944   20.4240 N   0  0  0  0  0  0
  -31.6770  -15.0490   20.0860 O   0  0  0  0  0  0
  -21.6616   -6.8885   21.4255 O   0  0  0  0  0  0
  -22.3505  -14.5507   20.6653 O   0  0  0  0  0  0
  -24.6441  -31.8460   23.1842 C   0  0  0  0  0  0
  -25.9219  -32.4692   23.8248 C   0  0  1  0  0  0
  -27.2191  -27.1465   20.1565 C   0  0  0  0  0  0
  -25.5967  -33.8497   24.2176 N   0  0  0  0  0  0
  -23.4463  -30.4652   21.5263 C   0  0  2  0  0  0
  -24.8955  -28.8858   20.1106 C   0  0  0  0  0  0
  -22.7568  -29.4578   22.4803 C   0  0  0  0  0  0
  -18.0321  -28.1400   22.8467 C   0  0  0  0  0  0
  -24.1492  -36.7266   23.2638 C   0  0  0  0  0  0
  -26.0008  -30.7241   21.3770 C   0  0  0  0  0  0
  -26.0727  -29.3328   20.7267 C   0  0  0  0  0  0
  -27.2386  -28.4818   20.7271 C   0  0  0  0  0  0
  -26.0173  -26.7907   19.5116 C   0  0  0  0  0  0
  -24.8806  -27.6289   19.4844 C   0  0  0  0  0  0
  -23.6725  -29.7896   20.1475 C   0  0  0  0  0  0
  -25.4118  -36.3020   24.0309 C   0  0  1  0  0  0
  -20.5934  -28.3743   23.1205 C   0  0  2  0  0  0
  -20.6804  -26.9438   22.5393 C   0  0  0  0  0  0
  -19.5771  -26.6383   21.5209 C   0  0  0  0  0  0
  -18.1953  -26.7940   22.1625 C   0  0  0  0  0  0
  -19.1582  -28.8886   23.2840 C   0  0  0  0  0  0
  -18.9492  -30.1465   23.8887 C   0  0  0  0  0  0
  -17.6494  -30.6582   24.0558 C   0  0  0  0  0  0
  -25.9071  -34.9401   23.5043 C   0  0  0  0  0  0
  -16.5382  -29.9074   23.6317 C   0  0  0  0  0  0
  -16.7316  -28.6496   23.0342 C   0  0  0  0  0  0
  -26.4531  -31.6562   25.0691 C   0  0  0  0  0  0
  -25.3734  -31.3760   26.1401 C   0  0  0  0  0  0
  -27.0359  -30.2945   24.6252 C   0  0  0  0  0  0
  -27.6030  -32.4350   25.7498 C   0  0  0  0  0  0
  -27.5576  -37.1787   24.8456 C   0  0  0  0  0  0
  -21.4265  -29.3069   22.3571 N   0  0  0  0  0  0
  -26.4273  -37.3740   23.9413 N   0  0  0  0  0  0
  -24.7168  -31.0330   22.0850 N   0  0  0  0  0  0
  -23.4220  -28.8125   23.2956 O   0  0  0  0  0  0
  -28.2928  -26.1907   20.1541 O   0  0  0  0  0  0
  -26.5647  -34.8917   22.4613 O   0  0  0  0  0  0
  -23.5568  -32.1314   23.7075 O   0  0  0  0  0  0
  -29.7103  -19.8133   19.5715 C   0  0  0  0  0  0
  -29.0962  -18.2750   21.7840 C   0  0  0  0  0  0
  -29.2015  -20.5827   20.6811 C   0  0  0  0  0  0
  -29.6321  -17.5086   20.7026 C   0  0  0  0  0  0
  -29.9135  -18.3614   19.5734 C   0  0  0  0  0  0
  -28.9005  -19.7091   21.7867 C   0  0  0  0  0  0
  -31.1978  -23.1259   20.3904 C   0  0  0  0  0  0
  -30.1860  -23.6775   19.3803 C   0  0  0  0  0  0
  -30.3447  -22.4990   21.4999 C   0  0  0  0  0  0
  -28.8070  -23.3056   19.9449 C   0  0  2  0  0  0
  -28.1079  -24.7088   20.5901 C   0  0  0  0  0  0
  -29.1113  -22.0714   20.8462 N   0  0  0  0  0  0
  -29.6528  -15.9801   20.7772 N   0  0  0  0  0  0
  -30.3610  -17.7768   18.4357 F   0  0  0  0  0  0
  -28.2560  -20.3962   23.2373 Cl  0  0  0  0  0  0
  -31.4901  -12.7128   19.2029 H   0  0  0  0  0  0
  -30.4493  -11.5849   20.0192 H   0  0  0  0  0  0
  -29.8525  -11.7279   17.5858 H   0  0  0  0  0  0
  -29.6448  -13.4529   17.7072 H   0  0  0  0  0  0
  -27.9331  -11.2810   18.9500 H   0  0  0  0  0  0
  -27.4087  -12.4863   17.8067 H   0  0  0  0  0  0
  -27.6244  -14.2553   19.4587 H   0  0  0  0  0  0
  -28.7505  -12.1922   21.4119 H   0  0  0  0  0  0
  -28.3785  -13.8447   21.8192 H   0  0  0  0  0  0
  -25.2771   -9.5654   22.4775 H   0  0  0  0  0  0
  -23.9965   -7.4628   22.7492 H   0  0  0  0  0  0
  -21.0808   -8.8834   19.8974 H   0  0  0  0  0  0
  -22.3705  -10.9705   19.6175 H   0  0  0  0  0  0
  -21.2044   -7.6151   23.9748 H   0  0  0  0  0  0
  -21.1483   -6.0496   25.9105 H   0  0  0  0  0  0
  -22.0576   -2.7595   23.2821 H   0  0  0  0  0  0
  -22.3951  -11.9991   22.4961 H   0  0  0  0  0  0
  -21.1017  -13.1380   22.2517 H   0  0  0  0  0  0
  -24.6374  -15.8334   20.5790 H   0  0  0  0  0  0
  -26.2376  -15.6571   20.0781 H   0  0  0  0  0  0
  -26.7291  -32.5301   23.0990 H   0  0  0  0  0  0
  -25.0114  -33.9599   25.0328 H   0  0  0  0  0  0
  -22.7505  -31.2926   21.3685 H   0  0  0  0  0  0
  -23.3747  -35.9600   23.3263 H   0  0  0  0  0  0
  -24.3593  -36.8946   22.2061 H   0  0  0  0  0  0
  -23.7272  -37.6458   23.6711 H   0  0  0  0  0  0
  -26.1538  -31.4741   20.5993 H   0  0  0  0  0  0
  -26.8748  -30.7794   22.0148 H   0  0  0  0  0  0
  -28.1432  -28.8246   21.2085 H   0  0  0  0  0  0
  -25.9484  -25.8256   19.0290 H   0  0  0  0  0  0
  -23.9841  -27.2834   18.9861 H   0  0  0  0  0  0
  -23.8131  -30.5616   19.3891 H   0  0  0  0  0  0
  -22.7873  -29.2326   19.8322 H   0  0  0  0  0  0
  -25.1313  -36.1813   25.0799 H   0  0  0  0  0  0
  -21.0062  -28.3352   24.1315 H   0  0  0  0  0  0
  -20.5670  -26.2378   23.3627 H   0  0  0  0  0  0
  -21.6668  -26.7418   22.1214 H   0  0  0  0  0  0
  -19.6916  -25.6283   21.1255 H   0  0  0  0  0  0
  -19.6683  -27.3174   20.6715 H   0  0  0  0  0  0
  -17.4220  -26.6701   21.4019 H   0  0  0  0  0  0
  -18.0333  -26.0086   22.9027 H   0  0  0  0  0  0
  -19.7967  -30.7274   24.2268 H   0  0  0  0  0  0
  -17.5042  -31.6258   24.5163 H   0  0  0  0  0  0
  -15.5376  -30.2973   23.7625 H   0  0  0  0  0  0
  -15.8731  -28.0797   22.7057 H   0  0  0  0  0  0
  -24.5904  -30.7103   25.7768 H   0  0  0  0  0  0
  -24.8937  -32.2943   26.4792 H   0  0  0  0  0  0
  -25.8046  -30.8984   27.0208 H   0  0  0  0  0  0
  -26.2929  -29.6698   24.1269 H   0  0  0  0  0  0
  -27.3978  -29.7221   25.4808 H   0  0  0  0  0  0
  -27.8863  -30.4176   23.9539 H   0  0  0  0  0  0
  -27.2568  -33.3663   26.2012 H   0  0  0  0  0  0
  -28.3878  -32.6918   25.0366 H   0  0  0  0  0  0
  -28.0663  -31.8539   26.5485 H   0  0  0  0  0  0
  -28.2555  -38.0119   24.7506 H   0  0  0  0  0  0
  -28.1109  -36.2641   24.6249 H   0  0  0  0  0  0
  -27.2307  -37.1404   25.8866 H   0  0  0  0  0  0
  -20.9456  -29.8822   21.6798 H   0  0  0  0  0  0
  -26.0121  -38.2800   24.1422 H   0  0  0  0  0  0
  -29.9808  -20.3439   18.6719 H   0  0  0  0  0  0
  -28.8040  -17.7478   22.6810 H   0  0  0  0  0  0
  -31.8632  -23.8990   20.7777 H   0  0  0  0  0  0
  -31.8188  -22.3655   19.9117 H   0  0  0  0  0  0
  -30.3384  -23.2159   18.4042 H   0  0  0  0  0  0
  -30.3013  -24.7532   19.2408 H   0  0  0  0  0  0
  -30.1034  -23.2400   22.2653 H   0  0  0  0  0  0
  -30.8883  -21.6961   22.0046 H   0  0  0  0  0  0
  -28.1756  -22.9754   19.1185 H   0  0  0  0  0  0
  -28.4103  -24.7282   21.6369 H   0  0  0  0  0  0
  -27.0380  -24.5100   20.6484 H   0  0  0  0  0  0
  -28.8080  -15.6149   21.1861 H   0  0  0  0  0  0
  1 25  1  0  0  0
  1 30  2  0  0  0
  1 83  1  0  0  0
  2  3  1  0  0  0
  2 25  1  0  0  0
  2 86  1  0  0  0
  2 87  1  0  0  0
  3  4  1  0  0  0
  3 88  1  0  0  0
  3 89  1  0  0  0
  4  5  1  0  0  0
  4 90  1  0  0  0
  4 91  1  0  0  0
  5  6  1  0  0  0
  5 26  1  0  0  0
  5 92  1  0  0  0
  6 25  1  0  0  0
  6 93  1  0  0  0
  6 94  1  0  0  0
  7  8  2  0  0  0
  7 26  1  0  0  0
  7 29  1  0  0  0
  8  9  1  0  0  0
  8 22  1  0  0  0
  9 10  1  0  0  0
  9 27  2  0  0  0
 10 11  2  0  0  0
 10 15  1  0  0  0
 11 12  1  0  0  0
 11 95  1  0  0  0
 12 13  2  0  0  0
 12 96  1  0  0  0
 13 14  1  0  0  0
 13 31  1  0  0  0
 14 15  2  0  0  0
 14 97  1  0  0  0
 15 98  1  0  0  0
 16 17  2  0  0  0
 16 21  1  0  0  0
 16 31  1  0  0  0
 17 18  1  0  0  0
 17 99  1  0  0  0
 18 19  2  0  0  0
 18100  1  0  0  0
 19 20  1  0  0  0
 19 24  1  0  0  0
 20 21  2  0  0  0
 20101  1  0  0  0
 21 23  1  0  0  0
 22 28  1  0  0  0
 22 32  2  0  0  0
 26 27  1  0  0  0
 28102  1  0  0  0
 28103  1  0  0  0
 29104  1  0  0  0
 29105  1  0  0  0
 33 34  1  0  0  0
 33 66  1  0  0  0
 33 70  2  0  0  0
 34 36  1  0  0  0
 34 59  1  0  0  0
 34106  1  0  0  0
 35 44  2  0  0  0
 35 45  1  0  0  0
 35 68  1  0  0  0
 36 56  1  0  0  0
 36107  1  0  0  0
 37 39  1  0  0  0
 37 47  1  0  0  0
 37 66  1  0  0  0
 37108  1  0  0  0
 38 43  2  0  0  0
 38 46  1  0  0  0
 38 47  1  0  0  0
 39 64  1  0  0  0
 39 67  2  0  0  0
 40 52  1  0  0  0
 40 53  2  0  0  0
 40 58  1  0  0  0
 41109  1  0  0  0
 41110  1  0  0  0
 41111  1  0  0  0
 41 48  1  0  0  0
 42 43  1  0  0  0
 42 66  1  0  0  0
 42112  1  0  0  0
 42113  1  0  0  0
 43 44  1  0  0  0
 44114  1  0  0  0
 45 46  2  0  0  0
 45115  1  0  0  0
 46116  1  0  0  0
 47117  1  0  0  0
 47118  1  0  0  0
 48 56  1  0  0  0
 48 65  1  0  0  0
 48119  1  0  0  0
 49 50  1  0  0  0
 49 53  1  0  0  0
 49 64  1  0  0  0
 49120  1  0  0  0
 50 51  1  0  0  0
 50121  1  0  0  0
 50122  1  0  0  0
 51 52  1  0  0  0
 51123  1  0  0  0
 51124  1  0  0  0
 52125  1  0  0  0
 52126  1  0  0  0
 53 54  1  0  0  0
 54 55  2  0  0  0
 54127  1  0  0  0
 55 57  1  0  0  0
 55128  1  0  0  0
 56 69  2  0  0  0
 57 58  2  0  0  0
 57129  1  0  0  0
 58130  1  0  0  0
 59 60  1  0  0  0
 59 61  1  0  0  0
 59 62  1  0  0  0
 60131  1  0  0  0
 60132  1  0  0  0
 60133  1  0  0  0
 61134  1  0  0  0
 61135  1  0  0  0
 61136  1  0  0  0
 62137  1  0  0  0
 62138  1  0  0  0
 62139  1  0  0  0
 63 65  1  0  0  0
 63140  1  0  0  0
 63141  1  0  0  0
 63142  1  0  0  0
 64143  1  0  0  0
 65144  1  0  0  0
 68 81  1  0  0  0
 71 73  2  0  0  0
 71 75  1  0  0  0
 71145  1  0  0  0
 72 74  1  0  0  0
 72 76  2  0  0  0
 72146  1  0  0  0
 73 76  1  0  0  0
 73 82  1  0  0  0
 74 75  2  0  0  0
 74 83  1  0  0  0
 75 84  1  0  0  0
 76 85  1  0  0  0
 77 78  1  0  0  0
 77 79  1  0  0  0
 77147  1  0  0  0
 77148  1  0  0  0
 78 80  1  0  0  0
 78149  1  0  0  0
 78150  1  0  0  0
 79 82  1  0  0  0
 79151  1  0  0  0
 79152  1  0  0  0
 80 81  1  0  0  0
 80 82  1  0  0  0
 80153  1  0  0  0
 81154  1  0  0  0
 81155  1  0  0  0
 83156  1  0  0  0
M  ISO  4   1 100  68 101  81 101  83 100
M  END
> <chiral flag>
0

> <version>
0

> <s_m_source_file>
/data/baiqing/PycharmProjects/Reinvent-master-3.2/result/LINK_invent/BTK/process_docking_weight1_custom_product_contain_oxygen_bond_distance_aromatic_linkinvent_7_9_3/rearranged_h_0021.sdf

> <i_m_source_file_index>
95

> <r_mmod_Potential_Energy-OPLS-2005>
580.093383789062

> <r_mmod_Stretch_Energy-OPLS-2005>
223.143585205078

> <r_mmod_Bend_Energy-OPLS-2005>
308.944885253906

> <r_mmod_Torsional_Energy-OPLS-2005>
330.352478027344

> <r_mmod_Improper_Torsional_Energy-OPLS-2005>
9.54537582397461

> <r_mmod_Van_der_Waal_Energy-OPLS-2005>
125.201850891113

> <r_mmod_Electrostatic_Energy-OPLS-2005>
-362.470825195312

> <r_mmod_Solvation_Energy-OPLS-2005>
-222.784851074219

> <b_mmod_Minimization_Converged-OPLS-2005>
0

> <r_mmod_RMS_Derivative-OPLS-2005>
3.77992296218872

$$$$
95
                    3D
 Structure written by MMmdl.
153161  0  0  1  0            999 V2000
  -30.5007  -15.1790   20.3524 C   0  0  0  0  0  0
  -30.4282  -12.7437   19.5272 C   0  0  0  0  0  0
  -29.5296  -12.5491   18.2841 C   0  0  0  0  0  0
  -28.0764  -12.2806   18.7107 C   0  0  0  0  0  0
  -27.6050  -13.2560   19.8188 C   0  0  2  0  0  0
  -28.6385  -13.4436   20.9472 C   0  0  0  0  0  0
  -25.2401  -13.8210   20.5760 C   0  0  0  0  0  0
  -24.1735  -13.0423   20.9266 C   0  0  0  0  0  0
  -24.6368  -11.6909   20.8782 C   0  0  0  0  0  0
  -23.9070  -10.4279   21.0421 C   0  0  0  0  0  0
  -24.3614   -9.4197   21.9197 C   0  0  0  0  0  0
  -23.6294   -8.2232   22.0766 C   0  0  0  0  0  0
  -22.4274   -8.0273   21.3550 C   0  0  0  0  0  0
  -21.9909   -9.0255   20.4651 C   0  0  0  0  0  0
  -22.7239  -10.2127   20.3071 C   0  0  0  0  0  0
  -21.6845   -6.0736   22.5286 C   0  0  0  0  0  0
  -21.4012   -6.5641   23.8217 C   0  0  0  0  0  0
  -21.3662   -5.6796   24.9182 C   0  0  0  0  0  0
  -21.6041   -4.3055   24.7230 C   0  0  0  0  0  0
  -21.8814   -3.8149   23.4350 C   0  0  0  0  0  0
  -21.9188   -4.6964   22.3405 C   0  0  0  0  0  0
  -22.7762  -13.5199   21.1888 C   0  0  0  0  0  0
  -22.1652   -4.2150   21.0983 F   0  0  0  0  0  0
  -21.5626   -3.4545   25.7743 F   0  0  0  0  0  0
  -29.8900  -13.9012   20.3254 N   0  0  0  0  0  0
  -26.2777  -12.9428   20.3227 N   0  0  0  0  0  0
  -25.9293  -11.6551   20.5747 N   0  0  0  0  0  0
  -22.0396  -12.8211   22.0444 N   0  0  0  0  0  0
  -25.4079  -15.1943   20.4215 N   0  0  0  0  0  0
  -31.7256  -15.1146   20.1748 O   0  0  0  0  0  0
  -21.6636   -6.8881   21.4244 O   0  0  0  0  0  0
  -22.3453  -14.5498   20.6723 O   0  0  0  0  0  0
  -24.6579  -31.8292   23.1746 C   0  0  0  0  0  0
  -25.9283  -32.4605   23.8205 C   0  0  1  0  0  0
  -27.2193  -26.9955   20.1709 C   0  0  0  0  0  0
  -25.5983  -33.8422   24.2114 N   0  0  0  0  0  0
  -23.4704  -30.4440   21.5191 C   0  0  2  0  0  0
  -24.9234  -28.8408   20.1073 C   0  0  0  0  0  0
  -22.7636  -29.4491   22.4766 C   0  0  0  0  0  0
  -18.0327  -28.1406   22.8466 C   0  0  0  0  0  0
  -24.1498  -36.7233   23.2647 C   0  0  0  0  0  0
  -26.0356  -30.6568   21.3950 C   0  0  0  0  0  0
  -26.1042  -29.2538   20.7392 C   0  0  0  0  0  0
  -27.2479  -28.3479   20.7499 C   0  0  0  0  0  0
  -26.0184  -26.7245   19.4804 C   0  0  0  0  0  0
  -24.9014  -27.5954   19.4610 C   0  0  0  0  0  0
  -23.7079  -29.7623   20.1438 C   0  0  0  0  0  0
  -25.4128  -36.2980   24.0302 C   0  0  1  0  0  0
  -20.5951  -28.3762   23.1179 C   0  0  2  0  0  0
  -20.6800  -26.9443   22.5389 C   0  0  0  0  0  0
  -19.5768  -26.6381   21.5203 C   0  0  0  0  0  0
  -18.1957  -26.7942   22.1616 C   0  0  0  0  0  0
  -19.1591  -28.8898   23.2821 C   0  0  0  0  0  0
  -18.9490  -30.1484   23.8868 C   0  0  0  0  0  0
  -17.6483  -30.6593   24.0558 C   0  0  0  0  0  0
  -25.9085  -34.9364   23.5031 C   0  0  0  0  0  0
  -16.5376  -29.9085   23.6329 C   0  0  0  0  0  0
  -16.7313  -28.6501   23.0356 C   0  0  0  0  0  0
  -26.4554  -31.6531   25.0706 C   0  0  0  0  0  0
  -25.3705  -31.3767   26.1374 C   0  0  0  0  0  0
  -27.0437  -30.2911   24.6397 C   0  0  0  0  0  0
  -27.6056  -32.4332   25.7502 C   0  0  0  0  0  0
  -27.5574  -37.1768   24.8464 C   0  0  0  0  0  0
  -21.4315  -29.3069   22.3530 N   0  0  0  0  0  0
  -26.4283  -37.3704   23.9403 N   0  0  0  0  0  0
  -24.7421  -31.0025   22.0841 N   0  0  0  0  0  0
  -23.4221  -28.8056   23.2987 O   0  0  0  0  0  0
  -28.2245  -25.9217   20.2770 O   0  0  0  0  0  0
  -26.5679  -34.8887   22.4620 O   0  0  0  0  0  0
  -23.5659  -32.1243   23.6876 O   0  0  0  0  0  0
  -29.8957  -19.2832   21.1078 C   0  0  0  0  0  0
  -28.5717  -18.7298   19.3240 C   0  0  0  0  0  0
  -29.8544  -16.7214   20.3922 C   0  0  0  0  0  0
  -30.3096  -17.8520   21.2186 C   0  0  0  0  0  0
  -28.9995  -19.8740   20.1272 C   0  0  0  0  0  0
  -28.9637  -17.3111   19.4105 C   0  0  0  0  0  0
  -31.3705  -17.5618   22.2682 C   0  0  0  0  0  0
  -27.9556  -21.4097   18.5334 C   0  0  0  0  0  0
  -28.8359  -22.8409   20.4243 C   0  0  0  0  0  0
  -27.9860  -24.3447   19.9841 C   0  0  0  0  0  0
  -28.5629  -21.3417   19.8667 N   0  0  0  0  0  0
  -28.3711  -16.3147   18.1313 Cl  0  0  0  0  0  0
  -31.4572  -12.9061   19.2076 H   0  0  0  0  0  0
  -30.4541  -11.8386   20.1354 H   0  0  0  0  0  0
  -29.9014  -11.7242   17.6746 H   0  0  0  0  0  0
  -29.5731  -13.4404   17.6555 H   0  0  0  0  0  0
  -28.0302  -11.2570   19.0843 H   0  0  0  0  0  0
  -27.4091  -12.3218   17.8501 H   0  0  0  0  0  0
  -27.5053  -14.2107   19.3185 H   0  0  0  0  0  0
  -28.7863  -12.5215   21.5100 H   0  0  0  0  0  0
  -28.2898  -14.1937   21.6593 H   0  0  0  0  0  0
  -25.2755   -9.5667   22.4786 H   0  0  0  0  0  0
  -23.9991   -7.4617   22.7492 H   0  0  0  0  0  0
  -21.0832   -8.8779   19.8961 H   0  0  0  0  0  0
  -22.3703  -10.9675   19.6186 H   0  0  0  0  0  0
  -21.2016   -7.6154   23.9724 H   0  0  0  0  0  0
  -21.1485   -6.0528   25.9083 H   0  0  0  0  0  0
  -22.0592   -2.7613   23.2852 H   0  0  0  0  0  0
  -22.4009  -11.9897   22.4867 H   0  0  0  0  0  0
  -21.1016  -13.1249   22.2633 H   0  0  0  0  0  0
  -24.6383  -15.8450   20.5390 H   0  0  0  0  0  0
  -26.2551  -15.6356   20.0871 H   0  0  0  0  0  0
  -26.7361  -32.5167   23.0930 H   0  0  0  0  0  0
  -25.0093  -33.9508   25.0240 H   0  0  0  0  0  0
  -22.7813  -31.2755   21.3503 H   0  0  0  0  0  0
  -23.3749  -35.9574   23.3268 H   0  0  0  0  0  0
  -24.3591  -36.8911   22.2069 H   0  0  0  0  0  0
  -23.7258  -37.6421   23.6716 H   0  0  0  0  0  0
  -26.2108  -31.3994   20.6157 H   0  0  0  0  0  0
  -26.9009  -30.7150   22.0462 H   0  0  0  0  0  0
  -28.1444  -28.6551   21.2699 H   0  0  0  0  0  0
  -25.9085  -25.7769   18.9743 H   0  0  0  0  0  0
  -24.0039  -27.2728   18.9510 H   0  0  0  0  0  0
  -23.8671  -30.5337   19.3895 H   0  0  0  0  0  0
  -22.8193  -29.2175   19.8212 H   0  0  0  0  0  0
  -25.1316  -36.1789   25.0789 H   0  0  0  0  0  0
  -21.0059  -28.3364   24.1294 H   0  0  0  0  0  0
  -20.5674  -26.2380   23.3628 H   0  0  0  0  0  0
  -21.6660  -26.7413   22.1196 H   0  0  0  0  0  0
  -19.6925  -25.6283   21.1261 H   0  0  0  0  0  0
  -19.6697  -27.3163   20.6707 H   0  0  0  0  0  0
  -17.4218  -26.6692   21.4028 H   0  0  0  0  0  0
  -18.0361  -26.0097   22.9027 H   0  0  0  0  0  0
  -19.7965  -30.7312   24.2231 H   0  0  0  0  0  0
  -17.5030  -31.6263   24.5174 H   0  0  0  0  0  0
  -15.5374  -30.2974   23.7663 H   0  0  0  0  0  0
  -15.8715  -28.0803   22.7092 H   0  0  0  0  0  0
  -24.5894  -30.7103   25.7698 H   0  0  0  0  0  0
  -24.8877  -32.2956   26.4709 H   0  0  0  0  0  0
  -25.7953  -30.9002   27.0218 H   0  0  0  0  0  0
  -26.3089  -29.6589   24.1399 H   0  0  0  0  0  0
  -27.3991  -29.7264   25.5026 H   0  0  0  0  0  0
  -27.9021  -30.4102   23.9784 H   0  0  0  0  0  0
  -27.2630  -33.3666   26.1983 H   0  0  0  0  0  0
  -28.3913  -32.6840   25.0365 H   0  0  0  0  0  0
  -28.0676  -31.8527   26.5496 H   0  0  0  0  0  0
  -28.2558  -38.0092   24.7499 H   0  0  0  0  0  0
  -28.1098  -36.2613   24.6289 H   0  0  0  0  0  0
  -27.2298  -37.1412   25.8871 H   0  0  0  0  0  0
  -20.9559  -29.8772   21.6677 H   0  0  0  0  0  0
  -26.0132  -38.2771   24.1391 H   0  0  0  0  0  0
  -30.3345  -19.9774   21.8128 H   0  0  0  0  0  0
  -27.8914  -18.9181   18.5085 H   0  0  0  0  0  0
  -31.3263  -18.2720   23.0955 H   0  0  0  0  0  0
  -32.3600  -17.6362   21.8145 H   0  0  0  0  0  0
  -31.2649  -16.5640   22.6911 H   0  0  0  0  0  0
  -26.9823  -20.9185   18.5198 H   0  0  0  0  0  0
  -28.5931  -20.9362   17.7869 H   0  0  0  0  0  0
  -27.7899  -22.4229   18.1745 H   0  0  0  0  0  0
  -28.7780  -22.7685   21.5117 H   0  0  0  0  0  0
  -29.8915  -23.0189   20.2242 H   0  0  0  0  0  0
  -26.9468  -24.1623   20.2644 H   0  0  0  0  0  0
  -27.9672  -24.3501   18.8971 H   0  0  0  0  0  0
  1 25  1  0  0  0
  1 30  2  0  0  0
  1 73  1  0  0  0
  2  3  1  0  0  0
  2 25  1  0  0  0
  2 83  1  0  0  0
  2 84  1  0  0  0
  3  4  1  0  0  0
  3 85  1  0  0  0
  3 86  1  0  0  0
  4  5  1  0  0  0
  4 87  1  0  0  0
  4 88  1  0  0  0
  5  6  1  0  0  0
  5 26  1  0  0  0
  5 89  1  0  0  0
  6 25  1  0  0  0
  6 90  1  0  0  0
  6 91  1  0  0  0
  7  8  2  0  0  0
  7 26  1  0  0  0
  7 29  1  0  0  0
  8  9  1  0  0  0
  8 22  1  0  0  0
  9 10  1  0  0  0
  9 27  2  0  0  0
 10 11  2  0  0  0
 10 15  1  0  0  0
 11 12  1  0  0  0
 11 92  1  0  0  0
 12 13  2  0  0  0
 12 93  1  0  0  0
 13 14  1  0  0  0
 13 31  1  0  0  0
 14 15  2  0  0  0
 14 94  1  0  0  0
 15 95  1  0  0  0
 16 17  2  0  0  0
 16 21  1  0  0  0
 16 31  1  0  0  0
 17 18  1  0  0  0
 17 96  1  0  0  0
 18 19  2  0  0  0
 18 97  1  0  0  0
 19 20  1  0  0  0
 19 24  1  0  0  0
 20 21  2  0  0  0
 20 98  1  0  0  0
 21 23  1  0  0  0
 22 28  1  0  0  0
 22 32  2  0  0  0
 26 27  1  0  0  0
 28 99  1  0  0  0
 28100  1  0  0  0
 29101  1  0  0  0
 29102  1  0  0  0
 33 34  1  0  0  0
 33 66  1  0  0  0
 33 70  2  0  0  0
 34 36  1  0  0  0
 34 59  1  0  0  0
 34103  1  0  0  0
 35 44  2  0  0  0
 35 45  1  0  0  0
 35 68  1  0  0  0
 36 56  1  0  0  0
 36104  1  0  0  0
 37 39  1  0  0  0
 37 47  1  0  0  0
 37 66  1  0  0  0
 37105  1  0  0  0
 38 43  2  0  0  0
 38 46  1  0  0  0
 38 47  1  0  0  0
 39 64  1  0  0  0
 39 67  2  0  0  0
 40 52  1  0  0  0
 40 53  2  0  0  0
 40 58  1  0  0  0
 41106  1  0  0  0
 41107  1  0  0  0
 41108  1  0  0  0
 41 48  1  0  0  0
 42 43  1  0  0  0
 42 66  1  0  0  0
 42109  1  0  0  0
 42110  1  0  0  0
 43 44  1  0  0  0
 44111  1  0  0  0
 45 46  2  0  0  0
 45112  1  0  0  0
 46113  1  0  0  0
 47114  1  0  0  0
 47115  1  0  0  0
 48 56  1  0  0  0
 48 65  1  0  0  0
 48116  1  0  0  0
 49 50  1  0  0  0
 49 53  1  0  0  0
 49 64  1  0  0  0
 49117  1  0  0  0
 50 51  1  0  0  0
 50118  1  0  0  0
 50119  1  0  0  0
 51 52  1  0  0  0
 51120  1  0  0  0
 51121  1  0  0  0
 52122  1  0  0  0
 52123  1  0  0  0
 53 54  1  0  0  0
 54 55  2  0  0  0
 54124  1  0  0  0
 55 57  1  0  0  0
 55125  1  0  0  0
 56 69  2  0  0  0
 57 58  2  0  0  0
 57126  1  0  0  0
 58127  1  0  0  0
 59 60  1  0  0  0
 59 61  1  0  0  0
 59 62  1  0  0  0
 60128  1  0  0  0
 60129  1  0  0  0
 60130  1  0  0  0
 61131  1  0  0  0
 61132  1  0  0  0
 61133  1  0  0  0
 62134  1  0  0  0
 62135  1  0  0  0
 62136  1  0  0  0
 63 65  1  0  0  0
 63137  1  0  0  0
 63138  1  0  0  0
 63139  1  0  0  0
 64140  1  0  0  0
 65141  1  0  0  0
 68 80  1  0  0  0
 71 74  2  0  0  0
 71 75  1  0  0  0
 71142  1  0  0  0
 72 75  2  0  0  0
 72 76  1  0  0  0
 72143  1  0  0  0
 73 74  1  0  0  0
 73 76  2  0  0  0
 74 77  1  0  0  0
 75 81  1  0  0  0
 76 82  1  0  0  0
 77144  1  0  0  0
 77145  1  0  0  0
 77146  1  0  0  0
 78 81  1  0  0  0
 78147  1  0  0  0
 78148  1  0  0  0
 78149  1  0  0  0
 79 80  1  0  0  0
 79 81  1  0  0  0
 79150  1  0  0  0
 79151  1  0  0  0
 80152  1  0  0  0
 80153  1  0  0  0
M  ISO  4   1 100  68 101  73 100  80 101
M  END
> <chiral flag>
0

> <version>
0

> <s_m_source_file>
/data/baiqing/PycharmProjects/Reinvent-master-3.2/result/LINK_invent/BTK/process_docking_weight1_custom_product_contain_oxygen_bond_distance_aromatic_linkinvent_7_9_3/rearranged_h_0021.sdf

> <i_m_source_file_index>
96

> <r_mmod_Potential_Energy-OPLS-2005>
1115.8369140625

> <r_mmod_Stretch_Energy-OPLS-2005>
437.845520019531

> <r_mmod_Bend_Energy-OPLS-2005>
409.725372314453

> <r_mmod_Torsional_Energy-OPLS-2005>
202.032958984375

> <r_mmod_Improper_Torsional_Energy-OPLS-2005>
6.38517045974731

> <r_mmod_Van_der_Waal_Energy-OPLS-2005>
141.707702636719

> <r_mmod_Electrostatic_Energy-OPLS-2005>
-243.913391113281

> <r_mmod_Solvation_Energy-OPLS-2005>
-208.88232421875

> <b_mmod_Minimization_Converged-OPLS-2005>
0

> <r_mmod_RMS_Derivative-OPLS-2005>
3.3126528263092

$$$$
96
                    3D
 Structure written by MMmdl.
165174  0  0  1  0            999 V2000
  -30.2338  -14.9532   20.5622 C   0  0  0  0  0  0
  -30.4288  -12.6164   19.5313 C   0  0  0  0  0  0
  -29.5182  -12.5505   18.2769 C   0  0  0  0  0  0
  -28.0425  -12.3133   18.6628 C   0  0  0  0  0  0
  -27.6070  -13.2068   19.8523 C   0  0  2  0  0  0
  -28.6061  -13.1154   21.0158 C   0  0  0  0  0  0
  -25.2376  -13.8153   20.5665 C   0  0  0  0  0  0
  -24.1685  -13.0418   20.9207 C   0  0  0  0  0  0
  -24.6244  -11.6885   20.8740 C   0  0  0  0  0  0
  -23.8990  -10.4277   21.0435 C   0  0  0  0  0  0
  -24.3607   -9.4202   21.9181 C   0  0  0  0  0  0
  -23.6295   -8.2234   22.0743 C   0  0  0  0  0  0
  -22.4263   -8.0275   21.3549 C   0  0  0  0  0  0
  -21.9886   -9.0241   20.4648 C   0  0  0  0  0  0
  -22.7195  -10.2120   20.3065 C   0  0  0  0  0  0
  -21.6856   -6.0740   22.5288 C   0  0  0  0  0  0
  -21.4013   -6.5641   23.8222 C   0  0  0  0  0  0
  -21.3642   -5.6785   24.9176 C   0  0  0  0  0  0
  -21.6046   -4.3050   24.7224 C   0  0  0  0  0  0
  -21.8831   -3.8150   23.4343 C   0  0  0  0  0  0
  -21.9196   -4.6971   22.3405 C   0  0  0  0  0  0
  -22.7747  -13.5224   21.1920 C   0  0  0  0  0  0
  -22.1667   -4.2169   21.0978 F   0  0  0  0  0  0
  -21.5624   -3.4519   25.7726 F   0  0  0  0  0  0
  -29.8583  -13.6208   20.4783 N   0  0  0  0  0  0
  -26.2651  -12.9257   20.3108 N   0  0  0  0  0  0
  -25.9108  -11.6443   20.5651 N   0  0  0  0  0  0
  -22.0448  -12.8177   22.0489 N   0  0  0  0  0  0
  -25.4152  -15.1893   20.4174 N   0  0  0  0  0  0
  -31.4053  -15.2132   20.2270 O   0  0  0  0  0  0
  -21.6621   -6.8878   21.4252 O   0  0  0  0  0  0
  -22.3425  -14.5539   20.6785 O   0  0  0  0  0  0
  -24.6777  -31.9469   23.2028 C   0  0  0  0  0  0
  -25.9646  -32.5055   23.8501 C   0  0  1  0  0  0
  -26.2235  -27.1056   20.4341 C   0  0  0  0  0  0
  -25.6471  -33.8804   24.2518 N   0  0  0  0  0  0
  -23.4621  -30.6352   21.5564 C   0  0  2  0  0  0
  -24.7652  -29.1795   19.9121 C   0  0  0  0  0  0
  -23.0093  -29.6000   22.5917 C   0  0  0  0  0  0
  -18.5453  -27.9962   22.3434 C   0  0  0  0  0  0
  -24.1520  -36.7329   23.2603 C   0  0  0  0  0  0
  -25.9897  -30.7923   21.3931 C   0  0  0  0  0  0
  -25.8976  -29.4434   20.6926 C   0  0  0  0  0  0
  -26.7766  -28.3570   20.8812 C   0  0  0  0  0  0
  -25.7667  -27.1018   19.1467 C   0  0  0  0  0  0
  -24.7531  -28.0625   19.0425 C   0  0  0  0  0  0
  -23.5875  -30.0823   20.1001 C   0  0  0  0  0  0
  -25.4149  -36.3183   24.0322 C   0  0  1  0  0  0
  -21.1555  -28.3823   23.4886 C   0  0  2  0  0  0
  -22.0461  -26.6953   23.2331 C   0  0  0  0  0  0
  -20.4718  -25.4439   21.5401 C   0  0  0  0  0  0
  -18.9257  -26.5976   21.3565 C   0  0  0  0  0  0
  -19.5395  -28.7568   23.1695 C   0  0  0  0  0  0
  -19.0864  -29.9295   23.8699 C   0  0  0  0  0  0
  -17.7462  -30.3615   23.9349 C   0  0  0  0  0  0
  -25.9195  -34.9597   23.5123 C   0  0  0  0  0  0
  -16.7683  -29.5624   23.3297 C   0  0  0  0  0  0
  -17.1671  -28.4148   22.5759 C   0  0  0  0  0  0
  -26.4650  -31.6636   25.0861 C   0  0  0  0  0  0
  -25.3708  -31.3812   26.1410 C   0  0  0  0  0  0
  -27.0386  -30.3021   24.6319 C   0  0  0  0  0  0
  -27.6209  -32.4212   25.7765 C   0  0  0  0  0  0
  -27.5619  -37.1872   24.8457 C   0  0  0  0  0  0
  -21.7285  -29.5290   22.8306 N   0  0  0  0  0  0
  -26.4292  -37.3905   23.9456 N   0  0  0  0  0  0
  -24.7325  -31.1927   22.0687 N   0  0  0  0  0  0
  -23.8018  -28.9307   23.2467 O   0  0  0  0  0  0
  -25.1050  -26.5939   21.2018 O   0  0  0  0  0  0
  -26.5572  -34.9019   22.4581 O   0  0  0  0  0  0
  -23.5960  -32.2286   23.7464 O   0  0  0  0  0  0
  -27.0689  -19.2730   20.1614 C   0  0  0  0  0  0
  -26.1490  -20.4031   20.3510 C   0  0  0  0  0  0
  -26.5228  -20.2972   22.6475 C   0  0  0  0  0  0
  -27.8140  -18.5850   21.1937 C   0  0  0  0  0  0
  -25.8140  -21.0192   21.6136 C   0  0  0  0  0  0
  -27.4649  -19.1855   22.4630 C   0  0  0  0  0  0
  -20.7399  -24.6693   23.9018 C   0  0  0  0  0  0
  -19.9373  -26.2408   23.5192 C   0  0  0  0  0  0
  -22.2655  -24.1427   23.1353 C   0  0  0  0  0  0
  -21.4698  -27.3703   21.2467 C   0  0  0  0  0  0
  -23.2065  -24.6110   21.7213 C   0  0  1  0  0  0
  -23.3151  -26.3120   21.0422 C   0  0  2  0  0  0
  -29.0956  -17.5163   20.9164 C   0  0  0  0  0  0
  -24.6351  -23.6345   21.6163 C   0  0  0  0  0  0
  -24.7663  -22.0784   21.8777 N   0  0  0  0  0  0
  -29.2122  -15.9267   20.8754 N   0  0  0  0  0  0
  -28.2411  -18.5753   23.8818 Cl  0  0  0  0  0  0
  -31.4453  -12.8809   19.2347 H   0  0  0  0  0  0
  -30.4975  -11.6385   20.0115 H   0  0  0  0  0  0
  -29.8603  -11.7680   17.5987 H   0  0  0  0  0  0
  -29.5987  -13.4888   17.7261 H   0  0  0  0  0  0
  -27.9260  -11.2609   18.9288 H   0  0  0  0  0  0
  -27.3944  -12.4809   17.8017 H   0  0  0  0  0  0
  -27.5966  -14.2269   19.4690 H   0  0  0  0  0  0
  -28.7114  -12.0907   21.3773 H   0  0  0  0  0  0
  -28.2669  -13.7018   21.8711 H   0  0  0  0  0  0
  -25.2780   -9.5674   22.4714 H   0  0  0  0  0  0
  -24.0032   -7.4607   22.7423 H   0  0  0  0  0  0
  -21.0839   -8.8760   19.8925 H   0  0  0  0  0  0
  -22.3689  -10.9666   19.6163 H   0  0  0  0  0  0
  -21.2012   -7.6148   23.9746 H   0  0  0  0  0  0
  -21.1440   -6.0492   25.9081 H   0  0  0  0  0  0
  -22.0627   -2.7619   23.2826 H   0  0  0  0  0  0
  -22.4115  -11.9800   22.4768 H   0  0  0  0  0  0
  -21.1088  -13.1183   22.2809 H   0  0  0  0  0  0
  -24.6576  -15.8434   20.5812 H   0  0  0  0  0  0
  -26.2361  -15.6357   20.0300 H   0  0  0  0  0  0
  -26.7764  -32.5508   23.1250 H   0  0  0  0  0  0
  -25.0711  -33.9927   25.0726 H   0  0  0  0  0  0
  -22.7188  -31.4347   21.5193 H   0  0  0  0  0  0
  -23.3841  -35.9594   23.3178 H   0  0  0  0  0  0
  -24.3638  -36.9043   22.2039 H   0  0  0  0  0  0
  -23.7176  -37.6471   23.6666 H   0  0  0  0  0  0
  -26.2380  -31.5504   20.6492 H   0  0  0  0  0  0
  -26.8439  -30.7318   22.0561 H   0  0  0  0  0  0
  -27.5316  -28.4047   21.6534 H   0  0  0  0  0  0
  -25.5986  -26.1792   18.6094 H   0  0  0  0  0  0
  -23.9435  -27.9160   18.3435 H   0  0  0  0  0  0
  -23.7222  -30.9258   19.4218 H   0  0  0  0  0  0
  -22.6751  -29.5982   19.7624 H   0  0  0  0  0  0
  -25.1292  -36.2037   25.0810 H   0  0  0  0  0  0
  -21.2932  -28.5940   24.5506 H   0  0  0  0  0  0
  -22.1470  -26.3988   24.2857 H   0  0  0  0  0  0
  -23.1303  -26.7256   23.2006 H   0  0  0  0  0  0
  -20.1085  -24.4299   21.7146 H   0  0  0  0  0  0
  -20.8678  -25.2090   20.5463 H   0  0  0  0  0  0
  -18.8967  -26.9561   20.3271 H   0  0  0  0  0  0
  -18.0486  -25.9508   21.3997 H   0  0  0  0  0  0
  -19.8097  -30.4998   24.4362 H   0  0  0  0  0  0
  -17.4723  -31.2459   24.4935 H   0  0  0  0  0  0
  -15.7209  -29.8248   23.4051 H   0  0  0  0  0  0
  -16.3877  -27.8396   22.0933 H   0  0  0  0  0  0
  -24.5858  -30.7295   25.7549 H   0  0  0  0  0  0
  -24.8964  -32.3005   26.4860 H   0  0  0  0  0  0
  -25.7846  -30.8856   27.0196 H   0  0  0  0  0  0
  -26.2968  -29.6905   24.1177 H   0  0  0  0  0  0
  -27.3845  -29.7170   25.4850 H   0  0  0  0  0  0
  -27.8981  -30.4254   23.9722 H   0  0  0  0  0  0
  -27.2899  -33.3524   26.2370 H   0  0  0  0  0  0
  -28.4099  -32.6725   25.0662 H   0  0  0  0  0  0
  -28.0744  -31.8250   26.5688 H   0  0  0  0  0  0
  -28.2550  -38.0258   24.7658 H   0  0  0  0  0  0
  -28.1216  -36.2817   24.6081 H   0  0  0  0  0  0
  -27.2377  -37.1255   25.8860 H   0  0  0  0  0  0
  -21.0934  -30.1518   22.3516 H   0  0  0  0  0  0
  -26.0152  -38.2947   24.1570 H   0  0  0  0  0  0
  -27.2269  -18.9369   19.1473 H   0  0  0  0  0  0
  -25.6583  -20.7849   19.4667 H   0  0  0  0  0  0
  -26.3521  -20.6061   23.6695 H   0  0  0  0  0  0
  -20.0042  -23.8759   23.7545 H   0  0  0  0  0  0
  -20.8873  -24.6238   24.9826 H   0  0  0  0  0  0
  -19.9144  -26.7233   24.5034 H   0  0  0  0  0  0
  -18.8882  -25.9192   23.5066 H   0  0  0  0  0  0
  -22.1469  -23.0644   23.0253 H   0  0  0  0  0  0
  -22.9955  -24.2131   23.9426 H   0  0  0  0  0  0
  -21.3996  -28.3990   20.9406 H   0  0  0  0  0  0
  -21.0570  -27.2136   20.2406 H   0  0  0  0  0  0
  -22.6364  -24.1305   20.9278 H   0  0  0  0  0  0
  -23.2804  -26.1193   19.9715 H   0  0  0  0  0  0
  -29.8612  -17.8149   21.6342 H   0  0  0  0  0  0
  -29.5112  -17.8368   19.9604 H   0  0  0  0  0  0
  -25.3177  -24.0846   22.3415 H   0  0  0  0  0  0
  -25.1043  -23.8293   20.6516 H   0  0  0  0  0  0
  -24.3418  -21.8919   22.7850 H   0  0  0  0  0  0
  -28.3450  -15.4743   21.1226 H   0  0  0  0  0  0
  1 25  1  0  0  0
  1 30  2  0  0  0
  1 86  1  0  0  0
  2  3  1  0  0  0
  2 25  1  0  0  0
  2 88  1  0  0  0
  2 89  1  0  0  0
  3  4  1  0  0  0
  3 90  1  0  0  0
  3 91  1  0  0  0
  4  5  1  0  0  0
  4 92  1  0  0  0
  4 93  1  0  0  0
  5  6  1  0  0  0
  5 26  1  0  0  0
  5 94  1  0  0  0
  6 25  1  0  0  0
  6 95  1  0  0  0
  6 96  1  0  0  0
  7  8  2  0  0  0
  7 26  1  0  0  0
  7 29  1  0  0  0
  8  9  1  0  0  0
  8 22  1  0  0  0
  9 10  1  0  0  0
  9 27  2  0  0  0
 10 11  2  0  0  0
 10 15  1  0  0  0
 11 12  1  0  0  0
 11 97  1  0  0  0
 12 13  2  0  0  0
 12 98  1  0  0  0
 13 14  1  0  0  0
 13 31  1  0  0  0
 14 15  2  0  0  0
 14 99  1  0  0  0
 15100  1  0  0  0
 16 17  2  0  0  0
 16 21  1  0  0  0
 16 31  1  0  0  0
 17 18  1  0  0  0
 17101  1  0  0  0
 18 19  2  0  0  0
 18102  1  0  0  0
 19 20  1  0  0  0
 19 24  1  0  0  0
 20 21  2  0  0  0
 20103  1  0  0  0
 21 23  1  0  0  0
 22 28  1  0  0  0
 22 32  2  0  0  0
 26 27  1  0  0  0
 28104  1  0  0  0
 28105  1  0  0  0
 29106  1  0  0  0
 29107  1  0  0  0
 33 34  1  0  0  0
 33 66  1  0  0  0
 33 70  2  0  0  0
 34 36  1  0  0  0
 34 59  1  0  0  0
 34108  1  0  0  0
 35 44  2  0  0  0
 35 45  1  0  0  0
 35 68  1  0  0  0
 36 56  1  0  0  0
 36109  1  0  0  0
 37 39  1  0  0  0
 37 47  1  0  0  0
 37 66  1  0  0  0
 37110  1  0  0  0
 38 43  2  0  0  0
 38 46  1  0  0  0
 38 47  1  0  0  0
 39 64  1  0  0  0
 39 67  2  0  0  0
 40 52  1  0  0  0
 40 53  2  0  0  0
 40 58  1  0  0  0
 41111  1  0  0  0
 41112  1  0  0  0
 41113  1  0  0  0
 41 48  1  0  0  0
 42 43  1  0  0  0
 42 66  1  0  0  0
 42114  1  0  0  0
 42115  1  0  0  0
 43 44  1  0  0  0
 44116  1  0  0  0
 45 46  2  0  0  0
 45117  1  0  0  0
 46118  1  0  0  0
 47119  1  0  0  0
 47120  1  0  0  0
 48 56  1  0  0  0
 48 65  1  0  0  0
 48121  1  0  0  0
 49 50  1  0  0  0
 49 53  1  0  0  0
 49 64  1  0  0  0
 49122  1  0  0  0
 50 51  1  0  0  0
 50123  1  0  0  0
 50124  1  0  0  0
 51 52  1  0  0  0
 51125  1  0  0  0
 51126  1  0  0  0
 52127  1  0  0  0
 52128  1  0  0  0
 53 54  1  0  0  0
 54 55  2  0  0  0
 54129  1  0  0  0
 55 57  1  0  0  0
 55130  1  0  0  0
 56 69  2  0  0  0
 57 58  2  0  0  0
 57131  1  0  0  0
 58132  1  0  0  0
 59 60  1  0  0  0
 59 61  1  0  0  0
 59 62  1  0  0  0
 60133  1  0  0  0
 60134  1  0  0  0
 60135  1  0  0  0
 61136  1  0  0  0
 61137  1  0  0  0
 61138  1  0  0  0
 62139  1  0  0  0
 62140  1  0  0  0
 62141  1  0  0  0
 63 65  1  0  0  0
 63142  1  0  0  0
 63143  1  0  0  0
 63144  1  0  0  0
 64145  1  0  0  0
 65146  1  0  0  0
 68 82  1  0  0  0
 71 72  2  0  0  0
 71 74  1  0  0  0
 71147  1  0  0  0
 72 75  1  0  0  0
 72148  1  0  0  0
 73 75  2  0  0  0
 73 76  1  0  0  0
 73149  1  0  0  0
 74 76  2  0  0  0
 74 83  1  0  0  0
 75 85  1  0  0  0
 76 87  1  0  0  0
 77 78  1  0  0  0
 77 79  1  0  0  0
 77150  1  0  0  0
 77151  1  0  0  0
 78 80  1  0  0  0
 78152  1  0  0  0
 78153  1  0  0  0
 79 81  1  0  0  0
 79154  1  0  0  0
 79155  1  0  0  0
 80 82  1  0  0  0
 80156  1  0  0  0
 80157  1  0  0  0
 81 82  1  0  0  0
 81 84  1  0  0  0
 81158  1  0  0  0
 82159  1  0  0  0
 83 86  1  0  0  0
 83160  1  0  0  0
 83161  1  0  0  0
 84 85  1  0  0  0
 84162  1  0  0  0
 84163  1  0  0  0
 85164  1  0  0  0
 86165  1  0  0  0
M  ISO  4   1 100  68 101  82 101  86 100
M  END
> <chiral flag>
0

> <version>
0

> <s_m_source_file>
/data/baiqing/PycharmProjects/Reinvent-master-3.2/result/LINK_invent/BTK/process_docking_weight1_custom_product_contain_oxygen_bond_distance_aromatic_linkinvent_7_9_3/rearranged_h_0021.sdf

> <i_m_source_file_index>
97

> <r_mmod_Potential_Energy-OPLS-2005>
10929.6494140625

> <r_mmod_Stretch_Energy-OPLS-2005>
5436.005859375

> <r_mmod_Bend_Energy-OPLS-2005>
848.099060058594

> <r_mmod_Torsional_Energy-OPLS-2005>
555.560424804688

> <r_mmod_Improper_Torsional_Energy-OPLS-2005>
40.8733406066895

> <r_mmod_Van_der_Waal_Energy-OPLS-2005>
2109.11987304688

> <r_mmod_Electrostatic_Energy-OPLS-2005>
-372.733245849609

> <r_mmod_Solvation_Energy-OPLS-2005>
-208.983871459961

> <b_mmod_Minimization_Converged-OPLS-2005>
0

> <r_mmod_RMS_Derivative-OPLS-2005>
5.57329225540161

$$$$
97
                    3D
 Structure written by MMmdl.
174183  0  0  1  0            999 V2000
  -30.6844  -14.5695   20.4444 C   0  0  0  0  0  0
  -30.4226  -12.3360   19.4515 C   0  0  0  0  0  0
  -29.5080  -12.4912   18.2154 C   0  0  0  0  0  0
  -28.0286  -12.3397   18.6259 C   0  0  0  0  0  0
  -27.6558  -13.2186   19.8542 C   0  0  2  0  0  0
  -28.7017  -13.0879   20.9894 C   0  0  0  0  0  0
  -25.2576  -13.8203   20.5664 C   0  0  0  0  0  0
  -24.1856  -13.0472   20.9193 C   0  0  0  0  0  0
  -24.6424  -11.6935   20.8738 C   0  0  0  0  0  0
  -23.9086  -10.4326   21.0427 C   0  0  0  0  0  0
  -24.3642   -9.4244   21.9176 C   0  0  0  0  0  0
  -23.6344   -8.2263   22.0723 C   0  0  0  0  0  0
  -22.4314   -8.0292   21.3518 C   0  0  0  0  0  0
  -21.9952   -9.0283   20.4632 C   0  0  0  0  0  0
  -22.7266  -10.2177   20.3056 C   0  0  0  0  0  0
  -21.6838   -6.0788   22.5308 C   0  0  0  0  0  0
  -21.4019   -6.5673   23.8250 C   0  0  0  0  0  0
  -21.3657   -5.6803   24.9198 C   0  0  0  0  0  0
  -21.6035   -4.3051   24.7215 C   0  0  0  0  0  0
  -21.8810   -3.8191   23.4314 C   0  0  0  0  0  0
  -21.9202   -4.7024   22.3398 C   0  0  0  0  0  0
  -22.7872  -13.5268   21.1837 C   0  0  0  0  0  0
  -22.1647   -4.2229   21.0968 F   0  0  0  0  0  0
  -21.5627   -3.4521   25.7712 F   0  0  0  0  0  0
  -30.0260  -13.3742   20.4193 N   0  0  0  0  0  0
  -26.3024  -12.9389   20.3271 N   0  0  0  0  0  0
  -25.9359  -11.6549   20.5719 N   0  0  0  0  0  0
  -22.0449  -12.8306   22.0386 N   0  0  0  0  0  0
  -25.4202  -15.1913   20.4058 N   0  0  0  0  0  0
  -31.8675  -14.6638   20.1087 O   0  0  0  0  0  0
  -21.6609   -6.8926   21.4270 O   0  0  0  0  0  0
  -22.3572  -14.5546   20.6628 O   0  0  0  0  0  0
  -24.6155  -31.8647   23.2022 C   0  0  0  0  0  0
  -25.9031  -32.4814   23.8334 C   0  0  1  0  0  0
  -27.2292  -27.3957   20.1162 C   0  0  0  0  0  0
  -25.5869  -33.8610   24.2256 N   0  0  0  0  0  0
  -23.4044  -30.4845   21.5464 C   0  0  2  0  0  0
  -24.8509  -28.9364   20.1192 C   0  0  0  0  0  0
  -22.7405  -29.4644   22.4992 C   0  0  0  0  0  0
  -18.0264  -28.1356   22.8496 C   0  0  0  0  0  0
  -24.1498  -36.7323   23.2634 C   0  0  0  0  0  0
  -25.9355  -30.8182   21.3585 C   0  0  0  0  0  0
  -26.0129  -29.4478   20.7123 C   0  0  0  0  0  0
  -27.2070  -28.6859   20.7029 C   0  0  0  0  0  0
  -26.0521  -26.9037   19.5168 C   0  0  0  0  0  0
  -24.8667  -27.6650   19.5170 C   0  0  0  0  0  0
  -23.6132  -29.8051   20.1660 C   0  0  0  0  0  0
  -25.4123  -36.3114   24.0329 C   0  0  1  0  0  0
  -20.5856  -28.3653   23.1320 C   0  0  2  0  0  0
  -20.6756  -26.9386   22.5419 C   0  0  0  0  0  0
  -19.5745  -26.6365   21.5207 C   0  0  0  0  0  0
  -18.1920  -26.7909   22.1615 C   0  0  0  0  0  0
  -19.1513  -28.8825   23.2897 C   0  0  0  0  0  0
  -18.9441  -30.1428   23.8904 C   0  0  0  0  0  0
  -17.6446  -30.6578   24.0554 C   0  0  0  0  0  0
  -25.9040  -34.9479   23.5101 C   0  0  0  0  0  0
  -16.5336  -29.9073   23.6323 C   0  0  0  0  0  0
  -16.7254  -28.6481   23.0362 C   0  0  0  0  0  0
  -26.4430  -31.6613   25.0682 C   0  0  0  0  0  0
  -25.3659  -31.3789   26.1412 C   0  0  0  0  0  0
  -27.0228  -30.3033   24.6084 C   0  0  0  0  0  0
  -27.6008  -32.4328   25.7431 C   0  0  0  0  0  0
  -27.5602  -37.1804   24.8448 C   0  0  0  0  0  0
  -21.4127  -29.3021   22.3726 N   0  0  0  0  0  0
  -26.4312  -37.3799   23.9398 N   0  0  0  0  0  0
  -24.6705  -31.0720   22.0941 N   0  0  0  0  0  0
  -23.4171  -28.8204   23.3047 O   0  0  0  0  0  0
  -28.3889  -26.6431   20.0827 O   0  0  0  0  0  0
  -26.5643  -34.8939   22.4673 O   0  0  0  0  0  0
  -23.5338  -32.1432   23.7404 O   0  0  0  0  0  0
  -31.0333  -18.4777   18.3624 C   0  0  0  0  0  0
  -30.7692  -17.1922   18.8672 C   0  0  0  0  0  0
  -29.7472  -18.1922   20.8268 C   0  0  0  0  0  0
  -30.0395  -19.5104   20.3480 C   0  0  0  0  0  0
  -30.7033  -19.6381   19.0972 C   0  0  0  0  0  0
  -30.1537  -17.0146   20.1287 C   0  0  0  0  0  0
  -31.6077  -22.5796   17.0872 C   0  0  0  0  0  0
  -32.9087  -22.2625   17.8239 C   0  0  0  0  0  0
  -30.8223  -21.2807   17.2545 C   0  0  0  0  0  0
  -32.4933  -21.2659   18.9171 C   0  0  0  0  0  0
  -27.6655  -21.2376   23.3682 C   0  0  0  0  0  0
  -29.8451  -20.7371   21.2903 C   0  0  0  0  0  0
  -28.1176  -24.0873   19.9419 C   0  0  0  0  0  0
  -28.2308  -22.2889   22.3873 C   0  0  0  0  0  0
  -29.0996  -22.8661   20.1413 C   0  0  0  0  0  0
  -28.3934  -25.3754   20.7881 C   0  0  0  0  0  0
  -31.1070  -20.9013   18.6351 N   0  0  0  0  0  0
  -29.9313  -15.6849   20.6682 N   0  0  0  0  0  0
  -28.7274  -21.7438   21.0825 N   0  3  1  0  0  0
  -31.4710  -12.4136   19.1644 H   0  0  0  0  0  0
  -30.3044  -11.3433   19.8898 H   0  0  0  0  0  0
  -29.7772  -11.7604   17.4507 H   0  0  0  0  0  0
  -29.6552  -13.4724   17.7624 H   0  0  0  0  0  0
  -27.8583  -11.2869   18.8562 H   0  0  0  0  0  0
  -27.3788  -12.5689   17.7804 H   0  0  0  0  0  0
  -27.6683  -14.2488   19.5014 H   0  0  0  0  0  0
  -28.6816  -12.0845   21.4203 H   0  0  0  0  0  0
  -28.4737  -13.7715   21.8069 H   0  0  0  0  0  0
  -25.2800   -9.5744   22.4723 H   0  0  0  0  0  0
  -24.0085   -7.4649   22.7422 H   0  0  0  0  0  0
  -21.0878   -8.8840   19.8918 H   0  0  0  0  0  0
  -22.3746  -10.9737   19.6148 H   0  0  0  0  0  0
  -21.1990   -7.6192   23.9810 H   0  0  0  0  0  0
  -21.1468   -6.0481   25.9097 H   0  0  0  0  0  0
  -22.0584   -2.7657   23.2772 H   0  0  0  0  0  0
  -22.3994  -12.0072   22.5033 H   0  0  0  0  0  0
  -21.1015  -13.1355   22.2351 H   0  0  0  0  0  0
  -24.6387  -15.8312   20.4948 H   0  0  0  0  0  0
  -26.2639  -15.6439   20.0805 H   0  0  0  0  0  0
  -26.7092  -32.5512   23.1082 H   0  0  0  0  0  0
  -24.9964  -33.9750   25.0371 H   0  0  0  0  0  0
  -22.6957  -31.3018   21.4007 H   0  0  0  0  0  0
  -23.3781  -35.9630   23.3262 H   0  0  0  0  0  0
  -24.3609  -36.8983   22.2057 H   0  0  0  0  0  0
  -23.7227  -37.6500   23.6686 H   0  0  0  0  0  0
  -26.0506  -31.5804   20.5871 H   0  0  0  0  0  0
  -26.8229  -30.8754   21.9769 H   0  0  0  0  0  0
  -28.1068  -29.0782   21.1554 H   0  0  0  0  0  0
  -26.0517  -25.9324   19.0422 H   0  0  0  0  0  0
  -23.9738  -27.2652   19.0556 H   0  0  0  0  0  0
  -23.7163  -30.5698   19.3964 H   0  0  0  0  0  0
  -22.7376  -29.2184   19.8811 H   0  0  0  0  0  0
  -25.1307  -36.1972   25.0831 H   0  0  0  0  0  0
  -20.9955  -28.3215   24.1438 H   0  0  0  0  0  0
  -20.5667  -26.2246   23.3597 H   0  0  0  0  0  0
  -21.6624  -26.7434   22.1213 H   0  0  0  0  0  0
  -19.6908  -25.6278   21.1229 H   0  0  0  0  0  0
  -19.6692  -27.3179   20.6744 H   0  0  0  0  0  0
  -17.4194  -26.6668   21.4005 H   0  0  0  0  0  0
  -18.0314  -26.0034   22.8995 H   0  0  0  0  0  0
  -19.7917  -30.7229   24.2292 H   0  0  0  0  0  0
  -17.5005  -31.6278   24.5118 H   0  0  0  0  0  0
  -15.5336  -30.2978   23.7644 H   0  0  0  0  0  0
  -15.8651  -28.0799   22.7088 H   0  0  0  0  0  0
  -24.5735  -30.7268   25.7727 H   0  0  0  0  0  0
  -24.8954  -32.2983   26.4899 H   0  0  0  0  0  0
  -25.7927  -30.8866   27.0150 H   0  0  0  0  0  0
  -26.2771  -29.6824   24.1099 H   0  0  0  0  0  0
  -27.3928  -29.7257   25.4565 H   0  0  0  0  0  0
  -27.8644  -30.4330   23.9275 H   0  0  0  0  0  0
  -27.2648  -33.3646   26.1983 H   0  0  0  0  0  0
  -28.3809  -32.6851   25.0244 H   0  0  0  0  0  0
  -28.0662  -31.8454   26.5345 H   0  0  0  0  0  0
  -28.2598  -38.0127   24.7541 H   0  0  0  0  0  0
  -28.1121  -36.2656   24.6223 H   0  0  0  0  0  0
  -27.2320  -37.1401   25.8850 H   0  0  0  0  0  0
  -20.9287  -29.8720   21.6929 H   0  0  0  0  0  0
  -26.0205  -38.2881   24.1388 H   0  0  0  0  0  0
  -31.5541  -18.5476   17.4198 H   0  0  0  0  0  0
  -31.0747  -16.3438   18.2715 H   0  0  0  0  0  0
  -29.2735  -18.0866   21.7922 H   0  0  0  0  0  0
  -31.7627  -22.8738   16.0480 H   0  0  0  0  0  0
  -31.0938  -23.4003   17.5945 H   0  0  0  0  0  0
  -33.3841  -23.1622   18.2194 H   0  0  0  0  0  0
  -33.6143  -21.7874   17.1390 H   0  0  0  0  0  0
  -31.1899  -20.5302   16.5516 H   0  0  0  0  0  0
  -29.7547  -21.4115   17.0707 H   0  0  0  0  0  0
  -32.5588  -21.7400   19.8978 H   0  0  0  0  0  0
  -33.1507  -20.3924   18.9258 H   0  0  0  0  0  0
  -27.0957  -21.7262   24.1588 H   0  0  0  0  0  0
  -28.4427  -20.6677   23.8809 H   0  0  0  0  0  0
  -26.9934  -20.5389   22.8697 H   0  0  0  0  0  0
  -30.7920  -21.2710   21.3666 H   0  0  0  0  0  0
  -29.7463  -20.2824   22.2723 H   0  0  0  0  0  0
  -27.0743  -23.7789   20.0327 H   0  0  0  0  0  0
  -28.2129  -24.3894   18.8985 H   0  0  0  0  0  0
  -29.0272  -22.8560   22.8753 H   0  0  0  0  0  0
  -27.4274  -23.0025   22.2054 H   0  0  0  0  0  0
  -30.0996  -23.2353   20.3794 H   0  0  0  0  0  0
  -29.1694  -22.4178   19.1563 H   0  0  0  0  0  0
  -29.3933  -25.3005   21.2157 H   0  0  0  0  0  0
  -27.7184  -25.4137   21.6452 H   0  0  0  0  0  0
  -29.0544  -15.5357   21.1377 H   0  0  0  0  0  0
  -27.9525  -21.2476   20.6648 H   0  0  0  0  0  0
  1 25  1  0  0  0
  1 30  2  0  0  0
  1 88  1  0  0  0
  2  3  1  0  0  0
  2 25  1  0  0  0
  2 90  1  0  0  0
  2 91  1  0  0  0
  3  4  1  0  0  0
  3 92  1  0  0  0
  3 93  1  0  0  0
  4  5  1  0  0  0
  4 94  1  0  0  0
  4 95  1  0  0  0
  5  6  1  0  0  0
  5 26  1  0  0  0
  5 96  1  0  0  0
  6 25  1  0  0  0
  6 97  1  0  0  0
  6 98  1  0  0  0
  7  8  2  0  0  0
  7 26  1  0  0  0
  7 29  1  0  0  0
  8  9  1  0  0  0
  8 22  1  0  0  0
  9 10  1  0  0  0
  9 27  2  0  0  0
 10 11  2  0  0  0
 10 15  1  0  0  0
 11 12  1  0  0  0
 11 99  1  0  0  0
 12 13  2  0  0  0
 12100  1  0  0  0
 13 14  1  0  0  0
 13 31  1  0  0  0
 14 15  2  0  0  0
 14101  1  0  0  0
 15102  1  0  0  0
 16 17  2  0  0  0
 16 21  1  0  0  0
 16 31  1  0  0  0
 17 18  1  0  0  0
 17103  1  0  0  0
 18 19  2  0  0  0
 18104  1  0  0  0
 19 20  1  0  0  0
 19 24  1  0  0  0
 20 21  2  0  0  0
 20105  1  0  0  0
 21 23  1  0  0  0
 22 28  1  0  0  0
 22 32  2  0  0  0
 26 27  1  0  0  0
 28106  1  0  0  0
 28107  1  0  0  0
 29108  1  0  0  0
 29109  1  0  0  0
 33 34  1  0  0  0
 33 66  1  0  0  0
 33 70  2  0  0  0
 34 36  1  0  0  0
 34 59  1  0  0  0
 34110  1  0  0  0
 35 44  2  0  0  0
 35 45  1  0  0  0
 35 68  1  0  0  0
 36 56  1  0  0  0
 36111  1  0  0  0
 37 39  1  0  0  0
 37 47  1  0  0  0
 37 66  1  0  0  0
 37112  1  0  0  0
 38 43  2  0  0  0
 38 46  1  0  0  0
 38 47  1  0  0  0
 39 64  1  0  0  0
 39 67  2  0  0  0
 40 52  1  0  0  0
 40 53  2  0  0  0
 40 58  1  0  0  0
 41113  1  0  0  0
 41114  1  0  0  0
 41115  1  0  0  0
 41 48  1  0  0  0
 42 43  1  0  0  0
 42 66  1  0  0  0
 42116  1  0  0  0
 42117  1  0  0  0
 43 44  1  0  0  0
 44118  1  0  0  0
 45 46  2  0  0  0
 45119  1  0  0  0
 46120  1  0  0  0
 47121  1  0  0  0
 47122  1  0  0  0
 48 56  1  0  0  0
 48 65  1  0  0  0
 48123  1  0  0  0
 49 50  1  0  0  0
 49 53  1  0  0  0
 49 64  1  0  0  0
 49124  1  0  0  0
 50 51  1  0  0  0
 50125  1  0  0  0
 50126  1  0  0  0
 51 52  1  0  0  0
 51127  1  0  0  0
 51128  1  0  0  0
 52129  1  0  0  0
 52130  1  0  0  0
 53 54  1  0  0  0
 54 55  2  0  0  0
 54131  1  0  0  0
 55 57  1  0  0  0
 55132  1  0  0  0
 56 69  2  0  0  0
 57 58  2  0  0  0
 57133  1  0  0  0
 58134  1  0  0  0
 59 60  1  0  0  0
 59 61  1  0  0  0
 59 62  1  0  0  0
 60135  1  0  0  0
 60136  1  0  0  0
 60137  1  0  0  0
 61138  1  0  0  0
 61139  1  0  0  0
 61140  1  0  0  0
 62141  1  0  0  0
 62142  1  0  0  0
 62143  1  0  0  0
 63 65  1  0  0  0
 63144  1  0  0  0
 63145  1  0  0  0
 63146  1  0  0  0
 64147  1  0  0  0
 65148  1  0  0  0
 68 86  1  0  0  0
 71 72  2  0  0  0
 71 75  1  0  0  0
 71149  1  0  0  0
 72 76  1  0  0  0
 72150  1  0  0  0
 73 74  1  0  0  0
 73 76  2  0  0  0
 73151  1  0  0  0
 74 75  2  0  0  0
 74 82  1  0  0  0
 75 87  1  0  0  0
 76 88  1  0  0  0
 77 78  1  0  0  0
 77 79  1  0  0  0
 77152  1  0  0  0
 77153  1  0  0  0
 78 80  1  0  0  0
 78154  1  0  0  0
 78155  1  0  0  0
 79 87  1  0  0  0
 79156  1  0  0  0
 79157  1  0  0  0
 80 87  1  0  0  0
 80158  1  0  0  0
 80159  1  0  0  0
 81 84  1  0  0  0
 81160  1  0  0  0
 81161  1  0  0  0
 81162  1  0  0  0
 82163  1  0  0  0
 82164  1  0  0  0
 82 89  1  0  0  0
 83 85  1  0  0  0
 83 86  1  0  0  0
 83165  1  0  0  0
 83166  1  0  0  0
 84 89  1  0  0  0
 84167  1  0  0  0
 84168  1  0  0  0
 85 89  1  0  0  0
 85169  1  0  0  0
 85170  1  0  0  0
 86171  1  0  0  0
 86172  1  0  0  0
 88173  1  0  0  0
 89174  1  0  0  0
M  CHG  1  89   1
M  ISO  4   1 100  68 101  86 101  88 100
M  END
> <chiral flag>
0

> <version>
0

> <s_m_source_file>
/data/baiqing/PycharmProjects/Reinvent-master-3.2/result/LINK_invent/BTK/process_docking_weight1_custom_product_contain_oxygen_bond_distance_aromatic_linkinvent_7_9_3/rearranged_h_0021.sdf

> <i_m_source_file_index>
98

> <r_mmod_Potential_Energy-OPLS-2005>
16.3962478637695

> <r_mmod_Stretch_Energy-OPLS-2005>
60.4186477661133

> <r_mmod_Bend_Energy-OPLS-2005>
168.115631103516

> <r_mmod_Torsional_Energy-OPLS-2005>
354.147338867188

> <r_mmod_Improper_Torsional_Energy-OPLS-2005>
10.8249464035034

> <r_mmod_Van_der_Waal_Energy-OPLS-2005>
147.39778137207

> <r_mmod_Electrostatic_Energy-OPLS-2005>
-324.569763183594

> <r_mmod_Solvation_Energy-OPLS-2005>
-428.065887451172

> <b_mmod_Minimization_Converged-OPLS-2005>
0

> <r_mmod_RMS_Derivative-OPLS-2005>
5.44863367080688

$$$$
98
                    3D
 Structure written by MMmdl.
155163  0  0  1  0            999 V2000
  -30.6735  -14.6392   20.5893 C   0  0  0  0  0  0
  -30.4332  -12.4265   19.4477 C   0  0  0  0  0  0
  -29.5064  -12.5531   18.2216 C   0  0  0  0  0  0
  -28.0294  -12.3833   18.6266 C   0  0  0  0  0  0
  -27.6554  -13.2327   19.8699 C   0  0  2  0  0  0
  -28.6985  -13.0827   20.9978 C   0  0  0  0  0  0
  -25.2527  -13.8193   20.5638 C   0  0  0  0  0  0
  -24.1819  -13.0441   20.9152 C   0  0  0  0  0  0
  -24.6419  -11.6915   20.8731 C   0  0  0  0  0  0
  -23.9088  -10.4278   21.0383 C   0  0  0  0  0  0
  -24.3619   -9.4197   21.9175 C   0  0  0  0  0  0
  -23.6278   -8.2246   22.0759 C   0  0  0  0  0  0
  -22.4262   -8.0276   21.3557 C   0  0  0  0  0  0
  -21.9907   -9.0260   20.4668 C   0  0  0  0  0  0
  -22.7250  -10.2120   20.3056 C   0  0  0  0  0  0
  -21.6862   -6.0722   22.5287 C   0  0  0  0  0  0
  -21.4021   -6.5624   23.8218 C   0  0  0  0  0  0
  -21.3670   -5.6778   24.9186 C   0  0  0  0  0  0
  -21.6038   -4.3041   24.7232 C   0  0  0  0  0  0
  -21.8814   -3.8129   23.4358 C   0  0  0  0  0  0
  -21.9185   -4.6950   22.3411 C   0  0  0  0  0  0
  -22.7834  -13.5240   21.1817 C   0  0  0  0  0  0
  -22.1651   -4.2126   21.0987 F   0  0  0  0  0  0
  -21.5633   -3.4522   25.7750 F   0  0  0  0  0  0
  -30.0164  -13.4371   20.4469 N   0  0  0  0  0  0
  -26.3011  -12.9417   20.3356 N   0  0  0  0  0  0
  -25.9367  -11.6557   20.5783 N   0  0  0  0  0  0
  -22.0438  -12.8265   22.0376 N   0  0  0  0  0  0
  -25.4121  -15.1914   20.4012 N   0  0  0  0  0  0
  -31.7654  -14.8233   20.0416 O   0  0  0  0  0  0
  -21.6645   -6.8858   21.4240 O   0  0  0  0  0  0
  -22.3533  -14.5532   20.6632 O   0  0  0  0  0  0
  -24.6228  -31.8637   23.2023 C   0  0  0  0  0  0
  -25.9093  -32.4795   23.8348 C   0  0  1  0  0  0
  -27.2183  -27.3144   20.1089 C   0  0  0  0  0  0
  -25.5904  -33.8597   24.2269 N   0  0  0  0  0  0
  -23.4127  -30.4887   21.5500 C   0  0  2  0  0  0
  -24.8558  -28.9461   20.1076 C   0  0  0  0  0  0
  -22.7421  -29.4672   22.4981 C   0  0  0  0  0  0
  -18.0281  -28.1373   22.8511 C   0  0  0  0  0  0
  -24.1486  -36.7275   23.2642 C   0  0  0  0  0  0
  -25.9560  -30.7887   21.3767 C   0  0  0  0  0  0
  -26.0267  -29.4204   20.7103 C   0  0  0  0  0  0
  -27.2069  -28.6171   20.7008 C   0  0  0  0  0  0
  -26.0206  -26.9018   19.4752 C   0  0  0  0  0  0
  -24.8552  -27.6911   19.4833 C   0  0  0  0  0  0
  -23.6203  -29.8226   20.1653 C   0  0  0  0  0  0
  -25.4123  -36.3091   24.0331 C   0  0  1  0  0  0
  -20.5867  -28.3680   23.1302 C   0  0  2  0  0  0
  -20.6772  -26.9415   22.5419 C   0  0  0  0  0  0
  -19.5753  -26.6376   21.5224 C   0  0  0  0  0  0
  -18.1929  -26.7923   22.1634 C   0  0  0  0  0  0
  -19.1523  -28.8844   23.2906 C   0  0  0  0  0  0
  -18.9465  -30.1449   23.8920 C   0  0  0  0  0  0
  -17.6461  -30.6596   24.0559 C   0  0  0  0  0  0
  -25.9068  -34.9471   23.5098 C   0  0  0  0  0  0
  -16.5356  -29.9098   23.6316 C   0  0  0  0  0  0
  -16.7261  -28.6499   23.0372 C   0  0  0  0  0  0
  -26.4436  -31.6602   25.0731 C   0  0  0  0  0  0
  -25.3628  -31.3796   26.1420 C   0  0  0  0  0  0
  -27.0276  -30.3014   24.6220 C   0  0  0  0  0  0
  -27.5996  -32.4338   25.7501 C   0  0  0  0  0  0
  -27.5590  -37.1797   24.8471 C   0  0  0  0  0  0
  -21.4148  -29.3040   22.3703 N   0  0  0  0  0  0
  -26.4306  -37.3778   23.9404 N   0  0  0  0  0  0
  -24.6831  -31.0634   22.0995 N   0  0  0  0  0  0
  -23.4152  -28.8231   23.3065 O   0  0  0  0  0  0
  -28.3524  -26.4797   20.1855 O   0  0  0  0  0  0
  -26.5668  -34.8919   22.4684 O   0  0  0  0  0  0
  -23.5389  -32.1477   23.7340 O   0  0  0  0  0  0
  -30.4093  -19.2887   20.1844 C   0  0  0  0  0  0
  -30.6091  -17.8666   20.2506 C   0  0  0  0  0  0
  -28.5473  -19.0841   21.6779 C   0  0  0  0  0  0
  -29.4014  -19.9443   20.9442 C   0  0  0  0  0  0
  -29.8082  -17.0188   21.0718 C   0  0  0  0  0  0
  -28.7265  -17.6722   21.7300 C   0  0  0  0  0  0
  -30.3391  -15.3702   22.8343 C   0  0  0  0  0  0
  -29.0400  -23.9358   20.6597 C   0  0  0  0  0  0
  -29.1200  -22.4339   20.0923 C   0  0  0  0  0  0
  -28.2958  -25.0459   19.7901 C   0  0  0  0  0  0
  -29.2822  -21.3695   21.1291 N   0  0  0  0  0  0
  -30.1175  -15.6087   21.3983 N   0  0  0  0  0  0
  -27.8481  -16.9502   22.4679 F   0  0  0  0  0  0
  -31.4739  -12.5492   19.1434 H   0  0  0  0  0  0
  -30.3716  -11.4237   19.8744 H   0  0  0  0  0  0
  -29.7762  -11.8198   17.4605 H   0  0  0  0  0  0
  -29.6467  -13.5349   17.7645 H   0  0  0  0  0  0
  -27.8545  -11.3266   18.8328 H   0  0  0  0  0  0
  -27.3828  -12.6472   17.7870 H   0  0  0  0  0  0
  -27.6735  -14.2754   19.5509 H   0  0  0  0  0  0
  -28.7198  -12.0585   21.3768 H   0  0  0  0  0  0
  -28.4217  -13.7103   21.8446 H   0  0  0  0  0  0
  -25.2766   -9.5674   22.4748 H   0  0  0  0  0  0
  -23.9994   -7.4632   22.7485 H   0  0  0  0  0  0
  -21.0841   -8.8778   19.8972 H   0  0  0  0  0  0
  -22.3719  -10.9649   19.6152 H   0  0  0  0  0  0
  -21.2012   -7.6124   23.9730 H   0  0  0  0  0  0
  -21.1507   -6.0496   25.9082 H   0  0  0  0  0  0
  -22.0581   -2.7590   23.2869 H   0  0  0  0  0  0
  -22.4037  -11.9999   22.4904 H   0  0  0  0  0  0
  -21.1039  -13.1311   22.2493 H   0  0  0  0  0  0
  -24.6244  -15.8243   20.4853 H   0  0  0  0  0  0
  -26.2818  -15.6618   20.1850 H   0  0  0  0  0  0
  -26.7157  -32.5434   23.1086 H   0  0  0  0  0  0
  -24.9939  -33.9746   25.0333 H   0  0  0  0  0  0
  -22.7069  -31.3117   21.4147 H   0  0  0  0  0  0
  -23.3769  -35.9587   23.3314 H   0  0  0  0  0  0
  -24.3568  -36.8875   22.2051 H   0  0  0  0  0  0
  -23.7208  -37.6469   23.6650 H   0  0  0  0  0  0
  -26.0975  -31.5609   20.6194 H   0  0  0  0  0  0
  -26.8314  -30.8236   22.0134 H   0  0  0  0  0  0
  -28.1029  -28.9851   21.1795 H   0  0  0  0  0  0
  -25.9361  -25.9569   18.9641 H   0  0  0  0  0  0
  -23.9543  -27.3237   19.0104 H   0  0  0  0  0  0
  -23.7181  -30.5993   19.4056 H   0  0  0  0  0  0
  -22.7382  -29.2438   19.8809 H   0  0  0  0  0  0
  -25.1305  -36.1948   25.0829 H   0  0  0  0  0  0
  -20.9973  -28.3259   24.1418 H   0  0  0  0  0  0
  -20.5670  -26.2305   23.3626 H   0  0  0  0  0  0
  -21.6647  -26.7460   22.1223 H   0  0  0  0  0  0
  -19.6909  -25.6279   21.1286 H   0  0  0  0  0  0
  -19.6686  -27.3161   20.6741 H   0  0  0  0  0  0
  -17.4202  -26.6674   21.4032 H   0  0  0  0  0  0
  -18.0337  -26.0060   22.9029 H   0  0  0  0  0  0
  -19.7942  -30.7261   24.2292 H   0  0  0  0  0  0
  -17.5026  -31.6283   24.5158 H   0  0  0  0  0  0
  -15.5355  -30.3016   23.7623 H   0  0  0  0  0  0
  -15.8666  -28.0816   22.7089 H   0  0  0  0  0  0
  -24.5770  -30.7212   25.7695 H   0  0  0  0  0  0
  -24.8864  -32.3004   26.4808 H   0  0  0  0  0  0
  -25.7862  -30.8943   27.0215 H   0  0  0  0  0  0
  -26.2868  -29.6795   24.1176 H   0  0  0  0  0  0
  -27.3866  -29.7246   25.4758 H   0  0  0  0  0  0
  -27.8785  -30.4280   23.9516 H   0  0  0  0  0  0
  -27.2595  -33.3621   26.2116 H   0  0  0  0  0  0
  -28.3780  -32.6945   25.0313 H   0  0  0  0  0  0
  -28.0697  -31.8450   26.5393 H   0  0  0  0  0  0
  -28.2619  -38.0088   24.7520 H   0  0  0  0  0  0
  -28.1079  -36.2618   24.6299 H   0  0  0  0  0  0
  -27.2313  -37.1442   25.8879 H   0  0  0  0  0  0
  -20.9310  -29.8743   21.6915 H   0  0  0  0  0  0
  -26.0194  -38.2857   24.1396 H   0  0  0  0  0  0
  -31.1022  -19.8820   19.6061 H   0  0  0  0  0  0
  -31.4477  -17.4442   19.7176 H   0  0  0  0  0  0
  -27.7419  -19.5077   22.2594 H   0  0  0  0  0  0
  -29.4195  -15.4602   23.4098 H   0  0  0  0  0  0
  -31.0514  -16.1033   23.2206 H   0  0  0  0  0  0
  -30.7534  -14.3853   23.0594 H   0  0  0  0  0  0
  -30.0534  -24.2767   20.8764 H   0  0  0  0  0  0
  -28.5363  -23.9159   21.6265 H   0  0  0  0  0  0
  -29.9374  -22.3627   19.3709 H   0  0  0  0  0  0
  -28.2072  -22.2186   19.5343 H   0  0  0  0  0  0
  -27.2725  -24.6856   19.7697 H   0  0  0  0  0  0
  -28.6658  -24.9845   18.7659 H   0  0  0  0  0  0
  -28.8108  -21.6195   21.9955 H   0  0  0  0  0  0
  1 25  1  0  0  0
  1 30  2  0  0  0
  1 82  1  0  0  0
  2  3  1  0  0  0
  2 25  1  0  0  0
  2 84  1  0  0  0
  2 85  1  0  0  0
  3  4  1  0  0  0
  3 86  1  0  0  0
  3 87  1  0  0  0
  4  5  1  0  0  0
  4 88  1  0  0  0
  4 89  1  0  0  0
  5  6  1  0  0  0
  5 26  1  0  0  0
  5 90  1  0  0  0
  6 25  1  0  0  0
  6 91  1  0  0  0
  6 92  1  0  0  0
  7  8  2  0  0  0
  7 26  1  0  0  0
  7 29  1  0  0  0
  8  9  1  0  0  0
  8 22  1  0  0  0
  9 10  1  0  0  0
  9 27  2  0  0  0
 10 11  2  0  0  0
 10 15  1  0  0  0
 11 12  1  0  0  0
 11 93  1  0  0  0
 12 13  2  0  0  0
 12 94  1  0  0  0
 13 14  1  0  0  0
 13 31  1  0  0  0
 14 15  2  0  0  0
 14 95  1  0  0  0
 15 96  1  0  0  0
 16 17  2  0  0  0
 16 21  1  0  0  0
 16 31  1  0  0  0
 17 18  1  0  0  0
 17 97  1  0  0  0
 18 19  2  0  0  0
 18 98  1  0  0  0
 19 20  1  0  0  0
 19 24  1  0  0  0
 20 21  2  0  0  0
 20 99  1  0  0  0
 21 23  1  0  0  0
 22 28  1  0  0  0
 22 32  2  0  0  0
 26 27  1  0  0  0
 28100  1  0  0  0
 28101  1  0  0  0
 29102  1  0  0  0
 29103  1  0  0  0
 33 34  1  0  0  0
 33 66  1  0  0  0
 33 70  2  0  0  0
 34 36  1  0  0  0
 34 59  1  0  0  0
 34104  1  0  0  0
 35 44  2  0  0  0
 35 45  1  0  0  0
 35 68  1  0  0  0
 36 56  1  0  0  0
 36105  1  0  0  0
 37 39  1  0  0  0
 37 47  1  0  0  0
 37 66  1  0  0  0
 37106  1  0  0  0
 38 43  2  0  0  0
 38 46  1  0  0  0
 38 47  1  0  0  0
 39 64  1  0  0  0
 39 67  2  0  0  0
 40 52  1  0  0  0
 40 53  2  0  0  0
 40 58  1  0  0  0
 41107  1  0  0  0
 41108  1  0  0  0
 41109  1  0  0  0
 41 48  1  0  0  0
 42 43  1  0  0  0
 42 66  1  0  0  0
 42110  1  0  0  0
 42111  1  0  0  0
 43 44  1  0  0  0
 44112  1  0  0  0
 45 46  2  0  0  0
 45113  1  0  0  0
 46114  1  0  0  0
 47115  1  0  0  0
 47116  1  0  0  0
 48 56  1  0  0  0
 48 65  1  0  0  0
 48117  1  0  0  0
 49 50  1  0  0  0
 49 53  1  0  0  0
 49 64  1  0  0  0
 49118  1  0  0  0
 50 51  1  0  0  0
 50119  1  0  0  0
 50120  1  0  0  0
 51 52  1  0  0  0
 51121  1  0  0  0
 51122  1  0  0  0
 52123  1  0  0  0
 52124  1  0  0  0
 53 54  1  0  0  0
 54 55  2  0  0  0
 54125  1  0  0  0
 55 57  1  0  0  0
 55126  1  0  0  0
 56 69  2  0  0  0
 57 58  2  0  0  0
 57127  1  0  0  0
 58128  1  0  0  0
 59 60  1  0  0  0
 59 61  1  0  0  0
 59 62  1  0  0  0
 60129  1  0  0  0
 60130  1  0  0  0
 60131  1  0  0  0
 61132  1  0  0  0
 61133  1  0  0  0
 61134  1  0  0  0
 62135  1  0  0  0
 62136  1  0  0  0
 62137  1  0  0  0
 63 65  1  0  0  0
 63138  1  0  0  0
 63139  1  0  0  0
 63140  1  0  0  0
 64141  1  0  0  0
 65142  1  0  0  0
 68 80  1  0  0  0
 71 72  2  0  0  0
 71 74  1  0  0  0
 71143  1  0  0  0
 72 75  1  0  0  0
 72144  1  0  0  0
 73 74  2  0  0  0
 73 76  1  0  0  0
 73145  1  0  0  0
 74 81  1  0  0  0
 75 76  2  0  0  0
 75 82  1  0  0  0
 76 83  1  0  0  0
 77 82  1  0  0  0
 77146  1  0  0  0
 77147  1  0  0  0
 77148  1  0  0  0
 78 79  1  0  0  0
 78 80  1  0  0  0
 78149  1  0  0  0
 78150  1  0  0  0
 79 81  1  0  0  0
 79151  1  0  0  0
 79152  1  0  0  0
 80153  1  0  0  0
 80154  1  0  0  0
 81155  1  0  0  0
M  ISO  4   1 100  68 101  80 101  82 100
M  END
> <chiral flag>
0

> <version>
0

> <s_m_source_file>
/data/baiqing/PycharmProjects/Reinvent-master-3.2/result/LINK_invent/BTK/process_docking_weight1_custom_product_contain_oxygen_bond_distance_aromatic_linkinvent_7_9_3/rearranged_h_0021.sdf

> <i_m_source_file_index>
99

> <r_mmod_Potential_Energy-OPLS-2005>
265.430145263672

> <r_mmod_Stretch_Energy-OPLS-2005>
90.0171661376953

> <r_mmod_Bend_Energy-OPLS-2005>
164.235290527344

> <r_mmod_Torsional_Energy-OPLS-2005>
310.385864257812

> <r_mmod_Improper_Torsional_Energy-OPLS-2005>
7.0911922454834

> <r_mmod_Van_der_Waal_Energy-OPLS-2005>
147.394409179688

> <r_mmod_Electrostatic_Energy-OPLS-2005>
-305.629791259766

> <r_mmod_Solvation_Energy-OPLS-2005>
-195.973190307617

> <b_mmod_Minimization_Converged-OPLS-2005>
0

> <r_mmod_RMS_Derivative-OPLS-2005>
3.26814246177673

$$$$
