0
                    3D
 Structure written by MMmdl.
154162  0  0  1  0            999 V2000
  -30.6180  -14.7860   20.4368 C   0  0  0  0  0  0
  -30.4232  -12.4740   19.4964 C   0  0  0  0  0  0
  -29.5093  -12.5056   18.2521 C   0  0  0  0  0  0
  -28.0440  -12.2964   18.6715 C   0  0  0  0  0  0
  -27.6351  -13.2317   19.8391 C   0  0  2  0  0  0
  -28.6735  -13.2258   20.9818 C   0  0  0  0  0  0
  -25.2558  -13.8210   20.5734 C   0  0  0  0  0  0
  -24.1838  -13.0484   20.9194 C   0  0  0  0  0  0
  -24.6399  -11.6949   20.8781 C   0  0  0  0  0  0
  -23.9064  -10.4315   21.0426 C   0  0  0  0  0  0
  -24.3598   -9.4216   21.9198 C   0  0  0  0  0  0
  -23.6271   -8.2262   22.0741 C   0  0  0  0  0  0
  -22.4244   -8.0292   21.3557 C   0  0  0  0  0  0
  -21.9904   -9.0268   20.4656 C   0  0  0  0  0  0
  -22.7238  -10.2146   20.3076 C   0  0  0  0  0  0
  -21.6840   -6.0752   22.5312 C   0  0  0  0  0  0
  -21.4029   -6.5668   23.8244 C   0  0  0  0  0  0
  -21.3666   -5.6822   24.9199 C   0  0  0  0  0  0
  -21.6012   -4.3085   24.7258 C   0  0  0  0  0  0
  -21.8819   -3.8170   23.4393 C   0  0  0  0  0  0
  -21.9198   -4.6983   22.3436 C   0  0  0  0  0  0
  -22.7865  -13.5272   21.1863 C   0  0  0  0  0  0
  -22.1660   -4.2184   21.1010 F   0  0  0  0  0  0
  -21.5574   -3.4549   25.7762 F   0  0  0  0  0  0
  -29.9800  -13.5612   20.4008 N   0  0  0  0  0  0
  -26.2938  -12.9418   20.3265 N   0  0  0  0  0  0
  -25.9325  -11.6561   20.5767 N   0  0  0  0  0  0
  -22.0492  -12.8265   22.0404 N   0  0  0  0  0  0
  -25.4382  -15.1913   20.4191 N   0  0  0  0  0  0
  -31.8076  -14.8578   20.1237 O   0  0  0  0  0  0
  -21.6614   -6.8886   21.4256 O   0  0  0  0  0  0
  -22.3577  -14.5582   20.6691 O   0  0  0  0  0  0
  -24.6361  -31.8511   23.1937 C   0  0  0  0  0  0
  -25.9177  -32.4725   23.8262 C   0  0  1  0  0  0
  -27.1920  -27.2128   20.1111 C   0  0  0  0  0  0
  -25.5959  -33.8509   24.2186 N   0  0  0  0  0  0
  -23.4329  -30.4739   21.5397 C   0  0  2  0  0  0
  -24.8702  -28.9084   20.1106 C   0  0  0  0  0  0
  -22.7479  -29.4589   22.4884 C   0  0  0  0  0  0
  -18.0257  -28.1423   22.8459 C   0  0  0  0  0  0
  -24.1498  -36.7278   23.2637 C   0  0  0  0  0  0
  -25.9845  -30.7425   21.3841 C   0  0  0  0  0  0
  -26.0480  -29.3615   20.7209 C   0  0  0  0  0  0
  -27.2168  -28.5257   20.7028 C   0  0  0  0  0  0
  -25.9912  -26.8289   19.4873 C   0  0  0  0  0  0
  -24.8466  -27.6515   19.4856 C   0  0  0  0  0  0
  -23.6516  -29.8120   20.1545 C   0  0  0  0  0  0
  -25.4134  -36.3042   24.0301 C   0  0  1  0  0  0
  -20.5852  -28.3744   23.1249 C   0  0  2  0  0  0
  -20.6759  -26.9474   22.5397 C   0  0  0  0  0  0
  -19.5764  -26.6433   21.5197 C   0  0  0  0  0  0
  -18.1938  -26.7958   22.1599 C   0  0  0  0  0  0
  -19.1518  -28.8884   23.2853 C   0  0  0  0  0  0
  -18.9457  -30.1482   23.8896 C   0  0  0  0  0  0
  -17.6453  -30.6617   24.0579 C   0  0  0  0  0  0
  -25.9088  -34.9410   23.5052 C   0  0  0  0  0  0
  -16.5350  -29.9129   23.6307 C   0  0  0  0  0  0
  -16.7240  -28.6518   23.0370 C   0  0  0  0  0  0
  -26.4530  -31.6559   25.0660 C   0  0  0  0  0  0
  -25.3731  -31.3721   26.1367 C   0  0  0  0  0  0
  -27.0389  -30.2952   24.6188 C   0  0  0  0  0  0
  -27.6074  -32.4323   25.7456 C   0  0  0  0  0  0
  -27.5576  -37.1798   24.8458 C   0  0  0  0  0  0
  -21.4168  -29.3096   22.3642 N   0  0  0  0  0  0
  -26.4290  -37.3769   23.9394 N   0  0  0  0  0  0
  -24.7041  -31.0413   22.0953 N   0  0  0  0  0  0
  -23.4140  -28.8123   23.3002 O   0  0  0  0  0  0
  -28.2797  -26.3049   20.0675 O   0  0  0  0  0  0
  -26.5684  -34.8925   22.4626 O   0  0  0  0  0  0
  -23.5501  -32.1357   23.7219 O   0  0  0  0  0  0
  -29.2653  -18.6130   20.5221 C   0  0  0  0  0  0
  -27.2116  -19.2724   21.0309 C   0  0  0  0  0  0
  -28.6405  -20.8493   20.3816 C   0  0  0  0  0  0
  -28.4772  -23.7260   18.2162 C   0  0  0  0  0  0
  -30.3017  -17.4054   20.3869 C   0  0  0  0  0  0
  -28.1573  -24.8716   20.5680 C   0  0  0  0  0  0
  -28.1380  -23.4624   19.7016 C   0  0  2  0  0  0
  -28.0541  -18.2570   20.9328 N   0  0  0  0  0  0
  -29.6219  -19.9113   20.2448 N   0  0  0  0  0  0
  -27.4046  -20.5642   20.7738 N   0  0  0  0  0  0
  -25.9590  -18.9100   21.4261 N   0  0  0  0  0  0
  -28.9561  -22.2497   20.1850 N   0  0  0  0  0  0
  -29.8747  -15.9479   20.6122 N   0  0  0  0  0  0
  -31.4665  -12.5833   19.1974 H   0  0  0  0  0  0
  -30.3544  -11.5081   20.0026 H   0  0  0  0  0  0
  -29.8102  -11.7396   17.5347 H   0  0  0  0  0  0
  -29.6087  -13.4642   17.7409 H   0  0  0  0  0  0
  -27.9334  -11.2542   18.9752 H   0  0  0  0  0  0
  -27.3795  -12.4311   17.8154 H   0  0  0  0  0  0
  -27.6171  -14.2392   19.4200 H   0  0  0  0  0  0
  -28.7035  -12.2577   21.4876 H   0  0  0  0  0  0
  -28.3892  -13.9581   21.7391 H   0  0  0  0  0  0
  -25.2734   -9.5699   22.4788 H   0  0  0  0  0  0
  -24.0008   -7.4652   22.7462 H   0  0  0  0  0  0
  -21.0838   -8.8797   19.8953 H   0  0  0  0  0  0
  -22.3696  -10.9684   19.6201 H   0  0  0  0  0  0
  -21.2027   -7.6181   23.9774 H   0  0  0  0  0  0
  -21.1463   -6.0537   25.9108 H   0  0  0  0  0  0
  -22.0574   -2.7639   23.2892 H   0  0  0  0  0  0
  -22.4088  -11.9877   22.4747 H   0  0  0  0  0  0
  -21.1154  -13.1362   22.2641 H   0  0  0  0  0  0
  -24.6807  -15.8601   20.4878 H   0  0  0  0  0  0
  -26.3117  -15.6144   20.1286 H   0  0  0  0  0  0
  -26.7216  -32.5321   23.0973 H   0  0  0  0  0  0
  -25.0091  -33.9636   25.0315 H   0  0  0  0  0  0
  -22.7335  -31.2995   21.3903 H   0  0  0  0  0  0
  -23.3765  -35.9612   23.3312 H   0  0  0  0  0  0
  -24.3582  -36.8901   22.2052 H   0  0  0  0  0  0
  -23.7272  -37.6467   23.6685 H   0  0  0  0  0  0
  -26.1378  -31.5056   20.6216 H   0  0  0  0  0  0
  -26.8624  -30.7824   22.0186 H   0  0  0  0  0  0
  -28.1284  -28.8627   21.1765 H   0  0  0  0  0  0
  -25.9342  -25.8709   18.9871 H   0  0  0  0  0  0
  -23.9434  -27.3051   19.0015 H   0  0  0  0  0  0
  -23.7961  -30.5947   19.4098 H   0  0  0  0  0  0
  -22.7655  -29.2593   19.8359 H   0  0  0  0  0  0
  -25.1325  -36.1866   25.0796 H   0  0  0  0  0  0
  -20.9911  -28.3378   24.1395 H   0  0  0  0  0  0
  -20.5683  -26.2359   23.3585 H   0  0  0  0  0  0
  -21.6616  -26.7536   22.1159 H   0  0  0  0  0  0
  -19.6967  -25.6342   21.1252 H   0  0  0  0  0  0
  -19.6742  -27.3225   20.6726 H   0  0  0  0  0  0
  -17.4205  -26.6663   21.4023 H   0  0  0  0  0  0
  -18.0403  -26.0102   22.9010 H   0  0  0  0  0  0
  -19.7934  -30.7234   24.2298 H   0  0  0  0  0  0
  -17.5029  -31.6300   24.5175 H   0  0  0  0  0  0
  -15.5364  -30.3036   23.7623 H   0  0  0  0  0  0
  -15.8636  -28.0812   22.7107 H   0  0  0  0  0  0
  -24.5926  -30.7068   25.7660 H   0  0  0  0  0  0
  -24.8917  -32.2897   26.4742 H   0  0  0  0  0  0
  -25.8026  -30.8898   27.0153 H   0  0  0  0  0  0
  -26.2950  -29.6684   24.1257 H   0  0  0  0  0  0
  -27.4078  -29.7231   25.4701 H   0  0  0  0  0  0
  -27.8837  -30.4178   23.9425 H   0  0  0  0  0  0
  -27.2655  -33.3631   26.2009 H   0  0  0  0  0  0
  -28.3920  -32.6890   25.0319 H   0  0  0  0  0  0
  -28.0733  -31.8468   26.5395 H   0  0  0  0  0  0
  -28.2599  -38.0099   24.7512 H   0  0  0  0  0  0
  -28.1079  -36.2612   24.6290 H   0  0  0  0  0  0
  -27.2289  -37.1456   25.8868 H   0  0  0  0  0  0
  -20.9330  -29.8810   21.6852 H   0  0  0  0  0  0
  -26.0153  -38.2826   24.1423 H   0  0  0  0  0  0
  -28.3549  -22.8198   17.6209 H   0  0  0  0  0  0
  -29.5092  -24.0638   18.0866 H   0  0  0  0  0  0
  -27.8287  -24.4841   17.7662 H   0  0  0  0  0  0
  -30.7226  -17.4650   19.3806 H   0  0  0  0  0  0
  -31.1323  -17.6270   21.0626 H   0  0  0  0  0  0
  -29.0130  -24.7809   21.2329 H   0  0  0  0  0  0
  -27.3060  -24.8436   21.2489 H   0  0  0  0  0  0
  -27.0979  -23.1267   19.7078 H   0  0  0  0  0  0
  -25.3551  -19.6380   21.7856 H   0  0  0  0  0  0
  -25.8635  -18.0121   21.8822 H   0  0  0  0  0  0
  -29.9381  -22.3544   19.9683 H   0  0  0  0  0  0
  -28.8987  -15.8543   20.8492 H   0  0  0  0  0  0
  1 25  1  0  0  0
  1 30  2  0  0  0
  1 83  1  0  0  0
  2  3  1  0  0  0
  2 25  1  0  0  0
  2 84  1  0  0  0
  2 85  1  0  0  0
  3  4  1  0  0  0
  3 86  1  0  0  0
  3 87  1  0  0  0
  4  5  1  0  0  0
  4 88  1  0  0  0
  4 89  1  0  0  0
  5  6  1  0  0  0
  5 26  1  0  0  0
  5 90  1  0  0  0
  6 25  1  0  0  0
  6 91  1  0  0  0
  6 92  1  0  0  0
  7  8  2  0  0  0
  7 26  1  0  0  0
  7 29  1  0  0  0
  8  9  1  0  0  0
  8 22  1  0  0  0
  9 10  1  0  0  0
  9 27  2  0  0  0
 10 11  2  0  0  0
 10 15  1  0  0  0
 11 12  1  0  0  0
 11 93  1  0  0  0
 12 13  2  0  0  0
 12 94  1  0  0  0
 13 14  1  0  0  0
 13 31  1  0  0  0
 14 15  2  0  0  0
 14 95  1  0  0  0
 15 96  1  0  0  0
 16 17  2  0  0  0
 16 21  1  0  0  0
 16 31  1  0  0  0
 17 18  1  0  0  0
 17 97  1  0  0  0
 18 19  2  0  0  0
 18 98  1  0  0  0
 19 20  1  0  0  0
 19 24  1  0  0  0
 20 21  2  0  0  0
 20 99  1  0  0  0
 21 23  1  0  0  0
 22 28  1  0  0  0
 22 32  2  0  0  0
 26 27  1  0  0  0
 28100  1  0  0  0
 28101  1  0  0  0
 29102  1  0  0  0
 29103  1  0  0  0
 33 34  1  0  0  0
 33 66  1  0  0  0
 33 70  2  0  0  0
 34 36  1  0  0  0
 34 59  1  0  0  0
 34104  1  0  0  0
 35 44  2  0  0  0
 35 45  1  0  0  0
 35 68  1  0  0  0
 36 56  1  0  0  0
 36105  1  0  0  0
 37 39  1  0  0  0
 37 47  1  0  0  0
 37 66  1  0  0  0
 37106  1  0  0  0
 38 43  2  0  0  0
 38 46  1  0  0  0
 38 47  1  0  0  0
 39 64  1  0  0  0
 39 67  2  0  0  0
 40 52  1  0  0  0
 40 53  2  0  0  0
 40 58  1  0  0  0
 41107  1  0  0  0
 41108  1  0  0  0
 41109  1  0  0  0
 41 48  1  0  0  0
 42 43  1  0  0  0
 42 66  1  0  0  0
 42110  1  0  0  0
 42111  1  0  0  0
 43 44  1  0  0  0
 44112  1  0  0  0
 45 46  2  0  0  0
 45113  1  0  0  0
 46114  1  0  0  0
 47115  1  0  0  0
 47116  1  0  0  0
 48 56  1  0  0  0
 48 65  1  0  0  0
 48117  1  0  0  0
 49 50  1  0  0  0
 49 53  1  0  0  0
 49 64  1  0  0  0
 49118  1  0  0  0
 50 51  1  0  0  0
 50119  1  0  0  0
 50120  1  0  0  0
 51 52  1  0  0  0
 51121  1  0  0  0
 51122  1  0  0  0
 52123  1  0  0  0
 52124  1  0  0  0
 53 54  1  0  0  0
 54 55  2  0  0  0
 54125  1  0  0  0
 55 57  1  0  0  0
 55126  1  0  0  0
 56 69  2  0  0  0
 57 58  2  0  0  0
 57127  1  0  0  0
 58128  1  0  0  0
 59 60  1  0  0  0
 59 61  1  0  0  0
 59 62  1  0  0  0
 60129  1  0  0  0
 60130  1  0  0  0
 60131  1  0  0  0
 61132  1  0  0  0
 61133  1  0  0  0
 61134  1  0  0  0
 62135  1  0  0  0
 62136  1  0  0  0
 62137  1  0  0  0
 63 65  1  0  0  0
 63138  1  0  0  0
 63139  1  0  0  0
 63140  1  0  0  0
 64141  1  0  0  0
 65142  1  0  0  0
 68 76  1  0  0  0
 71 75  1  0  0  0
 71 78  1  0  0  0
 71 79  2  0  0  0
 72 78  2  0  0  0
 72 80  1  0  0  0
 72 81  1  0  0  0
 73 79  1  0  0  0
 73 80  2  0  0  0
 73 82  1  0  0  0
 74143  1  0  0  0
 74144  1  0  0  0
 74145  1  0  0  0
 74 77  1  0  0  0
 75 83  1  0  0  0
 75146  1  0  0  0
 75147  1  0  0  0
 76 77  1  0  0  0
 76148  1  0  0  0
 76149  1  0  0  0
 77 82  1  0  0  0
 77150  1  0  0  0
 81151  1  0  0  0
 81152  1  0  0  0
 82153  1  0  0  0
 83154  1  0  0  0
M  ISO  4   1 100  68 101  76 101  83 100
M  END
> <chiral flag>
0

> <version>
0

> <s_m_source_file>
/data/baiqing/PycharmProjects/Reinvent-master-3.2/result/LINK_invent/BTK/process_docking_weight1_custom_product_contain_oxygen_bond_distance_aromatic_linkinvent_7_9_3/rearranged_h_0195.sdf

> <i_m_source_file_index>
1

> <r_mmod_Potential_Energy-OPLS-2005>
-887.424560546875

> <r_mmod_Stretch_Energy-OPLS-2005>
139.992568969727

> <r_mmod_Bend_Energy-OPLS-2005>
198.147796630859

> <r_mmod_Torsional_Energy-OPLS-2005>
234.474914550781

> <r_mmod_Improper_Torsional_Energy-OPLS-2005>
9.71615505218506

> <r_mmod_Van_der_Waal_Energy-OPLS-2005>
143.857513427734

> <r_mmod_Electrostatic_Energy-OPLS-2005>
-1484.69543457031

> <r_mmod_Solvation_Energy-OPLS-2005>
-239.072204589844

> <b_mmod_Minimization_Converged-OPLS-2005>
0

> <r_mmod_RMS_Derivative-OPLS-2005>
6.60506629943848

$$$$
1
                    3D
 Structure written by MMmdl.
156164  0  0  1  0            999 V2000
  -30.6822  -14.5256   20.5187 C   0  0  0  0  0  0
  -30.4275  -12.3220   19.4364 C   0  0  0  0  0  0
  -29.5010  -12.4882   18.2133 C   0  0  0  0  0  0
  -28.0221  -12.3455   18.6251 C   0  0  0  0  0  0
  -27.6580  -13.2066   19.8645 C   0  0  2  0  0  0
  -28.7017  -13.0268   20.9918 C   0  0  0  0  0  0
  -25.2584  -13.8151   20.5668 C   0  0  0  0  0  0
  -24.1840  -13.0431   20.9178 C   0  0  0  0  0  0
  -24.6390  -11.6897   20.8727 C   0  0  0  0  0  0
  -23.9053  -10.4284   21.0397 C   0  0  0  0  0  0
  -24.3606   -9.4210   21.9179 C   0  0  0  0  0  0
  -23.6286   -8.2245   22.0759 C   0  0  0  0  0  0
  -22.4271   -8.0280   21.3548 C   0  0  0  0  0  0
  -21.9898   -9.0251   20.4648 C   0  0  0  0  0  0
  -22.7223  -10.2128   20.3054 C   0  0  0  0  0  0
  -21.6854   -6.0731   22.5278 C   0  0  0  0  0  0
  -21.4009   -6.5634   23.8212 C   0  0  0  0  0  0
  -21.3659   -5.6794   24.9173 C   0  0  0  0  0  0
  -21.6045   -4.3055   24.7227 C   0  0  0  0  0  0
  -21.8821   -3.8142   23.4351 C   0  0  0  0  0  0
  -21.9190   -4.6959   22.3402 C   0  0  0  0  0  0
  -22.7864  -13.5238   21.1838 C   0  0  0  0  0  0
  -22.1662   -4.2143   21.0982 F   0  0  0  0  0  0
  -21.5632   -3.4540   25.7740 F   0  0  0  0  0  0
  -30.0294  -13.3307   20.4337 N   0  0  0  0  0  0
  -26.3009  -12.9317   20.3310 N   0  0  0  0  0  0
  -25.9317  -11.6477   20.5752 N   0  0  0  0  0  0
  -22.0496  -12.8239   22.0390 N   0  0  0  0  0  0
  -25.4283  -15.1876   20.4063 N   0  0  0  0  0  0
  -31.8442  -14.6604   20.1241 O   0  0  0  0  0  0
  -21.6642   -6.8875   21.4243 O   0  0  0  0  0  0
  -22.3550  -14.5545   20.6686 O   0  0  0  0  0  0
  -24.6172  -31.8646   23.2064 C   0  0  0  0  0  0
  -25.9054  -32.4798   23.8381 C   0  0  1  0  0  0
  -27.2317  -27.4024   20.1092 C   0  0  0  0  0  0
  -25.5905  -33.8601   24.2305 N   0  0  0  0  0  0
  -23.4083  -30.4875   21.5475 C   0  0  2  0  0  0
  -24.8568  -28.9530   20.1112 C   0  0  0  0  0  0
  -22.7443  -29.4636   22.4961 C   0  0  0  0  0  0
  -18.0286  -28.1395   22.8479 C   0  0  0  0  0  0
  -24.1489  -36.7316   23.2642 C   0  0  0  0  0  0
  -25.9406  -30.8225   21.3637 C   0  0  0  0  0  0
  -26.0197  -29.4556   20.7107 C   0  0  0  0  0  0
  -27.2129  -28.6901   20.7039 C   0  0  0  0  0  0
  -26.0549  -26.9310   19.4887 C   0  0  0  0  0  0
  -24.8712  -27.6912   19.4938 C   0  0  0  0  0  0
  -23.6191  -29.8216   20.1624 C   0  0  0  0  0  0
  -25.4106  -36.3100   24.0336 C   0  0  1  0  0  0
  -20.5883  -28.3670   23.1315 C   0  0  2  0  0  0
  -20.6785  -26.9407   22.5435 C   0  0  0  0  0  0
  -19.5758  -26.6400   21.5237 C   0  0  0  0  0  0
  -18.1931  -26.7937   22.1635 C   0  0  0  0  0  0
  -19.1544  -28.8853   23.2888 C   0  0  0  0  0  0
  -18.9458  -30.1456   23.8894 C   0  0  0  0  0  0
  -17.6463  -30.6586   24.0562 C   0  0  0  0  0  0
  -25.9043  -34.9462   23.5122 C   0  0  0  0  0  0
  -16.5350  -29.9093   23.6338 C   0  0  0  0  0  0
  -16.7281  -28.6521   23.0333 C   0  0  0  0  0  0
  -26.4477  -31.6582   25.0719 C   0  0  0  0  0  0
  -25.3732  -31.3711   26.1474 C   0  0  0  0  0  0
  -27.0313  -30.3026   24.6112 C   0  0  0  0  0  0
  -27.6039  -32.4320   25.7481 C   0  0  0  0  0  0
  -27.5572  -37.1811   24.8465 C   0  0  0  0  0  0
  -21.4171  -29.3016   22.3700 N   0  0  0  0  0  0
  -26.4292  -37.3783   23.9396 N   0  0  0  0  0  0
  -24.6741  -31.0729   22.0974 N   0  0  0  0  0  0
  -23.4215  -28.8176   23.3015 O   0  0  0  0  0  0
  -28.3603  -26.6005   20.1292 O   0  0  0  0  0  0
  -26.5609  -34.8913   22.4694 O   0  0  0  0  0  0
  -23.5354  -32.1414   23.7440 O   0  0  0  0  0  0
  -29.0849  -17.9025   20.5846 C   0  0  0  0  0  0
  -30.9503  -18.8801   20.0506 C   0  0  0  0  0  0
  -30.1118  -16.9753   20.6197 C   0  0  0  0  0  0
  -28.7010  -22.7683   22.4918 C   0  0  0  0  0  0
  -29.0576  -24.1348   20.3295 C   0  0  0  0  0  0
  -28.1804  -25.3354   20.8176 C   0  0  0  0  0  0
  -28.9011  -20.3647   19.8305 C   0  0  0  0  0  0
  -28.6587  -22.7436   20.9519 C   0  0  1  0  0  0
  -31.3104  -17.6182   20.3048 N   0  0  0  0  0  0
  -29.6349  -19.1302   20.1795 N   0  0  0  0  0  0
  -29.9151  -15.5796   20.8929 N   0  0  0  0  0  0
  -29.4746  -21.5871   20.4639 N   0  3  0  0  0  0
  -31.4721  -12.4193   19.1341 H   0  0  0  0  0  0
  -30.3338  -11.3203   19.8585 H   0  0  0  0  0  0
  -29.7485  -11.7476   17.4512 H   0  0  0  0  0  0
  -29.6623  -13.4643   17.7543 H   0  0  0  0  0  0
  -27.8430  -11.2918   18.8428 H   0  0  0  0  0  0
  -27.3706  -12.5949   17.7865 H   0  0  0  0  0  0
  -27.6891  -14.2466   19.5388 H   0  0  0  0  0  0
  -28.6876  -12.0013   21.3651 H   0  0  0  0  0  0
  -28.4640  -13.6554   21.8511 H   0  0  0  0  0  0
  -25.2756   -9.5691   22.4747 H   0  0  0  0  0  0
  -23.9996   -7.4644   22.7484 H   0  0  0  0  0  0
  -21.0831   -8.8757   19.8961 H   0  0  0  0  0  0
  -22.3675  -10.9660   19.6160 H   0  0  0  0  0  0
  -21.2000   -7.6143   23.9709 H   0  0  0  0  0  0
  -21.1481   -6.0524   25.9076 H   0  0  0  0  0  0
  -22.0598   -2.7606   23.2852 H   0  0  0  0  0  0
  -22.4105  -11.9903   22.4787 H   0  0  0  0  0  0
  -21.1114  -13.1266   22.2581 H   0  0  0  0  0  0
  -24.6526  -15.8339   20.5060 H   0  0  0  0  0  0
  -26.2644  -15.6257   20.0423 H   0  0  0  0  0  0
  -26.7127  -32.5496   23.1132 H   0  0  0  0  0  0
  -25.0017  -33.9760   25.0422 H   0  0  0  0  0  0
  -22.6982  -31.3049   21.4075 H   0  0  0  0  0  0
  -23.3738  -35.9661   23.3323 H   0  0  0  0  0  0
  -24.3594  -36.8928   22.2061 H   0  0  0  0  0  0
  -23.7262  -37.6532   23.6650 H   0  0  0  0  0  0
  -26.0600  -31.5854   20.5936 H   0  0  0  0  0  0
  -26.8264  -30.8763   21.9847 H   0  0  0  0  0  0
  -28.1066  -29.0694   21.1801 H   0  0  0  0  0  0
  -26.0491  -25.9623   19.0086 H   0  0  0  0  0  0
  -23.9801  -27.2982   19.0252 H   0  0  0  0  0  0
  -23.7243  -30.5980   19.4041 H   0  0  0  0  0  0
  -22.7426  -29.2428   19.8647 H   0  0  0  0  0  0
  -25.1281  -36.1967   25.0828 H   0  0  0  0  0  0
  -20.9968  -28.3250   24.1435 H   0  0  0  0  0  0
  -20.5748  -26.2257   23.3619 H   0  0  0  0  0  0
  -21.6641  -26.7477   22.1171 H   0  0  0  0  0  0
  -19.6924  -25.6328   21.1234 H   0  0  0  0  0  0
  -19.6705  -27.3228   20.6783 H   0  0  0  0  0  0
  -17.4210  -26.6697   21.4025 H   0  0  0  0  0  0
  -18.0293  -26.0093   22.9037 H   0  0  0  0  0  0
  -19.7938  -30.7281   24.2242 H   0  0  0  0  0  0
  -17.5019  -31.6260   24.5181 H   0  0  0  0  0  0
  -15.5349  -30.2986   23.7673 H   0  0  0  0  0  0
  -15.8679  -28.0861   22.7008 H   0  0  0  0  0  0
  -24.5894  -30.7072   25.7810 H   0  0  0  0  0  0
  -24.8940  -32.2875   26.4915 H   0  0  0  0  0  0
  -25.8084  -30.8882   27.0232 H   0  0  0  0  0  0
  -26.2864  -29.6782   24.1163 H   0  0  0  0  0  0
  -27.4090  -29.7268   25.4575 H   0  0  0  0  0  0
  -27.8684  -30.4343   23.9254 H   0  0  0  0  0  0
  -27.2644  -33.3602   26.2071 H   0  0  0  0  0  0
  -28.3822  -32.6913   25.0299 H   0  0  0  0  0  0
  -28.0720  -31.8446   26.5395 H   0  0  0  0  0  0
  -28.2592  -38.0097   24.7489 H   0  0  0  0  0  0
  -28.1073  -36.2641   24.6311 H   0  0  0  0  0  0
  -27.2301  -37.1469   25.8871 H   0  0  0  0  0  0
  -20.9339  -29.8748   21.6917 H   0  0  0  0  0  0
  -26.0195  -38.2862   24.1400 H   0  0  0  0  0  0
  -28.0221  -17.7826   20.7511 H   0  0  0  0  0  0
  -31.6554  -19.6314   19.7225 H   0  0  0  0  0  0
  -28.4254  -21.8016   22.9141 H   0  0  0  0  0  0
  -28.0008  -23.4952   22.9030 H   0  0  0  0  0  0
  -29.6955  -23.0203   22.8616 H   0  0  0  0  0  0
  -30.1062  -24.3494   20.5408 H   0  0  0  0  0  0
  -28.9780  -24.0742   19.2436 H   0  0  0  0  0  0
  -28.4054  -25.5284   21.8667 H   0  0  0  0  0  0
  -27.1378  -25.0130   20.8041 H   0  0  0  0  0  0
  -27.8553  -20.2424   20.1137 H   0  0  0  0  0  0
  -28.9306  -20.4831   18.7466 H   0  0  0  0  0  0
  -27.6246  -22.5496   20.6620 H   0  0  0  0  0  0
  -28.9930  -15.3214   21.2069 H   0  0  0  0  0  0
  -29.0308  -21.1354   21.2479 H   0  0  0  0  0  0
  -29.1350  -21.9305   19.5794 H   0  0  0  0  0  0
  1 25  1  0  0  0
  1 30  2  0  0  0
  1 81  1  0  0  0
  2  3  1  0  0  0
  2 25  1  0  0  0
  2 83  1  0  0  0
  2 84  1  0  0  0
  3  4  1  0  0  0
  3 85  1  0  0  0
  3 86  1  0  0  0
  4  5  1  0  0  0
  4 87  1  0  0  0
  4 88  1  0  0  0
  5  6  1  0  0  0
  5 26  1  0  0  0
  5 89  1  0  0  0
  6 25  1  0  0  0
  6 90  1  0  0  0
  6 91  1  0  0  0
  7  8  2  0  0  0
  7 26  1  0  0  0
  7 29  1  0  0  0
  8  9  1  0  0  0
  8 22  1  0  0  0
  9 10  1  0  0  0
  9 27  2  0  0  0
 10 11  2  0  0  0
 10 15  1  0  0  0
 11 12  1  0  0  0
 11 92  1  0  0  0
 12 13  2  0  0  0
 12 93  1  0  0  0
 13 14  1  0  0  0
 13 31  1  0  0  0
 14 15  2  0  0  0
 14 94  1  0  0  0
 15 95  1  0  0  0
 16 17  2  0  0  0
 16 21  1  0  0  0
 16 31  1  0  0  0
 17 18  1  0  0  0
 17 96  1  0  0  0
 18 19  2  0  0  0
 18 97  1  0  0  0
 19 20  1  0  0  0
 19 24  1  0  0  0
 20 21  2  0  0  0
 20 98  1  0  0  0
 21 23  1  0  0  0
 22 28  1  0  0  0
 22 32  2  0  0  0
 26 27  1  0  0  0
 28 99  1  0  0  0
 28100  1  0  0  0
 29101  1  0  0  0
 29102  1  0  0  0
 33 34  1  0  0  0
 33 66  1  0  0  0
 33 70  2  0  0  0
 34 36  1  0  0  0
 34 59  1  0  0  0
 34103  1  0  0  0
 35 44  2  0  0  0
 35 45  1  0  0  0
 35 68  1  0  0  0
 36 56  1  0  0  0
 36104  1  0  0  0
 37 39  1  0  0  0
 37 47  1  0  0  0
 37 66  1  0  0  0
 37105  1  0  0  0
 38 43  2  0  0  0
 38 46  1  0  0  0
 38 47  1  0  0  0
 39 64  1  0  0  0
 39 67  2  0  0  0
 40 52  1  0  0  0
 40 53  2  0  0  0
 40 58  1  0  0  0
 41106  1  0  0  0
 41107  1  0  0  0
 41108  1  0  0  0
 41 48  1  0  0  0
 42 43  1  0  0  0
 42 66  1  0  0  0
 42109  1  0  0  0
 42110  1  0  0  0
 43 44  1  0  0  0
 44111  1  0  0  0
 45 46  2  0  0  0
 45112  1  0  0  0
 46113  1  0  0  0
 47114  1  0  0  0
 47115  1  0  0  0
 48 56  1  0  0  0
 48 65  1  0  0  0
 48116  1  0  0  0
 49 50  1  0  0  0
 49 53  1  0  0  0
 49 64  1  0  0  0
 49117  1  0  0  0
 50 51  1  0  0  0
 50118  1  0  0  0
 50119  1  0  0  0
 51 52  1  0  0  0
 51120  1  0  0  0
 51121  1  0  0  0
 52122  1  0  0  0
 52123  1  0  0  0
 53 54  1  0  0  0
 54 55  2  0  0  0
 54124  1  0  0  0
 55 57  1  0  0  0
 55125  1  0  0  0
 56 69  2  0  0  0
 57 58  2  0  0  0
 57126  1  0  0  0
 58127  1  0  0  0
 59 60  1  0  0  0
 59 61  1  0  0  0
 59 62  1  0  0  0
 60128  1  0  0  0
 60129  1  0  0  0
 60130  1  0  0  0
 61131  1  0  0  0
 61132  1  0  0  0
 61133  1  0  0  0
 62134  1  0  0  0
 62135  1  0  0  0
 62136  1  0  0  0
 63 65  1  0  0  0
 63137  1  0  0  0
 63138  1  0  0  0
 63139  1  0  0  0
 64140  1  0  0  0
 65141  1  0  0  0
 68 76  1  0  0  0
 71 73  2  0  0  0
 71 80  1  0  0  0
 71142  1  0  0  0
 72 79  2  0  0  0
 72 80  1  0  0  0
 72143  1  0  0  0
 73 79  1  0  0  0
 73 81  1  0  0  0
 74144  1  0  0  0
 74145  1  0  0  0
 74146  1  0  0  0
 74 78  1  0  0  0
 75 76  1  0  0  0
 75 78  1  0  0  0
 75147  1  0  0  0
 75148  1  0  0  0
 76149  1  0  0  0
 76150  1  0  0  0
 77 80  1  0  0  0
 77 82  1  0  0  0
 77151  1  0  0  0
 77152  1  0  0  0
 78 82  1  0  0  0
 78153  1  0  0  0
 81154  1  0  0  0
 82155  1  0  0  0
 82156  1  0  0  0
M  CHG  1  82   1
M  ISO  4   1 100  68 101  76 101  81 100
M  END
> <chiral flag>
0

> <version>
0

> <s_m_source_file>
/data/baiqing/PycharmProjects/Reinvent-master-3.2/result/LINK_invent/BTK/process_docking_weight1_custom_product_contain_oxygen_bond_distance_aromatic_linkinvent_7_9_3/rearranged_h_0195.sdf

> <i_m_source_file_index>
2

> <r_mmod_Potential_Energy-OPLS-2005>
-45.1416854858398

> <r_mmod_Stretch_Energy-OPLS-2005>
44.8434181213379

> <r_mmod_Bend_Energy-OPLS-2005>
313.391510009766

> <r_mmod_Torsional_Energy-OPLS-2005>
245.533798217773

> <r_mmod_Improper_Torsional_Energy-OPLS-2005>
5.45358324050903

> <r_mmod_Van_der_Waal_Energy-OPLS-2005>
124.416709899902

> <r_mmod_Electrostatic_Energy-OPLS-2005>
-242.176284790039

> <r_mmod_Solvation_Energy-OPLS-2005>
-558.412475585938

> <b_mmod_Minimization_Converged-OPLS-2005>
0

> <r_mmod_RMS_Derivative-OPLS-2005>
1.92970633506775

$$$$
2
                    3D
 Structure written by MMmdl.
162170  0  0  1  0            999 V2000
  -30.5959  -14.7780   20.4356 C   0  0  0  0  0  0
  -30.4292  -12.4774   19.4644 C   0  0  0  0  0  0
  -29.5017  -12.5111   18.2276 C   0  0  0  0  0  0
  -28.0274  -12.3308   18.6450 C   0  0  0  0  0  0
  -27.6323  -13.2364   19.8423 C   0  0  2  0  0  0
  -28.6809  -13.1901   20.9742 C   0  0  0  0  0  0
  -25.2461  -13.8210   20.5736 C   0  0  0  0  0  0
  -24.1774  -13.0448   20.9275 C   0  0  0  0  0  0
  -24.6382  -11.6940   20.8774 C   0  0  0  0  0  0
  -23.9062  -10.4307   21.0415 C   0  0  0  0  0  0
  -24.3616   -9.4218   21.9189 C   0  0  0  0  0  0
  -23.6316   -8.2233   22.0726 C   0  0  0  0  0  0
  -22.4288   -8.0276   21.3534 C   0  0  0  0  0  0
  -21.9923   -9.0243   20.4626 C   0  0  0  0  0  0
  -22.7238  -10.2139   20.3052 C   0  0  0  0  0  0
  -21.6858   -6.0758   22.5294 C   0  0  0  0  0  0
  -21.4009   -6.5659   23.8237 C   0  0  0  0  0  0
  -21.3657   -5.6809   24.9199 C   0  0  0  0  0  0
  -21.6050   -4.3074   24.7235 C   0  0  0  0  0  0
  -21.8813   -3.8174   23.4364 C   0  0  0  0  0  0
  -21.9187   -4.6992   22.3426 C   0  0  0  0  0  0
  -22.7796  -13.5202   21.1961 C   0  0  0  0  0  0
  -22.1655   -4.2185   21.1000 F   0  0  0  0  0  0
  -21.5629   -3.4546   25.7742 F   0  0  0  0  0  0
  -29.9759  -13.5475   20.3830 N   0  0  0  0  0  0
  -26.2886  -12.9437   20.3280 N   0  0  0  0  0  0
  -25.9306  -11.6576   20.5761 N   0  0  0  0  0  0
  -22.0442  -12.8143   22.0497 N   0  0  0  0  0  0
  -25.4124  -15.1929   20.4116 N   0  0  0  0  0  0
  -31.7999  -14.8556   20.1742 O   0  0  0  0  0  0
  -21.6645   -6.8883   21.4247 O   0  0  0  0  0  0
  -22.3479  -14.5532   20.6853 O   0  0  0  0  0  0
  -24.6332  -31.8517   23.1949 C   0  0  0  0  0  0
  -25.9160  -32.4719   23.8264 C   0  0  1  0  0  0
  -27.2200  -27.2457   20.1322 C   0  0  0  0  0  0
  -25.5970  -33.8531   24.2210 N   0  0  0  0  0  0
  -23.4294  -30.4749   21.5409 C   0  0  2  0  0  0
  -24.8752  -28.9201   20.1092 C   0  0  0  0  0  0
  -22.7506  -29.4596   22.4912 C   0  0  0  0  0  0
  -18.0309  -28.1402   22.8494 C   0  0  0  0  0  0
  -24.1512  -36.7261   23.2640 C   0  0  0  0  0  0
  -25.9762  -30.7636   21.3754 C   0  0  0  0  0  0
  -26.0486  -29.3850   20.7158 C   0  0  0  0  0  0
  -27.2250  -28.5643   20.7103 C   0  0  0  0  0  0
  -26.0219  -26.8534   19.4940 C   0  0  0  0  0  0
  -24.8686  -27.6627   19.4871 C   0  0  0  0  0  0
  -23.6451  -29.8082   20.1572 C   0  0  0  0  0  0
  -25.4136  -36.3043   24.0322 C   0  0  1  0  0  0
  -20.5917  -28.3710   23.1292 C   0  0  2  0  0  0
  -20.6832  -26.9429   22.5430 C   0  0  0  0  0  0
  -19.5802  -26.6392   21.5247 C   0  0  0  0  0  0
  -18.1969  -26.7946   22.1622 C   0  0  0  0  0  0
  -19.1570  -28.8870   23.2884 C   0  0  0  0  0  0
  -18.9484  -30.1485   23.8880 C   0  0  0  0  0  0
  -17.6483  -30.6596   24.0582 C   0  0  0  0  0  0
  -25.9066  -34.9415   23.5051 C   0  0  0  0  0  0
  -16.5373  -29.9086   23.6364 C   0  0  0  0  0  0
  -16.7301  -28.6521   23.0347 C   0  0  0  0  0  0
  -26.4526  -31.6539   25.0652 C   0  0  0  0  0  0
  -25.3737  -31.3728   26.1359 C   0  0  0  0  0  0
  -27.0384  -30.2948   24.6156 C   0  0  0  0  0  0
  -27.6062  -32.4295   25.7429 C   0  0  0  0  0  0
  -27.5598  -37.1776   24.8465 C   0  0  0  0  0  0
  -21.4214  -29.3027   22.3646 N   0  0  0  0  0  0
  -26.4294  -37.3754   23.9417 N   0  0  0  0  0  0
  -24.6983  -31.0470   22.0933 N   0  0  0  0  0  0
  -23.4198  -28.8155   23.3041 O   0  0  0  0  0  0
  -28.3165  -26.3455   20.1801 O   0  0  0  0  0  0
  -26.5624  -34.8920   22.4616 O   0  0  0  0  0  0
  -23.5474  -32.1349   23.7250 O   0  0  0  0  0  0
  -29.8057  -19.7446   20.2096 C   0  0  0  0  0  0
  -31.1714  -19.6588   20.4089 C   0  0  0  0  0  0
  -30.1316  -17.3628   20.4698 C   0  0  0  0  0  0
  -30.0905  -24.2186   21.6463 C   0  0  0  0  0  0
  -32.1250  -23.2496   22.8734 C   0  0  0  0  0  0
  -27.6611  -20.8012   19.2094 C   0  0  0  0  0  0
  -31.6037  -23.9734   21.6162 C   0  0  0  0  0  0
  -28.0622  -24.8478   20.2271 C   0  0  0  0  0  0
  -29.0528  -21.0991   19.7897 C   0  0  1  0  0  0
  -29.2632  -23.7622   20.4375 C   0  0  2  0  0  0
  -29.2417  -18.4024   20.2722 N   0  0  0  0  0  0
  -32.1016  -20.6901   20.3531 N   0  0  0  0  0  0
  -29.7930  -15.9151   20.5246 N   0  0  0  0  0  0
  -28.9705  -22.2711   20.7832 N   0  3  0  0  0  0
  -29.5753  -24.6804   22.6662 O   0  0  0  0  0  0
  -31.7550  -18.0137   20.6814 S   0  0  0  0  0  0
  -31.4683  -12.6124   19.1603 H   0  0  0  0  0  0
  -30.3861  -11.5046   19.9570 H   0  0  0  0  0  0
  -29.7799  -11.7267   17.5229 H   0  0  0  0  0  0
  -29.6217  -13.4562   17.6939 H   0  0  0  0  0  0
  -27.8894  -11.2844   18.9188 H   0  0  0  0  0  0
  -27.3644  -12.5143   17.7974 H   0  0  0  0  0  0
  -27.6148  -14.2545   19.4520 H   0  0  0  0  0  0
  -28.7271  -12.2003   21.4310 H   0  0  0  0  0  0
  -28.4171  -13.8838   21.7752 H   0  0  0  0  0  0
  -25.2749   -9.5715   22.4799 H   0  0  0  0  0  0
  -24.0056   -7.4609   22.7410 H   0  0  0  0  0  0
  -21.0867   -8.8737   19.8918 H   0  0  0  0  0  0
  -22.3672  -10.9679   19.6168 H   0  0  0  0  0  0
  -21.1997   -7.6166   23.9754 H   0  0  0  0  0  0
  -21.1474   -6.0533   25.9101 H   0  0  0  0  0  0
  -22.0590   -2.7635   23.2846 H   0  0  0  0  0  0
  -22.4058  -11.9779   22.4851 H   0  0  0  0  0  0
  -21.1054  -13.1118   22.2723 H   0  0  0  0  0  0
  -24.6353  -15.8380   20.5122 H   0  0  0  0  0  0
  -26.2472  -15.6337   20.0492 H   0  0  0  0  0  0
  -26.7202  -32.5378   23.0977 H   0  0  0  0  0  0
  -25.0189  -33.9655   25.0403 H   0  0  0  0  0  0
  -22.7288  -31.2995   21.3945 H   0  0  0  0  0  0
  -23.3793  -35.9572   23.3256 H   0  0  0  0  0  0
  -24.3627  -36.8919   22.2065 H   0  0  0  0  0  0
  -23.7239  -37.6438   23.6688 H   0  0  0  0  0  0
  -26.1216  -31.5301   20.6129 H   0  0  0  0  0  0
  -26.8498  -30.8026   22.0139 H   0  0  0  0  0  0
  -28.1243  -28.9226   21.1910 H   0  0  0  0  0  0
  -25.9437  -25.9018   18.9910 H   0  0  0  0  0  0
  -23.9730  -27.3012   19.0017 H   0  0  0  0  0  0
  -23.7666  -30.5857   19.4021 H   0  0  0  0  0  0
  -22.7633  -29.2403   19.8541 H   0  0  0  0  0  0
  -25.1331  -36.1846   25.0812 H   0  0  0  0  0  0
  -21.0030  -28.3297   24.1405 H   0  0  0  0  0  0
  -20.5837  -26.2294   23.3620 H   0  0  0  0  0  0
  -21.6685  -26.7514   22.1163 H   0  0  0  0  0  0
  -19.6999  -25.6309   21.1260 H   0  0  0  0  0  0
  -19.6771  -27.3224   20.6796 H   0  0  0  0  0  0
  -17.4272  -26.6747   21.3980 H   0  0  0  0  0  0
  -18.0312  -26.0067   22.8987 H   0  0  0  0  0  0
  -19.7956  -30.7334   24.2193 H   0  0  0  0  0  0
  -17.5028  -31.6273   24.5183 H   0  0  0  0  0  0
  -15.5368  -30.2980   23.7700 H   0  0  0  0  0  0
  -15.8698  -28.0851   22.7028 H   0  0  0  0  0  0
  -24.5933  -30.7047   25.7692 H   0  0  0  0  0  0
  -24.8918  -32.2920   26.4697 H   0  0  0  0  0  0
  -25.8036  -30.8962   27.0176 H   0  0  0  0  0  0
  -26.2965  -29.6650   24.1227 H   0  0  0  0  0  0
  -27.4117  -29.7240   25.4669 H   0  0  0  0  0  0
  -27.8820  -30.4208   23.9367 H   0  0  0  0  0  0
  -27.2653  -33.3623   26.1936 H   0  0  0  0  0  0
  -28.3902  -32.6794   25.0267 H   0  0  0  0  0  0
  -28.0685  -31.8454   26.5395 H   0  0  0  0  0  0
  -28.2553  -38.0134   24.7553 H   0  0  0  0  0  0
  -28.1134  -36.2649   24.6205 H   0  0  0  0  0  0
  -27.2324  -37.1326   25.8870 H   0  0  0  0  0  0
  -20.9395  -29.8630   21.6758 H   0  0  0  0  0  0
  -26.0156  -38.2805   24.1460 H   0  0  0  0  0  0
  -33.1875  -23.0203   22.7778 H   0  0  0  0  0  0
  -31.6055  -22.3048   23.0360 H   0  0  0  0  0  0
  -32.0069  -23.8551   23.7732 H   0  0  0  0  0  0
  -27.7282  -20.1092   18.3694 H   0  0  0  0  0  0
  -27.1841  -21.7105   18.8444 H   0  0  0  0  0  0
  -27.0054  -20.3511   19.9549 H   0  0  0  0  0  0
  -32.1031  -24.9374   21.5212 H   0  0  0  0  0  0
  -31.8573  -23.4029   20.7222 H   0  0  0  0  0  0
  -27.3095  -24.6787   20.9977 H   0  0  0  0  0  0
  -27.5859  -24.5656   19.2894 H   0  0  0  0  0  0
  -29.6270  -21.5054   18.9545 H   0  0  0  0  0  0
  -29.9070  -23.7919   19.5588 H   0  0  0  0  0  0
  -32.0876  -21.2721   19.5193 H   0  0  0  0  0  0
  -33.0648  -20.4319   20.5497 H   0  0  0  0  0  0
  -28.8087  -15.7162   20.5808 H   0  0  0  0  0  0
  -29.7063  -22.0417   21.4335 H   0  0  0  0  0  0
  -28.1280  -22.1951   21.3306 H   0  0  0  0  0  0
  1 25  1  0  0  0
  1 30  2  0  0  0
  1 83  1  0  0  0
  2  3  1  0  0  0
  2 25  1  0  0  0
  2 87  1  0  0  0
  2 88  1  0  0  0
  3  4  1  0  0  0
  3 89  1  0  0  0
  3 90  1  0  0  0
  4  5  1  0  0  0
  4 91  1  0  0  0
  4 92  1  0  0  0
  5  6  1  0  0  0
  5 26  1  0  0  0
  5 93  1  0  0  0
  6 25  1  0  0  0
  6 94  1  0  0  0
  6 95  1  0  0  0
  7  8  2  0  0  0
  7 26  1  0  0  0
  7 29  1  0  0  0
  8  9  1  0  0  0
  8 22  1  0  0  0
  9 10  1  0  0  0
  9 27  2  0  0  0
 10 11  2  0  0  0
 10 15  1  0  0  0
 11 12  1  0  0  0
 11 96  1  0  0  0
 12 13  2  0  0  0
 12 97  1  0  0  0
 13 14  1  0  0  0
 13 31  1  0  0  0
 14 15  2  0  0  0
 14 98  1  0  0  0
 15 99  1  0  0  0
 16 17  2  0  0  0
 16 21  1  0  0  0
 16 31  1  0  0  0
 17 18  1  0  0  0
 17100  1  0  0  0
 18 19  2  0  0  0
 18101  1  0  0  0
 19 20  1  0  0  0
 19 24  1  0  0  0
 20 21  2  0  0  0
 20102  1  0  0  0
 21 23  1  0  0  0
 22 28  1  0  0  0
 22 32  2  0  0  0
 26 27  1  0  0  0
 28103  1  0  0  0
 28104  1  0  0  0
 29105  1  0  0  0
 29106  1  0  0  0
 33 34  1  0  0  0
 33 66  1  0  0  0
 33 70  2  0  0  0
 34 36  1  0  0  0
 34 59  1  0  0  0
 34107  1  0  0  0
 35 44  2  0  0  0
 35 45  1  0  0  0
 35 68  1  0  0  0
 36 56  1  0  0  0
 36108  1  0  0  0
 37 39  1  0  0  0
 37 47  1  0  0  0
 37 66  1  0  0  0
 37109  1  0  0  0
 38 43  2  0  0  0
 38 46  1  0  0  0
 38 47  1  0  0  0
 39 64  1  0  0  0
 39 67  2  0  0  0
 40 52  1  0  0  0
 40 53  2  0  0  0
 40 58  1  0  0  0
 41110  1  0  0  0
 41111  1  0  0  0
 41112  1  0  0  0
 41 48  1  0  0  0
 42 43  1  0  0  0
 42 66  1  0  0  0
 42113  1  0  0  0
 42114  1  0  0  0
 43 44  1  0  0  0
 44115  1  0  0  0
 45 46  2  0  0  0
 45116  1  0  0  0
 46117  1  0  0  0
 47118  1  0  0  0
 47119  1  0  0  0
 48 56  1  0  0  0
 48 65  1  0  0  0
 48120  1  0  0  0
 49 50  1  0  0  0
 49 53  1  0  0  0
 49 64  1  0  0  0
 49121  1  0  0  0
 50 51  1  0  0  0
 50122  1  0  0  0
 50123  1  0  0  0
 51 52  1  0  0  0
 51124  1  0  0  0
 51125  1  0  0  0
 52126  1  0  0  0
 52127  1  0  0  0
 53 54  1  0  0  0
 54 55  2  0  0  0
 54128  1  0  0  0
 55 57  1  0  0  0
 55129  1  0  0  0
 56 69  2  0  0  0
 57 58  2  0  0  0
 57130  1  0  0  0
 58131  1  0  0  0
 59 60  1  0  0  0
 59 61  1  0  0  0
 59 62  1  0  0  0
 60132  1  0  0  0
 60133  1  0  0  0
 60134  1  0  0  0
 61135  1  0  0  0
 61136  1  0  0  0
 61137  1  0  0  0
 62138  1  0  0  0
 62139  1  0  0  0
 62140  1  0  0  0
 63 65  1  0  0  0
 63141  1  0  0  0
 63142  1  0  0  0
 63143  1  0  0  0
 64144  1  0  0  0
 65145  1  0  0  0
 68 78  1  0  0  0
 71 72  2  0  0  0
 71 79  1  0  0  0
 71 81  1  0  0  0
 72 82  1  0  0  0
 72 86  1  0  0  0
 73 81  2  0  0  0
 73 83  1  0  0  0
 73 86  1  0  0  0
 74 77  1  0  0  0
 74 80  1  0  0  0
 74 85  2  0  0  0
 75 77  1  0  0  0
 75146  1  0  0  0
 75147  1  0  0  0
 75148  1  0  0  0
 76149  1  0  0  0
 76150  1  0  0  0
 76151  1  0  0  0
 76 79  1  0  0  0
 77152  1  0  0  0
 77153  1  0  0  0
 78154  1  0  0  0
 78155  1  0  0  0
 78 80  1  0  0  0
 79 84  1  0  0  0
 79156  1  0  0  0
 80 84  1  0  0  0
 80157  1  0  0  0
 82158  1  0  0  0
 82159  1  0  0  0
 83160  1  0  0  0
 84161  1  0  0  0
 84162  1  0  0  0
M  CHG  1  84   1
M  ISO  4   1 100  68 101  78 101  83 100
M  END
> <chiral flag>
0

> <version>
0

> <s_m_source_file>
/data/baiqing/PycharmProjects/Reinvent-master-3.2/result/LINK_invent/BTK/process_docking_weight1_custom_product_contain_oxygen_bond_distance_aromatic_linkinvent_7_9_3/rearranged_h_0195.sdf

> <i_m_source_file_index>
3

> <r_mmod_Potential_Energy-OPLS-2005>
-82.2999267578125

> <r_mmod_Stretch_Energy-OPLS-2005>
138.140289306641

> <r_mmod_Bend_Energy-OPLS-2005>
185.083847045898

> <r_mmod_Torsional_Energy-OPLS-2005>
241.468170166016

> <r_mmod_Improper_Torsional_Energy-OPLS-2005>
12.4936695098877

> <r_mmod_Van_der_Waal_Energy-OPLS-2005>
108.115356445312

> <r_mmod_Electrostatic_Energy-OPLS-2005>
-393.248321533203

> <r_mmod_Solvation_Energy-OPLS-2005>
-473.031768798828

> <b_mmod_Minimization_Converged-OPLS-2005>
0

> <r_mmod_RMS_Derivative-OPLS-2005>
3.31244993209839

$$$$
3
                    3D
 Structure written by MMmdl.
153161  0  0  1  0            999 V2000
  -30.5659  -14.7328   20.4672 C   0  0  0  0  0  0
  -30.4480  -12.4459   19.4657 C   0  0  0  0  0  0
  -29.5126  -12.4992   18.2353 C   0  0  0  0  0  0
  -28.0432  -12.2976   18.6559 C   0  0  0  0  0  0
  -27.6452  -13.2046   19.8485 C   0  0  2  0  0  0
  -28.6882  -13.1103   20.9848 C   0  0  0  0  0  0
  -25.2550  -13.8128   20.5656 C   0  0  0  0  0  0
  -24.1824  -13.0420   20.9217 C   0  0  0  0  0  0
  -24.6372  -11.6885   20.8741 C   0  0  0  0  0  0
  -23.9053  -10.4271   21.0401 C   0  0  0  0  0  0
  -24.3604   -9.4186   21.9191 C   0  0  0  0  0  0
  -23.6272   -8.2231   22.0756 C   0  0  0  0  0  0
  -22.4255   -8.0279   21.3537 C   0  0  0  0  0  0
  -21.9904   -9.0255   20.4641 C   0  0  0  0  0  0
  -22.7239  -10.2123   20.3040 C   0  0  0  0  0  0
  -21.6846   -6.0738   22.5274 C   0  0  0  0  0  0
  -21.4028   -6.5634   23.8210 C   0  0  0  0  0  0
  -21.3653   -5.6780   24.9173 C   0  0  0  0  0  0
  -21.6026   -4.3054   24.7218 C   0  0  0  0  0  0
  -21.8826   -3.8148   23.4333 C   0  0  0  0  0  0
  -21.9201   -4.6961   22.3395 C   0  0  0  0  0  0
  -22.7852  -13.5221   21.1881 C   0  0  0  0  0  0
  -22.1662   -4.2154   21.0977 F   0  0  0  0  0  0
  -21.5619   -3.4542   25.7732 F   0  0  0  0  0  0
  -29.9951  -13.4820   20.4183 N   0  0  0  0  0  0
  -26.2939  -12.9270   20.3216 N   0  0  0  0  0  0
  -25.9287  -11.6448   20.5724 N   0  0  0  0  0  0
  -22.0484  -12.8206   22.0405 N   0  0  0  0  0  0
  -25.4300  -15.1839   20.4025 N   0  0  0  0  0  0
  -31.7463  -14.8971   20.1387 O   0  0  0  0  0  0
  -21.6620   -6.8880   21.4230 O   0  0  0  0  0  0
  -22.3545  -14.5528   20.6731 O   0  0  0  0  0  0
  -24.6269  -31.8564   23.1985 C   0  0  0  0  0  0
  -25.9121  -32.4741   23.8297 C   0  0  1  0  0  0
  -27.2305  -27.2976   20.1172 C   0  0  0  0  0  0
  -25.5952  -33.8540   24.2265 N   0  0  0  0  0  0
  -23.4194  -30.4720   21.5430 C   0  0  2  0  0  0
  -24.8679  -28.9129   20.1185 C   0  0  0  0  0  0
  -22.7473  -29.4555   22.4966 C   0  0  0  0  0  0
  -18.0286  -28.1334   22.8443 C   0  0  0  0  0  0
  -24.1490  -36.7263   23.2653 C   0  0  0  0  0  0
  -25.9591  -30.7810   21.3648 C   0  0  0  0  0  0
  -26.0349  -29.3993   20.7184 C   0  0  0  0  0  0
  -27.2217  -28.6053   20.6992 C   0  0  0  0  0  0
  -26.0412  -26.8529   19.5093 C   0  0  0  0  0  0
  -24.8741  -27.6474   19.5029 C   0  0  0  0  0  0
  -23.6337  -29.7947   20.1618 C   0  0  0  0  0  0
  -25.4107  -36.3068   24.0360 C   0  0  1  0  0  0
  -20.5883  -28.3618   23.1307 C   0  0  2  0  0  0
  -20.6764  -26.9334   22.5415 C   0  0  0  0  0  0
  -19.5741  -26.6336   21.5198 C   0  0  0  0  0  0
  -18.1913  -26.7870   22.1604 C   0  0  0  0  0  0
  -19.1539  -28.8797   23.2850 C   0  0  0  0  0  0
  -18.9477  -30.1402   23.8868 C   0  0  0  0  0  0
  -17.6480  -30.6549   24.0523 C   0  0  0  0  0  0
  -25.9042  -34.9428   23.5108 C   0  0  0  0  0  0
  -16.5367  -29.9022   23.6332 C   0  0  0  0  0  0
  -16.7278  -28.6452   23.0325 C   0  0  0  0  0  0
  -26.4528  -31.6541   25.0650 C   0  0  0  0  0  0
  -25.3764  -31.3667   26.1378 C   0  0  0  0  0  0
  -27.0397  -30.3007   24.6011 C   0  0  0  0  0  0
  -27.6091  -32.4269   25.7435 C   0  0  0  0  0  0
  -27.5576  -37.1778   24.8478 C   0  0  0  0  0  0
  -21.4187  -29.2989   22.3734 N   0  0  0  0  0  0
  -26.4290  -37.3746   23.9424 N   0  0  0  0  0  0
  -24.6883  -31.0527   22.0945 N   0  0  0  0  0  0
  -23.4211  -28.8077   23.3012 O   0  0  0  0  0  0
  -28.3868  -26.5067   20.0400 O   0  0  0  0  0  0
  -26.5571  -34.8923   22.4646 O   0  0  0  0  0  0
  -23.5437  -32.1404   23.7304 O   0  0  0  0  0  0
  -28.4156  -17.8767   20.4937 C   0  0  0  0  0  0
  -30.5677  -19.4559   20.4901 C   0  0  0  0  0  0
  -29.6973  -17.2434   20.5609 C   0  0  0  0  0  0
  -29.2710  -20.0671   20.4425 C   0  0  0  0  0  0
  -28.3866  -21.7578   18.1704 C   0  0  0  0  0  0
  -28.0083  -23.8329   19.6506 C   0  0  0  0  0  0
  -28.4592  -25.0981   20.5229 C   0  0  0  0  0  0
  -28.8836  -22.4746   19.4453 C   0  0  1  0  0  0
  -30.7773  -18.0874   20.5358 N   0  0  0  0  0  0
  -28.1988  -19.2313   20.4220 N   0  0  0  0  0  0
  -29.6885  -15.7721   20.7040 N   0  0  0  0  0  0
  -29.0137  -21.4875   20.5787 N   0  0  0  0  0  0
  -31.4842  -12.5998   19.1626 H   0  0  0  0  0  0
  -30.4160  -11.4611   19.9357 H   0  0  0  0  0  0
  -29.8043  -11.7404   17.5077 H   0  0  0  0  0  0
  -29.6165  -13.4632   17.7349 H   0  0  0  0  0  0
  -27.9314  -11.2500   18.9397 H   0  0  0  0  0  0
  -27.3748  -12.4553   17.8077 H   0  0  0  0  0  0
  -27.6470  -14.2220   19.4594 H   0  0  0  0  0  0
  -28.7226  -12.0969   21.3873 H   0  0  0  0  0  0
  -28.4096  -13.7527   21.8231 H   0  0  0  0  0  0
  -25.2750   -9.5668   22.4750 H   0  0  0  0  0  0
  -23.9995   -7.4616   22.7468 H   0  0  0  0  0  0
  -21.0851   -8.8751   19.8932 H   0  0  0  0  0  0
  -22.3709  -10.9651   19.6122 H   0  0  0  0  0  0
  -21.2023   -7.6135   23.9721 H   0  0  0  0  0  0
  -21.1458   -6.0511   25.9077 H   0  0  0  0  0  0
  -22.0607   -2.7610   23.2833 H   0  0  0  0  0  0
  -22.4102  -11.9852   22.4775 H   0  0  0  0  0  0
  -21.1066  -13.1195   22.2559 H   0  0  0  0  0  0
  -24.6585  -15.8342   20.5029 H   0  0  0  0  0  0
  -26.2367  -15.6018   19.9607 H   0  0  0  0  0  0
  -26.7156  -32.5446   23.1016 H   0  0  0  0  0  0
  -25.0227  -33.9647   25.0508 H   0  0  0  0  0  0
  -22.7130  -31.2911   21.3907 H   0  0  0  0  0  0
  -23.3769  -35.9574   23.3309 H   0  0  0  0  0  0
  -24.3632  -36.8911   22.2074 H   0  0  0  0  0  0
  -23.7206  -37.6455   23.6672 H   0  0  0  0  0  0
  -26.0743  -31.5350   20.5848 H   0  0  0  0  0  0
  -26.8502  -30.8473   21.9773 H   0  0  0  0  0  0
  -28.1304  -28.9799   21.1478 H   0  0  0  0  0  0
  -26.0207  -25.8932   19.0150 H   0  0  0  0  0  0
  -23.9817  -27.2741   19.0202 H   0  0  0  0  0  0
  -23.7417  -30.5661   19.4005 H   0  0  0  0  0  0
  -22.7562  -29.2175   19.8645 H   0  0  0  0  0  0
  -25.1267  -36.1943   25.0861 H   0  0  0  0  0  0
  -20.9953  -28.3160   24.1437 H   0  0  0  0  0  0
  -20.5678  -26.2181   23.3593 H   0  0  0  0  0  0
  -21.6612  -26.7334   22.1196 H   0  0  0  0  0  0
  -19.6902  -25.6251   21.1207 H   0  0  0  0  0  0
  -19.6721  -27.3149   20.6737 H   0  0  0  0  0  0
  -17.4182  -26.6662   21.3995 H   0  0  0  0  0  0
  -18.0269  -25.9986   22.8986 H   0  0  0  0  0  0
  -19.7964  -30.7190   24.2237 H   0  0  0  0  0  0
  -17.5041  -31.6243   24.5077 H   0  0  0  0  0  0
  -15.5353  -30.2895   23.7692 H   0  0  0  0  0  0
  -15.8683  -28.0773   22.7025 H   0  0  0  0  0  0
  -24.5986  -30.6944   25.7740 H   0  0  0  0  0  0
  -24.8868  -32.2801   26.4756 H   0  0  0  0  0  0
  -25.8095  -30.8922   27.0185 H   0  0  0  0  0  0
  -26.2934  -29.6711   24.1135 H   0  0  0  0  0  0
  -27.4322  -29.7275   25.4428 H   0  0  0  0  0  0
  -27.8691  -30.4414   23.9067 H   0  0  0  0  0  0
  -27.2742  -33.3635   26.1902 H   0  0  0  0  0  0
  -28.3946  -32.6723   25.0269 H   0  0  0  0  0  0
  -28.0662  -31.8425   26.5438 H   0  0  0  0  0  0
  -28.2543  -38.0106   24.7517 H   0  0  0  0  0  0
  -28.1114  -36.2632   24.6301 H   0  0  0  0  0  0
  -27.2304  -37.1426   25.8883 H   0  0  0  0  0  0
  -20.9365  -29.8806   21.7031 H   0  0  0  0  0  0
  -26.0196  -38.2844   24.1405 H   0  0  0  0  0  0
  -27.5206  -17.2738   20.5266 H   0  0  0  0  0  0
  -31.4570  -20.0681   20.5306 H   0  0  0  0  0  0
  -28.2514  -22.4501   17.3393 H   0  0  0  0  0  0
  -27.4299  -21.2585   18.3345 H   0  0  0  0  0  0
  -29.1011  -21.0078   17.8285 H   0  0  0  0  0  0
  -27.8737  -24.2556   18.6522 H   0  0  0  0  0  0
  -26.9992  -23.5554   19.9538 H   0  0  0  0  0  0
  -29.5151  -24.9502   20.7456 H   0  0  0  0  0  0
  -27.9695  -25.0466   21.4969 H   0  0  0  0  0  0
  -29.8994  -22.8069   19.2205 H   0  0  0  0  0  0
  -28.7718  -15.4136   20.9222 H   0  0  0  0  0  0
  -29.7046  -21.8622   21.2245 H   0  0  0  0  0  0
  1 25  1  0  0  0
  1 30  2  0  0  0
  1 81  1  0  0  0
  2  3  1  0  0  0
  2 25  1  0  0  0
  2 83  1  0  0  0
  2 84  1  0  0  0
  3  4  1  0  0  0
  3 85  1  0  0  0
  3 86  1  0  0  0
  4  5  1  0  0  0
  4 87  1  0  0  0
  4 88  1  0  0  0
  5  6  1  0  0  0
  5 26  1  0  0  0
  5 89  1  0  0  0
  6 25  1  0  0  0
  6 90  1  0  0  0
  6 91  1  0  0  0
  7  8  2  0  0  0
  7 26  1  0  0  0
  7 29  1  0  0  0
  8  9  1  0  0  0
  8 22  1  0  0  0
  9 10  1  0  0  0
  9 27  2  0  0  0
 10 11  2  0  0  0
 10 15  1  0  0  0
 11 12  1  0  0  0
 11 92  1  0  0  0
 12 13  2  0  0  0
 12 93  1  0  0  0
 13 14  1  0  0  0
 13 31  1  0  0  0
 14 15  2  0  0  0
 14 94  1  0  0  0
 15 95  1  0  0  0
 16 17  2  0  0  0
 16 21  1  0  0  0
 16 31  1  0  0  0
 17 18  1  0  0  0
 17 96  1  0  0  0
 18 19  2  0  0  0
 18 97  1  0  0  0
 19 20  1  0  0  0
 19 24  1  0  0  0
 20 21  2  0  0  0
 20 98  1  0  0  0
 21 23  1  0  0  0
 22 28  1  0  0  0
 22 32  2  0  0  0
 26 27  1  0  0  0
 28 99  1  0  0  0
 28100  1  0  0  0
 29101  1  0  0  0
 29102  1  0  0  0
 33 34  1  0  0  0
 33 66  1  0  0  0
 33 70  2  0  0  0
 34 36  1  0  0  0
 34 59  1  0  0  0
 34103  1  0  0  0
 35 44  2  0  0  0
 35 45  1  0  0  0
 35 68  1  0  0  0
 36 56  1  0  0  0
 36104  1  0  0  0
 37 39  1  0  0  0
 37 47  1  0  0  0
 37 66  1  0  0  0
 37105  1  0  0  0
 38 43  2  0  0  0
 38 46  1  0  0  0
 38 47  1  0  0  0
 39 64  1  0  0  0
 39 67  2  0  0  0
 40 52  1  0  0  0
 40 53  2  0  0  0
 40 58  1  0  0  0
 41106  1  0  0  0
 41107  1  0  0  0
 41108  1  0  0  0
 41 48  1  0  0  0
 42 43  1  0  0  0
 42 66  1  0  0  0
 42109  1  0  0  0
 42110  1  0  0  0
 43 44  1  0  0  0
 44111  1  0  0  0
 45 46  2  0  0  0
 45112  1  0  0  0
 46113  1  0  0  0
 47114  1  0  0  0
 47115  1  0  0  0
 48 56  1  0  0  0
 48 65  1  0  0  0
 48116  1  0  0  0
 49 50  1  0  0  0
 49 53  1  0  0  0
 49 64  1  0  0  0
 49117  1  0  0  0
 50 51  1  0  0  0
 50118  1  0  0  0
 50119  1  0  0  0
 51 52  1  0  0  0
 51120  1  0  0  0
 51121  1  0  0  0
 52122  1  0  0  0
 52123  1  0  0  0
 53 54  1  0  0  0
 54 55  2  0  0  0
 54124  1  0  0  0
 55 57  1  0  0  0
 55125  1  0  0  0
 56 69  2  0  0  0
 57 58  2  0  0  0
 57126  1  0  0  0
 58127  1  0  0  0
 59 60  1  0  0  0
 59 61  1  0  0  0
 59 62  1  0  0  0
 60128  1  0  0  0
 60129  1  0  0  0
 60130  1  0  0  0
 61131  1  0  0  0
 61132  1  0  0  0
 61133  1  0  0  0
 62134  1  0  0  0
 62135  1  0  0  0
 62136  1  0  0  0
 63 65  1  0  0  0
 63137  1  0  0  0
 63138  1  0  0  0
 63139  1  0  0  0
 64140  1  0  0  0
 65141  1  0  0  0
 68 77  1  0  0  0
 71 73  2  0  0  0
 71 80  1  0  0  0
 71142  1  0  0  0
 72 74  1  0  0  0
 72 79  2  0  0  0
 72143  1  0  0  0
 73 79  1  0  0  0
 73 81  1  0  0  0
 74 80  2  0  0  0
 74 82  1  0  0  0
 75144  1  0  0  0
 75145  1  0  0  0
 75146  1  0  0  0
 75 78  1  0  0  0
 76 77  1  0  0  0
 76 78  1  0  0  0
 76147  1  0  0  0
 76148  1  0  0  0
 77149  1  0  0  0
 77150  1  0  0  0
 78 82  1  0  0  0
 78151  1  0  0  0
 81152  1  0  0  0
 82153  1  0  0  0
M  ISO  4   1 100  68 101  77 101  81 100
M  END
> <chiral flag>
0

> <version>
0

> <s_m_source_file>
/data/baiqing/PycharmProjects/Reinvent-master-3.2/result/LINK_invent/BTK/process_docking_weight1_custom_product_contain_oxygen_bond_distance_aromatic_linkinvent_7_9_3/rearranged_h_0195.sdf

> <i_m_source_file_index>
4

> <r_mmod_Potential_Energy-OPLS-2005>
180.517074584961

> <r_mmod_Stretch_Energy-OPLS-2005>
104.536865234375

> <r_mmod_Bend_Energy-OPLS-2005>
199.353866577148

> <r_mmod_Torsional_Energy-OPLS-2005>
259.644714355469

> <r_mmod_Improper_Torsional_Energy-OPLS-2005>
11.4671144485474

> <r_mmod_Van_der_Waal_Energy-OPLS-2005>
134.266510009766

> <r_mmod_Electrostatic_Energy-OPLS-2005>
-349.09521484375

> <r_mmod_Solvation_Energy-OPLS-2005>
-247.646713256836

> <b_mmod_Minimization_Converged-OPLS-2005>
0

> <r_mmod_RMS_Derivative-OPLS-2005>
3.93250918388367

$$$$
4
                    3D
 Structure written by MMmdl.
162170  0  0  1  0            999 V2000
  -30.7764  -14.4940   20.5880 C   0  0  0  0  0  0
  -30.4016  -12.3549   19.3898 C   0  0  0  0  0  0
  -29.4685  -12.5826   18.1845 C   0  0  0  0  0  0
  -27.9928  -12.4305   18.6016 C   0  0  0  0  0  0
  -27.6536  -13.2409   19.8803 C   0  0  2  0  0  0
  -28.7169  -13.0355   20.9832 C   0  0  0  0  0  0
  -25.2407  -13.8180   20.5672 C   0  0  0  0  0  0
  -24.1683  -13.0309   20.9051 C   0  0  0  0  0  0
  -24.6379  -11.6850   20.8686 C   0  0  0  0  0  0
  -23.9133  -10.4154   21.0385 C   0  0  0  0  0  0
  -24.3691   -9.4065   21.9141 C   0  0  0  0  0  0
  -23.6300   -8.2131   22.0732 C   0  0  0  0  0  0
  -22.4251   -8.0232   21.3604 C   0  0  0  0  0  0
  -21.9864   -9.0215   20.4736 C   0  0  0  0  0  0
  -22.7283  -10.2030   20.3089 C   0  0  0  0  0  0
  -21.6760   -6.0740   22.5296 C   0  0  0  0  0  0
  -21.3970   -6.5653   23.8229 C   0  0  0  0  0  0
  -21.3674   -5.6802   24.9203 C   0  0  0  0  0  0
  -21.6027   -4.3069   24.7215 C   0  0  0  0  0  0
  -21.8807   -3.8173   23.4338 C   0  0  0  0  0  0
  -21.9149   -4.6970   22.3410 C   0  0  0  0  0  0
  -22.7717  -13.5121   21.1837 C   0  0  0  0  0  0
  -22.1623   -4.2171   21.1005 F   0  0  0  0  0  0
  -21.5693   -3.4560   25.7753 F   0  0  0  0  0  0
  -30.0455  -13.3437   20.4263 N   0  0  0  0  0  0
  -26.2963  -12.9447   20.3467 N   0  0  0  0  0  0
  -25.9348  -11.6530   20.5826 N   0  0  0  0  0  0
  -22.0604  -12.8259   22.0737 N   0  0  0  0  0  0
  -25.3819  -15.1928   20.4240 N   0  0  0  0  0  0
  -31.8516  -14.6652   20.0112 O   0  0  0  0  0  0
  -21.6592   -6.8850   21.4250 O   0  0  0  0  0  0
  -22.3241  -14.5276   20.6584 O   0  0  0  0  0  0
  -24.6086  -31.8630   23.2159 C   0  0  0  0  0  0
  -25.8992  -32.4812   23.8381 C   0  0  1  0  0  0
  -27.2138  -27.4510   20.0522 C   0  0  0  0  0  0
  -25.5778  -33.8608   24.2228 N   0  0  0  0  0  0
  -23.4002  -30.4930   21.5605 C   0  0  2  0  0  0
  -24.8385  -28.9688   20.1162 C   0  0  0  0  0  0
  -22.7428  -29.4624   22.5073 C   0  0  0  0  0  0
  -18.0239  -28.1413   22.8426 C   0  0  0  0  0  0
  -24.1533  -36.7363   23.2610 C   0  0  0  0  0  0
  -25.9301  -30.8343   21.3682 C   0  0  0  0  0  0
  -26.0052  -29.4741   20.7014 C   0  0  0  0  0  0
  -27.2039  -28.7245   20.6627 C   0  0  0  0  0  0
  -26.0377  -26.9574   19.4561 C   0  0  0  0  0  0
  -24.8467  -27.7105   19.4887 C   0  0  0  0  0  0
  -23.6035  -29.8400   20.1727 C   0  0  0  0  0  0
  -25.4125  -36.3113   24.0321 C   0  0  1  0  0  0
  -20.5820  -28.3660   23.1351 C   0  0  2  0  0  0
  -20.6754  -26.9420   22.5455 C   0  0  0  0  0  0
  -19.5779  -26.6397   21.5214 C   0  0  0  0  0  0
  -18.1924  -26.7950   22.1570 C   0  0  0  0  0  0
  -19.1491  -28.8825   23.2873 C   0  0  0  0  0  0
  -18.9445  -30.1398   23.8933 C   0  0  0  0  0  0
  -17.6481  -30.6599   24.0550 C   0  0  0  0  0  0
  -25.9012  -34.9487   23.5077 C   0  0  0  0  0  0
  -16.5342  -29.9138   23.6310 C   0  0  0  0  0  0
  -16.7245  -28.6546   23.0322 C   0  0  0  0  0  0
  -26.4498  -31.6602   25.0694 C   0  0  0  0  0  0
  -25.3819  -31.3763   26.1486 C   0  0  0  0  0  0
  -27.0239  -30.3000   24.6107 C   0  0  0  0  0  0
  -27.6095  -32.4349   25.7427 C   0  0  0  0  0  0
  -27.5632  -37.1840   24.8434 C   0  0  0  0  0  0
  -21.4158  -29.3005   22.3782 N   0  0  0  0  0  0
  -26.4313  -37.3792   23.9405 N   0  0  0  0  0  0
  -24.6660  -31.0755   22.1074 N   0  0  0  0  0  0
  -23.4204  -28.8235   23.3178 O   0  0  0  0  0  0
  -28.3492  -26.6737   20.0246 O   0  0  0  0  0  0
  -26.5713  -34.8930   22.4726 O   0  0  0  0  0  0
  -23.5269  -32.1405   23.7555 O   0  0  0  0  0  0
  -30.5046  -17.8566   21.5358 C   0  0  0  0  0  0
  -28.6240  -19.1831   21.1871 C   0  0  0  0  0  0
  -29.7678  -16.6672   21.2433 C   0  0  0  0  0  0
  -27.8767  -17.9942   20.9250 C   0  0  0  0  0  0
  -27.2604  -20.6454   22.7249 C   0  0  0  0  0  0
  -29.2598  -23.2834   22.8733 C   0  0  0  0  0  0
  -28.8469  -24.2160   20.4789 C   0  0  0  0  0  0
  -28.3032  -25.5924   20.9693 C   0  0  0  0  0  0
  -27.9582  -20.5730   21.3354 C   0  0  1  0  0  0
  -28.5540  -23.0711   21.5076 C   0  0  1  0  0  0
  -29.9490  -19.1004   21.4877 N   0  0  0  0  0  0
  -28.4535  -16.7668   20.9016 N   0  0  0  0  0  0
  -26.4876  -17.9815   20.8047 N   0  0  0  0  0  0
  -30.3933  -15.4049   21.5049 N   0  0  0  0  0  0
  -28.8966  -21.6944   21.0232 N   0  3  0  0  0  0
  -31.4462  -12.4283   19.0791 H   0  0  0  0  0  0
  -30.2599  -11.3355   19.7517 H   0  0  0  0  0  0
  -29.6987  -11.8994   17.3676 H   0  0  0  0  0  0
  -29.6197  -13.5857   17.7761 H   0  0  0  0  0  0
  -27.7858  -11.3719   18.7549 H   0  0  0  0  0  0
  -27.3385  -12.7479   17.7898 H   0  0  0  0  0  0
  -27.6774  -14.2956   19.6099 H   0  0  0  0  0  0
  -28.7142  -11.9975   21.3207 H   0  0  0  0  0  0
  -28.4865  -13.6369   21.8642 H   0  0  0  0  0  0
  -25.2882   -9.5451   22.4656 H   0  0  0  0  0  0
  -24.0027   -7.4505   22.7455 H   0  0  0  0  0  0
  -21.0756   -8.8820   19.9112 H   0  0  0  0  0  0
  -22.3825  -10.9603   19.6208 H   0  0  0  0  0  0
  -21.1952   -7.6175   23.9767 H   0  0  0  0  0  0
  -21.1558   -6.0521   25.9108 H   0  0  0  0  0  0
  -22.0585   -2.7613   23.2845 H   0  0  0  0  0  0
  -22.4502  -12.0264   22.5447 H   0  0  0  0  0  0
  -21.1220  -13.1197   22.3106 H   0  0  0  0  0  0
  -24.5550  -15.7829   20.3569 H   0  0  0  0  0  0
  -26.2399  -15.6514   20.1244 H   0  0  0  0  0  0
  -26.7003  -32.5548   23.1077 H   0  0  0  0  0  0
  -24.9715  -33.9754   25.0231 H   0  0  0  0  0  0
  -22.6875  -31.3112   21.4389 H   0  0  0  0  0  0
  -23.3750  -35.9727   23.3233 H   0  0  0  0  0  0
  -24.3643  -36.9009   22.2021 H   0  0  0  0  0  0
  -23.7354  -37.6602   23.6646 H   0  0  0  0  0  0
  -26.0547  -31.6194   20.6198 H   0  0  0  0  0  0
  -26.8152  -30.8650   21.9946 H   0  0  0  0  0  0
  -28.1108  -29.1177   21.0976 H   0  0  0  0  0  0
  -26.0406  -26.0019   18.9479 H   0  0  0  0  0  0
  -23.9482  -27.3246   19.0268 H   0  0  0  0  0  0
  -23.7213  -30.6312   19.4310 H   0  0  0  0  0  0
  -22.7240  -29.2701   19.8699 H   0  0  0  0  0  0
  -25.1319  -36.1978   25.0814 H   0  0  0  0  0  0
  -20.9782  -28.3187   24.1529 H   0  0  0  0  0  0
  -20.5601  -26.2289   23.3634 H   0  0  0  0  0  0
  -21.6662  -26.7512   22.1310 H   0  0  0  0  0  0
  -19.7003  -25.6308   21.1265 H   0  0  0  0  0  0
  -19.6761  -27.3191   20.6726 H   0  0  0  0  0  0
  -17.4224  -26.6602   21.3952 H   0  0  0  0  0  0
  -18.0346  -26.0139   22.8993 H   0  0  0  0  0  0
  -19.7903  -30.7150   24.2433 H   0  0  0  0  0  0
  -17.5031  -31.6307   24.5134 H   0  0  0  0  0  0
  -15.5322  -30.3066   23.7623 H   0  0  0  0  0  0
  -15.8630  -28.0867   22.7074 H   0  0  0  0  0  0
  -24.6082  -30.6947   25.7945 H   0  0  0  0  0  0
  -24.8918  -32.2934   26.4759 H   0  0  0  0  0  0
  -25.8221  -30.9175   27.0330 H   0  0  0  0  0  0
  -26.2679  -29.6823   24.1204 H   0  0  0  0  0  0
  -27.3984  -29.7225   25.4561 H   0  0  0  0  0  0
  -27.8604  -30.4246   23.9228 H   0  0  0  0  0  0
  -27.2692  -33.3704   26.1901 H   0  0  0  0  0  0
  -28.3919  -32.6780   25.0228 H   0  0  0  0  0  0
  -28.0716  -31.8529   26.5406 H   0  0  0  0  0  0
  -28.2596  -38.0194   24.7470 H   0  0  0  0  0  0
  -28.1196  -36.2704   24.6215 H   0  0  0  0  0  0
  -27.2363  -37.1461   25.8848 H   0  0  0  0  0  0
  -20.9346  -29.8609   21.6889 H   0  0  0  0  0  0
  -26.0203  -38.2894   24.1349 H   0  0  0  0  0  0
  -31.5430  -17.8366   21.8552 H   0  0  0  0  0  0
  -26.3018  -20.1294   22.6630 H   0  0  0  0  0  0
  -27.0019  -21.6335   23.0948 H   0  0  0  0  0  0
  -27.8548  -20.1529   23.4968 H   0  0  0  0  0  0
  -29.1406  -24.2844   23.2790 H   0  0  0  0  0  0
  -30.3295  -23.1011   22.7932 H   0  0  0  0  0  0
  -28.8837  -22.6030   23.6377 H   0  0  0  0  0  0
  -29.9147  -24.2831   20.2637 H   0  0  0  0  0  0
  -28.3711  -23.9852   19.5233 H   0  0  0  0  0  0
  -27.2874  -25.4446   21.3442 H   0  0  0  0  0  0
  -28.8748  -25.9314   21.8309 H   0  0  0  0  0  0
  -27.1855  -20.6397   20.5690 H   0  0  0  0  0  0
  -27.4726  -23.1279   21.6453 H   0  0  0  0  0  0
  -25.9587  -18.7418   21.2141 H   0  0  0  0  0  0
  -26.0276  -17.0954   20.9887 H   0  0  0  0  0  0
  -31.2092  -15.5861   22.0726 H   0  0  0  0  0  0
  -29.7944  -21.4214   21.3953 H   0  0  0  0  0  0
  -28.9996  -21.7150   20.0209 H   0  0  0  0  0  0
  1 25  1  0  0  0
  1 30  2  0  0  0
  1 84  1  0  0  0
  2  3  1  0  0  0
  2 25  1  0  0  0
  2 86  1  0  0  0
  2 87  1  0  0  0
  3  4  1  0  0  0
  3 88  1  0  0  0
  3 89  1  0  0  0
  4  5  1  0  0  0
  4 90  1  0  0  0
  4 91  1  0  0  0
  5  6  1  0  0  0
  5 26  1  0  0  0
  5 92  1  0  0  0
  6 25  1  0  0  0
  6 93  1  0  0  0
  6 94  1  0  0  0
  7  8  2  0  0  0
  7 26  1  0  0  0
  7 29  1  0  0  0
  8  9  1  0  0  0
  8 22  1  0  0  0
  9 10  1  0  0  0
  9 27  2  0  0  0
 10 11  2  0  0  0
 10 15  1  0  0  0
 11 12  1  0  0  0
 11 95  1  0  0  0
 12 13  2  0  0  0
 12 96  1  0  0  0
 13 14  1  0  0  0
 13 31  1  0  0  0
 14 15  2  0  0  0
 14 97  1  0  0  0
 15 98  1  0  0  0
 16 17  2  0  0  0
 16 21  1  0  0  0
 16 31  1  0  0  0
 17 18  1  0  0  0
 17 99  1  0  0  0
 18 19  2  0  0  0
 18100  1  0  0  0
 19 20  1  0  0  0
 19 24  1  0  0  0
 20 21  2  0  0  0
 20101  1  0  0  0
 21 23  1  0  0  0
 22 28  1  0  0  0
 22 32  2  0  0  0
 26 27  1  0  0  0
 28102  1  0  0  0
 28103  1  0  0  0
 29104  1  0  0  0
 29105  1  0  0  0
 33 34  1  0  0  0
 33 66  1  0  0  0
 33 70  2  0  0  0
 34 36  1  0  0  0
 34 59  1  0  0  0
 34106  1  0  0  0
 35 44  2  0  0  0
 35 45  1  0  0  0
 35 68  1  0  0  0
 36 56  1  0  0  0
 36107  1  0  0  0
 37 39  1  0  0  0
 37 47  1  0  0  0
 37 66  1  0  0  0
 37108  1  0  0  0
 38 43  2  0  0  0
 38 46  1  0  0  0
 38 47  1  0  0  0
 39 64  1  0  0  0
 39 67  2  0  0  0
 40 52  1  0  0  0
 40 53  2  0  0  0
 40 58  1  0  0  0
 41109  1  0  0  0
 41110  1  0  0  0
 41111  1  0  0  0
 41 48  1  0  0  0
 42 43  1  0  0  0
 42 66  1  0  0  0
 42112  1  0  0  0
 42113  1  0  0  0
 43 44  1  0  0  0
 44114  1  0  0  0
 45 46  2  0  0  0
 45115  1  0  0  0
 46116  1  0  0  0
 47117  1  0  0  0
 47118  1  0  0  0
 48 56  1  0  0  0
 48 65  1  0  0  0
 48119  1  0  0  0
 49 50  1  0  0  0
 49 53  1  0  0  0
 49 64  1  0  0  0
 49120  1  0  0  0
 50 51  1  0  0  0
 50121  1  0  0  0
 50122  1  0  0  0
 51 52  1  0  0  0
 51123  1  0  0  0
 51124  1  0  0  0
 52125  1  0  0  0
 52126  1  0  0  0
 53 54  1  0  0  0
 54 55  2  0  0  0
 54127  1  0  0  0
 55 57  1  0  0  0
 55128  1  0  0  0
 56 69  2  0  0  0
 57 58  2  0  0  0
 57129  1  0  0  0
 58130  1  0  0  0
 59 60  1  0  0  0
 59 61  1  0  0  0
 59 62  1  0  0  0
 60131  1  0  0  0
 60132  1  0  0  0
 60133  1  0  0  0
 61134  1  0  0  0
 61135  1  0  0  0
 61136  1  0  0  0
 62137  1  0  0  0
 62138  1  0  0  0
 62139  1  0  0  0
 63 65  1  0  0  0
 63140  1  0  0  0
 63141  1  0  0  0
 63142  1  0  0  0
 64143  1  0  0  0
 65144  1  0  0  0
 68 78  1  0  0  0
 71 73  2  0  0  0
 71 81  1  0  0  0
 71145  1  0  0  0
 72 74  1  0  0  0
 72 79  1  0  0  0
 72 81  2  0  0  0
 73 82  1  0  0  0
 73 84  1  0  0  0
 74 82  2  0  0  0
 74 83  1  0  0  0
 75146  1  0  0  0
 75147  1  0  0  0
 75148  1  0  0  0
 75 79  1  0  0  0
 76149  1  0  0  0
 76150  1  0  0  0
 76151  1  0  0  0
 76 80  1  0  0  0
 77 78  1  0  0  0
 77 80  1  0  0  0
 77152  1  0  0  0
 77153  1  0  0  0
 78154  1  0  0  0
 78155  1  0  0  0
 79 85  1  0  0  0
 79156  1  0  0  0
 80 85  1  0  0  0
 80157  1  0  0  0
 83158  1  0  0  0
 83159  1  0  0  0
 84160  1  0  0  0
 85161  1  0  0  0
 85162  1  0  0  0
M  CHG  1  85   1
M  ISO  4   1 100  68 101  78 101  84 100
M  END
> <chiral flag>
0

> <version>
0

> <s_m_source_file>
/data/baiqing/PycharmProjects/Reinvent-master-3.2/result/LINK_invent/BTK/process_docking_weight1_custom_product_contain_oxygen_bond_distance_aromatic_linkinvent_7_9_3/rearranged_h_0195.sdf

> <i_m_source_file_index>
5

> <r_mmod_Potential_Energy-OPLS-2005>
-125.086563110352

> <r_mmod_Stretch_Energy-OPLS-2005>
48.7328643798828

> <r_mmod_Bend_Energy-OPLS-2005>
134.757400512695

> <r_mmod_Torsional_Energy-OPLS-2005>
306.897155761719

> <r_mmod_Improper_Torsional_Energy-OPLS-2005>
14.9676198959351

> <r_mmod_Van_der_Waal_Energy-OPLS-2005>
153.008224487305

> <r_mmod_Electrostatic_Energy-OPLS-2005>
-342.692047119141

> <r_mmod_Solvation_Energy-OPLS-2005>
-458.392120361328

> <b_mmod_Minimization_Converged-OPLS-2005>
0

> <r_mmod_RMS_Derivative-OPLS-2005>
10.1307401657104

$$$$
5
                    3D
 Structure written by MMmdl.
160168  0  0  1  0            999 V2000
  -30.6348  -14.5539   20.6086 C   0  0  0  0  0  0
  -30.4393  -12.3647   19.4373 C   0  0  0  0  0  0
  -29.5056  -12.5334   18.2173 C   0  0  0  0  0  0
  -28.0258  -12.3711   18.6219 C   0  0  0  0  0  0
  -27.6604  -13.2050   19.8779 C   0  0  2  0  0  0
  -28.6975  -12.9779   21.0013 C   0  0  0  0  0  0
  -25.2531  -13.8096   20.5588 C   0  0  0  0  0  0
  -24.1807  -13.0396   20.9156 C   0  0  0  0  0  0
  -24.6373  -11.6871   20.8726 C   0  0  0  0  0  0
  -23.9041  -10.4273   21.0397 C   0  0  0  0  0  0
  -24.3592   -9.4200   21.9179 C   0  0  0  0  0  0
  -23.6282   -8.2227   22.0747 C   0  0  0  0  0  0
  -22.4263   -8.0260   21.3533 C   0  0  0  0  0  0
  -21.9894   -9.0229   20.4636 C   0  0  0  0  0  0
  -22.7211  -10.2116   20.3048 C   0  0  0  0  0  0
  -21.6845   -6.0726   22.5280 C   0  0  0  0  0  0
  -21.4015   -6.5632   23.8215 C   0  0  0  0  0  0
  -21.3662   -5.6778   24.9174 C   0  0  0  0  0  0
  -21.6051   -4.3043   24.7222 C   0  0  0  0  0  0
  -21.8817   -3.8136   23.4346 C   0  0  0  0  0  0
  -21.9194   -4.6955   22.3403 C   0  0  0  0  0  0
  -22.7845  -13.5227   21.1828 C   0  0  0  0  0  0
  -22.1658   -4.2141   21.0983 F   0  0  0  0  0  0
  -21.5629   -3.4532   25.7739 F   0  0  0  0  0  0
  -30.0292  -13.3328   20.4725 N   0  0  0  0  0  0
  -26.3000  -12.9292   20.3344 N   0  0  0  0  0  0
  -25.9307  -11.6453   20.5761 N   0  0  0  0  0  0
  -22.0475  -12.8233   22.0395 N   0  0  0  0  0  0
  -25.4164  -15.1794   20.3849 N   0  0  0  0  0  0
  -31.7108  -14.8139   20.0551 O   0  0  0  0  0  0
  -21.6625   -6.8860   21.4237 O   0  0  0  0  0  0
  -22.3558  -14.5544   20.6687 O   0  0  0  0  0  0
  -24.6197  -31.8652   23.2067 C   0  0  0  0  0  0
  -25.9060  -32.4820   23.8394 C   0  0  1  0  0  0
  -27.2327  -27.3831   20.1324 C   0  0  0  0  0  0
  -25.5897  -33.8617   24.2328 N   0  0  0  0  0  0
  -23.4117  -30.4861   21.5480 C   0  0  2  0  0  0
  -24.8603  -28.9390   20.1227 C   0  0  0  0  0  0
  -22.7448  -29.4639   22.4974 C   0  0  0  0  0  0
  -18.0276  -28.1381   22.8496 C   0  0  0  0  0  0
  -24.1480  -36.7315   23.2643 C   0  0  0  0  0  0
  -25.9437  -30.8196   21.3630 C   0  0  0  0  0  0
  -26.0236  -29.4470   20.7155 C   0  0  0  0  0  0
  -27.2174  -28.6811   20.7061 C   0  0  0  0  0  0
  -26.0522  -26.8944   19.5385 C   0  0  0  0  0  0
  -24.8713  -27.6641   19.5279 C   0  0  0  0  0  0
  -23.6266  -29.8157   20.1645 C   0  0  0  0  0  0
  -25.4099  -36.3117   24.0347 C   0  0  1  0  0  0
  -20.5876  -28.3673   23.1305 C   0  0  2  0  0  0
  -20.6763  -26.9404   22.5417 C   0  0  0  0  0  0
  -19.5739  -26.6381   21.5215 C   0  0  0  0  0  0
  -18.1918  -26.7926   22.1626 C   0  0  0  0  0  0
  -19.1529  -28.8842   23.2902 C   0  0  0  0  0  0
  -18.9460  -30.1442   23.8914 C   0  0  0  0  0  0
  -17.6465  -30.6591   24.0557 C   0  0  0  0  0  0
  -25.9030  -34.9481   23.5139 C   0  0  0  0  0  0
  -16.5355  -29.9096   23.6324 C   0  0  0  0  0  0
  -16.7264  -28.6510   23.0356 C   0  0  0  0  0  0
  -26.4468  -31.6616   25.0743 C   0  0  0  0  0  0
  -25.3712  -31.3745   26.1486 C   0  0  0  0  0  0
  -27.0322  -30.3063   24.6144 C   0  0  0  0  0  0
  -27.6056  -32.4326   25.7503 C   0  0  0  0  0  0
  -27.5579  -37.1815   24.8469 C   0  0  0  0  0  0
  -21.4171  -29.3043   22.3721 N   0  0  0  0  0  0
  -26.4286  -37.3802   23.9419 N   0  0  0  0  0  0
  -24.6772  -31.0717   22.0983 N   0  0  0  0  0  0
  -23.4193  -28.8179   23.3037 O   0  0  0  0  0  0
  -28.3763  -26.6022   20.1186 O   0  0  0  0  0  0
  -26.5597  -34.8933   22.4703 O   0  0  0  0  0  0
  -23.5371  -32.1415   23.7433 O   0  0  0  0  0  0
  -28.0378  -16.7970   21.5118 C   0  0  0  0  0  0
  -27.3689  -18.0171   21.3673 C   0  0  0  0  0  0
  -29.3952  -16.7121   21.1694 C   0  0  0  0  0  0
  -29.3017  -19.0090   20.6760 C   0  0  0  0  0  0
  -30.7946  -20.1969   19.0016 C   0  0  0  0  0  0
  -30.8138  -23.2354   20.6903 C   0  0  0  0  0  0
  -28.4580  -24.0124   20.0934 C   0  0  0  0  0  0
  -28.3452  -25.3673   20.8911 C   0  0  0  0  0  0
  -30.0076  -20.3440   20.3168 C   0  0  1  0  0  0
  -29.3138  -22.8522   20.7552 C   0  0  1  0  0  0
  -28.0028  -19.1225   20.9397 N   0  0  0  0  0  0
  -30.0157  -17.8615   20.7666 N   0  0  0  0  0  0
  -29.9835  -15.4206   21.4270 N   0  0  0  0  0  0
  -29.0220  -21.4747   20.1886 N   0  3  0  0  0  0
  -31.4813  -12.4979   19.1407 H   0  0  0  0  0  0
  -30.3697  -11.3483   19.8281 H   0  0  0  0  0  0
  -29.7635  -11.8058   17.4466 H   0  0  0  0  0  0
  -29.6583  -13.5175   17.7701 H   0  0  0  0  0  0
  -27.8486  -11.3124   18.8175 H   0  0  0  0  0  0
  -27.3743  -12.6389   17.7890 H   0  0  0  0  0  0
  -27.7045  -14.2560   19.5880 H   0  0  0  0  0  0
  -28.6934  -11.9310   21.3092 H   0  0  0  0  0  0
  -28.4209  -13.5329   21.8972 H   0  0  0  0  0  0
  -25.2738   -9.5688   22.4749 H   0  0  0  0  0  0
  -23.9993   -7.4631   22.7470 H   0  0  0  0  0  0
  -21.0818   -8.8742   19.8952 H   0  0  0  0  0  0
  -22.3656  -10.9648   19.6156 H   0  0  0  0  0  0
  -21.1996   -7.6135   23.9719 H   0  0  0  0  0  0
  -21.1491   -6.0505   25.9080 H   0  0  0  0  0  0
  -22.0594   -2.7603   23.2843 H   0  0  0  0  0  0
  -22.4070  -11.9897   22.4807 H   0  0  0  0  0  0
  -21.1101  -13.1297   22.2575 H   0  0  0  0  0  0
  -24.6312  -15.8175   20.4453 H   0  0  0  0  0  0
  -26.2523  -15.6067   20.0098 H   0  0  0  0  0  0
  -26.7147  -32.5536   23.1174 H   0  0  0  0  0  0
  -25.0041  -33.9769   25.0470 H   0  0  0  0  0  0
  -22.7031  -31.3046   21.4049 H   0  0  0  0  0  0
  -23.3744  -35.9647   23.3309 H   0  0  0  0  0  0
  -24.3576  -36.8921   22.2058 H   0  0  0  0  0  0
  -23.7219  -37.6519   23.6643 H   0  0  0  0  0  0
  -26.0550  -31.5797   20.5880 H   0  0  0  0  0  0
  -26.8316  -30.8814   21.9810 H   0  0  0  0  0  0
  -28.1176  -29.0731   21.1591 H   0  0  0  0  0  0
  -26.0465  -25.9095   19.0929 H   0  0  0  0  0  0
  -23.9755  -27.2627   19.0736 H   0  0  0  0  0  0
  -23.7535  -30.5913   19.4090 H   0  0  0  0  0  0
  -22.7484  -29.2463   19.8566 H   0  0  0  0  0  0
  -25.1269  -36.1993   25.0841 H   0  0  0  0  0  0
  -20.9960  -28.3234   24.1428 H   0  0  0  0  0  0
  -20.5661  -26.2283   23.3612 H   0  0  0  0  0  0
  -21.6634  -26.7440   22.1211 H   0  0  0  0  0  0
  -19.6899  -25.6292   21.1244 H   0  0  0  0  0  0
  -19.6675  -27.3191   20.6741 H   0  0  0  0  0  0
  -17.4192  -26.6678   21.4027 H   0  0  0  0  0  0
  -18.0315  -26.0062   22.9016 H   0  0  0  0  0  0
  -19.7936  -30.7242   24.2308 H   0  0  0  0  0  0
  -17.5025  -31.6273   24.5151 H   0  0  0  0  0  0
  -15.5354  -30.3011   23.7628 H   0  0  0  0  0  0
  -15.8661  -28.0823   22.7076 H   0  0  0  0  0  0
  -24.5868  -30.7117   25.7814 H   0  0  0  0  0  0
  -24.8918  -32.2916   26.4927 H   0  0  0  0  0  0
  -25.8031  -30.8910   27.0257 H   0  0  0  0  0  0
  -26.2900  -29.6820   24.1160 H   0  0  0  0  0  0
  -27.4066  -29.7304   25.4618 H   0  0  0  0  0  0
  -27.8731  -30.4407   23.9334 H   0  0  0  0  0  0
  -27.2699  -33.3621   26.2114 H   0  0  0  0  0  0
  -28.3845  -32.6892   25.0309 H   0  0  0  0  0  0
  -28.0750  -31.8428   26.5389 H   0  0  0  0  0  0
  -28.2608  -38.0104   24.7513 H   0  0  0  0  0  0
  -28.1063  -36.2637   24.6287 H   0  0  0  0  0  0
  -27.2306  -37.1457   25.8877 H   0  0  0  0  0  0
  -20.9339  -29.8790   21.6958 H   0  0  0  0  0  0
  -26.0183  -38.2888   24.1410 H   0  0  0  0  0  0
  -27.4887  -15.9482   21.8950 H   0  0  0  0  0  0
  -26.3204  -18.1124   21.6121 H   0  0  0  0  0  0
  -31.5639  -19.4324   19.1039 H   0  0  0  0  0  0
  -31.2919  -21.1226   18.7165 H   0  0  0  0  0  0
  -30.1422  -19.8973   18.1815 H   0  0  0  0  0  0
  -30.9871  -24.2243   21.1139 H   0  0  0  0  0  0
  -31.1810  -23.2651   19.6650 H   0  0  0  0  0  0
  -31.4518  -22.5634   21.2621 H   0  0  0  0  0  0
  -28.8672  -24.2250   19.1058 H   0  0  0  0  0  0
  -27.4429  -23.6572   19.9125 H   0  0  0  0  0  0
  -29.1768  -25.4415   21.5904 H   0  0  0  0  0  0
  -27.4613  -25.3341   21.5322 H   0  0  0  0  0  0
  -30.6837  -20.5325   21.1481 H   0  0  0  0  0  0
  -29.0394  -22.7985   21.8097 H   0  0  0  0  0  0
  -29.3945  -14.8834   22.0393 H   0  0  0  0  0  0
  -28.2152  -21.0672   20.6514 H   0  0  0  0  0  0
  -28.7723  -21.5374   19.2176 H   0  0  0  0  0  0
  1 25  1  0  0  0
  1 30  2  0  0  0
  1 83  1  0  0  0
  2  3  1  0  0  0
  2 25  1  0  0  0
  2 85  1  0  0  0
  2 86  1  0  0  0
  3  4  1  0  0  0
  3 87  1  0  0  0
  3 88  1  0  0  0
  4  5  1  0  0  0
  4 89  1  0  0  0
  4 90  1  0  0  0
  5  6  1  0  0  0
  5 26  1  0  0  0
  5 91  1  0  0  0
  6 25  1  0  0  0
  6 92  1  0  0  0
  6 93  1  0  0  0
  7  8  2  0  0  0
  7 26  1  0  0  0
  7 29  1  0  0  0
  8  9  1  0  0  0
  8 22  1  0  0  0
  9 10  1  0  0  0
  9 27  2  0  0  0
 10 11  2  0  0  0
 10 15  1  0  0  0
 11 12  1  0  0  0
 11 94  1  0  0  0
 12 13  2  0  0  0
 12 95  1  0  0  0
 13 14  1  0  0  0
 13 31  1  0  0  0
 14 15  2  0  0  0
 14 96  1  0  0  0
 15 97  1  0  0  0
 16 17  2  0  0  0
 16 21  1  0  0  0
 16 31  1  0  0  0
 17 18  1  0  0  0
 17 98  1  0  0  0
 18 19  2  0  0  0
 18 99  1  0  0  0
 19 20  1  0  0  0
 19 24  1  0  0  0
 20 21  2  0  0  0
 20100  1  0  0  0
 21 23  1  0  0  0
 22 28  1  0  0  0
 22 32  2  0  0  0
 26 27  1  0  0  0
 28101  1  0  0  0
 28102  1  0  0  0
 29103  1  0  0  0
 29104  1  0  0  0
 33 34  1  0  0  0
 33 66  1  0  0  0
 33 70  2  0  0  0
 34 36  1  0  0  0
 34 59  1  0  0  0
 34105  1  0  0  0
 35 44  2  0  0  0
 35 45  1  0  0  0
 35 68  1  0  0  0
 36 56  1  0  0  0
 36106  1  0  0  0
 37 39  1  0  0  0
 37 47  1  0  0  0
 37 66  1  0  0  0
 37107  1  0  0  0
 38 43  2  0  0  0
 38 46  1  0  0  0
 38 47  1  0  0  0
 39 64  1  0  0  0
 39 67  2  0  0  0
 40 52  1  0  0  0
 40 53  2  0  0  0
 40 58  1  0  0  0
 41108  1  0  0  0
 41109  1  0  0  0
 41110  1  0  0  0
 41 48  1  0  0  0
 42 43  1  0  0  0
 42 66  1  0  0  0
 42111  1  0  0  0
 42112  1  0  0  0
 43 44  1  0  0  0
 44113  1  0  0  0
 45 46  2  0  0  0
 45114  1  0  0  0
 46115  1  0  0  0
 47116  1  0  0  0
 47117  1  0  0  0
 48 56  1  0  0  0
 48 65  1  0  0  0
 48118  1  0  0  0
 49 50  1  0  0  0
 49 53  1  0  0  0
 49 64  1  0  0  0
 49119  1  0  0  0
 50 51  1  0  0  0
 50120  1  0  0  0
 50121  1  0  0  0
 51 52  1  0  0  0
 51122  1  0  0  0
 51123  1  0  0  0
 52124  1  0  0  0
 52125  1  0  0  0
 53 54  1  0  0  0
 54 55  2  0  0  0
 54126  1  0  0  0
 55 57  1  0  0  0
 55127  1  0  0  0
 56 69  2  0  0  0
 57 58  2  0  0  0
 57128  1  0  0  0
 58129  1  0  0  0
 59 60  1  0  0  0
 59 61  1  0  0  0
 59 62  1  0  0  0
 60130  1  0  0  0
 60131  1  0  0  0
 60132  1  0  0  0
 61133  1  0  0  0
 61134  1  0  0  0
 61135  1  0  0  0
 62136  1  0  0  0
 62137  1  0  0  0
 62138  1  0  0  0
 63 65  1  0  0  0
 63139  1  0  0  0
 63140  1  0  0  0
 63141  1  0  0  0
 64142  1  0  0  0
 65143  1  0  0  0
 68 78  1  0  0  0
 71 72  2  0  0  0
 71 73  1  0  0  0
 71144  1  0  0  0
 72 81  1  0  0  0
 72145  1  0  0  0
 73 82  2  0  0  0
 73 83  1  0  0  0
 74 79  1  0  0  0
 74 81  2  0  0  0
 74 82  1  0  0  0
 75146  1  0  0  0
 75147  1  0  0  0
 75148  1  0  0  0
 75 79  1  0  0  0
 76149  1  0  0  0
 76150  1  0  0  0
 76151  1  0  0  0
 76 80  1  0  0  0
 77 78  1  0  0  0
 77 80  1  0  0  0
 77152  1  0  0  0
 77153  1  0  0  0
 78154  1  0  0  0
 78155  1  0  0  0
 79 84  1  0  0  0
 79156  1  0  0  0
 80 84  1  0  0  0
 80157  1  0  0  0
 83158  1  0  0  0
 84159  1  0  0  0
 84160  1  0  0  0
M  CHG  1  84   1
M  ISO  4   1 100  68 101  78 101  83 100
M  END
> <chiral flag>
0

> <version>
0

> <s_m_source_file>
/data/baiqing/PycharmProjects/Reinvent-master-3.2/result/LINK_invent/BTK/process_docking_weight1_custom_product_contain_oxygen_bond_distance_aromatic_linkinvent_7_9_3/rearranged_h_0195.sdf

> <i_m_source_file_index>
6

> <r_mmod_Potential_Energy-OPLS-2005>
-681.084777832031

> <r_mmod_Stretch_Energy-OPLS-2005>
57.4483222961426

> <r_mmod_Bend_Energy-OPLS-2005>
136.768768310547

> <r_mmod_Torsional_Energy-OPLS-2005>
270.687713623047

> <r_mmod_Improper_Torsional_Energy-OPLS-2005>
6.62890005111694

> <r_mmod_Van_der_Waal_Energy-OPLS-2005>
154.218139648438

> <r_mmod_Electrostatic_Energy-OPLS-2005>
-869.843933105469

> <r_mmod_Solvation_Energy-OPLS-2005>
-461.800537109375

> <b_mmod_Minimization_Converged-OPLS-2005>
0

> <r_mmod_RMS_Derivative-OPLS-2005>
1.99688076972961

$$$$
6
                    3D
 Structure written by MMmdl.
155163  0  0  1  0            999 V2000
  -30.5682  -14.6675   20.4966 C   0  0  0  0  0  0
  -30.4464  -12.4115   19.4429 C   0  0  0  0  0  0
  -29.5128  -12.5156   18.2151 C   0  0  0  0  0  0
  -28.0321  -12.3462   18.6200 C   0  0  0  0  0  0
  -27.6494  -13.2038   19.8560 C   0  0  2  0  0  0
  -28.6938  -13.0480   20.9833 C   0  0  0  0  0  0
  -25.2577  -13.8156   20.5637 C   0  0  0  0  0  0
  -24.1849  -13.0438   20.9205 C   0  0  0  0  0  0
  -24.6393  -11.6899   20.8728 C   0  0  0  0  0  0
  -23.9060  -10.4293   21.0398 C   0  0  0  0  0  0
  -24.3625   -9.4214   21.9179 C   0  0  0  0  0  0
  -23.6307   -8.2245   22.0744 C   0  0  0  0  0  0
  -22.4289   -8.0274   21.3532 C   0  0  0  0  0  0
  -21.9917   -9.0252   20.4639 C   0  0  0  0  0  0
  -22.7235  -10.2135   20.3043 C   0  0  0  0  0  0
  -21.6846   -6.0741   22.5285 C   0  0  0  0  0  0
  -21.4016   -6.5643   23.8222 C   0  0  0  0  0  0
  -21.3663   -5.6794   24.9185 C   0  0  0  0  0  0
  -21.6043   -4.3054   24.7226 C   0  0  0  0  0  0
  -21.8821   -3.8151   23.4342 C   0  0  0  0  0  0
  -21.9201   -4.6973   22.3405 C   0  0  0  0  0  0
  -22.7874  -13.5232   21.1878 C   0  0  0  0  0  0
  -22.1656   -4.2165   21.0983 F   0  0  0  0  0  0
  -21.5635   -3.4532   25.7735 F   0  0  0  0  0  0
  -30.0025  -13.4212   20.4234 N   0  0  0  0  0  0
  -26.2961  -12.9289   20.3239 N   0  0  0  0  0  0
  -25.9304  -11.6459   20.5712 N   0  0  0  0  0  0
  -22.0504  -12.8232   22.0421 N   0  0  0  0  0  0
  -25.4301  -15.1887   20.4014 N   0  0  0  0  0  0
  -31.7381  -14.8638   20.1494 O   0  0  0  0  0  0
  -21.6638   -6.8881   21.4247 O   0  0  0  0  0  0
  -22.3553  -14.5527   20.6719 O   0  0  0  0  0  0
  -24.6258  -31.8597   23.1988 C   0  0  0  0  0  0
  -25.9107  -32.4778   23.8324 C   0  0  1  0  0  0
  -27.2229  -27.3250   20.1360 C   0  0  0  0  0  0
  -25.5923  -33.8574   24.2254 N   0  0  0  0  0  0
  -23.4183  -30.4809   21.5416 C   0  0  2  0  0  0
  -24.8641  -28.9265   20.1164 C   0  0  0  0  0  0
  -22.7467  -29.4628   22.4935 C   0  0  0  0  0  0
  -18.0290  -28.1377   22.8487 C   0  0  0  0  0  0
  -24.1491  -36.7303   23.2634 C   0  0  0  0  0  0
  -25.9556  -30.7958   21.3637 C   0  0  0  0  0  0
  -26.0311  -29.4187   20.7161 C   0  0  0  0  0  0
  -27.2181  -28.6311   20.7100 C   0  0  0  0  0  0
  -26.0372  -26.8689   19.5274 C   0  0  0  0  0  0
  -24.8681  -27.6568   19.5118 C   0  0  0  0  0  0
  -23.6318  -29.8069   20.1593 C   0  0  0  0  0  0
  -25.4117  -36.3086   24.0323 C   0  0  1  0  0  0
  -20.5885  -28.3686   23.1286 C   0  0  2  0  0  0
  -20.6779  -26.9412   22.5406 C   0  0  0  0  0  0
  -19.5755  -26.6376   21.5211 C   0  0  0  0  0  0
  -18.1934  -26.7920   22.1619 C   0  0  0  0  0  0
  -19.1536  -28.8844   23.2884 C   0  0  0  0  0  0
  -18.9461  -30.1449   23.8906 C   0  0  0  0  0  0
  -17.6457  -30.6581   24.0561 C   0  0  0  0  0  0
  -25.9054  -34.9453   23.5093 C   0  0  0  0  0  0
  -16.5350  -29.9079   23.6324 C   0  0  0  0  0  0
  -16.7272  -28.6490   23.0353 C   0  0  0  0  0  0
  -26.4489  -31.6585   25.0692 C   0  0  0  0  0  0
  -25.3721  -31.3723   26.1417 C   0  0  0  0  0  0
  -27.0322  -30.3013   24.6117 C   0  0  0  0  0  0
  -27.6044  -32.4318   25.7482 C   0  0  0  0  0  0
  -27.5587  -37.1805   24.8458 C   0  0  0  0  0  0
  -21.4174  -29.3048   22.3685 N   0  0  0  0  0  0
  -26.4292  -37.3783   23.9412 N   0  0  0  0  0  0
  -24.6857  -31.0618   22.0931 N   0  0  0  0  0  0
  -23.4196  -28.8184   23.3025 O   0  0  0  0  0  0
  -28.3499  -26.5017   20.1217 O   0  0  0  0  0  0
  -26.5619  -34.8933   22.4660 O   0  0  0  0  0  0
  -23.5423  -32.1388   23.7326 O   0  0  0  0  0  0
  -30.1012  -19.3607   21.2395 C   0  0  0  0  0  0
  -29.1776  -19.8828   20.2788 C   0  0  0  0  0  0
  -29.6998  -17.1171   20.5947 C   0  0  0  0  0  0
  -28.7602  -17.6508   19.6612 C   0  0  0  0  0  0
  -30.5866  -22.8018   20.9194 C   0  0  0  0  0  0
  -28.4387  -23.8286   20.0055 C   0  0  0  0  0  0
  -28.2919  -25.1983   20.8170 C   0  0  0  0  0  0
  -29.0827  -22.5377   20.7200 C   0  0  1  0  0  0
  -30.3616  -18.0137   21.3865 N   0  0  0  0  0  0
  -28.5188  -18.9833   19.5008 N   0  0  0  0  0  0
  -27.9824  -16.8161   18.8654 N   0  0  0  0  0  0
  -29.6879  -15.6738   20.7985 N   0  0  0  0  0  0
  -28.8466  -21.2528   19.9814 N   0  0  0  0  0  0
  -31.4851  -12.5629   19.1439 H   0  0  0  0  0  0
  -30.4010  -11.4105   19.8768 H   0  0  0  0  0  0
  -29.7871  -11.7654   17.4713 H   0  0  0  0  0  0
  -29.6505  -13.4847   17.7316 H   0  0  0  0  0  0
  -27.8686  -11.2904   18.8391 H   0  0  0  0  0  0
  -27.3823  -12.5868   17.7769 H   0  0  0  0  0  0
  -27.6632  -14.2366   19.5188 H   0  0  0  0  0  0
  -28.7182  -12.0186   21.3435 H   0  0  0  0  0  0
  -28.4342  -13.6581   21.8496 H   0  0  0  0  0  0
  -25.2778   -9.5707   22.4748 H   0  0  0  0  0  0
  -24.0033   -7.4633   22.7463 H   0  0  0  0  0  0
  -21.0845   -8.8765   19.8946 H   0  0  0  0  0  0
  -22.3691  -10.9672   19.6153 H   0  0  0  0  0  0
  -21.1989   -7.6148   23.9740 H   0  0  0  0  0  0
  -21.1481   -6.0510   25.9094 H   0  0  0  0  0  0
  -22.0595   -2.7612   23.2838 H   0  0  0  0  0  0
  -22.4093  -11.9899   22.4835 H   0  0  0  0  0  0
  -21.1111  -13.1242   22.2584 H   0  0  0  0  0  0
  -24.6494  -15.8297   20.4955 H   0  0  0  0  0  0
  -26.2449  -15.6329   19.9861 H   0  0  0  0  0  0
  -26.7175  -32.5457   23.1077 H   0  0  0  0  0  0
  -25.0084  -33.9710   25.0404 H   0  0  0  0  0  0
  -22.7127  -31.3022   21.3943 H   0  0  0  0  0  0
  -23.3754  -35.9635   23.3276 H   0  0  0  0  0  0
  -24.3592  -36.8946   22.2055 H   0  0  0  0  0  0
  -23.7243  -37.6498   23.6671 H   0  0  0  0  0  0
  -26.0743  -31.5527   20.5874 H   0  0  0  0  0  0
  -26.8427  -30.8548   21.9833 H   0  0  0  0  0  0
  -28.1202  -29.0084   21.1712 H   0  0  0  0  0  0
  -26.0166  -25.8906   19.0670 H   0  0  0  0  0  0
  -23.9733  -27.2731   19.0400 H   0  0  0  0  0  0
  -23.7483  -30.5780   19.3967 H   0  0  0  0  0  0
  -22.7530  -29.2316   19.8627 H   0  0  0  0  0  0
  -25.1299  -36.1927   25.0815 H   0  0  0  0  0  0
  -20.9978  -28.3258   24.1407 H   0  0  0  0  0  0
  -20.5674  -26.2302   23.3608 H   0  0  0  0  0  0
  -21.6653  -26.7447   22.1207 H   0  0  0  0  0  0
  -19.6921  -25.6284   21.1252 H   0  0  0  0  0  0
  -19.6692  -27.3178   20.6736 H   0  0  0  0  0  0
  -17.4211  -26.6672   21.4016 H   0  0  0  0  0  0
  -18.0332  -26.0055   22.9005 H   0  0  0  0  0  0
  -19.7936  -30.7257   24.2282 H   0  0  0  0  0  0
  -17.5015  -31.6267   24.5152 H   0  0  0  0  0  0
  -15.5349  -30.2986   23.7638 H   0  0  0  0  0  0
  -15.8677  -28.0809   22.7071 H   0  0  0  0  0  0
  -24.5883  -30.7087   25.7742 H   0  0  0  0  0  0
  -24.8921  -32.2890   26.4857 H   0  0  0  0  0  0
  -25.8039  -30.8882   27.0184 H   0  0  0  0  0  0
  -26.2873  -29.6775   24.1157 H   0  0  0  0  0  0
  -27.4052  -29.7262   25.4601 H   0  0  0  0  0  0
  -27.8732  -30.4310   23.9300 H   0  0  0  0  0  0
  -27.2643  -33.3613   26.2069 H   0  0  0  0  0  0
  -28.3869  -32.6890   25.0326 H   0  0  0  0  0  0
  -28.0699  -31.8431   26.5399 H   0  0  0  0  0  0
  -28.2583  -38.0121   24.7539 H   0  0  0  0  0  0
  -28.1102  -36.2657   24.6238 H   0  0  0  0  0  0
  -27.2311  -37.1407   25.8859 H   0  0  0  0  0  0
  -20.9348  -29.8763   21.6892 H   0  0  0  0  0  0
  -26.0166  -38.2856   24.1415 H   0  0  0  0  0  0
  -30.6378  -20.0039   21.9162 H   0  0  0  0  0  0
  -30.7487  -23.6701   21.5578 H   0  0  0  0  0  0
  -31.0862  -23.0013   19.9706 H   0  0  0  0  0  0
  -31.1139  -21.9809   21.3947 H   0  0  0  0  0  0
  -29.0147  -24.0362   19.1038 H   0  0  0  0  0  0
  -27.4435  -23.5681   19.6442 H   0  0  0  0  0  0
  -29.1012  -25.2433   21.5440 H   0  0  0  0  0  0
  -27.3876  -25.1435   21.4253 H   0  0  0  0  0  0
  -28.6137  -22.4242   21.6985 H   0  0  0  0  0  0
  -28.4460  -15.9791   18.5382 H   0  0  0  0  0  0
  -27.4904  -17.2865   18.1150 H   0  0  0  0  0  0
  -28.7528  -15.3164   20.9168 H   0  0  0  0  0  0
  -28.1476  -21.3275   19.2492 H   0  0  0  0  0  0
  1 25  1  0  0  0
  1 30  2  0  0  0
  1 82  1  0  0  0
  2  3  1  0  0  0
  2 25  1  0  0  0
  2 84  1  0  0  0
  2 85  1  0  0  0
  3  4  1  0  0  0
  3 86  1  0  0  0
  3 87  1  0  0  0
  4  5  1  0  0  0
  4 88  1  0  0  0
  4 89  1  0  0  0
  5  6  1  0  0  0
  5 26  1  0  0  0
  5 90  1  0  0  0
  6 25  1  0  0  0
  6 91  1  0  0  0
  6 92  1  0  0  0
  7  8  2  0  0  0
  7 26  1  0  0  0
  7 29  1  0  0  0
  8  9  1  0  0  0
  8 22  1  0  0  0
  9 10  1  0  0  0
  9 27  2  0  0  0
 10 11  2  0  0  0
 10 15  1  0  0  0
 11 12  1  0  0  0
 11 93  1  0  0  0
 12 13  2  0  0  0
 12 94  1  0  0  0
 13 14  1  0  0  0
 13 31  1  0  0  0
 14 15  2  0  0  0
 14 95  1  0  0  0
 15 96  1  0  0  0
 16 17  2  0  0  0
 16 21  1  0  0  0
 16 31  1  0  0  0
 17 18  1  0  0  0
 17 97  1  0  0  0
 18 19  2  0  0  0
 18 98  1  0  0  0
 19 20  1  0  0  0
 19 24  1  0  0  0
 20 21  2  0  0  0
 20 99  1  0  0  0
 21 23  1  0  0  0
 22 28  1  0  0  0
 22 32  2  0  0  0
 26 27  1  0  0  0
 28100  1  0  0  0
 28101  1  0  0  0
 29102  1  0  0  0
 29103  1  0  0  0
 33 34  1  0  0  0
 33 66  1  0  0  0
 33 70  2  0  0  0
 34 36  1  0  0  0
 34 59  1  0  0  0
 34104  1  0  0  0
 35 44  2  0  0  0
 35 45  1  0  0  0
 35 68  1  0  0  0
 36 56  1  0  0  0
 36105  1  0  0  0
 37 39  1  0  0  0
 37 47  1  0  0  0
 37 66  1  0  0  0
 37106  1  0  0  0
 38 43  2  0  0  0
 38 46  1  0  0  0
 38 47  1  0  0  0
 39 64  1  0  0  0
 39 67  2  0  0  0
 40 52  1  0  0  0
 40 53  2  0  0  0
 40 58  1  0  0  0
 41107  1  0  0  0
 41108  1  0  0  0
 41109  1  0  0  0
 41 48  1  0  0  0
 42 43  1  0  0  0
 42 66  1  0  0  0
 42110  1  0  0  0
 42111  1  0  0  0
 43 44  1  0  0  0
 44112  1  0  0  0
 45 46  2  0  0  0
 45113  1  0  0  0
 46114  1  0  0  0
 47115  1  0  0  0
 47116  1  0  0  0
 48 56  1  0  0  0
 48 65  1  0  0  0
 48117  1  0  0  0
 49 50  1  0  0  0
 49 53  1  0  0  0
 49 64  1  0  0  0
 49118  1  0  0  0
 50 51  1  0  0  0
 50119  1  0  0  0
 50120  1  0  0  0
 51 52  1  0  0  0
 51121  1  0  0  0
 51122  1  0  0  0
 52123  1  0  0  0
 52124  1  0  0  0
 53 54  1  0  0  0
 54 55  2  0  0  0
 54125  1  0  0  0
 55 57  1  0  0  0
 55126  1  0  0  0
 56 69  2  0  0  0
 57 58  2  0  0  0
 57127  1  0  0  0
 58128  1  0  0  0
 59 60  1  0  0  0
 59 61  1  0  0  0
 59 62  1  0  0  0
 60129  1  0  0  0
 60130  1  0  0  0
 60131  1  0  0  0
 61132  1  0  0  0
 61133  1  0  0  0
 61134  1  0  0  0
 62135  1  0  0  0
 62136  1  0  0  0
 62137  1  0  0  0
 63 65  1  0  0  0
 63138  1  0  0  0
 63139  1  0  0  0
 63140  1  0  0  0
 64141  1  0  0  0
 65142  1  0  0  0
 68 77  1  0  0  0
 71 72  2  0  0  0
 71 79  1  0  0  0
 71143  1  0  0  0
 72 80  1  0  0  0
 72 83  1  0  0  0
 73 74  1  0  0  0
 73 79  2  0  0  0
 73 82  1  0  0  0
 74 80  2  0  0  0
 74 81  1  0  0  0
 75144  1  0  0  0
 75145  1  0  0  0
 75146  1  0  0  0
 75 78  1  0  0  0
 76 77  1  0  0  0
 76 78  1  0  0  0
 76147  1  0  0  0
 76148  1  0  0  0
 77149  1  0  0  0
 77150  1  0  0  0
 78 83  1  0  0  0
 78151  1  0  0  0
 81152  1  0  0  0
 81153  1  0  0  0
 82154  1  0  0  0
 83155  1  0  0  0
M  ISO  4   1 100  68 101  77 101  82 100
M  END
> <chiral flag>
0

> <version>
0

> <s_m_source_file>
/data/baiqing/PycharmProjects/Reinvent-master-3.2/result/LINK_invent/BTK/process_docking_weight1_custom_product_contain_oxygen_bond_distance_aromatic_linkinvent_7_9_3/rearranged_h_0195.sdf

> <i_m_source_file_index>
7

> <r_mmod_Potential_Energy-OPLS-2005>
-1.17476439476013

> <r_mmod_Stretch_Energy-OPLS-2005>
81.6004791259766

> <r_mmod_Bend_Energy-OPLS-2005>
174.308883666992

> <r_mmod_Torsional_Energy-OPLS-2005>
260.291748046875

> <r_mmod_Improper_Torsional_Energy-OPLS-2005>
12.6485147476196

> <r_mmod_Van_der_Waal_Energy-OPLS-2005>
139.36604309082

> <r_mmod_Electrostatic_Energy-OPLS-2005>
-493.645538330078

> <r_mmod_Solvation_Energy-OPLS-2005>
-227.861282348633

> <b_mmod_Minimization_Converged-OPLS-2005>
0

> <r_mmod_RMS_Derivative-OPLS-2005>
2.11542892456055

$$$$
7
                    3D
 Structure written by MMmdl.
155163  0  0  1  0            999 V2000
  -30.6122  -14.7627   20.4487 C   0  0  0  0  0  0
  -30.4346  -12.4619   19.4865 C   0  0  0  0  0  0
  -29.5160  -12.5098   18.2445 C   0  0  0  0  0  0
  -28.0419  -12.3333   18.6554 C   0  0  0  0  0  0
  -27.6453  -13.2343   19.8552 C   0  0  2  0  0  0
  -28.6895  -13.1764   20.9941 C   0  0  0  0  0  0
  -25.2523  -13.8195   20.5700 C   0  0  0  0  0  0
  -24.1815  -13.0438   20.9211 C   0  0  0  0  0  0
  -24.6401  -11.6917   20.8744 C   0  0  0  0  0  0
  -23.9079  -10.4292   21.0401 C   0  0  0  0  0  0
  -24.3622   -9.4210   21.9182 C   0  0  0  0  0  0
  -23.6296   -8.2244   22.0753 C   0  0  0  0  0  0
  -22.4277   -8.0281   21.3545 C   0  0  0  0  0  0
  -21.9914   -9.0256   20.4650 C   0  0  0  0  0  0
  -22.7246  -10.2134   20.3055 C   0  0  0  0  0  0
  -21.6853   -6.0736   22.5279 C   0  0  0  0  0  0
  -21.4014   -6.5641   23.8213 C   0  0  0  0  0  0
  -21.3660   -5.6795   24.9176 C   0  0  0  0  0  0
  -21.6044   -4.3057   24.7228 C   0  0  0  0  0  0
  -21.8822   -3.8148   23.4351 C   0  0  0  0  0  0
  -21.9190   -4.6962   22.3407 C   0  0  0  0  0  0
  -22.7833  -13.5222   21.1863 C   0  0  0  0  0  0
  -22.1660   -4.2146   21.0986 F   0  0  0  0  0  0
  -21.5631   -3.4544   25.7744 F   0  0  0  0  0  0
  -29.9931  -13.5295   20.4177 N   0  0  0  0  0  0
  -26.2959  -12.9407   20.3299 N   0  0  0  0  0  0
  -25.9337  -11.6550   20.5759 N   0  0  0  0  0  0
  -22.0476  -12.8216   22.0419 N   0  0  0  0  0  0
  -25.4217  -15.1916   20.4114 N   0  0  0  0  0  0
  -31.7854  -14.8615   20.0833 O   0  0  0  0  0  0
  -21.6642   -6.8877   21.4241 O   0  0  0  0  0  0
  -22.3526  -14.5531   20.6711 O   0  0  0  0  0  0
  -24.6328  -31.8533   23.1960 C   0  0  0  0  0  0
  -25.9139  -32.4748   23.8319 C   0  0  1  0  0  0
  -27.2227  -27.2402   20.1350 C   0  0  0  0  0  0
  -25.5923  -33.8549   24.2241 N   0  0  0  0  0  0
  -23.4313  -30.4739   21.5410 C   0  0  2  0  0  0
  -24.8795  -28.9183   20.1093 C   0  0  0  0  0  0
  -22.7515  -29.4587   22.4918 C   0  0  0  0  0  0
  -18.0291  -28.1392   22.8480 C   0  0  0  0  0  0
  -24.1483  -36.7277   23.2642 C   0  0  0  0  0  0
  -25.9787  -30.7598   21.3787 C   0  0  0  0  0  0
  -26.0518  -29.3803   20.7206 C   0  0  0  0  0  0
  -27.2247  -28.5547   20.7210 C   0  0  0  0  0  0
  -26.0269  -26.8557   19.4856 C   0  0  0  0  0  0
  -24.8739  -27.6653   19.4789 C   0  0  0  0  0  0
  -23.6497  -29.8053   20.1582 C   0  0  0  0  0  0
  -25.4112  -36.3067   24.0328 C   0  0  1  0  0  0
  -20.5894  -28.3697   23.1269 C   0  0  2  0  0  0
  -20.6774  -26.9412   22.5414 C   0  0  0  0  0  0
  -19.5752  -26.6381   21.5212 C   0  0  0  0  0  0
  -18.1932  -26.7934   22.1621 C   0  0  0  0  0  0
  -19.1546  -28.8863   23.2866 C   0  0  0  0  0  0
  -18.9467  -30.1466   23.8878 C   0  0  0  0  0  0
  -17.6467  -30.6590   24.0563 C   0  0  0  0  0  0
  -25.9056  -34.9438   23.5093 C   0  0  0  0  0  0
  -16.5357  -29.9085   23.6340 C   0  0  0  0  0  0
  -16.7278  -28.6509   23.0348 C   0  0  0  0  0  0
  -26.4488  -31.6585   25.0724 C   0  0  0  0  0  0
  -25.3694  -31.3766   26.1439 C   0  0  0  0  0  0
  -27.0337  -30.2994   24.6240 C   0  0  0  0  0  0
  -27.6045  -32.4327   25.7491 C   0  0  0  0  0  0
  -27.5578  -37.1789   24.8463 C   0  0  0  0  0  0
  -21.4219  -29.3035   22.3655 N   0  0  0  0  0  0
  -26.4284  -37.3768   23.9415 N   0  0  0  0  0  0
  -24.7004  -31.0476   22.0948 N   0  0  0  0  0  0
  -23.4205  -28.8134   23.3030 O   0  0  0  0  0  0
  -28.3104  -26.3290   20.2146 O   0  0  0  0  0  0
  -26.5637  -34.8917   22.4668 O   0  0  0  0  0  0
  -23.5474  -32.1364   23.7243 O   0  0  0  0  0  0
  -30.3707  -20.1729   22.6629 C   0  0  0  0  0  0
  -30.4269  -18.8612   22.1270 C   0  0  0  0  0  0
  -29.8956  -18.6956   20.8235 C   0  0  0  0  0  0
  -29.4003  -21.0479   20.7893 C   0  0  0  0  0  0
  -31.8703  -18.0095   23.9787 C   0  0  0  0  0  0
  -30.0357  -17.3010   20.0436 C   0  0  0  0  0  0
  -29.0987  -23.6925   20.5395 C   0  0  0  0  0  0
  -28.0836  -24.8465   19.9959 C   0  0  0  0  0  0
  -29.8776  -21.2400   22.0023 N   0  0  0  0  0  0
  -29.3834  -19.8252   20.1812 N   0  0  0  0  0  0
  -31.0101  -17.7828   22.8213 N   0  0  0  0  0  0
  -28.8881  -22.2275   20.1528 N   0  0  0  0  0  0
  -29.8464  -15.9011   20.6564 N   0  0  0  0  0  0
  -31.4775  -12.5774   19.1870 H   0  0  0  0  0  0
  -30.3743  -11.4863   19.9719 H   0  0  0  0  0  0
  -29.8013  -11.7326   17.5338 H   0  0  0  0  0  0
  -29.6444  -13.4614   17.7259 H   0  0  0  0  0  0
  -27.9002  -11.2851   18.9204 H   0  0  0  0  0  0
  -27.3854  -12.5226   17.8050 H   0  0  0  0  0  0
  -27.6383  -14.2545   19.4715 H   0  0  0  0  0  0
  -28.7253  -12.1810   21.4398 H   0  0  0  0  0  0
  -28.4213  -13.8616   21.7993 H   0  0  0  0  0  0
  -25.2763   -9.5685   22.4760 H   0  0  0  0  0  0
  -24.0003   -7.4639   22.7478 H   0  0  0  0  0  0
  -21.0841   -8.8777   19.8961 H   0  0  0  0  0  0
  -22.3700  -10.9673   19.6166 H   0  0  0  0  0  0
  -21.2001   -7.6146   23.9716 H   0  0  0  0  0  0
  -21.1483   -6.0524   25.9081 H   0  0  0  0  0  0
  -22.0594   -2.7609   23.2852 H   0  0  0  0  0  0
  -22.4082  -11.9871   22.4806 H   0  0  0  0  0  0
  -21.1093  -13.1251   22.2620 H   0  0  0  0  0  0
  -24.6540  -15.8449   20.5228 H   0  0  0  0  0  0
  -26.2651  -15.6303   20.0648 H   0  0  0  0  0  0
  -26.7208  -32.5389   23.1064 H   0  0  0  0  0  0
  -25.0038  -33.9675   25.0366 H   0  0  0  0  0  0
  -22.7286  -31.2966   21.3934 H   0  0  0  0  0  0
  -23.3751  -35.9601   23.3296 H   0  0  0  0  0  0
  -24.3575  -36.8908   22.2057 H   0  0  0  0  0  0
  -23.7223  -37.6471   23.6671 H   0  0  0  0  0  0
  -26.1183  -31.5192   20.6080 H   0  0  0  0  0  0
  -26.8558  -30.8109   22.0128 H   0  0  0  0  0  0
  -28.1198  -28.9022   21.2171 H   0  0  0  0  0  0
  -25.9505  -25.8992   18.9908 H   0  0  0  0  0  0
  -23.9777  -27.3064   18.9910 H   0  0  0  0  0  0
  -23.7702  -30.5795   19.3999 H   0  0  0  0  0  0
  -22.7686  -29.2359   19.8571 H   0  0  0  0  0  0
  -25.1293  -36.1912   25.0820 H   0  0  0  0  0  0
  -20.9983  -28.3271   24.1391 H   0  0  0  0  0  0
  -20.5661  -26.2305   23.3618 H   0  0  0  0  0  0
  -21.6643  -26.7424   22.1214 H   0  0  0  0  0  0
  -19.6911  -25.6287   21.1250 H   0  0  0  0  0  0
  -19.6698  -27.3183   20.6735 H   0  0  0  0  0  0
  -17.4203  -26.6675   21.4026 H   0  0  0  0  0  0
  -18.0335  -26.0084   22.9026 H   0  0  0  0  0  0
  -19.7942  -30.7291   24.2232 H   0  0  0  0  0  0
  -17.5019  -31.6267   24.5172 H   0  0  0  0  0  0
  -15.5356  -30.2980   23.7678 H   0  0  0  0  0  0
  -15.8677  -28.0828   22.7062 H   0  0  0  0  0  0
  -24.5861  -30.7123   25.7769 H   0  0  0  0  0  0
  -24.8890  -32.2950   26.4827 H   0  0  0  0  0  0
  -25.7986  -30.8964   27.0243 H   0  0  0  0  0  0
  -26.2937  -29.6740   24.1234 H   0  0  0  0  0  0
  -27.3967  -29.7263   25.4784 H   0  0  0  0  0  0
  -27.8834  -30.4256   23.9527 H   0  0  0  0  0  0
  -27.2659  -33.3636   26.2050 H   0  0  0  0  0  0
  -28.3856  -32.6873   25.0314 H   0  0  0  0  0  0
  -28.0711  -31.8463   26.5417 H   0  0  0  0  0  0
  -28.2593  -38.0088   24.7520 H   0  0  0  0  0  0
  -28.1073  -36.2624   24.6272 H   0  0  0  0  0  0
  -27.2304  -37.1420   25.8866 H   0  0  0  0  0  0
  -20.9412  -29.8751   21.6848 H   0  0  0  0  0  0
  -26.0164  -38.2839   24.1425 H   0  0  0  0  0  0
  -30.7536  -20.3908   23.6484 H   0  0  0  0  0  0
  -32.4398  -17.1062   24.2038 H   0  0  0  0  0  0
  -31.2860  -18.2573   24.8663 H   0  0  0  0  0  0
  -32.5909  -18.8105   23.8021 H   0  0  0  0  0  0
  -31.0250  -17.3278   19.5849 H   0  0  0  0  0  0
  -29.3442  -17.3499   19.2027 H   0  0  0  0  0  0
  -29.1249  -23.7547   21.6278 H   0  0  0  0  0  0
  -30.1054  -23.9536   20.2121 H   0  0  0  0  0  0
  -27.1107  -24.5949   20.4190 H   0  0  0  0  0  0
  -27.9850  -24.7094   18.9185 H   0  0  0  0  0  0
  -31.0854  -16.8849   22.3432 H   0  0  0  0  0  0
  -28.5249  -22.0708   19.2199 H   0  0  0  0  0  0
  -28.9201  -15.7348   21.0173 H   0  0  0  0  0  0
  1 25  1  0  0  0
  1 30  2  0  0  0
  1 83  1  0  0  0
  2  3  1  0  0  0
  2 25  1  0  0  0
  2 84  1  0  0  0
  2 85  1  0  0  0
  3  4  1  0  0  0
  3 86  1  0  0  0
  3 87  1  0  0  0
  4  5  1  0  0  0
  4 88  1  0  0  0
  4 89  1  0  0  0
  5  6  1  0  0  0
  5 26  1  0  0  0
  5 90  1  0  0  0
  6 25  1  0  0  0
  6 91  1  0  0  0
  6 92  1  0  0  0
  7  8  2  0  0  0
  7 26  1  0  0  0
  7 29  1  0  0  0
  8  9  1  0  0  0
  8 22  1  0  0  0
  9 10  1  0  0  0
  9 27  2  0  0  0
 10 11  2  0  0  0
 10 15  1  0  0  0
 11 12  1  0  0  0
 11 93  1  0  0  0
 12 13  2  0  0  0
 12 94  1  0  0  0
 13 14  1  0  0  0
 13 31  1  0  0  0
 14 15  2  0  0  0
 14 95  1  0  0  0
 15 96  1  0  0  0
 16 17  2  0  0  0
 16 21  1  0  0  0
 16 31  1  0  0  0
 17 18  1  0  0  0
 17 97  1  0  0  0
 18 19  2  0  0  0
 18 98  1  0  0  0
 19 20  1  0  0  0
 19 24  1  0  0  0
 20 21  2  0  0  0
 20 99  1  0  0  0
 21 23  1  0  0  0
 22 28  1  0  0  0
 22 32  2  0  0  0
 26 27  1  0  0  0
 28100  1  0  0  0
 28101  1  0  0  0
 29102  1  0  0  0
 29103  1  0  0  0
 33 34  1  0  0  0
 33 66  1  0  0  0
 33 70  2  0  0  0
 34 36  1  0  0  0
 34 59  1  0  0  0
 34104  1  0  0  0
 35 44  2  0  0  0
 35 45  1  0  0  0
 35 68  1  0  0  0
 36 56  1  0  0  0
 36105  1  0  0  0
 37 39  1  0  0  0
 37 47  1  0  0  0
 37 66  1  0  0  0
 37106  1  0  0  0
 38 43  2  0  0  0
 38 46  1  0  0  0
 38 47  1  0  0  0
 39 64  1  0  0  0
 39 67  2  0  0  0
 40 52  1  0  0  0
 40 53  2  0  0  0
 40 58  1  0  0  0
 41107  1  0  0  0
 41108  1  0  0  0
 41109  1  0  0  0
 41 48  1  0  0  0
 42 43  1  0  0  0
 42 66  1  0  0  0
 42110  1  0  0  0
 42111  1  0  0  0
 43 44  1  0  0  0
 44112  1  0  0  0
 45 46  2  0  0  0
 45113  1  0  0  0
 46114  1  0  0  0
 47115  1  0  0  0
 47116  1  0  0  0
 48 56  1  0  0  0
 48 65  1  0  0  0
 48117  1  0  0  0
 49 50  1  0  0  0
 49 53  1  0  0  0
 49 64  1  0  0  0
 49118  1  0  0  0
 50 51  1  0  0  0
 50119  1  0  0  0
 50120  1  0  0  0
 51 52  1  0  0  0
 51121  1  0  0  0
 51122  1  0  0  0
 52123  1  0  0  0
 52124  1  0  0  0
 53 54  1  0  0  0
 54 55  2  0  0  0
 54125  1  0  0  0
 55 57  1  0  0  0
 55126  1  0  0  0
 56 69  2  0  0  0
 57 58  2  0  0  0
 57127  1  0  0  0
 58128  1  0  0  0
 59 60  1  0  0  0
 59 61  1  0  0  0
 59 62  1  0  0  0
 60129  1  0  0  0
 60130  1  0  0  0
 60131  1  0  0  0
 61132  1  0  0  0
 61133  1  0  0  0
 61134  1  0  0  0
 62135  1  0  0  0
 62136  1  0  0  0
 62137  1  0  0  0
 63 65  1  0  0  0
 63138  1  0  0  0
 63139  1  0  0  0
 63140  1  0  0  0
 64141  1  0  0  0
 65142  1  0  0  0
 68 78  1  0  0  0
 71 72  2  0  0  0
 71 79  1  0  0  0
 71143  1  0  0  0
 72 73  1  0  0  0
 72 81  1  0  0  0
 73 76  1  0  0  0
 73 80  2  0  0  0
 74 79  2  0  0  0
 74 80  1  0  0  0
 74 82  1  0  0  0
 75 81  1  0  0  0
 75144  1  0  0  0
 75145  1  0  0  0
 75146  1  0  0  0
 76 83  1  0  0  0
 76147  1  0  0  0
 76148  1  0  0  0
 77 78  1  0  0  0
 77 82  1  0  0  0
 77149  1  0  0  0
 77150  1  0  0  0
 78151  1  0  0  0
 78152  1  0  0  0
 81153  1  0  0  0
 82154  1  0  0  0
 83155  1  0  0  0
M  ISO  4   1 100  68 101  78 101  83 100
M  END
> <chiral flag>
0

> <version>
0

> <s_m_source_file>
/data/baiqing/PycharmProjects/Reinvent-master-3.2/result/LINK_invent/BTK/process_docking_weight1_custom_product_contain_oxygen_bond_distance_aromatic_linkinvent_7_9_3/rearranged_h_0195.sdf

> <i_m_source_file_index>
8

> <r_mmod_Potential_Energy-OPLS-2005>
-392.278137207031

> <r_mmod_Stretch_Energy-OPLS-2005>
131.018325805664

> <r_mmod_Bend_Energy-OPLS-2005>
187.22184753418

> <r_mmod_Torsional_Energy-OPLS-2005>
191.570404052734

> <r_mmod_Improper_Torsional_Energy-OPLS-2005>
8.63420295715332

> <r_mmod_Van_der_Waal_Energy-OPLS-2005>
150.296096801758

> <r_mmod_Electrostatic_Energy-OPLS-2005>
-895.1943359375

> <r_mmod_Solvation_Energy-OPLS-2005>
-261.849853515625

> <b_mmod_Minimization_Converged-OPLS-2005>
0

> <r_mmod_RMS_Derivative-OPLS-2005>
0.94418865442276

$$$$
8
                    3D
 Structure written by MMmdl.
166174  0  0  1  0            999 V2000
  -30.5818  -14.6809   20.5215 C   0  0  0  0  0  0
  -30.4578  -12.4263   19.4423 C   0  0  0  0  0  0
  -29.5105  -12.5143   18.2210 C   0  0  0  0  0  0
  -28.0350  -12.3409   18.6402 C   0  0  0  0  0  0
  -27.6579  -13.2105   19.8676 C   0  0  2  0  0  0
  -28.7071  -13.0430   20.9897 C   0  0  0  0  0  0
  -25.2597  -13.8154   20.5719 C   0  0  0  0  0  0
  -24.1844  -13.0429   20.9199 C   0  0  0  0  0  0
  -24.6402  -11.6900   20.8752 C   0  0  0  0  0  0
  -23.9065  -10.4292   21.0412 C   0  0  0  0  0  0
  -24.3616   -9.4209   21.9191 C   0  0  0  0  0  0
  -23.6291   -8.2242   22.0755 C   0  0  0  0  0  0
  -22.4273   -8.0282   21.3543 C   0  0  0  0  0  0
  -21.9911   -9.0262   20.4650 C   0  0  0  0  0  0
  -22.7239  -10.2141   20.3063 C   0  0  0  0  0  0
  -21.6852   -6.0742   22.5279 C   0  0  0  0  0  0
  -21.4006   -6.5641   23.8214 C   0  0  0  0  0  0
  -21.3659   -5.6792   24.9174 C   0  0  0  0  0  0
  -21.6044   -4.3056   24.7222 C   0  0  0  0  0  0
  -21.8818   -3.8150   23.4341 C   0  0  0  0  0  0
  -21.9191   -4.6969   22.3400 C   0  0  0  0  0  0
  -22.7866  -13.5239   21.1849 C   0  0  0  0  0  0
  -22.1666   -4.2161   21.0977 F   0  0  0  0  0  0
  -21.5632   -3.4537   25.7732 F   0  0  0  0  0  0
  -30.0192  -13.4287   20.4355 N   0  0  0  0  0  0
  -26.3018  -12.9321   20.3355 N   0  0  0  0  0  0
  -25.9331  -11.6484   20.5779 N   0  0  0  0  0  0
  -22.0496  -12.8249   22.0411 N   0  0  0  0  0  0
  -25.4327  -15.1873   20.4154 N   0  0  0  0  0  0
  -31.7168  -14.9056   20.0860 O   0  0  0  0  0  0
  -21.6633   -6.8883   21.4239 O   0  0  0  0  0  0
  -22.3568  -14.5555   20.6701 O   0  0  0  0  0  0
  -24.6279  -31.8574   23.2018 C   0  0  0  0  0  0
  -25.9099  -32.4792   23.8368 C   0  0  1  0  0  0
  -27.2264  -27.2910   20.1251 C   0  0  0  0  0  0
  -25.5890  -33.8591   24.2289 N   0  0  0  0  0  0
  -23.4257  -30.4834   21.5420 C   0  0  2  0  0  0
  -24.8748  -28.9382   20.1118 C   0  0  0  0  0  0
  -22.7492  -29.4618   22.4875 C   0  0  0  0  0  0
  -18.0302  -28.1418   22.8517 C   0  0  0  0  0  0
  -24.1472  -36.7285   23.2648 C   0  0  0  0  0  0
  -25.9703  -30.7827   21.3761 C   0  0  0  0  0  0
  -26.0455  -29.4073   20.7201 C   0  0  0  0  0  0
  -27.2249  -28.5984   20.7133 C   0  0  0  0  0  0
  -26.0312  -26.8871   19.4853 C   0  0  0  0  0  0
  -24.8710  -27.6844   19.4857 C   0  0  0  0  0  0
  -23.6450  -29.8233   20.1561 C   0  0  0  0  0  0
  -25.4101  -36.3091   24.0339 C   0  0  1  0  0  0
  -20.5909  -28.3714   23.1275 C   0  0  2  0  0  0
  -20.6802  -26.9428   22.5419 C   0  0  0  0  0  0
  -19.5764  -26.6408   21.5240 C   0  0  0  0  0  0
  -18.1938  -26.7966   22.1650 C   0  0  0  0  0  0
  -19.1561  -28.8878   23.2903 C   0  0  0  0  0  0
  -18.9491  -30.1480   23.8919 C   0  0  0  0  0  0
  -17.6497  -30.6619   24.0591 C   0  0  0  0  0  0
  -25.9040  -34.9461   23.5121 C   0  0  0  0  0  0
  -16.5382  -29.9128   23.6345 C   0  0  0  0  0  0
  -16.7297  -28.6544   23.0375 C   0  0  0  0  0  0
  -26.4485  -31.6612   25.0732 C   0  0  0  0  0  0
  -25.3713  -31.3770   26.1448 C   0  0  0  0  0  0
  -27.0324  -30.3042   24.6182 C   0  0  0  0  0  0
  -27.6057  -32.4342   25.7491 C   0  0  0  0  0  0
  -27.5572  -37.1785   24.8474 C   0  0  0  0  0  0
  -21.4197  -29.3065   22.3632 N   0  0  0  0  0  0
  -26.4284  -37.3787   23.9425 N   0  0  0  0  0  0
  -24.6941  -31.0579   22.0981 N   0  0  0  0  0  0
  -23.4201  -28.8121   23.2939 O   0  0  0  0  0  0
  -28.3404  -26.4232   20.1533 O   0  0  0  0  0  0
  -26.5631  -34.8928   22.4696 O   0  0  0  0  0  0
  -23.5423  -32.1372   23.7327 O   0  0  0  0  0  0
  -28.6191  -17.5474   21.9722 C   0  0  0  0  0  0
  -29.5766  -17.0923   21.0960 C   0  0  0  0  0  0
  -29.5752  -19.4089   20.6462 C   0  0  0  0  0  0
  -30.9522  -20.0065   17.5561 C   0  0  0  0  0  0
  -30.6612  -16.3943   16.5327 C   0  0  0  0  0  0
  -31.7023  -21.4851   20.4249 C   0  0  0  0  0  0
  -29.9061  -20.9452   18.0967 C   0  0  0  0  0  0
  -29.2783  -23.8824   20.1540 C   0  0  0  0  0  0
  -31.4929  -17.6288   16.9001 C   0  0  0  0  0  0
  -28.1050  -24.9589   20.3590 C   0  0  0  0  0  0
  -30.1304  -18.1840   20.3450 N   0  0  0  0  0  0
  -32.1669  -20.4783   17.2158 N   0  0  0  0  0  0
  -29.7426  -15.6336   21.0454 N   0  0  0  0  0  0
  -28.9473  -22.4334   20.4176 N   0  0  0  0  0  0
  -30.6299  -18.7097   17.3923 N   0  3  0  0  0  0
  -28.3668  -19.2794   21.9109 S   0  0  0  0  0  0
  -29.9682  -21.0972   19.9446 S   0  0  2  0  0  0
  -31.4915  -12.5864   19.1301 H   0  0  0  0  0  0
  -30.4306  -11.4278   19.8805 H   0  0  0  0  0  0
  -29.7778  -11.7567   17.4824 H   0  0  0  0  0  0
  -29.6367  -13.4782   17.7264 H   0  0  0  0  0  0
  -27.8813  -11.2882   18.8789 H   0  0  0  0  0  0
  -27.3733  -12.5608   17.8018 H   0  0  0  0  0  0
  -27.6809  -14.2489   19.5346 H   0  0  0  0  0  0
  -28.7346  -12.0063   21.3270 H   0  0  0  0  0  0
  -28.4374  -13.6248   21.8719 H   0  0  0  0  0  0
  -25.2761   -9.5684   22.4771 H   0  0  0  0  0  0
  -24.0000   -7.4631   22.7473 H   0  0  0  0  0  0
  -21.0843   -8.8782   19.8959 H   0  0  0  0  0  0
  -22.3696  -10.9682   19.6181 H   0  0  0  0  0  0
  -21.1989   -7.6149   23.9723 H   0  0  0  0  0  0
  -21.1488   -6.0518   25.9082 H   0  0  0  0  0  0
  -22.0597   -2.7614   23.2834 H   0  0  0  0  0  0
  -22.4079  -11.9900   22.4800 H   0  0  0  0  0  0
  -21.1124  -13.1300   22.2610 H   0  0  0  0  0  0
  -24.6629  -15.8391   20.5178 H   0  0  0  0  0  0
  -26.2816  -15.6287   20.0876 H   0  0  0  0  0  0
  -26.7152  -32.5454   23.1105 H   0  0  0  0  0  0
  -24.9991  -33.9778   25.0396 H   0  0  0  0  0  0
  -22.7214  -31.3046   21.3980 H   0  0  0  0  0  0
  -23.3757  -35.9597   23.3322 H   0  0  0  0  0  0
  -24.3559  -36.8890   22.2064 H   0  0  0  0  0  0
  -23.7183  -37.6472   23.6654 H   0  0  0  0  0  0
  -26.1023  -31.5434   20.6049 H   0  0  0  0  0  0
  -26.8521  -30.8368   22.0029 H   0  0  0  0  0  0
  -28.1224  -28.9592   21.1966 H   0  0  0  0  0  0
  -25.9626  -25.9457   18.9644 H   0  0  0  0  0  0
  -23.9762  -27.3241   18.9979 H   0  0  0  0  0  0
  -23.7725  -30.6057   19.4067 H   0  0  0  0  0  0
  -22.7645  -29.2590   19.8435 H   0  0  0  0  0  0
  -25.1267  -36.1967   25.0834 H   0  0  0  0  0  0
  -21.0055  -28.3304   24.1379 H   0  0  0  0  0  0
  -20.5740  -26.2306   23.3618 H   0  0  0  0  0  0
  -21.6652  -26.7471   22.1169 H   0  0  0  0  0  0
  -19.6922  -25.6320   21.1261 H   0  0  0  0  0  0
  -19.6718  -27.3229   20.6777 H   0  0  0  0  0  0
  -17.4215  -26.6758   21.4048 H   0  0  0  0  0  0
  -18.0312  -26.0113   22.9043 H   0  0  0  0  0  0
  -19.7965  -30.7299   24.2288 H   0  0  0  0  0  0
  -17.5060  -31.6303   24.5179 H   0  0  0  0  0  0
  -15.5390  -30.3061   23.7655 H   0  0  0  0  0  0
  -15.8693  -28.0878   22.7086 H   0  0  0  0  0  0
  -24.5889  -30.7120   25.7772 H   0  0  0  0  0  0
  -24.8901  -32.2953   26.4847 H   0  0  0  0  0  0
  -25.8024  -30.8964   27.0237 H   0  0  0  0  0  0
  -26.2889  -29.6795   24.1210 H   0  0  0  0  0  0
  -27.4050  -29.7303   25.4679 H   0  0  0  0  0  0
  -27.8756  -30.4366   23.9388 H   0  0  0  0  0  0
  -27.2691  -33.3673   26.2036 H   0  0  0  0  0  0
  -28.3873  -32.6858   25.0302 H   0  0  0  0  0  0
  -28.0698  -31.8468   26.5426 H   0  0  0  0  0  0
  -28.2587  -38.0085   24.7520 H   0  0  0  0  0  0
  -28.1066  -36.2612   24.6298 H   0  0  0  0  0  0
  -27.2290  -37.1420   25.8879 H   0  0  0  0  0  0
  -20.9348  -29.8791   21.6862 H   0  0  0  0  0  0
  -26.0174  -38.2853   24.1490 H   0  0  0  0  0  0
  -28.0176  -16.9683   22.6609 H   0  0  0  0  0  0
  -31.2943  -15.6003   16.1371 H   0  0  0  0  0  0
  -29.9158  -16.6324   15.7726 H   0  0  0  0  0  0
  -30.1396  -15.9986   17.4050 H   0  0  0  0  0  0
  -31.7058  -22.0975   21.3255 H   0  0  0  0  0  0
  -32.1937  -22.0261   19.6178 H   0  0  0  0  0  0
  -32.2426  -20.5573   20.6175 H   0  0  0  0  0  0
  -28.9115  -20.5960   17.8198 H   0  0  0  0  0  0
  -30.0291  -21.9357   17.6592 H   0  0  0  0  0  0
  -30.1168  -24.1554   20.7969 H   0  0  0  0  0  0
  -29.6421  -23.9716   19.1300 H   0  0  0  0  0  0
  -32.0411  -17.9775   16.0246 H   0  0  0  0  0  0
  -32.2276  -17.3783   17.6666 H   0  0  0  0  0  0
  -27.7313  -24.8494   21.3789 H   0  0  0  0  0  0
  -27.2979  -24.6083   19.7224 H   0  0  0  0  0  0
  -32.3885  -21.4598   17.3229 H   0  0  0  0  0  0
  -32.8965  -19.9015   16.8214 H   0  0  0  0  0  0
  -28.9589  -15.1581   21.4625 H   0  0  0  0  0  0
  -28.6219  -22.3253   21.3699 H   0  0  0  0  0  0
  -29.7300  -18.4102   17.7434 H   0  0  0  0  0  0
  1 25  1  0  0  0
  1 30  2  0  0  0
  1 83  1  0  0  0
  2  3  1  0  0  0
  2 25  1  0  0  0
  2 88  1  0  0  0
  2 89  1  0  0  0
  3  4  1  0  0  0
  3 90  1  0  0  0
  3 91  1  0  0  0
  4  5  1  0  0  0
  4 92  1  0  0  0
  4 93  1  0  0  0
  5  6  1  0  0  0
  5 26  1  0  0  0
  5 94  1  0  0  0
  6 25  1  0  0  0
  6 95  1  0  0  0
  6 96  1  0  0  0
  7  8  2  0  0  0
  7 26  1  0  0  0
  7 29  1  0  0  0
  8  9  1  0  0  0
  8 22  1  0  0  0
  9 10  1  0  0  0
  9 27  2  0  0  0
 10 11  2  0  0  0
 10 15  1  0  0  0
 11 12  1  0  0  0
 11 97  1  0  0  0
 12 13  2  0  0  0
 12 98  1  0  0  0
 13 14  1  0  0  0
 13 31  1  0  0  0
 14 15  2  0  0  0
 14 99  1  0  0  0
 15100  1  0  0  0
 16 17  2  0  0  0
 16 21  1  0  0  0
 16 31  1  0  0  0
 17 18  1  0  0  0
 17101  1  0  0  0
 18 19  2  0  0  0
 18102  1  0  0  0
 19 20  1  0  0  0
 19 24  1  0  0  0
 20 21  2  0  0  0
 20103  1  0  0  0
 21 23  1  0  0  0
 22 28  1  0  0  0
 22 32  2  0  0  0
 26 27  1  0  0  0
 28104  1  0  0  0
 28105  1  0  0  0
 29106  1  0  0  0
 29107  1  0  0  0
 33 34  1  0  0  0
 33 66  1  0  0  0
 33 70  2  0  0  0
 34 36  1  0  0  0
 34 59  1  0  0  0
 34108  1  0  0  0
 35 44  2  0  0  0
 35 45  1  0  0  0
 35 68  1  0  0  0
 36 56  1  0  0  0
 36109  1  0  0  0
 37 39  1  0  0  0
 37 47  1  0  0  0
 37 66  1  0  0  0
 37110  1  0  0  0
 38 43  2  0  0  0
 38 46  1  0  0  0
 38 47  1  0  0  0
 39 64  1  0  0  0
 39 67  2  0  0  0
 40 52  1  0  0  0
 40 53  2  0  0  0
 40 58  1  0  0  0
 41111  1  0  0  0
 41112  1  0  0  0
 41113  1  0  0  0
 41 48  1  0  0  0
 42 43  1  0  0  0
 42 66  1  0  0  0
 42114  1  0  0  0
 42115  1  0  0  0
 43 44  1  0  0  0
 44116  1  0  0  0
 45 46  2  0  0  0
 45117  1  0  0  0
 46118  1  0  0  0
 47119  1  0  0  0
 47120  1  0  0  0
 48 56  1  0  0  0
 48 65  1  0  0  0
 48121  1  0  0  0
 49 50  1  0  0  0
 49 53  1  0  0  0
 49 64  1  0  0  0
 49122  1  0  0  0
 50 51  1  0  0  0
 50123  1  0  0  0
 50124  1  0  0  0
 51 52  1  0  0  0
 51125  1  0  0  0
 51126  1  0  0  0
 52127  1  0  0  0
 52128  1  0  0  0
 53 54  1  0  0  0
 54 55  2  0  0  0
 54129  1  0  0  0
 55 57  1  0  0  0
 55130  1  0  0  0
 56 69  2  0  0  0
 57 58  2  0  0  0
 57131  1  0  0  0
 58132  1  0  0  0
 59 60  1  0  0  0
 59 61  1  0  0  0
 59 62  1  0  0  0
 60133  1  0  0  0
 60134  1  0  0  0
 60135  1  0  0  0
 61136  1  0  0  0
 61137  1  0  0  0
 61138  1  0  0  0
 62139  1  0  0  0
 62140  1  0  0  0
 62141  1  0  0  0
 63 65  1  0  0  0
 63142  1  0  0  0
 63143  1  0  0  0
 63144  1  0  0  0
 64145  1  0  0  0
 65146  1  0  0  0
 68 80  1  0  0  0
 71 72  2  0  0  0
 71 86  1  0  0  0
 71147  1  0  0  0
 72 81  1  0  0  0
 72 83  1  0  0  0
 73 81  2  0  0  0
 73 86  1  0  0  0
 73 87  1  0  0  0
 74 77  1  0  0  0
 74 82  1  0  0  0
 74 85  2  0  0  0
 75 79  1  0  0  0
 75148  1  0  0  0
 75149  1  0  0  0
 75150  1  0  0  0
 76151  1  0  0  0
 76152  1  0  0  0
 76153  1  0  0  0
 76 87  1  0  0  0
 77 87  1  0  0  0
 77154  1  0  0  0
 77155  1  0  0  0
 78 80  1  0  0  0
 78 84  1  0  0  0
 78156  1  0  0  0
 78157  1  0  0  0
 79 85  1  0  0  0
 79158  1  0  0  0
 79159  1  0  0  0
 80160  1  0  0  0
 80161  1  0  0  0
 82162  1  0  0  0
 82163  1  0  0  0
 83164  1  0  0  0
 84 87  1  0  0  0
 84165  1  0  0  0
 85166  1  0  0  0
M  CHG  1  85   1
M  ISO  4   1 100  68 101  80 101  83 100
M  END
> <chiral flag>
0

> <version>
0

> <s_m_source_file>
/data/baiqing/PycharmProjects/Reinvent-master-3.2/result/LINK_invent/BTK/process_docking_weight1_custom_product_contain_oxygen_bond_distance_aromatic_linkinvent_7_9_3/rearranged_h_0195.sdf

> <i_m_source_file_index>
9

> <r_mmod_Potential_Energy-OPLS-2005>
89.4780578613281

> <r_mmod_Stretch_Energy-OPLS-2005>
98.4984588623047

> <r_mmod_Bend_Energy-OPLS-2005>
220.562744140625

> <r_mmod_Torsional_Energy-OPLS-2005>
218.060043334961

> <r_mmod_Improper_Torsional_Energy-OPLS-2005>
3.25194692611694

> <r_mmod_Van_der_Waal_Energy-OPLS-2005>
102.597129821777

> <r_mmod_Electrostatic_Energy-OPLS-2005>
-188.738662719727

> <r_mmod_Solvation_Energy-OPLS-2005>
-426.935577392578

> <b_mmod_Minimization_Converged-OPLS-2005>
0

> <r_mmod_RMS_Derivative-OPLS-2005>
2.1570725440979

$$$$
9
                    3D
 Structure written by MMmdl.
166174  0  0  1  0            999 V2000
  -30.7208  -14.4424   20.6222 C   0  0  0  0  0  0
  -30.4231  -12.3042   19.4130 C   0  0  0  0  0  0
  -29.4911  -12.5156   18.2029 C   0  0  0  0  0  0
  -28.0154  -12.3546   18.6241 C   0  0  0  0  0  0
  -27.6646  -13.1991   19.8791 C   0  0  2  0  0  0
  -28.7050  -12.9689   20.9995 C   0  0  0  0  0  0
  -25.2610  -13.8113   20.5641 C   0  0  0  0  0  0
  -24.1832  -13.0420   20.9181 C   0  0  0  0  0  0
  -24.6348  -11.6895   20.8703 C   0  0  0  0  0  0
  -23.9000  -10.4300   21.0367 C   0  0  0  0  0  0
  -24.3568   -9.4220   21.9130 C   0  0  0  0  0  0
  -23.6279   -8.2229   22.0704 C   0  0  0  0  0  0
  -22.4257   -8.0256   21.3509 C   0  0  0  0  0  0
  -21.9873   -9.0224   20.4598 C   0  0  0  0  0  0
  -22.7174  -10.2118   20.3019 C   0  0  0  0  0  0
  -21.6853   -6.0710   22.5288 C   0  0  0  0  0  0
  -21.4000   -6.5604   23.8224 C   0  0  0  0  0  0
  -21.3672   -5.6751   24.9191 C   0  0  0  0  0  0
  -21.6077   -4.3015   24.7234 C   0  0  0  0  0  0
  -21.8817   -3.8109   23.4339 C   0  0  0  0  0  0
  -21.9182   -4.6929   22.3403 C   0  0  0  0  0  0
  -22.7867  -13.5230   21.1901 C   0  0  0  0  0  0
  -22.1661   -4.2109   21.0976 F   0  0  0  0  0  0
  -21.5661   -3.4509   25.7749 F   0  0  0  0  0  0
  -30.0395  -13.2752   20.4514 N   0  0  0  0  0  0
  -26.3038  -12.9265   20.3365 N   0  0  0  0  0  0
  -25.9280  -11.6448   20.5753 N   0  0  0  0  0  0
  -22.0473  -12.8243   22.0421 N   0  0  0  0  0  0
  -25.4314  -15.1827   20.3982 N   0  0  0  0  0  0
  -31.8326  -14.6450   20.1182 O   0  0  0  0  0  0
  -21.6625   -6.8853   21.4252 O   0  0  0  0  0  0
  -22.3579  -14.5562   20.6739 O   0  0  0  0  0  0
  -24.6115  -31.8668   23.2157 C   0  0  0  0  0  0
  -25.9016  -32.4815   23.8428 C   0  0  1  0  0  0
  -27.2327  -27.4421   20.0825 C   0  0  0  0  0  0
  -25.5902  -33.8629   24.2334 N   0  0  0  0  0  0
  -23.3982  -30.4904   21.5572 C   0  0  2  0  0  0
  -24.8443  -28.9518   20.1305 C   0  0  0  0  0  0
  -22.7382  -29.4631   22.5028 C   0  0  0  0  0  0
  -18.0220  -28.1352   22.8496 C   0  0  0  0  0  0
  -24.1489  -36.7307   23.2647 C   0  0  0  0  0  0
  -25.9302  -30.8250   21.3789 C   0  0  0  0  0  0
  -26.0056  -29.4591   20.7283 C   0  0  0  0  0  0
  -27.2057  -28.7092   20.7074 C   0  0  0  0  0  0
  -26.0533  -26.9402   19.4946 C   0  0  0  0  0  0
  -24.8591  -27.6863   19.5188 C   0  0  0  0  0  0
  -23.6089  -29.8244   20.1739 C   0  0  0  0  0  0
  -25.4118  -36.3118   24.0338 C   0  0  1  0  0  0
  -20.5820  -28.3633   23.1345 C   0  0  2  0  0  0
  -20.6721  -26.9372   22.5442 C   0  0  0  0  0  0
  -19.5718  -26.6363   21.5223 C   0  0  0  0  0  0
  -18.1878  -26.7906   22.1612 C   0  0  0  0  0  0
  -19.1477  -28.8810   23.2909 C   0  0  0  0  0  0
  -18.9419  -30.1417   23.8912 C   0  0  0  0  0  0
  -17.6431  -30.6576   24.0546 C   0  0  0  0  0  0
  -25.9035  -34.9478   23.5124 C   0  0  0  0  0  0
  -16.5312  -29.9068   23.6335 C   0  0  0  0  0  0
  -16.7214  -28.6479   23.0362 C   0  0  0  0  0  0
  -26.4473  -31.6613   25.0744 C   0  0  0  0  0  0
  -25.3788  -31.3724   26.1535 C   0  0  0  0  0  0
  -27.0332  -30.3048   24.6189 C   0  0  0  0  0  0
  -27.6053  -32.4369   25.7449 C   0  0  0  0  0  0
  -27.5592  -37.1808   24.8461 C   0  0  0  0  0  0
  -21.4117  -29.3002   22.3768 N   0  0  0  0  0  0
  -26.4302  -37.3805   23.9408 N   0  0  0  0  0  0
  -24.6635  -31.0764   22.1070 N   0  0  0  0  0  0
  -23.4148  -28.8161   23.3056 O   0  0  0  0  0  0
  -28.3983  -26.7419   19.8754 O   0  0  0  0  0  0
  -26.5587  -34.8924   22.4675 O   0  0  0  0  0  0
  -23.5316  -32.1428   23.7572 O   0  0  0  0  0  0
  -31.5432  -17.3069   21.8162 C   0  0  0  0  0  0
  -30.3648  -16.7837   21.3433 C   0  0  0  0  0  0
  -29.9050  -19.0144   21.0729 C   0  0  0  0  0  0
  -29.2965  -23.1543   18.2721 C   0  0  0  0  0  0
  -28.5773  -23.5173   16.9775 C   0  0  0  0  0  0
  -29.5346  -21.8650   22.5661 C   0  0  0  0  0  0
  -29.9154  -26.8391   21.7141 C   0  0  0  0  0  0
  -29.0924  -20.1928   20.5870 C   0  0  0  0  0  0
  -29.6737  -24.7566   20.2678 C   0  0  0  0  0  0
  -28.7373  -23.7036   19.6059 C   0  0  2  0  0  0
  -29.4110  -21.6503   21.0423 C   0  0  1  0  0  0
  -28.9385  -25.9517   20.9303 C   0  0  2  0  0  0
  -29.4325  -17.7611   20.9779 N   0  0  0  0  0  0
  -30.0546  -15.4004   21.2976 N   0  0  0  0  0  0
  -28.3579  -22.5522   20.4813 N   0  3  0  0  0  0
  -30.2847  -22.4202   18.2072 O   0  0  0  0  0  0
  -31.5663  -19.0518   21.6789 S   0  0  0  0  0  0
  -31.4690  -12.4035   19.1137 H   0  0  0  0  0  0
  -30.3225  -11.2893   19.7979 H   0  0  0  0  0  0
  -29.7345  -11.8039   17.4134 H   0  0  0  0  0  0
  -29.6478  -13.5094   17.7796 H   0  0  0  0  0  0
  -27.8460  -11.2984   18.8375 H   0  0  0  0  0  0
  -27.3500  -12.6058   17.7967 H   0  0  0  0  0  0
  -27.7166  -14.2475   19.5821 H   0  0  0  0  0  0
  -28.6863  -11.9298   21.3358 H   0  0  0  0  0  0
  -28.4609  -13.5578   21.8857 H   0  0  0  0  0  0
  -25.2707   -9.5738   22.4706 H   0  0  0  0  0  0
  -24.0024   -7.4609   22.7392 H   0  0  0  0  0  0
  -21.0804   -8.8677   19.8921 H   0  0  0  0  0  0
  -22.3561  -10.9622   19.6128 H   0  0  0  0  0  0
  -21.1976   -7.6107   23.9735 H   0  0  0  0  0  0
  -21.1520   -6.0461   25.9098 H   0  0  0  0  0  0
  -22.0587   -2.7566   23.2831 H   0  0  0  0  0  0
  -22.4080  -11.9910   22.4859 H   0  0  0  0  0  0
  -21.1088  -13.1296   22.2617 H   0  0  0  0  0  0
  -24.6601  -15.8332   20.4975 H   0  0  0  0  0  0
  -26.2841  -15.6179   20.0608 H   0  0  0  0  0  0
  -26.7064  -32.5528   23.1174 H   0  0  0  0  0  0
  -25.0093  -33.9808   25.0506 H   0  0  0  0  0  0
  -22.6863  -31.3062   21.4200 H   0  0  0  0  0  0
  -23.3774  -35.9624   23.3334 H   0  0  0  0  0  0
  -24.3571  -36.8890   22.2054 H   0  0  0  0  0  0
  -23.7213  -37.6508   23.6642 H   0  0  0  0  0  0
  -26.0608  -31.5947   20.6180 H   0  0  0  0  0  0
  -26.8100  -30.8629   22.0091 H   0  0  0  0  0  0
  -28.1133  -29.1170   21.1323 H   0  0  0  0  0  0
  -26.0625  -25.9892   18.9863 H   0  0  0  0  0  0
  -23.9664  -27.2937   19.0485 H   0  0  0  0  0  0
  -23.7241  -30.5968   19.4122 H   0  0  0  0  0  0
  -22.7330  -29.2454   19.8754 H   0  0  0  0  0  0
  -25.1300  -36.1997   25.0836 H   0  0  0  0  0  0
  -20.9884  -28.3191   24.1478 H   0  0  0  0  0  0
  -20.5621  -26.2237   23.3623 H   0  0  0  0  0  0
  -21.6598  -26.7414   22.1247 H   0  0  0  0  0  0
  -19.6881  -25.6280   21.1236 H   0  0  0  0  0  0
  -19.6673  -27.3190   20.6764 H   0  0  0  0  0  0
  -17.4174  -26.6676   21.3978 H   0  0  0  0  0  0
  -18.0241  -26.0011   22.8970 H   0  0  0  0  0  0
  -19.7892  -30.7197   24.2326 H   0  0  0  0  0  0
  -17.4983  -31.6266   24.5115 H   0  0  0  0  0  0
  -15.5310  -30.2969   23.7664 H   0  0  0  0  0  0
  -15.8611  -28.0793   22.7104 H   0  0  0  0  0  0
  -24.5868  -30.7170   25.7881 H   0  0  0  0  0  0
  -24.9094  -32.2892   26.5115 H   0  0  0  0  0  0
  -25.8169  -30.8773   27.0215 H   0  0  0  0  0  0
  -26.2878  -29.6748   24.1316 H   0  0  0  0  0  0
  -27.4133  -29.7347   25.4682 H   0  0  0  0  0  0
  -27.8703  -30.4327   23.9319 H   0  0  0  0  0  0
  -27.2659  -33.3650   26.2069 H   0  0  0  0  0  0
  -28.3783  -32.7001   25.0212 H   0  0  0  0  0  0
  -28.0836  -31.8509   26.5310 H   0  0  0  0  0  0
  -28.2635  -38.0087   24.7511 H   0  0  0  0  0  0
  -28.1055  -36.2615   24.6291 H   0  0  0  0  0  0
  -27.2309  -37.1466   25.8863 H   0  0  0  0  0  0
  -20.9283  -29.8725   21.7003 H   0  0  0  0  0  0
  -26.0202  -38.2887   24.1431 H   0  0  0  0  0  0
  -32.4003  -16.7796   22.2161 H   0  0  0  0  0  0
  -27.6158  -23.9949   17.1666 H   0  0  0  0  0  0
  -28.4030  -22.6188   16.3830 H   0  0  0  0  0  0
  -29.1947  -24.1935   16.3856 H   0  0  0  0  0  0
  -30.2784  -21.2131   23.0172 H   0  0  0  0  0  0
  -28.5953  -21.7029   23.0962 H   0  0  0  0  0  0
  -29.8624  -22.8811   22.7846 H   0  0  0  0  0  0
  -30.6010  -26.2449   22.3170 H   0  0  0  0  0  0
  -29.3825  -27.5053   22.3893 H   0  0  0  0  0  0
  -30.5106  -27.4519   21.0360 H   0  0  0  0  0  0
  -28.0542  -19.9757   20.8326 H   0  0  0  0  0  0
  -29.1453  -20.1645   19.4985 H   0  0  0  0  0  0
  -30.3554  -25.1611   19.5193 H   0  0  0  0  0  0
  -30.3198  -24.2720   20.9954 H   0  0  0  0  0  0
  -27.8044  -24.2133   19.3652 H   0  0  0  0  0  0
  -30.3868  -21.9159   20.6326 H   0  0  0  0  0  0
  -28.1560  -25.5775   21.5937 H   0  0  0  0  0  0
  -29.1114  -15.1515   21.5508 H   0  0  0  0  0  0
  -27.7709  -21.9704   19.8986 H   0  0  0  0  0  0
  -27.7672  -22.8799   21.2297 H   0  0  0  0  0  0
  1 25  1  0  0  0
  1 30  2  0  0  0
  1 84  1  0  0  0
  2  3  1  0  0  0
  2 25  1  0  0  0
  2 88  1  0  0  0
  2 89  1  0  0  0
  3  4  1  0  0  0
  3 90  1  0  0  0
  3 91  1  0  0  0
  4  5  1  0  0  0
  4 92  1  0  0  0
  4 93  1  0  0  0
  5  6  1  0  0  0
  5 26  1  0  0  0
  5 94  1  0  0  0
  6 25  1  0  0  0
  6 95  1  0  0  0
  6 96  1  0  0  0
  7  8  2  0  0  0
  7 26  1  0  0  0
  7 29  1  0  0  0
  8  9  1  0  0  0
  8 22  1  0  0  0
  9 10  1  0  0  0
  9 27  2  0  0  0
 10 11  2  0  0  0
 10 15  1  0  0  0
 11 12  1  0  0  0
 11 97  1  0  0  0
 12 13  2  0  0  0
 12 98  1  0  0  0
 13 14  1  0  0  0
 13 31  1  0  0  0
 14 15  2  0  0  0
 14 99  1  0  0  0
 15100  1  0  0  0
 16 17  2  0  0  0
 16 21  1  0  0  0
 16 31  1  0  0  0
 17 18  1  0  0  0
 17101  1  0  0  0
 18 19  2  0  0  0
 18102  1  0  0  0
 19 20  1  0  0  0
 19 24  1  0  0  0
 20 21  2  0  0  0
 20103  1  0  0  0
 21 23  1  0  0  0
 22 28  1  0  0  0
 22 32  2  0  0  0
 26 27  1  0  0  0
 28104  1  0  0  0
 28105  1  0  0  0
 29106  1  0  0  0
 29107  1  0  0  0
 33 34  1  0  0  0
 33 66  1  0  0  0
 33 70  2  0  0  0
 34 36  1  0  0  0
 34 59  1  0  0  0
 34108  1  0  0  0
 35 44  2  0  0  0
 35 45  1  0  0  0
 35 68  1  0  0  0
 36 56  1  0  0  0
 36109  1  0  0  0
 37 39  1  0  0  0
 37 47  1  0  0  0
 37 66  1  0  0  0
 37110  1  0  0  0
 38 43  2  0  0  0
 38 46  1  0  0  0
 38 47  1  0  0  0
 39 64  1  0  0  0
 39 67  2  0  0  0
 40 52  1  0  0  0
 40 53  2  0  0  0
 40 58  1  0  0  0
 41111  1  0  0  0
 41112  1  0  0  0
 41113  1  0  0  0
 41 48  1  0  0  0
 42 43  1  0  0  0
 42 66  1  0  0  0
 42114  1  0  0  0
 42115  1  0  0  0
 43 44  1  0  0  0
 44116  1  0  0  0
 45 46  2  0  0  0
 45117  1  0  0  0
 46118  1  0  0  0
 47119  1  0  0  0
 47120  1  0  0  0
 48 56  1  0  0  0
 48 65  1  0  0  0
 48121  1  0  0  0
 49 50  1  0  0  0
 49 53  1  0  0  0
 49 64  1  0  0  0
 49122  1  0  0  0
 50 51  1  0  0  0
 50123  1  0  0  0
 50124  1  0  0  0
 51 52  1  0  0  0
 51125  1  0  0  0
 51126  1  0  0  0
 52127  1  0  0  0
 52128  1  0  0  0
 53 54  1  0  0  0
 54 55  2  0  0  0
 54129  1  0  0  0
 55 57  1  0  0  0
 55130  1  0  0  0
 56 69  2  0  0  0
 57 58  2  0  0  0
 57131  1  0  0  0
 58132  1  0  0  0
 59 60  1  0  0  0
 59 61  1  0  0  0
 59 62  1  0  0  0
 60133  1  0  0  0
 60134  1  0  0  0
 60135  1  0  0  0
 61136  1  0  0  0
 61137  1  0  0  0
 61138  1  0  0  0
 62139  1  0  0  0
 62140  1  0  0  0
 62141  1  0  0  0
 63 65  1  0  0  0
 63142  1  0  0  0
 63143  1  0  0  0
 63144  1  0  0  0
 64145  1  0  0  0
 65146  1  0  0  0
 68 82  1  0  0  0
 71 72  2  0  0  0
 71 87  1  0  0  0
 71147  1  0  0  0
 72 83  1  0  0  0
 72 84  1  0  0  0
 73 78  1  0  0  0
 73 83  2  0  0  0
 73 87  1  0  0  0
 74 75  1  0  0  0
 74 80  1  0  0  0
 74 86  2  0  0  0
 75148  1  0  0  0
 75149  1  0  0  0
 75150  1  0  0  0
 76151  1  0  0  0
 76152  1  0  0  0
 76153  1  0  0  0
 76 81  1  0  0  0
 77154  1  0  0  0
 77155  1  0  0  0
 77156  1  0  0  0
 77 82  1  0  0  0
 78 81  1  0  0  0
 78157  1  0  0  0
 78158  1  0  0  0
 79 82  1  0  0  0
 79159  1  0  0  0
 79160  1  0  0  0
 79 80  1  0  0  0
 80 85  1  0  0  0
 80161  1  0  0  0
 81 85  1  0  0  0
 81162  1  0  0  0
 82163  1  0  0  0
 84164  1  0  0  0
 85165  1  0  0  0
 85166  1  0  0  0
M  CHG  1  85   1
M  ISO  4   1 100  68 101  82 101  84 100
M  END
> <chiral flag>
0

> <version>
0

> <s_m_source_file>
/data/baiqing/PycharmProjects/Reinvent-master-3.2/result/LINK_invent/BTK/process_docking_weight1_custom_product_contain_oxygen_bond_distance_aromatic_linkinvent_7_9_3/rearranged_h_0195.sdf

> <i_m_source_file_index>
10

> <r_mmod_Potential_Energy-OPLS-2005>
-318.675598144531

> <r_mmod_Stretch_Energy-OPLS-2005>
36.9131088256836

> <r_mmod_Bend_Energy-OPLS-2005>
123.972015380859

> <r_mmod_Torsional_Energy-OPLS-2005>
273.250030517578

> <r_mmod_Improper_Torsional_Energy-OPLS-2005>
4.51254177093506

> <r_mmod_Van_der_Waal_Energy-OPLS-2005>
117.340797424316

> <r_mmod_Electrostatic_Energy-OPLS-2005>
-406.956268310547

> <r_mmod_Solvation_Energy-OPLS-2005>
-479.719573974609

> <b_mmod_Minimization_Converged-OPLS-2005>
0

> <r_mmod_RMS_Derivative-OPLS-2005>
5.05771255493164

$$$$
10
                    3D
 Structure written by MMmdl.
164172  0  0  1  0            999 V2000
  -30.5894  -14.7723   20.4469 C   0  0  0  0  0  0
  -30.4469  -12.4622   19.4879 C   0  0  0  0  0  0
  -29.5195  -12.5001   18.2489 C   0  0  0  0  0  0
  -28.0480  -12.3150   18.6676 C   0  0  0  0  0  0
  -27.6503  -13.2244   19.8594 C   0  0  2  0  0  0
  -28.6963  -13.1459   20.9956 C   0  0  0  0  0  0
  -25.2587  -13.8212   20.5686 C   0  0  0  0  0  0
  -24.1851  -13.0480   20.9206 C   0  0  0  0  0  0
  -24.6419  -11.6945   20.8763 C   0  0  0  0  0  0
  -23.9100  -10.4302   21.0429 C   0  0  0  0  0  0
  -24.3623   -9.4223   21.9229 C   0  0  0  0  0  0
  -23.6291   -8.2255   22.0777 C   0  0  0  0  0  0
  -22.4271   -8.0295   21.3571 C   0  0  0  0  0  0
  -21.9929   -9.0282   20.4679 C   0  0  0  0  0  0
  -22.7254  -10.2168   20.3105 C   0  0  0  0  0  0
  -21.6860   -6.0749   22.5289 C   0  0  0  0  0  0
  -21.4001   -6.5649   23.8217 C   0  0  0  0  0  0
  -21.3658   -5.6806   24.9182 C   0  0  0  0  0  0
  -21.6049   -4.3068   24.7233 C   0  0  0  0  0  0
  -21.8816   -3.8155   23.4350 C   0  0  0  0  0  0
  -21.9187   -4.6977   22.3404 C   0  0  0  0  0  0
  -22.7867  -13.5288   21.1826 C   0  0  0  0  0  0
  -22.1657   -4.2167   21.0985 F   0  0  0  0  0  0
  -21.5640   -3.4540   25.7743 F   0  0  0  0  0  0
  -29.9990  -13.5215   20.4308 N   0  0  0  0  0  0
  -26.2990  -12.9368   20.3314 N   0  0  0  0  0  0
  -25.9341  -11.6536   20.5785 N   0  0  0  0  0  0
  -22.0461  -12.8311   22.0387 N   0  0  0  0  0  0
  -25.4415  -15.1904   20.4091 N   0  0  0  0  0  0
  -31.7513  -14.8850   20.0367 O   0  0  0  0  0  0
  -21.6638   -6.8892   21.4251 O   0  0  0  0  0  0
  -22.3577  -14.5605   20.6682 O   0  0  0  0  0  0
  -24.6368  -31.8558   23.1924 C   0  0  0  0  0  0
  -25.9172  -32.4750   23.8334 C   0  0  1  0  0  0
  -27.2057  -27.2024   20.1448 C   0  0  0  0  0  0
  -25.5960  -33.8560   24.2275 N   0  0  0  0  0  0
  -23.4362  -30.4836   21.5351 C   0  0  2  0  0  0
  -24.8810  -28.9218   20.1143 C   0  0  0  0  0  0
  -22.7534  -29.4707   22.4836 C   0  0  0  0  0  0
  -18.0343  -28.1372   22.8455 C   0  0  0  0  0  0
  -24.1497  -36.7271   23.2646 C   0  0  0  0  0  0
  -25.9889  -30.7500   21.3843 C   0  0  0  0  0  0
  -26.0577  -29.3679   20.7292 C   0  0  0  0  0  0
  -27.2233  -28.5235   20.7279 C   0  0  0  0  0  0
  -26.0030  -26.8458   19.4818 C   0  0  0  0  0  0
  -24.8653  -27.6739   19.4796 C   0  0  0  0  0  0
  -23.6546  -29.8140   20.1543 C   0  0  0  0  0  0
  -25.4114  -36.3076   24.0354 C   0  0  1  0  0  0
  -20.5951  -28.3808   23.1161 C   0  0  2  0  0  0
  -20.6889  -26.9525   22.5308 C   0  0  0  0  0  0
  -19.5837  -26.6394   21.5148 C   0  0  0  0  0  0
  -18.2012  -26.7939   22.1555 C   0  0  0  0  0  0
  -19.1580  -28.8899   23.2830 C   0  0  0  0  0  0
  -18.9473  -30.1512   23.8820 C   0  0  0  0  0  0
  -17.6462  -30.6555   24.0532 C   0  0  0  0  0  0
  -25.9060  -34.9450   23.5125 C   0  0  0  0  0  0
  -16.5377  -29.9068   23.6274 C   0  0  0  0  0  0
  -16.7324  -28.6466   23.0343 C   0  0  0  0  0  0
  -26.4510  -31.6571   25.0748 C   0  0  0  0  0  0
  -25.3695  -31.3740   26.1444 C   0  0  0  0  0  0
  -27.0362  -30.2966   24.6307 C   0  0  0  0  0  0
  -27.6075  -32.4323   25.7504 C   0  0  0  0  0  0
  -27.5581  -37.1793   24.8466 C   0  0  0  0  0  0
  -21.4225  -29.3195   22.3567 N   0  0  0  0  0  0
  -26.4295  -37.3773   23.9400 N   0  0  0  0  0  0
  -24.7072  -31.0505   22.0926 N   0  0  0  0  0  0
  -23.4185  -28.8249   23.2987 O   0  0  0  0  0  0
  -28.2709  -26.2538   20.2128 O   0  0  0  0  0  0
  -26.5632  -34.8901   22.4689 O   0  0  0  0  0  0
  -23.5523  -32.1432   23.7157 O   0  0  0  0  0  0
  -29.4732  -17.1050   20.2157 C   0  0  0  0  0  0
  -27.9634  -18.0203   18.8497 C   0  0  0  0  0  0
  -29.1047  -19.4078   20.1472 C   0  0  0  0  0  0
  -24.6679  -17.4668   17.2948 C   0  0  0  0  0  0
  -25.8268  -19.6381   16.7467 C   0  0  0  0  0  0
  -27.7838  -21.8809   22.0055 C   0  0  0  0  0  0
  -27.9326  -24.7629   20.2812 C   0  0  0  0  0  0
  -25.7481  -18.4675   17.7409 C   0  0  0  0  0  0
  -28.4404  -21.9620   20.6153 C   0  0  1  0  0  0
  -28.9880  -23.4926   20.3445 C   0  0  1  0  0  0
  -28.5554  -16.9181   19.2751 N   0  0  0  0  0  0
  -29.7946  -18.3576   20.6956 N   0  0  0  0  0  0
  -28.1483  -19.2733   19.2419 N   0  0  0  0  0  0
  -29.8505  -15.8762   20.8650 N   0  0  0  0  0  0
  -27.0293  -17.7788   17.8669 N   0  0  0  0  0  0
  -29.3979  -20.7741   20.5041 N   0  0  0  0  0  0
  -29.6086  -23.3875   19.0723 O   0  0  0  0  0  0
  -31.4866  -12.5909   19.1827 H   0  0  0  0  0  0
  -30.4073  -11.4838   19.9697 H   0  0  0  0  0  0
  -29.8079  -11.7189   17.5419 H   0  0  0  0  0  0
  -29.6402  -13.4510   17.7282 H   0  0  0  0  0  0
  -27.9206  -11.2696   18.9506 H   0  0  0  0  0  0
  -27.3856  -12.4819   17.8188 H   0  0  0  0  0  0
  -27.6553  -14.2438   19.4775 H   0  0  0  0  0  0
  -28.7377  -12.1346   21.4018 H   0  0  0  0  0  0
  -28.4242  -13.7931   21.8308 H   0  0  0  0  0  0
  -25.2771   -9.5696   22.4810 H   0  0  0  0  0  0
  -24.0004   -7.4660   22.7510 H   0  0  0  0  0  0
  -21.0845   -8.8828   19.8989 H   0  0  0  0  0  0
  -22.3726  -10.9722   19.6213 H   0  0  0  0  0  0
  -21.1981   -7.6152   23.9738 H   0  0  0  0  0  0
  -21.1481   -6.0523   25.9101 H   0  0  0  0  0  0
  -22.0589   -2.7610   23.2849 H   0  0  0  0  0  0
  -22.3983  -11.9915   22.4751 H   0  0  0  0  0  0
  -21.1134  -13.1474   22.2630 H   0  0  0  0  0  0
  -24.6798  -15.8519   20.5038 H   0  0  0  0  0  0
  -26.2975  -15.6032   20.0613 H   0  0  0  0  0  0
  -26.7250  -32.5382   23.1082 H   0  0  0  0  0  0
  -25.0094  -33.9701   25.0417 H   0  0  0  0  0  0
  -22.7430  -31.3141   21.3858 H   0  0  0  0  0  0
  -23.3779  -35.9581   23.3298 H   0  0  0  0  0  0
  -24.3600  -36.8880   22.2060 H   0  0  0  0  0  0
  -23.7219  -37.6474   23.6647 H   0  0  0  0  0  0
  -26.1452  -31.5119   20.6182 H   0  0  0  0  0  0
  -26.8562  -30.7952   22.0304 H   0  0  0  0  0  0
  -28.1194  -28.8612   21.2283 H   0  0  0  0  0  0
  -25.8907  -25.9053   18.9622 H   0  0  0  0  0  0
  -23.9612  -27.3326   18.9893 H   0  0  0  0  0  0
  -23.7704  -30.5866   19.3912 H   0  0  0  0  0  0
  -22.7679  -29.2462   19.8601 H   0  0  0  0  0  0
  -25.1284  -36.1965   25.0856 H   0  0  0  0  0  0
  -21.0053  -28.3431   24.1267 H   0  0  0  0  0  0
  -20.5927  -26.2442   23.3548 H   0  0  0  0  0  0
  -21.6747  -26.7653   22.1013 H   0  0  0  0  0  0
  -19.7050  -25.6300   21.1223 H   0  0  0  0  0  0
  -19.6692  -27.3159   20.6627 H   0  0  0  0  0  0
  -17.4316  -26.6696   21.3899 H   0  0  0  0  0  0
  -18.0402  -26.0028   22.8915 H   0  0  0  0  0  0
  -19.7930  -30.7301   24.2233 H   0  0  0  0  0  0
  -17.4992  -31.6255   24.5084 H   0  0  0  0  0  0
  -15.5340  -30.2946   23.7509 H   0  0  0  0  0  0
  -15.8746  -28.0703   22.7076 H   0  0  0  0  0  0
  -24.5892  -30.7085   25.7737 H   0  0  0  0  0  0
  -24.8861  -32.2911   26.4830 H   0  0  0  0  0  0
  -25.7973  -30.8937   27.0251 H   0  0  0  0  0  0
  -26.2971  -29.6712   24.1298 H   0  0  0  0  0  0
  -27.3953  -29.7265   25.4888 H   0  0  0  0  0  0
  -27.8897  -30.4200   23.9628 H   0  0  0  0  0  0
  -27.2704  -33.3643   26.2053 H   0  0  0  0  0  0
  -28.3871  -32.6856   25.0301 H   0  0  0  0  0  0
  -28.0770  -31.8473   26.5427 H   0  0  0  0  0  0
  -28.2619  -38.0079   24.7512 H   0  0  0  0  0  0
  -28.1062  -36.2617   24.6289 H   0  0  0  0  0  0
  -27.2301  -37.1429   25.8874 H   0  0  0  0  0  0
  -20.9460  -29.8981   21.6787 H   0  0  0  0  0  0
  -26.0201  -38.2871   24.1359 H   0  0  0  0  0  0
  -23.6962  -17.9496   17.1894 H   0  0  0  0  0  0
  -24.5433  -16.6594   18.0183 H   0  0  0  0  0  0
  -24.9114  -17.0100   16.3316 H   0  0  0  0  0  0
  -24.8600  -20.1345   16.6490 H   0  0  0  0  0  0
  -26.1264  -19.3001   15.7516 H   0  0  0  0  0  0
  -26.5453  -20.3903   17.0724 H   0  0  0  0  0  0
  -26.9441  -22.5676   22.1042 H   0  0  0  0  0  0
  -28.4983  -22.1099   22.7988 H   0  0  0  0  0  0
  -27.3918  -20.8839   22.2077 H   0  0  0  0  0  0
  -27.2535  -24.5040   19.4720 H   0  0  0  0  0  0
  -27.3226  -24.6913   21.1845 H   0  0  0  0  0  0
  -25.4619  -18.8614   18.7167 H   0  0  0  0  0  0
  -27.6445  -21.7750   19.8902 H   0  0  0  0  0  0
  -29.7622  -23.7181   21.0786 H   0  0  0  0  0  0
  -29.0923  -15.5533   21.4427 H   0  0  0  0  0  0
  -27.0132  -16.8065   17.5887 H   0  0  0  0  0  0
  -30.2609  -20.8916   21.0176 H   0  0  0  0  0  0
  -28.9769  -22.9933   18.4783 H   0  0  0  0  0  0
  1 25  1  0  0  0
  1 30  2  0  0  0
  1 84  1  0  0  0
  2  3  1  0  0  0
  2 25  1  0  0  0
  2 88  1  0  0  0
  2 89  1  0  0  0
  3  4  1  0  0  0
  3 90  1  0  0  0
  3 91  1  0  0  0
  4  5  1  0  0  0
  4 92  1  0  0  0
  4 93  1  0  0  0
  5  6  1  0  0  0
  5 26  1  0  0  0
  5 94  1  0  0  0
  6 25  1  0  0  0
  6 95  1  0  0  0
  6 96  1  0  0  0
  7  8  2  0  0  0
  7 26  1  0  0  0
  7 29  1  0  0  0
  8  9  1  0  0  0
  8 22  1  0  0  0
  9 10  1  0  0  0
  9 27  2  0  0  0
 10 11  2  0  0  0
 10 15  1  0  0  0
 11 12  1  0  0  0
 11 97  1  0  0  0
 12 13  2  0  0  0
 12 98  1  0  0  0
 13 14  1  0  0  0
 13 31  1  0  0  0
 14 15  2  0  0  0
 14 99  1  0  0  0
 15100  1  0  0  0
 16 17  2  0  0  0
 16 21  1  0  0  0
 16 31  1  0  0  0
 17 18  1  0  0  0
 17101  1  0  0  0
 18 19  2  0  0  0
 18102  1  0  0  0
 19 20  1  0  0  0
 19 24  1  0  0  0
 20 21  2  0  0  0
 20103  1  0  0  0
 21 23  1  0  0  0
 22 28  1  0  0  0
 22 32  2  0  0  0
 26 27  1  0  0  0
 28104  1  0  0  0
 28105  1  0  0  0
 29106  1  0  0  0
 29107  1  0  0  0
 33 34  1  0  0  0
 33 66  1  0  0  0
 33 70  2  0  0  0
 34 36  1  0  0  0
 34 59  1  0  0  0
 34108  1  0  0  0
 35 44  2  0  0  0
 35 45  1  0  0  0
 35 68  1  0  0  0
 36 56  1  0  0  0
 36109  1  0  0  0
 37 39  1  0  0  0
 37 47  1  0  0  0
 37 66  1  0  0  0
 37110  1  0  0  0
 38 43  2  0  0  0
 38 46  1  0  0  0
 38 47  1  0  0  0
 39 64  1  0  0  0
 39 67  2  0  0  0
 40 52  1  0  0  0
 40 53  2  0  0  0
 40 58  1  0  0  0
 41111  1  0  0  0
 41112  1  0  0  0
 41113  1  0  0  0
 41 48  1  0  0  0
 42 43  1  0  0  0
 42 66  1  0  0  0
 42114  1  0  0  0
 42115  1  0  0  0
 43 44  1  0  0  0
 44116  1  0  0  0
 45 46  2  0  0  0
 45117  1  0  0  0
 46118  1  0  0  0
 47119  1  0  0  0
 47120  1  0  0  0
 48 56  1  0  0  0
 48 65  1  0  0  0
 48121  1  0  0  0
 49 50  1  0  0  0
 49 53  1  0  0  0
 49 64  1  0  0  0
 49122  1  0  0  0
 50 51  1  0  0  0
 50123  1  0  0  0
 50124  1  0  0  0
 51 52  1  0  0  0
 51125  1  0  0  0
 51126  1  0  0  0
 52127  1  0  0  0
 52128  1  0  0  0
 53 54  1  0  0  0
 54 55  2  0  0  0
 54129  1  0  0  0
 55 57  1  0  0  0
 55130  1  0  0  0
 56 69  2  0  0  0
 57 58  2  0  0  0
 57131  1  0  0  0
 58132  1  0  0  0
 59 60  1  0  0  0
 59 61  1  0  0  0
 59 62  1  0  0  0
 60133  1  0  0  0
 60134  1  0  0  0
 60135  1  0  0  0
 61136  1  0  0  0
 61137  1  0  0  0
 61138  1  0  0  0
 62139  1  0  0  0
 62140  1  0  0  0
 62141  1  0  0  0
 63 65  1  0  0  0
 63142  1  0  0  0
 63143  1  0  0  0
 63144  1  0  0  0
 64145  1  0  0  0
 65146  1  0  0  0
 68 77  1  0  0  0
 71 81  1  0  0  0
 71 82  2  0  0  0
 71 84  1  0  0  0
 72 81  2  0  0  0
 72 83  1  0  0  0
 72 85  1  0  0  0
 73 82  1  0  0  0
 73 83  2  0  0  0
 73 86  1  0  0  0
 74147  1  0  0  0
 74148  1  0  0  0
 74149  1  0  0  0
 74 78  1  0  0  0
 75 78  1  0  0  0
 75150  1  0  0  0
 75151  1  0  0  0
 75152  1  0  0  0
 76153  1  0  0  0
 76154  1  0  0  0
 76155  1  0  0  0
 76 79  1  0  0  0
 77 80  1  0  0  0
 77156  1  0  0  0
 77157  1  0  0  0
 78 85  1  0  0  0
 78158  1  0  0  0
 79 80  1  0  0  0
 79 86  1  0  0  0
 79159  1  0  0  0
 80 87  1  0  0  0
 80160  1  0  0  0
 84161  1  0  0  0
 85162  1  0  0  0
 86163  1  0  0  0
 87164  1  0  0  0
M  ISO  4   1 100  68 101  77 101  84 100
M  END
> <chiral flag>
0

> <version>
0

> <s_m_source_file>
/data/baiqing/PycharmProjects/Reinvent-master-3.2/result/LINK_invent/BTK/process_docking_weight1_custom_product_contain_oxygen_bond_distance_aromatic_linkinvent_7_9_3/rearranged_h_0195.sdf

> <i_m_source_file_index>
11

> <r_mmod_Potential_Energy-OPLS-2005>
-567.964233398438

> <r_mmod_Stretch_Energy-OPLS-2005>
150.730407714844

> <r_mmod_Bend_Energy-OPLS-2005>
203.166641235352

> <r_mmod_Torsional_Energy-OPLS-2005>
283.589599609375

> <r_mmod_Improper_Torsional_Energy-OPLS-2005>
10.9937734603882

> <r_mmod_Van_der_Waal_Energy-OPLS-2005>
143.94580078125

> <r_mmod_Electrostatic_Energy-OPLS-2005>
-1214.59106445312

> <r_mmod_Solvation_Energy-OPLS-2005>
-256.435028076172

> <b_mmod_Minimization_Converged-OPLS-2005>
0

> <r_mmod_RMS_Derivative-OPLS-2005>
5.74780511856079

$$$$
11
                    3D
 Structure written by MMmdl.
168176  0  0  1  0            999 V2000
  -30.6735  -14.4871   20.5637 C   0  0  0  0  0  0
  -30.4298  -12.3136   19.4213 C   0  0  0  0  0  0
  -29.5002  -12.5121   18.2053 C   0  0  0  0  0  0
  -28.0196  -12.3694   18.6135 C   0  0  0  0  0  0
  -27.6617  -13.2025   19.8742 C   0  0  2  0  0  0
  -28.7012  -12.9742   20.9947 C   0  0  0  0  0  0
  -25.2587  -13.8131   20.5643 C   0  0  0  0  0  0
  -24.1839  -13.0418   20.9165 C   0  0  0  0  0  0
  -24.6394  -11.6887   20.8726 C   0  0  0  0  0  0
  -23.9055  -10.4282   21.0402 C   0  0  0  0  0  0
  -24.3609   -9.4211   21.9188 C   0  0  0  0  0  0
  -23.6286   -8.2245   22.0762 C   0  0  0  0  0  0
  -22.4279   -8.0272   21.3544 C   0  0  0  0  0  0
  -21.9917   -9.0234   20.4629 C   0  0  0  0  0  0
  -22.7242  -10.2115   20.3038 C   0  0  0  0  0  0
  -21.6847   -6.0734   22.5282 C   0  0  0  0  0  0
  -21.4000   -6.5641   23.8212 C   0  0  0  0  0  0
  -21.3653   -5.6788   24.9171 C   0  0  0  0  0  0
  -21.6052   -4.3053   24.7218 C   0  0  0  0  0  0
  -21.8821   -3.8151   23.4336 C   0  0  0  0  0  0
  -21.9194   -4.6965   22.3400 C   0  0  0  0  0  0
  -22.7862  -13.5222   21.1837 C   0  0  0  0  0  0
  -22.1665   -4.2155   21.0970 F   0  0  0  0  0  0
  -21.5633   -3.4534   25.7731 F   0  0  0  0  0  0
  -30.0326  -13.2914   20.4473 N   0  0  0  0  0  0
  -26.3024  -12.9299   20.3334 N   0  0  0  0  0  0
  -25.9313  -11.6469   20.5734 N   0  0  0  0  0  0
  -22.0483  -12.8185   22.0359 N   0  0  0  0  0  0
  -25.4312  -15.1844   20.4005 N   0  0  0  0  0  0
  -31.8137  -14.6664   20.1222 O   0  0  0  0  0  0
  -21.6642   -6.8876   21.4245 O   0  0  0  0  0  0
  -22.3573  -14.5563   20.6730 O   0  0  0  0  0  0
  -24.6145  -31.8670   23.2090 C   0  0  0  0  0  0
  -25.9012  -32.4844   23.8405 C   0  0  1  0  0  0
  -27.2359  -27.4428   20.0950 C   0  0  0  0  0  0
  -25.5852  -33.8634   24.2334 N   0  0  0  0  0  0
  -23.4025  -30.4894   21.5488 C   0  0  2  0  0  0
  -24.8528  -28.9561   20.1143 C   0  0  0  0  0  0
  -22.7418  -29.4650   22.4991 C   0  0  0  0  0  0
  -18.0259  -28.1391   22.8502 C   0  0  0  0  0  0
  -24.1462  -36.7289   23.2642 C   0  0  0  0  0  0
  -25.9295  -30.8406   21.3541 C   0  0  0  0  0  0
  -26.0119  -29.4717   20.7104 C   0  0  0  0  0  0
  -27.2099  -28.7200   20.7018 C   0  0  0  0  0  0
  -26.0661  -26.9415   19.4920 C   0  0  0  0  0  0
  -24.8744  -27.6898   19.5037 C   0  0  0  0  0  0
  -23.6108  -29.8196   20.1643 C   0  0  0  0  0  0
  -25.4083  -36.3116   24.0358 C   0  0  1  0  0  0
  -20.5856  -28.3651   23.1322 C   0  0  2  0  0  0
  -20.6754  -26.9402   22.5387 C   0  0  0  0  0  0
  -19.5717  -26.6404   21.5211 C   0  0  0  0  0  0
  -18.1893  -26.7951   22.1618 C   0  0  0  0  0  0
  -19.1516  -28.8838   23.2911 C   0  0  0  0  0  0
  -18.9458  -30.1449   23.8920 C   0  0  0  0  0  0
  -17.6466  -30.6597   24.0589 C   0  0  0  0  0  0
  -25.9016  -34.9486   23.5148 C   0  0  0  0  0  0
  -16.5341  -29.9117   23.6340 C   0  0  0  0  0  0
  -16.7252  -28.6528   23.0358 C   0  0  0  0  0  0
  -26.4450  -31.6605   25.0708 C   0  0  0  0  0  0
  -25.3699  -31.3625   26.1426 C   0  0  0  0  0  0
  -27.0343  -30.3119   24.5961 C   0  0  0  0  0  0
  -27.5991  -32.4329   25.7523 C   0  0  0  0  0  0
  -27.5557  -37.1815   24.8477 C   0  0  0  0  0  0
  -21.4137  -29.3038   22.3759 N   0  0  0  0  0  0
  -26.4258  -37.3810   23.9433 N   0  0  0  0  0  0
  -24.6680  -31.0788   22.0981 N   0  0  0  0  0  0
  -23.4218  -28.8157   23.2971 O   0  0  0  0  0  0
  -28.3759  -26.6759   20.0697 O   0  0  0  0  0  0
  -26.5592  -34.8936   22.4724 O   0  0  0  0  0  0
  -23.5327  -32.1406   23.7474 O   0  0  0  0  0  0
  -28.9880  -17.7004   21.4357 C   0  0  0  0  0  0
  -30.1081  -19.6611   20.9067 C   0  0  0  0  0  0
  -30.0745  -16.9023   20.9823 C   0  0  0  0  0  0
  -31.2009  -18.8752   20.4477 C   0  0  0  0  0  0
  -29.5180  -23.1308   25.1061 C   0  0  0  0  0  0
  -31.9683  -23.0532   24.5494 C   0  0  0  0  0  0
  -30.1573  -21.2014   20.8887 C   0  0  0  0  0  0
  -28.8613  -24.3030   20.7003 C   0  0  0  0  0  0
  -30.3180  -23.6390   22.7263 C   0  0  0  0  0  0
  -28.4798  -25.7432   21.1540 C   0  0  0  0  0  0
  -30.5494  -22.8107   24.0126 C   0  0  0  0  0  0
  -29.0489  -23.3016   21.8872 C   0  0  2  0  0  0
  -28.9961  -19.0620   21.4085 N   0  0  0  0  0  0
  -31.1805  -17.5224   20.4879 N   0  0  0  0  0  0
  -32.3689  -19.4249   19.9291 N   0  0  0  0  0  0
  -29.9129  -15.4815   21.0718 N   0  0  0  0  0  0
  -28.9631  -21.8581   21.4832 N   0  3  0  0  0  0
  -31.4741  -12.4225   19.1226 H   0  0  0  0  0  0
  -30.3379  -11.2985   19.8118 H   0  0  0  0  0  0
  -29.7452  -11.7904   17.4246 H   0  0  0  0  0  0
  -29.6674  -13.4989   17.7695 H   0  0  0  0  0  0
  -27.8306  -11.3116   18.8011 H   0  0  0  0  0  0
  -27.3720  -12.6492   17.7828 H   0  0  0  0  0  0
  -27.7074  -14.2521   19.5842 H   0  0  0  0  0  0
  -28.6772  -11.9335   21.3228 H   0  0  0  0  0  0
  -28.4570  -13.5594   21.8820 H   0  0  0  0  0  0
  -25.2745   -9.5694   22.4761 H   0  0  0  0  0  0
  -23.9996   -7.4640   22.7483 H   0  0  0  0  0  0
  -21.0862   -8.8727   19.8906 H   0  0  0  0  0  0
  -22.3710  -10.9637   19.6123 H   0  0  0  0  0  0
  -21.1979   -7.6146   23.9714 H   0  0  0  0  0  0
  -21.1471   -6.0516   25.9071 H   0  0  0  0  0  0
  -22.0608   -2.7611   23.2830 H   0  0  0  0  0  0
  -22.4074  -11.9802   22.4676 H   0  0  0  0  0  0
  -21.1080  -13.1175   22.2515 H   0  0  0  0  0  0
  -24.6502  -15.8277   20.4703 H   0  0  0  0  0  0
  -26.2599  -15.6119   20.0078 H   0  0  0  0  0  0
  -26.7091  -32.5575   23.1184 H   0  0  0  0  0  0
  -25.0022  -33.9809   25.0497 H   0  0  0  0  0  0
  -22.6886  -31.3032   21.4074 H   0  0  0  0  0  0
  -23.3756  -35.9592   23.3303 H   0  0  0  0  0  0
  -24.3532  -36.8892   22.2053 H   0  0  0  0  0  0
  -23.7173  -37.6477   23.6643 H   0  0  0  0  0  0
  -26.0168  -31.5983   20.5737 H   0  0  0  0  0  0
  -26.8287  -30.9147   21.9530 H   0  0  0  0  0  0
  -28.1079  -29.1129   21.1567 H   0  0  0  0  0  0
  -26.0837  -25.9692   19.0206 H   0  0  0  0  0  0
  -23.9829  -27.2857   19.0442 H   0  0  0  0  0  0
  -23.7128  -30.5941   19.4037 H   0  0  0  0  0  0
  -22.7395  -29.2314   19.8689 H   0  0  0  0  0  0
  -25.1254  -36.1985   25.0855 H   0  0  0  0  0  0
  -20.9928  -28.3172   24.1447 H   0  0  0  0  0  0
  -20.5679  -26.2241   23.3547 H   0  0  0  0  0  0
  -21.6610  -26.7457   22.1131 H   0  0  0  0  0  0
  -19.6876  -25.6338   21.1181 H   0  0  0  0  0  0
  -19.6661  -27.3255   20.6786 H   0  0  0  0  0  0
  -17.4166  -26.6717   21.4012 H   0  0  0  0  0  0
  -18.0269  -26.0075   22.8993 H   0  0  0  0  0  0
  -19.7941  -30.7251   24.2270 H   0  0  0  0  0  0
  -17.5043  -31.6288   24.5172 H   0  0  0  0  0  0
  -15.5353  -30.3054   23.7681 H   0  0  0  0  0  0
  -15.8627  -28.0886   22.7076 H   0  0  0  0  0  0
  -24.5896  -30.6973   25.7709 H   0  0  0  0  0  0
  -24.8861  -32.2750   26.4921 H   0  0  0  0  0  0
  -25.8039  -30.8740   27.0161 H   0  0  0  0  0  0
  -26.2904  -29.6862   24.1012 H   0  0  0  0  0  0
  -27.4271  -29.7315   25.4318 H   0  0  0  0  0  0
  -27.8632  -30.4589   23.9028 H   0  0  0  0  0  0
  -27.2589  -33.3641   26.2072 H   0  0  0  0  0  0
  -28.3857  -32.6861   25.0401 H   0  0  0  0  0  0
  -28.0591  -31.8458   26.5480 H   0  0  0  0  0  0
  -28.2548  -38.0140   24.7557 H   0  0  0  0  0  0
  -28.1081  -36.2662   24.6276 H   0  0  0  0  0  0
  -27.2256  -37.1418   25.8873 H   0  0  0  0  0  0
  -20.9267  -29.8856   21.7083 H   0  0  0  0  0  0
  -26.0148  -38.2889   24.1450 H   0  0  0  0  0  0
  -28.0888  -17.2403   21.8214 H   0  0  0  0  0  0
  -29.7149  -22.5575   26.0127 H   0  0  0  0  0  0
  -28.5052  -22.8872   24.7902 H   0  0  0  0  0  0
  -29.5422  -24.1870   25.3773 H   0  0  0  0  0  0
  -32.1595  -22.4703   25.4517 H   0  0  0  0  0  0
  -32.1228  -24.1043   24.7966 H   0  0  0  0  0  0
  -32.7259  -22.7734   23.8163 H   0  0  0  0  0  0
  -30.3015  -21.5550   19.8682 H   0  0  0  0  0  0
  -31.0585  -21.4681   21.4391 H   0  0  0  0  0  0
  -29.7696  -24.3353   20.0977 H   0  0  0  0  0  0
  -28.0758  -23.9426   20.0362 H   0  0  0  0  0  0
  -31.1987  -23.5757   22.0851 H   0  0  0  0  0  0
  -30.2844  -24.6852   23.0274 H   0  0  0  0  0  0
  -29.2322  -26.1511   21.8272 H   0  0  0  0  0  0
  -27.5538  -25.7017   21.7329 H   0  0  0  0  0  0
  -30.4779  -21.7476   23.7841 H   0  0  0  0  0  0
  -28.1803  -23.4487   22.5318 H   0  0  0  0  0  0
  -32.5542  -20.4202   19.9004 H   0  0  0  0  0  0
  -33.1495  -18.8348   19.6662 H   0  0  0  0  0  0
  -29.0222  -15.1729   21.4290 H   0  0  0  0  0  0
  -28.7426  -21.3111   22.3002 H   0  0  0  0  0  0
  -28.1877  -21.7233   20.8543 H   0  0  0  0  0  0
  1 25  1  0  0  0
  1 30  2  0  0  0
  1 86  1  0  0  0
  2  3  1  0  0  0
  2 25  1  0  0  0
  2 88  1  0  0  0
  2 89  1  0  0  0
  3  4  1  0  0  0
  3 90  1  0  0  0
  3 91  1  0  0  0
  4  5  1  0  0  0
  4 92  1  0  0  0
  4 93  1  0  0  0
  5  6  1  0  0  0
  5 26  1  0  0  0
  5 94  1  0  0  0
  6 25  1  0  0  0
  6 95  1  0  0  0
  6 96  1  0  0  0
  7  8  2  0  0  0
  7 26  1  0  0  0
  7 29  1  0  0  0
  8  9  1  0  0  0
  8 22  1  0  0  0
  9 10  1  0  0  0
  9 27  2  0  0  0
 10 11  2  0  0  0
 10 15  1  0  0  0
 11 12  1  0  0  0
 11 97  1  0  0  0
 12 13  2  0  0  0
 12 98  1  0  0  0
 13 14  1  0  0  0
 13 31  1  0  0  0
 14 15  2  0  0  0
 14 99  1  0  0  0
 15100  1  0  0  0
 16 17  2  0  0  0
 16 21  1  0  0  0
 16 31  1  0  0  0
 17 18  1  0  0  0
 17101  1  0  0  0
 18 19  2  0  0  0
 18102  1  0  0  0
 19 20  1  0  0  0
 19 24  1  0  0  0
 20 21  2  0  0  0
 20103  1  0  0  0
 21 23  1  0  0  0
 22 28  1  0  0  0
 22 32  2  0  0  0
 26 27  1  0  0  0
 28104  1  0  0  0
 28105  1  0  0  0
 29106  1  0  0  0
 29107  1  0  0  0
 33 34  1  0  0  0
 33 66  1  0  0  0
 33 70  2  0  0  0
 34 36  1  0  0  0
 34 59  1  0  0  0
 34108  1  0  0  0
 35 44  2  0  0  0
 35 45  1  0  0  0
 35 68  1  0  0  0
 36 56  1  0  0  0
 36109  1  0  0  0
 37 39  1  0  0  0
 37 47  1  0  0  0
 37 66  1  0  0  0
 37110  1  0  0  0
 38 43  2  0  0  0
 38 46  1  0  0  0
 38 47  1  0  0  0
 39 64  1  0  0  0
 39 67  2  0  0  0
 40 52  1  0  0  0
 40 53  2  0  0  0
 40 58  1  0  0  0
 41111  1  0  0  0
 41112  1  0  0  0
 41113  1  0  0  0
 41 48  1  0  0  0
 42 43  1  0  0  0
 42 66  1  0  0  0
 42114  1  0  0  0
 42115  1  0  0  0
 43 44  1  0  0  0
 44116  1  0  0  0
 45 46  2  0  0  0
 45117  1  0  0  0
 46118  1  0  0  0
 47119  1  0  0  0
 47120  1  0  0  0
 48 56  1  0  0  0
 48 65  1  0  0  0
 48121  1  0  0  0
 49 50  1  0  0  0
 49 53  1  0  0  0
 49 64  1  0  0  0
 49122  1  0  0  0
 50 51  1  0  0  0
 50123  1  0  0  0
 50124  1  0  0  0
 51 52  1  0  0  0
 51125  1  0  0  0
 51126  1  0  0  0
 52127  1  0  0  0
 52128  1  0  0  0
 53 54  1  0  0  0
 54 55  2  0  0  0
 54129  1  0  0  0
 55 57  1  0  0  0
 55130  1  0  0  0
 56 69  2  0  0  0
 57 58  2  0  0  0
 57131  1  0  0  0
 58132  1  0  0  0
 59 60  1  0  0  0
 59 61  1  0  0  0
 59 62  1  0  0  0
 60133  1  0  0  0
 60134  1  0  0  0
 60135  1  0  0  0
 61136  1  0  0  0
 61137  1  0  0  0
 61138  1  0  0  0
 62139  1  0  0  0
 62140  1  0  0  0
 62141  1  0  0  0
 63 65  1  0  0  0
 63142  1  0  0  0
 63143  1  0  0  0
 63144  1  0  0  0
 64145  1  0  0  0
 65146  1  0  0  0
 68 80  1  0  0  0
 71 73  2  0  0  0
 71 83  1  0  0  0
 71147  1  0  0  0
 72 74  1  0  0  0
 72 77  1  0  0  0
 72 83  2  0  0  0
 73 84  1  0  0  0
 73 86  1  0  0  0
 74 84  2  0  0  0
 74 85  1  0  0  0
 75148  1  0  0  0
 75149  1  0  0  0
 75150  1  0  0  0
 75 81  1  0  0  0
 76 81  1  0  0  0
 76151  1  0  0  0
 76152  1  0  0  0
 76153  1  0  0  0
 77 87  1  0  0  0
 77154  1  0  0  0
 77155  1  0  0  0
 78 80  1  0  0  0
 78156  1  0  0  0
 78157  1  0  0  0
 78 82  1  0  0  0
 79 81  1  0  0  0
 79 82  1  0  0  0
 79158  1  0  0  0
 79159  1  0  0  0
 80160  1  0  0  0
 80161  1  0  0  0
 81162  1  0  0  0
 82 87  1  0  0  0
 82163  1  0  0  0
 85164  1  0  0  0
 85165  1  0  0  0
 86166  1  0  0  0
 87167  1  0  0  0
 87168  1  0  0  0
M  CHG  1  87   1
M  ISO  4   1 100  68 101  80 101  86 100
M  END
> <chiral flag>
0

> <version>
0

> <s_m_source_file>
/data/baiqing/PycharmProjects/Reinvent-master-3.2/result/LINK_invent/BTK/process_docking_weight1_custom_product_contain_oxygen_bond_distance_aromatic_linkinvent_7_9_3/rearranged_h_0195.sdf

> <i_m_source_file_index>
12

> <r_mmod_Potential_Energy-OPLS-2005>
-223.710083007812

> <r_mmod_Stretch_Energy-OPLS-2005>
44.2976303100586

> <r_mmod_Bend_Energy-OPLS-2005>
119.676582336426

> <r_mmod_Torsional_Energy-OPLS-2005>
249.208358764648

> <r_mmod_Improper_Torsional_Energy-OPLS-2005>
4.14715194702148

> <r_mmod_Van_der_Waal_Energy-OPLS-2005>
155.059310913086

> <r_mmod_Electrostatic_Energy-OPLS-2005>
-326.009674072266

> <r_mmod_Solvation_Energy-OPLS-2005>
-482.662475585938

> <b_mmod_Minimization_Converged-OPLS-2005>
0

> <r_mmod_RMS_Derivative-OPLS-2005>
2.84474420547485

$$$$
12
                    3D
 Structure written by MMmdl.
150158  0  0  1  0            999 V2000
  -30.6150  -14.7561   20.4437 C   0  0  0  0  0  0
  -30.4242  -12.4533   19.4925 C   0  0  0  0  0  0
  -29.5137  -12.5300   18.2466 C   0  0  0  0  0  0
  -28.0382  -12.3505   18.6507 C   0  0  0  0  0  0
  -27.6428  -13.2422   19.8576 C   0  0  2  0  0  0
  -28.6839  -13.1811   20.9989 C   0  0  0  0  0  0
  -25.2498  -13.8213   20.5689 C   0  0  0  0  0  0
  -24.1802  -13.0445   20.9201 C   0  0  0  0  0  0
  -24.6410  -11.6931   20.8742 C   0  0  0  0  0  0
  -23.9091  -10.4298   21.0404 C   0  0  0  0  0  0
  -24.3633   -9.4213   21.9180 C   0  0  0  0  0  0
  -23.6307   -8.2254   22.0752 C   0  0  0  0  0  0
  -22.4293   -8.0290   21.3542 C   0  0  0  0  0  0
  -21.9931   -9.0267   20.4648 C   0  0  0  0  0  0
  -22.7259  -10.2145   20.3050 C   0  0  0  0  0  0
  -21.6859   -6.0745   22.5279 C   0  0  0  0  0  0
  -21.4024   -6.5649   23.8210 C   0  0  0  0  0  0
  -21.3662   -5.6796   24.9173 C   0  0  0  0  0  0
  -21.6047   -4.3058   24.7216 C   0  0  0  0  0  0
  -21.8814   -3.8151   23.4335 C   0  0  0  0  0  0
  -21.9190   -4.6973   22.3393 C   0  0  0  0  0  0
  -22.7815  -13.5222   21.1851 C   0  0  0  0  0  0
  -22.1660   -4.2154   21.0970 F   0  0  0  0  0  0
  -21.5621   -3.4544   25.7729 F   0  0  0  0  0  0
  -29.9921  -13.5229   20.4273 N   0  0  0  0  0  0
  -26.2944  -12.9449   20.3302 N   0  0  0  0  0  0
  -25.9348  -11.6579   20.5760 N   0  0  0  0  0  0
  -22.0472  -12.8218   22.0421 N   0  0  0  0  0  0
  -25.4168  -15.1942   20.4094 N   0  0  0  0  0  0
  -31.7977  -14.8273   20.0880 O   0  0  0  0  0  0
  -21.6650   -6.8896   21.4245 O   0  0  0  0  0  0
  -22.3503  -14.5536   20.6708 O   0  0  0  0  0  0
  -24.6336  -31.8565   23.1977 C   0  0  0  0  0  0
  -25.9157  -32.4764   23.8329 C   0  0  1  0  0  0
  -27.2033  -27.2414   20.1359 C   0  0  0  0  0  0
  -25.5951  -33.8566   24.2264 N   0  0  0  0  0  0
  -23.4280  -30.4811   21.5445 C   0  0  2  0  0  0
  -24.8705  -28.9274   20.1089 C   0  0  0  0  0  0
  -22.7504  -29.4629   22.4930 C   0  0  0  0  0  0
  -18.0299  -28.1380   22.8473 C   0  0  0  0  0  0
  -24.1494  -36.7298   23.2635 C   0  0  0  0  0  0
  -25.9749  -30.7629   21.3775 C   0  0  0  0  0  0
  -26.0440  -29.3831   20.7232 C   0  0  0  0  0  0
  -27.2130  -28.5526   20.7268 C   0  0  0  0  0  0
  -26.0119  -26.8719   19.4688 C   0  0  0  0  0  0
  -24.8601  -27.6797   19.4708 C   0  0  0  0  0  0
  -23.6434  -29.8175   20.1596 C   0  0  0  0  0  0
  -25.4120  -36.3084   24.0326 C   0  0  1  0  0  0
  -20.5900  -28.3715   23.1259 C   0  0  2  0  0  0
  -20.6791  -26.9438   22.5401 C   0  0  0  0  0  0
  -19.5768  -26.6385   21.5203 C   0  0  0  0  0  0
  -18.1947  -26.7923   22.1610 C   0  0  0  0  0  0
  -19.1552  -28.8866   23.2859 C   0  0  0  0  0  0
  -18.9466  -30.1461   23.8886 C   0  0  0  0  0  0
  -17.6467  -30.6581   24.0566 C   0  0  0  0  0  0
  -25.9065  -34.9452   23.5099 C   0  0  0  0  0  0
  -16.5361  -29.9083   23.6316 C   0  0  0  0  0  0
  -16.7286  -28.6498   23.0346 C   0  0  0  0  0  0
  -26.4504  -31.6576   25.0719 C   0  0  0  0  0  0
  -25.3705  -31.3730   26.1426 C   0  0  0  0  0  0
  -27.0347  -30.2995   24.6184 C   0  0  0  0  0  0
  -27.6058  -32.4313   25.7494 C   0  0  0  0  0  0
  -27.5586  -37.1808   24.8464 C   0  0  0  0  0  0
  -21.4217  -29.3064   22.3652 N   0  0  0  0  0  0
  -26.4297  -37.3781   23.9409 N   0  0  0  0  0  0
  -24.6990  -31.0521   22.0959 N   0  0  0  0  0  0
  -23.4198  -28.8175   23.3041 O   0  0  0  0  0  0
  -28.2710  -26.3091   20.2306 O   0  0  0  0  0  0
  -26.5632  -34.8924   22.4666 O   0  0  0  0  0  0
  -23.5489  -32.1403   23.7267 O   0  0  0  0  0  0
  -29.3738  -19.4566   18.6129 C   0  0  0  0  0  0
  -29.6231  -18.2110   18.0278 C   0  0  0  0  0  0
  -29.3701  -19.5439   20.0069 C   0  0  0  0  0  0
  -29.8063  -17.1722   20.0762 C   0  0  0  0  0  0
  -28.6268  -22.0926   19.9680 C   0  0  0  0  0  0
  -27.9808  -24.8350   20.0172 C   0  0  0  0  0  0
  -28.8636  -23.5849   20.5864 C   0  0  1  0  0  0
  -29.8360  -17.0966   18.7500 N   0  0  0  0  0  0
  -29.5651  -18.3677   20.7252 N   0  0  0  0  0  0
  -29.1884  -20.8375   20.6380 N   0  0  0  0  0  0
  -29.8813  -15.9032   20.7439 N   0  0  0  0  0  0
  -28.6364  -23.4968   21.8986 F   0  0  0  0  0  0
  -31.4707  -12.5504   19.1995 H   0  0  0  0  0  0
  -30.3386  -11.4748   19.9683 H   0  0  0  0  0  0
  -29.8021  -11.7739   17.5156 H   0  0  0  0  0  0
  -29.6444  -13.4964   17.7557 H   0  0  0  0  0  0
  -27.8931  -11.2986   18.9039 H   0  0  0  0  0  0
  -27.3849  -12.5539   17.8002 H   0  0  0  0  0  0
  -27.6389  -14.2664   19.4833 H   0  0  0  0  0  0
  -28.7083  -12.1889   21.4520 H   0  0  0  0  0  0
  -28.4146  -13.8750   21.7967 H   0  0  0  0  0  0
  -25.2773   -9.5700   22.4761 H   0  0  0  0  0  0
  -24.0016   -7.4648   22.7471 H   0  0  0  0  0  0
  -21.0854   -8.8784   19.8958 H   0  0  0  0  0  0
  -22.3707  -10.9686   19.6159 H   0  0  0  0  0  0
  -21.2037   -7.6154   23.9722 H   0  0  0  0  0  0
  -21.1491   -6.0521   25.9074 H   0  0  0  0  0  0
  -22.0594   -2.7612   23.2825 H   0  0  0  0  0  0
  -22.4101  -11.9886   22.4812 H   0  0  0  0  0  0
  -21.1084  -13.1245   22.2629 H   0  0  0  0  0  0
  -24.6416  -15.8421   20.5008 H   0  0  0  0  0  0
  -26.2565  -15.6312   20.0528 H   0  0  0  0  0  0
  -26.7222  -32.5403   23.1067 H   0  0  0  0  0  0
  -25.0111  -33.9697   25.0416 H   0  0  0  0  0  0
  -22.7249  -31.3046   21.4025 H   0  0  0  0  0  0
  -23.3758  -35.9628   23.3289 H   0  0  0  0  0  0
  -24.3586  -36.8927   22.2051 H   0  0  0  0  0  0
  -23.7232  -37.6492   23.6661 H   0  0  0  0  0  0
  -26.1091  -31.5170   20.6012 H   0  0  0  0  0  0
  -26.8548  -30.8180   22.0056 H   0  0  0  0  0  0
  -28.1046  -28.8927   21.2341 H   0  0  0  0  0  0
  -25.9302  -25.9265   18.9539 H   0  0  0  0  0  0
  -23.9647  -27.3255   18.9785 H   0  0  0  0  0  0
  -23.7699  -30.5959   19.4068 H   0  0  0  0  0  0
  -22.7576  -29.2573   19.8541 H   0  0  0  0  0  0
  -25.1293  -36.1940   25.0815 H   0  0  0  0  0  0
  -20.9993  -28.3303   24.1378 H   0  0  0  0  0  0
  -20.5693  -26.2345   23.3613 H   0  0  0  0  0  0
  -21.6661  -26.7463   22.1200 H   0  0  0  0  0  0
  -19.6946  -25.6294   21.1243 H   0  0  0  0  0  0
  -19.6694  -27.3182   20.6720 H   0  0  0  0  0  0
  -17.4223  -26.6671   21.4008 H   0  0  0  0  0  0
  -18.0354  -26.0062   22.9003 H   0  0  0  0  0  0
  -19.7950  -30.7272   24.2256 H   0  0  0  0  0  0
  -17.5025  -31.6251   24.5185 H   0  0  0  0  0  0
  -15.5364  -30.2984   23.7638 H   0  0  0  0  0  0
  -15.8687  -28.0809   22.7062 H   0  0  0  0  0  0
  -24.5877  -30.7093   25.7735 H   0  0  0  0  0  0
  -24.8897  -32.2905   26.4834 H   0  0  0  0  0  0
  -25.7997  -30.8901   27.0212 H   0  0  0  0  0  0
  -26.2924  -29.6741   24.1217 H   0  0  0  0  0  0
  -27.4055  -29.7259   25.4685 H   0  0  0  0  0  0
  -27.8789  -30.4287   23.9408 H   0  0  0  0  0  0
  -27.2669  -33.3623   26.2051 H   0  0  0  0  0  0
  -28.3872  -32.6854   25.0321 H   0  0  0  0  0  0
  -28.0716  -31.8445   26.5419 H   0  0  0  0  0  0
  -28.2602  -38.0110   24.7521 H   0  0  0  0  0  0
  -28.1086  -36.2640   24.6277 H   0  0  0  0  0  0
  -27.2311  -37.1441   25.8869 H   0  0  0  0  0  0
  -20.9421  -29.8791   21.6842 H   0  0  0  0  0  0
  -26.0184  -38.2864   24.1381 H   0  0  0  0  0  0
  -29.2167  -20.3040   17.9638 H   0  0  0  0  0  0
  -29.6459  -18.1019   16.9530 H   0  0  0  0  0  0
  -28.9875  -22.1332   18.9410 H   0  0  0  0  0  0
  -27.5499  -21.9365   19.8917 H   0  0  0  0  0  0
  -26.9781  -24.6392   20.4004 H   0  0  0  0  0  0
  -27.9141  -24.7021   18.9367 H   0  0  0  0  0  0
  -29.9188  -23.8396   20.4827 H   0  0  0  0  0  0
  -29.1760  -20.8407   21.6523 H   0  0  0  0  0  0
  -29.0852  -15.7286   21.3337 H   0  0  0  0  0  0
  1 25  1  0  0  0
  1 30  2  0  0  0
  1 81  1  0  0  0
  2  3  1  0  0  0
  2 25  1  0  0  0
  2 83  1  0  0  0
  2 84  1  0  0  0
  3  4  1  0  0  0
  3 85  1  0  0  0
  3 86  1  0  0  0
  4  5  1  0  0  0
  4 87  1  0  0  0
  4 88  1  0  0  0
  5  6  1  0  0  0
  5 26  1  0  0  0
  5 89  1  0  0  0
  6 25  1  0  0  0
  6 90  1  0  0  0
  6 91  1  0  0  0
  7  8  2  0  0  0
  7 26  1  0  0  0
  7 29  1  0  0  0
  8  9  1  0  0  0
  8 22  1  0  0  0
  9 10  1  0  0  0
  9 27  2  0  0  0
 10 11  2  0  0  0
 10 15  1  0  0  0
 11 12  1  0  0  0
 11 92  1  0  0  0
 12 13  2  0  0  0
 12 93  1  0  0  0
 13 14  1  0  0  0
 13 31  1  0  0  0
 14 15  2  0  0  0
 14 94  1  0  0  0
 15 95  1  0  0  0
 16 17  2  0  0  0
 16 21  1  0  0  0
 16 31  1  0  0  0
 17 18  1  0  0  0
 17 96  1  0  0  0
 18 19  2  0  0  0
 18 97  1  0  0  0
 19 20  1  0  0  0
 19 24  1  0  0  0
 20 21  2  0  0  0
 20 98  1  0  0  0
 21 23  1  0  0  0
 22 28  1  0  0  0
 22 32  2  0  0  0
 26 27  1  0  0  0
 28 99  1  0  0  0
 28100  1  0  0  0
 29101  1  0  0  0
 29102  1  0  0  0
 33 34  1  0  0  0
 33 66  1  0  0  0
 33 70  2  0  0  0
 34 36  1  0  0  0
 34 59  1  0  0  0
 34103  1  0  0  0
 35 44  2  0  0  0
 35 45  1  0  0  0
 35 68  1  0  0  0
 36 56  1  0  0  0
 36104  1  0  0  0
 37 39  1  0  0  0
 37 47  1  0  0  0
 37 66  1  0  0  0
 37105  1  0  0  0
 38 43  2  0  0  0
 38 46  1  0  0  0
 38 47  1  0  0  0
 39 64  1  0  0  0
 39 67  2  0  0  0
 40 52  1  0  0  0
 40 53  2  0  0  0
 40 58  1  0  0  0
 41106  1  0  0  0
 41107  1  0  0  0
 41108  1  0  0  0
 41 48  1  0  0  0
 42 43  1  0  0  0
 42 66  1  0  0  0
 42109  1  0  0  0
 42110  1  0  0  0
 43 44  1  0  0  0
 44111  1  0  0  0
 45 46  2  0  0  0
 45112  1  0  0  0
 46113  1  0  0  0
 47114  1  0  0  0
 47115  1  0  0  0
 48 56  1  0  0  0
 48 65  1  0  0  0
 48116  1  0  0  0
 49 50  1  0  0  0
 49 53  1  0  0  0
 49 64  1  0  0  0
 49117  1  0  0  0
 50 51  1  0  0  0
 50118  1  0  0  0
 50119  1  0  0  0
 51 52  1  0  0  0
 51120  1  0  0  0
 51121  1  0  0  0
 52122  1  0  0  0
 52123  1  0  0  0
 53 54  1  0  0  0
 54 55  2  0  0  0
 54124  1  0  0  0
 55 57  1  0  0  0
 55125  1  0  0  0
 56 69  2  0  0  0
 57 58  2  0  0  0
 57126  1  0  0  0
 58127  1  0  0  0
 59 60  1  0  0  0
 59 61  1  0  0  0
 59 62  1  0  0  0
 60128  1  0  0  0
 60129  1  0  0  0
 60130  1  0  0  0
 61131  1  0  0  0
 61132  1  0  0  0
 61133  1  0  0  0
 62134  1  0  0  0
 62135  1  0  0  0
 62136  1  0  0  0
 63 65  1  0  0  0
 63137  1  0  0  0
 63138  1  0  0  0
 63139  1  0  0  0
 64140  1  0  0  0
 65141  1  0  0  0
 68 76  1  0  0  0
 71 72  2  0  0  0
 71 73  1  0  0  0
 71142  1  0  0  0
 72 78  1  0  0  0
 72143  1  0  0  0
 73 79  2  0  0  0
 73 80  1  0  0  0
 74 78  2  0  0  0
 74 79  1  0  0  0
 74 81  1  0  0  0
 75 77  1  0  0  0
 75 80  1  0  0  0
 75144  1  0  0  0
 75145  1  0  0  0
 76 77  1  0  0  0
 76146  1  0  0  0
 76147  1  0  0  0
 77 82  1  0  0  0
 77148  1  0  0  0
 80149  1  0  0  0
 81150  1  0  0  0
M  ISO  4   1 100  68 101  76 101  81 100
M  END
> <chiral flag>
0

> <version>
0

> <s_m_source_file>
/data/baiqing/PycharmProjects/Reinvent-master-3.2/result/LINK_invent/BTK/process_docking_weight1_custom_product_contain_oxygen_bond_distance_aromatic_linkinvent_7_9_3/rearranged_h_0195.sdf

> <i_m_source_file_index>
13

> <r_mmod_Potential_Energy-OPLS-2005>
-307.255126953125

> <r_mmod_Stretch_Energy-OPLS-2005>
131.806167602539

> <r_mmod_Bend_Energy-OPLS-2005>
182.525619506836

> <r_mmod_Torsional_Energy-OPLS-2005>
229.094360351562

> <r_mmod_Improper_Torsional_Energy-OPLS-2005>
5.57648897171021

> <r_mmod_Van_der_Waal_Energy-OPLS-2005>
151.639801025391

> <r_mmod_Electrostatic_Energy-OPLS-2005>
-858.677551269531

> <r_mmod_Solvation_Energy-OPLS-2005>
-245.641571044922

> <b_mmod_Minimization_Converged-OPLS-2005>
0

> <r_mmod_RMS_Derivative-OPLS-2005>
2.2560727596283

$$$$
13
                    3D
 Structure written by MMmdl.
158166  0  0  1  0            999 V2000
  -30.7343  -14.4855   20.5213 C   0  0  0  0  0  0
  -30.4089  -12.2988   19.4382 C   0  0  0  0  0  0
  -29.4953  -12.4943   18.2121 C   0  0  0  0  0  0
  -28.0162  -12.3634   18.6214 C   0  0  0  0  0  0
  -27.6586  -13.2177   19.8681 C   0  0  2  0  0  0
  -28.7038  -13.0431   20.9957 C   0  0  0  0  0  0
  -25.2568  -13.8178   20.5674 C   0  0  0  0  0  0
  -24.1830  -13.0443   20.9178 C   0  0  0  0  0  0
  -24.6396  -11.6914   20.8730 C   0  0  0  0  0  0
  -23.9057  -10.4293   21.0402 C   0  0  0  0  0  0
  -24.3613   -9.4215   21.9186 C   0  0  0  0  0  0
  -23.6290   -8.2249   22.0759 C   0  0  0  0  0  0
  -22.4274   -8.0280   21.3546 C   0  0  0  0  0  0
  -21.9911   -9.0252   20.4647 C   0  0  0  0  0  0
  -22.7233  -10.2132   20.3051 C   0  0  0  0  0  0
  -21.6855   -6.0734   22.5282 C   0  0  0  0  0  0
  -21.4012   -6.5638   23.8211 C   0  0  0  0  0  0
  -21.3655   -5.6791   24.9176 C   0  0  0  0  0  0
  -21.6044   -4.3055   24.7227 C   0  0  0  0  0  0
  -21.8820   -3.8146   23.4344 C   0  0  0  0  0  0
  -21.9192   -4.6961   22.3403 C   0  0  0  0  0  0
  -22.7849  -13.5241   21.1836 C   0  0  0  0  0  0
  -22.1661   -4.2152   21.0977 F   0  0  0  0  0  0
  -21.5633   -3.4534   25.7732 F   0  0  0  0  0  0
  -30.0334  -13.3191   20.4315 N   0  0  0  0  0  0
  -26.3015  -12.9373   20.3340 N   0  0  0  0  0  0
  -25.9332  -11.6526   20.5769 N   0  0  0  0  0  0
  -22.0479  -12.8236   22.0383 N   0  0  0  0  0  0
  -25.4269  -15.1892   20.4091 N   0  0  0  0  0  0
  -31.8897  -14.5715   20.1046 O   0  0  0  0  0  0
  -21.6638   -6.8875   21.4241 O   0  0  0  0  0  0
  -22.3543  -14.5549   20.6675 O   0  0  0  0  0  0
  -24.6166  -31.8668   23.2114 C   0  0  0  0  0  0
  -25.9048  -32.4813   23.8414 C   0  0  1  0  0  0
  -27.2310  -27.4113   20.0819 C   0  0  0  0  0  0
  -25.5894  -33.8612   24.2340 N   0  0  0  0  0  0
  -23.4063  -30.4929   21.5527 C   0  0  2  0  0  0
  -24.8515  -28.9653   20.1104 C   0  0  0  0  0  0
  -22.7422  -29.4645   22.4978 C   0  0  0  0  0  0
  -18.0266  -28.1379   22.8496 C   0  0  0  0  0  0
  -24.1465  -36.7294   23.2640 C   0  0  0  0  0  0
  -25.9404  -30.8237   21.3711 C   0  0  0  0  0  0
  -26.0160  -29.4587   20.7131 C   0  0  0  0  0  0
  -27.2058  -28.6880   20.7004 C   0  0  0  0  0  0
  -26.0449  -26.9587   19.4502 C   0  0  0  0  0  0
  -24.8628  -27.7158   19.4756 C   0  0  0  0  0  0
  -23.6156  -29.8328   20.1655 C   0  0  0  0  0  0
  -25.4091  -36.3100   24.0346 C   0  0  1  0  0  0
  -20.5867  -28.3650   23.1306 C   0  0  2  0  0  0
  -20.6757  -26.9383   22.5409 C   0  0  0  0  0  0
  -19.5731  -26.6389   21.5199 C   0  0  0  0  0  0
  -18.1910  -26.7926   22.1622 C   0  0  0  0  0  0
  -19.1526  -28.8836   23.2893 C   0  0  0  0  0  0
  -18.9453  -30.1449   23.8892 C   0  0  0  0  0  0
  -17.6458  -30.6586   24.0568 C   0  0  0  0  0  0
  -25.9034  -34.9472   23.5141 C   0  0  0  0  0  0
  -16.5344  -29.9081   23.6351 C   0  0  0  0  0  0
  -16.7258  -28.6502   23.0370 C   0  0  0  0  0  0
  -26.4468  -31.6589   25.0741 C   0  0  0  0  0  0
  -25.3726  -31.3692   26.1478 C   0  0  0  0  0  0
  -27.0310  -30.3036   24.6110 C   0  0  0  0  0  0
  -27.6052  -32.4298   25.7502 C   0  0  0  0  0  0
  -27.5574  -37.1794   24.8466 C   0  0  0  0  0  0
  -21.4149  -29.3019   22.3714 N   0  0  0  0  0  0
  -26.4271  -37.3798   23.9433 N   0  0  0  0  0  0
  -24.6732  -31.0741   22.1036 N   0  0  0  0  0  0
  -23.4181  -28.8165   23.3015 O   0  0  0  0  0  0
  -28.3876  -26.6400   20.1183 O   0  0  0  0  0  0
  -26.5598  -34.8921   22.4697 O   0  0  0  0  0  0
  -23.5352  -32.1435   23.7485 O   0  0  0  0  0  0
  -31.6987  -17.4495   20.4103 C   0  0  0  0  0  0
  -30.3876  -16.9520   20.6769 C   0  0  0  0  0  0
  -31.5073  -18.7672   20.1103 C   0  0  0  0  0  0
  -30.3705  -21.7113   21.8562 C   0  0  0  0  0  0
  -29.3406  -24.2814   20.3015 C   0  0  0  0  0  0
  -28.9384  -22.7981   20.0318 C   0  0  0  0  0  0
  -29.3863  -20.2737   19.9467 C   0  0  0  0  0  0
  -28.2502  -25.2439   19.7704 C   0  0  0  0  0  0
  -29.9555  -21.6695   20.3759 C   0  0  2  0  0  0
  -29.4800  -17.9263   20.6353 N   0  0  0  0  0  0
  -30.1581  -19.0579   20.2758 N   0  0  0  0  0  0
  -32.4257  -19.7084   19.6760 N   0  0  0  0  0  0
  -30.0449  -15.5786   20.9231 N   0  0  0  0  0  0
  -31.4582  -12.3542   19.1437 H   0  0  0  0  0  0
  -30.2744  -11.3010   19.8595 H   0  0  0  0  0  0
  -29.7374  -11.7612   17.4413 H   0  0  0  0  0  0
  -29.6723  -13.4752   17.7676 H   0  0  0  0  0  0
  -27.8251  -11.3098   18.8271 H   0  0  0  0  0  0
  -27.3685  -12.6291   17.7853 H   0  0  0  0  0  0
  -27.6889  -14.2594   19.5479 H   0  0  0  0  0  0
  -28.6777  -12.0241   21.3853 H   0  0  0  0  0  0
  -28.4776  -13.6907   21.8438 H   0  0  0  0  0  0
  -25.2763   -9.5693   22.4761 H   0  0  0  0  0  0
  -24.0000   -7.4644   22.7484 H   0  0  0  0  0  0
  -21.0847   -8.8762   19.8954 H   0  0  0  0  0  0
  -22.3694  -10.9665   19.6146 H   0  0  0  0  0  0
  -21.2000   -7.6147   23.9712 H   0  0  0  0  0  0
  -21.1478   -6.0522   25.9076 H   0  0  0  0  0  0
  -22.0599   -2.7610   23.2838 H   0  0  0  0  0  0
  -22.4096  -11.9899   22.4774 H   0  0  0  0  0  0
  -21.1090  -13.1263   22.2572 H   0  0  0  0  0  0
  -24.6613  -15.8438   20.5251 H   0  0  0  0  0  0
  -26.2804  -15.6314   20.0921 H   0  0  0  0  0  0
  -26.7118  -32.5514   23.1183 H   0  0  0  0  0  0
  -25.0041  -33.9777   25.0481 H   0  0  0  0  0  0
  -22.6957  -31.3116   21.4166 H   0  0  0  0  0  0
  -23.3741  -35.9610   23.3296 H   0  0  0  0  0  0
  -24.3567  -36.8911   22.2057 H   0  0  0  0  0  0
  -23.7190  -37.6487   23.6655 H   0  0  0  0  0  0
  -26.0585  -31.5917   20.6057 H   0  0  0  0  0  0
  -26.8283  -30.8761   21.9905 H   0  0  0  0  0  0
  -28.1013  -29.0609   21.1796 H   0  0  0  0  0  0
  -26.0002  -26.0200   18.9186 H   0  0  0  0  0  0
  -23.9729  -27.3377   18.9915 H   0  0  0  0  0  0
  -23.7217  -30.6111   19.4090 H   0  0  0  0  0  0
  -22.7397  -29.2535   19.8676 H   0  0  0  0  0  0
  -25.1251  -36.1971   25.0838 H   0  0  0  0  0  0
  -20.9972  -28.3211   24.1422 H   0  0  0  0  0  0
  -20.5658  -26.2242   23.3589 H   0  0  0  0  0  0
  -21.6623  -26.7429   22.1197 H   0  0  0  0  0  0
  -19.6885  -25.6298   21.1220 H   0  0  0  0  0  0
  -19.6682  -27.3214   20.6737 H   0  0  0  0  0  0
  -17.4187  -26.6687   21.4019 H   0  0  0  0  0  0
  -18.0313  -26.0057   22.9007 H   0  0  0  0  0  0
  -19.7933  -30.7275   24.2244 H   0  0  0  0  0  0
  -17.5020  -31.6272   24.5166 H   0  0  0  0  0  0
  -15.5353  -30.2989   23.7694 H   0  0  0  0  0  0
  -15.8649  -28.0835   22.7083 H   0  0  0  0  0  0
  -24.5896  -30.7043   25.7807 H   0  0  0  0  0  0
  -24.8912  -32.2841   26.4938 H   0  0  0  0  0  0
  -25.8066  -30.8847   27.0231 H   0  0  0  0  0  0
  -26.2863  -29.6788   24.1162 H   0  0  0  0  0  0
  -27.4095  -29.7263   25.4553 H   0  0  0  0  0  0
  -27.8683  -30.4365   23.9258 H   0  0  0  0  0  0
  -27.2698  -33.3597   26.2099 H   0  0  0  0  0  0
  -28.3858  -32.6850   25.0327 H   0  0  0  0  0  0
  -28.0722  -31.8401   26.5398 H   0  0  0  0  0  0
  -28.2576  -38.0116   24.7565 H   0  0  0  0  0  0
  -28.1085  -36.2647   24.6213 H   0  0  0  0  0  0
  -27.2308  -37.1359   25.8875 H   0  0  0  0  0  0
  -20.9307  -29.8719   21.6923 H   0  0  0  0  0  0
  -26.0147  -38.2859   24.1482 H   0  0  0  0  0  0
  -32.6358  -16.9137   20.3757 H   0  0  0  0  0  0
  -30.8378  -22.6640   22.1064 H   0  0  0  0  0  0
  -31.0976  -20.9336   22.0890 H   0  0  0  0  0  0
  -29.5133  -21.5762   22.5161 H   0  0  0  0  0  0
  -30.2992  -24.5143   19.8379 H   0  0  0  0  0  0
  -29.4605  -24.4404   21.3741 H   0  0  0  0  0  0
  -28.6813  -22.7103   18.9745 H   0  0  0  0  0  0
  -28.0120  -22.5960   20.5710 H   0  0  0  0  0  0
  -29.2439  -20.2702   18.8653 H   0  0  0  0  0  0
  -28.3901  -20.1578   20.3769 H   0  0  0  0  0  0
  -27.3109  -24.8559   20.1651 H   0  0  0  0  0  0
  -28.2056  -25.1614   18.6833 H   0  0  0  0  0  0
  -30.8464  -21.8622   19.7788 H   0  0  0  0  0  0
  -33.4043  -19.4975   19.5143 H   0  0  0  0  0  0
  -32.1874  -20.6722   19.4760 H   0  0  0  0  0  0
  -29.0996  -15.4045   21.2225 H   0  0  0  0  0  0
  1 25  1  0  0  0
  1 30  2  0  0  0
  1 83  1  0  0  0
  2  3  1  0  0  0
  2 25  1  0  0  0
  2 84  1  0  0  0
  2 85  1  0  0  0
  3  4  1  0  0  0
  3 86  1  0  0  0
  3 87  1  0  0  0
  4  5  1  0  0  0
  4 88  1  0  0  0
  4 89  1  0  0  0
  5  6  1  0  0  0
  5 26  1  0  0  0
  5 90  1  0  0  0
  6 25  1  0  0  0
  6 91  1  0  0  0
  6 92  1  0  0  0
  7  8  2  0  0  0
  7 26  1  0  0  0
  7 29  1  0  0  0
  8  9  1  0  0  0
  8 22  1  0  0  0
  9 10  1  0  0  0
  9 27  2  0  0  0
 10 11  2  0  0  0
 10 15  1  0  0  0
 11 12  1  0  0  0
 11 93  1  0  0  0
 12 13  2  0  0  0
 12 94  1  0  0  0
 13 14  1  0  0  0
 13 31  1  0  0  0
 14 15  2  0  0  0
 14 95  1  0  0  0
 15 96  1  0  0  0
 16 17  2  0  0  0
 16 21  1  0  0  0
 16 31  1  0  0  0
 17 18  1  0  0  0
 17 97  1  0  0  0
 18 19  2  0  0  0
 18 98  1  0  0  0
 19 20  1  0  0  0
 19 24  1  0  0  0
 20 21  2  0  0  0
 20 99  1  0  0  0
 21 23  1  0  0  0
 22 28  1  0  0  0
 22 32  2  0  0  0
 26 27  1  0  0  0
 28100  1  0  0  0
 28101  1  0  0  0
 29102  1  0  0  0
 29103  1  0  0  0
 33 34  1  0  0  0
 33 66  1  0  0  0
 33 70  2  0  0  0
 34 36  1  0  0  0
 34 59  1  0  0  0
 34104  1  0  0  0
 35 44  2  0  0  0
 35 45  1  0  0  0
 35 68  1  0  0  0
 36 56  1  0  0  0
 36105  1  0  0  0
 37 39  1  0  0  0
 37 47  1  0  0  0
 37 66  1  0  0  0
 37106  1  0  0  0
 38 43  2  0  0  0
 38 46  1  0  0  0
 38 47  1  0  0  0
 39 64  1  0  0  0
 39 67  2  0  0  0
 40 52  1  0  0  0
 40 53  2  0  0  0
 40 58  1  0  0  0
 41107  1  0  0  0
 41108  1  0  0  0
 41109  1  0  0  0
 41 48  1  0  0  0
 42 43  1  0  0  0
 42 66  1  0  0  0
 42110  1  0  0  0
 42111  1  0  0  0
 43 44  1  0  0  0
 44112  1  0  0  0
 45 46  2  0  0  0
 45113  1  0  0  0
 46114  1  0  0  0
 47115  1  0  0  0
 47116  1  0  0  0
 48 56  1  0  0  0
 48 65  1  0  0  0
 48117  1  0  0  0
 49 50  1  0  0  0
 49 53  1  0  0  0
 49 64  1  0  0  0
 49118  1  0  0  0
 50 51  1  0  0  0
 50119  1  0  0  0
 50120  1  0  0  0
 51 52  1  0  0  0
 51121  1  0  0  0
 51122  1  0  0  0
 52123  1  0  0  0
 52124  1  0  0  0
 53 54  1  0  0  0
 54 55  2  0  0  0
 54125  1  0  0  0
 55 57  1  0  0  0
 55126  1  0  0  0
 56 69  2  0  0  0
 57 58  2  0  0  0
 57127  1  0  0  0
 58128  1  0  0  0
 59 60  1  0  0  0
 59 61  1  0  0  0
 59 62  1  0  0  0
 60129  1  0  0  0
 60130  1  0  0  0
 60131  1  0  0  0
 61132  1  0  0  0
 61133  1  0  0  0
 61134  1  0  0  0
 62135  1  0  0  0
 62136  1  0  0  0
 62137  1  0  0  0
 63 65  1  0  0  0
 63138  1  0  0  0
 63139  1  0  0  0
 63140  1  0  0  0
 64141  1  0  0  0
 65142  1  0  0  0
 68 78  1  0  0  0
 71 72  1  0  0  0
 71 73  2  0  0  0
 71143  1  0  0  0
 72 80  2  0  0  0
 72 83  1  0  0  0
 73 81  1  0  0  0
 73 82  1  0  0  0
 74144  1  0  0  0
 74145  1  0  0  0
 74146  1  0  0  0
 74 79  1  0  0  0
 75 76  1  0  0  0
 75 78  1  0  0  0
 75147  1  0  0  0
 75148  1  0  0  0
 76 79  1  0  0  0
 76149  1  0  0  0
 76150  1  0  0  0
 77 79  1  0  0  0
 77 81  1  0  0  0
 77151  1  0  0  0
 77152  1  0  0  0
 78153  1  0  0  0
 78154  1  0  0  0
 79155  1  0  0  0
 80 81  1  0  0  0
 82156  1  0  0  0
 82157  1  0  0  0
 83158  1  0  0  0
M  ISO  4   1 100  68 101  78 101  83 100
M  END
> <chiral flag>
0

> <version>
0

> <s_m_source_file>
/data/baiqing/PycharmProjects/Reinvent-master-3.2/result/LINK_invent/BTK/process_docking_weight1_custom_product_contain_oxygen_bond_distance_aromatic_linkinvent_7_9_3/rearranged_h_0195.sdf

> <i_m_source_file_index>
14

> <r_mmod_Potential_Energy-OPLS-2005>
-64.4853668212891

> <r_mmod_Stretch_Energy-OPLS-2005>
42.6524810791016

> <r_mmod_Bend_Energy-OPLS-2005>
118.782066345215

> <r_mmod_Torsional_Energy-OPLS-2005>
221.089065551758

> <r_mmod_Improper_Torsional_Energy-OPLS-2005>
5.20633506774902

> <r_mmod_Van_der_Waal_Energy-OPLS-2005>
140.39892578125

> <r_mmod_Electrostatic_Energy-OPLS-2005>
-404.553833007812

> <r_mmod_Solvation_Energy-OPLS-2005>
-208.1396484375

> <b_mmod_Minimization_Converged-OPLS-2005>
0

> <r_mmod_RMS_Derivative-OPLS-2005>
1.92437207698822

$$$$
14
                    3D
 Structure written by MMmdl.
151159  0  0  1  0            999 V2000
  -30.6141  -14.7269   20.4606 C   0  0  0  0  0  0
  -30.4326  -12.4388   19.4818 C   0  0  0  0  0  0
  -29.5142  -12.5097   18.2413 C   0  0  0  0  0  0
  -28.0382  -12.3391   18.6491 C   0  0  0  0  0  0
  -27.6465  -13.2316   19.8574 C   0  0  2  0  0  0
  -28.6886  -13.1479   20.9954 C   0  0  0  0  0  0
  -25.2525  -13.8200   20.5692 C   0  0  0  0  0  0
  -24.1809  -13.0446   20.9198 C   0  0  0  0  0  0
  -24.6398  -11.6924   20.8739 C   0  0  0  0  0  0
  -23.9072  -10.4299   21.0401 C   0  0  0  0  0  0
  -24.3620   -9.4214   21.9178 C   0  0  0  0  0  0
  -23.6296   -8.2249   22.0751 C   0  0  0  0  0  0
  -22.4276   -8.0283   21.3548 C   0  0  0  0  0  0
  -21.9912   -9.0257   20.4649 C   0  0  0  0  0  0
  -22.7242  -10.2137   20.3055 C   0  0  0  0  0  0
  -21.6858   -6.0737   22.5278 C   0  0  0  0  0  0
  -21.4020   -6.5640   23.8211 C   0  0  0  0  0  0
  -21.3661   -5.6791   24.9174 C   0  0  0  0  0  0
  -21.6041   -4.3053   24.7223 C   0  0  0  0  0  0
  -21.8819   -3.8147   23.4344 C   0  0  0  0  0  0
  -21.9195   -4.6964   22.3401 C   0  0  0  0  0  0
  -22.7827  -13.5224   21.1859 C   0  0  0  0  0  0
  -22.1660   -4.2148   21.0979 F   0  0  0  0  0  0
  -21.5630   -3.4538   25.7736 F   0  0  0  0  0  0
  -29.9975  -13.4951   20.4267 N   0  0  0  0  0  0
  -26.2958  -12.9409   20.3300 N   0  0  0  0  0  0
  -25.9332  -11.6551   20.5752 N   0  0  0  0  0  0
  -22.0471  -12.8219   22.0417 N   0  0  0  0  0  0
  -25.4220  -15.1924   20.4125 N   0  0  0  0  0  0
  -31.7860  -14.8304   20.0843 O   0  0  0  0  0  0
  -21.6645   -6.8877   21.4240 O   0  0  0  0  0  0
  -22.3505  -14.5525   20.6700 O   0  0  0  0  0  0
  -24.6312  -31.8555   23.1998 C   0  0  0  0  0  0
  -25.9138  -32.4755   23.8337 C   0  0  1  0  0  0
  -27.2163  -27.2589   20.1267 C   0  0  0  0  0  0
  -25.5932  -33.8557   24.2256 N   0  0  0  0  0  0
  -23.4279  -30.4805   21.5423 C   0  0  2  0  0  0
  -24.8750  -28.9326   20.1067 C   0  0  0  0  0  0
  -22.7501  -29.4607   22.4899 C   0  0  0  0  0  0
  -18.0294  -28.1390   22.8485 C   0  0  0  0  0  0
  -24.1491  -36.7288   23.2640 C   0  0  0  0  0  0
  -25.9747  -30.7669   21.3827 C   0  0  0  0  0  0
  -26.0456  -29.3900   20.7238 C   0  0  0  0  0  0
  -27.2159  -28.5640   20.7285 C   0  0  0  0  0  0
  -26.0275  -26.8873   19.4537 C   0  0  0  0  0  0
  -24.8719  -27.6895   19.4604 C   0  0  0  0  0  0
  -23.6465  -29.8192   20.1568 C   0  0  0  0  0  0
  -25.4116  -36.3069   24.0328 C   0  0  1  0  0  0
  -20.5898  -28.3703   23.1264 C   0  0  2  0  0  0
  -20.6782  -26.9422   22.5403 C   0  0  0  0  0  0
  -19.5755  -26.6385   21.5210 C   0  0  0  0  0  0
  -18.1937  -26.7931   22.1626 C   0  0  0  0  0  0
  -19.1547  -28.8863   23.2871 C   0  0  0  0  0  0
  -18.9467  -30.1461   23.8897 C   0  0  0  0  0  0
  -17.6465  -30.6592   24.0561 C   0  0  0  0  0  0
  -25.9056  -34.9440   23.5094 C   0  0  0  0  0  0
  -16.5357  -29.9088   23.6328 C   0  0  0  0  0  0
  -16.7279  -28.6503   23.0355 C   0  0  0  0  0  0
  -26.4503  -31.6583   25.0730 C   0  0  0  0  0  0
  -25.3718  -31.3733   26.1445 C   0  0  0  0  0  0
  -27.0353  -30.2998   24.6226 C   0  0  0  0  0  0
  -27.6054  -32.4326   25.7503 C   0  0  0  0  0  0
  -27.5579  -37.1801   24.8465 C   0  0  0  0  0  0
  -21.4206  -29.3049   22.3646 N   0  0  0  0  0  0
  -26.4291  -37.3769   23.9407 N   0  0  0  0  0  0
  -24.6969  -31.0520   22.0979 N   0  0  0  0  0  0
  -23.4202  -28.8138   23.2992 O   0  0  0  0  0  0
  -28.3020  -26.3506   20.2207 O   0  0  0  0  0  0
  -26.5630  -34.8916   22.4665 O   0  0  0  0  0  0
  -23.5462  -32.1375   23.7294 O   0  0  0  0  0  0
  -30.6122  -17.6200   19.1748 C   0  0  0  0  0  0
  -29.9842  -17.2581   20.3449 C   0  0  0  0  0  0
  -29.5777  -19.6124   20.3039 C   0  0  0  0  0  0
  -28.6539  -22.1775   19.9627 C   0  0  0  0  0  0
  -28.0992  -24.8936   19.8816 C   0  0  0  0  0  0
  -28.9272  -23.6656   20.5500 C   0  0  2  0  0  0
  -29.4032  -18.4253   20.9722 N   0  0  0  0  0  0
  -29.8584  -15.8457   20.7829 N   0  0  0  0  0  0
  -29.1385  -20.9353   20.6876 N   0  0  0  0  0  0
  -30.3772  -23.9286   20.5019 N   0  3  0  0  0  0
  -30.4761  -19.3402   18.8122 S   0  0  0  0  0  0
  -31.4763  -12.5519   19.1834 H   0  0  0  0  0  0
  -30.3651  -11.4575   19.9541 H   0  0  0  0  0  0
  -29.7940  -11.7408   17.5195 H   0  0  0  0  0  0
  -29.6489  -13.4677   17.7365 H   0  0  0  0  0  0
  -27.8874  -11.2891   18.9021 H   0  0  0  0  0  0
  -27.3847  -12.5430   17.8002 H   0  0  0  0  0  0
  -27.6469  -14.2572   19.4878 H   0  0  0  0  0  0
  -28.7146  -12.1440   21.4220 H   0  0  0  0  0  0
  -28.4223  -13.8176   21.8141 H   0  0  0  0  0  0
  -25.2767   -9.5693   22.4748 H   0  0  0  0  0  0
  -24.0010   -7.4641   22.7468 H   0  0  0  0  0  0
  -21.0844   -8.8775   19.8953 H   0  0  0  0  0  0
  -22.3698  -10.9673   19.6160 H   0  0  0  0  0  0
  -21.2012   -7.6148   23.9714 H   0  0  0  0  0  0
  -21.1483   -6.0523   25.9076 H   0  0  0  0  0  0
  -22.0596   -2.7610   23.2846 H   0  0  0  0  0  0
  -22.4092  -11.9894   22.4827 H   0  0  0  0  0  0
  -21.1079  -13.1236   22.2600 H   0  0  0  0  0  0
  -24.6561  -15.8470   20.5293 H   0  0  0  0  0  0
  -26.2712  -15.6348   20.0844 H   0  0  0  0  0  0
  -26.7205  -32.5404   23.1078 H   0  0  0  0  0  0
  -25.0058  -33.9689   25.0389 H   0  0  0  0  0  0
  -22.7250  -31.3039   21.3983 H   0  0  0  0  0  0
  -23.3751  -35.9623   23.3297 H   0  0  0  0  0  0
  -24.3580  -36.8915   22.2055 H   0  0  0  0  0  0
  -23.7251  -37.6492   23.6667 H   0  0  0  0  0  0
  -26.1156  -31.5278   20.6137 H   0  0  0  0  0  0
  -26.8519  -30.8140   22.0163 H   0  0  0  0  0  0
  -28.1063  -28.9056   21.2375 H   0  0  0  0  0  0
  -25.9471  -25.9541   18.9178 H   0  0  0  0  0  0
  -23.9801  -27.3411   18.9573 H   0  0  0  0  0  0
  -23.7724  -30.5981   19.4038 H   0  0  0  0  0  0
  -22.7645  -29.2546   19.8488 H   0  0  0  0  0  0
  -25.1300  -36.1912   25.0821 H   0  0  0  0  0  0
  -20.9998  -28.3287   24.1381 H   0  0  0  0  0  0
  -20.5683  -26.2317   23.3608 H   0  0  0  0  0  0
  -21.6648  -26.7443   22.1195 H   0  0  0  0  0  0
  -19.6915  -25.6293   21.1249 H   0  0  0  0  0  0
  -19.6693  -27.3189   20.6734 H   0  0  0  0  0  0
  -17.4203  -26.6677   21.4031 H   0  0  0  0  0  0
  -18.0342  -26.0075   22.9025 H   0  0  0  0  0  0
  -19.7942  -30.7275   24.2274 H   0  0  0  0  0  0
  -17.5019  -31.6274   24.5158 H   0  0  0  0  0  0
  -15.5358  -30.2992   23.7652 H   0  0  0  0  0  0
  -15.8679  -28.0819   22.7078 H   0  0  0  0  0  0
  -24.5892  -30.7089   25.7762 H   0  0  0  0  0  0
  -24.8913  -32.2903   26.4864 H   0  0  0  0  0  0
  -25.8026  -30.8903   27.0225 H   0  0  0  0  0  0
  -26.2941  -29.6741   24.1242 H   0  0  0  0  0  0
  -27.4017  -29.7269   25.4755 H   0  0  0  0  0  0
  -27.8828  -30.4268   23.9487 H   0  0  0  0  0  0
  -27.2659  -33.3625   26.2078 H   0  0  0  0  0  0
  -28.3867  -32.6890   25.0334 H   0  0  0  0  0  0
  -28.0724  -31.8454   26.5420 H   0  0  0  0  0  0
  -28.2594  -38.0099   24.7505 H   0  0  0  0  0  0
  -28.1077  -36.2629   24.6298 H   0  0  0  0  0  0
  -27.2294  -37.1458   25.8867 H   0  0  0  0  0  0
  -20.9389  -29.8777   21.6856 H   0  0  0  0  0  0
  -26.0168  -38.2843   24.1401 H   0  0  0  0  0  0
  -31.1247  -16.9777   18.4716 H   0  0  0  0  0  0
  -29.0156  -22.1304   18.9340 H   0  0  0  0  0  0
  -27.5717  -22.0627   19.8791 H   0  0  0  0  0  0
  -27.0676  -24.6296   20.1098 H   0  0  0  0  0  0
  -28.1912  -24.8149   18.7979 H   0  0  0  0  0  0
  -28.6517  -23.6541   21.6053 H   0  0  0  0  0  0
  -29.0035  -15.6320   21.2722 H   0  0  0  0  0  0
  -28.7737  -20.9066   21.6356 H   0  0  0  0  0  0
  -30.7098  -23.9826   19.5551 H   0  0  0  0  0  0
  -30.8684  -23.1850   20.9670 H   0  0  0  0  0  0
  -30.5963  -24.7942   20.9646 H   0  0  0  0  0  0
  1 25  1  0  0  0
  1 30  2  0  0  0
  1 78  1  0  0  0
  2  3  1  0  0  0
  2 25  1  0  0  0
  2 82  1  0  0  0
  2 83  1  0  0  0
  3  4  1  0  0  0
  3 84  1  0  0  0
  3 85  1  0  0  0
  4  5  1  0  0  0
  4 86  1  0  0  0
  4 87  1  0  0  0
  5  6  1  0  0  0
  5 26  1  0  0  0
  5 88  1  0  0  0
  6 25  1  0  0  0
  6 89  1  0  0  0
  6 90  1  0  0  0
  7  8  2  0  0  0
  7 26  1  0  0  0
  7 29  1  0  0  0
  8  9  1  0  0  0
  8 22  1  0  0  0
  9 10  1  0  0  0
  9 27  2  0  0  0
 10 11  2  0  0  0
 10 15  1  0  0  0
 11 12  1  0  0  0
 11 91  1  0  0  0
 12 13  2  0  0  0
 12 92  1  0  0  0
 13 14  1  0  0  0
 13 31  1  0  0  0
 14 15  2  0  0  0
 14 93  1  0  0  0
 15 94  1  0  0  0
 16 17  2  0  0  0
 16 21  1  0  0  0
 16 31  1  0  0  0
 17 18  1  0  0  0
 17 95  1  0  0  0
 18 19  2  0  0  0
 18 96  1  0  0  0
 19 20  1  0  0  0
 19 24  1  0  0  0
 20 21  2  0  0  0
 20 97  1  0  0  0
 21 23  1  0  0  0
 22 28  1  0  0  0
 22 32  2  0  0  0
 26 27  1  0  0  0
 28 98  1  0  0  0
 28 99  1  0  0  0
 29100  1  0  0  0
 29101  1  0  0  0
 33 34  1  0  0  0
 33 66  1  0  0  0
 33 70  2  0  0  0
 34 36  1  0  0  0
 34 59  1  0  0  0
 34102  1  0  0  0
 35 44  2  0  0  0
 35 45  1  0  0  0
 35 68  1  0  0  0
 36 56  1  0  0  0
 36103  1  0  0  0
 37 39  1  0  0  0
 37 47  1  0  0  0
 37 66  1  0  0  0
 37104  1  0  0  0
 38 43  2  0  0  0
 38 46  1  0  0  0
 38 47  1  0  0  0
 39 64  1  0  0  0
 39 67  2  0  0  0
 40 52  1  0  0  0
 40 53  2  0  0  0
 40 58  1  0  0  0
 41105  1  0  0  0
 41106  1  0  0  0
 41107  1  0  0  0
 41 48  1  0  0  0
 42 43  1  0  0  0
 42 66  1  0  0  0
 42108  1  0  0  0
 42109  1  0  0  0
 43 44  1  0  0  0
 44110  1  0  0  0
 45 46  2  0  0  0
 45111  1  0  0  0
 46112  1  0  0  0
 47113  1  0  0  0
 47114  1  0  0  0
 48 56  1  0  0  0
 48 65  1  0  0  0
 48115  1  0  0  0
 49 50  1  0  0  0
 49 53  1  0  0  0
 49 64  1  0  0  0
 49116  1  0  0  0
 50 51  1  0  0  0
 50117  1  0  0  0
 50118  1  0  0  0
 51 52  1  0  0  0
 51119  1  0  0  0
 51120  1  0  0  0
 52121  1  0  0  0
 52122  1  0  0  0
 53 54  1  0  0  0
 54 55  2  0  0  0
 54123  1  0  0  0
 55 57  1  0  0  0
 55124  1  0  0  0
 56 69  2  0  0  0
 57 58  2  0  0  0
 57125  1  0  0  0
 58126  1  0  0  0
 59 60  1  0  0  0
 59 61  1  0  0  0
 59 62  1  0  0  0
 60127  1  0  0  0
 60128  1  0  0  0
 60129  1  0  0  0
 61130  1  0  0  0
 61131  1  0  0  0
 61132  1  0  0  0
 62133  1  0  0  0
 62134  1  0  0  0
 62135  1  0  0  0
 63 65  1  0  0  0
 63136  1  0  0  0
 63137  1  0  0  0
 63138  1  0  0  0
 64139  1  0  0  0
 65140  1  0  0  0
 68 75  1  0  0  0
 71 72  2  0  0  0
 71 81  1  0  0  0
 71141  1  0  0  0
 72 77  1  0  0  0
 72 78  1  0  0  0
 73 77  2  0  0  0
 73 79  1  0  0  0
 73 81  1  0  0  0
 74 76  1  0  0  0
 74 79  1  0  0  0
 74142  1  0  0  0
 74143  1  0  0  0
 75 76  1  0  0  0
 75144  1  0  0  0
 75145  1  0  0  0
 76 80  1  0  0  0
 76146  1  0  0  0
 78147  1  0  0  0
 79148  1  0  0  0
 80149  1  0  0  0
 80150  1  0  0  0
 80151  1  0  0  0
M  CHG  1  80   1
M  ISO  4   1 100  68 101  75 101  78 100
M  END
> <chiral flag>
0

> <version>
0

> <s_m_source_file>
/data/baiqing/PycharmProjects/Reinvent-master-3.2/result/LINK_invent/BTK/process_docking_weight1_custom_product_contain_oxygen_bond_distance_aromatic_linkinvent_7_9_3/rearranged_h_0195.sdf

> <i_m_source_file_index>
15

> <r_mmod_Potential_Energy-OPLS-2005>
-136.475250244141

> <r_mmod_Stretch_Energy-OPLS-2005>
115.597282409668

> <r_mmod_Bend_Energy-OPLS-2005>
157.320663452148

> <r_mmod_Torsional_Energy-OPLS-2005>
250.177474975586

> <r_mmod_Improper_Torsional_Energy-OPLS-2005>
5.4261302947998

> <r_mmod_Van_der_Waal_Energy-OPLS-2005>
121.403312683105

> <r_mmod_Electrostatic_Energy-OPLS-2005>
-386.228546142578

> <r_mmod_Solvation_Energy-OPLS-2005>
-483.310455322266

> <b_mmod_Minimization_Converged-OPLS-2005>
0

> <r_mmod_RMS_Derivative-OPLS-2005>
0.689369261264801

$$$$
15
                    3D
 Structure written by MMmdl.
161169  0  0  1  0            999 V2000
  -30.6083  -14.7603   20.4369 C   0  0  0  0  0  0
  -30.4353  -12.4540   19.4927 C   0  0  0  0  0  0
  -29.5195  -12.5101   18.2499 C   0  0  0  0  0  0
  -28.0434  -12.3415   18.6554 C   0  0  0  0  0  0
  -27.6462  -13.2367   19.8590 C   0  0  2  0  0  0
  -28.6894  -13.1758   20.9978 C   0  0  0  0  0  0
  -25.2517  -13.8204   20.5709 C   0  0  0  0  0  0
  -24.1811  -13.0448   20.9213 C   0  0  0  0  0  0
  -24.6404  -11.6927   20.8748 C   0  0  0  0  0  0
  -23.9074  -10.4303   21.0405 C   0  0  0  0  0  0
  -24.3625   -9.4213   21.9179 C   0  0  0  0  0  0
  -23.6306   -8.2243   22.0745 C   0  0  0  0  0  0
  -22.4282   -8.0284   21.3539 C   0  0  0  0  0  0
  -21.9921   -9.0260   20.4639 C   0  0  0  0  0  0
  -22.7247  -10.2141   20.3052 C   0  0  0  0  0  0
  -21.6861   -6.0737   22.5280 C   0  0  0  0  0  0
  -21.4009   -6.5637   23.8212 C   0  0  0  0  0  0
  -21.3663   -5.6790   24.9174 C   0  0  0  0  0  0
  -21.6053   -4.3054   24.7226 C   0  0  0  0  0  0
  -21.8819   -3.8146   23.4345 C   0  0  0  0  0  0
  -21.9191   -4.6964   22.3401 C   0  0  0  0  0  0
  -22.7828  -13.5226   21.1884 C   0  0  0  0  0  0
  -22.1666   -4.2143   21.0983 F   0  0  0  0  0  0
  -21.5631   -3.4540   25.7741 F   0  0  0  0  0  0
  -29.9972  -13.5225   20.4247 N   0  0  0  0  0  0
  -26.2956  -12.9424   20.3314 N   0  0  0  0  0  0
  -25.9339  -11.6560   20.5764 N   0  0  0  0  0  0
  -22.0476  -12.8205   22.0435 N   0  0  0  0  0  0
  -25.4226  -15.1929   20.4121 N   0  0  0  0  0  0
  -31.7732  -14.8692   20.0521 O   0  0  0  0  0  0
  -21.6646   -6.8879   21.4239 O   0  0  0  0  0  0
  -22.3506  -14.5536   20.6737 O   0  0  0  0  0  0
  -24.6345  -31.8523   23.1959 C   0  0  0  0  0  0
  -25.9163  -32.4740   23.8311 C   0  0  1  0  0  0
  -27.2225  -27.2342   20.1309 C   0  0  0  0  0  0
  -25.5951  -33.8544   24.2249 N   0  0  0  0  0  0
  -23.4342  -30.4751   21.5369 C   0  0  2  0  0  0
  -24.8827  -28.9183   20.1069 C   0  0  0  0  0  0
  -22.7531  -29.4597   22.4861 C   0  0  0  0  0  0
  -18.0302  -28.1415   22.8481 C   0  0  0  0  0  0
  -24.1487  -36.7280   23.2635 C   0  0  0  0  0  0
  -25.9821  -30.7553   21.3815 C   0  0  0  0  0  0
  -26.0539  -29.3754   20.7241 C   0  0  0  0  0  0
  -27.2244  -28.5451   20.7268 C   0  0  0  0  0  0
  -26.0304  -26.8587   19.4702 C   0  0  0  0  0  0
  -24.8793  -27.6717   19.4652 C   0  0  0  0  0  0
  -23.6548  -29.8087   20.1535 C   0  0  0  0  0  0
  -25.4116  -36.3067   24.0322 C   0  0  1  0  0  0
  -20.5909  -28.3735   23.1252 C   0  0  2  0  0  0
  -20.6799  -26.9445   22.5408 C   0  0  0  0  0  0
  -19.5775  -26.6399   21.5221 C   0  0  0  0  0  0
  -18.1953  -26.7954   22.1625 C   0  0  0  0  0  0
  -19.1557  -28.8889   23.2859 C   0  0  0  0  0  0
  -18.9475  -30.1478   23.8890 C   0  0  0  0  0  0
  -17.6469  -30.6603   24.0578 C   0  0  0  0  0  0
  -25.9056  -34.9433   23.5089 C   0  0  0  0  0  0
  -16.5361  -29.9101   23.6337 C   0  0  0  0  0  0
  -16.7288  -28.6527   23.0353 C   0  0  0  0  0  0
  -26.4512  -31.6580   25.0718 C   0  0  0  0  0  0
  -25.3713  -31.3751   26.1431 C   0  0  0  0  0  0
  -27.0363  -30.2988   24.6238 C   0  0  0  0  0  0
  -27.6072  -32.4319   25.7487 C   0  0  0  0  0  0
  -27.5573  -37.1796   24.8466 C   0  0  0  0  0  0
  -21.4228  -29.3070   22.3622 N   0  0  0  0  0  0
  -26.4290  -37.3771   23.9403 N   0  0  0  0  0  0
  -24.7030  -31.0459   22.0950 N   0  0  0  0  0  0
  -23.4214  -28.8130   23.2976 O   0  0  0  0  0  0
  -28.3074  -26.3182   20.2115 O   0  0  0  0  0  0
  -26.5622  -34.8916   22.4650 O   0  0  0  0  0  0
  -23.5488  -32.1352   23.7228 O   0  0  0  0  0  0
  -31.2523  -20.2562   21.9442 C   0  0  0  0  0  0
  -31.0874  -18.9195   21.5107 C   0  0  0  0  0  0
  -30.0369  -18.6827   20.5933 C   0  0  0  0  0  0
  -29.5585  -21.0399   20.6251 C   0  0  0  0  0  0
  -34.1890  -18.9208   22.3211 C   0  0  0  0  0  0
  -33.5109  -18.1085   20.0076 C   0  0  0  0  0  0
  -29.8517  -17.2397   19.9208 C   0  0  0  0  0  0
  -29.0998  -23.6717   20.5029 C   0  0  0  0  0  0
  -28.0789  -24.8360   19.9828 C   0  0  0  0  0  0
  -33.3452  -17.9170   21.5242 C   0  0  0  0  0  0
  -30.5058  -21.2911   21.5068 N   0  0  0  0  0  0
  -29.2912  -19.7819   20.1608 N   0  0  0  0  0  0
  -31.9410  -17.8851   21.9408 N   0  0  0  0  0  0
  -28.8346  -22.1988   20.1788 N   0  0  0  0  0  0
  -29.8300  -15.8864   20.6536 N   0  0  0  0  0  0
  -31.4794  -12.5645   19.1961 H   0  0  0  0  0  0
  -30.3674  -11.4779   19.9761 H   0  0  0  0  0  0
  -29.8009  -11.7349   17.5363 H   0  0  0  0  0  0
  -29.6542  -13.4636   17.7369 H   0  0  0  0  0  0
  -27.8904  -11.2920   18.9097 H   0  0  0  0  0  0
  -27.3913  -12.5434   17.8048 H   0  0  0  0  0  0
  -27.6396  -14.2586   19.4799 H   0  0  0  0  0  0
  -28.7177  -12.1812   21.4444 H   0  0  0  0  0  0
  -28.4213  -13.8625   21.8017 H   0  0  0  0  0  0
  -25.2767   -9.5686   22.4758 H   0  0  0  0  0  0
  -24.0019   -7.4625   22.7452 H   0  0  0  0  0  0
  -21.0857   -8.8775   19.8946 H   0  0  0  0  0  0
  -22.3702  -10.9679   19.6165 H   0  0  0  0  0  0
  -21.1992   -7.6142   23.9710 H   0  0  0  0  0  0
  -21.1495   -6.0521   25.9077 H   0  0  0  0  0  0
  -22.0593   -2.7605   23.2851 H   0  0  0  0  0  0
  -22.4106  -11.9874   22.4830 H   0  0  0  0  0  0
  -21.1084  -13.1205   22.2633 H   0  0  0  0  0  0
  -24.6552  -15.8480   20.5093 H   0  0  0  0  0  0
  -26.2682  -15.6271   20.0662 H   0  0  0  0  0  0
  -26.7226  -32.5379   23.1038 H   0  0  0  0  0  0
  -25.0125  -33.9683   25.0419 H   0  0  0  0  0  0
  -22.7335  -31.2988   21.3887 H   0  0  0  0  0  0
  -23.3747  -35.9616   23.3301 H   0  0  0  0  0  0
  -24.3573  -36.8906   22.2050 H   0  0  0  0  0  0
  -23.7248  -37.6486   23.6658 H   0  0  0  0  0  0
  -26.1264  -31.5131   20.6097 H   0  0  0  0  0  0
  -26.8593  -30.8033   22.0168 H   0  0  0  0  0  0
  -28.1179  -28.8849   21.2301 H   0  0  0  0  0  0
  -25.9556  -25.9086   18.9618 H   0  0  0  0  0  0
  -23.9855  -27.3265   18.9626 H   0  0  0  0  0  0
  -23.7833  -30.5855   19.3988 H   0  0  0  0  0  0
  -22.7731  -29.2433   19.8454 H   0  0  0  0  0  0
  -25.1292  -36.1911   25.0815 H   0  0  0  0  0  0
  -21.0006  -28.3337   24.1370 H   0  0  0  0  0  0
  -20.5739  -26.2337   23.3619 H   0  0  0  0  0  0
  -21.6659  -26.7493   22.1174 H   0  0  0  0  0  0
  -19.6940  -25.6307   21.1263 H   0  0  0  0  0  0
  -19.6718  -27.3204   20.6746 H   0  0  0  0  0  0
  -17.4221  -26.6708   21.4022 H   0  0  0  0  0  0
  -18.0344  -26.0104   22.9026 H   0  0  0  0  0  0
  -19.7948  -30.7307   24.2258 H   0  0  0  0  0  0
  -17.5027  -31.6283   24.5187 H   0  0  0  0  0  0
  -15.5368  -30.3011   23.7667 H   0  0  0  0  0  0
  -15.8689  -28.0853   22.7065 H   0  0  0  0  0  0
  -24.5894  -30.7100   25.7745 H   0  0  0  0  0  0
  -24.8889  -32.2926   26.4809 H   0  0  0  0  0  0
  -25.7995  -30.8950   27.0237 H   0  0  0  0  0  0
  -26.2957  -29.6735   24.1244 H   0  0  0  0  0  0
  -27.4008  -29.7261   25.4775 H   0  0  0  0  0  0
  -27.8849  -30.4245   23.9514 H   0  0  0  0  0  0
  -27.2694  -33.3623   26.2053 H   0  0  0  0  0  0
  -28.3879  -32.6873   25.0313 H   0  0  0  0  0  0
  -28.0745  -31.8453   26.5409 H   0  0  0  0  0  0
  -28.2598  -38.0084   24.7495 H   0  0  0  0  0  0
  -28.1054  -36.2611   24.6299 H   0  0  0  0  0  0
  -27.2282  -37.1458   25.8868 H   0  0  0  0  0  0
  -20.9424  -29.8759   21.6794 H   0  0  0  0  0  0
  -26.0162  -38.2841   24.1410 H   0  0  0  0  0  0
  -32.0108  -20.5135   22.6671 H   0  0  0  0  0  0
  -35.2501  -18.6963   22.2043 H   0  0  0  0  0  0
  -33.9660  -18.8746   23.3873 H   0  0  0  0  0  0
  -34.0540  -19.9468   21.9818 H   0  0  0  0  0  0
  -34.5611  -18.0421   19.7198 H   0  0  0  0  0  0
  -33.1495  -19.0805   19.6735 H   0  0  0  0  0  0
  -32.9838  -17.3380   19.4442 H   0  0  0  0  0  0
  -30.6234  -17.1767   19.1547 H   0  0  0  0  0  0
  -28.9192  -17.2866   19.3587 H   0  0  0  0  0  0
  -29.1830  -23.7504   21.5879 H   0  0  0  0  0  0
  -30.0960  -23.9019   20.1241 H   0  0  0  0  0  0
  -27.1051  -24.5841   20.4070 H   0  0  0  0  0  0
  -27.9809  -24.7127   18.9036 H   0  0  0  0  0  0
  -33.7367  -16.9239   21.7578 H   0  0  0  0  0  0
  -31.5415  -16.9546   21.8201 H   0  0  0  0  0  0
  -28.1144  -22.0130   19.4910 H   0  0  0  0  0  0
  -28.9410  -15.6834   21.0814 H   0  0  0  0  0  0
  1 25  1  0  0  0
  1 30  2  0  0  0
  1 85  1  0  0  0
  2  3  1  0  0  0
  2 25  1  0  0  0
  2 86  1  0  0  0
  2 87  1  0  0  0
  3  4  1  0  0  0
  3 88  1  0  0  0
  3 89  1  0  0  0
  4  5  1  0  0  0
  4 90  1  0  0  0
  4 91  1  0  0  0
  5  6  1  0  0  0
  5 26  1  0  0  0
  5 92  1  0  0  0
  6 25  1  0  0  0
  6 93  1  0  0  0
  6 94  1  0  0  0
  7  8  2  0  0  0
  7 26  1  0  0  0
  7 29  1  0  0  0
  8  9  1  0  0  0
  8 22  1  0  0  0
  9 10  1  0  0  0
  9 27  2  0  0  0
 10 11  2  0  0  0
 10 15  1  0  0  0
 11 12  1  0  0  0
 11 95  1  0  0  0
 12 13  2  0  0  0
 12 96  1  0  0  0
 13 14  1  0  0  0
 13 31  1  0  0  0
 14 15  2  0  0  0
 14 97  1  0  0  0
 15 98  1  0  0  0
 16 17  2  0  0  0
 16 21  1  0  0  0
 16 31  1  0  0  0
 17 18  1  0  0  0
 17 99  1  0  0  0
 18 19  2  0  0  0
 18100  1  0  0  0
 19 20  1  0  0  0
 19 24  1  0  0  0
 20 21  2  0  0  0
 20101  1  0  0  0
 21 23  1  0  0  0
 22 28  1  0  0  0
 22 32  2  0  0  0
 26 27  1  0  0  0
 28102  1  0  0  0
 28103  1  0  0  0
 29104  1  0  0  0
 29105  1  0  0  0
 33 34  1  0  0  0
 33 66  1  0  0  0
 33 70  2  0  0  0
 34 36  1  0  0  0
 34 59  1  0  0  0
 34106  1  0  0  0
 35 44  2  0  0  0
 35 45  1  0  0  0
 35 68  1  0  0  0
 36 56  1  0  0  0
 36107  1  0  0  0
 37 39  1  0  0  0
 37 47  1  0  0  0
 37 66  1  0  0  0
 37108  1  0  0  0
 38 43  2  0  0  0
 38 46  1  0  0  0
 38 47  1  0  0  0
 39 64  1  0  0  0
 39 67  2  0  0  0
 40 52  1  0  0  0
 40 53  2  0  0  0
 40 58  1  0  0  0
 41109  1  0  0  0
 41110  1  0  0  0
 41111  1  0  0  0
 41 48  1  0  0  0
 42 43  1  0  0  0
 42 66  1  0  0  0
 42112  1  0  0  0
 42113  1  0  0  0
 43 44  1  0  0  0
 44114  1  0  0  0
 45 46  2  0  0  0
 45115  1  0  0  0
 46116  1  0  0  0
 47117  1  0  0  0
 47118  1  0  0  0
 48 56  1  0  0  0
 48 65  1  0  0  0
 48119  1  0  0  0
 49 50  1  0  0  0
 49 53  1  0  0  0
 49 64  1  0  0  0
 49120  1  0  0  0
 50 51  1  0  0  0
 50121  1  0  0  0
 50122  1  0  0  0
 51 52  1  0  0  0
 51123  1  0  0  0
 51124  1  0  0  0
 52125  1  0  0  0
 52126  1  0  0  0
 53 54  1  0  0  0
 54 55  2  0  0  0
 54127  1  0  0  0
 55 57  1  0  0  0
 55128  1  0  0  0
 56 69  2  0  0  0
 57 58  2  0  0  0
 57129  1  0  0  0
 58130  1  0  0  0
 59 60  1  0  0  0
 59 61  1  0  0  0
 59 62  1  0  0  0
 60131  1  0  0  0
 60132  1  0  0  0
 60133  1  0  0  0
 61134  1  0  0  0
 61135  1  0  0  0
 61136  1  0  0  0
 62137  1  0  0  0
 62138  1  0  0  0
 62139  1  0  0  0
 63 65  1  0  0  0
 63140  1  0  0  0
 63141  1  0  0  0
 63142  1  0  0  0
 64143  1  0  0  0
 65144  1  0  0  0
 68 79  1  0  0  0
 71 72  2  0  0  0
 71 81  1  0  0  0
 71145  1  0  0  0
 72 73  1  0  0  0
 72 83  1  0  0  0
 73 77  1  0  0  0
 73 82  2  0  0  0
 74 81  2  0  0  0
 74 82  1  0  0  0
 74 84  1  0  0  0
 75146  1  0  0  0
 75147  1  0  0  0
 75148  1  0  0  0
 75 80  1  0  0  0
 76 80  1  0  0  0
 76149  1  0  0  0
 76150  1  0  0  0
 76151  1  0  0  0
 77 85  1  0  0  0
 77152  1  0  0  0
 77153  1  0  0  0
 78 79  1  0  0  0
 78 84  1  0  0  0
 78154  1  0  0  0
 78155  1  0  0  0
 79156  1  0  0  0
 79157  1  0  0  0
 80 83  1  0  0  0
 80158  1  0  0  0
 83159  1  0  0  0
 84160  1  0  0  0
 85161  1  0  0  0
M  ISO  4   1 100  68 101  79 101  85 100
M  END
> <chiral flag>
0

> <version>
0

> <s_m_source_file>
/data/baiqing/PycharmProjects/Reinvent-master-3.2/result/LINK_invent/BTK/process_docking_weight1_custom_product_contain_oxygen_bond_distance_aromatic_linkinvent_7_9_3/rearranged_h_0195.sdf

> <i_m_source_file_index>
16

> <r_mmod_Potential_Energy-OPLS-2005>
-453.750213623047

> <r_mmod_Stretch_Energy-OPLS-2005>
133.33625793457

> <r_mmod_Bend_Energy-OPLS-2005>
188.267807006836

> <r_mmod_Torsional_Energy-OPLS-2005>
213.620452880859

> <r_mmod_Improper_Torsional_Energy-OPLS-2005>
12.407322883606

> <r_mmod_Van_der_Waal_Energy-OPLS-2005>
142.817398071289

> <r_mmod_Electrostatic_Energy-OPLS-2005>
-986.835754394531

> <r_mmod_Solvation_Energy-OPLS-2005>
-255.52490234375

> <b_mmod_Minimization_Converged-OPLS-2005>
0

> <r_mmod_RMS_Derivative-OPLS-2005>
2.05800223350525

$$$$
16
                    3D
 Structure written by MMmdl.
172180  0  0  1  0            999 V2000
  -30.7032  -14.4920   20.5873 C   0  0  0  0  0  0
  -30.4198  -12.3288   19.4304 C   0  0  0  0  0  0
  -29.5005  -12.5479   18.2108 C   0  0  0  0  0  0
  -28.0148  -12.4137   18.6033 C   0  0  0  0  0  0
  -27.6600  -13.2250   19.8807 C   0  0  2  0  0  0
  -28.6992  -13.0116   21.0047 C   0  0  0  0  0  0
  -25.2553  -13.8208   20.5723 C   0  0  0  0  0  0
  -24.1856  -13.0469   20.9200 C   0  0  0  0  0  0
  -24.6443  -11.6938   20.8738 C   0  0  0  0  0  0
  -23.9135  -10.4321   21.0395 C   0  0  0  0  0  0
  -24.3652   -9.4238   21.9208 C   0  0  0  0  0  0
  -23.6325   -8.2263   22.0792 C   0  0  0  0  0  0
  -22.4313   -8.0287   21.3553 C   0  0  0  0  0  0
  -21.9970   -9.0255   20.4638 C   0  0  0  0  0  0
  -22.7313  -10.2133   20.3046 C   0  0  0  0  0  0
  -21.6856   -6.0754   22.5300 C   0  0  0  0  0  0
  -21.3985   -6.5648   23.8229 C   0  0  0  0  0  0
  -21.3633   -5.6800   24.9185 C   0  0  0  0  0  0
  -21.6051   -4.3072   24.7233 C   0  0  0  0  0  0
  -21.8805   -3.8176   23.4350 C   0  0  0  0  0  0
  -21.9200   -4.6992   22.3410 C   0  0  0  0  0  0
  -22.7852  -13.5217   21.1859 C   0  0  0  0  0  0
  -22.1674   -4.2180   21.0975 F   0  0  0  0  0  0
  -21.5630   -3.4560   25.7743 F   0  0  0  0  0  0
  -30.0315  -13.3155   20.4583 N   0  0  0  0  0  0
  -26.3026  -12.9421   20.3405 N   0  0  0  0  0  0
  -25.9374  -11.6560   20.5800 N   0  0  0  0  0  0
  -22.0458  -12.8187   22.0333 N   0  0  0  0  0  0
  -25.4255  -15.1960   20.4098 N   0  0  0  0  0  0
  -31.8443  -14.6197   20.1285 O   0  0  0  0  0  0
  -21.6650   -6.8902   21.4268 O   0  0  0  0  0  0
  -22.3531  -14.5553   20.6751 O   0  0  0  0  0  0
  -24.6154  -31.8653   23.2075 C   0  0  0  0  0  0
  -25.9071  -32.4798   23.8379 C   0  0  1  0  0  0
  -27.2418  -27.4363   20.1000 C   0  0  0  0  0  0
  -25.5919  -33.8576   24.2299 N   0  0  0  0  0  0
  -23.4006  -30.4844   21.5489 C   0  0  2  0  0  0
  -24.8485  -28.9494   20.1101 C   0  0  0  0  0  0
  -22.7407  -29.4662   22.5038 C   0  0  0  0  0  0
  -18.0239  -28.1415   22.8562 C   0  0  0  0  0  0
  -24.1440  -36.7245   23.2657 C   0  0  0  0  0  0
  -25.9255  -30.8341   21.3516 C   0  0  0  0  0  0
  -26.0013  -29.4637   20.7126 C   0  0  0  0  0  0
  -27.1962  -28.7134   20.7066 C   0  0  0  0  0  0
  -26.0681  -26.9329   19.4905 C   0  0  0  0  0  0
  -24.8778  -27.6872   19.4933 C   0  0  0  0  0  0
  -23.6081  -29.8113   20.1613 C   0  0  0  0  0  0
  -25.4080  -36.3041   24.0339 C   0  0  1  0  0  0
  -20.5840  -28.3720   23.1356 C   0  0  2  0  0  0
  -20.6753  -26.9458   22.5451 C   0  0  0  0  0  0
  -19.5704  -26.6430   21.5290 C   0  0  0  0  0  0
  -18.1873  -26.7973   22.1649 C   0  0  0  0  0  0
  -19.1491  -28.8892   23.2969 C   0  0  0  0  0  0
  -18.9401  -30.1503   23.8995 C   0  0  0  0  0  0
  -17.6388  -30.6636   24.0629 C   0  0  0  0  0  0
  -25.9052  -34.9436   23.5121 C   0  0  0  0  0  0
  -16.5300  -29.9138   23.6365 C   0  0  0  0  0  0
  -16.7218  -28.6542   23.0434 C   0  0  0  0  0  0
  -26.4500  -31.6591   25.0700 C   0  0  0  0  0  0
  -25.3719  -31.3500   26.1344 C   0  0  0  0  0  0
  -27.0463  -30.3100   24.6027 C   0  0  0  0  0  0
  -27.6007  -32.4365   25.7524 C   0  0  0  0  0  0
  -27.5562  -37.1737   24.8463 C   0  0  0  0  0  0
  -21.4131  -29.3085   22.3788 N   0  0  0  0  0  0
  -26.4218  -37.3792   23.9497 N   0  0  0  0  0  0
  -24.6671  -31.0763   22.0967 N   0  0  0  0  0  0
  -23.4184  -28.8210   23.3085 O   0  0  0  0  0  0
  -28.4355  -26.7417   20.1524 O   0  0  0  0  0  0
  -26.5653  -34.8925   22.4698 O   0  0  0  0  0  0
  -23.5342  -32.1446   23.7441 O   0  0  0  0  0  0
  -31.3827  -18.7814   20.1972 C   0  0  0  0  0  0
  -30.1881  -19.4052   20.4880 C   0  0  0  0  0  0
  -30.2447  -16.9353   20.9472 C   0  0  0  0  0  0
  -32.8453  -18.7677   18.1737 C   0  0  0  0  0  0
  -33.5611  -19.8979   21.9091 C   0  0  0  0  0  0
  -35.0421  -20.1504   19.8928 C   0  0  0  0  0  0
  -29.6298  -21.6721   22.4326 C   0  0  0  0  0  0
  -29.4635  -23.1786   20.3674 C   0  0  0  0  0  0
  -28.5997  -25.4679   19.5092 C   0  0  0  0  0  0
  -32.5995  -19.4065   19.5566 C   0  0  2  0  0  0
  -33.8498  -19.3734   20.4853 C   0  0  0  0  0  0
  -29.1967  -21.7467   20.9548 C   0  0  1  0  0  0
  -28.2803  -24.2202   20.4016 C   0  0  2  0  0  0
  -31.4068  -17.4137   20.4903 N   0  0  0  0  0  0
  -29.9033  -20.7466   20.1436 N   0  0  0  0  0  0
  -30.0140  -15.5240   21.1393 N   0  0  0  0  0  0
  -27.8915  -24.6298   21.7843 N   0  3  0  0  0  0
  -29.0543  -18.2446   21.1928 S   0  0  0  0  0  0
  -31.4669  -12.4179   19.1343 H   0  0  0  0  0  0
  -30.3149  -11.3118   19.8149 H   0  0  0  0  0  0
  -29.7482  -11.8483   17.4123 H   0  0  0  0  0  0
  -29.6736  -13.5428   17.7998 H   0  0  0  0  0  0
  -27.7941  -11.3578   18.7554 H   0  0  0  0  0  0
  -27.3814  -12.7424   17.7795 H   0  0  0  0  0  0
  -27.7013  -14.2798   19.6010 H   0  0  0  0  0  0
  -28.6696  -11.9803   21.3604 H   0  0  0  0  0  0
  -28.4622  -13.6287   21.8738 H   0  0  0  0  0  0
  -25.2780   -9.5715   22.4823 H   0  0  0  0  0  0
  -24.0030   -7.4662   22.7532 H   0  0  0  0  0  0
  -21.0924   -8.8750   19.8910 H   0  0  0  0  0  0
  -22.3796  -10.9661   19.6127 H   0  0  0  0  0  0
  -21.1922   -7.6151   23.9749 H   0  0  0  0  0  0
  -21.1466   -6.0516   25.9084 H   0  0  0  0  0  0
  -22.0600   -2.7649   23.2847 H   0  0  0  0  0  0
  -22.4014  -11.9755   22.4623 H   0  0  0  0  0  0
  -21.1058  -13.1206   22.2555 H   0  0  0  0  0  0
  -24.6510  -15.8450   20.4954 H   0  0  0  0  0  0
  -26.2700  -15.6371   20.0667 H   0  0  0  0  0  0
  -26.7142  -32.5469   23.1149 H   0  0  0  0  0  0
  -25.0112  -33.9779   25.0468 H   0  0  0  0  0  0
  -22.6885  -31.2997   21.4008 H   0  0  0  0  0  0
  -23.3761  -35.9503   23.3138 H   0  0  0  0  0  0
  -24.3604  -36.9072   22.2127 H   0  0  0  0  0  0
  -23.7083  -37.6328   23.6822 H   0  0  0  0  0  0
  -26.0172  -31.5892   20.5719 H   0  0  0  0  0  0
  -26.8238  -30.9060   21.9532 H   0  0  0  0  0  0
  -28.0847  -29.1138   21.1753 H   0  0  0  0  0  0
  -26.0392  -25.9654   19.0092 H   0  0  0  0  0  0
  -23.9947  -27.2875   19.0146 H   0  0  0  0  0  0
  -23.7092  -30.5840   19.3980 H   0  0  0  0  0  0
  -22.7358  -29.2243   19.8674 H   0  0  0  0  0  0
  -25.1246  -36.1851   25.0821 H   0  0  0  0  0  0
  -20.9947  -28.3245   24.1464 H   0  0  0  0  0  0
  -20.5730  -26.2337   23.3652 H   0  0  0  0  0  0
  -21.6600  -26.7571   22.1140 H   0  0  0  0  0  0
  -19.6875  -25.6346   21.1319 H   0  0  0  0  0  0
  -19.6630  -27.3282   20.6845 H   0  0  0  0  0  0
  -17.4185  -26.6866   21.3994 H   0  0  0  0  0  0
  -18.0162  -26.0076   22.8966 H   0  0  0  0  0  0
  -19.7848  -30.7342   24.2392 H   0  0  0  0  0  0
  -17.4900  -31.6294   24.5228 H   0  0  0  0  0  0
  -15.5302  -30.3063   23.7642 H   0  0  0  0  0  0
  -15.8595  -28.0866   22.7169 H   0  0  0  0  0  0
  -24.6052  -30.6740   25.7532 H   0  0  0  0  0  0
  -24.8719  -32.2541   26.4801 H   0  0  0  0  0  0
  -25.8036  -30.8623   27.0094 H   0  0  0  0  0  0
  -26.3031  -29.6709   24.1232 H   0  0  0  0  0  0
  -27.4527  -29.7441   25.4440 H   0  0  0  0  0  0
  -27.8673  -30.4559   23.9000 H   0  0  0  0  0  0
  -27.2638  -33.3764   26.1896 H   0  0  0  0  0  0
  -28.3936  -32.6762   25.0433 H   0  0  0  0  0  0
  -28.0515  -31.8598   26.5623 H   0  0  0  0  0  0
  -28.2346  -38.0240   24.7820 H   0  0  0  0  0  0
  -28.1262  -36.2808   24.5883 H   0  0  0  0  0  0
  -27.2328  -37.0863   25.8845 H   0  0  0  0  0  0
  -20.9337  -29.8816   21.6997 H   0  0  0  0  0  0
  -26.0015  -38.2776   24.1706 H   0  0  0  0  0  0
  -31.9409  -18.7903   17.5667 H   0  0  0  0  0  0
  -33.1433  -17.7227   18.2688 H   0  0  0  0  0  0
  -33.6183  -19.2899   17.6166 H   0  0  0  0  0  0
  -34.4599  -19.8763   22.5279 H   0  0  0  0  0  0
  -32.8148  -19.2983   22.4288 H   0  0  0  0  0  0
  -33.2044  -20.9285   21.8921 H   0  0  0  0  0  0
  -35.8921  -20.1462   20.5766 H   0  0  0  0  0  0
  -34.7840  -21.1939   19.6987 H   0  0  0  0  0  0
  -35.3923  -19.7135   18.9597 H   0  0  0  0  0  0
  -29.1746  -22.4606   23.0307 H   0  0  0  0  0  0
  -30.7090  -21.7779   22.5418 H   0  0  0  0  0  0
  -29.3470  -20.7284   22.8973 H   0  0  0  0  0  0
  -29.7490  -23.0570   19.3156 H   0  0  0  0  0  0
  -30.3620  -23.6126   20.8210 H   0  0  0  0  0  0
  -28.0893  -25.4248   18.5446 H   0  0  0  0  0  0
  -29.6572  -25.4402   19.2422 H   0  0  0  0  0  0
  -32.3869  -20.4616   19.3784 H   0  0  0  0  0  0
  -34.1505  -18.3302   20.5907 H   0  0  0  0  0  0
  -28.1288  -21.5358   20.8737 H   0  0  0  0  0  0
  -27.4016  -23.7438   19.9539 H   0  0  0  0  0  0
  -30.5492  -21.1479   19.4721 H   0  0  0  0  0  0
  -29.1226  -15.2783   21.5397 H   0  0  0  0  0  0
  -28.6268  -25.1446   22.2403 H   0  0  0  0  0  0
  -27.6448  -23.8407   22.3583 H   0  0  0  0  0  0
  -27.0845  -25.2346   21.7698 H   0  0  0  0  0  0
  1 25  1  0  0  0
  1 30  2  0  0  0
  1 86  1  0  0  0
  2  3  1  0  0  0
  2 25  1  0  0  0
  2 89  1  0  0  0
  2 90  1  0  0  0
  3  4  1  0  0  0
  3 91  1  0  0  0
  3 92  1  0  0  0
  4  5  1  0  0  0
  4 93  1  0  0  0
  4 94  1  0  0  0
  5  6  1  0  0  0
  5 26  1  0  0  0
  5 95  1  0  0  0
  6 25  1  0  0  0
  6 96  1  0  0  0
  6 97  1  0  0  0
  7  8  2  0  0  0
  7 26  1  0  0  0
  7 29  1  0  0  0
  8  9  1  0  0  0
  8 22  1  0  0  0
  9 10  1  0  0  0
  9 27  2  0  0  0
 10 11  2  0  0  0
 10 15  1  0  0  0
 11 12  1  0  0  0
 11 98  1  0  0  0
 12 13  2  0  0  0
 12 99  1  0  0  0
 13 14  1  0  0  0
 13 31  1  0  0  0
 14 15  2  0  0  0
 14100  1  0  0  0
 15101  1  0  0  0
 16 17  2  0  0  0
 16 21  1  0  0  0
 16 31  1  0  0  0
 17 18  1  0  0  0
 17102  1  0  0  0
 18 19  2  0  0  0
 18103  1  0  0  0
 19 20  1  0  0  0
 19 24  1  0  0  0
 20 21  2  0  0  0
 20104  1  0  0  0
 21 23  1  0  0  0
 22 28  1  0  0  0
 22 32  2  0  0  0
 26 27  1  0  0  0
 28105  1  0  0  0
 28106  1  0  0  0
 29107  1  0  0  0
 29108  1  0  0  0
 33 34  1  0  0  0
 33 66  1  0  0  0
 33 70  2  0  0  0
 34 36  1  0  0  0
 34 59  1  0  0  0
 34109  1  0  0  0
 35 44  2  0  0  0
 35 45  1  0  0  0
 35 68  1  0  0  0
 36 56  1  0  0  0
 36110  1  0  0  0
 37 39  1  0  0  0
 37 47  1  0  0  0
 37 66  1  0  0  0
 37111  1  0  0  0
 38 43  2  0  0  0
 38 46  1  0  0  0
 38 47  1  0  0  0
 39 64  1  0  0  0
 39 67  2  0  0  0
 40 52  1  0  0  0
 40 53  2  0  0  0
 40 58  1  0  0  0
 41112  1  0  0  0
 41113  1  0  0  0
 41114  1  0  0  0
 41 48  1  0  0  0
 42 43  1  0  0  0
 42 66  1  0  0  0
 42115  1  0  0  0
 42116  1  0  0  0
 43 44  1  0  0  0
 44117  1  0  0  0
 45 46  2  0  0  0
 45118  1  0  0  0
 46119  1  0  0  0
 47120  1  0  0  0
 47121  1  0  0  0
 48 56  1  0  0  0
 48 65  1  0  0  0
 48122  1  0  0  0
 49 50  1  0  0  0
 49 53  1  0  0  0
 49 64  1  0  0  0
 49123  1  0  0  0
 50 51  1  0  0  0
 50124  1  0  0  0
 50125  1  0  0  0
 51 52  1  0  0  0
 51126  1  0  0  0
 51127  1  0  0  0
 52128  1  0  0  0
 52129  1  0  0  0
 53 54  1  0  0  0
 54 55  2  0  0  0
 54130  1  0  0  0
 55 57  1  0  0  0
 55131  1  0  0  0
 56 69  2  0  0  0
 57 58  2  0  0  0
 57132  1  0  0  0
 58133  1  0  0  0
 59 60  1  0  0  0
 59 61  1  0  0  0
 59 62  1  0  0  0
 60134  1  0  0  0
 60135  1  0  0  0
 60136  1  0  0  0
 61137  1  0  0  0
 61138  1  0  0  0
 61139  1  0  0  0
 62140  1  0  0  0
 62141  1  0  0  0
 62142  1  0  0  0
 63 65  1  0  0  0
 63143  1  0  0  0
 63144  1  0  0  0
 63145  1  0  0  0
 64146  1  0  0  0
 65147  1  0  0  0
 68 79  1  0  0  0
 71 72  2  0  0  0
 71 80  1  0  0  0
 71 84  1  0  0  0
 72 85  1  0  0  0
 72 88  1  0  0  0
 73 84  2  0  0  0
 73 86  1  0  0  0
 73 88  1  0  0  0
 74148  1  0  0  0
 74149  1  0  0  0
 74150  1  0  0  0
 74 80  1  0  0  0
 75151  1  0  0  0
 75152  1  0  0  0
 75153  1  0  0  0
 75 81  1  0  0  0
 76 81  1  0  0  0
 76154  1  0  0  0
 76155  1  0  0  0
 76156  1  0  0  0
 77157  1  0  0  0
 77158  1  0  0  0
 77159  1  0  0  0
 77 82  1  0  0  0
 78 82  1  0  0  0
 78 83  1  0  0  0
 78160  1  0  0  0
 78161  1  0  0  0
 79 83  1  0  0  0
 79162  1  0  0  0
 79163  1  0  0  0
 80 81  1  0  0  0
 80164  1  0  0  0
 81165  1  0  0  0
 82 85  1  0  0  0
 82166  1  0  0  0
 83 87  1  0  0  0
 83167  1  0  0  0
 85168  1  0  0  0
 86169  1  0  0  0
 87170  1  0  0  0
 87171  1  0  0  0
 87172  1  0  0  0
M  CHG  1  87   1
M  ISO  4   1 100  68 101  79 101  86 100
M  END
> <chiral flag>
0

> <version>
0

> <s_m_source_file>
/data/baiqing/PycharmProjects/Reinvent-master-3.2/result/LINK_invent/BTK/process_docking_weight1_custom_product_contain_oxygen_bond_distance_aromatic_linkinvent_7_9_3/rearranged_h_0195.sdf

> <i_m_source_file_index>
17

> <r_mmod_Potential_Energy-OPLS-2005>
-188.897598266602

> <r_mmod_Stretch_Energy-OPLS-2005>
48.4132232666016

> <r_mmod_Bend_Energy-OPLS-2005>
140.154190063477

> <r_mmod_Torsional_Energy-OPLS-2005>
233.359985351562

> <r_mmod_Improper_Torsional_Energy-OPLS-2005>
5.53323650360107

> <r_mmod_Van_der_Waal_Energy-OPLS-2005>
130.378555297852

> <r_mmod_Electrostatic_Energy-OPLS-2005>
-296.5576171875

> <r_mmod_Solvation_Energy-OPLS-2005>
-465.377838134766

> <b_mmod_Minimization_Converged-OPLS-2005>
0

> <r_mmod_RMS_Derivative-OPLS-2005>
6.53541946411133

$$$$
17
                    3D
 Structure written by MMmdl.
152160  0  0  1  0            999 V2000
  -30.6030  -14.7424   20.4581 C   0  0  0  0  0  0
  -30.4383  -12.4484   19.4873 C   0  0  0  0  0  0
  -29.5194  -12.4952   18.2464 C   0  0  0  0  0  0
  -28.0410  -12.3339   18.6494 C   0  0  0  0  0  0
  -27.6453  -13.2317   19.8520 C   0  0  2  0  0  0
  -28.6845  -13.1574   20.9914 C   0  0  0  0  0  0
  -25.2520  -13.8198   20.5685 C   0  0  0  0  0  0
  -24.1813  -13.0443   20.9200 C   0  0  0  0  0  0
  -24.6399  -11.6922   20.8729 C   0  0  0  0  0  0
  -23.9062  -10.4296   21.0391 C   0  0  0  0  0  0
  -24.3622   -9.4218   21.9161 C   0  0  0  0  0  0
  -23.6306   -8.2253   22.0747 C   0  0  0  0  0  0
  -22.4281   -8.0288   21.3545 C   0  0  0  0  0  0
  -21.9900   -9.0255   20.4649 C   0  0  0  0  0  0
  -22.7230  -10.2136   20.3048 C   0  0  0  0  0  0
  -21.6861   -6.0739   22.5277 C   0  0  0  0  0  0
  -21.4020   -6.5635   23.8217 C   0  0  0  0  0  0
  -21.3660   -5.6789   24.9169 C   0  0  0  0  0  0
  -21.6050   -4.3055   24.7228 C   0  0  0  0  0  0
  -21.8818   -3.8145   23.4346 C   0  0  0  0  0  0
  -21.9200   -4.6958   22.3402 C   0  0  0  0  0  0
  -22.7828  -13.5221   21.1860 C   0  0  0  0  0  0
  -22.1665   -4.2146   21.0978 F   0  0  0  0  0  0
  -21.5623   -3.4533   25.7735 F   0  0  0  0  0  0
  -29.9924  -13.5076   20.4223 N   0  0  0  0  0  0
  -26.2951  -12.9408   20.3259 N   0  0  0  0  0  0
  -25.9329  -11.6552   20.5728 N   0  0  0  0  0  0
  -22.0473  -12.8227   22.0424 N   0  0  0  0  0  0
  -25.4213  -15.1932   20.4158 N   0  0  0  0  0  0
  -31.7828  -14.8470   20.1081 O   0  0  0  0  0  0
  -21.6655   -6.8879   21.4247 O   0  0  0  0  0  0
  -22.3518  -14.5519   20.6705 O   0  0  0  0  0  0
  -24.6293  -31.8576   23.2000 C   0  0  0  0  0  0
  -25.9123  -32.4769   23.8346 C   0  0  1  0  0  0
  -27.2186  -27.2700   20.1342 C   0  0  0  0  0  0
  -25.5917  -33.8567   24.2267 N   0  0  0  0  0  0
  -23.4254  -30.4819   21.5426 C   0  0  2  0  0  0
  -24.8737  -28.9349   20.1079 C   0  0  0  0  0  0
  -22.7492  -29.4623   22.4912 C   0  0  0  0  0  0
  -18.0297  -28.1398   22.8470 C   0  0  0  0  0  0
  -24.1487  -36.7301   23.2642 C   0  0  0  0  0  0
  -25.9716  -30.7748   21.3784 C   0  0  0  0  0  0
  -26.0447  -29.3975   20.7226 C   0  0  0  0  0  0
  -27.2192  -28.5777   20.7266 C   0  0  0  0  0  0
  -26.0274  -26.8847   19.4742 C   0  0  0  0  0  0
  -24.8719  -27.6870   19.4706 C   0  0  0  0  0  0
  -23.6418  -29.8182   20.1579 C   0  0  0  0  0  0
  -25.4112  -36.3086   24.0327 C   0  0  1  0  0  0
  -20.5894  -28.3709   23.1256 C   0  0  2  0  0  0
  -20.6782  -26.9425   22.5411 C   0  0  0  0  0  0
  -19.5768  -26.6386   21.5207 C   0  0  0  0  0  0
  -18.1940  -26.7937   22.1612 C   0  0  0  0  0  0
  -19.1549  -28.8869   23.2858 C   0  0  0  0  0  0
  -18.9471  -30.1464   23.8883 C   0  0  0  0  0  0
  -17.6470  -30.6590   24.0567 C   0  0  0  0  0  0
  -25.9042  -34.9450   23.5104 C   0  0  0  0  0  0
  -16.5361  -29.9091   23.6332 C   0  0  0  0  0  0
  -16.7282  -28.6515   23.0340 C   0  0  0  0  0  0
  -26.4499  -31.6591   25.0734 C   0  0  0  0  0  0
  -25.3710  -31.3739   26.1451 C   0  0  0  0  0  0
  -27.0353  -30.3007   24.6221 C   0  0  0  0  0  0
  -27.6058  -32.4331   25.7507 C   0  0  0  0  0  0
  -27.5576  -37.1812   24.8464 C   0  0  0  0  0  0
  -21.4203  -29.3053   22.3643 N   0  0  0  0  0  0
  -26.4295  -37.3778   23.9395 N   0  0  0  0  0  0
  -24.6946  -31.0556   22.0973 N   0  0  0  0  0  0
  -23.4201  -28.8162   23.3005 O   0  0  0  0  0  0
  -28.3046  -26.3633   20.2205 O   0  0  0  0  0  0
  -26.5628  -34.8926   22.4678 O   0  0  0  0  0  0
  -23.5439  -32.1391   23.7297 O   0  0  0  0  0  0
  -30.1466  -17.5603   18.9141 C   0  0  0  0  0  0
  -29.8926  -17.2567   20.2398 C   0  0  0  0  0  0
  -29.5297  -19.6200   20.2279 C   0  0  0  0  0  0
  -30.4702  -16.6393   17.7835 C   0  0  0  0  0  0
  -28.6949  -22.2142   19.9462 C   0  0  0  0  0  0
  -28.0280  -24.8956   20.0406 C   0  0  0  0  0  0
  -28.9936  -23.6913   20.5388 C   0  0  1  0  0  0
  -29.5335  -18.4594   20.9642 N   0  0  0  0  0  0
  -29.8293  -15.8595   20.7462 N   0  0  0  0  0  0
  -29.2223  -20.9706   20.6379 N   0  0  0  0  0  0
  -28.8608  -23.5579   21.9441 O   0  0  0  0  0  0
  -29.9801  -19.2789   18.5632 S   0  0  0  0  0  0
  -31.4802  -12.5741   19.1875 H   0  0  0  0  0  0
  -30.3859  -11.4722   19.9731 H   0  0  0  0  0  0
  -29.8000  -11.7096   17.5442 H   0  0  0  0  0  0
  -29.6599  -13.4376   17.7189 H   0  0  0  0  0  0
  -27.8853  -11.2843   18.9058 H   0  0  0  0  0  0
  -27.3935  -12.5356   17.7965 H   0  0  0  0  0  0
  -27.6415  -14.2553   19.4750 H   0  0  0  0  0  0
  -28.7132  -12.1572   21.4251 H   0  0  0  0  0  0
  -28.4143  -13.8339   21.8043 H   0  0  0  0  0  0
  -25.2766   -9.5699   22.4741 H   0  0  0  0  0  0
  -24.0016   -7.4641   22.7466 H   0  0  0  0  0  0
  -21.0826   -8.8769   19.8964 H   0  0  0  0  0  0
  -22.3671  -10.9672   19.6167 H   0  0  0  0  0  0
  -21.2017   -7.6142   23.9716 H   0  0  0  0  0  0
  -21.1478   -6.0514   25.9073 H   0  0  0  0  0  0
  -22.0600   -2.7605   23.2846 H   0  0  0  0  0  0
  -22.4093  -11.9905   22.4836 H   0  0  0  0  0  0
  -21.1089  -13.1260   22.2615 H   0  0  0  0  0  0
  -24.6530  -15.8438   20.5424 H   0  0  0  0  0  0
  -26.2666  -15.6403   20.0856 H   0  0  0  0  0  0
  -26.7197  -32.5427   23.1098 H   0  0  0  0  0  0
  -25.0044  -33.9718   25.0399 H   0  0  0  0  0  0
  -22.7217  -31.3033   21.3979 H   0  0  0  0  0  0
  -23.3740  -35.9645   23.3325 H   0  0  0  0  0  0
  -24.3571  -36.8901   22.2051 H   0  0  0  0  0  0
  -23.7254  -37.6516   23.6649 H   0  0  0  0  0  0
  -26.1037  -31.5353   20.6067 H   0  0  0  0  0  0
  -26.8503  -30.8282   22.0094 H   0  0  0  0  0  0
  -28.1094  -28.9249   21.2334 H   0  0  0  0  0  0
  -25.9549  -25.9357   18.9657 H   0  0  0  0  0  0
  -23.9808  -27.3302   18.9747 H   0  0  0  0  0  0
  -23.7587  -30.5926   19.3997 H   0  0  0  0  0  0
  -22.7621  -29.2457   19.8576 H   0  0  0  0  0  0
  -25.1297  -36.1953   25.0821 H   0  0  0  0  0  0
  -20.9988  -28.3300   24.1375 H   0  0  0  0  0  0
  -20.5662  -26.2332   23.3620 H   0  0  0  0  0  0
  -21.6655  -26.7439   22.1220 H   0  0  0  0  0  0
  -19.6931  -25.6289   21.1254 H   0  0  0  0  0  0
  -19.6711  -27.3182   20.6718 H   0  0  0  0  0  0
  -17.4212  -26.6675   21.4012 H   0  0  0  0  0  0
  -18.0347  -26.0084   22.9012 H   0  0  0  0  0  0
  -19.7947  -30.7287   24.2239 H   0  0  0  0  0  0
  -17.5027  -31.6266   24.5184 H   0  0  0  0  0  0
  -15.5363  -30.2995   23.7663 H   0  0  0  0  0  0
  -15.8682  -28.0842   22.7046 H   0  0  0  0  0  0
  -24.5881  -30.7111   25.7762 H   0  0  0  0  0  0
  -24.8918  -32.2913   26.4879 H   0  0  0  0  0  0
  -25.8015  -30.8900   27.0228 H   0  0  0  0  0  0
  -26.2950  -29.6751   24.1231 H   0  0  0  0  0  0
  -27.4021  -29.7285   25.4755 H   0  0  0  0  0  0
  -27.8830  -30.4296   23.9486 H   0  0  0  0  0  0
  -27.2671  -33.3628   26.2096 H   0  0  0  0  0  0
  -28.3863  -32.6893   25.0328 H   0  0  0  0  0  0
  -28.0737  -31.8446   26.5415 H   0  0  0  0  0  0
  -28.2618  -38.0087   24.7475 H   0  0  0  0  0  0
  -28.1053  -36.2617   24.6335 H   0  0  0  0  0  0
  -27.2293  -37.1517   25.8871 H   0  0  0  0  0  0
  -20.9390  -29.8775   21.6847 H   0  0  0  0  0  0
  -26.0185  -38.2863   24.1368 H   0  0  0  0  0  0
  -29.8308  -15.7602   17.8069 H   0  0  0  0  0  0
  -31.5105  -16.3209   17.8299 H   0  0  0  0  0  0
  -30.3186  -17.1282   16.8199 H   0  0  0  0  0  0
  -29.0191  -22.1936   18.9052 H   0  0  0  0  0  0
  -27.6119  -22.0899   19.9056 H   0  0  0  0  0  0
  -27.0492  -24.6776   20.4701 H   0  0  0  0  0  0
  -27.9128  -24.7636   18.9652 H   0  0  0  0  0  0
  -30.0290  -23.9548   20.3122 H   0  0  0  0  0  0
  -28.9731  -15.6380   21.2310 H   0  0  0  0  0  0
  -29.1726  -21.0895   21.6469 H   0  0  0  0  0  0
  -29.1750  -24.3694   22.3308 H   0  0  0  0  0  0
  1 25  1  0  0  0
  1 30  2  0  0  0
  1 79  1  0  0  0
  2  3  1  0  0  0
  2 25  1  0  0  0
  2 83  1  0  0  0
  2 84  1  0  0  0
  3  4  1  0  0  0
  3 85  1  0  0  0
  3 86  1  0  0  0
  4  5  1  0  0  0
  4 87  1  0  0  0
  4 88  1  0  0  0
  5  6  1  0  0  0
  5 26  1  0  0  0
  5 89  1  0  0  0
  6 25  1  0  0  0
  6 90  1  0  0  0
  6 91  1  0  0  0
  7  8  2  0  0  0
  7 26  1  0  0  0
  7 29  1  0  0  0
  8  9  1  0  0  0
  8 22  1  0  0  0
  9 10  1  0  0  0
  9 27  2  0  0  0
 10 11  2  0  0  0
 10 15  1  0  0  0
 11 12  1  0  0  0
 11 92  1  0  0  0
 12 13  2  0  0  0
 12 93  1  0  0  0
 13 14  1  0  0  0
 13 31  1  0  0  0
 14 15  2  0  0  0
 14 94  1  0  0  0
 15 95  1  0  0  0
 16 17  2  0  0  0
 16 21  1  0  0  0
 16 31  1  0  0  0
 17 18  1  0  0  0
 17 96  1  0  0  0
 18 19  2  0  0  0
 18 97  1  0  0  0
 19 20  1  0  0  0
 19 24  1  0  0  0
 20 21  2  0  0  0
 20 98  1  0  0  0
 21 23  1  0  0  0
 22 28  1  0  0  0
 22 32  2  0  0  0
 26 27  1  0  0  0
 28 99  1  0  0  0
 28100  1  0  0  0
 29101  1  0  0  0
 29102  1  0  0  0
 33 34  1  0  0  0
 33 66  1  0  0  0
 33 70  2  0  0  0
 34 36  1  0  0  0
 34 59  1  0  0  0
 34103  1  0  0  0
 35 44  2  0  0  0
 35 45  1  0  0  0
 35 68  1  0  0  0
 36 56  1  0  0  0
 36104  1  0  0  0
 37 39  1  0  0  0
 37 47  1  0  0  0
 37 66  1  0  0  0
 37105  1  0  0  0
 38 43  2  0  0  0
 38 46  1  0  0  0
 38 47  1  0  0  0
 39 64  1  0  0  0
 39 67  2  0  0  0
 40 52  1  0  0  0
 40 53  2  0  0  0
 40 58  1  0  0  0
 41106  1  0  0  0
 41107  1  0  0  0
 41108  1  0  0  0
 41 48  1  0  0  0
 42 43  1  0  0  0
 42 66  1  0  0  0
 42109  1  0  0  0
 42110  1  0  0  0
 43 44  1  0  0  0
 44111  1  0  0  0
 45 46  2  0  0  0
 45112  1  0  0  0
 46113  1  0  0  0
 47114  1  0  0  0
 47115  1  0  0  0
 48 56  1  0  0  0
 48 65  1  0  0  0
 48116  1  0  0  0
 49 50  1  0  0  0
 49 53  1  0  0  0
 49 64  1  0  0  0
 49117  1  0  0  0
 50 51  1  0  0  0
 50118  1  0  0  0
 50119  1  0  0  0
 51 52  1  0  0  0
 51120  1  0  0  0
 51121  1  0  0  0
 52122  1  0  0  0
 52123  1  0  0  0
 53 54  1  0  0  0
 54 55  2  0  0  0
 54124  1  0  0  0
 55 57  1  0  0  0
 55125  1  0  0  0
 56 69  2  0  0  0
 57 58  2  0  0  0
 57126  1  0  0  0
 58127  1  0  0  0
 59 60  1  0  0  0
 59 61  1  0  0  0
 59 62  1  0  0  0
 60128  1  0  0  0
 60129  1  0  0  0
 60130  1  0  0  0
 61131  1  0  0  0
 61132  1  0  0  0
 61133  1  0  0  0
 62134  1  0  0  0
 62135  1  0  0  0
 62136  1  0  0  0
 63 65  1  0  0  0
 63137  1  0  0  0
 63138  1  0  0  0
 63139  1  0  0  0
 64140  1  0  0  0
 65141  1  0  0  0
 68 76  1  0  0  0
 71 72  2  0  0  0
 71 74  1  0  0  0
 71 82  1  0  0  0
 72 78  1  0  0  0
 72 79  1  0  0  0
 73 78  2  0  0  0
 73 80  1  0  0  0
 73 82  1  0  0  0
 74142  1  0  0  0
 74143  1  0  0  0
 74144  1  0  0  0
 75 77  1  0  0  0
 75 80  1  0  0  0
 75145  1  0  0  0
 75146  1  0  0  0
 76 77  1  0  0  0
 76147  1  0  0  0
 76148  1  0  0  0
 77 81  1  0  0  0
 77149  1  0  0  0
 79150  1  0  0  0
 80151  1  0  0  0
 81152  1  0  0  0
M  ISO  4   1 100  68 101  76 101  79 100
M  END
> <chiral flag>
0

> <version>
0

> <s_m_source_file>
/data/baiqing/PycharmProjects/Reinvent-master-3.2/result/LINK_invent/BTK/process_docking_weight1_custom_product_contain_oxygen_bond_distance_aromatic_linkinvent_7_9_3/rearranged_h_0195.sdf

> <i_m_source_file_index>
18

> <r_mmod_Potential_Energy-OPLS-2005>
59.3019866943359

> <r_mmod_Stretch_Energy-OPLS-2005>
114.080764770508

> <r_mmod_Bend_Energy-OPLS-2005>
154.321548461914

> <r_mmod_Torsional_Energy-OPLS-2005>
263.973693847656

> <r_mmod_Improper_Torsional_Energy-OPLS-2005>
5.22299098968506

> <r_mmod_Van_der_Waal_Energy-OPLS-2005>
120.01513671875

> <r_mmod_Electrostatic_Energy-OPLS-2005>
-444.181671142578

> <r_mmod_Solvation_Energy-OPLS-2005>
-238.703979492188

> <b_mmod_Minimization_Converged-OPLS-2005>
0

> <r_mmod_RMS_Derivative-OPLS-2005>
2.75793981552124

$$$$
18
                    3D
 Structure written by MMmdl.
156164  0  0  1  0            999 V2000
  -30.5942  -14.7658   20.4526 C   0  0  0  0  0  0
  -30.4277  -12.4664   19.4740 C   0  0  0  0  0  0
  -29.5063  -12.5028   18.2336 C   0  0  0  0  0  0
  -28.0308  -12.3296   18.6445 C   0  0  0  0  0  0
  -27.6358  -13.2322   19.8437 C   0  0  2  0  0  0
  -28.6781  -13.1768   20.9813 C   0  0  0  0  0  0
  -25.2487  -13.8194   20.5656 C   0  0  0  0  0  0
  -24.1797  -13.0448   20.9227 C   0  0  0  0  0  0
  -24.6382  -11.6923   20.8774 C   0  0  0  0  0  0
  -23.9053  -10.4299   21.0436 C   0  0  0  0  0  0
  -24.3613   -9.4218   21.9205 C   0  0  0  0  0  0
  -23.6296   -8.2248   22.0763 C   0  0  0  0  0  0
  -22.4277   -8.0295   21.3553 C   0  0  0  0  0  0
  -21.9909   -9.0264   20.4661 C   0  0  0  0  0  0
  -22.7228  -10.2148   20.3079 C   0  0  0  0  0  0
  -21.6861   -6.0739   22.5279 C   0  0  0  0  0  0
  -21.4014   -6.5640   23.8213 C   0  0  0  0  0  0
  -21.3661   -5.6800   24.9174 C   0  0  0  0  0  0
  -21.6039   -4.3059   24.7234 C   0  0  0  0  0  0
  -21.8820   -3.8148   23.4356 C   0  0  0  0  0  0
  -21.9186   -4.6959   22.3412 C   0  0  0  0  0  0
  -22.7814  -13.5247   21.1877 C   0  0  0  0  0  0
  -22.1657   -4.2145   21.0987 F   0  0  0  0  0  0
  -21.5637   -3.4545   25.7745 F   0  0  0  0  0  0
  -29.9765  -13.5342   20.3986 N   0  0  0  0  0  0
  -26.2900  -12.9396   20.3230 N   0  0  0  0  0  0
  -25.9309  -11.6544   20.5759 N   0  0  0  0  0  0
  -22.0438  -12.8253   22.0430 N   0  0  0  0  0  0
  -25.4161  -15.1904   20.3969 N   0  0  0  0  0  0
  -31.7842  -14.8641   20.1402 O   0  0  0  0  0  0
  -21.6653   -6.8882   21.4243 O   0  0  0  0  0  0
  -22.3521  -14.5552   20.6714 O   0  0  0  0  0  0
  -24.6305  -31.8528   23.1940 C   0  0  0  0  0  0
  -25.9125  -32.4745   23.8278 C   0  0  1  0  0  0
  -27.2224  -27.2376   20.1341 C   0  0  0  0  0  0
  -25.5912  -33.8545   24.2208 N   0  0  0  0  0  0
  -23.4292  -30.4719   21.5372 C   0  0  2  0  0  0
  -24.8770  -28.9123   20.1073 C   0  0  0  0  0  0
  -22.7490  -29.4590   22.4883 C   0  0  0  0  0  0
  -18.0298  -28.1385   22.8487 C   0  0  0  0  0  0
  -24.1485  -36.7280   23.2640 C   0  0  0  0  0  0
  -25.9745  -30.7574   21.3768 C   0  0  0  0  0  0
  -26.0454  -29.3763   20.7209 C   0  0  0  0  0  0
  -27.2162  -28.5504   20.7248 C   0  0  0  0  0  0
  -26.0276  -26.8394   19.4957 C   0  0  0  0  0  0
  -24.8748  -27.6533   19.4835 C   0  0  0  0  0  0
  -23.6488  -29.8020   20.1533 C   0  0  0  0  0  0
  -25.4120  -36.3064   24.0317 C   0  0  1  0  0  0
  -20.5893  -28.3712   23.1264 C   0  0  2  0  0  0
  -20.6782  -26.9421   22.5427 C   0  0  0  0  0  0
  -19.5777  -26.6382   21.5203 C   0  0  0  0  0  0
  -18.1945  -26.7926   22.1617 C   0  0  0  0  0  0
  -19.1542  -28.8863   23.2871 C   0  0  0  0  0  0
  -18.9460  -30.1462   23.8897 C   0  0  0  0  0  0
  -17.6458  -30.6592   24.0557 C   0  0  0  0  0  0
  -25.9064  -34.9440   23.5078 C   0  0  0  0  0  0
  -16.5351  -29.9096   23.6325 C   0  0  0  0  0  0
  -16.7286  -28.6507   23.0356 C   0  0  0  0  0  0
  -26.4481  -31.6585   25.0686 C   0  0  0  0  0  0
  -25.3688  -31.3774   26.1394 C   0  0  0  0  0  0
  -27.0317  -30.2982   24.6217 C   0  0  0  0  0  0
  -27.6021  -32.4335   25.7477 C   0  0  0  0  0  0
  -27.5574  -37.1801   24.8463 C   0  0  0  0  0  0
  -21.4196  -29.3048   22.3625 N   0  0  0  0  0  0
  -26.4285  -37.3771   23.9411 N   0  0  0  0  0  0
  -24.6970  -31.0467   22.0922 N   0  0  0  0  0  0
  -23.4184  -28.8144   23.3003 O   0  0  0  0  0  0
  -28.3399  -26.3688   20.2209 O   0  0  0  0  0  0
  -26.5656  -34.8927   22.4659 O   0  0  0  0  0  0
  -23.5451  -32.1348   23.7234 O   0  0  0  0  0  0
  -27.8433  -18.2762   20.9373 C   0  0  0  0  0  0
  -26.9411  -19.3477   21.0268 C   0  0  0  0  0  0
  -29.1653  -18.5646   20.5740 C   0  0  0  0  0  0
  -28.5608  -20.8951   20.4663 C   0  0  0  0  0  0
  -25.4846  -19.1221   21.3755 C   0  0  0  0  0  0
  -26.8216  -23.5318   21.1504 C   0  0  0  0  0  0
  -30.2231  -17.3728   20.4634 C   0  0  0  0  0  0
  -28.4071  -24.9449   19.7099 C   0  0  0  0  0  0
  -28.2766  -23.6224   20.6604 C   0  0  2  0  0  0
  -27.3096  -20.6255   20.8014 N   0  0  0  0  0  0
  -29.4956  -19.9024   20.3297 N   0  0  0  0  0  0
  -28.8596  -22.2800   20.1699 N   0  0  0  0  0  0
  -29.8200  -15.9010   20.6395 N   0  0  0  0  0  0
  -31.4677  -12.5954   19.1712 H   0  0  0  0  0  0
  -30.3773  -11.4932   19.9672 H   0  0  0  0  0  0
  -29.7903  -11.7230   17.5254 H   0  0  0  0  0  0
  -29.6287  -13.4521   17.7090 H   0  0  0  0  0  0
  -27.8804  -11.2807   18.9026 H   0  0  0  0  0  0
  -27.3765  -12.5268   17.7934 H   0  0  0  0  0  0
  -27.6266  -14.2521   19.4592 H   0  0  0  0  0  0
  -28.7154  -12.1806   21.4252 H   0  0  0  0  0  0
  -28.4069  -13.8610   21.7860 H   0  0  0  0  0  0
  -25.2760   -9.5702   22.4781 H   0  0  0  0  0  0
  -24.0006   -7.4640   22.7490 H   0  0  0  0  0  0
  -21.0836   -8.8794   19.8978 H   0  0  0  0  0  0
  -22.3686  -10.9696   19.6202 H   0  0  0  0  0  0
  -21.2009   -7.6146   23.9715 H   0  0  0  0  0  0
  -21.1478   -6.0529   25.9077 H   0  0  0  0  0  0
  -22.0592   -2.7610   23.2859 H   0  0  0  0  0  0
  -22.4038  -11.9912   22.4824 H   0  0  0  0  0  0
  -21.1073  -13.1321   22.2655 H   0  0  0  0  0  0
  -24.6244  -15.8207   20.4532 H   0  0  0  0  0  0
  -26.2078  -15.5937   19.9147 H   0  0  0  0  0  0
  -26.7190  -32.5382   23.1003 H   0  0  0  0  0  0
  -25.0004  -33.9667   25.0312 H   0  0  0  0  0  0
  -22.7259  -31.2940   21.3879 H   0  0  0  0  0  0
  -23.3754  -35.9605   23.3306 H   0  0  0  0  0  0
  -24.3564  -36.8908   22.2056 H   0  0  0  0  0  0
  -23.7235  -37.6478   23.6671 H   0  0  0  0  0  0
  -26.1164  -31.5177   20.6070 H   0  0  0  0  0  0
  -26.8489  -30.8065   22.0138 H   0  0  0  0  0  0
  -28.1084  -28.9008   21.2250 H   0  0  0  0  0  0
  -25.9487  -25.8728   19.0240 H   0  0  0  0  0  0
  -23.9801  -27.2905   18.9972 H   0  0  0  0  0  0
  -23.7742  -30.5769   19.3958 H   0  0  0  0  0  0
  -22.7668  -29.2359   19.8486 H   0  0  0  0  0  0
  -25.1307  -36.1902   25.0810 H   0  0  0  0  0  0
  -20.9978  -28.3318   24.1395 H   0  0  0  0  0  0
  -20.5668  -26.2326   23.3636 H   0  0  0  0  0  0
  -21.6658  -26.7445   22.1241 H   0  0  0  0  0  0
  -19.6958  -25.6290   21.1251 H   0  0  0  0  0  0
  -19.6718  -27.3160   20.6700 H   0  0  0  0  0  0
  -17.4226  -26.6678   21.3998 H   0  0  0  0  0  0
  -18.0354  -26.0055   22.9009 H   0  0  0  0  0  0
  -19.7932  -30.7276   24.2277 H   0  0  0  0  0  0
  -17.5010  -31.6276   24.5140 H   0  0  0  0  0  0
  -15.5347  -30.3009   23.7635 H   0  0  0  0  0  0
  -15.8679  -28.0830   22.7081 H   0  0  0  0  0  0
  -24.5867  -30.7109   25.7728 H   0  0  0  0  0  0
  -24.8860  -32.2960   26.4751 H   0  0  0  0  0  0
  -25.7975  -30.9000   27.0212 H   0  0  0  0  0  0
  -26.2901  -29.6744   24.1207 H   0  0  0  0  0  0
  -27.3918  -29.7243   25.4770 H   0  0  0  0  0  0
  -27.8819  -30.4213   23.9501 H   0  0  0  0  0  0
  -27.2610  -33.3648   26.2014 H   0  0  0  0  0  0
  -28.3860  -32.6883   25.0331 H   0  0  0  0  0  0
  -28.0649  -31.8482   26.5435 H   0  0  0  0  0  0
  -28.2597  -38.0093   24.7506 H   0  0  0  0  0  0
  -28.1065  -36.2626   24.6294 H   0  0  0  0  0  0
  -27.2287  -37.1452   25.8863 H   0  0  0  0  0  0
  -20.9376  -29.8753   21.6823 H   0  0  0  0  0  0
  -26.0165  -38.2840   24.1419 H   0  0  0  0  0  0
  -27.5167  -17.2651   21.1404 H   0  0  0  0  0  0
  -24.8345  -19.6281   20.6613 H   0  0  0  0  0  0
  -25.2595  -19.5018   22.3722 H   0  0  0  0  0  0
  -25.2368  -18.0610   21.3545 H   0  0  0  0  0  0
  -26.7248  -22.8652   22.0069 H   0  0  0  0  0  0
  -26.1522  -23.1782   20.3651 H   0  0  0  0  0  0
  -26.4580  -24.5054   21.4765 H   0  0  0  0  0  0
  -30.7046  -17.4647   19.4894 H   0  0  0  0  0  0
  -31.0032  -17.5824   21.1951 H   0  0  0  0  0  0
  -27.7743  -24.8232   18.8321 H   0  0  0  0  0  0
  -29.4138  -24.8968   19.2933 H   0  0  0  0  0  0
  -28.8773  -23.8514   21.5411 H   0  0  0  0  0  0
  -29.7965  -22.3865   19.7986 H   0  0  0  0  0  0
  -28.8470  -15.7492   20.8482 H   0  0  0  0  0  0
  1 25  1  0  0  0
  1 30  2  0  0  0
  1 83  1  0  0  0
  2  3  1  0  0  0
  2 25  1  0  0  0
  2 84  1  0  0  0
  2 85  1  0  0  0
  3  4  1  0  0  0
  3 86  1  0  0  0
  3 87  1  0  0  0
  4  5  1  0  0  0
  4 88  1  0  0  0
  4 89  1  0  0  0
  5  6  1  0  0  0
  5 26  1  0  0  0
  5 90  1  0  0  0
  6 25  1  0  0  0
  6 91  1  0  0  0
  6 92  1  0  0  0
  7  8  2  0  0  0
  7 26  1  0  0  0
  7 29  1  0  0  0
  8  9  1  0  0  0
  8 22  1  0  0  0
  9 10  1  0  0  0
  9 27  2  0  0  0
 10 11  2  0  0  0
 10 15  1  0  0  0
 11 12  1  0  0  0
 11 93  1  0  0  0
 12 13  2  0  0  0
 12 94  1  0  0  0
 13 14  1  0  0  0
 13 31  1  0  0  0
 14 15  2  0  0  0
 14 95  1  0  0  0
 15 96  1  0  0  0
 16 17  2  0  0  0
 16 21  1  0  0  0
 16 31  1  0  0  0
 17 18  1  0  0  0
 17 97  1  0  0  0
 18 19  2  0  0  0
 18 98  1  0  0  0
 19 20  1  0  0  0
 19 24  1  0  0  0
 20 21  2  0  0  0
 20 99  1  0  0  0
 21 23  1  0  0  0
 22 28  1  0  0  0
 22 32  2  0  0  0
 26 27  1  0  0  0
 28100  1  0  0  0
 28101  1  0  0  0
 29102  1  0  0  0
 29103  1  0  0  0
 33 34  1  0  0  0
 33 66  1  0  0  0
 33 70  2  0  0  0
 34 36  1  0  0  0
 34 59  1  0  0  0
 34104  1  0  0  0
 35 44  2  0  0  0
 35 45  1  0  0  0
 35 68  1  0  0  0
 36 56  1  0  0  0
 36105  1  0  0  0
 37 39  1  0  0  0
 37 47  1  0  0  0
 37 66  1  0  0  0
 37106  1  0  0  0
 38 43  2  0  0  0
 38 46  1  0  0  0
 38 47  1  0  0  0
 39 64  1  0  0  0
 39 67  2  0  0  0
 40 52  1  0  0  0
 40 53  2  0  0  0
 40 58  1  0  0  0
 41107  1  0  0  0
 41108  1  0  0  0
 41109  1  0  0  0
 41 48  1  0  0  0
 42 43  1  0  0  0
 42 66  1  0  0  0
 42110  1  0  0  0
 42111  1  0  0  0
 43 44  1  0  0  0
 44112  1  0  0  0
 45 46  2  0  0  0
 45113  1  0  0  0
 46114  1  0  0  0
 47115  1  0  0  0
 47116  1  0  0  0
 48 56  1  0  0  0
 48 65  1  0  0  0
 48117  1  0  0  0
 49 50  1  0  0  0
 49 53  1  0  0  0
 49 64  1  0  0  0
 49118  1  0  0  0
 50 51  1  0  0  0
 50119  1  0  0  0
 50120  1  0  0  0
 51 52  1  0  0  0
 51121  1  0  0  0
 51122  1  0  0  0
 52123  1  0  0  0
 52124  1  0  0  0
 53 54  1  0  0  0
 54 55  2  0  0  0
 54125  1  0  0  0
 55 57  1  0  0  0
 55126  1  0  0  0
 56 69  2  0  0  0
 57 58  2  0  0  0
 57127  1  0  0  0
 58128  1  0  0  0
 59 60  1  0  0  0
 59 61  1  0  0  0
 59 62  1  0  0  0
 60129  1  0  0  0
 60130  1  0  0  0
 60131  1  0  0  0
 61132  1  0  0  0
 61133  1  0  0  0
 61134  1  0  0  0
 62135  1  0  0  0
 62136  1  0  0  0
 62137  1  0  0  0
 63 65  1  0  0  0
 63138  1  0  0  0
 63139  1  0  0  0
 63140  1  0  0  0
 64141  1  0  0  0
 65142  1  0  0  0
 68 78  1  0  0  0
 71 72  2  0  0  0
 71 73  1  0  0  0
 71143  1  0  0  0
 72 75  1  0  0  0
 72 80  1  0  0  0
 73 77  1  0  0  0
 73 81  2  0  0  0
 74 80  2  0  0  0
 74 81  1  0  0  0
 74 82  1  0  0  0
 75144  1  0  0  0
 75145  1  0  0  0
 75146  1  0  0  0
 76147  1  0  0  0
 76148  1  0  0  0
 76149  1  0  0  0
 76 79  1  0  0  0
 77 83  1  0  0  0
 77150  1  0  0  0
 77151  1  0  0  0
 78 79  1  0  0  0
 78152  1  0  0  0
 78153  1  0  0  0
 79 82  1  0  0  0
 79154  1  0  0  0
 82155  1  0  0  0
 83156  1  0  0  0
M  ISO  4   1 100  68 101  78 101  83 100
M  END
> <chiral flag>
0

> <version>
0

> <s_m_source_file>
/data/baiqing/PycharmProjects/Reinvent-master-3.2/result/LINK_invent/BTK/process_docking_weight1_custom_product_contain_oxygen_bond_distance_aromatic_linkinvent_7_9_3/rearranged_h_0195.sdf

> <i_m_source_file_index>
19

> <r_mmod_Potential_Energy-OPLS-2005>
-528.798400878906

> <r_mmod_Stretch_Energy-OPLS-2005>
133.745635986328

> <r_mmod_Bend_Energy-OPLS-2005>
196.216552734375

> <r_mmod_Torsional_Energy-OPLS-2005>
191.96565246582

> <r_mmod_Improper_Torsional_Energy-OPLS-2005>
7.26583242416382

> <r_mmod_Van_der_Waal_Energy-OPLS-2005>
138.932434082031

> <r_mmod_Electrostatic_Energy-OPLS-2005>
-1043.03381347656

> <r_mmod_Solvation_Energy-OPLS-2005>
-249.45002746582

> <b_mmod_Minimization_Converged-OPLS-2005>
0

> <r_mmod_RMS_Derivative-OPLS-2005>
1.98074007034302

$$$$
19
                    3D
 Structure written by MMmdl.
155163  0  0  1  0            999 V2000
  -30.5713  -14.6775   20.4948 C   0  0  0  0  0  0
  -30.4368  -12.4161   19.4513 C   0  0  0  0  0  0
  -29.5099  -12.5307   18.2181 C   0  0  0  0  0  0
  -28.0295  -12.3638   18.6220 C   0  0  0  0  0  0
  -27.6491  -13.2195   19.8595 C   0  0  2  0  0  0
  -28.6903  -13.0579   20.9896 C   0  0  0  0  0  0
  -25.2536  -13.8168   20.5659 C   0  0  0  0  0  0
  -24.1803  -13.0438   20.9187 C   0  0  0  0  0  0
  -24.6370  -11.6906   20.8705 C   0  0  0  0  0  0
  -23.9047  -10.4291   21.0381 C   0  0  0  0  0  0
  -24.3607   -9.4212   21.9169 C   0  0  0  0  0  0
  -23.6304   -8.2238   22.0736 C   0  0  0  0  0  0
  -22.4288   -8.0266   21.3540 C   0  0  0  0  0  0
  -21.9905   -9.0229   20.4645 C   0  0  0  0  0  0
  -22.7212  -10.2119   20.3050 C   0  0  0  0  0  0
  -21.6856   -6.0736   22.5290 C   0  0  0  0  0  0
  -21.4002   -6.5638   23.8223 C   0  0  0  0  0  0
  -21.3659   -5.6791   24.9178 C   0  0  0  0  0  0
  -21.6047   -4.3055   24.7225 C   0  0  0  0  0  0
  -21.8820   -3.8148   23.4344 C   0  0  0  0  0  0
  -21.9181   -4.6963   22.3400 C   0  0  0  0  0  0
  -22.7833  -13.5238   21.1849 C   0  0  0  0  0  0
  -22.1670   -4.2150   21.0982 F   0  0  0  0  0  0
  -21.5628   -3.4532   25.7733 F   0  0  0  0  0  0
  -30.0001  -13.4284   20.4356 N   0  0  0  0  0  0
  -26.2950  -12.9364   20.3257 N   0  0  0  0  0  0
  -25.9294  -11.6514   20.5681 N   0  0  0  0  0  0
  -22.0468  -12.8239   22.0406 N   0  0  0  0  0  0
  -25.4252  -15.1874   20.4053 N   0  0  0  0  0  0
  -31.7332  -14.8501   20.1082 O   0  0  0  0  0  0
  -21.6650   -6.8865   21.4252 O   0  0  0  0  0  0
  -22.3521  -14.5554   20.6698 O   0  0  0  0  0  0
  -24.6272  -31.8602   23.1993 C   0  0  0  0  0  0
  -25.9122  -32.4781   23.8329 C   0  0  1  0  0  0
  -27.2242  -27.3189   20.1356 C   0  0  0  0  0  0
  -25.5931  -33.8572   24.2257 N   0  0  0  0  0  0
  -23.4212  -30.4815   21.5416 C   0  0  2  0  0  0
  -24.8668  -28.9243   20.1180 C   0  0  0  0  0  0
  -22.7478  -29.4638   22.4943 C   0  0  0  0  0  0
  -18.0291  -28.1391   22.8490 C   0  0  0  0  0  0
  -24.1489  -36.7301   23.2639 C   0  0  0  0  0  0
  -25.9598  -30.7923   21.3651 C   0  0  0  0  0  0
  -26.0351  -29.4157   20.7160 C   0  0  0  0  0  0
  -27.2205  -28.6253   20.7119 C   0  0  0  0  0  0
  -26.0367  -26.8683   19.5253 C   0  0  0  0  0  0
  -24.8681  -27.6550   19.5151 C   0  0  0  0  0  0
  -23.6364  -29.8080   20.1598 C   0  0  0  0  0  0
  -25.4115  -36.3086   24.0328 C   0  0  1  0  0  0
  -20.5891  -28.3701   23.1285 C   0  0  2  0  0  0
  -20.6783  -26.9424   22.5412 C   0  0  0  0  0  0
  -19.5753  -26.6380   21.5219 C   0  0  0  0  0  0
  -18.1935  -26.7939   22.1628 C   0  0  0  0  0  0
  -19.1544  -28.8858   23.2882 C   0  0  0  0  0  0
  -18.9465  -30.1467   23.8895 C   0  0  0  0  0  0
  -17.6463  -30.6592   24.0569 C   0  0  0  0  0  0
  -25.9051  -34.9456   23.5089 C   0  0  0  0  0  0
  -16.5355  -29.9094   23.6329 C   0  0  0  0  0  0
  -16.7272  -28.6510   23.0344 C   0  0  0  0  0  0
  -26.4473  -31.6604   25.0718 C   0  0  0  0  0  0
  -25.3692  -31.3758   26.1439 C   0  0  0  0  0  0
  -27.0317  -30.3042   24.6158 C   0  0  0  0  0  0
  -27.6025  -32.4340   25.7491 C   0  0  0  0  0  0
  -27.5584  -37.1810   24.8459 C   0  0  0  0  0  0
  -21.4195  -29.3056   22.3670 N   0  0  0  0  0  0
  -26.4286  -37.3791   23.9415 N   0  0  0  0  0  0
  -24.6885  -31.0611   22.0937 N   0  0  0  0  0  0
  -23.4196  -28.8199   23.3038 O   0  0  0  0  0  0
  -28.3426  -26.4835   20.1291 O   0  0  0  0  0  0
  -26.5607  -34.8934   22.4647 O   0  0  0  0  0  0
  -23.5437  -32.1386   23.7337 O   0  0  0  0  0  0
  -29.5723  -19.2752   21.4822 C   0  0  0  0  0  0
  -29.1526  -19.8386   20.2448 C   0  0  0  0  0  0
  -29.0216  -18.8390   19.2493 C   0  0  0  0  0  0
  -29.6997  -17.0963   20.6266 C   0  0  0  0  0  0
  -30.3187  -22.6331   21.3433 C   0  0  0  0  0  0
  -28.5039  -23.8110   19.9657 C   0  0  0  0  0  0
  -28.2407  -25.1585   20.7855 C   0  0  0  0  0  0
  -28.9055  -22.4642   20.7545 C   0  0  1  0  0  0
  -29.8205  -17.9385   21.6639 N   0  0  0  0  0  0
  -29.2741  -17.5176   19.4282 N   0  0  0  0  0  0
  -28.5591  -19.2057   17.9923 N   0  0  0  0  0  0
  -28.8335  -21.2163   19.9245 N   0  0  0  0  0  0
  -29.7417  -15.7065   20.8881 N   0  0  0  0  0  0
  -31.4793  -12.5482   19.1570 H   0  0  0  0  0  0
  -30.3743  -11.4168   19.8835 H   0  0  0  0  0  0
  -29.7827  -11.7857   17.4696 H   0  0  0  0  0  0
  -29.6509  -13.5034   17.7428 H   0  0  0  0  0  0
  -27.8606  -11.3093   18.8354 H   0  0  0  0  0  0
  -27.3806  -12.6097   17.7788 H   0  0  0  0  0  0
  -27.6708  -14.2582   19.5306 H   0  0  0  0  0  0
  -28.7070  -12.0263   21.3460 H   0  0  0  0  0  0
  -28.4275  -13.6642   21.8562 H   0  0  0  0  0  0
  -25.2747   -9.5717   22.4734 H   0  0  0  0  0  0
  -24.0028   -7.4631   22.7447 H   0  0  0  0  0  0
  -21.0838   -8.8734   19.8946 H   0  0  0  0  0  0
  -22.3653  -10.9654   19.6157 H   0  0  0  0  0  0
  -21.2012   -7.6144   23.9735 H   0  0  0  0  0  0
  -21.1479   -6.0510   25.9087 H   0  0  0  0  0  0
  -22.0596   -2.7602   23.2836 H   0  0  0  0  0  0
  -22.4079  -11.9936   22.4870 H   0  0  0  0  0  0
  -21.1068  -13.1256   22.2555 H   0  0  0  0  0  0
  -24.6479  -15.8334   20.4916 H   0  0  0  0  0  0
  -26.2507  -15.6146   20.0062 H   0  0  0  0  0  0
  -26.7203  -32.5444   23.1090 H   0  0  0  0  0  0
  -25.0110  -33.9690   25.0424 H   0  0  0  0  0  0
  -22.7139  -31.3003   21.3940 H   0  0  0  0  0  0
  -23.3763  -35.9622   23.3281 H   0  0  0  0  0  0
  -24.3598  -36.8941   22.2061 H   0  0  0  0  0  0
  -23.7216  -37.6488   23.6666 H   0  0  0  0  0  0
  -26.0794  -31.5477   20.5878 H   0  0  0  0  0  0
  -26.8445  -30.8504   21.9878 H   0  0  0  0  0  0
  -28.1241  -28.9971   21.1746 H   0  0  0  0  0  0
  -26.0122  -25.8911   19.0646 H   0  0  0  0  0  0
  -23.9702  -27.2663   19.0543 H   0  0  0  0  0  0
  -23.7601  -30.5767   19.3958 H   0  0  0  0  0  0
  -22.7559  -29.2374   19.8609 H   0  0  0  0  0  0
  -25.1295  -36.1942   25.0820 H   0  0  0  0  0  0
  -20.9985  -28.3293   24.1408 H   0  0  0  0  0  0
  -20.5724  -26.2318   23.3623 H   0  0  0  0  0  0
  -21.6651  -26.7485   22.1193 H   0  0  0  0  0  0
  -19.6925  -25.6286   21.1261 H   0  0  0  0  0  0
  -19.6693  -27.3182   20.6742 H   0  0  0  0  0  0
  -17.4219  -26.6691   21.4012 H   0  0  0  0  0  0
  -18.0333  -26.0076   22.9017 H   0  0  0  0  0  0
  -19.7933  -30.7282   24.2270 H   0  0  0  0  0  0
  -17.5013  -31.6273   24.5168 H   0  0  0  0  0  0
  -15.5358  -30.2992   23.7643 H   0  0  0  0  0  0
  -15.8680  -28.0830   22.7051 H   0  0  0  0  0  0
  -24.5838  -30.7149   25.7753 H   0  0  0  0  0  0
  -24.8915  -32.2936   26.4876 H   0  0  0  0  0  0
  -25.7994  -30.8905   27.0207 H   0  0  0  0  0  0
  -26.2891  -29.6813   24.1165 H   0  0  0  0  0  0
  -27.4013  -29.7288   25.4652 H   0  0  0  0  0  0
  -27.8747  -30.4354   23.9376 H   0  0  0  0  0  0
  -27.2627  -33.3636   26.2063 H   0  0  0  0  0  0
  -28.3830  -32.6913   25.0320 H   0  0  0  0  0  0
  -28.0695  -31.8475   26.5410 H   0  0  0  0  0  0
  -28.2584  -38.0126   24.7548 H   0  0  0  0  0  0
  -28.1090  -36.2662   24.6225 H   0  0  0  0  0  0
  -27.2313  -37.1400   25.8862 H   0  0  0  0  0  0
  -20.9391  -29.8768   21.6864 H   0  0  0  0  0  0
  -26.0172  -38.2866   24.1424 H   0  0  0  0  0  0
  -29.6772  -19.8917   22.3622 H   0  0  0  0  0  0
  -30.3151  -23.3546   22.1611 H   0  0  0  0  0  0
  -31.0265  -22.9889   20.5925 H   0  0  0  0  0  0
  -30.7305  -21.7160   21.7541 H   0  0  0  0  0  0
  -29.2805  -24.0124   19.2271 H   0  0  0  0  0  0
  -27.6028  -23.6252   19.3786 H   0  0  0  0  0  0
  -28.9756  -25.2041   21.5891 H   0  0  0  0  0  0
  -27.2795  -25.0680   21.2920 H   0  0  0  0  0  0
  -28.1982  -22.3356   21.5778 H   0  0  0  0  0  0
  -28.7064  -20.1720   17.7369 H   0  0  0  0  0  0
  -28.7055  -18.5543   17.2346 H   0  0  0  0  0  0
  -28.2833  -21.3086   19.0733 H   0  0  0  0  0  0
  -28.8835  -15.3649   21.2859 H   0  0  0  0  0  0
  1 25  1  0  0  0
  1 30  2  0  0  0
  1 83  1  0  0  0
  2  3  1  0  0  0
  2 25  1  0  0  0
  2 84  1  0  0  0
  2 85  1  0  0  0
  3  4  1  0  0  0
  3 86  1  0  0  0
  3 87  1  0  0  0
  4  5  1  0  0  0
  4 88  1  0  0  0
  4 89  1  0  0  0
  5  6  1  0  0  0
  5 26  1  0  0  0
  5 90  1  0  0  0
  6 25  1  0  0  0
  6 91  1  0  0  0
  6 92  1  0  0  0
  7  8  2  0  0  0
  7 26  1  0  0  0
  7 29  1  0  0  0
  8  9  1  0  0  0
  8 22  1  0  0  0
  9 10  1  0  0  0
  9 27  2  0  0  0
 10 11  2  0  0  0
 10 15  1  0  0  0
 11 12  1  0  0  0
 11 93  1  0  0  0
 12 13  2  0  0  0
 12 94  1  0  0  0
 13 14  1  0  0  0
 13 31  1  0  0  0
 14 15  2  0  0  0
 14 95  1  0  0  0
 15 96  1  0  0  0
 16 17  2  0  0  0
 16 21  1  0  0  0
 16 31  1  0  0  0
 17 18  1  0  0  0
 17 97  1  0  0  0
 18 19  2  0  0  0
 18 98  1  0  0  0
 19 20  1  0  0  0
 19 24  1  0  0  0
 20 21  2  0  0  0
 20 99  1  0  0  0
 21 23  1  0  0  0
 22 28  1  0  0  0
 22 32  2  0  0  0
 26 27  1  0  0  0
 28100  1  0  0  0
 28101  1  0  0  0
 29102  1  0  0  0
 29103  1  0  0  0
 33 34  1  0  0  0
 33 66  1  0  0  0
 33 70  2  0  0  0
 34 36  1  0  0  0
 34 59  1  0  0  0
 34104  1  0  0  0
 35 44  2  0  0  0
 35 45  1  0  0  0
 35 68  1  0  0  0
 36 56  1  0  0  0
 36105  1  0  0  0
 37 39  1  0  0  0
 37 47  1  0  0  0
 37 66  1  0  0  0
 37106  1  0  0  0
 38 43  2  0  0  0
 38 46  1  0  0  0
 38 47  1  0  0  0
 39 64  1  0  0  0
 39 67  2  0  0  0
 40 52  1  0  0  0
 40 53  2  0  0  0
 40 58  1  0  0  0
 41107  1  0  0  0
 41108  1  0  0  0
 41109  1  0  0  0
 41 48  1  0  0  0
 42 43  1  0  0  0
 42 66  1  0  0  0
 42110  1  0  0  0
 42111  1  0  0  0
 43 44  1  0  0  0
 44112  1  0  0  0
 45 46  2  0  0  0
 45113  1  0  0  0
 46114  1  0  0  0
 47115  1  0  0  0
 47116  1  0  0  0
 48 56  1  0  0  0
 48 65  1  0  0  0
 48117  1  0  0  0
 49 50  1  0  0  0
 49 53  1  0  0  0
 49 64  1  0  0  0
 49118  1  0  0  0
 50 51  1  0  0  0
 50119  1  0  0  0
 50120  1  0  0  0
 51 52  1  0  0  0
 51121  1  0  0  0
 51122  1  0  0  0
 52123  1  0  0  0
 52124  1  0  0  0
 53 54  1  0  0  0
 54 55  2  0  0  0
 54125  1  0  0  0
 55 57  1  0  0  0
 55126  1  0  0  0
 56 69  2  0  0  0
 57 58  2  0  0  0
 57127  1  0  0  0
 58128  1  0  0  0
 59 60  1  0  0  0
 59 61  1  0  0  0
 59 62  1  0  0  0
 60129  1  0  0  0
 60130  1  0  0  0
 60131  1  0  0  0
 61132  1  0  0  0
 61133  1  0  0  0
 61134  1  0  0  0
 62135  1  0  0  0
 62136  1  0  0  0
 62137  1  0  0  0
 63 65  1  0  0  0
 63138  1  0  0  0
 63139  1  0  0  0
 63140  1  0  0  0
 64141  1  0  0  0
 65142  1  0  0  0
 68 77  1  0  0  0
 71 72  2  0  0  0
 71 79  1  0  0  0
 71143  1  0  0  0
 72 73  1  0  0  0
 72 82  1  0  0  0
 73 80  2  0  0  0
 73 81  1  0  0  0
 74 79  2  0  0  0
 74 80  1  0  0  0
 74 83  1  0  0  0
 75144  1  0  0  0
 75145  1  0  0  0
 75146  1  0  0  0
 75 78  1  0  0  0
 76 77  1  0  0  0
 76 78  1  0  0  0
 76147  1  0  0  0
 76148  1  0  0  0
 77149  1  0  0  0
 77150  1  0  0  0
 78 82  1  0  0  0
 78151  1  0  0  0
 81152  1  0  0  0
 81153  1  0  0  0
 82154  1  0  0  0
 83155  1  0  0  0
M  ISO  4   1 100  68 101  77 101  83 100
M  END
> <chiral flag>
0

> <version>
0

> <s_m_source_file>
/data/baiqing/PycharmProjects/Reinvent-master-3.2/result/LINK_invent/BTK/process_docking_weight1_custom_product_contain_oxygen_bond_distance_aromatic_linkinvent_7_9_3/rearranged_h_0195.sdf

> <i_m_source_file_index>
20

> <r_mmod_Potential_Energy-OPLS-2005>
-385.035919189453

> <r_mmod_Stretch_Energy-OPLS-2005>
82.4156951904297

> <r_mmod_Bend_Energy-OPLS-2005>
170.327072143555

> <r_mmod_Torsional_Energy-OPLS-2005>
257.573852539062

> <r_mmod_Improper_Torsional_Energy-OPLS-2005>
10.0493698120117

> <r_mmod_Van_der_Waal_Energy-OPLS-2005>
145.269943237305

> <r_mmod_Electrostatic_Energy-OPLS-2005>
-867.243591308594

> <r_mmod_Solvation_Energy-OPLS-2005>
-237.451019287109

> <b_mmod_Minimization_Converged-OPLS-2005>
0

> <r_mmod_RMS_Derivative-OPLS-2005>
3.25726366043091

$$$$
20
                    3D
 Structure written by MMmdl.
155163  0  0  1  0            999 V2000
  -30.5315  -14.7574   20.4558 C   0  0  0  0  0  0
  -30.4213  -12.4610   19.4916 C   0  0  0  0  0  0
  -29.5064  -12.5003   18.2436 C   0  0  0  0  0  0
  -28.0290  -12.3076   18.6490 C   0  0  0  0  0  0
  -27.6230  -13.2162   19.8412 C   0  0  2  0  0  0
  -28.6533  -13.1364   20.9869 C   0  0  0  0  0  0
  -25.2394  -13.8132   20.5674 C   0  0  0  0  0  0
  -24.1689  -13.0381   20.9185 C   0  0  0  0  0  0
  -24.6264  -11.6861   20.8692 C   0  0  0  0  0  0
  -23.8969  -10.4241   21.0385 C   0  0  0  0  0  0
  -24.3552   -9.4190   21.9168 C   0  0  0  0  0  0
  -23.6253   -8.2217   22.0735 C   0  0  0  0  0  0
  -22.4250   -8.0230   21.3528 C   0  0  0  0  0  0
  -21.9858   -9.0183   20.4622 C   0  0  0  0  0  0
  -22.7151  -10.2075   20.3031 C   0  0  0  0  0  0
  -21.6853   -6.0708   22.5292 C   0  0  0  0  0  0
  -21.4020   -6.5626   23.8219 C   0  0  0  0  0  0
  -21.3671   -5.6781   24.9177 C   0  0  0  0  0  0
  -21.6046   -4.3046   24.7225 C   0  0  0  0  0  0
  -21.8818   -3.8137   23.4350 C   0  0  0  0  0  0
  -21.9186   -4.6936   22.3414 C   0  0  0  0  0  0
  -22.7743  -13.5181   21.1897 C   0  0  0  0  0  0
  -22.1658   -4.2130   21.0982 F   0  0  0  0  0  0
  -21.5624   -3.4531   25.7743 F   0  0  0  0  0  0
  -29.9546  -13.5102   20.4197 N   0  0  0  0  0  0
  -26.2756  -12.9289   20.3155 N   0  0  0  0  0  0
  -25.9156  -11.6451   20.5637 N   0  0  0  0  0  0
  -22.0416  -12.8148   22.0447 N   0  0  0  0  0  0
  -25.4080  -15.1863   20.4243 N   0  0  0  0  0  0
  -31.7289  -14.8769   20.1646 O   0  0  0  0  0  0
  -21.6626   -6.8827   21.4238 O   0  0  0  0  0  0
  -22.3437  -14.5506   20.6772 O   0  0  0  0  0  0
  -24.6390  -31.8523   23.1944 C   0  0  0  0  0  0
  -25.9181  -32.4765   23.8263 C   0  0  1  0  0  0
  -27.1981  -27.2355   20.1258 C   0  0  0  0  0  0
  -25.5988  -33.8543   24.2189 N   0  0  0  0  0  0
  -23.4321  -30.4897   21.5300 C   0  0  2  0  0  0
  -24.8739  -28.9331   20.0976 C   0  0  0  0  0  0
  -22.7499  -29.4676   22.4707 C   0  0  0  0  0  0
  -18.0311  -28.1503   22.8423 C   0  0  0  0  0  0
  -24.1480  -36.7252   23.2661 C   0  0  0  0  0  0
  -25.9822  -30.7589   21.3785 C   0  0  0  0  0  0
  -26.0413  -29.3803   20.7201 C   0  0  0  0  0  0
  -27.2021  -28.5419   20.7293 C   0  0  0  0  0  0
  -26.0023  -26.8551   19.4771 C   0  0  0  0  0  0
  -24.8594  -27.6832   19.4605 C   0  0  0  0  0  0
  -23.6606  -29.8414   20.1378 C   0  0  0  0  0  0
  -25.4092  -36.3024   24.0327 C   0  0  1  0  0  0
  -20.5929  -28.3847   23.1166 C   0  0  2  0  0  0
  -20.6853  -26.9570   22.5342 C   0  0  0  0  0  0
  -19.5836  -26.6433   21.5204 C   0  0  0  0  0  0
  -18.2001  -26.8035   22.1588 C   0  0  0  0  0  0
  -19.1584  -28.8962   23.2825 C   0  0  0  0  0  0
  -18.9541  -30.1544   23.8887 C   0  0  0  0  0  0
  -17.6570  -30.6695   24.0611 C   0  0  0  0  0  0
  -25.9054  -34.9432   23.5050 C   0  0  0  0  0  0
  -16.5437  -29.9208   23.6391 C   0  0  0  0  0  0
  -16.7301  -28.6653   23.0345 C   0  0  0  0  0  0
  -26.4549  -31.6663   25.0697 C   0  0  0  0  0  0
  -25.3736  -31.3900   26.1404 C   0  0  0  0  0  0
  -27.0446  -30.3085   24.6231 C   0  0  0  0  0  0
  -27.6054  -32.4487   25.7505 C   0  0  0  0  0  0
  -27.5534  -37.1776   24.8458 C   0  0  0  0  0  0
  -21.4197  -29.3178   22.3499 N   0  0  0  0  0  0
  -26.4238  -37.3734   23.9458 N   0  0  0  0  0  0
  -24.7048  -31.0504   22.0906 N   0  0  0  0  0  0
  -23.4179  -28.8184   23.2828 O   0  0  0  0  0  0
  -28.3097  -26.3576   20.2064 O   0  0  0  0  0  0
  -26.5586  -34.8924   22.4582 O   0  0  0  0  0  0
  -23.5547  -32.1317   23.7242 O   0  0  0  0  0  0
  -30.6760  -19.6411   20.0098 C   0  0  0  0  0  0
  -29.3176  -19.6399   20.2658 C   0  0  0  0  0  0
  -29.8880  -17.3004   20.4344 C   0  0  0  0  0  0
  -27.0084  -20.6451   20.8977 C   0  0  0  0  0  0
  -27.0331  -23.6412   21.6268 C   0  0  0  0  0  0
  -28.3234  -24.9152   19.7453 C   0  0  0  0  0  0
  -28.3495  -20.9162   20.1652 C   0  0  1  0  0  0
  -28.3344  -23.6817   20.8071 C   0  0  2  0  0  0
  -28.8980  -18.2605   20.4563 N   0  0  0  0  0  0
  -29.6790  -15.8458   20.6120 N   0  0  0  0  0  0
  -28.9989  -22.2901   20.4947 N   0  3  0  0  0  0
  -31.4462  -18.0574   20.1328 S   0  0  0  0  0  0
  -31.4683  -12.6018   19.2192 H   0  0  0  0  0  0
  -30.3615  -11.4861   19.9776 H   0  0  0  0  0  0
  -29.8001  -11.7218   17.5376 H   0  0  0  0  0  0
  -29.6266  -13.4516   17.7212 H   0  0  0  0  0  0
  -27.8985  -11.2599   18.9210 H   0  0  0  0  0  0
  -27.3730  -12.4790   17.7957 H   0  0  0  0  0  0
  -27.6097  -14.2335   19.4496 H   0  0  0  0  0  0
  -28.6841  -12.1210   21.3869 H   0  0  0  0  0  0
  -28.3695  -13.7815   21.8189 H   0  0  0  0  0  0
  -25.2683   -9.5711   22.4738 H   0  0  0  0  0  0
  -23.9992   -7.4612   22.7447 H   0  0  0  0  0  0
  -21.0801   -8.8644   19.8917 H   0  0  0  0  0  0
  -22.3570  -10.9587   19.6143 H   0  0  0  0  0  0
  -21.2021   -7.6138   23.9718 H   0  0  0  0  0  0
  -21.1503   -6.0513   25.9080 H   0  0  0  0  0  0
  -22.0584   -2.7592   23.2855 H   0  0  0  0  0  0
  -22.4064  -11.9818   22.4845 H   0  0  0  0  0  0
  -21.1038  -13.1150   22.2694 H   0  0  0  0  0  0
  -24.6325  -15.8253   20.5576 H   0  0  0  0  0  0
  -26.2464  -15.6483   20.1013 H   0  0  0  0  0  0
  -26.7218  -32.5395   23.0961 H   0  0  0  0  0  0
  -25.0303  -33.9716   25.0471 H   0  0  0  0  0  0
  -22.7384  -31.3214   21.3829 H   0  0  0  0  0  0
  -23.3771  -35.9575   23.3285 H   0  0  0  0  0  0
  -24.3534  -36.8867   22.2074 H   0  0  0  0  0  0
  -23.7226  -37.6440   23.6696 H   0  0  0  0  0  0
  -26.1244  -31.5200   20.6099 H   0  0  0  0  0  0
  -26.8620  -30.7978   22.0105 H   0  0  0  0  0  0
  -28.0860  -28.8853   21.2474 H   0  0  0  0  0  0
  -25.8963  -25.9037   18.9824 H   0  0  0  0  0  0
  -23.9675  -27.3322   18.9632 H   0  0  0  0  0  0
  -23.8385  -30.6371   19.4137 H   0  0  0  0  0  0
  -22.7746  -29.3141   19.7901 H   0  0  0  0  0  0
  -25.1299  -36.1804   25.0822 H   0  0  0  0  0  0
  -21.0049  -28.3505   24.1285 H   0  0  0  0  0  0
  -20.5868  -26.2516   23.3572 H   0  0  0  0  0  0
  -21.6721  -26.7641   22.1139 H   0  0  0  0  0  0
  -19.7071  -25.6317   21.1357 H   0  0  0  0  0  0
  -19.6848  -27.3168   20.6702 H   0  0  0  0  0  0
  -17.4282  -26.6761   21.3967 H   0  0  0  0  0  0
  -18.0399  -26.0197   22.9023 H   0  0  0  0  0  0
  -19.8060  -30.7325   24.2270 H   0  0  0  0  0  0
  -17.5193  -31.6388   24.5248 H   0  0  0  0  0  0
  -15.5485  -30.3199   23.7748 H   0  0  0  0  0  0
  -15.8659  -28.1026   22.7067 H   0  0  0  0  0  0
  -24.5895  -30.7267   25.7695 H   0  0  0  0  0  0
  -24.9021  -32.3178   26.4695 H   0  0  0  0  0  0
  -25.8018  -30.9136   27.0244 H   0  0  0  0  0  0
  -26.3057  -29.6780   24.1282 H   0  0  0  0  0  0
  -27.4182  -29.7358   25.4737 H   0  0  0  0  0  0
  -27.8867  -30.4361   23.9421 H   0  0  0  0  0  0
  -27.2606  -33.3865   26.1881 H   0  0  0  0  0  0
  -28.3978  -32.6961   25.0416 H   0  0  0  0  0  0
  -28.0596  -31.8772   26.5600 H   0  0  0  0  0  0
  -28.2533  -38.0100   24.7493 H   0  0  0  0  0  0
  -28.1050  -36.2619   24.6290 H   0  0  0  0  0  0
  -27.2247  -37.1357   25.8859 H   0  0  0  0  0  0
  -20.9367  -29.8882   21.6683 H   0  0  0  0  0  0
  -26.0086  -38.2777   24.1565 H   0  0  0  0  0  0
  -31.3074  -20.4768   19.7411 H   0  0  0  0  0  0
  -26.6013  -19.6613   20.6547 H   0  0  0  0  0  0
  -26.2422  -21.3402   20.5586 H   0  0  0  0  0  0
  -27.0764  -20.6866   21.9859 H   0  0  0  0  0  0
  -26.8425  -24.6073   22.0944 H   0  0  0  0  0  0
  -27.0872  -22.9159   22.4341 H   0  0  0  0  0  0
  -26.1732  -23.4179   20.9991 H   0  0  0  0  0  0
  -27.5728  -24.7233   18.9822 H   0  0  0  0  0  0
  -29.2555  -24.8605   19.1852 H   0  0  0  0  0  0
  -28.0713  -21.0114   19.1158 H   0  0  0  0  0  0
  -29.0705  -24.0410   21.5263 H   0  0  0  0  0  0
  -28.7240  -15.5880   20.7990 H   0  0  0  0  0  0
  -29.7077  -22.4353   19.7938 H   0  0  0  0  0  0
  -29.5188  -22.0797   21.3334 H   0  0  0  0  0  0
  1 25  1  0  0  0
  1 30  2  0  0  0
  1 80  1  0  0  0
  2  3  1  0  0  0
  2 25  1  0  0  0
  2 83  1  0  0  0
  2 84  1  0  0  0
  3  4  1  0  0  0
  3 85  1  0  0  0
  3 86  1  0  0  0
  4  5  1  0  0  0
  4 87  1  0  0  0
  4 88  1  0  0  0
  5  6  1  0  0  0
  5 26  1  0  0  0
  5 89  1  0  0  0
  6 25  1  0  0  0
  6 90  1  0  0  0
  6 91  1  0  0  0
  7  8  2  0  0  0
  7 26  1  0  0  0
  7 29  1  0  0  0
  8  9  1  0  0  0
  8 22  1  0  0  0
  9 10  1  0  0  0
  9 27  2  0  0  0
 10 11  2  0  0  0
 10 15  1  0  0  0
 11 12  1  0  0  0
 11 92  1  0  0  0
 12 13  2  0  0  0
 12 93  1  0  0  0
 13 14  1  0  0  0
 13 31  1  0  0  0
 14 15  2  0  0  0
 14 94  1  0  0  0
 15 95  1  0  0  0
 16 17  2  0  0  0
 16 21  1  0  0  0
 16 31  1  0  0  0
 17 18  1  0  0  0
 17 96  1  0  0  0
 18 19  2  0  0  0
 18 97  1  0  0  0
 19 20  1  0  0  0
 19 24  1  0  0  0
 20 21  2  0  0  0
 20 98  1  0  0  0
 21 23  1  0  0  0
 22 28  1  0  0  0
 22 32  2  0  0  0
 26 27  1  0  0  0
 28 99  1  0  0  0
 28100  1  0  0  0
 29101  1  0  0  0
 29102  1  0  0  0
 33 34  1  0  0  0
 33 66  1  0  0  0
 33 70  2  0  0  0
 34 36  1  0  0  0
 34 59  1  0  0  0
 34103  1  0  0  0
 35 44  2  0  0  0
 35 45  1  0  0  0
 35 68  1  0  0  0
 36 56  1  0  0  0
 36104  1  0  0  0
 37 39  1  0  0  0
 37 47  1  0  0  0
 37 66  1  0  0  0
 37105  1  0  0  0
 38 43  2  0  0  0
 38 46  1  0  0  0
 38 47  1  0  0  0
 39 64  1  0  0  0
 39 67  2  0  0  0
 40 52  1  0  0  0
 40 53  2  0  0  0
 40 58  1  0  0  0
 41106  1  0  0  0
 41107  1  0  0  0
 41108  1  0  0  0
 41 48  1  0  0  0
 42 43  1  0  0  0
 42 66  1  0  0  0
 42109  1  0  0  0
 42110  1  0  0  0
 43 44  1  0  0  0
 44111  1  0  0  0
 45 46  2  0  0  0
 45112  1  0  0  0
 46113  1  0  0  0
 47114  1  0  0  0
 47115  1  0  0  0
 48 56  1  0  0  0
 48 65  1  0  0  0
 48116  1  0  0  0
 49 50  1  0  0  0
 49 53  1  0  0  0
 49 64  1  0  0  0
 49117  1  0  0  0
 50 51  1  0  0  0
 50118  1  0  0  0
 50119  1  0  0  0
 51 52  1  0  0  0
 51120  1  0  0  0
 51121  1  0  0  0
 52122  1  0  0  0
 52123  1  0  0  0
 53 54  1  0  0  0
 54 55  2  0  0  0
 54124  1  0  0  0
 55 57  1  0  0  0
 55125  1  0  0  0
 56 69  2  0  0  0
 57 58  2  0  0  0
 57126  1  0  0  0
 58127  1  0  0  0
 59 60  1  0  0  0
 59 61  1  0  0  0
 59 62  1  0  0  0
 60128  1  0  0  0
 60129  1  0  0  0
 60130  1  0  0  0
 61131  1  0  0  0
 61132  1  0  0  0
 61133  1  0  0  0
 62134  1  0  0  0
 62135  1  0  0  0
 62136  1  0  0  0
 63 65  1  0  0  0
 63137  1  0  0  0
 63138  1  0  0  0
 63139  1  0  0  0
 64140  1  0  0  0
 65141  1  0  0  0
 68 76  1  0  0  0
 71 72  2  0  0  0
 71 82  1  0  0  0
 71142  1  0  0  0
 72 77  1  0  0  0
 72 79  1  0  0  0
 73 79  2  0  0  0
 73 80  1  0  0  0
 73 82  1  0  0  0
 74143  1  0  0  0
 74144  1  0  0  0
 74145  1  0  0  0
 74 77  1  0  0  0
 75146  1  0  0  0
 75147  1  0  0  0
 75148  1  0  0  0
 75 78  1  0  0  0
 76 78  1  0  0  0
 76149  1  0  0  0
 76150  1  0  0  0
 77 81  1  0  0  0
 77151  1  0  0  0
 78 81  1  0  0  0
 78152  1  0  0  0
 80153  1  0  0  0
 81154  1  0  0  0
 81155  1  0  0  0
M  CHG  1  81   1
M  ISO  4   1 100  68 101  76 101  80 100
M  END
> <chiral flag>
0

> <version>
0

> <s_m_source_file>
/data/baiqing/PycharmProjects/Reinvent-master-3.2/result/LINK_invent/BTK/process_docking_weight1_custom_product_contain_oxygen_bond_distance_aromatic_linkinvent_7_9_3/rearranged_h_0195.sdf

> <i_m_source_file_index>
21

> <r_mmod_Potential_Energy-OPLS-2005>
-15.8326187133789

> <r_mmod_Stretch_Energy-OPLS-2005>
137.081146240234

> <r_mmod_Bend_Energy-OPLS-2005>
220.633682250977

> <r_mmod_Torsional_Energy-OPLS-2005>
218.73486328125

> <r_mmod_Improper_Torsional_Energy-OPLS-2005>
5.4268102645874

> <r_mmod_Van_der_Waal_Energy-OPLS-2005>
122.531326293945

> <r_mmod_Electrostatic_Energy-OPLS-2005>
-349.642395019531

> <r_mmod_Solvation_Energy-OPLS-2005>
-470.171173095703

> <b_mmod_Minimization_Converged-OPLS-2005>
0

> <r_mmod_RMS_Derivative-OPLS-2005>
7.42337226867676

$$$$
21
                    3D
 Structure written by MMmdl.
154162  0  0  1  0            999 V2000
  -30.6180  -14.7860   20.4368 C   0  0  0  0  0  0
  -30.4232  -12.4740   19.4964 C   0  0  0  0  0  0
  -29.5093  -12.5056   18.2521 C   0  0  0  0  0  0
  -28.0440  -12.2964   18.6715 C   0  0  0  0  0  0
  -27.6351  -13.2317   19.8391 C   0  0  2  0  0  0
  -28.6735  -13.2258   20.9818 C   0  0  0  0  0  0
  -25.2558  -13.8210   20.5734 C   0  0  0  0  0  0
  -24.1838  -13.0484   20.9194 C   0  0  0  0  0  0
  -24.6399  -11.6949   20.8781 C   0  0  0  0  0  0
  -23.9064  -10.4315   21.0426 C   0  0  0  0  0  0
  -24.3598   -9.4216   21.9198 C   0  0  0  0  0  0
  -23.6271   -8.2262   22.0741 C   0  0  0  0  0  0
  -22.4244   -8.0292   21.3557 C   0  0  0  0  0  0
  -21.9904   -9.0268   20.4656 C   0  0  0  0  0  0
  -22.7238  -10.2146   20.3076 C   0  0  0  0  0  0
  -21.6840   -6.0752   22.5312 C   0  0  0  0  0  0
  -21.4029   -6.5668   23.8244 C   0  0  0  0  0  0
  -21.3666   -5.6822   24.9199 C   0  0  0  0  0  0
  -21.6012   -4.3085   24.7258 C   0  0  0  0  0  0
  -21.8819   -3.8170   23.4393 C   0  0  0  0  0  0
  -21.9198   -4.6983   22.3436 C   0  0  0  0  0  0
  -22.7865  -13.5272   21.1863 C   0  0  0  0  0  0
  -22.1660   -4.2184   21.1010 F   0  0  0  0  0  0
  -21.5574   -3.4549   25.7762 F   0  0  0  0  0  0
  -29.9800  -13.5612   20.4008 N   0  0  0  0  0  0
  -26.2938  -12.9418   20.3265 N   0  0  0  0  0  0
  -25.9325  -11.6561   20.5767 N   0  0  0  0  0  0
  -22.0492  -12.8265   22.0404 N   0  0  0  0  0  0
  -25.4382  -15.1913   20.4191 N   0  0  0  0  0  0
  -31.8076  -14.8578   20.1237 O   0  0  0  0  0  0
  -21.6614   -6.8886   21.4256 O   0  0  0  0  0  0
  -22.3577  -14.5582   20.6691 O   0  0  0  0  0  0
  -24.6361  -31.8511   23.1937 C   0  0  0  0  0  0
  -25.9177  -32.4725   23.8262 C   0  0  1  0  0  0
  -27.1920  -27.2128   20.1111 C   0  0  0  0  0  0
  -25.5959  -33.8509   24.2186 N   0  0  0  0  0  0
  -23.4329  -30.4739   21.5397 C   0  0  2  0  0  0
  -24.8702  -28.9084   20.1106 C   0  0  0  0  0  0
  -22.7479  -29.4589   22.4884 C   0  0  0  0  0  0
  -18.0257  -28.1423   22.8459 C   0  0  0  0  0  0
  -24.1498  -36.7278   23.2637 C   0  0  0  0  0  0
  -25.9845  -30.7425   21.3841 C   0  0  0  0  0  0
  -26.0480  -29.3615   20.7209 C   0  0  0  0  0  0
  -27.2168  -28.5257   20.7028 C   0  0  0  0  0  0
  -25.9912  -26.8289   19.4873 C   0  0  0  0  0  0
  -24.8466  -27.6515   19.4856 C   0  0  0  0  0  0
  -23.6516  -29.8120   20.1545 C   0  0  0  0  0  0
  -25.4134  -36.3042   24.0301 C   0  0  1  0  0  0
  -20.5852  -28.3744   23.1249 C   0  0  2  0  0  0
  -20.6759  -26.9474   22.5397 C   0  0  0  0  0  0
  -19.5764  -26.6433   21.5197 C   0  0  0  0  0  0
  -18.1938  -26.7958   22.1599 C   0  0  0  0  0  0
  -19.1518  -28.8884   23.2853 C   0  0  0  0  0  0
  -18.9457  -30.1482   23.8896 C   0  0  0  0  0  0
  -17.6453  -30.6617   24.0579 C   0  0  0  0  0  0
  -25.9088  -34.9410   23.5052 C   0  0  0  0  0  0
  -16.5350  -29.9129   23.6307 C   0  0  0  0  0  0
  -16.7240  -28.6518   23.0370 C   0  0  0  0  0  0
  -26.4530  -31.6559   25.0660 C   0  0  0  0  0  0
  -25.3731  -31.3721   26.1367 C   0  0  0  0  0  0
  -27.0389  -30.2952   24.6188 C   0  0  0  0  0  0
  -27.6074  -32.4323   25.7456 C   0  0  0  0  0  0
  -27.5576  -37.1798   24.8458 C   0  0  0  0  0  0
  -21.4168  -29.3096   22.3642 N   0  0  0  0  0  0
  -26.4290  -37.3769   23.9394 N   0  0  0  0  0  0
  -24.7041  -31.0413   22.0953 N   0  0  0  0  0  0
  -23.4140  -28.8123   23.3002 O   0  0  0  0  0  0
  -28.2797  -26.3049   20.0675 O   0  0  0  0  0  0
  -26.5684  -34.8925   22.4626 O   0  0  0  0  0  0
  -23.5501  -32.1357   23.7219 O   0  0  0  0  0  0
  -29.2653  -18.6130   20.5221 C   0  0  0  0  0  0
  -27.2116  -19.2724   21.0309 C   0  0  0  0  0  0
  -28.6405  -20.8493   20.3816 C   0  0  0  0  0  0
  -28.4772  -23.7260   18.2162 C   0  0  0  0  0  0
  -30.3017  -17.4054   20.3869 C   0  0  0  0  0  0
  -28.1573  -24.8716   20.5680 C   0  0  0  0  0  0
  -28.1380  -23.4624   19.7016 C   0  0  2  0  0  0
  -28.0541  -18.2570   20.9328 N   0  0  0  0  0  0
  -29.6219  -19.9113   20.2448 N   0  0  0  0  0  0
  -27.4046  -20.5642   20.7738 N   0  0  0  0  0  0
  -25.9590  -18.9100   21.4261 N   0  0  0  0  0  0
  -28.9561  -22.2497   20.1850 N   0  0  0  0  0  0
  -29.8747  -15.9479   20.6122 N   0  0  0  0  0  0
  -31.4665  -12.5833   19.1974 H   0  0  0  0  0  0
  -30.3544  -11.5081   20.0026 H   0  0  0  0  0  0
  -29.8102  -11.7396   17.5347 H   0  0  0  0  0  0
  -29.6087  -13.4642   17.7409 H   0  0  0  0  0  0
  -27.9334  -11.2542   18.9752 H   0  0  0  0  0  0
  -27.3795  -12.4311   17.8154 H   0  0  0  0  0  0
  -27.6171  -14.2392   19.4200 H   0  0  0  0  0  0
  -28.7035  -12.2577   21.4876 H   0  0  0  0  0  0
  -28.3892  -13.9581   21.7391 H   0  0  0  0  0  0
  -25.2734   -9.5699   22.4788 H   0  0  0  0  0  0
  -24.0008   -7.4652   22.7462 H   0  0  0  0  0  0
  -21.0838   -8.8797   19.8953 H   0  0  0  0  0  0
  -22.3696  -10.9684   19.6201 H   0  0  0  0  0  0
  -21.2027   -7.6181   23.9774 H   0  0  0  0  0  0
  -21.1463   -6.0537   25.9108 H   0  0  0  0  0  0
  -22.0574   -2.7639   23.2892 H   0  0  0  0  0  0
  -22.4088  -11.9877   22.4747 H   0  0  0  0  0  0
  -21.1154  -13.1362   22.2641 H   0  0  0  0  0  0
  -24.6807  -15.8601   20.4878 H   0  0  0  0  0  0
  -26.3117  -15.6144   20.1286 H   0  0  0  0  0  0
  -26.7216  -32.5321   23.0973 H   0  0  0  0  0  0
  -25.0091  -33.9636   25.0315 H   0  0  0  0  0  0
  -22.7335  -31.2995   21.3903 H   0  0  0  0  0  0
  -23.3765  -35.9612   23.3312 H   0  0  0  0  0  0
  -24.3582  -36.8901   22.2052 H   0  0  0  0  0  0
  -23.7272  -37.6467   23.6685 H   0  0  0  0  0  0
  -26.1378  -31.5056   20.6216 H   0  0  0  0  0  0
  -26.8624  -30.7824   22.0186 H   0  0  0  0  0  0
  -28.1284  -28.8627   21.1765 H   0  0  0  0  0  0
  -25.9342  -25.8709   18.9871 H   0  0  0  0  0  0
  -23.9434  -27.3051   19.0015 H   0  0  0  0  0  0
  -23.7961  -30.5947   19.4098 H   0  0  0  0  0  0
  -22.7655  -29.2593   19.8359 H   0  0  0  0  0  0
  -25.1325  -36.1866   25.0796 H   0  0  0  0  0  0
  -20.9911  -28.3378   24.1395 H   0  0  0  0  0  0
  -20.5683  -26.2359   23.3585 H   0  0  0  0  0  0
  -21.6616  -26.7536   22.1159 H   0  0  0  0  0  0
  -19.6967  -25.6342   21.1252 H   0  0  0  0  0  0
  -19.6742  -27.3225   20.6726 H   0  0  0  0  0  0
  -17.4205  -26.6663   21.4023 H   0  0  0  0  0  0
  -18.0403  -26.0102   22.9010 H   0  0  0  0  0  0
  -19.7934  -30.7234   24.2298 H   0  0  0  0  0  0
  -17.5029  -31.6300   24.5175 H   0  0  0  0  0  0
  -15.5364  -30.3036   23.7623 H   0  0  0  0  0  0
  -15.8636  -28.0812   22.7107 H   0  0  0  0  0  0
  -24.5926  -30.7068   25.7660 H   0  0  0  0  0  0
  -24.8917  -32.2897   26.4742 H   0  0  0  0  0  0
  -25.8026  -30.8898   27.0153 H   0  0  0  0  0  0
  -26.2950  -29.6684   24.1257 H   0  0  0  0  0  0
  -27.4078  -29.7231   25.4701 H   0  0  0  0  0  0
  -27.8837  -30.4178   23.9425 H   0  0  0  0  0  0
  -27.2655  -33.3631   26.2009 H   0  0  0  0  0  0
  -28.3920  -32.6890   25.0319 H   0  0  0  0  0  0
  -28.0733  -31.8468   26.5395 H   0  0  0  0  0  0
  -28.2599  -38.0099   24.7512 H   0  0  0  0  0  0
  -28.1079  -36.2612   24.6290 H   0  0  0  0  0  0
  -27.2289  -37.1456   25.8868 H   0  0  0  0  0  0
  -20.9330  -29.8810   21.6852 H   0  0  0  0  0  0
  -26.0153  -38.2826   24.1423 H   0  0  0  0  0  0
  -28.3549  -22.8198   17.6209 H   0  0  0  0  0  0
  -29.5092  -24.0638   18.0866 H   0  0  0  0  0  0
  -27.8287  -24.4841   17.7662 H   0  0  0  0  0  0
  -30.7226  -17.4650   19.3806 H   0  0  0  0  0  0
  -31.1323  -17.6270   21.0626 H   0  0  0  0  0  0
  -29.0130  -24.7809   21.2329 H   0  0  0  0  0  0
  -27.3060  -24.8436   21.2489 H   0  0  0  0  0  0
  -27.0979  -23.1267   19.7078 H   0  0  0  0  0  0
  -25.3551  -19.6380   21.7856 H   0  0  0  0  0  0
  -25.8635  -18.0121   21.8822 H   0  0  0  0  0  0
  -29.9381  -22.3544   19.9683 H   0  0  0  0  0  0
  -28.8987  -15.8543   20.8492 H   0  0  0  0  0  0
  1 25  1  0  0  0
  1 30  2  0  0  0
  1 83  1  0  0  0
  2  3  1  0  0  0
  2 25  1  0  0  0
  2 84  1  0  0  0
  2 85  1  0  0  0
  3  4  1  0  0  0
  3 86  1  0  0  0
  3 87  1  0  0  0
  4  5  1  0  0  0
  4 88  1  0  0  0
  4 89  1  0  0  0
  5  6  1  0  0  0
  5 26  1  0  0  0
  5 90  1  0  0  0
  6 25  1  0  0  0
  6 91  1  0  0  0
  6 92  1  0  0  0
  7  8  2  0  0  0
  7 26  1  0  0  0
  7 29  1  0  0  0
  8  9  1  0  0  0
  8 22  1  0  0  0
  9 10  1  0  0  0
  9 27  2  0  0  0
 10 11  2  0  0  0
 10 15  1  0  0  0
 11 12  1  0  0  0
 11 93  1  0  0  0
 12 13  2  0  0  0
 12 94  1  0  0  0
 13 14  1  0  0  0
 13 31  1  0  0  0
 14 15  2  0  0  0
 14 95  1  0  0  0
 15 96  1  0  0  0
 16 17  2  0  0  0
 16 21  1  0  0  0
 16 31  1  0  0  0
 17 18  1  0  0  0
 17 97  1  0  0  0
 18 19  2  0  0  0
 18 98  1  0  0  0
 19 20  1  0  0  0
 19 24  1  0  0  0
 20 21  2  0  0  0
 20 99  1  0  0  0
 21 23  1  0  0  0
 22 28  1  0  0  0
 22 32  2  0  0  0
 26 27  1  0  0  0
 28100  1  0  0  0
 28101  1  0  0  0
 29102  1  0  0  0
 29103  1  0  0  0
 33 34  1  0  0  0
 33 66  1  0  0  0
 33 70  2  0  0  0
 34 36  1  0  0  0
 34 59  1  0  0  0
 34104  1  0  0  0
 35 44  2  0  0  0
 35 45  1  0  0  0
 35 68  1  0  0  0
 36 56  1  0  0  0
 36105  1  0  0  0
 37 39  1  0  0  0
 37 47  1  0  0  0
 37 66  1  0  0  0
 37106  1  0  0  0
 38 43  2  0  0  0
 38 46  1  0  0  0
 38 47  1  0  0  0
 39 64  1  0  0  0
 39 67  2  0  0  0
 40 52  1  0  0  0
 40 53  2  0  0  0
 40 58  1  0  0  0
 41107  1  0  0  0
 41108  1  0  0  0
 41109  1  0  0  0
 41 48  1  0  0  0
 42 43  1  0  0  0
 42 66  1  0  0  0
 42110  1  0  0  0
 42111  1  0  0  0
 43 44  1  0  0  0
 44112  1  0  0  0
 45 46  2  0  0  0
 45113  1  0  0  0
 46114  1  0  0  0
 47115  1  0  0  0
 47116  1  0  0  0
 48 56  1  0  0  0
 48 65  1  0  0  0
 48117  1  0  0  0
 49 50  1  0  0  0
 49 53  1  0  0  0
 49 64  1  0  0  0
 49118  1  0  0  0
 50 51  1  0  0  0
 50119  1  0  0  0
 50120  1  0  0  0
 51 52  1  0  0  0
 51121  1  0  0  0
 51122  1  0  0  0
 52123  1  0  0  0
 52124  1  0  0  0
 53 54  1  0  0  0
 54 55  2  0  0  0
 54125  1  0  0  0
 55 57  1  0  0  0
 55126  1  0  0  0
 56 69  2  0  0  0
 57 58  2  0  0  0
 57127  1  0  0  0
 58128  1  0  0  0
 59 60  1  0  0  0
 59 61  1  0  0  0
 59 62  1  0  0  0
 60129  1  0  0  0
 60130  1  0  0  0
 60131  1  0  0  0
 61132  1  0  0  0
 61133  1  0  0  0
 61134  1  0  0  0
 62135  1  0  0  0
 62136  1  0  0  0
 62137  1  0  0  0
 63 65  1  0  0  0
 63138  1  0  0  0
 63139  1  0  0  0
 63140  1  0  0  0
 64141  1  0  0  0
 65142  1  0  0  0
 68 76  1  0  0  0
 71 75  1  0  0  0
 71 78  1  0  0  0
 71 79  2  0  0  0
 72 78  2  0  0  0
 72 80  1  0  0  0
 72 81  1  0  0  0
 73 79  1  0  0  0
 73 80  2  0  0  0
 73 82  1  0  0  0
 74143  1  0  0  0
 74144  1  0  0  0
 74145  1  0  0  0
 74 77  1  0  0  0
 75 83  1  0  0  0
 75146  1  0  0  0
 75147  1  0  0  0
 76 77  1  0  0  0
 76148  1  0  0  0
 76149  1  0  0  0
 77 82  1  0  0  0
 77150  1  0  0  0
 81151  1  0  0  0
 81152  1  0  0  0
 82153  1  0  0  0
 83154  1  0  0  0
M  ISO  4   1 100  68 101  76 101  83 100
M  END
> <chiral flag>
0

> <version>
0

> <s_m_source_file>
/data/baiqing/PycharmProjects/Reinvent-master-3.2/result/LINK_invent/BTK/process_docking_weight1_custom_product_contain_oxygen_bond_distance_aromatic_linkinvent_7_9_3/rearranged_h_0195.sdf

> <i_m_source_file_index>
22

> <r_mmod_Potential_Energy-OPLS-2005>
-887.424560546875

> <r_mmod_Stretch_Energy-OPLS-2005>
139.992568969727

> <r_mmod_Bend_Energy-OPLS-2005>
198.147796630859

> <r_mmod_Torsional_Energy-OPLS-2005>
234.474914550781

> <r_mmod_Improper_Torsional_Energy-OPLS-2005>
9.71615505218506

> <r_mmod_Van_der_Waal_Energy-OPLS-2005>
143.857513427734

> <r_mmod_Electrostatic_Energy-OPLS-2005>
-1484.69543457031

> <r_mmod_Solvation_Energy-OPLS-2005>
-239.072204589844

> <b_mmod_Minimization_Converged-OPLS-2005>
0

> <r_mmod_RMS_Derivative-OPLS-2005>
6.60506629943848

$$$$
22
                    3D
 Structure written by MMmdl.
155163  0  0  1  0            999 V2000
  -30.6033  -14.7657   20.4440 C   0  0  0  0  0  0
  -30.4347  -12.4671   19.4749 C   0  0  0  0  0  0
  -29.5129  -12.5094   18.2364 C   0  0  0  0  0  0
  -28.0387  -12.3316   18.6500 C   0  0  0  0  0  0
  -27.6401  -13.2354   19.8484 C   0  0  2  0  0  0
  -28.6857  -13.1811   20.9830 C   0  0  0  0  0  0
  -25.2496  -13.8218   20.5701 C   0  0  0  0  0  0
  -24.1796  -13.0444   20.9206 C   0  0  0  0  0  0
  -24.6402  -11.6927   20.8747 C   0  0  0  0  0  0
  -23.9086  -10.4298   21.0409 C   0  0  0  0  0  0
  -24.3632   -9.4207   21.9181 C   0  0  0  0  0  0
  -23.6302   -8.2243   22.0755 C   0  0  0  0  0  0
  -22.4283   -8.0290   21.3549 C   0  0  0  0  0  0
  -21.9923   -9.0263   20.4650 C   0  0  0  0  0  0
  -22.7257  -10.2143   20.3064 C   0  0  0  0  0  0
  -21.6861   -6.0740   22.5279 C   0  0  0  0  0  0
  -21.4018   -6.5643   23.8215 C   0  0  0  0  0  0
  -21.3658   -5.6797   24.9180 C   0  0  0  0  0  0
  -21.6043   -4.3056   24.7228 C   0  0  0  0  0  0
  -21.8823   -3.8152   23.4349 C   0  0  0  0  0  0
  -21.9192   -4.6967   22.3404 C   0  0  0  0  0  0
  -22.7812  -13.5219   21.1868 C   0  0  0  0  0  0
  -22.1664   -4.2153   21.0983 F   0  0  0  0  0  0
  -21.5624   -3.4533   25.7735 F   0  0  0  0  0  0
  -29.9842  -13.5355   20.3966 N   0  0  0  0  0  0
  -26.2933  -12.9433   20.3279 N   0  0  0  0  0  0
  -25.9333  -11.6567   20.5752 N   0  0  0  0  0  0
  -22.0469  -12.8210   22.0434 N   0  0  0  0  0  0
  -25.4097  -15.1958   20.4167 N   0  0  0  0  0  0
  -31.7959  -14.8599   20.1419 O   0  0  0  0  0  0
  -21.6654   -6.8878   21.4239 O   0  0  0  0  0  0
  -22.3487  -14.5523   20.6719 O   0  0  0  0  0  0
  -24.6315  -31.8517   23.1956 C   0  0  0  0  0  0
  -25.9132  -32.4733   23.8307 C   0  0  1  0  0  0
  -27.2254  -27.2428   20.1257 C   0  0  0  0  0  0
  -25.5921  -33.8537   24.2234 N   0  0  0  0  0  0
  -23.4286  -30.4720   21.5384 C   0  0  2  0  0  0
  -24.8763  -28.9106   20.1089 C   0  0  0  0  0  0
  -22.7502  -29.4578   22.4908 C   0  0  0  0  0  0
  -18.0290  -28.1375   22.8484 C   0  0  0  0  0  0
  -24.1494  -36.7275   23.2644 C   0  0  0  0  0  0
  -25.9746  -30.7574   21.3769 C   0  0  0  0  0  0
  -26.0460  -29.3775   20.7192 C   0  0  0  0  0  0
  -27.2181  -28.5549   20.7164 C   0  0  0  0  0  0
  -26.0276  -26.8387   19.4961 C   0  0  0  0  0  0
  -24.8728  -27.6501   19.4882 C   0  0  0  0  0  0
  -23.6473  -29.7998   20.1563 C   0  0  0  0  0  0
  -25.4122  -36.3058   24.0329 C   0  0  1  0  0  0
  -20.5894  -28.3685   23.1274 C   0  0  2  0  0  0
  -20.6772  -26.9399   22.5414 C   0  0  0  0  0  0
  -19.5751  -26.6372   21.5213 C   0  0  0  0  0  0
  -18.1932  -26.7915   22.1625 C   0  0  0  0  0  0
  -19.1543  -28.8850   23.2870 C   0  0  0  0  0  0
  -18.9464  -30.1453   23.8884 C   0  0  0  0  0  0
  -17.6463  -30.6579   24.0557 C   0  0  0  0  0  0
  -25.9060  -34.9428   23.5090 C   0  0  0  0  0  0
  -16.5355  -29.9074   23.6330 C   0  0  0  0  0  0
  -16.7277  -28.6492   23.0352 C   0  0  0  0  0  0
  -26.4503  -31.6572   25.0709 C   0  0  0  0  0  0
  -25.3733  -31.3709   26.1435 C   0  0  0  0  0  0
  -27.0355  -30.2989   24.6209 C   0  0  0  0  0  0
  -27.6049  -32.4329   25.7483 C   0  0  0  0  0  0
  -27.5583  -37.1799   24.8468 C   0  0  0  0  0  0
  -21.4208  -29.3030   22.3660 N   0  0  0  0  0  0
  -26.4295  -37.3761   23.9406 N   0  0  0  0  0  0
  -24.6972  -31.0472   22.0925 N   0  0  0  0  0  0
  -23.4204  -28.8130   23.3016 O   0  0  0  0  0  0
  -28.3496  -26.3832   20.2030 O   0  0  0  0  0  0
  -26.5643  -34.8910   22.4665 O   0  0  0  0  0  0
  -23.5464  -32.1342   23.7252 O   0  0  0  0  0  0
  -27.4672  -20.6523   19.5408 C   0  0  0  0  0  0
  -29.2153  -18.5963   20.1815 C   0  0  0  0  0  0
  -28.7209  -20.9864   20.1056 C   0  0  0  0  0  0
  -27.9460  -18.3769   19.5752 C   0  0  0  0  0  0
  -26.9307  -23.3860   21.1010 C   0  0  0  0  0  0
  -30.2325  -17.3887   20.5049 C   0  0  0  0  0  0
  -28.4283  -24.9680   19.6752 C   0  0  0  0  0  0
  -28.3686  -23.6454   20.6293 C   0  0  2  0  0  0
  -27.0867  -19.3767   19.2826 N   0  0  0  0  0  0
  -29.5841  -19.9301   20.4218 N   0  0  0  0  0  0
  -27.5060  -17.1241   19.1720 N   0  0  0  0  0  0
  -29.1391  -22.3726   20.2409 N   0  0  0  0  0  0
  -29.8282  -15.9060   20.6146 N   0  0  0  0  0  0
  -31.4759  -12.5931   19.1728 H   0  0  0  0  0  0
  -30.3810  -11.4929   19.9641 H   0  0  0  0  0  0
  -29.7999  -11.7314   17.5276 H   0  0  0  0  0  0
  -29.6378  -13.4606   17.7157 H   0  0  0  0  0  0
  -27.8980  -11.2832   18.9165 H   0  0  0  0  0  0
  -27.3814  -12.5200   17.8002 H   0  0  0  0  0  0
  -27.6275  -14.2546   19.4638 H   0  0  0  0  0  0
  -28.7247  -12.1880   21.4316 H   0  0  0  0  0  0
  -28.4192  -13.8696   21.7866 H   0  0  0  0  0  0
  -25.2777   -9.5673   22.4754 H   0  0  0  0  0  0
  -24.0008   -7.4634   22.7473 H   0  0  0  0  0  0
  -21.0856   -8.8791   19.8954 H   0  0  0  0  0  0
  -22.3715  -10.9687   19.6179 H   0  0  0  0  0  0
  -21.2023   -7.6152   23.9718 H   0  0  0  0  0  0
  -21.1470   -6.0528   25.9080 H   0  0  0  0  0  0
  -22.0604   -2.7612   23.2855 H   0  0  0  0  0  0
  -22.4085  -11.9859   22.4804 H   0  0  0  0  0  0
  -21.1082  -13.1227   22.2637 H   0  0  0  0  0  0
  -26.2428  -15.6756   20.0799 H   0  0  0  0  0  0
  -24.6309  -15.8332   20.5363 H   0  0  0  0  0  0
  -26.7191  -32.5376   23.1034 H   0  0  0  0  0  0
  -25.0041  -33.9662   25.0364 H   0  0  0  0  0  0
  -22.7252  -31.2943   21.3904 H   0  0  0  0  0  0
  -23.3761  -35.9601   23.3296 H   0  0  0  0  0  0
  -24.3577  -36.8910   22.2060 H   0  0  0  0  0  0
  -23.7253  -37.6474   23.6676 H   0  0  0  0  0  0
  -26.1184  -31.5182   20.6085 H   0  0  0  0  0  0
  -26.8497  -30.8045   22.0137 H   0  0  0  0  0  0
  -28.1146  -28.9083   21.2065 H   0  0  0  0  0  0
  -25.9462  -25.8699   19.0287 H   0  0  0  0  0  0
  -23.9735  -27.2839   19.0131 H   0  0  0  0  0  0
  -23.7707  -30.5725   19.3967 H   0  0  0  0  0  0
  -22.7652  -29.2320   19.8540 H   0  0  0  0  0  0
  -25.1312  -36.1893   25.0824 H   0  0  0  0  0  0
  -20.9985  -28.3257   24.1395 H   0  0  0  0  0  0
  -20.5656  -26.2294   23.3619 H   0  0  0  0  0  0
  -21.6640  -26.7404   22.1219 H   0  0  0  0  0  0
  -19.6905  -25.6281   21.1247 H   0  0  0  0  0  0
  -19.6687  -27.3178   20.6740 H   0  0  0  0  0  0
  -17.4199  -26.6659   21.4031 H   0  0  0  0  0  0
  -18.0329  -26.0057   22.9023 H   0  0  0  0  0  0
  -19.7942  -30.7271   24.2245 H   0  0  0  0  0  0
  -17.5017  -31.6256   24.5156 H   0  0  0  0  0  0
  -15.5354  -30.2969   23.7660 H   0  0  0  0  0  0
  -15.8678  -28.0807   22.7072 H   0  0  0  0  0  0
  -24.5917  -30.7041   25.7770 H   0  0  0  0  0  0
  -24.8910  -32.2865   26.4868 H   0  0  0  0  0  0
  -25.8068  -30.8889   27.0207 H   0  0  0  0  0  0
  -26.2930  -29.6726   24.1248 H   0  0  0  0  0  0
  -27.4043  -29.7268   25.4733 H   0  0  0  0  0  0
  -27.8807  -30.4259   23.9440 H   0  0  0  0  0  0
  -27.2643  -33.3636   26.2033 H   0  0  0  0  0  0
  -28.3866  -32.6885   25.0318 H   0  0  0  0  0  0
  -28.0701  -31.8472   26.5420 H   0  0  0  0  0  0
  -28.2604  -38.0093   24.7508 H   0  0  0  0  0  0
  -28.1077  -36.2625   24.6303 H   0  0  0  0  0  0
  -27.2293  -37.1456   25.8869 H   0  0  0  0  0  0
  -20.9391  -29.8752   21.6867 H   0  0  0  0  0  0
  -26.0170  -38.2835   24.1394 H   0  0  0  0  0  0
  -26.7752  -21.4121   19.2156 H   0  0  0  0  0  0
  -26.5435  -24.2609   21.6250 H   0  0  0  0  0  0
  -26.8710  -22.5460   21.7937 H   0  0  0  0  0  0
  -26.2521  -23.2040   20.2690 H   0  0  0  0  0  0
  -31.0119  -17.4487   19.7443 H   0  0  0  0  0  0
  -30.7295  -17.6418   21.4411 H   0  0  0  0  0  0
  -27.7639  -24.8291   18.8242 H   0  0  0  0  0  0
  -29.4164  -24.9440   19.2145 H   0  0  0  0  0  0
  -28.9049  -23.9534   21.5280 H   0  0  0  0  0  0
  -28.2500  -16.5013   18.8837 H   0  0  0  0  0  0
  -26.7566  -17.1494   18.4907 H   0  0  0  0  0  0
  -30.1290  -22.4513   20.4526 H   0  0  0  0  0  0
  -28.8532  -15.7434   20.8198 H   0  0  0  0  0  0
  1 25  1  0  0  0
  1 30  2  0  0  0
  1 83  1  0  0  0
  2  3  1  0  0  0
  2 25  1  0  0  0
  2 84  1  0  0  0
  2 85  1  0  0  0
  3  4  1  0  0  0
  3 86  1  0  0  0
  3 87  1  0  0  0
  4  5  1  0  0  0
  4 88  1  0  0  0
  4 89  1  0  0  0
  5  6  1  0  0  0
  5 26  1  0  0  0
  5 90  1  0  0  0
  6 25  1  0  0  0
  6 91  1  0  0  0
  6 92  1  0  0  0
  7  8  2  0  0  0
  7 26  1  0  0  0
  7 29  1  0  0  0
  8  9  1  0  0  0
  8 22  1  0  0  0
  9 10  1  0  0  0
  9 27  2  0  0  0
 10 11  2  0  0  0
 10 15  1  0  0  0
 11 12  1  0  0  0
 11 93  1  0  0  0
 12 13  2  0  0  0
 12 94  1  0  0  0
 13 14  1  0  0  0
 13 31  1  0  0  0
 14 15  2  0  0  0
 14 95  1  0  0  0
 15 96  1  0  0  0
 16 17  2  0  0  0
 16 21  1  0  0  0
 16 31  1  0  0  0
 17 18  1  0  0  0
 17 97  1  0  0  0
 18 19  2  0  0  0
 18 98  1  0  0  0
 19 20  1  0  0  0
 19 24  1  0  0  0
 20 21  2  0  0  0
 20 99  1  0  0  0
 21 23  1  0  0  0
 22 28  1  0  0  0
 22 32  2  0  0  0
 26 27  1  0  0  0
 28100  1  0  0  0
 28101  1  0  0  0
 29102  1  0  0  0
 29103  1  0  0  0
 33 34  1  0  0  0
 33 66  1  0  0  0
 33 70  2  0  0  0
 34 36  1  0  0  0
 34 59  1  0  0  0
 34104  1  0  0  0
 35 44  2  0  0  0
 35 45  1  0  0  0
 35 68  1  0  0  0
 36 56  1  0  0  0
 36105  1  0  0  0
 37 39  1  0  0  0
 37 47  1  0  0  0
 37 66  1  0  0  0
 37106  1  0  0  0
 38 43  2  0  0  0
 38 46  1  0  0  0
 38 47  1  0  0  0
 39 64  1  0  0  0
 39 67  2  0  0  0
 40 52  1  0  0  0
 40 53  2  0  0  0
 40 58  1  0  0  0
 41107  1  0  0  0
 41108  1  0  0  0
 41109  1  0  0  0
 41 48  1  0  0  0
 42 43  1  0  0  0
 42 66  1  0  0  0
 42110  1  0  0  0
 42111  1  0  0  0
 43 44  1  0  0  0
 44112  1  0  0  0
 45 46  2  0  0  0
 45113  1  0  0  0
 46114  1  0  0  0
 47115  1  0  0  0
 47116  1  0  0  0
 48 56  1  0  0  0
 48 65  1  0  0  0
 48117  1  0  0  0
 49 50  1  0  0  0
 49 53  1  0  0  0
 49 64  1  0  0  0
 49118  1  0  0  0
 50 51  1  0  0  0
 50119  1  0  0  0
 50120  1  0  0  0
 51 52  1  0  0  0
 51121  1  0  0  0
 51122  1  0  0  0
 52123  1  0  0  0
 52124  1  0  0  0
 53 54  1  0  0  0
 54 55  2  0  0  0
 54125  1  0  0  0
 55 57  1  0  0  0
 55126  1  0  0  0
 56 69  2  0  0  0
 57 58  2  0  0  0
 57127  1  0  0  0
 58128  1  0  0  0
 59 60  1  0  0  0
 59 61  1  0  0  0
 59 62  1  0  0  0
 60129  1  0  0  0
 60130  1  0  0  0
 60131  1  0  0  0
 61132  1  0  0  0
 61133  1  0  0  0
 61134  1  0  0  0
 62135  1  0  0  0
 62136  1  0  0  0
 62137  1  0  0  0
 63 65  1  0  0  0
 63138  1  0  0  0
 63139  1  0  0  0
 63140  1  0  0  0
 64141  1  0  0  0
 65142  1  0  0  0
 68 77  1  0  0  0
 71 73  2  0  0  0
 71 79  1  0  0  0
 71143  1  0  0  0
 72 74  1  0  0  0
 72 76  1  0  0  0
 72 80  2  0  0  0
 73 80  1  0  0  0
 73 82  1  0  0  0
 74 79  2  0  0  0
 74 81  1  0  0  0
 75144  1  0  0  0
 75145  1  0  0  0
 75146  1  0  0  0
 75 78  1  0  0  0
 76 83  1  0  0  0
 76147  1  0  0  0
 76148  1  0  0  0
 77 78  1  0  0  0
 77149  1  0  0  0
 77150  1  0  0  0
 78 82  1  0  0  0
 78151  1  0  0  0
 81152  1  0  0  0
 81153  1  0  0  0
 82154  1  0  0  0
 83155  1  0  0  0
M  ISO  4   1 100  68 101  77 101  83 100
M  END
> <chiral flag>
0

> <version>
0

> <s_m_source_file>
/data/baiqing/PycharmProjects/Reinvent-master-3.2/result/LINK_invent/BTK/process_docking_weight1_custom_product_contain_oxygen_bond_distance_aromatic_linkinvent_7_9_3/rearranged_h_0195.sdf

> <i_m_source_file_index>
23

> <r_mmod_Potential_Energy-OPLS-2005>
103.660888671875

> <r_mmod_Stretch_Energy-OPLS-2005>
141.288192749023

> <r_mmod_Bend_Energy-OPLS-2005>
214.499252319336

> <r_mmod_Torsional_Energy-OPLS-2005>
207.956481933594

> <r_mmod_Improper_Torsional_Energy-OPLS-2005>
11.9058103561401

> <r_mmod_Van_der_Waal_Energy-OPLS-2005>
137.017395019531

> <r_mmod_Electrostatic_Energy-OPLS-2005>
-474.283416748047

> <r_mmod_Solvation_Energy-OPLS-2005>
-227.987655639648

> <b_mmod_Minimization_Converged-OPLS-2005>
0

> <r_mmod_RMS_Derivative-OPLS-2005>
1.13158822059631

$$$$
23
                    3D
 Structure written by MMmdl.
153161  0  0  1  0            999 V2000
  -30.5970  -14.7910   20.4249 C   0  0  0  0  0  0
  -30.4432  -12.4826   19.4806 C   0  0  0  0  0  0
  -29.5104  -12.4944   18.2503 C   0  0  0  0  0  0
  -28.0397  -12.3240   18.6771 C   0  0  0  0  0  0
  -27.6433  -13.2413   19.8636 C   0  0  2  0  0  0
  -28.6962  -13.1983   20.9936 C   0  0  0  0  0  0
  -25.2430  -13.8133   20.5733 C   0  0  0  0  0  0
  -24.1735  -13.0346   20.9213 C   0  0  0  0  0  0
  -24.6367  -11.6870   20.8752 C   0  0  0  0  0  0
  -23.9032  -10.4263   21.0388 C   0  0  0  0  0  0
  -24.3590   -9.4182   21.9186 C   0  0  0  0  0  0
  -23.6274   -8.2211   22.0749 C   0  0  0  0  0  0
  -22.4275   -8.0242   21.3527 C   0  0  0  0  0  0
  -21.9895   -9.0208   20.4643 C   0  0  0  0  0  0
  -22.7186  -10.2108   20.3039 C   0  0  0  0  0  0
  -21.6868   -6.0689   22.5259 C   0  0  0  0  0  0
  -21.4023   -6.5598   23.8181 C   0  0  0  0  0  0
  -21.3649   -5.6759   24.9151 C   0  0  0  0  0  0
  -21.6035   -4.3023   24.7224 C   0  0  0  0  0  0
  -21.8819   -3.8103   23.4351 C   0  0  0  0  0  0
  -21.9203   -4.6919   22.3395 C   0  0  0  0  0  0
  -22.7786  -13.5165   21.1902 C   0  0  0  0  0  0
  -22.1662   -4.2071   21.0982 F   0  0  0  0  0  0
  -21.5650   -3.4531   25.7751 F   0  0  0  0  0  0
  -29.9869  -13.5556   20.3953 N   0  0  0  0  0  0
  -26.2941  -12.9418   20.3435 N   0  0  0  0  0  0
  -25.9340  -11.6535   20.5901 N   0  0  0  0  0  0
  -22.0450  -12.8156   22.0470 N   0  0  0  0  0  0
  -25.3931  -15.1838   20.4186 N   0  0  0  0  0  0
  -31.7910  -14.8794   20.1256 O   0  0  0  0  0  0
  -21.6635   -6.8843   21.4233 O   0  0  0  0  0  0
  -22.3471  -14.5465   20.6768 O   0  0  0  0  0  0
  -24.6283  -31.8522   23.1952 C   0  0  0  0  0  0
  -25.9091  -32.4735   23.8327 C   0  0  1  0  0  0
  -27.2209  -27.2501   20.1232 C   0  0  0  0  0  0
  -25.5882  -33.8541   24.2252 N   0  0  0  0  0  0
  -23.4268  -30.4717   21.5407 C   0  0  2  0  0  0
  -24.8709  -28.9125   20.1053 C   0  0  0  0  0  0
  -22.7506  -29.4555   22.4927 C   0  0  0  0  0  0
  -18.0269  -28.1366   22.8476 C   0  0  0  0  0  0
  -24.1471  -36.7307   23.2640 C   0  0  0  0  0  0
  -25.9708  -30.7655   21.3723 C   0  0  0  0  0  0
  -26.0414  -29.3838   20.7128 C   0  0  0  0  0  0
  -27.2151  -28.5640   20.7069 C   0  0  0  0  0  0
  -26.0265  -26.8416   19.4931 C   0  0  0  0  0  0
  -24.8703  -27.6523   19.4820 C   0  0  0  0  0  0
  -23.6423  -29.8008   20.1568 C   0  0  0  0  0  0
  -25.4103  -36.3090   24.0325 C   0  0  1  0  0  0
  -20.5887  -28.3684   23.1330 C   0  0  2  0  0  0
  -20.6786  -26.9412   22.5449 C   0  0  0  0  0  0
  -19.5740  -26.6402   21.5226 C   0  0  0  0  0  0
  -18.1910  -26.7907   22.1640 C   0  0  0  0  0  0
  -19.1520  -28.8842   23.2879 C   0  0  0  0  0  0
  -18.9410  -30.1428   23.8870 C   0  0  0  0  0  0
  -17.6396  -30.6570   24.0505 C   0  0  0  0  0  0
  -25.9026  -34.9451   23.5113 C   0  0  0  0  0  0
  -16.5313  -29.9046   23.6280 C   0  0  0  0  0  0
  -16.7259  -28.6442   23.0342 C   0  0  0  0  0  0
  -26.4467  -31.6588   25.0729 C   0  0  0  0  0  0
  -25.3702  -31.3752   26.1458 C   0  0  0  0  0  0
  -27.0329  -30.3016   24.6224 C   0  0  0  0  0  0
  -27.6018  -32.4343   25.7512 C   0  0  0  0  0  0
  -27.5581  -37.1809   24.8464 C   0  0  0  0  0  0
  -21.4194  -29.3009   22.3701 N   0  0  0  0  0  0
  -26.4290  -37.3782   23.9393 N   0  0  0  0  0  0
  -24.6957  -31.0492   22.0934 N   0  0  0  0  0  0
  -23.4210  -28.8135   23.3053 O   0  0  0  0  0  0
  -28.3389  -26.3884   20.2280 O   0  0  0  0  0  0
  -26.5625  -34.8934   22.4699 O   0  0  0  0  0  0
  -23.5451  -32.1346   23.7250 O   0  0  0  0  0  0
  -26.9477  -19.4440   20.7289 C   0  0  0  0  0  0
  -27.8222  -18.3432   20.6393 C   0  0  0  0  0  0
  -29.1800  -18.6178   20.4053 C   0  0  0  0  0  0
  -28.6203  -20.9600   20.3230 C   0  0  0  0  0  0
  -28.1592  -23.8607   21.9769 C   0  0  0  0  0  0
  -30.2260  -17.4050   20.3216 C   0  0  0  0  0  0
  -28.4698  -24.9930   19.6697 C   0  0  0  0  0  0
  -28.1366  -23.6067   20.4611 C   0  0  2  0  0  0
  -27.3457  -20.7281   20.5790 N   0  0  0  0  0  0
  -29.5533  -19.9586   20.2338 N   0  0  0  0  0  0
  -28.9507  -22.3489   20.1279 N   0  0  0  0  0  0
  -29.8253  -15.9380   20.5582 N   0  0  0  0  0  0
  -27.3615  -17.0766   20.7656 F   0  0  0  0  0  0
  -31.4763  -12.6243   19.1619 H   0  0  0  0  0  0
  -30.4269  -11.5175   19.9877 H   0  0  0  0  0  0
  -29.7950  -11.7044   17.5555 H   0  0  0  0  0  0
  -29.6328  -13.4368   17.7137 H   0  0  0  0  0  0
  -27.9040  -11.2789   18.9665 H   0  0  0  0  0  0
  -27.3750  -12.5012   17.8323 H   0  0  0  0  0  0
  -27.6336  -14.2611   19.4727 H   0  0  0  0  0  0
  -28.7448  -12.2083   21.4514 H   0  0  0  0  0  0
  -28.4437  -13.8967   21.7929 H   0  0  0  0  0  0
  -25.2737   -9.5659   22.4781 H   0  0  0  0  0  0
  -23.9942   -7.4605   22.7499 H   0  0  0  0  0  0
  -21.0785   -8.8713   19.8982 H   0  0  0  0  0  0
  -22.3600  -10.9641   19.6148 H   0  0  0  0  0  0
  -21.2006   -7.6107   23.9654 H   0  0  0  0  0  0
  -21.1495   -6.0515   25.9049 H   0  0  0  0  0  0
  -22.0628   -2.7563   23.2882 H   0  0  0  0  0  0
  -22.4118  -11.9777   22.4730 H   0  0  0  0  0  0
  -21.1086  -13.1221   22.2760 H   0  0  0  0  0  0
  -24.6251  -15.8180   20.6061 H   0  0  0  0  0  0
  -26.2629  -15.6798   20.2469 H   0  0  0  0  0  0
  -26.7135  -32.5382   23.1070 H   0  0  0  0  0  0
  -24.9986  -33.9657   25.0366 H   0  0  0  0  0  0
  -22.7188  -31.2907   21.3972 H   0  0  0  0  0  0
  -23.3737  -35.9634   23.3298 H   0  0  0  0  0  0
  -24.3550  -36.8935   22.2055 H   0  0  0  0  0  0
  -23.7227  -37.6499   23.6674 H   0  0  0  0  0  0
  -26.0982  -31.5207   20.5961 H   0  0  0  0  0  0
  -26.8528  -30.8201   22.0010 H   0  0  0  0  0  0
  -28.1150  -28.9140   21.1932 H   0  0  0  0  0  0
  -25.9628  -25.8647   19.0387 H   0  0  0  0  0  0
  -23.9725  -27.2856   19.0033 H   0  0  0  0  0  0
  -23.7593  -30.5767   19.3986 H   0  0  0  0  0  0
  -22.7606  -29.2314   19.8520 H   0  0  0  0  0  0
  -25.1283  -36.1946   25.0815 H   0  0  0  0  0  0
  -21.0005  -28.3247   24.1444 H   0  0  0  0  0  0
  -20.5673  -26.2254   23.3615 H   0  0  0  0  0  0
  -21.6682  -26.7454   22.1300 H   0  0  0  0  0  0
  -19.6823  -25.6345   21.1133 H   0  0  0  0  0  0
  -19.6617  -27.3255   20.6772 H   0  0  0  0  0  0
  -17.4129  -26.6642   21.4098 H   0  0  0  0  0  0
  -18.0357  -26.0072   22.9077 H   0  0  0  0  0  0
  -19.7871  -30.7227   24.2255 H   0  0  0  0  0  0
  -17.4897  -31.6246   24.5103 H   0  0  0  0  0  0
  -15.5307  -30.2916   23.7583 H   0  0  0  0  0  0
  -15.8638  -28.0736   22.7118 H   0  0  0  0  0  0
  -24.5874  -30.7083   25.7819 H   0  0  0  0  0  0
  -24.8888  -32.2920   26.4865 H   0  0  0  0  0  0
  -25.8007  -30.8964   27.0259 H   0  0  0  0  0  0
  -26.2935  -29.6781   24.1190 H   0  0  0  0  0  0
  -27.3939  -29.7245   25.4747 H   0  0  0  0  0  0
  -27.8821  -30.4283   23.9509 H   0  0  0  0  0  0
  -27.2608  -33.3647   26.2062 H   0  0  0  0  0  0
  -28.3851  -32.6891   25.0364 H   0  0  0  0  0  0
  -28.0672  -31.8505   26.5460 H   0  0  0  0  0  0
  -28.2605  -38.0102   24.7516 H   0  0  0  0  0  0
  -28.1072  -36.2639   24.6290 H   0  0  0  0  0  0
  -27.2297  -37.1475   25.8865 H   0  0  0  0  0  0
  -20.9392  -29.8678   21.6860 H   0  0  0  0  0  0
  -26.0181  -38.2843   24.1411 H   0  0  0  0  0  0
  -25.8932  -19.3010   20.9089 H   0  0  0  0  0  0
  -27.4474  -24.6421   22.2553 H   0  0  0  0  0  0
  -29.1461  -24.1667   22.3220 H   0  0  0  0  0  0
  -27.8804  -22.9621   22.5259 H   0  0  0  0  0  0
  -30.6674  -17.4635   19.3278 H   0  0  0  0  0  0
  -31.0484  -17.6326   20.9999 H   0  0  0  0  0  0
  -29.5387  -24.9361   19.4584 H   0  0  0  0  0  0
  -28.0171  -24.9549   18.6804 H   0  0  0  0  0  0
  -27.0999  -23.3727   20.2112 H   0  0  0  0  0  0
  -29.9058  -22.5169   19.8309 H   0  0  0  0  0  0
  -28.8461  -15.8133   20.7808 H   0  0  0  0  0  0
  1 25  1  0  0  0
  1 30  2  0  0  0
  1 82  1  0  0  0
  2  3  1  0  0  0
  2 25  1  0  0  0
  2 84  1  0  0  0
  2 85  1  0  0  0
  3  4  1  0  0  0
  3 86  1  0  0  0
  3 87  1  0  0  0
  4  5  1  0  0  0
  4 88  1  0  0  0
  4 89  1  0  0  0
  5  6  1  0  0  0
  5 26  1  0  0  0
  5 90  1  0  0  0
  6 25  1  0  0  0
  6 91  1  0  0  0
  6 92  1  0  0  0
  7  8  2  0  0  0
  7 26  1  0  0  0
  7 29  1  0  0  0
  8  9  1  0  0  0
  8 22  1  0  0  0
  9 10  1  0  0  0
  9 27  2  0  0  0
 10 11  2  0  0  0
 10 15  1  0  0  0
 11 12  1  0  0  0
 11 93  1  0  0  0
 12 13  2  0  0  0
 12 94  1  0  0  0
 13 14  1  0  0  0
 13 31  1  0  0  0
 14 15  2  0  0  0
 14 95  1  0  0  0
 15 96  1  0  0  0
 16 17  2  0  0  0
 16 21  1  0  0  0
 16 31  1  0  0  0
 17 18  1  0  0  0
 17 97  1  0  0  0
 18 19  2  0  0  0
 18 98  1  0  0  0
 19 20  1  0  0  0
 19 24  1  0  0  0
 20 21  2  0  0  0
 20 99  1  0  0  0
 21 23  1  0  0  0
 22 28  1  0  0  0
 22 32  2  0  0  0
 26 27  1  0  0  0
 28100  1  0  0  0
 28101  1  0  0  0
 29102  1  0  0  0
 29103  1  0  0  0
 33 34  1  0  0  0
 33 66  1  0  0  0
 33 70  2  0  0  0
 34 36  1  0  0  0
 34 59  1  0  0  0
 34104  1  0  0  0
 35 44  2  0  0  0
 35 45  1  0  0  0
 35 68  1  0  0  0
 36 56  1  0  0  0
 36105  1  0  0  0
 37 39  1  0  0  0
 37 47  1  0  0  0
 37 66  1  0  0  0
 37106  1  0  0  0
 38 43  2  0  0  0
 38 46  1  0  0  0
 38 47  1  0  0  0
 39 64  1  0  0  0
 39 67  2  0  0  0
 40 52  1  0  0  0
 40 53  2  0  0  0
 40 58  1  0  0  0
 41107  1  0  0  0
 41108  1  0  0  0
 41109  1  0  0  0
 41 48  1  0  0  0
 42 43  1  0  0  0
 42 66  1  0  0  0
 42110  1  0  0  0
 42111  1  0  0  0
 43 44  1  0  0  0
 44112  1  0  0  0
 45 46  2  0  0  0
 45113  1  0  0  0
 46114  1  0  0  0
 47115  1  0  0  0
 47116  1  0  0  0
 48 56  1  0  0  0
 48 65  1  0  0  0
 48117  1  0  0  0
 49 50  1  0  0  0
 49 53  1  0  0  0
 49 64  1  0  0  0
 49118  1  0  0  0
 50 51  1  0  0  0
 50119  1  0  0  0
 50120  1  0  0  0
 51 52  1  0  0  0
 51121  1  0  0  0
 51122  1  0  0  0
 52123  1  0  0  0
 52124  1  0  0  0
 53 54  1  0  0  0
 54 55  2  0  0  0
 54125  1  0  0  0
 55 57  1  0  0  0
 55126  1  0  0  0
 56 69  2  0  0  0
 57 58  2  0  0  0
 57127  1  0  0  0
 58128  1  0  0  0
 59 60  1  0  0  0
 59 61  1  0  0  0
 59 62  1  0  0  0
 60129  1  0  0  0
 60130  1  0  0  0
 60131  1  0  0  0
 61132  1  0  0  0
 61133  1  0  0  0
 61134  1  0  0  0
 62135  1  0  0  0
 62136  1  0  0  0
 62137  1  0  0  0
 63 65  1  0  0  0
 63138  1  0  0  0
 63139  1  0  0  0
 63140  1  0  0  0
 64141  1  0  0  0
 65142  1  0  0  0
 68 77  1  0  0  0
 71 72  2  0  0  0
 71 79  1  0  0  0
 71143  1  0  0  0
 72 73  1  0  0  0
 72 83  1  0  0  0
 73 76  1  0  0  0
 73 80  2  0  0  0
 74 79  2  0  0  0
 74 80  1  0  0  0
 74 81  1  0  0  0
 75144  1  0  0  0
 75145  1  0  0  0
 75146  1  0  0  0
 75 78  1  0  0  0
 76 82  1  0  0  0
 76147  1  0  0  0
 76148  1  0  0  0
 77 78  1  0  0  0
 77149  1  0  0  0
 77150  1  0  0  0
 78 81  1  0  0  0
 78151  1  0  0  0
 81152  1  0  0  0
 82153  1  0  0  0
M  ISO  4   1 100  68 101  77 101  82 100
M  END
> <chiral flag>
0

> <version>
0

> <s_m_source_file>
/data/baiqing/PycharmProjects/Reinvent-master-3.2/result/LINK_invent/BTK/process_docking_weight1_custom_product_contain_oxygen_bond_distance_aromatic_linkinvent_7_9_3/rearranged_h_0195.sdf

> <i_m_source_file_index>
24

> <r_mmod_Potential_Energy-OPLS-2005>
-422.342681884766

> <r_mmod_Stretch_Energy-OPLS-2005>
130.442520141602

> <r_mmod_Bend_Energy-OPLS-2005>
196.708053588867

> <r_mmod_Torsional_Energy-OPLS-2005>
194.593414306641

> <r_mmod_Improper_Torsional_Energy-OPLS-2005>
5.43595361709595

> <r_mmod_Van_der_Waal_Energy-OPLS-2005>
140.247543334961

> <r_mmod_Electrostatic_Energy-OPLS-2005>
-959.771545410156

> <r_mmod_Solvation_Energy-OPLS-2005>
-230.126388549805

> <b_mmod_Minimization_Converged-OPLS-2005>
0

> <r_mmod_RMS_Derivative-OPLS-2005>
5.82816600799561

$$$$
24
                    3D
 Structure written by MMmdl.
165173  0  0  1  0            999 V2000
  -29.8055  -16.9024   20.2615 C   0  0  0  0  0  0
  -30.2681  -14.0530   19.5156 C   0  0  0  0  0  0
  -29.5817  -13.0779   18.4488 C   0  0  0  0  0  0
  -28.2835  -12.4449   18.9517 C   0  0  0  0  0  0
  -27.5776  -13.4827   19.8302 C   0  0  2  0  0  0
  -28.4868  -14.2989   20.8463 C   0  0  0  0  0  0
  -25.2144  -13.8583   20.6011 C   0  0  0  0  0  0
  -24.1699  -13.0493   20.9359 C   0  0  0  0  0  0
  -24.6637  -11.7083   20.8719 C   0  0  0  0  0  0
  -23.9334  -10.4348   21.0307 C   0  0  0  0  0  0
  -24.3790   -9.4249   21.9130 C   0  0  0  0  0  0
  -23.6393   -8.2313   22.0738 C   0  0  0  0  0  0
  -22.4366   -8.0347   21.3542 C   0  0  0  0  0  0
  -22.0057   -9.0332   20.4631 C   0  0  0  0  0  0
  -22.7451  -10.2183   20.3003 C   0  0  0  0  0  0
  -21.6888   -6.0780   22.5282 C   0  0  0  0  0  0
  -21.4030   -6.5664   23.8220 C   0  0  0  0  0  0
  -21.3666   -5.6803   24.9171 C   0  0  0  0  0  0
  -21.6048   -4.3069   24.7217 C   0  0  0  0  0  0
  -21.8815   -3.8175   23.4334 C   0  0  0  0  0  0
  -21.9205   -4.7000   22.3397 C   0  0  0  0  0  0
  -22.7651  -13.5073   21.1930 C   0  0  0  0  0  0
  -22.1667   -4.2186   21.0973 F   0  0  0  0  0  0
  -21.5629   -3.4544   25.7725 F   0  0  0  0  0  0
  -29.4271  -15.3119   20.1259 N   0  0  0  0  0  0
  -26.2886  -13.0307   20.3593 N   0  0  0  0  0  0
  -25.9677  -11.7160   20.5656 N   0  0  0  0  0  0
  -22.0361  -12.8019   22.0483 N   0  0  0  0  0  0
  -25.3383  -15.2355   20.4405 N   0  0  0  0  0  0
  -31.0578  -16.6267   20.2530 O   0  0  0  0  0  0
  -21.6689   -6.8957   21.4255 O   0  0  0  0  0  0
  -22.3264  -14.5352   20.6766 O   0  0  0  0  0  0
  -24.7696  -31.6886   23.0788 C   0  0  0  0  0  0
  -25.9811  -32.3951   23.7678 C   0  0  1  0  0  0
  -27.3164  -25.8198   20.2580 C   0  0  0  0  0  0
  -25.6006  -33.7828   24.1447 N   0  0  0  0  0  0
  -23.6393  -30.2422   21.4553 C   0  0  2  0  0  0
  -25.1207  -28.3999   20.1361 C   0  0  0  0  0  0
  -22.8158  -29.3696   22.4491 C   0  0  0  0  0  0
  -18.0395  -28.1489   22.8408 C   0  0  0  0  0  0
  -24.1489  -36.6942   23.2678 C   0  0  0  0  0  0
  -26.2429  -30.1173   21.4913 C   0  0  0  0  0  0
  -26.3103  -28.5843   20.8494 C   0  0  0  0  0  0
  -27.3322  -27.3509   20.8787 C   0  0  0  0  0  0
  -26.1043  -26.0883   19.4673 C   0  0  0  0  0  0
  -25.1107  -27.1782   19.4187 C   0  0  0  0  0  0
  -23.9465  -29.4529   20.1301 C   0  0  0  0  0  0
  -25.4176  -36.2610   24.0223 C   0  0  1  0  0  0
  -20.6067  -28.3872   23.0989 C   0  0  2  0  0  0
  -20.6813  -26.9452   22.5428 C   0  0  0  0  0  0
  -19.5803  -26.6339   21.5242 C   0  0  0  0  0  0
  -18.1983  -26.7991   22.1613 C   0  0  0  0  0  0
  -19.1682  -28.9030   23.2644 C   0  0  0  0  0  0
  -18.9575  -30.1592   23.8724 C   0  0  0  0  0  0
  -17.6555  -30.6643   24.0537 C   0  0  0  0  0  0
  -25.9210  -34.9012   23.4752 C   0  0  0  0  0  0
  -16.5440  -29.9105   23.6377 C   0  0  0  0  0  0
  -16.7368  -28.6542   23.0371 C   0  0  0  0  0  0
  -26.4719  -31.6387   25.0666 C   0  0  0  0  0  0
  -25.3532  -31.3947   26.1092 C   0  0  0  0  0  0
  -27.0816  -30.2650   24.7235 C   0  0  0  0  0  0
  -27.6011  -32.4474   25.7503 C   0  0  0  0  0  0
  -27.5535  -37.1618   24.8462 C   0  0  0  0  0  0
  -21.4732  -29.2920   22.3203 N   0  0  0  0  0  0
  -26.4232  -37.3462   23.9404 N   0  0  0  0  0  0
  -24.9191  -30.7375   22.0601 N   0  0  0  0  0  0
  -23.4162  -28.7474   23.3270 O   0  0  0  0  0  0
  -28.0115  -24.1129   20.3639 O   0  0  0  0  0  0
  -26.5993  -34.8773   22.4471 O   0  0  0  0  0  0
  -23.6527  -32.0378   23.5144 O   0  0  0  0  0  0
  -27.7473  -21.7827   19.3023 C   0  0  0  0  0  0
  -29.3562  -24.3208   18.8266 C   0  0  0  0  0  0
  -28.8062  -20.7336   20.2406 C   0  0  0  0  0  0
  -30.0885  -23.5799   20.3779 C   0  0  0  0  0  0
  -30.0757  -24.9311   17.7447 C   0  0  0  0  0  0
  -34.0608  -22.5446   16.2188 C   0  0  0  0  0  0
  -35.0651  -23.0333   18.4840 C   0  0  0  0  0  0
  -32.5811  -22.5225   18.3389 C   0  0  0  0  0  0
  -29.9324  -22.2206   18.5999 C   0  0  0  0  0  0
  -33.8026  -23.1446   17.6122 C   0  0  0  0  0  0
  -31.1704  -22.7622   17.7082 C   0  0  1  0  0  0
  -27.9743  -23.2661   18.4140 N   0  0  0  0  0  0
  -29.6206  -22.0283   20.9246 N   0  0  0  0  0  0
  -31.1039  -24.1870   21.1113 N   0  0  0  0  0  0
  -29.8158  -26.1596   17.2865 N   0  0  0  0  0  0
  -29.0465  -18.6064   20.2191 N   0  0  0  0  0  0
  -31.0160  -24.1484   17.2268 N   0  3  0  0  0  0
  -31.1293  -14.4790   18.9985 H   0  0  0  0  0  0
  -30.7332  -13.4671   20.3123 H   0  0  0  0  0  0
  -30.2817  -12.2999   18.1425 H   0  0  0  0  0  0
  -29.3632  -13.6558   17.5494 H   0  0  0  0  0  0
  -28.5206  -11.5636   19.5474 H   0  0  0  0  0  0
  -27.6538  -12.1129   18.1249 H   0  0  0  0  0  0
  -27.2943  -14.2350   19.0923 H   0  0  0  0  0  0
  -29.0008  -13.6346   21.5449 H   0  0  0  0  0  0
  -27.8472  -14.9012   21.4908 H   0  0  0  0  0  0
  -25.2921   -9.5706   22.4726 H   0  0  0  0  0  0
  -24.0071   -7.4718   22.7493 H   0  0  0  0  0  0
  -21.0976   -8.8884   19.8944 H   0  0  0  0  0  0
  -22.3906  -10.9714   19.6113 H   0  0  0  0  0  0
  -21.2014   -7.6169   23.9733 H   0  0  0  0  0  0
  -21.1486   -6.0527   25.9080 H   0  0  0  0  0  0
  -22.0583   -2.7630   23.2824 H   0  0  0  0  0  0
  -22.4040  -11.9734   22.4927 H   0  0  0  0  0  0
  -21.0937  -13.0943   22.2633 H   0  0  0  0  0  0
  -24.5494  -15.8626   20.5500 H   0  0  0  0  0  0
  -26.1755  -15.6987   20.1131 H   0  0  0  0  0  0
  -26.8032  -32.4284   23.0512 H   0  0  0  0  0  0
  -24.9861  -33.8705   24.9409 H   0  0  0  0  0  0
  -23.0206  -31.1005   21.1855 H   0  0  0  0  0  0
  -23.3796  -35.9217   23.3209 H   0  0  0  0  0  0
  -24.3525  -36.8796   22.2117 H   0  0  0  0  0  0
  -23.7203  -37.6032   23.6919 H   0  0  0  0  0  0
  -26.5433  -30.7833   20.6811 H   0  0  0  0  0  0
  -27.0616  -30.2010   22.1906 H   0  0  0  0  0  0
  -28.1779  -27.5315   21.5277 H   0  0  0  0  0  0
  -25.8115  -25.2397   18.8655 H   0  0  0  0  0  0
  -24.2487  -27.0001   18.7914 H   0  0  0  0  0  0
  -24.1877  -30.1771   19.3513 H   0  0  0  0  0  0
  -23.0378  -28.9580   19.7844 H   0  0  0  0  0  0
  -25.1422  -36.1262   25.0707 H   0  0  0  0  0  0
  -21.0107  -28.3570   24.1134 H   0  0  0  0  0  0
  -20.5611  -26.2531   23.3771 H   0  0  0  0  0  0
  -21.6662  -26.7262   22.1293 H   0  0  0  0  0  0
  -19.6936  -25.6196   21.1393 H   0  0  0  0  0  0
  -19.6771  -27.3050   20.6695 H   0  0  0  0  0  0
  -17.4260  -26.6744   21.4006 H   0  0  0  0  0  0
  -18.0330  -26.0184   22.9053 H   0  0  0  0  0  0
  -19.8051  -30.7446   24.2023 H   0  0  0  0  0  0
  -17.5105  -31.6299   24.5178 H   0  0  0  0  0  0
  -15.5436  -30.2962   23.7793 H   0  0  0  0  0  0
  -15.8771  -28.0810   22.7173 H   0  0  0  0  0  0
  -24.5735  -30.7352   25.7273 H   0  0  0  0  0  0
  -24.8733  -32.3255   26.4116 H   0  0  0  0  0  0
  -25.7432  -30.9268   27.0139 H   0  0  0  0  0  0
  -26.3676  -29.5929   24.2482 H   0  0  0  0  0  0
  -27.4129  -29.7535   25.6286 H   0  0  0  0  0  0
  -27.9694  -30.3610   24.0990 H   0  0  0  0  0  0
  -27.2454  -33.3946   26.1568 H   0  0  0  0  0  0
  -28.4038  -32.6768   25.0483 H   0  0  0  0  0  0
  -28.0458  -31.8977   26.5808 H   0  0  0  0  0  0
  -28.2471  -37.9987   24.7529 H   0  0  0  0  0  0
  -28.1115  -36.2498   24.6276 H   0  0  0  0  0  0
  -27.2253  -37.1221   25.8865 H   0  0  0  0  0  0
  -21.0279  -29.8423   21.5998 H   0  0  0  0  0  0
  -25.9993  -38.2478   24.1427 H   0  0  0  0  0  0
  -26.9339  -21.2453   18.8379 H   0  0  0  0  0  0
  -34.9294  -23.0102   15.7492 H   0  0  0  0  0  0
  -33.2167  -22.6963   15.5457 H   0  0  0  0  0  0
  -34.2569  -21.4728   16.2697 H   0  0  0  0  0  0
  -35.9134  -23.5349   18.0170 H   0  0  0  0  0  0
  -35.3496  -21.9951   18.6575 H   0  0  0  0  0  0
  -34.9118  -23.5018   19.4569 H   0  0  0  0  0  0
  -32.5762  -22.8487   19.3760 H   0  0  0  0  0  0
  -32.7519  -21.4451   18.3905 H   0  0  0  0  0  0
  -30.5802  -21.4311   19.0063 H   0  0  0  0  0  0
  -29.4743  -21.6174   17.7926 H   0  0  0  0  0  0
  -33.6265  -24.2128   17.4891 H   0  0  0  0  0  0
  -31.1762  -22.1592   16.7981 H   0  0  0  0  0  0
  -31.2876  -23.8195   22.0360 H   0  0  0  0  0  0
  -31.1514  -25.1999   21.0799 H   0  0  0  0  0  0
  -29.0967  -26.7096   17.7321 H   0  0  0  0  0  0
  -30.3047  -26.5714   16.5062 H   0  0  0  0  0  0
  -28.0973  -18.3013   20.0412 H   0  0  0  0  0  0
  -31.6172  -24.4613   16.4797 H   0  0  0  0  0  0
  1 25  1  0  0  0
  1 30  2  0  0  0
  1 86  1  0  0  0
  2  3  1  0  0  0
  2 25  1  0  0  0
  2 88  1  0  0  0
  2 89  1  0  0  0
  3  4  1  0  0  0
  3 90  1  0  0  0
  3 91  1  0  0  0
  4  5  1  0  0  0
  4 92  1  0  0  0
  4 93  1  0  0  0
  5  6  1  0  0  0
  5 26  1  0  0  0
  5 94  1  0  0  0
  6 25  1  0  0  0
  6 95  1  0  0  0
  6 96  1  0  0  0
  7  8  2  0  0  0
  7 26  1  0  0  0
  7 29  1  0  0  0
  8  9  1  0  0  0
  8 22  1  0  0  0
  9 10  1  0  0  0
  9 27  2  0  0  0
 10 11  2  0  0  0
 10 15  1  0  0  0
 11 12  1  0  0  0
 11 97  1  0  0  0
 12 13  2  0  0  0
 12 98  1  0  0  0
 13 14  1  0  0  0
 13 31  1  0  0  0
 14 15  2  0  0  0
 14 99  1  0  0  0
 15100  1  0  0  0
 16 17  2  0  0  0
 16 21  1  0  0  0
 16 31  1  0  0  0
 17 18  1  0  0  0
 17101  1  0  0  0
 18 19  2  0  0  0
 18102  1  0  0  0
 19 20  1  0  0  0
 19 24  1  0  0  0
 20 21  2  0  0  0
 20103  1  0  0  0
 21 23  1  0  0  0
 22 28  1  0  0  0
 22 32  2  0  0  0
 26 27  1  0  0  0
 28104  1  0  0  0
 28105  1  0  0  0
 29106  1  0  0  0
 29107  1  0  0  0
 33 34  1  0  0  0
 33 66  1  0  0  0
 33 70  2  0  0  0
 34 36  1  0  0  0
 34 59  1  0  0  0
 34108  1  0  0  0
 35 44  2  0  0  0
 35 45  1  0  0  0
 35 68  1  0  0  0
 36 56  1  0  0  0
 36109  1  0  0  0
 37 39  1  0  0  0
 37 47  1  0  0  0
 37 66  1  0  0  0
 37110  1  0  0  0
 38 43  2  0  0  0
 38 46  1  0  0  0
 38 47  1  0  0  0
 39 64  1  0  0  0
 39 67  2  0  0  0
 40 52  1  0  0  0
 40 53  2  0  0  0
 40 58  1  0  0  0
 41111  1  0  0  0
 41112  1  0  0  0
 41113  1  0  0  0
 41 48  1  0  0  0
 42 43  1  0  0  0
 42 66  1  0  0  0
 42114  1  0  0  0
 42115  1  0  0  0
 43 44  1  0  0  0
 44116  1  0  0  0
 45 46  2  0  0  0
 45117  1  0  0  0
 46118  1  0  0  0
 47119  1  0  0  0
 47120  1  0  0  0
 48 56  1  0  0  0
 48 65  1  0  0  0
 48121  1  0  0  0
 49 50  1  0  0  0
 49 53  1  0  0  0
 49 64  1  0  0  0
 49122  1  0  0  0
 50 51  1  0  0  0
 50123  1  0  0  0
 50124  1  0  0  0
 51 52  1  0  0  0
 51125  1  0  0  0
 51126  1  0  0  0
 52127  1  0  0  0
 52128  1  0  0  0
 53 54  1  0  0  0
 54 55  2  0  0  0
 54129  1  0  0  0
 55 57  1  0  0  0
 55130  1  0  0  0
 56 69  2  0  0  0
 57 58  2  0  0  0
 57131  1  0  0  0
 58132  1  0  0  0
 59 60  1  0  0  0
 59 61  1  0  0  0
 59 62  1  0  0  0
 60133  1  0  0  0
 60134  1  0  0  0
 60135  1  0  0  0
 61136  1  0  0  0
 61137  1  0  0  0
 61138  1  0  0  0
 62139  1  0  0  0
 62140  1  0  0  0
 62141  1  0  0  0
 63 65  1  0  0  0
 63142  1  0  0  0
 63143  1  0  0  0
 63144  1  0  0  0
 64145  1  0  0  0
 65146  1  0  0  0
 68 79  1  0  0  0
 71 73  2  0  0  0
 71 82  1  0  0  0
 71147  1  0  0  0
 72 74  1  0  0  0
 72 75  1  0  0  0
 72 82  2  0  0  0
 73 83  1  0  0  0
 73 86  1  0  0  0
 74 83  2  0  0  0
 74 84  1  0  0  0
 75 85  1  0  0  0
 75 87  2  0  0  0
 76148  1  0  0  0
 76149  1  0  0  0
 76150  1  0  0  0
 76 80  1  0  0  0
 77 80  1  0  0  0
 77151  1  0  0  0
 77152  1  0  0  0
 77153  1  0  0  0
 78 80  1  0  0  0
 78154  1  0  0  0
 78155  1  0  0  0
 78 81  1  0  0  0
 79 81  1  0  0  0
 79156  1  0  0  0
 79157  1  0  0  0
 80158  1  0  0  0
 81 87  1  0  0  0
 81159  1  0  0  0
 84160  1  0  0  0
 84161  1  0  0  0
 85162  1  0  0  0
 85163  1  0  0  0
 86164  1  0  0  0
 87165  1  0  0  0
M  CHG  1  87   1
M  ISO  4   1 100  68 101  79 101  86 100
M  END
> <chiral flag>
0

> <version>
0

> <s_m_source_file>
/data/baiqing/PycharmProjects/Reinvent-master-3.2/result/LINK_invent/BTK/process_docking_weight1_custom_product_contain_oxygen_bond_distance_aromatic_linkinvent_7_9_3/rearranged_h_0195.sdf

> <i_m_source_file_index>
25

> <r_mmod_Potential_Energy-OPLS-2005>
15633.0771484375

> <r_mmod_Stretch_Energy-OPLS-2005>
8769.3271484375

> <r_mmod_Bend_Energy-OPLS-2005>
1156.00219726562

> <r_mmod_Torsional_Energy-OPLS-2005>
425.7734375

> <r_mmod_Improper_Torsional_Energy-OPLS-2005>
24.4935703277588

> <r_mmod_Van_der_Waal_Energy-OPLS-2005>
2060.11157226562

> <r_mmod_Electrostatic_Energy-OPLS-2005>
-199.795135498047

> <r_mmod_Solvation_Energy-OPLS-2005>
-489.339752197266

> <b_mmod_Minimization_Converged-OPLS-2005>
0

> <r_mmod_RMS_Derivative-OPLS-2005>
4.61590719223022

$$$$
25
                    3D
 Structure written by MMmdl.
151159  0  0  1  0            999 V2000
  -30.7123  -14.5321   20.5401 C   0  0  0  0  0  0
  -30.4169  -12.3400   19.4309 C   0  0  0  0  0  0
  -29.4912  -12.4907   18.2076 C   0  0  0  0  0  0
  -28.0151  -12.3456   18.6262 C   0  0  0  0  0  0
  -27.6513  -13.2147   19.8605 C   0  0  2  0  0  0
  -28.6997  -13.0675   20.9854 C   0  0  0  0  0  0
  -25.2560  -13.8178   20.5690 C   0  0  0  0  0  0
  -24.1831  -13.0441   20.9206 C   0  0  0  0  0  0
  -24.6391  -11.6906   20.8752 C   0  0  0  0  0  0
  -23.9058  -10.4284   21.0399 C   0  0  0  0  0  0
  -24.3613   -9.4202   21.9178 C   0  0  0  0  0  0
  -23.6289   -8.2237   22.0750 C   0  0  0  0  0  0
  -22.4270   -8.0276   21.3540 C   0  0  0  0  0  0
  -21.9901   -9.0250   20.4646 C   0  0  0  0  0  0
  -22.7224  -10.2131   20.3051 C   0  0  0  0  0  0
  -21.6855   -6.0725   22.5270 C   0  0  0  0  0  0
  -21.4012   -6.5629   23.8204 C   0  0  0  0  0  0
  -21.3666   -5.6785   24.9172 C   0  0  0  0  0  0
  -21.6049   -4.3049   24.7222 C   0  0  0  0  0  0
  -21.8823   -3.8137   23.4344 C   0  0  0  0  0  0
  -21.9195   -4.6951   22.3399 C   0  0  0  0  0  0
  -22.7853  -13.5233   21.1854 C   0  0  0  0  0  0
  -22.1660   -4.2137   21.0977 F   0  0  0  0  0  0
  -21.5634   -3.4533   25.7736 F   0  0  0  0  0  0
  -30.0154  -13.3674   20.4057 N   0  0  0  0  0  0
  -26.2987  -12.9352   20.3335 N   0  0  0  0  0  0
  -25.9322  -11.6507   20.5782 N   0  0  0  0  0  0
  -22.0498  -12.8231   22.0414 N   0  0  0  0  0  0
  -25.4274  -15.1897   20.4076 N   0  0  0  0  0  0
  -31.8935  -14.6075   20.1898 O   0  0  0  0  0  0
  -21.6640   -6.8868   21.4231 O   0  0  0  0  0  0
  -22.3531  -14.5528   20.6694 O   0  0  0  0  0  0
  -24.6171  -31.8643   23.2064 C   0  0  0  0  0  0
  -25.9060  -32.4799   23.8362 C   0  0  1  0  0  0
  -27.2325  -27.4022   20.1189 C   0  0  0  0  0  0
  -25.5908  -33.8599   24.2298 N   0  0  0  0  0  0
  -23.4048  -30.4876   21.5474 C   0  0  2  0  0  0
  -24.8505  -28.9412   20.1205 C   0  0  0  0  0  0
  -22.7405  -29.4655   22.4978 C   0  0  0  0  0  0
  -18.0273  -28.1381   22.8489 C   0  0  0  0  0  0
  -24.1484  -36.7314   23.2643 C   0  0  0  0  0  0
  -25.9343  -30.8250   21.3571 C   0  0  0  0  0  0
  -26.0117  -29.4539   20.7110 C   0  0  0  0  0  0
  -27.2078  -28.6965   20.6957 C   0  0  0  0  0  0
  -26.0523  -26.9019   19.5313 C   0  0  0  0  0  0
  -24.8670  -27.6656   19.5262 C   0  0  0  0  0  0
  -23.6133  -29.8131   20.1645 C   0  0  0  0  0  0
  -25.4107  -36.3096   24.0329 C   0  0  1  0  0  0
  -20.5863  -28.3672   23.1304 C   0  0  2  0  0  0
  -20.6764  -26.9406   22.5417 C   0  0  0  0  0  0
  -19.5745  -26.6388   21.5214 C   0  0  0  0  0  0
  -18.1921  -26.7927   22.1622 C   0  0  0  0  0  0
  -19.1520  -28.8846   23.2895 C   0  0  0  0  0  0
  -18.9455  -30.1457   23.8903 C   0  0  0  0  0  0
  -17.6455  -30.6588   24.0571 C   0  0  0  0  0  0
  -25.9040  -34.9465   23.5109 C   0  0  0  0  0  0
  -16.5347  -29.9090   23.6334 C   0  0  0  0  0  0
  -16.7263  -28.6509   23.0350 C   0  0  0  0  0  0
  -26.4486  -31.6596   25.0704 C   0  0  0  0  0  0
  -25.3762  -31.3707   26.1462 C   0  0  0  0  0  0
  -27.0323  -30.3038   24.6095 C   0  0  0  0  0  0
  -27.6047  -32.4335   25.7464 C   0  0  0  0  0  0
  -27.5573  -37.1805   24.8462 C   0  0  0  0  0  0
  -21.4132  -29.3039   22.3706 N   0  0  0  0  0  0
  -26.4288  -37.3784   23.9407 N   0  0  0  0  0  0
  -24.6710  -31.0735   22.0959 N   0  0  0  0  0  0
  -23.4164  -28.8203   23.3035 O   0  0  0  0  0  0
  -28.4111  -26.6812   20.0769 O   0  0  0  0  0  0
  -26.5604  -34.8925   22.4675 O   0  0  0  0  0  0
  -23.5363  -32.1401   23.7463 O   0  0  0  0  0  0
  -28.8156  -18.3795   19.7407 C   0  0  0  0  0  0
  -29.6584  -18.0913   20.7917 C   0  0  0  0  0  0
  -28.9534  -20.4874   20.6221 C   0  0  0  0  0  0
  -30.4728  -16.8767   21.1193 C   0  0  0  0  0  0
  -29.2235  -22.9101   19.7273 C   0  0  0  0  0  0
  -28.4496  -25.3291   20.6129 C   0  0  0  0  0  0
  -28.3244  -24.1884   19.5521 C   0  0  1  0  0  0
  -28.4488  -19.7387   19.6381 N   0  0  0  0  0  0
  -28.8297  -21.8830   20.7020 N   0  0  0  0  0  0
  -29.9827  -15.6434   20.8268 N   0  0  0  0  0  0
  -31.5778  -17.0454   21.6500 O   0  0  0  0  0  0
  -28.7981  -24.7749   18.3563 O   0  0  0  0  0  0
  -29.9557  -19.5492   21.7377 S   0  0  0  0  0  0
  -31.4617  -12.4281   19.1275 H   0  0  0  0  0  0
  -30.3151  -11.3464   19.8700 H   0  0  0  0  0  0
  -29.7388  -11.7434   17.4530 H   0  0  0  0  0  0
  -29.6484  -13.4639   17.7395 H   0  0  0  0  0  0
  -27.8402  -11.2929   18.8520 H   0  0  0  0  0  0
  -27.3600  -12.5879   17.7883 H   0  0  0  0  0  0
  -27.6712  -14.2506   19.5219 H   0  0  0  0  0  0
  -28.6942  -12.0535   21.3875 H   0  0  0  0  0  0
  -28.4694  -13.7256   21.8247 H   0  0  0  0  0  0
  -25.2758   -9.5685   22.4751 H   0  0  0  0  0  0
  -24.0006   -7.4626   22.7465 H   0  0  0  0  0  0
  -21.0834   -8.8760   19.8951 H   0  0  0  0  0  0
  -22.3671  -10.9673   19.6166 H   0  0  0  0  0  0
  -21.1995   -7.6134   23.9702 H   0  0  0  0  0  0
  -21.1493   -6.0516   25.9075 H   0  0  0  0  0  0
  -22.0601   -2.7595   23.2848 H   0  0  0  0  0  0
  -22.4118  -11.9902   22.4813 H   0  0  0  0  0  0
  -21.1114  -13.1260   22.2608 H   0  0  0  0  0  0
  -24.6570  -15.8419   20.5087 H   0  0  0  0  0  0
  -26.2657  -15.6250   20.0472 H   0  0  0  0  0  0
  -26.7123  -32.5496   23.1114 H   0  0  0  0  0  0
  -25.0057  -33.9756   25.0439 H   0  0  0  0  0  0
  -22.6961  -31.3058   21.4050 H   0  0  0  0  0  0
  -23.3736  -35.9658   23.3314 H   0  0  0  0  0  0
  -24.3575  -36.8933   22.2058 H   0  0  0  0  0  0
  -23.7247  -37.6524   23.6661 H   0  0  0  0  0  0
  -26.0440  -31.5858   20.5828 H   0  0  0  0  0  0
  -26.8232  -30.8835   21.9732 H   0  0  0  0  0  0
  -28.1099  -29.0985   21.1362 H   0  0  0  0  0  0
  -26.0457  -25.9287   19.0631 H   0  0  0  0  0  0
  -23.9733  -27.2636   19.0686 H   0  0  0  0  0  0
  -23.7213  -30.5842   19.4007 H   0  0  0  0  0  0
  -22.7362  -29.2335   19.8712 H   0  0  0  0  0  0
  -25.1287  -36.1957   25.0819 H   0  0  0  0  0  0
  -20.9966  -28.3253   24.1418 H   0  0  0  0  0  0
  -20.5676  -26.2286   23.3610 H   0  0  0  0  0  0
  -21.6631  -26.7451   22.1204 H   0  0  0  0  0  0
  -19.6905  -25.6306   21.1229 H   0  0  0  0  0  0
  -19.6676  -27.3211   20.6754 H   0  0  0  0  0  0
  -17.4192  -26.6683   21.4024 H   0  0  0  0  0  0
  -18.0321  -26.0063   22.9015 H   0  0  0  0  0  0
  -19.7935  -30.7272   24.2257 H   0  0  0  0  0  0
  -17.5017  -31.6265   24.5182 H   0  0  0  0  0  0
  -15.5352  -30.3001   23.7655 H   0  0  0  0  0  0
  -15.8661  -28.0841   22.7053 H   0  0  0  0  0  0
  -24.5900  -30.7099   25.7798 H   0  0  0  0  0  0
  -24.9005  -32.2877   26.4956 H   0  0  0  0  0  0
  -25.8124  -30.8827   27.0191 H   0  0  0  0  0  0
  -26.2863  -29.6777   24.1191 H   0  0  0  0  0  0
  -27.4140  -29.7303   25.4555 H   0  0  0  0  0  0
  -27.8673  -30.4354   23.9208 H   0  0  0  0  0  0
  -27.2640  -33.3614   26.2070 H   0  0  0  0  0  0
  -28.3831  -32.6946   25.0281 H   0  0  0  0  0  0
  -28.0750  -31.8456   26.5358 H   0  0  0  0  0  0
  -28.2596  -38.0096   24.7505 H   0  0  0  0  0  0
  -28.1060  -36.2631   24.6288 H   0  0  0  0  0  0
  -27.2296  -37.1462   25.8867 H   0  0  0  0  0  0
  -20.9301  -29.8736   21.6900 H   0  0  0  0  0  0
  -26.0175  -38.2859   24.1419 H   0  0  0  0  0  0
  -28.4986  -17.6958   18.9660 H   0  0  0  0  0  0
  -30.2449  -23.2165   19.9605 H   0  0  0  0  0  0
  -29.2919  -22.4000   18.7651 H   0  0  0  0  0  0
  -29.4183  -25.2377   21.1044 H   0  0  0  0  0  0
  -27.7080  -25.1963   21.4025 H   0  0  0  0  0  0
  -27.2777  -23.9176   19.4083 H   0  0  0  0  0  0
  -29.0407  -22.1930   21.6465 H   0  0  0  0  0  0
  -28.9858  -15.5600   20.7374 H   0  0  0  0  0  0
  -28.6675  -25.7150   18.4682 H   0  0  0  0  0  0
  1 25  1  0  0  0
  1 30  2  0  0  0
  1 80  1  0  0  0
  2  3  1  0  0  0
  2 25  1  0  0  0
  2 84  1  0  0  0
  2 85  1  0  0  0
  3  4  1  0  0  0
  3 86  1  0  0  0
  3 87  1  0  0  0
  4  5  1  0  0  0
  4 88  1  0  0  0
  4 89  1  0  0  0
  5  6  1  0  0  0
  5 26  1  0  0  0
  5 90  1  0  0  0
  6 25  1  0  0  0
  6 91  1  0  0  0
  6 92  1  0  0  0
  7  8  2  0  0  0
  7 26  1  0  0  0
  7 29  1  0  0  0
  8  9  1  0  0  0
  8 22  1  0  0  0
  9 10  1  0  0  0
  9 27  2  0  0  0
 10 11  2  0  0  0
 10 15  1  0  0  0
 11 12  1  0  0  0
 11 93  1  0  0  0
 12 13  2  0  0  0
 12 94  1  0  0  0
 13 14  1  0  0  0
 13 31  1  0  0  0
 14 15  2  0  0  0
 14 95  1  0  0  0
 15 96  1  0  0  0
 16 17  2  0  0  0
 16 21  1  0  0  0
 16 31  1  0  0  0
 17 18  1  0  0  0
 17 97  1  0  0  0
 18 19  2  0  0  0
 18 98  1  0  0  0
 19 20  1  0  0  0
 19 24  1  0  0  0
 20 21  2  0  0  0
 20 99  1  0  0  0
 21 23  1  0  0  0
 22 28  1  0  0  0
 22 32  2  0  0  0
 26 27  1  0  0  0
 28100  1  0  0  0
 28101  1  0  0  0
 29102  1  0  0  0
 29103  1  0  0  0
 33 34  1  0  0  0
 33 66  1  0  0  0
 33 70  2  0  0  0
 34 36  1  0  0  0
 34 59  1  0  0  0
 34104  1  0  0  0
 35 44  2  0  0  0
 35 45  1  0  0  0
 35 68  1  0  0  0
 36 56  1  0  0  0
 36105  1  0  0  0
 37 39  1  0  0  0
 37 47  1  0  0  0
 37 66  1  0  0  0
 37106  1  0  0  0
 38 43  2  0  0  0
 38 46  1  0  0  0
 38 47  1  0  0  0
 39 64  1  0  0  0
 39 67  2  0  0  0
 40 52  1  0  0  0
 40 53  2  0  0  0
 40 58  1  0  0  0
 41107  1  0  0  0
 41108  1  0  0  0
 41109  1  0  0  0
 41 48  1  0  0  0
 42 43  1  0  0  0
 42 66  1  0  0  0
 42110  1  0  0  0
 42111  1  0  0  0
 43 44  1  0  0  0
 44112  1  0  0  0
 45 46  2  0  0  0
 45113  1  0  0  0
 46114  1  0  0  0
 47115  1  0  0  0
 47116  1  0  0  0
 48 56  1  0  0  0
 48 65  1  0  0  0
 48117  1  0  0  0
 49 50  1  0  0  0
 49 53  1  0  0  0
 49 64  1  0  0  0
 49118  1  0  0  0
 50 51  1  0  0  0
 50119  1  0  0  0
 50120  1  0  0  0
 51 52  1  0  0  0
 51121  1  0  0  0
 51122  1  0  0  0
 52123  1  0  0  0
 52124  1  0  0  0
 53 54  1  0  0  0
 54 55  2  0  0  0
 54125  1  0  0  0
 55 57  1  0  0  0
 55126  1  0  0  0
 56 69  2  0  0  0
 57 58  2  0  0  0
 57127  1  0  0  0
 58128  1  0  0  0
 59 60  1  0  0  0
 59 61  1  0  0  0
 59 62  1  0  0  0
 60129  1  0  0  0
 60130  1  0  0  0
 60131  1  0  0  0
 61132  1  0  0  0
 61133  1  0  0  0
 61134  1  0  0  0
 62135  1  0  0  0
 62136  1  0  0  0
 62137  1  0  0  0
 63 65  1  0  0  0
 63138  1  0  0  0
 63139  1  0  0  0
 63140  1  0  0  0
 64141  1  0  0  0
 65142  1  0  0  0
 68 76  1  0  0  0
 71 72  2  0  0  0
 71 78  1  0  0  0
 71143  1  0  0  0
 72 74  1  0  0  0
 72 83  1  0  0  0
 73 78  2  0  0  0
 73 79  1  0  0  0
 73 83  1  0  0  0
 74 80  1  0  0  0
 74 81  2  0  0  0
 75 77  1  0  0  0
 75 79  1  0  0  0
 75144  1  0  0  0
 75145  1  0  0  0
 76 77  1  0  0  0
 76146  1  0  0  0
 76147  1  0  0  0
 77 82  1  0  0  0
 77148  1  0  0  0
 79149  1  0  0  0
 80150  1  0  0  0
 82151  1  0  0  0
M  ISO  4   1 100  68 101  76 101  80 100
M  END
> <chiral flag>
0

> <version>
0

> <s_m_source_file>
/data/baiqing/PycharmProjects/Reinvent-master-3.2/result/LINK_invent/BTK/process_docking_weight1_custom_product_contain_oxygen_bond_distance_aromatic_linkinvent_7_9_3/rearranged_h_0195.sdf

> <i_m_source_file_index>
26

> <r_mmod_Potential_Energy-OPLS-2005>
-173.658493041992

> <r_mmod_Stretch_Energy-OPLS-2005>
43.5996704101562

> <r_mmod_Bend_Energy-OPLS-2005>
112.257690429688

> <r_mmod_Torsional_Energy-OPLS-2005>
300.345458984375

> <r_mmod_Improper_Torsional_Energy-OPLS-2005>
10.5186109542847

> <r_mmod_Van_der_Waal_Energy-OPLS-2005>
128.547515869141

> <r_mmod_Electrostatic_Energy-OPLS-2005>
-530.879089355469

> <r_mmod_Solvation_Energy-OPLS-2005>
-261.338439941406

> <b_mmod_Minimization_Converged-OPLS-2005>
0

> <r_mmod_RMS_Derivative-OPLS-2005>
1.31696283817291

$$$$
26
                    3D
 Structure written by MMmdl.
171179  0  0  1  0            999 V2000
  -30.5681  -14.7670   20.5070 C   0  0  0  0  0  0
  -30.4373  -12.4724   19.4900 C   0  0  0  0  0  0
  -29.5227  -12.5724   18.2456 C   0  0  0  0  0  0
  -28.0436  -12.3868   18.6389 C   0  0  0  0  0  0
  -27.6501  -13.2330   19.8767 C   0  0  2  0  0  0
  -28.6892  -13.1286   21.0239 C   0  0  0  0  0  0
  -25.2529  -13.8178   20.5661 C   0  0  0  0  0  0
  -24.1750  -13.0462   20.9113 C   0  0  0  0  0  0
  -24.6315  -11.6916   20.8630 C   0  0  0  0  0  0
  -23.8939  -10.4286   21.0315 C   0  0  0  0  0  0
  -24.3530   -9.4215   21.9089 C   0  0  0  0  0  0
  -23.6226   -8.2256   22.0711 C   0  0  0  0  0  0
  -22.4188   -8.0238   21.3540 C   0  0  0  0  0  0
  -21.9805   -9.0181   20.4604 C   0  0  0  0  0  0
  -22.7099  -10.2095   20.2964 C   0  0  0  0  0  0
  -21.6848   -6.0658   22.5249 C   0  0  0  0  0  0
  -21.4036   -6.5551   23.8197 C   0  0  0  0  0  0
  -21.3694   -5.6699   24.9127 C   0  0  0  0  0  0
  -21.6053   -4.2948   24.7149 C   0  0  0  0  0  0
  -21.8855   -3.8064   23.4293 C   0  0  0  0  0  0
  -21.9208   -4.6905   22.3346 C   0  0  0  0  0  0
  -22.7786  -13.5222   21.1787 C   0  0  0  0  0  0
  -22.1681   -4.2092   21.0934 F   0  0  0  0  0  0
  -21.5641   -3.4458   25.7693 F   0  0  0  0  0  0
  -29.9954  -13.5107   20.4634 N   0  0  0  0  0  0
  -26.2952  -12.9382   20.3287 N   0  0  0  0  0  0
  -25.9242  -11.6542   20.5619 N   0  0  0  0  0  0
  -22.0449  -12.8203   22.0368 N   0  0  0  0  0  0
  -25.4240  -15.1903   20.4138 N   0  0  0  0  0  0
  -31.7096  -14.9256   20.0522 O   0  0  0  0  0  0
  -21.6639   -6.8801   21.4215 O   0  0  0  0  0  0
  -22.3439  -14.5538   20.6647 O   0  0  0  0  0  0
  -24.6350  -31.8518   23.1932 C   0  0  0  0  0  0
  -25.9101  -32.4759   23.8356 C   0  0  1  0  0  0
  -27.2340  -27.1989   20.1707 C   0  0  0  0  0  0
  -25.5875  -33.8547   24.2293 N   0  0  0  0  0  0
  -23.4419  -30.4657   21.5336 C   0  0  2  0  0  0
  -24.8952  -28.8843   20.1357 C   0  0  0  0  0  0
  -22.7526  -29.4595   22.4883 C   0  0  0  0  0  0
  -18.0293  -28.1399   22.8438 C   0  0  0  0  0  0
  -24.1491  -36.7234   23.2673 C   0  0  0  0  0  0
  -25.9901  -30.7457   21.3850 C   0  0  0  0  0  0
  -26.0674  -29.3564   20.7412 C   0  0  0  0  0  0
  -27.2438  -28.5283   20.7377 C   0  0  0  0  0  0
  -26.0379  -26.8017   19.5459 C   0  0  0  0  0  0
  -24.8862  -27.6156   19.5260 C   0  0  0  0  0  0
  -23.6720  -29.7808   20.1593 C   0  0  0  0  0  0
  -25.4103  -36.3064   24.0385 C   0  0  1  0  0  0
  -20.5890  -28.3735   23.1224 C   0  0  2  0  0  0
  -20.6777  -26.9440   22.5399 C   0  0  0  0  0  0
  -19.5763  -26.6395   21.5178 C   0  0  0  0  0  0
  -18.1924  -26.7930   22.1579 C   0  0  0  0  0  0
  -19.1533  -28.8873   23.2820 C   0  0  0  0  0  0
  -18.9467  -30.1460   23.8856 C   0  0  0  0  0  0
  -17.6461  -30.6578   24.0560 C   0  0  0  0  0  0
  -25.9035  -34.9424   23.5154 C   0  0  0  0  0  0
  -16.5345  -29.9070   23.6330 C   0  0  0  0  0  0
  -16.7283  -28.6500   23.0331 C   0  0  0  0  0  0
  -26.4452  -31.6590   25.0756 C   0  0  0  0  0  0
  -25.3680  -31.3750   26.1500 C   0  0  0  0  0  0
  -27.0279  -30.3029   24.6213 C   0  0  0  0  0  0
  -27.6046  -32.4343   25.7475 C   0  0  0  0  0  0
  -27.5582  -37.1782   24.8457 C   0  0  0  0  0  0
  -21.4242  -29.3062   22.3592 N   0  0  0  0  0  0
  -26.4295  -37.3743   23.9425 N   0  0  0  0  0  0
  -24.7079  -31.0437   22.0910 N   0  0  0  0  0  0
  -23.4196  -28.8148   23.3060 O   0  0  0  0  0  0
  -28.3541  -26.3349   20.0556 O   0  0  0  0  0  0
  -26.5594  -34.8889   22.4716 O   0  0  0  0  0  0
  -23.5475  -32.1303   23.7170 O   0  0  0  0  0  0
  -29.2695  -19.5095   20.4360 C   0  0  0  0  0  0
  -29.6347  -17.2193   20.4770 C   0  0  0  0  0  0
  -25.3963  -20.3991   22.9909 C   0  0  0  0  0  0
  -32.2734  -26.4632   20.5236 C   0  0  0  0  0  0
  -27.9510  -22.4119   23.2178 C   0  0  0  0  0  0
  -30.5958  -24.3197   22.3072 C   0  0  0  0  0  0
  -26.6968  -20.4646   22.1500 C   0  0  0  0  0  0
  -31.0581  -25.5836   20.1571 C   0  0  0  0  0  0
  -28.5568  -23.5024   20.0761 C   0  0  0  0  0  0
  -27.2834  -21.8951   21.9277 C   0  0  2  0  0  0
  -30.0291  -25.3442   21.3085 C   0  0  1  0  0  0
  -28.2623  -21.9712   20.7045 C   0  0  2  0  0  0
  -28.5853  -25.0140   20.7901 C   0  0  1  0  0  0
  -29.7588  -18.4197   21.1423 N   0  0  0  0  0  0
  -28.7150  -19.2100   19.2462 N   0  0  0  0  0  0
  -29.3637  -20.9086   20.8411 N   0  0  0  0  0  0
  -29.8228  -15.8363   20.9966 N   0  0  0  0  0  0
  -28.8438  -17.5247   18.9510 S   0  0  0  0  0  0
  -31.4863  -12.5840   19.2126 H   0  0  0  0  0  0
  -30.3549  -11.4768   19.9317 H   0  0  0  0  0  0
  -29.8044  -11.8432   17.4886 H   0  0  0  0  0  0
  -29.6504  -13.5482   17.7691 H   0  0  0  0  0  0
  -27.8692  -11.3272   18.8476 H   0  0  0  0  0  0
  -27.4030  -12.6439   17.7977 H   0  0  0  0  0  0
  -27.6545  -14.2657   19.5299 H   0  0  0  0  0  0
  -28.7291  -12.1167   21.4388 H   0  0  0  0  0  0
  -28.4173  -13.7771   21.8579 H   0  0  0  0  0  0
  -25.2740   -9.5709   22.4572 H   0  0  0  0  0  0
  -24.0003   -7.4627   22.7383 H   0  0  0  0  0  0
  -21.0770   -8.8586   19.8858 H   0  0  0  0  0  0
  -22.3521  -10.9564   19.6001 H   0  0  0  0  0  0
  -21.2067   -7.6080   23.9651 H   0  0  0  0  0  0
  -21.1471   -6.0420   25.9026 H   0  0  0  0  0  0
  -22.0615   -2.7524   23.2749 H   0  0  0  0  0  0
  -22.4147  -11.9969   22.4861 H   0  0  0  0  0  0
  -21.1046  -13.1208   22.2571 H   0  0  0  0  0  0
  -24.6498  -15.8360   20.4860 H   0  0  0  0  0  0
  -26.2648  -15.6108   20.0404 H   0  0  0  0  0  0
  -26.7188  -32.5413   23.1118 H   0  0  0  0  0  0
  -25.0049  -33.9666   25.0479 H   0  0  0  0  0  0
  -22.7414  -31.2853   21.3669 H   0  0  0  0  0  0
  -23.3791  -35.9525   23.3297 H   0  0  0  0  0  0
  -24.3653  -36.8859   22.2103 H   0  0  0  0  0  0
  -23.7168  -37.6408   23.6690 H   0  0  0  0  0  0
  -26.1380  -31.5038   20.6144 H   0  0  0  0  0  0
  -26.8585  -30.8032   22.0261 H   0  0  0  0  0  0
  -28.1534  -28.8959   21.1898 H   0  0  0  0  0  0
  -26.0045  -25.8337   19.0612 H   0  0  0  0  0  0
  -23.9916  -27.2477   19.0463 H   0  0  0  0  0  0
  -23.8020  -30.5365   19.3818 H   0  0  0  0  0  0
  -22.7912  -29.2066   19.8679 H   0  0  0  0  0  0
  -25.1280  -36.1939   25.0884 H   0  0  0  0  0  0
  -20.9969  -28.3339   24.1351 H   0  0  0  0  0  0
  -20.5604  -26.2370   23.3629 H   0  0  0  0  0  0
  -21.6670  -26.7391   22.1264 H   0  0  0  0  0  0
  -19.6942  -25.6288   21.1247 H   0  0  0  0  0  0
  -19.6712  -27.3176   20.6672 H   0  0  0  0  0  0
  -17.4209  -26.6647   21.3976 H   0  0  0  0  0  0
  -18.0320  -26.0078   22.8981 H   0  0  0  0  0  0
  -19.7940  -30.7273   24.2236 H   0  0  0  0  0  0
  -17.5019  -31.6248   24.5182 H   0  0  0  0  0  0
  -15.5355  -30.2980   23.7660 H   0  0  0  0  0  0
  -15.8684  -28.0839   22.7050 H   0  0  0  0  0  0
  -24.5889  -30.7035   25.7884 H   0  0  0  0  0  0
  -24.8795  -32.2894   26.4902 H   0  0  0  0  0  0
  -25.8030  -30.9002   27.0306 H   0  0  0  0  0  0
  -26.2859  -29.6872   24.1125 H   0  0  0  0  0  0
  -27.3885  -29.7227   25.4709 H   0  0  0  0  0  0
  -27.8778  -30.4370   23.9518 H   0  0  0  0  0  0
  -27.2708  -33.3690   26.2004 H   0  0  0  0  0  0
  -28.3815  -32.6854   25.0236 H   0  0  0  0  0  0
  -28.0753  -31.8497   26.5394 H   0  0  0  0  0  0
  -28.2574  -38.0105   24.7544 H   0  0  0  0  0  0
  -28.1112  -36.2640   24.6230 H   0  0  0  0  0  0
  -27.2341  -37.1360   25.8873 H   0  0  0  0  0  0
  -20.9451  -29.8782   21.6751 H   0  0  0  0  0  0
  -26.0184  -38.2845   24.1387 H   0  0  0  0  0  0
  -25.0836  -19.3606   23.1247 H   0  0  0  0  0  0
  -24.5687  -20.9154   22.5033 H   0  0  0  0  0  0
  -25.5059  -20.8248   23.9896 H   0  0  0  0  0  0
  -33.0229  -26.4115   19.7319 H   0  0  0  0  0  0
  -32.7655  -26.1433   21.4445 H   0  0  0  0  0  0
  -31.9931  -27.5153   20.6374 H   0  0  0  0  0  0
  -27.3917  -22.1513   24.1176 H   0  0  0  0  0  0
  -28.0218  -23.4968   23.2093 H   0  0  0  0  0  0
  -28.9560  -22.0090   23.3405 H   0  0  0  0  0  0
  -31.6254  -24.5586   22.5647 H   0  0  0  0  0  0
  -30.6010  -23.3106   21.8961 H   0  0  0  0  0  0
  -30.0395  -24.3122   23.2415 H   0  0  0  0  0  0
  -26.4796  -20.0017   21.1879 H   0  0  0  0  0  0
  -27.4454  -19.8139   22.6053 H   0  0  0  0  0  0
  -31.4261  -24.6225   19.7993 H   0  0  0  0  0  0
  -30.5831  -26.0427   19.2863 H   0  0  0  0  0  0
  -27.7543  -23.6248   19.3497 H   0  0  0  0  0  0
  -29.4433  -23.3945   19.4532 H   0  0  0  0  0  0
  -26.4342  -22.5475   21.7089 H   0  0  0  0  0  0
  -29.9351  -26.2857   21.8536 H   0  0  0  0  0  0
  -27.6663  -21.5368   19.8981 H   0  0  0  0  0  0
  -27.8660  -25.0074   21.6044 H   0  0  0  0  0  0
  -29.9185  -21.0246   21.6840 H   0  0  0  0  0  0
  -29.0079  -15.4975   21.4920 H   0  0  0  0  0  0
  1 25  1  0  0  0
  1 30  2  0  0  0
  1 87  1  0  0  0
  2  3  1  0  0  0
  2 25  1  0  0  0
  2 89  1  0  0  0
  2 90  1  0  0  0
  3  4  1  0  0  0
  3 91  1  0  0  0
  3 92  1  0  0  0
  4  5  1  0  0  0
  4 93  1  0  0  0
  4 94  1  0  0  0
  5  6  1  0  0  0
  5 26  1  0  0  0
  5 95  1  0  0  0
  6 25  1  0  0  0
  6 96  1  0  0  0
  6 97  1  0  0  0
  7  8  2  0  0  0
  7 26  1  0  0  0
  7 29  1  0  0  0
  8  9  1  0  0  0
  8 22  1  0  0  0
  9 10  1  0  0  0
  9 27  2  0  0  0
 10 11  2  0  0  0
 10 15  1  0  0  0
 11 12  1  0  0  0
 11 98  1  0  0  0
 12 13  2  0  0  0
 12 99  1  0  0  0
 13 14  1  0  0  0
 13 31  1  0  0  0
 14 15  2  0  0  0
 14100  1  0  0  0
 15101  1  0  0  0
 16 17  2  0  0  0
 16 21  1  0  0  0
 16 31  1  0  0  0
 17 18  1  0  0  0
 17102  1  0  0  0
 18 19  2  0  0  0
 18103  1  0  0  0
 19 20  1  0  0  0
 19 24  1  0  0  0
 20 21  2  0  0  0
 20104  1  0  0  0
 21 23  1  0  0  0
 22 28  1  0  0  0
 22 32  2  0  0  0
 26 27  1  0  0  0
 28105  1  0  0  0
 28106  1  0  0  0
 29107  1  0  0  0
 29108  1  0  0  0
 33 34  1  0  0  0
 33 66  1  0  0  0
 33 70  2  0  0  0
 34 36  1  0  0  0
 34 59  1  0  0  0
 34109  1  0  0  0
 35 44  2  0  0  0
 35 45  1  0  0  0
 35 68  1  0  0  0
 36 56  1  0  0  0
 36110  1  0  0  0
 37 39  1  0  0  0
 37 47  1  0  0  0
 37 66  1  0  0  0
 37111  1  0  0  0
 38 43  2  0  0  0
 38 46  1  0  0  0
 38 47  1  0  0  0
 39 64  1  0  0  0
 39 67  2  0  0  0
 40 52  1  0  0  0
 40 53  2  0  0  0
 40 58  1  0  0  0
 41112  1  0  0  0
 41113  1  0  0  0
 41114  1  0  0  0
 41 48  1  0  0  0
 42 43  1  0  0  0
 42 66  1  0  0  0
 42115  1  0  0  0
 42116  1  0  0  0
 43 44  1  0  0  0
 44117  1  0  0  0
 45 46  2  0  0  0
 45118  1  0  0  0
 46119  1  0  0  0
 47120  1  0  0  0
 47121  1  0  0  0
 48 56  1  0  0  0
 48 65  1  0  0  0
 48122  1  0  0  0
 49 50  1  0  0  0
 49 53  1  0  0  0
 49 64  1  0  0  0
 49123  1  0  0  0
 50 51  1  0  0  0
 50124  1  0  0  0
 50125  1  0  0  0
 51 52  1  0  0  0
 51126  1  0  0  0
 51127  1  0  0  0
 52128  1  0  0  0
 52129  1  0  0  0
 53 54  1  0  0  0
 54 55  2  0  0  0
 54130  1  0  0  0
 55 57  1  0  0  0
 55131  1  0  0  0
 56 69  2  0  0  0
 57 58  2  0  0  0
 57132  1  0  0  0
 58133  1  0  0  0
 59 60  1  0  0  0
 59 61  1  0  0  0
 59 62  1  0  0  0
 60134  1  0  0  0
 60135  1  0  0  0
 60136  1  0  0  0
 61137  1  0  0  0
 61138  1  0  0  0
 61139  1  0  0  0
 62140  1  0  0  0
 62141  1  0  0  0
 62142  1  0  0  0
 63 65  1  0  0  0
 63143  1  0  0  0
 63144  1  0  0  0
 63145  1  0  0  0
 64146  1  0  0  0
 65147  1  0  0  0
 68 83  1  0  0  0
 71 84  1  0  0  0
 71 85  2  0  0  0
 71 86  1  0  0  0
 72 84  2  0  0  0
 72 87  1  0  0  0
 72 88  1  0  0  0
 73 77  1  0  0  0
 73148  1  0  0  0
 73149  1  0  0  0
 73150  1  0  0  0
 74 78  1  0  0  0
 74151  1  0  0  0
 74152  1  0  0  0
 74153  1  0  0  0
 75154  1  0  0  0
 75155  1  0  0  0
 75156  1  0  0  0
 75 80  1  0  0  0
 76157  1  0  0  0
 76158  1  0  0  0
 76159  1  0  0  0
 76 81  1  0  0  0
 77 80  1  0  0  0
 77160  1  0  0  0
 77161  1  0  0  0
 78 81  1  0  0  0
 78162  1  0  0  0
 78163  1  0  0  0
 79164  1  0  0  0
 79165  1  0  0  0
 79 82  1  0  0  0
 79 83  1  0  0  0
 80 82  1  0  0  0
 80166  1  0  0  0
 81 83  1  0  0  0
 81167  1  0  0  0
 82 86  1  0  0  0
 82168  1  0  0  0
 83169  1  0  0  0
 85 88  1  0  0  0
 86170  1  0  0  0
 87171  1  0  0  0
M  ISO  4   1 100  68 101  83 101  87 100
M  END
> <chiral flag>
0

> <version>
0

> <s_m_source_file>
/data/baiqing/PycharmProjects/Reinvent-master-3.2/result/LINK_invent/BTK/process_docking_weight1_custom_product_contain_oxygen_bond_distance_aromatic_linkinvent_7_9_3/rearranged_h_0195.sdf

> <i_m_source_file_index>
27

> <r_mmod_Potential_Energy-OPLS-2005>
291.306488037109

> <r_mmod_Stretch_Energy-OPLS-2005>
176.042953491211

> <r_mmod_Bend_Energy-OPLS-2005>
273.286285400391

> <r_mmod_Torsional_Energy-OPLS-2005>
323.115844726562

> <r_mmod_Improper_Torsional_Energy-OPLS-2005>
9.79297828674316

> <r_mmod_Van_der_Waal_Energy-OPLS-2005>
101.645599365234

> <r_mmod_Electrostatic_Energy-OPLS-2005>
-483.333831787109

> <r_mmod_Solvation_Energy-OPLS-2005>
-208.848159790039

> <b_mmod_Minimization_Converged-OPLS-2005>
0

> <r_mmod_RMS_Derivative-OPLS-2005>
8.94318771362305

$$$$
27
                    3D
 Structure written by MMmdl.
156164  0  0  1  0            999 V2000
  -30.6615  -14.5681   20.5248 C   0  0  0  0  0  0
  -30.4265  -12.3466   19.4564 C   0  0  0  0  0  0
  -29.5014  -12.4734   18.2250 C   0  0  0  0  0  0
  -28.0221  -12.3284   18.6390 C   0  0  0  0  0  0
  -27.6494  -13.2084   19.8628 C   0  0  2  0  0  0
  -28.6898  -13.0516   20.9943 C   0  0  0  0  0  0
  -25.2541  -13.8161   20.5714 C   0  0  0  0  0  0
  -24.1792  -13.0448   20.9220 C   0  0  0  0  0  0
  -24.6330  -11.6917   20.8739 C   0  0  0  0  0  0
  -23.9000  -10.4305   21.0405 C   0  0  0  0  0  0
  -24.3562   -9.4224   21.9186 C   0  0  0  0  0  0
  -23.6266   -8.2234   22.0745 C   0  0  0  0  0  0
  -22.4243   -8.0259   21.3544 C   0  0  0  0  0  0
  -21.9855   -9.0235   20.4651 C   0  0  0  0  0  0
  -22.7155  -10.2144   20.3070 C   0  0  0  0  0  0
  -21.6848   -6.0725   22.5276 C   0  0  0  0  0  0
  -21.4010   -6.5628   23.8207 C   0  0  0  0  0  0
  -21.3666   -5.6785   24.9166 C   0  0  0  0  0  0
  -21.6025   -4.3042   24.7217 C   0  0  0  0  0  0
  -21.8818   -3.8137   23.4336 C   0  0  0  0  0  0
  -21.9189   -4.6957   22.3395 C   0  0  0  0  0  0
  -22.7811  -13.5262   21.1862 C   0  0  0  0  0  0
  -22.1652   -4.2149   21.0974 F   0  0  0  0  0  0
  -21.5641   -3.4534   25.7739 F   0  0  0  0  0  0
  -30.0122  -13.3713   20.4322 N   0  0  0  0  0  0
  -26.2947  -12.9322   20.3313 N   0  0  0  0  0  0
  -25.9259  -11.6490   20.5746 N   0  0  0  0  0  0
  -22.0405  -12.8327   22.0424 N   0  0  0  0  0  0
  -25.4284  -15.1861   20.4141 N   0  0  0  0  0  0
  -31.8230  -14.6971   20.1332 O   0  0  0  0  0  0
  -21.6617   -6.8853   21.4229 O   0  0  0  0  0  0
  -22.3514  -14.5561   20.6667 O   0  0  0  0  0  0
  -24.6219  -31.8625   23.2042 C   0  0  0  0  0  0
  -25.9089  -32.4793   23.8346 C   0  0  1  0  0  0
  -27.2075  -27.3484   20.1017 C   0  0  0  0  0  0
  -25.5927  -33.8587   24.2271 N   0  0  0  0  0  0
  -23.4107  -30.4848   21.5482 C   0  0  2  0  0  0
  -24.8502  -28.9417   20.1089 C   0  0  0  0  0  0
  -22.7437  -29.4633   22.4995 C   0  0  0  0  0  0
  -18.0278  -28.1373   22.8485 C   0  0  0  0  0  0
  -24.1488  -36.7288   23.2635 C   0  0  0  0  0  0
  -25.9488  -30.7973   21.3713 C   0  0  0  0  0  0
  -26.0161  -29.4276   20.7120 C   0  0  0  0  0  0
  -27.1982  -28.6419   20.6953 C   0  0  0  0  0  0
  -26.0218  -26.8981   19.4819 C   0  0  0  0  0  0
  -24.8543  -27.6840   19.4835 C   0  0  0  0  0  0
  -23.6164  -29.8150   20.1646 C   0  0  0  0  0  0
  -25.4109  -36.3074   24.0325 C   0  0  1  0  0  0
  -20.5874  -28.3655   23.1317 C   0  0  2  0  0  0
  -20.6774  -26.9391   22.5414 C   0  0  0  0  0  0
  -19.5745  -26.6377   21.5217 C   0  0  0  0  0  0
  -18.1925  -26.7920   22.1625 C   0  0  0  0  0  0
  -19.1529  -28.8829   23.2901 C   0  0  0  0  0  0
  -18.9459  -30.1441   23.8911 C   0  0  0  0  0  0
  -17.6453  -30.6590   24.0558 C   0  0  0  0  0  0
  -25.9047  -34.9458   23.5097 C   0  0  0  0  0  0
  -16.5349  -29.9073   23.6337 C   0  0  0  0  0  0
  -16.7267  -28.6494   23.0363 C   0  0  0  0  0  0
  -26.4486  -31.6600   25.0712 C   0  0  0  0  0  0
  -25.3730  -31.3768   26.1456 C   0  0  0  0  0  0
  -27.0337  -30.3023   24.6172 C   0  0  0  0  0  0
  -27.6041  -32.4359   25.7473 C   0  0  0  0  0  0
  -27.5587  -37.1793   24.8460 C   0  0  0  0  0  0
  -21.4166  -29.3017   22.3717 N   0  0  0  0  0  0
  -26.4292  -37.3771   23.9416 N   0  0  0  0  0  0
  -24.6792  -31.0652   22.0980 N   0  0  0  0  0  0
  -23.4196  -28.8168   23.3049 O   0  0  0  0  0  0
  -28.3600  -26.5698   20.1422 O   0  0  0  0  0  0
  -26.5607  -34.8923   22.4662 O   0  0  0  0  0  0
  -23.5395  -32.1415   23.7401 O   0  0  0  0  0  0
  -31.4851  -17.5601   20.8053 C   0  0  0  0  0  0
  -30.7327  -19.7488   20.7838 C   0  0  0  0  0  0
  -30.1556  -17.0553   20.8556 C   0  0  0  0  0  0
  -29.3930  -19.3021   20.8410 C   0  0  0  0  0  0
  -28.7019  -21.4348   18.7718 C   0  0  0  0  0  0
  -27.8968  -24.1384   20.8986 C   0  0  0  0  0  0
  -28.6305  -22.7400   21.0369 C   0  0  0  0  0  0
  -28.3616  -25.1465   19.7901 C   0  0  0  0  0  0
  -28.1529  -21.4917   20.2067 C   0  0  2  0  0  0
  -31.7769  -18.8847   20.7712 N   0  0  0  0  0  0
  -29.1200  -17.9599   20.8909 N   0  0  0  0  0  0
  -29.8881  -15.6311   20.8911 N   0  0  0  0  0  0
  -28.2843  -20.1832   20.8990 N   0  0  0  0  0  0
  -31.4740  -12.4480   19.1639 H   0  0  0  0  0  0
  -30.3445  -11.3559   19.9047 H   0  0  0  0  0  0
  -29.7553  -11.7066   17.4917 H   0  0  0  0  0  0
  -29.6590  -13.4317   17.7287 H   0  0  0  0  0  0
  -27.8559  -11.2779   18.8825 H   0  0  0  0  0  0
  -27.3651  -12.5465   17.7968 H   0  0  0  0  0  0
  -27.6737  -14.2409   19.5143 H   0  0  0  0  0  0
  -28.6816  -12.0298   21.3769 H   0  0  0  0  0  0
  -28.4483  -13.6870   21.8477 H   0  0  0  0  0  0
  -25.2702   -9.5730   22.4763 H   0  0  0  0  0  0
  -24.0003   -7.4614   22.7447 H   0  0  0  0  0  0
  -21.0782   -8.8719   19.8960 H   0  0  0  0  0  0
  -22.3563  -10.9674   19.6186 H   0  0  0  0  0  0
  -21.1992   -7.6145   23.9715 H   0  0  0  0  0  0
  -21.1492   -6.0516   25.9080 H   0  0  0  0  0  0
  -22.0592   -2.7608   23.2827 H   0  0  0  0  0  0
  -22.4012  -12.0070   22.4952 H   0  0  0  0  0  0
  -21.1012  -13.1385   22.2539 H   0  0  0  0  0  0
  -24.6682  -15.8466   20.5360 H   0  0  0  0  0  0
  -26.2741  -15.6217   20.0682 H   0  0  0  0  0  0
  -26.7144  -32.5453   23.1072 H   0  0  0  0  0  0
  -25.0117  -33.9738   25.0444 H   0  0  0  0  0  0
  -22.6996  -31.3029   21.4092 H   0  0  0  0  0  0
  -23.3765  -35.9614   23.3292 H   0  0  0  0  0  0
  -24.3576  -36.8921   22.2057 H   0  0  0  0  0  0
  -23.7241  -37.6482   23.6664 H   0  0  0  0  0  0
  -26.0869  -31.5626   20.6056 H   0  0  0  0  0  0
  -26.8277  -30.8360   22.0057 H   0  0  0  0  0  0
  -28.0989  -29.0102   21.1665 H   0  0  0  0  0  0
  -25.9663  -25.9379   18.9937 H   0  0  0  0  0  0
  -23.9572  -27.3126   19.0085 H   0  0  0  0  0  0
  -23.7223  -30.5867   19.4010 H   0  0  0  0  0  0
  -22.7374  -29.2343   19.8768 H   0  0  0  0  0  0
  -25.1292  -36.1923   25.0818 H   0  0  0  0  0  0
  -20.9960  -28.3227   24.1440 H   0  0  0  0  0  0
  -20.5706  -26.2256   23.3590 H   0  0  0  0  0  0
  -21.6640  -26.7452   22.1190 H   0  0  0  0  0  0
  -19.6911  -25.6291   21.1239 H   0  0  0  0  0  0
  -19.6694  -27.3194   20.6753 H   0  0  0  0  0  0
  -17.4195  -26.6686   21.4023 H   0  0  0  0  0  0
  -18.0317  -26.0055   22.9014 H   0  0  0  0  0  0
  -19.7930  -30.7262   24.2287 H   0  0  0  0  0  0
  -17.5011  -31.6267   24.5161 H   0  0  0  0  0  0
  -15.5347  -30.2986   23.7664 H   0  0  0  0  0  0
  -15.8664  -28.0819   22.7083 H   0  0  0  0  0  0
  -24.5815  -30.7227   25.7777 H   0  0  0  0  0  0
  -24.9033  -32.2970   26.4942 H   0  0  0  0  0  0
  -25.8032  -30.8858   27.0192 H   0  0  0  0  0  0
  -26.2911  -29.6765   24.1205 H   0  0  0  0  0  0
  -27.4052  -29.7287   25.4672 H   0  0  0  0  0  0
  -27.8766  -30.4313   23.9381 H   0  0  0  0  0  0
  -27.2610  -33.3626   26.2088 H   0  0  0  0  0  0
  -28.3801  -32.7002   25.0277 H   0  0  0  0  0  0
  -28.0767  -31.8494   26.5357 H   0  0  0  0  0  0
  -28.2586  -38.0104   24.7516 H   0  0  0  0  0  0
  -28.1096  -36.2640   24.6257 H   0  0  0  0  0  0
  -27.2312  -37.1411   25.8862 H   0  0  0  0  0  0
  -20.9344  -29.8703   21.6897 H   0  0  0  0  0  0
  -26.0173  -38.2850   24.1419 H   0  0  0  0  0  0
  -32.3536  -16.9175   20.8072 H   0  0  0  0  0  0
  -30.9767  -20.8007   20.7895 H   0  0  0  0  0  0
  -28.4264  -22.3276   18.2109 H   0  0  0  0  0  0
  -28.2999  -20.5714   18.2345 H   0  0  0  0  0  0
  -29.7897  -21.3591   18.7452 H   0  0  0  0  0  0
  -28.0841  -24.6491   21.8447 H   0  0  0  0  0  0
  -26.8121  -24.0093   20.8674 H   0  0  0  0  0  0
  -28.4934  -22.4724   22.0862 H   0  0  0  0  0  0
  -29.7062  -22.8819   20.9221 H   0  0  0  0  0  0
  -27.8496  -24.9459   18.8475 H   0  0  0  0  0  0
  -29.4069  -24.9206   19.5768 H   0  0  0  0  0  0
  -27.0722  -21.6067   20.0957 H   0  0  0  0  0  0
  -28.9320  -15.3846   21.0871 H   0  0  0  0  0  0
  -27.4041  -19.7067   21.0576 H   0  0  0  0  0  0
  1 25  1  0  0  0
  1 30  2  0  0  0
  1 82  1  0  0  0
  2  3  1  0  0  0
  2 25  1  0  0  0
  2 84  1  0  0  0
  2 85  1  0  0  0
  3  4  1  0  0  0
  3 86  1  0  0  0
  3 87  1  0  0  0
  4  5  1  0  0  0
  4 88  1  0  0  0
  4 89  1  0  0  0
  5  6  1  0  0  0
  5 26  1  0  0  0
  5 90  1  0  0  0
  6 25  1  0  0  0
  6 91  1  0  0  0
  6 92  1  0  0  0
  7  8  2  0  0  0
  7 26  1  0  0  0
  7 29  1  0  0  0
  8  9  1  0  0  0
  8 22  1  0  0  0
  9 10  1  0  0  0
  9 27  2  0  0  0
 10 11  2  0  0  0
 10 15  1  0  0  0
 11 12  1  0  0  0
 11 93  1  0  0  0
 12 13  2  0  0  0
 12 94  1  0  0  0
 13 14  1  0  0  0
 13 31  1  0  0  0
 14 15  2  0  0  0
 14 95  1  0  0  0
 15 96  1  0  0  0
 16 17  2  0  0  0
 16 21  1  0  0  0
 16 31  1  0  0  0
 17 18  1  0  0  0
 17 97  1  0  0  0
 18 19  2  0  0  0
 18 98  1  0  0  0
 19 20  1  0  0  0
 19 24  1  0  0  0
 20 21  2  0  0  0
 20 99  1  0  0  0
 21 23  1  0  0  0
 22 28  1  0  0  0
 22 32  2  0  0  0
 26 27  1  0  0  0
 28100  1  0  0  0
 28101  1  0  0  0
 29102  1  0  0  0
 29103  1  0  0  0
 33 34  1  0  0  0
 33 66  1  0  0  0
 33 70  2  0  0  0
 34 36  1  0  0  0
 34 59  1  0  0  0
 34104  1  0  0  0
 35 44  2  0  0  0
 35 45  1  0  0  0
 35 68  1  0  0  0
 36 56  1  0  0  0
 36105  1  0  0  0
 37 39  1  0  0  0
 37 47  1  0  0  0
 37 66  1  0  0  0
 37106  1  0  0  0
 38 43  2  0  0  0
 38 46  1  0  0  0
 38 47  1  0  0  0
 39 64  1  0  0  0
 39 67  2  0  0  0
 40 52  1  0  0  0
 40 53  2  0  0  0
 40 58  1  0  0  0
 41107  1  0  0  0
 41108  1  0  0  0
 41109  1  0  0  0
 41 48  1  0  0  0
 42 43  1  0  0  0
 42 66  1  0  0  0
 42110  1  0  0  0
 42111  1  0  0  0
 43 44  1  0  0  0
 44112  1  0  0  0
 45 46  2  0  0  0
 45113  1  0  0  0
 46114  1  0  0  0
 47115  1  0  0  0
 47116  1  0  0  0
 48 56  1  0  0  0
 48 65  1  0  0  0
 48117  1  0  0  0
 49 50  1  0  0  0
 49 53  1  0  0  0
 49 64  1  0  0  0
 49118  1  0  0  0
 50 51  1  0  0  0
 50119  1  0  0  0
 50120  1  0  0  0
 51 52  1  0  0  0
 51121  1  0  0  0
 51122  1  0  0  0
 52123  1  0  0  0
 52124  1  0  0  0
 53 54  1  0  0  0
 54 55  2  0  0  0
 54125  1  0  0  0
 55 57  1  0  0  0
 55126  1  0  0  0
 56 69  2  0  0  0
 57 58  2  0  0  0
 57127  1  0  0  0
 58128  1  0  0  0
 59 60  1  0  0  0
 59 61  1  0  0  0
 59 62  1  0  0  0
 60129  1  0  0  0
 60130  1  0  0  0
 60131  1  0  0  0
 61132  1  0  0  0
 61133  1  0  0  0
 61134  1  0  0  0
 62135  1  0  0  0
 62136  1  0  0  0
 62137  1  0  0  0
 63 65  1  0  0  0
 63138  1  0  0  0
 63139  1  0  0  0
 63140  1  0  0  0
 64141  1  0  0  0
 65142  1  0  0  0
 68 78  1  0  0  0
 71 73  2  0  0  0
 71 80  1  0  0  0
 71143  1  0  0  0
 72 74  1  0  0  0
 72 80  2  0  0  0
 72144  1  0  0  0
 73 81  1  0  0  0
 73 82  1  0  0  0
 74 81  2  0  0  0
 74 83  1  0  0  0
 75145  1  0  0  0
 75146  1  0  0  0
 75147  1  0  0  0
 75 79  1  0  0  0
 76 77  1  0  0  0
 76 78  1  0  0  0
 76148  1  0  0  0
 76149  1  0  0  0
 77 79  1  0  0  0
 77150  1  0  0  0
 77151  1  0  0  0
 78152  1  0  0  0
 78153  1  0  0  0
 79 83  1  0  0  0
 79154  1  0  0  0
 82155  1  0  0  0
 83156  1  0  0  0
M  ISO  4   1 100  68 101  78 101  82 100
M  END
> <chiral flag>
0

> <version>
0

> <s_m_source_file>
/data/baiqing/PycharmProjects/Reinvent-master-3.2/result/LINK_invent/BTK/process_docking_weight1_custom_product_contain_oxygen_bond_distance_aromatic_linkinvent_7_9_3/rearranged_h_0195.sdf

> <i_m_source_file_index>
28

> <r_mmod_Potential_Energy-OPLS-2005>
12.9807901382446

> <r_mmod_Stretch_Energy-OPLS-2005>
60.8334579467773

> <r_mmod_Bend_Energy-OPLS-2005>
153.535720825195

> <r_mmod_Torsional_Energy-OPLS-2005>
215.077987670898

> <r_mmod_Improper_Torsional_Energy-OPLS-2005>
6.40945386886597

> <r_mmod_Van_der_Waal_Energy-OPLS-2005>
151.159927368164

> <r_mmod_Electrostatic_Energy-OPLS-2005>
-389.257965087891

> <r_mmod_Solvation_Energy-OPLS-2005>
-217.316192626953

> <b_mmod_Minimization_Converged-OPLS-2005>
0

> <r_mmod_RMS_Derivative-OPLS-2005>
4.62839078903198

$$$$
28
                    3D
 Structure written by MMmdl.
156164  0  0  1  0            999 V2000
  -30.6713  -14.6621   20.4759 C   0  0  0  0  0  0
  -30.4133  -12.4085   19.4600 C   0  0  0  0  0  0
  -29.4904  -12.4733   18.2261 C   0  0  0  0  0  0
  -28.0242  -12.2981   18.6606 C   0  0  0  0  0  0
  -27.6367  -13.2209   19.8466 C   0  0  2  0  0  0
  -28.6800  -13.1686   20.9834 C   0  0  0  0  0  0
  -25.2497  -13.8178   20.5674 C   0  0  0  0  0  0
  -24.1778  -13.0429   20.9194 C   0  0  0  0  0  0
  -24.6355  -11.6917   20.8746 C   0  0  0  0  0  0
  -23.9022  -10.4303   21.0419 C   0  0  0  0  0  0
  -24.3585   -9.4227   21.9195 C   0  0  0  0  0  0
  -23.6272   -8.2251   22.0753 C   0  0  0  0  0  0
  -22.4260   -8.0275   21.3528 C   0  0  0  0  0  0
  -21.9882   -9.0253   20.4635 C   0  0  0  0  0  0
  -22.7196  -10.2151   20.3064 C   0  0  0  0  0  0
  -21.6855   -6.0721   22.5276 C   0  0  0  0  0  0
  -21.4019   -6.5623   23.8211 C   0  0  0  0  0  0
  -21.3662   -5.6779   24.9174 C   0  0  0  0  0  0
  -21.6044   -4.3043   24.7225 C   0  0  0  0  0  0
  -21.8815   -3.8130   23.4345 C   0  0  0  0  0  0
  -21.9195   -4.6946   22.3401 C   0  0  0  0  0  0
  -22.7815  -13.5226   21.1870 C   0  0  0  0  0  0
  -22.1665   -4.2125   21.0988 F   0  0  0  0  0  0
  -21.5633   -3.4536   25.7743 F   0  0  0  0  0  0
  -29.9856  -13.4766   20.3903 N   0  0  0  0  0  0
  -26.2899  -12.9362   20.3269 N   0  0  0  0  0  0
  -25.9282  -11.6520   20.5760 N   0  0  0  0  0  0
  -22.0477  -12.8206   22.0448 N   0  0  0  0  0  0
  -25.4207  -15.1895   20.4086 N   0  0  0  0  0  0
  -31.8671  -14.6753   20.1767 O   0  0  0  0  0  0
  -21.6628   -6.8867   21.4238 O   0  0  0  0  0  0
  -22.3502  -14.5543   20.6757 O   0  0  0  0  0  0
  -24.6237  -31.8611   23.2067 C   0  0  0  0  0  0
  -25.9100  -32.4777   23.8384 C   0  0  1  0  0  0
  -27.1852  -27.3072   20.1045 C   0  0  0  0  0  0
  -25.5916  -33.8585   24.2326 N   0  0  0  0  0  0
  -23.4152  -30.4902   21.5516 C   0  0  2  0  0  0
  -24.8551  -28.9533   20.1055 C   0  0  0  0  0  0
  -22.7426  -29.4628   22.4925 C   0  0  0  0  0  0
  -18.0280  -28.1384   22.8499 C   0  0  0  0  0  0
  -24.1492  -36.7300   23.2646 C   0  0  0  0  0  0
  -25.9583  -30.7870   21.3789 C   0  0  0  0  0  0
  -26.0275  -29.4158   20.7178 C   0  0  0  0  0  0
  -27.2004  -28.6014   20.7131 C   0  0  0  0  0  0
  -26.0022  -26.9139   19.4471 C   0  0  0  0  0  0
  -24.8429  -27.7072   19.4634 C   0  0  0  0  0  0
  -23.6278  -29.8399   20.1618 C   0  0  0  0  0  0
  -25.4115  -36.3097   24.0343 C   0  0  1  0  0  0
  -20.5874  -28.3682   23.1297 C   0  0  2  0  0  0
  -20.6771  -26.9408   22.5426 C   0  0  0  0  0  0
  -19.5759  -26.6394   21.5211 C   0  0  0  0  0  0
  -18.1934  -26.7928   22.1623 C   0  0  0  0  0  0
  -19.1533  -28.8847   23.2897 C   0  0  0  0  0  0
  -18.9453  -30.1450   23.8905 C   0  0  0  0  0  0
  -17.6463  -30.6592   24.0572 C   0  0  0  0  0  0
  -25.9038  -34.9457   23.5142 C   0  0  0  0  0  0
  -16.5355  -29.9090   23.6336 C   0  0  0  0  0  0
  -16.7268  -28.6507   23.0359 C   0  0  0  0  0  0
  -26.4500  -31.6558   25.0730 C   0  0  0  0  0  0
  -25.3739  -31.3665   26.1455 C   0  0  0  0  0  0
  -27.0343  -30.2985   24.6164 C   0  0  0  0  0  0
  -27.6084  -32.4258   25.7509 C   0  0  0  0  0  0
  -27.5573  -37.1833   24.8484 C   0  0  0  0  0  0
  -21.4137  -29.3039   22.3663 N   0  0  0  0  0  0
  -26.4305  -37.3779   23.9386 N   0  0  0  0  0  0
  -24.6856  -31.0611   22.1031 N   0  0  0  0  0  0
  -23.4169  -28.8136   23.2969 O   0  0  0  0  0  0
  -28.2517  -26.3995   20.1399 O   0  0  0  0  0  0
  -26.5623  -34.8919   22.4714 O   0  0  0  0  0  0
  -23.5405  -32.1439   23.7392 O   0  0  0  0  0  0
  -29.4155  -20.6003   19.4425 C   0  0  0  0  0  0
  -28.4042  -20.1274   21.5391 C   0  0  0  0  0  0
  -29.8914  -19.2582   19.4265 C   0  0  0  0  0  0
  -28.6660  -21.1026   20.5332 C   0  0  0  0  0  0
  -29.6325  -18.3784   20.5250 C   0  0  0  0  0  0
  -30.4849  -17.1002   20.7333 C   0  0  0  0  0  0
  -30.7352  -18.8157   18.2362 C   0  0  0  0  0  0
  -28.0336  -23.6333   18.4690 C   0  0  0  0  0  0
  -27.9190  -25.0270   20.6147 C   0  0  0  0  0  0
  -28.5163  -23.7090   19.9263 C   0  0  2  0  0  0
  -28.8690  -18.8410   21.5511 N   0  0  0  0  0  0
  -28.1764  -22.4511   20.6783 N   0  0  0  0  0  0
  -29.9588  -15.8320   20.6549 N   0  0  0  0  0  0
  -31.6872  -17.3076   20.9510 O   0  0  0  0  0  0
  -31.4529  -12.5062   19.1462 H   0  0  0  0  0  0
  -30.3457  -11.4336   19.9441 H   0  0  0  0  0  0
  -29.7638  -11.6964   17.5092 H   0  0  0  0  0  0
  -29.6114  -13.4269   17.7085 H   0  0  0  0  0  0
  -27.9049  -11.2570   18.9619 H   0  0  0  0  0  0
  -27.3500  -12.4526   17.8171 H   0  0  0  0  0  0
  -27.6315  -14.2343   19.4444 H   0  0  0  0  0  0
  -28.6980  -12.1888   21.4626 H   0  0  0  0  0  0
  -28.4219  -13.8847   21.7654 H   0  0  0  0  0  0
  -25.2748   -9.5706   22.4748 H   0  0  0  0  0  0
  -23.9997   -7.4641   22.7470 H   0  0  0  0  0  0
  -21.0806   -8.8750   19.8932 H   0  0  0  0  0  0
  -22.3647  -10.9677   19.6154 H   0  0  0  0  0  0
  -21.2024   -7.6141   23.9689 H   0  0  0  0  0  0
  -21.1478   -6.0531   25.9072 H   0  0  0  0  0  0
  -22.0593   -2.7590   23.2853 H   0  0  0  0  0  0
  -22.4078  -11.9860   22.4825 H   0  0  0  0  0  0
  -21.1095  -13.1215   22.2658 H   0  0  0  0  0  0
  -24.6520  -15.8426   20.5162 H   0  0  0  0  0  0
  -26.2640  -15.6317   20.0687 H   0  0  0  0  0  0
  -26.7146  -32.5481   23.1112 H   0  0  0  0  0  0
  -24.9988  -33.9736   25.0422 H   0  0  0  0  0  0
  -22.7083  -31.3121   21.4183 H   0  0  0  0  0  0
  -23.3731  -35.9659   23.3362 H   0  0  0  0  0  0
  -24.3549  -36.8862   22.2046 H   0  0  0  0  0  0
  -23.7283  -37.6537   23.6621 H   0  0  0  0  0  0
  -26.0829  -31.5503   20.6093 H   0  0  0  0  0  0
  -26.8398  -30.8392   22.0046 H   0  0  0  0  0  0
  -28.0953  -28.9372   21.2163 H   0  0  0  0  0  0
  -25.9558  -25.9651   18.9313 H   0  0  0  0  0  0
  -23.9438  -27.3529   18.9776 H   0  0  0  0  0  0
  -23.7515  -30.6300   19.4188 H   0  0  0  0  0  0
  -22.7419  -29.2805   19.8528 H   0  0  0  0  0  0
  -25.1298  -36.1971   25.0835 H   0  0  0  0  0  0
  -20.9978  -28.3272   24.1412 H   0  0  0  0  0  0
  -20.5653  -26.2273   23.3611 H   0  0  0  0  0  0
  -21.6637  -26.7438   22.1222 H   0  0  0  0  0  0
  -19.6914  -25.6300   21.1235 H   0  0  0  0  0  0
  -19.6714  -27.3202   20.6739 H   0  0  0  0  0  0
  -17.4195  -26.6671   21.4039 H   0  0  0  0  0  0
  -18.0351  -26.0073   22.9025 H   0  0  0  0  0  0
  -19.7937  -30.7272   24.2258 H   0  0  0  0  0  0
  -17.5026  -31.6271   24.5176 H   0  0  0  0  0  0
  -15.5354  -30.3008   23.7655 H   0  0  0  0  0  0
  -15.8661  -28.0834   22.7073 H   0  0  0  0  0  0
  -24.5898  -30.7039   25.7746 H   0  0  0  0  0  0
  -24.8941  -32.2821   26.4936 H   0  0  0  0  0  0
  -25.8064  -30.8776   27.0197 H   0  0  0  0  0  0
  -26.2918  -29.6726   24.1185 H   0  0  0  0  0  0
  -27.4036  -29.7237   25.4669 H   0  0  0  0  0  0
  -27.8797  -30.4262   23.9392 H   0  0  0  0  0  0
  -27.2703  -33.3519   26.2180 H   0  0  0  0  0  0
  -28.3866  -32.6868   25.0316 H   0  0  0  0  0  0
  -28.0786  -31.8305   26.5353 H   0  0  0  0  0  0
  -28.2658  -38.0061   24.7408 H   0  0  0  0  0  0
  -28.1003  -36.2585   24.6470 H   0  0  0  0  0  0
  -27.2263  -37.1683   25.8885 H   0  0  0  0  0  0
  -20.9248  -29.8768   21.6923 H   0  0  0  0  0  0
  -26.0203  -38.2870   24.1319 H   0  0  0  0  0  0
  -29.6682  -21.2449   18.6170 H   0  0  0  0  0  0
  -27.8251  -20.4110   22.4079 H   0  0  0  0  0  0
  -30.4459  -17.8219   17.8926 H   0  0  0  0  0  0
  -31.7952  -18.8001   18.4952 H   0  0  0  0  0  0
  -30.6142  -19.4912   17.3872 H   0  0  0  0  0  0
  -26.9604  -23.4592   18.4105 H   0  0  0  0  0  0
  -28.5266  -22.8486   17.9022 H   0  0  0  0  0  0
  -28.2495  -24.5676   17.9462 H   0  0  0  0  0  0
  -28.2205  -25.0091   21.6616 H   0  0  0  0  0  0
  -26.8391  -24.8829   20.6701 H   0  0  0  0  0  0
  -29.6032  -23.8020   19.9181 H   0  0  0  0  0  0
  -27.6816  -22.6190   21.5532 H   0  0  0  0  0  0
  -28.9537  -15.7781   20.6670 H   0  0  0  0  0  0
  1 25  1  0  0  0
  1 30  2  0  0  0
  1 83  1  0  0  0
  2  3  1  0  0  0
  2 25  1  0  0  0
  2 85  1  0  0  0
  2 86  1  0  0  0
  3  4  1  0  0  0
  3 87  1  0  0  0
  3 88  1  0  0  0
  4  5  1  0  0  0
  4 89  1  0  0  0
  4 90  1  0  0  0
  5  6  1  0  0  0
  5 26  1  0  0  0
  5 91  1  0  0  0
  6 25  1  0  0  0
  6 92  1  0  0  0
  6 93  1  0  0  0
  7  8  2  0  0  0
  7 26  1  0  0  0
  7 29  1  0  0  0
  8  9  1  0  0  0
  8 22  1  0  0  0
  9 10  1  0  0  0
  9 27  2  0  0  0
 10 11  2  0  0  0
 10 15  1  0  0  0
 11 12  1  0  0  0
 11 94  1  0  0  0
 12 13  2  0  0  0
 12 95  1  0  0  0
 13 14  1  0  0  0
 13 31  1  0  0  0
 14 15  2  0  0  0
 14 96  1  0  0  0
 15 97  1  0  0  0
 16 17  2  0  0  0
 16 21  1  0  0  0
 16 31  1  0  0  0
 17 18  1  0  0  0
 17 98  1  0  0  0
 18 19  2  0  0  0
 18 99  1  0  0  0
 19 20  1  0  0  0
 19 24  1  0  0  0
 20 21  2  0  0  0
 20100  1  0  0  0
 21 23  1  0  0  0
 22 28  1  0  0  0
 22 32  2  0  0  0
 26 27  1  0  0  0
 28101  1  0  0  0
 28102  1  0  0  0
 29103  1  0  0  0
 29104  1  0  0  0
 33 34  1  0  0  0
 33 66  1  0  0  0
 33 70  2  0  0  0
 34 36  1  0  0  0
 34 59  1  0  0  0
 34105  1  0  0  0
 35 44  2  0  0  0
 35 45  1  0  0  0
 35 68  1  0  0  0
 36 56  1  0  0  0
 36106  1  0  0  0
 37 39  1  0  0  0
 37 47  1  0  0  0
 37 66  1  0  0  0
 37107  1  0  0  0
 38 43  2  0  0  0
 38 46  1  0  0  0
 38 47  1  0  0  0
 39 64  1  0  0  0
 39 67  2  0  0  0
 40 52  1  0  0  0
 40 53  2  0  0  0
 40 58  1  0  0  0
 41108  1  0  0  0
 41109  1  0  0  0
 41110  1  0  0  0
 41 48  1  0  0  0
 42 43  1  0  0  0
 42 66  1  0  0  0
 42111  1  0  0  0
 42112  1  0  0  0
 43 44  1  0  0  0
 44113  1  0  0  0
 45 46  2  0  0  0
 45114  1  0  0  0
 46115  1  0  0  0
 47116  1  0  0  0
 47117  1  0  0  0
 48 56  1  0  0  0
 48 65  1  0  0  0
 48118  1  0  0  0
 49 50  1  0  0  0
 49 53  1  0  0  0
 49 64  1  0  0  0
 49119  1  0  0  0
 50 51  1  0  0  0
 50120  1  0  0  0
 50121  1  0  0  0
 51 52  1  0  0  0
 51122  1  0  0  0
 51123  1  0  0  0
 52124  1  0  0  0
 52125  1  0  0  0
 53 54  1  0  0  0
 54 55  2  0  0  0
 54126  1  0  0  0
 55 57  1  0  0  0
 55127  1  0  0  0
 56 69  2  0  0  0
 57 58  2  0  0  0
 57128  1  0  0  0
 58129  1  0  0  0
 59 60  1  0  0  0
 59 61  1  0  0  0
 59 62  1  0  0  0
 60130  1  0  0  0
 60131  1  0  0  0
 60132  1  0  0  0
 61133  1  0  0  0
 61134  1  0  0  0
 61135  1  0  0  0
 62136  1  0  0  0
 62137  1  0  0  0
 62138  1  0  0  0
 63 65  1  0  0  0
 63139  1  0  0  0
 63140  1  0  0  0
 63141  1  0  0  0
 64142  1  0  0  0
 65143  1  0  0  0
 68 79  1  0  0  0
 71 73  2  0  0  0
 71 74  1  0  0  0
 71144  1  0  0  0
 72 74  2  0  0  0
 72 81  1  0  0  0
 72145  1  0  0  0
 73 75  1  0  0  0
 73 77  1  0  0  0
 74 82  1  0  0  0
 75 76  1  0  0  0
 75 81  2  0  0  0
 76 83  1  0  0  0
 76 84  2  0  0  0
 77146  1  0  0  0
 77147  1  0  0  0
 77148  1  0  0  0
 78149  1  0  0  0
 78150  1  0  0  0
 78151  1  0  0  0
 78 80  1  0  0  0
 79 80  1  0  0  0
 79152  1  0  0  0
 79153  1  0  0  0
 80 82  1  0  0  0
 80154  1  0  0  0
 82155  1  0  0  0
 83156  1  0  0  0
M  ISO  4   1 100  68 101  79 101  83 100
M  END
> <chiral flag>
0

> <version>
0

> <s_m_source_file>
/data/baiqing/PycharmProjects/Reinvent-master-3.2/result/LINK_invent/BTK/process_docking_weight1_custom_product_contain_oxygen_bond_distance_aromatic_linkinvent_7_9_3/rearranged_h_0195.sdf

> <i_m_source_file_index>
29

> <r_mmod_Potential_Energy-OPLS-2005>
-6.34099435806274

> <r_mmod_Stretch_Energy-OPLS-2005>
83.0292510986328

> <r_mmod_Bend_Energy-OPLS-2005>
160.147811889648

> <r_mmod_Torsional_Energy-OPLS-2005>
252.513885498047

> <r_mmod_Improper_Torsional_Energy-OPLS-2005>
8.6793384552002

> <r_mmod_Van_der_Waal_Energy-OPLS-2005>
154.374862670898

> <r_mmod_Electrostatic_Energy-OPLS-2005>
-494.913116455078

> <r_mmod_Solvation_Energy-OPLS-2005>
-236.268783569336

> <b_mmod_Minimization_Converged-OPLS-2005>
0

> <r_mmod_RMS_Derivative-OPLS-2005>
4.00746726989746

$$$$
29
                    3D
 Structure written by MMmdl.
158166  0  0  1  0            999 V2000
  -30.5993  -14.6878   20.4750 C   0  0  0  0  0  0
  -30.4436  -12.4204   19.4568 C   0  0  0  0  0  0
  -29.5129  -12.5031   18.2263 C   0  0  0  0  0  0
  -28.0365  -12.3345   18.6396 C   0  0  0  0  0  0
  -27.6496  -13.2176   19.8566 C   0  0  2  0  0  0
  -28.6940  -13.0986   20.9889 C   0  0  0  0  0  0
  -25.2547  -13.8156   20.5680 C   0  0  0  0  0  0
  -24.1834  -13.0412   20.9207 C   0  0  0  0  0  0
  -24.6418  -11.6889   20.8756 C   0  0  0  0  0  0
  -23.9093  -10.4276   21.0410 C   0  0  0  0  0  0
  -24.3639   -9.4191   21.9187 C   0  0  0  0  0  0
  -23.6301   -8.2233   22.0765 C   0  0  0  0  0  0
  -22.4284   -8.0277   21.3546 C   0  0  0  0  0  0
  -21.9922   -9.0254   20.4651 C   0  0  0  0  0  0
  -22.7266  -10.2124   20.3060 C   0  0  0  0  0  0
  -21.6856   -6.0739   22.5280 C   0  0  0  0  0  0
  -21.4005   -6.5646   23.8211 C   0  0  0  0  0  0
  -21.3663   -5.6798   24.9179 C   0  0  0  0  0  0
  -21.6046   -4.3058   24.7228 C   0  0  0  0  0  0
  -21.8821   -3.8151   23.4348 C   0  0  0  0  0  0
  -21.9194   -4.6965   22.3402 C   0  0  0  0  0  0
  -22.7859  -13.5200   21.1869 C   0  0  0  0  0  0
  -22.1663   -4.2155   21.0977 F   0  0  0  0  0  0
  -21.5631   -3.4543   25.7738 F   0  0  0  0  0  0
  -30.0027  -13.4521   20.4185 N   0  0  0  0  0  0
  -26.2974  -12.9345   20.3267 N   0  0  0  0  0  0
  -25.9338  -11.6504   20.5736 N   0  0  0  0  0  0
  -22.0511  -12.8177   22.0424 N   0  0  0  0  0  0
  -25.4187  -15.1886   20.4079 N   0  0  0  0  0  0
  -31.7791  -14.8301   20.1387 O   0  0  0  0  0  0
  -21.6638   -6.8881   21.4245 O   0  0  0  0  0  0
  -22.3535  -14.5501   20.6725 O   0  0  0  0  0  0
  -24.6274  -31.8559   23.2017 C   0  0  0  0  0  0
  -25.9109  -32.4760   23.8335 C   0  0  1  0  0  0
  -27.2221  -27.2938   20.1107 C   0  0  0  0  0  0
  -25.5902  -33.8560   24.2240 N   0  0  0  0  0  0
  -23.4212  -30.4827   21.5451 C   0  0  2  0  0  0
  -24.8646  -28.9355   20.1117 C   0  0  0  0  0  0
  -22.7469  -29.4600   22.4907 C   0  0  0  0  0  0
  -18.0269  -28.1397   22.8473 C   0  0  0  0  0  0
  -24.1485  -36.7311   23.2647 C   0  0  0  0  0  0
  -25.9641  -30.7811   21.3729 C   0  0  0  0  0  0
  -26.0350  -29.4052   20.7185 C   0  0  0  0  0  0
  -27.2120  -28.5965   20.7090 C   0  0  0  0  0  0
  -26.0207  -26.8833   19.4838 C   0  0  0  0  0  0
  -24.8617  -27.6800   19.4877 C   0  0  0  0  0  0
  -23.6365  -29.8218   20.1584 C   0  0  0  0  0  0
  -25.4110  -36.3086   24.0329 C   0  0  1  0  0  0
  -20.5869  -28.3688   23.1269 C   0  0  2  0  0  0
  -20.6748  -26.9404   22.5408 C   0  0  0  0  0  0
  -19.5727  -26.6378   21.5208 C   0  0  0  0  0  0
  -18.1905  -26.7928   22.1625 C   0  0  0  0  0  0
  -19.1522  -28.8860   23.2865 C   0  0  0  0  0  0
  -18.9456  -30.1462   23.8877 C   0  0  0  0  0  0
  -17.6459  -30.6595   24.0569 C   0  0  0  0  0  0
  -25.9051  -34.9448   23.5099 C   0  0  0  0  0  0
  -16.5347  -29.9099   23.6343 C   0  0  0  0  0  0
  -16.7258  -28.6533   23.0328 C   0  0  0  0  0  0
  -26.4489  -31.6577   25.0707 C   0  0  0  0  0  0
  -25.3728  -31.3698   26.1431 C   0  0  0  0  0  0
  -27.0319  -30.3000   24.6160 C   0  0  0  0  0  0
  -27.6028  -32.4318   25.7482 C   0  0  0  0  0  0
  -27.5574  -37.1811   24.8466 C   0  0  0  0  0  0
  -21.4177  -29.3039   22.3663 N   0  0  0  0  0  0
  -26.4283  -37.3787   23.9413 N   0  0  0  0  0  0
  -24.6909  -31.0572   22.0970 N   0  0  0  0  0  0
  -23.4189  -28.8117   23.2975 O   0  0  0  0  0  0
  -28.3651  -26.4686   20.1594 O   0  0  0  0  0  0
  -26.5640  -34.8942   22.4676 O   0  0  0  0  0  0
  -23.5438  -32.1329   23.7361 O   0  0  0  0  0  0
  -28.7156  -18.0098   20.5672 C   0  0  0  0  0  0
  -29.8803  -20.0521   20.3363 C   0  0  0  0  0  0
  -29.9012  -17.2071   20.5846 C   0  0  0  0  0  0
  -31.0722  -19.2477   20.3927 C   0  0  0  0  0  0
  -30.1436  -21.7288   18.6114 C   0  0  0  0  0  0
  -27.7013  -24.0706   21.9860 C   0  0  0  0  0  0
  -28.3838  -25.0369   19.7233 C   0  0  0  0  0  0
  -29.8602  -21.6079   20.1170 C   0  0  1  0  0  0
  -28.6774  -23.8896   20.8052 C   0  0  2  0  0  0
  -28.6941  -19.3833   20.4429 N   0  0  0  0  0  0
  -31.0806  -17.8833   20.4952 N   0  0  0  0  0  0
  -32.3463  -19.7994   20.3282 N   0  0  0  0  0  0
  -29.7583  -15.7499   20.7200 N   0  0  0  0  0  0
  -28.6030  -22.4263   20.3289 N   0  3  0  0  0  0
  -29.3842  -22.2904   17.8116 O   0  0  0  0  0  0
  -31.4816  -12.5616   19.1510 H   0  0  0  0  0  0
  -30.3977  -11.4308   19.9138 H   0  0  0  0  0  0
  -29.7837  -11.7402   17.4952 H   0  0  0  0  0  0
  -29.6477  -13.4638   17.7269 H   0  0  0  0  0  0
  -27.8823  -11.2823   18.8835 H   0  0  0  0  0  0
  -27.3841  -12.5492   17.7925 H   0  0  0  0  0  0
  -27.6550  -14.2468   19.4986 H   0  0  0  0  0  0
  -28.7186  -12.0824   21.3851 H   0  0  0  0  0  0
  -28.4350  -13.7411   21.8326 H   0  0  0  0  0  0
  -25.2800   -9.5646   22.4741 H   0  0  0  0  0  0
  -24.0016   -7.4619   22.7483 H   0  0  0  0  0  0
  -21.0856   -8.8781   19.8942 H   0  0  0  0  0  0
  -22.3754  -10.9662   19.6153 H   0  0  0  0  0  0
  -21.1994   -7.6153   23.9714 H   0  0  0  0  0  0
  -21.1481   -6.0532   25.9080 H   0  0  0  0  0  0
  -22.0601   -2.7616   23.2852 H   0  0  0  0  0  0
  -22.4155  -11.9848   22.4802 H   0  0  0  0  0  0
  -21.1112  -13.1167   22.2617 H   0  0  0  0  0  0
  -24.6328  -15.8219   20.5073 H   0  0  0  0  0  0
  -26.2265  -15.6291   19.9892 H   0  0  0  0  0  0
  -26.7169  -32.5432   23.1076 H   0  0  0  0  0  0
  -24.9989  -33.9671   25.0346 H   0  0  0  0  0  0
  -22.7169  -31.3054   21.4040 H   0  0  0  0  0  0
  -23.3746  -35.9647   23.3306 H   0  0  0  0  0  0
  -24.3581  -36.8944   22.2064 H   0  0  0  0  0  0
  -23.7245  -37.6516   23.6676 H   0  0  0  0  0  0
  -26.0915  -31.5400   20.5994 H   0  0  0  0  0  0
  -26.8461  -30.8326   21.9989 H   0  0  0  0  0  0
  -28.1115  -28.9572   21.1877 H   0  0  0  0  0  0
  -25.9194  -25.9404   18.9766 H   0  0  0  0  0  0
  -23.9663  -27.3146   19.0025 H   0  0  0  0  0  0
  -23.7631  -30.5997   19.4036 H   0  0  0  0  0  0
  -22.7543  -29.2570   19.8530 H   0  0  0  0  0  0
  -25.1296  -36.1936   25.0821 H   0  0  0  0  0  0
  -20.9962  -28.3282   24.1389 H   0  0  0  0  0  0
  -20.5606  -26.2309   23.3617 H   0  0  0  0  0  0
  -21.6623  -26.7382   22.1234 H   0  0  0  0  0  0
  -19.6874  -25.6281   21.1250 H   0  0  0  0  0  0
  -19.6680  -27.3182   20.6736 H   0  0  0  0  0  0
  -17.4159  -26.6638   21.4050 H   0  0  0  0  0  0
  -18.0331  -26.0077   22.9036 H   0  0  0  0  0  0
  -19.7933  -30.7283   24.2232 H   0  0  0  0  0  0
  -17.5021  -31.6280   24.5170 H   0  0  0  0  0  0
  -15.5351  -30.3005   23.7694 H   0  0  0  0  0  0
  -15.8647  -28.0895   22.7001 H   0  0  0  0  0  0
  -24.5924  -30.7011   25.7783 H   0  0  0  0  0  0
  -24.8887  -32.2845   26.4858 H   0  0  0  0  0  0
  -25.8066  -30.8896   27.0207 H   0  0  0  0  0  0
  -26.2874  -29.6754   24.1202 H   0  0  0  0  0  0
  -27.4029  -29.7259   25.4660 H   0  0  0  0  0  0
  -27.8750  -30.4291   23.9366 H   0  0  0  0  0  0
  -27.2621  -33.3626   26.2039 H   0  0  0  0  0  0
  -28.3852  -32.6859   25.0316 H   0  0  0  0  0  0
  -28.0671  -31.8442   26.5416 H   0  0  0  0  0  0
  -28.2589  -38.0111   24.7516 H   0  0  0  0  0  0
  -28.1065  -36.2637   24.6280 H   0  0  0  0  0  0
  -27.2289  -37.1464   25.8869 H   0  0  0  0  0  0
  -20.9329  -29.8842   21.6950 H   0  0  0  0  0  0
  -26.0165  -38.2858   24.1434 H   0  0  0  0  0  0
  -27.7446  -17.5416   20.6458 H   0  0  0  0  0  0
  -31.0878  -21.2776   18.3072 H   0  0  0  0  0  0
  -27.7854  -25.0651   22.4259 H   0  0  0  0  0  0
  -27.8925  -23.3547   22.7867 H   0  0  0  0  0  0
  -26.6645  -23.9462   21.6694 H   0  0  0  0  0  0
  -27.5017  -24.7460   19.1645 H   0  0  0  0  0  0
  -29.1800  -24.9803   18.9802 H   0  0  0  0  0  0
  -30.6761  -22.0599   20.6796 H   0  0  0  0  0  0
  -29.6830  -24.0629   21.1917 H   0  0  0  0  0  0
  -32.5078  -20.7652   20.5890 H   0  0  0  0  0  0
  -33.1357  -19.1949   20.5311 H   0  0  0  0  0  0
  -28.8205  -15.4549   20.9390 H   0  0  0  0  0  0
  -28.0333  -21.8969   20.9678 H   0  0  0  0  0  0
  -28.1569  -22.3839   19.4224 H   0  0  0  0  0  0
  1 25  1  0  0  0
  1 30  2  0  0  0
  1 83  1  0  0  0
  2  3  1  0  0  0
  2 25  1  0  0  0
  2 86  1  0  0  0
  2 87  1  0  0  0
  3  4  1  0  0  0
  3 88  1  0  0  0
  3 89  1  0  0  0
  4  5  1  0  0  0
  4 90  1  0  0  0
  4 91  1  0  0  0
  5  6  1  0  0  0
  5 26  1  0  0  0
  5 92  1  0  0  0
  6 25  1  0  0  0
  6 93  1  0  0  0
  6 94  1  0  0  0
  7  8  2  0  0  0
  7 26  1  0  0  0
  7 29  1  0  0  0
  8  9  1  0  0  0
  8 22  1  0  0  0
  9 10  1  0  0  0
  9 27  2  0  0  0
 10 11  2  0  0  0
 10 15  1  0  0  0
 11 12  1  0  0  0
 11 95  1  0  0  0
 12 13  2  0  0  0
 12 96  1  0  0  0
 13 14  1  0  0  0
 13 31  1  0  0  0
 14 15  2  0  0  0
 14 97  1  0  0  0
 15 98  1  0  0  0
 16 17  2  0  0  0
 16 21  1  0  0  0
 16 31  1  0  0  0
 17 18  1  0  0  0
 17 99  1  0  0  0
 18 19  2  0  0  0
 18100  1  0  0  0
 19 20  1  0  0  0
 19 24  1  0  0  0
 20 21  2  0  0  0
 20101  1  0  0  0
 21 23  1  0  0  0
 22 28  1  0  0  0
 22 32  2  0  0  0
 26 27  1  0  0  0
 28102  1  0  0  0
 28103  1  0  0  0
 29104  1  0  0  0
 29105  1  0  0  0
 33 34  1  0  0  0
 33 66  1  0  0  0
 33 70  2  0  0  0
 34 36  1  0  0  0
 34 59  1  0  0  0
 34106  1  0  0  0
 35 44  2  0  0  0
 35 45  1  0  0  0
 35 68  1  0  0  0
 36 56  1  0  0  0
 36107  1  0  0  0
 37 39  1  0  0  0
 37 47  1  0  0  0
 37 66  1  0  0  0
 37108  1  0  0  0
 38 43  2  0  0  0
 38 46  1  0  0  0
 38 47  1  0  0  0
 39 64  1  0  0  0
 39 67  2  0  0  0
 40 52  1  0  0  0
 40 53  2  0  0  0
 40 58  1  0  0  0
 41109  1  0  0  0
 41110  1  0  0  0
 41111  1  0  0  0
 41 48  1  0  0  0
 42 43  1  0  0  0
 42 66  1  0  0  0
 42112  1  0  0  0
 42113  1  0  0  0
 43 44  1  0  0  0
 44114  1  0  0  0
 45 46  2  0  0  0
 45115  1  0  0  0
 46116  1  0  0  0
 47117  1  0  0  0
 47118  1  0  0  0
 48 56  1  0  0  0
 48 65  1  0  0  0
 48119  1  0  0  0
 49 50  1  0  0  0
 49 53  1  0  0  0
 49 64  1  0  0  0
 49120  1  0  0  0
 50 51  1  0  0  0
 50121  1  0  0  0
 50122  1  0  0  0
 51 52  1  0  0  0
 51123  1  0  0  0
 51124  1  0  0  0
 52125  1  0  0  0
 52126  1  0  0  0
 53 54  1  0  0  0
 54 55  2  0  0  0
 54127  1  0  0  0
 55 57  1  0  0  0
 55128  1  0  0  0
 56 69  2  0  0  0
 57 58  2  0  0  0
 57129  1  0  0  0
 58130  1  0  0  0
 59 60  1  0  0  0
 59 61  1  0  0  0
 59 62  1  0  0  0
 60131  1  0  0  0
 60132  1  0  0  0
 60133  1  0  0  0
 61134  1  0  0  0
 61135  1  0  0  0
 61136  1  0  0  0
 62137  1  0  0  0
 62138  1  0  0  0
 62139  1  0  0  0
 63 65  1  0  0  0
 63140  1  0  0  0
 63141  1  0  0  0
 63142  1  0  0  0
 64143  1  0  0  0
 65144  1  0  0  0
 68 77  1  0  0  0
 71 73  2  0  0  0
 71 80  1  0  0  0
 71145  1  0  0  0
 72 74  1  0  0  0
 72 78  1  0  0  0
 72 80  2  0  0  0
 73 81  1  0  0  0
 73 83  1  0  0  0
 74 81  2  0  0  0
 74 82  1  0  0  0
 75 78  1  0  0  0
 75 85  2  0  0  0
 75146  1  0  0  0
 76147  1  0  0  0
 76148  1  0  0  0
 76149  1  0  0  0
 76 79  1  0  0  0
 77 79  1  0  0  0
 77150  1  0  0  0
 77151  1  0  0  0
 78 84  1  0  0  0
 78152  1  0  0  0
 79 84  1  0  0  0
 79153  1  0  0  0
 82154  1  0  0  0
 82155  1  0  0  0
 83156  1  0  0  0
 84157  1  0  0  0
 84158  1  0  0  0
M  CHG  1  84   1
M  ISO  4   1 100  68 101  77 101  83 100
M  END
> <chiral flag>
0

> <version>
0

> <s_m_source_file>
/data/baiqing/PycharmProjects/Reinvent-master-3.2/result/LINK_invent/BTK/process_docking_weight1_custom_product_contain_oxygen_bond_distance_aromatic_linkinvent_7_9_3/rearranged_h_0195.sdf

> <i_m_source_file_index>
30

> <r_mmod_Potential_Energy-OPLS-2005>
-214.844421386719

> <r_mmod_Stretch_Energy-OPLS-2005>
101.054489135742

> <r_mmod_Bend_Energy-OPLS-2005>
171.494277954102

> <r_mmod_Torsional_Energy-OPLS-2005>
225.417785644531

> <r_mmod_Improper_Torsional_Energy-OPLS-2005>
7.76967239379883

> <r_mmod_Van_der_Waal_Energy-OPLS-2005>
147.195190429688

> <r_mmod_Electrostatic_Energy-OPLS-2005>
-427.804779052734

> <r_mmod_Solvation_Energy-OPLS-2005>
-500.378295898438

> <b_mmod_Minimization_Converged-OPLS-2005>
0

> <r_mmod_RMS_Derivative-OPLS-2005>
1.85927748680115

$$$$
30
                    3D
 Structure written by MMmdl.
154162  0  0  1  0            999 V2000
  -30.6312  -14.7067   20.3724 C   0  0  0  0  0  0
  -30.4395  -12.4002   19.4629 C   0  0  0  0  0  0
  -29.5016  -12.3788   18.2334 C   0  0  0  0  0  0
  -28.0210  -12.2890   18.6540 C   0  0  0  0  0  0
  -27.6398  -13.2155   19.8421 C   0  0  2  0  0  0
  -28.6982  -13.1773   20.9647 C   0  0  0  0  0  0
  -25.2543  -13.8179   20.5730 C   0  0  0  0  0  0
  -24.1806  -13.0446   20.9222 C   0  0  0  0  0  0
  -24.6372  -11.6916   20.8786 C   0  0  0  0  0  0
  -23.9047  -10.4296   21.0429 C   0  0  0  0  0  0
  -24.3606   -9.4207   21.9197 C   0  0  0  0  0  0
  -23.6287   -8.2238   22.0756 C   0  0  0  0  0  0
  -22.4271   -8.0278   21.3544 C   0  0  0  0  0  0
  -21.9905   -9.0253   20.4648 C   0  0  0  0  0  0
  -22.7228  -10.2137   20.3068 C   0  0  0  0  0  0
  -21.6852   -6.0733   22.5278 C   0  0  0  0  0  0
  -21.4013   -6.5638   23.8211 C   0  0  0  0  0  0
  -21.3658   -5.6792   24.9174 C   0  0  0  0  0  0
  -21.6045   -4.3056   24.7226 C   0  0  0  0  0  0
  -21.8819   -3.8145   23.4348 C   0  0  0  0  0  0
  -21.9192   -4.6960   22.3402 C   0  0  0  0  0  0
  -22.7828  -13.5239   21.1865 C   0  0  0  0  0  0
  -22.1660   -4.2145   21.0980 F   0  0  0  0  0  0
  -21.5631   -3.4540   25.7739 F   0  0  0  0  0  0
  -29.9949  -13.4896   20.3526 N   0  0  0  0  0  0
  -26.2949  -12.9346   20.3337 N   0  0  0  0  0  0
  -25.9303  -11.6512   20.5843 N   0  0  0  0  0  0
  -22.0463  -12.8232   22.0417 N   0  0  0  0  0  0
  -25.4277  -15.1901   20.4153 N   0  0  0  0  0  0
  -31.8598  -14.7675   20.2762 O   0  0  0  0  0  0
  -21.6638   -6.8874   21.4238 O   0  0  0  0  0  0
  -22.3517  -14.5541   20.6704 O   0  0  0  0  0  0
  -24.6269  -31.8600   23.2035 C   0  0  0  0  0  0
  -25.9116  -32.4780   23.8363 C   0  0  1  0  0  0
  -27.2193  -27.3123   20.1223 C   0  0  0  0  0  0
  -25.5930  -33.8581   24.2288 N   0  0  0  0  0  0
  -23.4205  -30.4851   21.5461 C   0  0  2  0  0  0
  -24.8667  -28.9437   20.1095 C   0  0  0  0  0  0
  -22.7479  -29.4628   22.4934 C   0  0  0  0  0  0
  -18.0287  -28.1385   22.8487 C   0  0  0  0  0  0
  -24.1489  -36.7295   23.2639 C   0  0  0  0  0  0
  -25.9630  -30.7901   21.3756 C   0  0  0  0  0  0
  -26.0368  -29.4182   20.7159 C   0  0  0  0  0  0
  -27.2170  -28.6150   20.7117 C   0  0  0  0  0  0
  -26.0269  -26.8994   19.4816 C   0  0  0  0  0  0
  -24.8645  -27.6904   19.4818 C   0  0  0  0  0  0
  -23.6352  -29.8237   20.1602 C   0  0  0  0  0  0
  -25.4113  -36.3085   24.0330 C   0  0  1  0  0  0
  -20.5888  -28.3691   23.1280 C   0  0  2  0  0  0
  -20.6777  -26.9414   22.5408 C   0  0  0  0  0  0
  -19.5752  -26.6385   21.5212 C   0  0  0  0  0  0
  -18.1932  -26.7929   22.1625 C   0  0  0  0  0  0
  -19.1540  -28.8855   23.2879 C   0  0  0  0  0  0
  -18.9462  -30.1457   23.8896 C   0  0  0  0  0  0
  -17.6462  -30.6587   24.0563 C   0  0  0  0  0  0
  -25.9050  -34.9453   23.5108 C   0  0  0  0  0  0
  -16.5353  -29.9085   23.6330 C   0  0  0  0  0  0
  -16.7275  -28.6502   23.0352 C   0  0  0  0  0  0
  -26.4498  -31.6588   25.0732 C   0  0  0  0  0  0
  -25.3733  -31.3722   26.1460 C   0  0  0  0  0  0
  -27.0342  -30.3012   24.6189 C   0  0  0  0  0  0
  -27.6058  -32.4321   25.7504 C   0  0  0  0  0  0
  -27.5579  -37.1805   24.8466 C   0  0  0  0  0  0
  -21.4192  -29.3045   22.3675 N   0  0  0  0  0  0
  -26.4292  -37.3778   23.9407 N   0  0  0  0  0  0
  -24.6890  -31.0613   22.0987 N   0  0  0  0  0  0
  -23.4201  -28.8163   23.3012 O   0  0  0  0  0  0
  -28.3219  -26.4414   20.1927 O   0  0  0  0  0  0
  -26.5616  -34.8918   22.4673 O   0  0  0  0  0  0
  -23.5431  -32.1398   23.7361 O   0  0  0  0  0  0
  -28.5834  -19.2032   20.1135 C   0  0  0  0  0  0
  -30.7279  -17.8463   21.0388 C   0  0  0  0  0  0
  -29.6371  -19.9228   20.7383 C   0  0  0  0  0  0
  -29.7099  -17.1255   20.3463 C   0  0  0  0  0  0
  -29.8267  -15.7452   18.3712 C   0  0  0  0  0  0
  -28.7444  -22.3569   20.3267 C   0  0  0  0  0  0
  -28.0378  -24.9825   20.1346 C   0  0  0  0  0  0
  -29.1171  -23.8944   20.5888 C   0  0  1  0  0  0
  -30.6911  -19.2095   21.2277 N   0  0  0  0  0  0
  -28.6193  -17.8467   19.9329 N   0  0  0  0  0  0
  -29.6947  -21.3466   20.8897 N   0  0  0  0  0  0
  -29.8948  -15.7575   19.8470 N   0  0  0  0  0  0
  -29.2818  -23.9864   21.9948 O   0  0  0  0  0  0
  -31.4752  -12.5285   19.1425 H   0  0  0  0  0  0
  -30.4023  -11.4473   19.9929 H   0  0  0  0  0  0
  -29.7490  -11.5212   17.6064 H   0  0  0  0  0  0
  -29.6576  -13.2410   17.5934 H   0  0  0  0  0  0
  -27.8416  -11.2505   18.9337 H   0  0  0  0  0  0
  -27.3720  -12.4835   17.7994 H   0  0  0  0  0  0
  -27.6165  -14.2281   19.4471 H   0  0  0  0  0  0
  -28.7257  -12.1989   21.4465 H   0  0  0  0  0  0
  -28.4574  -13.9054   21.7415 H   0  0  0  0  0  0
  -25.2750   -9.5685   22.4773 H   0  0  0  0  0  0
  -24.0001   -7.4626   22.7470 H   0  0  0  0  0  0
  -21.0841   -8.8770   19.8947 H   0  0  0  0  0  0
  -22.3687  -10.9679   19.6180 H   0  0  0  0  0  0
  -21.2004   -7.6146   23.9714 H   0  0  0  0  0  0
  -21.1482   -6.0523   25.9077 H   0  0  0  0  0  0
  -22.0598   -2.7607   23.2850 H   0  0  0  0  0  0
  -22.4081  -11.9903   22.4819 H   0  0  0  0  0  0
  -21.1075  -13.1252   22.2607 H   0  0  0  0  0  0
  -24.6668  -15.8495   20.5368 H   0  0  0  0  0  0
  -26.2918  -15.6326   20.1256 H   0  0  0  0  0  0
  -26.7186  -32.5448   23.1113 H   0  0  0  0  0  0
  -25.0082  -33.9728   25.0435 H   0  0  0  0  0  0
  -22.7146  -31.3061   21.4049 H   0  0  0  0  0  0
  -23.3750  -35.9629   23.3306 H   0  0  0  0  0  0
  -24.3580  -36.8909   22.2052 H   0  0  0  0  0  0
  -23.7244  -37.6500   23.6656 H   0  0  0  0  0  0
  -26.0959  -31.5547   20.6089 H   0  0  0  0  0  0
  -26.8430  -30.8371   22.0056 H   0  0  0  0  0  0
  -28.1122  -28.9723   21.2014 H   0  0  0  0  0  0
  -25.9587  -25.9441   18.9837 H   0  0  0  0  0  0
  -23.9693  -27.3228   18.9991 H   0  0  0  0  0  0
  -23.7549  -30.6022   19.4058 H   0  0  0  0  0  0
  -22.7549  -29.2544   19.8564 H   0  0  0  0  0  0
  -25.1293  -36.1940   25.0823 H   0  0  0  0  0  0
  -20.9982  -28.3266   24.1400 H   0  0  0  0  0  0
  -20.5682  -26.2301   23.3608 H   0  0  0  0  0  0
  -21.6645  -26.7445   22.1199 H   0  0  0  0  0  0
  -19.6914  -25.6296   21.1242 H   0  0  0  0  0  0
  -19.6688  -27.3195   20.6742 H   0  0  0  0  0  0
  -17.4201  -26.6676   21.4028 H   0  0  0  0  0  0
  -18.0333  -26.0070   22.9022 H   0  0  0  0  0  0
  -19.7938  -30.7275   24.2264 H   0  0  0  0  0  0
  -17.5015  -31.6267   24.5165 H   0  0  0  0  0  0
  -15.5353  -30.2986   23.7655 H   0  0  0  0  0  0
  -15.8675  -28.0821   22.7067 H   0  0  0  0  0  0
  -24.5913  -30.7063   25.7790 H   0  0  0  0  0  0
  -24.8918  -32.2884   26.4886 H   0  0  0  0  0  0
  -25.8061  -30.8902   27.0235 H   0  0  0  0  0  0
  -26.2919  -29.6762   24.1211 H   0  0  0  0  0  0
  -27.4038  -29.7267   25.4693 H   0  0  0  0  0  0
  -27.8788  -30.4298   23.9416 H   0  0  0  0  0  0
  -27.2672  -33.3621   26.2081 H   0  0  0  0  0  0
  -28.3870  -32.6880   25.0333 H   0  0  0  0  0  0
  -28.0726  -31.8446   26.5420 H   0  0  0  0  0  0
  -28.2600  -38.0098   24.7507 H   0  0  0  0  0  0
  -28.1071  -36.2629   24.6299 H   0  0  0  0  0  0
  -27.2296  -37.1463   25.8869 H   0  0  0  0  0  0
  -20.9370  -29.8771   21.6889 H   0  0  0  0  0  0
  -26.0175  -38.2855   24.1404 H   0  0  0  0  0  0
  -27.7150  -19.7154   19.7260 H   0  0  0  0  0  0
  -31.6322  -17.3510   21.3604 H   0  0  0  0  0  0
  -30.6255  -15.1605   17.9110 H   0  0  0  0  0  0
  -28.8679  -15.3656   18.0233 H   0  0  0  0  0  0
  -29.9405  -16.7428   17.9440 H   0  0  0  0  0  0
  -28.6671  -22.1957   19.2500 H   0  0  0  0  0  0
  -27.7507  -22.1520   20.7290 H   0  0  0  0  0  0
  -27.1219  -24.7787   20.6925 H   0  0  0  0  0  0
  -27.8111  -24.7577   19.0917 H   0  0  0  0  0  0
  -30.0672  -24.1211   20.1027 H   0  0  0  0  0  0
  -30.4752  -21.7311   21.4135 H   0  0  0  0  0  0
  -28.4849  -23.6548   22.3961 H   0  0  0  0  0  0
  1 25  1  0  0  0
  1 30  2  0  0  0
  1 82  1  0  0  0
  2  3  1  0  0  0
  2 25  1  0  0  0
  2 84  1  0  0  0
  2 85  1  0  0  0
  3  4  1  0  0  0
  3 86  1  0  0  0
  3 87  1  0  0  0
  4  5  1  0  0  0
  4 88  1  0  0  0
  4 89  1  0  0  0
  5  6  1  0  0  0
  5 26  1  0  0  0
  5 90  1  0  0  0
  6 25  1  0  0  0
  6 91  1  0  0  0
  6 92  1  0  0  0
  7  8  2  0  0  0
  7 26  1  0  0  0
  7 29  1  0  0  0
  8  9  1  0  0  0
  8 22  1  0  0  0
  9 10  1  0  0  0
  9 27  2  0  0  0
 10 11  2  0  0  0
 10 15  1  0  0  0
 11 12  1  0  0  0
 11 93  1  0  0  0
 12 13  2  0  0  0
 12 94  1  0  0  0
 13 14  1  0  0  0
 13 31  1  0  0  0
 14 15  2  0  0  0
 14 95  1  0  0  0
 15 96  1  0  0  0
 16 17  2  0  0  0
 16 21  1  0  0  0
 16 31  1  0  0  0
 17 18  1  0  0  0
 17 97  1  0  0  0
 18 19  2  0  0  0
 18 98  1  0  0  0
 19 20  1  0  0  0
 19 24  1  0  0  0
 20 21  2  0  0  0
 20 99  1  0  0  0
 21 23  1  0  0  0
 22 28  1  0  0  0
 22 32  2  0  0  0
 26 27  1  0  0  0
 28100  1  0  0  0
 28101  1  0  0  0
 29102  1  0  0  0
 29103  1  0  0  0
 33 34  1  0  0  0
 33 66  1  0  0  0
 33 70  2  0  0  0
 34 36  1  0  0  0
 34 59  1  0  0  0
 34104  1  0  0  0
 35 44  2  0  0  0
 35 45  1  0  0  0
 35 68  1  0  0  0
 36 56  1  0  0  0
 36105  1  0  0  0
 37 39  1  0  0  0
 37 47  1  0  0  0
 37 66  1  0  0  0
 37106  1  0  0  0
 38 43  2  0  0  0
 38 46  1  0  0  0
 38 47  1  0  0  0
 39 64  1  0  0  0
 39 67  2  0  0  0
 40 52  1  0  0  0
 40 53  2  0  0  0
 40 58  1  0  0  0
 41107  1  0  0  0
 41108  1  0  0  0
 41109  1  0  0  0
 41 48  1  0  0  0
 42 43  1  0  0  0
 42 66  1  0  0  0
 42110  1  0  0  0
 42111  1  0  0  0
 43 44  1  0  0  0
 44112  1  0  0  0
 45 46  2  0  0  0
 45113  1  0  0  0
 46114  1  0  0  0
 47115  1  0  0  0
 47116  1  0  0  0
 48 56  1  0  0  0
 48 65  1  0  0  0
 48117  1  0  0  0
 49 50  1  0  0  0
 49 53  1  0  0  0
 49 64  1  0  0  0
 49118  1  0  0  0
 50 51  1  0  0  0
 50119  1  0  0  0
 50120  1  0  0  0
 51 52  1  0  0  0
 51121  1  0  0  0
 51122  1  0  0  0
 52123  1  0  0  0
 52124  1  0  0  0
 53 54  1  0  0  0
 54 55  2  0  0  0
 54125  1  0  0  0
 55 57  1  0  0  0
 55126  1  0  0  0
 56 69  2  0  0  0
 57 58  2  0  0  0
 57127  1  0  0  0
 58128  1  0  0  0
 59 60  1  0  0  0
 59 61  1  0  0  0
 59 62  1  0  0  0
 60129  1  0  0  0
 60130  1  0  0  0
 60131  1  0  0  0
 61132  1  0  0  0
 61133  1  0  0  0
 61134  1  0  0  0
 62135  1  0  0  0
 62136  1  0  0  0
 62137  1  0  0  0
 63 65  1  0  0  0
 63138  1  0  0  0
 63139  1  0  0  0
 63140  1  0  0  0
 64141  1  0  0  0
 65142  1  0  0  0
 68 77  1  0  0  0
 71 73  2  0  0  0
 71 80  1  0  0  0
 71143  1  0  0  0
 72 74  1  0  0  0
 72 79  2  0  0  0
 72144  1  0  0  0
 73 79  1  0  0  0
 73 81  1  0  0  0
 74 80  2  0  0  0
 74 82  1  0  0  0
 75 82  1  0  0  0
 75145  1  0  0  0
 75146  1  0  0  0
 75147  1  0  0  0
 76 78  1  0  0  0
 76 81  1  0  0  0
 76148  1  0  0  0
 76149  1  0  0  0
 77 78  1  0  0  0
 77150  1  0  0  0
 77151  1  0  0  0
 78 83  1  0  0  0
 78152  1  0  0  0
 81153  1  0  0  0
 83154  1  0  0  0
M  ISO  4   1 100  68 101  77 101  82 100
M  END
> <chiral flag>
0

> <version>
0

> <s_m_source_file>
/data/baiqing/PycharmProjects/Reinvent-master-3.2/result/LINK_invent/BTK/process_docking_weight1_custom_product_contain_oxygen_bond_distance_aromatic_linkinvent_7_9_3/rearranged_h_0195.sdf

> <i_m_source_file_index>
31

> <r_mmod_Potential_Energy-OPLS-2005>
280.631378173828

> <r_mmod_Stretch_Energy-OPLS-2005>
88.1039047241211

> <r_mmod_Bend_Energy-OPLS-2005>
162.163726806641

> <r_mmod_Torsional_Energy-OPLS-2005>
330.938415527344

> <r_mmod_Improper_Torsional_Energy-OPLS-2005>
27.3343124389648

> <r_mmod_Van_der_Waal_Energy-OPLS-2005>
154.438186645508

> <r_mmod_Electrostatic_Energy-OPLS-2005>
-329.054504394531

> <r_mmod_Solvation_Energy-OPLS-2005>
-231.926223754883

> <b_mmod_Minimization_Converged-OPLS-2005>
0

> <r_mmod_RMS_Derivative-OPLS-2005>
0.215291678905487

$$$$
31
                    3D
 Structure written by MMmdl.
153161  0  0  1  0            999 V2000
  -30.6718  -14.4760   20.4789 C   0  0  0  0  0  0
  -30.4232  -12.2770   19.4148 C   0  0  0  0  0  0
  -29.4902  -12.4703   18.2007 C   0  0  0  0  0  0
  -28.0117  -12.3406   18.6230 C   0  0  0  0  0  0
  -27.6571  -13.1969   19.8695 C   0  0  2  0  0  0
  -28.7110  -13.0022   20.9864 C   0  0  0  0  0  0
  -25.2595  -13.8113   20.5664 C   0  0  0  0  0  0
  -24.1839  -13.0403   20.9168 C   0  0  0  0  0  0
  -24.6371  -11.6876   20.8714 C   0  0  0  0  0  0
  -23.9048  -10.4265   21.0373 C   0  0  0  0  0  0
  -24.3604   -9.4198   21.9174 C   0  0  0  0  0  0
  -23.6269   -8.2236   22.0756 C   0  0  0  0  0  0
  -22.4248   -8.0268   21.3544 C   0  0  0  0  0  0
  -21.9890   -9.0237   20.4647 C   0  0  0  0  0  0
  -22.7218  -10.2114   20.3039 C   0  0  0  0  0  0
  -21.6844   -6.0708   22.5283 C   0  0  0  0  0  0
  -21.4028   -6.5626   23.8211 C   0  0  0  0  0  0
  -21.3657   -5.6773   24.9166 C   0  0  0  0  0  0
  -21.6018   -4.3030   24.7216 C   0  0  0  0  0  0
  -21.8836   -3.8133   23.4344 C   0  0  0  0  0  0
  -21.9202   -4.6941   22.3402 C   0  0  0  0  0  0
  -22.7879  -13.5225   21.1834 C   0  0  0  0  0  0
  -22.1660   -4.2127   21.0967 F   0  0  0  0  0  0
  -21.5620   -3.4519   25.7730 F   0  0  0  0  0  0
  -30.0352  -13.2810   20.4145 N   0  0  0  0  0  0
  -26.3009  -12.9262   20.3373 N   0  0  0  0  0  0
  -25.9310  -11.6441   20.5820 N   0  0  0  0  0  0
  -22.0502  -12.8223   22.0401 N   0  0  0  0  0  0
  -25.4262  -15.1854   20.4007 N   0  0  0  0  0  0
  -31.8643  -14.6284   20.2179 O   0  0  0  0  0  0
  -21.6615   -6.8862   21.4243 O   0  0  0  0  0  0
  -22.3581  -14.5535   20.6674 O   0  0  0  0  0  0
  -24.6172  -31.8701   23.2081 C   0  0  0  0  0  0
  -25.9063  -32.4809   23.8389 C   0  0  1  0  0  0
  -27.2401  -27.4214   20.0998 C   0  0  0  0  0  0
  -25.5914  -33.8607   24.2308 N   0  0  0  0  0  0
  -23.4048  -30.4947   21.5443 C   0  0  2  0  0  0
  -24.8520  -28.9589   20.1108 C   0  0  0  0  0  0
  -22.7368  -29.4703   22.4949 C   0  0  0  0  0  0
  -18.0221  -28.1411   22.8533 C   0  0  0  0  0  0
  -24.1502  -36.7304   23.2636 C   0  0  0  0  0  0
  -25.9356  -30.8364   21.3603 C   0  0  0  0  0  0
  -26.0137  -29.4709   20.7021 C   0  0  0  0  0  0
  -27.2088  -28.7145   20.6819 C   0  0  0  0  0  0
  -26.0506  -26.9214   19.5174 C   0  0  0  0  0  0
  -24.8666  -27.6847   19.5180 C   0  0  0  0  0  0
  -23.6131  -29.8239   20.1583 C   0  0  0  0  0  0
  -25.4126  -36.3092   24.0322 C   0  0  1  0  0  0
  -20.5806  -28.3711   23.1316 C   0  0  2  0  0  0
  -20.6705  -26.9443   22.5413 C   0  0  0  0  0  0
  -19.5652  -26.6408   21.5264 C   0  0  0  0  0  0
  -18.1837  -26.7928   22.1737 C   0  0  0  0  0  0
  -19.1473  -28.8863   23.2932 C   0  0  0  0  0  0
  -18.9417  -30.1453   23.8942 C   0  0  0  0  0  0
  -17.6431  -30.6601   24.0551 C   0  0  0  0  0  0
  -25.9046  -34.9455   23.5107 C   0  0  0  0  0  0
  -16.5301  -29.9105   23.6339 C   0  0  0  0  0  0
  -16.7215  -28.6525   23.0390 C   0  0  0  0  0  0
  -26.4476  -31.6601   25.0735 C   0  0  0  0  0  0
  -25.3717  -31.3731   26.1458 C   0  0  0  0  0  0
  -27.0334  -30.3056   24.6128 C   0  0  0  0  0  0
  -27.6041  -32.4322   25.7510 C   0  0  0  0  0  0
  -27.5577  -37.1817   24.8464 C   0  0  0  0  0  0
  -21.4087  -29.3103   22.3720 N   0  0  0  0  0  0
  -26.4310  -37.3773   23.9384 N   0  0  0  0  0  0
  -24.6711  -31.0799   22.0961 N   0  0  0  0  0  0
  -23.4157  -28.8213   23.2950 O   0  0  0  0  0  0
  -28.4287  -26.7075   20.1332 O   0  0  0  0  0  0
  -26.5619  -34.8925   22.4668 O   0  0  0  0  0  0
  -23.5363  -32.1497   23.7451 O   0  0  0  0  0  0
  -28.7601  -19.5376   19.4291 C   0  0  0  0  0  0
  -29.1719  -21.3773   21.3671 C   0  0  0  0  0  0
  -29.5244  -19.2230   20.5772 C   0  0  0  0  0  0
  -28.4461  -21.7056   20.1863 C   0  0  0  0  0  0
  -30.2826  -17.8934   20.6503 C   0  0  0  0  0  0
  -29.4599  -16.6285   21.0208 C   0  0  0  0  0  0
  -28.0764  -24.2349   20.5589 C   0  0  0  0  0  0
  -28.5147  -25.3761   19.5917 C   0  0  0  0  0  0
  -29.7104  -20.1377   21.5644 N   0  0  0  0  0  0
  -28.2285  -20.7692   19.2343 N   0  0  0  0  0  0
  -27.8860  -22.9557   19.8571 N   0  0  0  0  0  0
  -29.8529  -15.4945   20.1740 N   0  0  0  0  0  0
  -31.4670  -12.3714   19.1130 H   0  0  0  0  0  0
  -30.3140  -11.2704   19.8214 H   0  0  0  0  0  0
  -29.7200  -11.7350   17.4283 H   0  0  0  0  0  0
  -29.6641  -13.4487   17.7530 H   0  0  0  0  0  0
  -27.8248  -11.2887   18.8368 H   0  0  0  0  0  0
  -27.3567  -12.6001   17.7901 H   0  0  0  0  0  0
  -27.6832  -14.2350   19.5497 H   0  0  0  0  0  0
  -28.6837  -11.9795   21.3651 H   0  0  0  0  0  0
  -28.5076  -13.6527   21.8400 H   0  0  0  0  0  0
  -25.2747   -9.5650   22.4741 H   0  0  0  0  0  0
  -23.9971   -7.4627   22.7482 H   0  0  0  0  0  0
  -21.0816   -8.8740   19.8954 H   0  0  0  0  0  0
  -22.3679  -10.9638   19.6140 H   0  0  0  0  0  0
  -21.2037   -7.6135   23.9724 H   0  0  0  0  0  0
  -21.1452   -6.0480   25.9063 H   0  0  0  0  0  0
  -22.0624   -2.7600   23.2832 H   0  0  0  0  0  0
  -22.4102  -11.9909   22.4829 H   0  0  0  0  0  0
  -21.1127  -13.1294   22.2583 H   0  0  0  0  0  0
  -24.6466  -15.8302   20.4654 H   0  0  0  0  0  0
  -26.2760  -15.6209   20.0683 H   0  0  0  0  0  0
  -26.7115  -32.5544   23.1144 H   0  0  0  0  0  0
  -25.0077  -33.9777   25.0467 H   0  0  0  0  0  0
  -22.6958  -31.3137   21.4035 H   0  0  0  0  0  0
  -23.3747  -35.9652   23.3330 H   0  0  0  0  0  0
  -24.3576  -36.8907   22.2039 H   0  0  0  0  0  0
  -23.7278  -37.6523   23.6656 H   0  0  0  0  0  0
  -26.0581  -31.6125   20.6027 H   0  0  0  0  0  0
  -26.8211  -30.8862   21.9810 H   0  0  0  0  0  0
  -28.1064  -29.1243   21.1223 H   0  0  0  0  0  0
  -26.0044  -25.9413   19.0662 H   0  0  0  0  0  0
  -23.9718  -27.2779   19.0670 H   0  0  0  0  0  0
  -23.7153  -30.5937   19.3908 H   0  0  0  0  0  0
  -22.7395  -29.2398   19.8617 H   0  0  0  0  0  0
  -25.1305  -36.1964   25.0813 H   0  0  0  0  0  0
  -20.9861  -28.3221   24.1458 H   0  0  0  0  0  0
  -20.5688  -26.2291   23.3575 H   0  0  0  0  0  0
  -21.6498  -26.7392   22.1079 H   0  0  0  0  0  0
  -19.6890  -25.6318   21.1338 H   0  0  0  0  0  0
  -19.6592  -27.3204   20.6792 H   0  0  0  0  0  0
  -17.4030  -26.6630   21.4240 H   0  0  0  0  0  0
  -18.0392  -26.0127   22.9199 H   0  0  0  0  0  0
  -19.7900  -30.7226   24.2383 H   0  0  0  0  0  0
  -17.4965  -31.6287   24.5150 H   0  0  0  0  0  0
  -15.5327  -30.3000   23.7670 H   0  0  0  0  0  0
  -15.8611  -28.0823   22.7137 H   0  0  0  0  0  0
  -24.5867  -30.7114   25.7774 H   0  0  0  0  0  0
  -24.8931  -32.2908   26.4881 H   0  0  0  0  0  0
  -25.8040  -30.8896   27.0225 H   0  0  0  0  0  0
  -26.2911  -29.6802   24.1166 H   0  0  0  0  0  0
  -27.4086  -29.7291   25.4589 H   0  0  0  0  0  0
  -27.8726  -30.4378   23.9301 H   0  0  0  0  0  0
  -27.2644  -33.3607   26.2100 H   0  0  0  0  0  0
  -28.3856  -32.6891   25.0350 H   0  0  0  0  0  0
  -28.0706  -31.8446   26.5423 H   0  0  0  0  0  0
  -28.2614  -38.0092   24.7462 H   0  0  0  0  0  0
  -28.1058  -36.2623   24.6366 H   0  0  0  0  0  0
  -27.2276  -37.1521   25.8862 H   0  0  0  0  0  0
  -20.9287  -29.8766   21.6822 H   0  0  0  0  0  0
  -26.0202  -38.2851   24.1365 H   0  0  0  0  0  0
  -28.6135  -18.8120   18.6426 H   0  0  0  0  0  0
  -29.3333  -22.0941   22.1576 H   0  0  0  0  0  0
  -31.1167  -17.9908   21.3442 H   0  0  0  0  0  0
  -30.7401  -17.7671   19.6663 H   0  0  0  0  0  0
  -28.3979  -16.8043   20.8350 H   0  0  0  0  0  0
  -29.5505  -16.3923   22.0832 H   0  0  0  0  0  0
  -27.1234  -24.5066   21.0167 H   0  0  0  0  0  0
  -28.7963  -24.1448   21.3712 H   0  0  0  0  0  0
  -27.9989  -25.3140   18.6334 H   0  0  0  0  0  0
  -29.5649  -25.2176   19.3430 H   0  0  0  0  0  0
  -27.3388  -22.9791   19.0033 H   0  0  0  0  0  0
  -30.0841  -15.8165   19.2447 H   0  0  0  0  0  0
  1 25  1  0  0  0
  1 30  2  0  0  0
  1 82  1  0  0  0
  2  3  1  0  0  0
  2 25  1  0  0  0
  2 83  1  0  0  0
  2 84  1  0  0  0
  3  4  1  0  0  0
  3 85  1  0  0  0
  3 86  1  0  0  0
  4  5  1  0  0  0
  4 87  1  0  0  0
  4 88  1  0  0  0
  5  6  1  0  0  0
  5 26  1  0  0  0
  5 89  1  0  0  0
  6 25  1  0  0  0
  6 90  1  0  0  0
  6 91  1  0  0  0
  7  8  2  0  0  0
  7 26  1  0  0  0
  7 29  1  0  0  0
  8  9  1  0  0  0
  8 22  1  0  0  0
  9 10  1  0  0  0
  9 27  2  0  0  0
 10 11  2  0  0  0
 10 15  1  0  0  0
 11 12  1  0  0  0
 11 92  1  0  0  0
 12 13  2  0  0  0
 12 93  1  0  0  0
 13 14  1  0  0  0
 13 31  1  0  0  0
 14 15  2  0  0  0
 14 94  1  0  0  0
 15 95  1  0  0  0
 16 17  2  0  0  0
 16 21  1  0  0  0
 16 31  1  0  0  0
 17 18  1  0  0  0
 17 96  1  0  0  0
 18 19  2  0  0  0
 18 97  1  0  0  0
 19 20  1  0  0  0
 19 24  1  0  0  0
 20 21  2  0  0  0
 20 98  1  0  0  0
 21 23  1  0  0  0
 22 28  1  0  0  0
 22 32  2  0  0  0
 26 27  1  0  0  0
 28 99  1  0  0  0
 28100  1  0  0  0
 29101  1  0  0  0
 29102  1  0  0  0
 33 34  1  0  0  0
 33 66  1  0  0  0
 33 70  2  0  0  0
 34 36  1  0  0  0
 34 59  1  0  0  0
 34103  1  0  0  0
 35 44  2  0  0  0
 35 45  1  0  0  0
 35 68  1  0  0  0
 36 56  1  0  0  0
 36104  1  0  0  0
 37 39  1  0  0  0
 37 47  1  0  0  0
 37 66  1  0  0  0
 37105  1  0  0  0
 38 43  2  0  0  0
 38 46  1  0  0  0
 38 47  1  0  0  0
 39 64  1  0  0  0
 39 67  2  0  0  0
 40 52  1  0  0  0
 40 53  2  0  0  0
 40 58  1  0  0  0
 41106  1  0  0  0
 41107  1  0  0  0
 41108  1  0  0  0
 41 48  1  0  0  0
 42 43  1  0  0  0
 42 66  1  0  0  0
 42109  1  0  0  0
 42110  1  0  0  0
 43 44  1  0  0  0
 44111  1  0  0  0
 45 46  2  0  0  0
 45112  1  0  0  0
 46113  1  0  0  0
 47114  1  0  0  0
 47115  1  0  0  0
 48 56  1  0  0  0
 48 65  1  0  0  0
 48116  1  0  0  0
 49 50  1  0  0  0
 49 53  1  0  0  0
 49 64  1  0  0  0
 49117  1  0  0  0
 50 51  1  0  0  0
 50118  1  0  0  0
 50119  1  0  0  0
 51 52  1  0  0  0
 51120  1  0  0  0
 51121  1  0  0  0
 52122  1  0  0  0
 52123  1  0  0  0
 53 54  1  0  0  0
 54 55  2  0  0  0
 54124  1  0  0  0
 55 57  1  0  0  0
 55125  1  0  0  0
 56 69  2  0  0  0
 57 58  2  0  0  0
 57126  1  0  0  0
 58127  1  0  0  0
 59 60  1  0  0  0
 59 61  1  0  0  0
 59 62  1  0  0  0
 60128  1  0  0  0
 60129  1  0  0  0
 60130  1  0  0  0
 61131  1  0  0  0
 61132  1  0  0  0
 61133  1  0  0  0
 62134  1  0  0  0
 62135  1  0  0  0
 62136  1  0  0  0
 63 65  1  0  0  0
 63137  1  0  0  0
 63138  1  0  0  0
 63139  1  0  0  0
 64140  1  0  0  0
 65141  1  0  0  0
 68 78  1  0  0  0
 71 73  2  0  0  0
 71 80  1  0  0  0
 71142  1  0  0  0
 72 74  1  0  0  0
 72 79  2  0  0  0
 72143  1  0  0  0
 73 75  1  0  0  0
 73 79  1  0  0  0
 74 80  2  0  0  0
 74 81  1  0  0  0
 75 76  1  0  0  0
 75144  1  0  0  0
 75145  1  0  0  0
 76 82  1  0  0  0
 76146  1  0  0  0
 76147  1  0  0  0
 77 78  1  0  0  0
 77 81  1  0  0  0
 77148  1  0  0  0
 77149  1  0  0  0
 78150  1  0  0  0
 78151  1  0  0  0
 81152  1  0  0  0
 82153  1  0  0  0
M  ISO  4   1 100  68 101  78 101  82 100
M  END
> <chiral flag>
0

> <version>
0

> <s_m_source_file>
/data/baiqing/PycharmProjects/Reinvent-master-3.2/result/LINK_invent/BTK/process_docking_weight1_custom_product_contain_oxygen_bond_distance_aromatic_linkinvent_7_9_3/rearranged_h_0195.sdf

> <i_m_source_file_index>
32

> <r_mmod_Potential_Energy-OPLS-2005>
80.5250778198242

> <r_mmod_Stretch_Energy-OPLS-2005>
40.6260108947754

> <r_mmod_Bend_Energy-OPLS-2005>
140.065673828125

> <r_mmod_Torsional_Energy-OPLS-2005>
269.012023925781

> <r_mmod_Improper_Torsional_Energy-OPLS-2005>
28.200662612915

> <r_mmod_Van_der_Waal_Energy-OPLS-2005>
149.160354614258

> <r_mmod_Electrostatic_Energy-OPLS-2005>
-335.999847412109

> <r_mmod_Solvation_Energy-OPLS-2005>
-230.735076904297

> <b_mmod_Minimization_Converged-OPLS-2005>
0

> <r_mmod_RMS_Derivative-OPLS-2005>
5.23615980148315

$$$$
32
                    3D
 Structure written by MMmdl.
151159  0  0  1  0            999 V2000
  -30.6491  -14.6840   20.4614 C   0  0  0  0  0  0
  -30.4216  -12.4137   19.4751 C   0  0  0  0  0  0
  -29.5047  -12.4895   18.2358 C   0  0  0  0  0  0
  -28.0287  -12.3316   18.6482 C   0  0  0  0  0  0
  -27.6430  -13.2297   19.8538 C   0  0  2  0  0  0
  -28.6864  -13.1536   20.9904 C   0  0  0  0  0  0
  -25.2511  -13.8200   20.5686 C   0  0  0  0  0  0
  -24.1800  -13.0445   20.9199 C   0  0  0  0  0  0
  -24.6392  -11.6918   20.8754 C   0  0  0  0  0  0
  -23.9063  -10.4299   21.0406 C   0  0  0  0  0  0
  -24.3614   -9.4210   21.9184 C   0  0  0  0  0  0
  -23.6289   -8.2244   22.0755 C   0  0  0  0  0  0
  -22.4274   -8.0284   21.3540 C   0  0  0  0  0  0
  -21.9905   -9.0255   20.4640 C   0  0  0  0  0  0
  -22.7232  -10.2137   20.3050 C   0  0  0  0  0  0
  -21.6853   -6.0729   22.5272 C   0  0  0  0  0  0
  -21.4013   -6.5632   23.8205 C   0  0  0  0  0  0
  -21.3660   -5.6787   24.9169 C   0  0  0  0  0  0
  -21.6042   -4.3049   24.7221 C   0  0  0  0  0  0
  -21.8820   -3.8139   23.4343 C   0  0  0  0  0  0
  -21.9194   -4.6956   22.3396 C   0  0  0  0  0  0
  -22.7821  -13.5222   21.1853 C   0  0  0  0  0  0
  -22.1663   -4.2139   21.0974 F   0  0  0  0  0  0
  -21.5632   -3.4533   25.7734 F   0  0  0  0  0  0
  -29.9930  -13.4791   20.4089 N   0  0  0  0  0  0
  -26.2941  -12.9401   20.3296 N   0  0  0  0  0  0
  -25.9325  -11.6550   20.5780 N   0  0  0  0  0  0
  -22.0475  -12.8208   22.0417 N   0  0  0  0  0  0
  -25.4198  -15.1923   20.4077 N   0  0  0  0  0  0
  -31.8359  -14.7534   20.1323 O   0  0  0  0  0  0
  -21.6642   -6.8874   21.4234 O   0  0  0  0  0  0
  -22.3501  -14.5526   20.6706 O   0  0  0  0  0  0
  -24.6283  -31.8565   23.1986 C   0  0  0  0  0  0
  -25.9119  -32.4757   23.8317 C   0  0  1  0  0  0
  -27.2222  -27.2852   20.1266 C   0  0  0  0  0  0
  -25.5916  -33.8558   24.2243 N   0  0  0  0  0  0
  -23.4229  -30.4800   21.5405 C   0  0  2  0  0  0
  -24.8677  -28.9265   20.1078 C   0  0  0  0  0  0
  -22.7488  -29.4598   22.4897 C   0  0  0  0  0  0
  -18.0287  -28.1386   22.8456 C   0  0  0  0  0  0
  -24.1494  -36.7286   23.2639 C   0  0  0  0  0  0
  -25.9643  -30.7784   21.3716 C   0  0  0  0  0  0
  -26.0353  -29.4019   20.7158 C   0  0  0  0  0  0
  -27.2109  -28.5924   20.7143 C   0  0  0  0  0  0
  -26.0245  -26.8612   19.5077 C   0  0  0  0  0  0
  -24.8666  -27.6633   19.4959 C   0  0  0  0  0  0
  -23.6385  -29.8130   20.1551 C   0  0  0  0  0  0
  -25.4116  -36.3065   24.0321 C   0  0  1  0  0  0
  -20.5891  -28.3677   23.1264 C   0  0  2  0  0  0
  -20.6775  -26.9394   22.5414 C   0  0  0  0  0  0
  -19.5758  -26.6374   21.5203 C   0  0  0  0  0  0
  -18.1934  -26.7926   22.1607 C   0  0  0  0  0  0
  -19.1543  -28.8847   23.2853 C   0  0  0  0  0  0
  -18.9472  -30.1452   23.8865 C   0  0  0  0  0  0
  -17.6475  -30.6574   24.0565 C   0  0  0  0  0  0
  -25.9056  -34.9437   23.5089 C   0  0  0  0  0  0
  -16.5357  -29.9085   23.6338 C   0  0  0  0  0  0
  -16.7280  -28.6519   23.0328 C   0  0  0  0  0  0
  -26.4490  -31.6581   25.0706 C   0  0  0  0  0  0
  -25.3724  -31.3736   26.1439 C   0  0  0  0  0  0
  -27.0341  -30.3001   24.6173 C   0  0  0  0  0  0
  -27.6041  -32.4324   25.7482 C   0  0  0  0  0  0
  -27.5580  -37.1787   24.8458 C   0  0  0  0  0  0
  -21.4198  -29.3034   22.3652 N   0  0  0  0  0  0
  -26.4283  -37.3770   23.9421 N   0  0  0  0  0  0
  -24.6908  -31.0573   22.0931 N   0  0  0  0  0  0
  -23.4200  -28.8123   23.2977 O   0  0  0  0  0  0
  -28.3595  -26.4578   20.2003 O   0  0  0  0  0  0
  -26.5647  -34.8916   22.4668 O   0  0  0  0  0  0
  -23.5452  -32.1369   23.7306 O   0  0  0  0  0  0
  -29.1856  -19.1288   21.6516 C   0  0  0  0  0  0
  -29.7307  -18.5838   20.5018 C   0  0  0  0  0  0
  -29.0685  -21.0900   20.3954 C   0  0  0  0  0  0
  -27.0676  -23.6295   21.3359 C   0  0  0  0  0  0
  -30.4533  -17.2162   20.2374 C   0  0  0  0  0  0
  -28.4284  -25.0608   19.6794 C   0  0  0  0  0  0
  -28.4358  -23.7802   20.6589 C   0  0  2  0  0  0
  -28.8302  -20.5106   21.5823 N   0  0  0  0  0  0
  -28.8534  -22.4684   20.0386 N   0  0  0  0  0  0
  -29.9248  -15.8484   20.6327 N   0  0  0  0  0  0
  -29.7384  -19.8703   19.2668 S   0  0  0  0  0  0
  -31.4653  -12.5140   19.1737 H   0  0  0  0  0  0
  -30.3464  -11.4370   19.9540 H   0  0  0  0  0  0
  -29.7769  -11.7153   17.5171 H   0  0  0  0  0  0
  -29.6451  -13.4445   17.7265 H   0  0  0  0  0  0
  -27.8738  -11.2832   18.9081 H   0  0  0  0  0  0
  -27.3735  -12.5324   17.7998 H   0  0  0  0  0  0
  -27.6423  -14.2532   19.4778 H   0  0  0  0  0  0
  -28.7056  -12.1568   21.4344 H   0  0  0  0  0  0
  -28.4333  -13.8442   21.7960 H   0  0  0  0  0  0
  -25.2761   -9.5685   22.4763 H   0  0  0  0  0  0
  -23.9990   -7.4634   22.7483 H   0  0  0  0  0  0
  -21.0833   -8.8768   19.8951 H   0  0  0  0  0  0
  -22.3685  -10.9674   19.6160 H   0  0  0  0  0  0
  -21.2008   -7.6140   23.9701 H   0  0  0  0  0  0
  -21.1482   -6.0522   25.9070 H   0  0  0  0  0  0
  -22.0604   -2.7601   23.2844 H   0  0  0  0  0  0
  -22.4087  -11.9863   22.4792 H   0  0  0  0  0  0
  -21.1102  -13.1239   22.2642 H   0  0  0  0  0  0
  -24.6492  -15.8448   20.5050 H   0  0  0  0  0  0
  -26.2614  -15.6271   20.0518 H   0  0  0  0  0  0
  -26.7180  -32.5420   23.1057 H   0  0  0  0  0  0
  -25.0026  -33.9687   25.0361 H   0  0  0  0  0  0
  -22.7174  -31.3012   21.3958 H   0  0  0  0  0  0
  -23.3751  -35.9622   23.3292 H   0  0  0  0  0  0
  -24.3586  -36.8936   22.2060 H   0  0  0  0  0  0
  -23.7246  -37.6478   23.6674 H   0  0  0  0  0  0
  -26.1032  -31.5396   20.6018 H   0  0  0  0  0  0
  -26.8428  -30.8242   22.0028 H   0  0  0  0  0  0
  -28.1078  -28.9511   21.1994 H   0  0  0  0  0  0
  -25.9380  -25.8889   19.0508 H   0  0  0  0  0  0
  -23.9684  -27.2887   19.0252 H   0  0  0  0  0  0
  -23.7616  -30.5904   19.3999 H   0  0  0  0  0  0
  -22.7577  -29.2453   19.8489 H   0  0  0  0  0  0
  -25.1297  -36.1896   25.0811 H   0  0  0  0  0  0
  -20.9975  -28.3264   24.1390 H   0  0  0  0  0  0
  -20.5676  -26.2280   23.3616 H   0  0  0  0  0  0
  -21.6639  -26.7433   22.1205 H   0  0  0  0  0  0
  -19.6926  -25.6292   21.1224 H   0  0  0  0  0  0
  -19.6702  -27.3187   20.6732 H   0  0  0  0  0  0
  -17.4206  -26.6657   21.4011 H   0  0  0  0  0  0
  -18.0337  -26.0081   22.9023 H   0  0  0  0  0  0
  -19.7958  -30.7263   24.2208 H   0  0  0  0  0  0
  -17.5046  -31.6257   24.5162 H   0  0  0  0  0  0
  -15.5361  -30.2977   23.7693 H   0  0  0  0  0  0
  -15.8681  -28.0854   22.7019 H   0  0  0  0  0  0
  -24.5896  -30.7081   25.7784 H   0  0  0  0  0  0
  -24.8912  -32.2909   26.4847 H   0  0  0  0  0  0
  -25.8055  -30.8940   27.0224 H   0  0  0  0  0  0
  -26.2920  -29.6734   24.1211 H   0  0  0  0  0  0
  -27.4053  -29.7275   25.4680 H   0  0  0  0  0  0
  -27.8782  -30.4283   23.9386 H   0  0  0  0  0  0
  -27.2637  -33.3637   26.2010 H   0  0  0  0  0  0
  -28.3861  -32.6859   25.0316 H   0  0  0  0  0  0
  -28.0663  -31.8471   26.5437 H   0  0  0  0  0  0
  -28.2555  -38.0129   24.7557 H   0  0  0  0  0  0
  -28.1114  -36.2657   24.6200 H   0  0  0  0  0  0
  -27.2311  -37.1338   25.8864 H   0  0  0  0  0  0
  -20.9365  -29.8794   21.6897 H   0  0  0  0  0  0
  -26.0161  -38.2831   24.1477 H   0  0  0  0  0  0
  -29.0761  -18.6236   22.6016 H   0  0  0  0  0  0
  -26.7786  -24.5520   21.8409 H   0  0  0  0  0  0
  -27.0745  -22.8391   22.0876 H   0  0  0  0  0  0
  -26.2898  -23.3932   20.6090 H   0  0  0  0  0  0
  -31.4476  -17.3015   20.6797 H   0  0  0  0  0  0
  -30.6454  -17.1540   19.1641 H   0  0  0  0  0  0
  -27.7219  -24.8906   18.8710 H   0  0  0  0  0  0
  -29.3905  -25.0415   19.1670 H   0  0  0  0  0  0
  -29.1709  -23.9851   21.4390 H   0  0  0  0  0  0
  -29.1241  -22.6090   19.0704 H   0  0  0  0  0  0
  -28.9449  -15.7629   20.8564 H   0  0  0  0  0  0
  1 25  1  0  0  0
  1 30  2  0  0  0
  1 80  1  0  0  0
  2  3  1  0  0  0
  2 25  1  0  0  0
  2 82  1  0  0  0
  2 83  1  0  0  0
  3  4  1  0  0  0
  3 84  1  0  0  0
  3 85  1  0  0  0
  4  5  1  0  0  0
  4 86  1  0  0  0
  4 87  1  0  0  0
  5  6  1  0  0  0
  5 26  1  0  0  0
  5 88  1  0  0  0
  6 25  1  0  0  0
  6 89  1  0  0  0
  6 90  1  0  0  0
  7  8  2  0  0  0
  7 26  1  0  0  0
  7 29  1  0  0  0
  8  9  1  0  0  0
  8 22  1  0  0  0
  9 10  1  0  0  0
  9 27  2  0  0  0
 10 11  2  0  0  0
 10 15  1  0  0  0
 11 12  1  0  0  0
 11 91  1  0  0  0
 12 13  2  0  0  0
 12 92  1  0  0  0
 13 14  1  0  0  0
 13 31  1  0  0  0
 14 15  2  0  0  0
 14 93  1  0  0  0
 15 94  1  0  0  0
 16 17  2  0  0  0
 16 21  1  0  0  0
 16 31  1  0  0  0
 17 18  1  0  0  0
 17 95  1  0  0  0
 18 19  2  0  0  0
 18 96  1  0  0  0
 19 20  1  0  0  0
 19 24  1  0  0  0
 20 21  2  0  0  0
 20 97  1  0  0  0
 21 23  1  0  0  0
 22 28  1  0  0  0
 22 32  2  0  0  0
 26 27  1  0  0  0
 28 98  1  0  0  0
 28 99  1  0  0  0
 29100  1  0  0  0
 29101  1  0  0  0
 33 34  1  0  0  0
 33 66  1  0  0  0
 33 70  2  0  0  0
 34 36  1  0  0  0
 34 59  1  0  0  0
 34102  1  0  0  0
 35 44  2  0  0  0
 35 45  1  0  0  0
 35 68  1  0  0  0
 36 56  1  0  0  0
 36103  1  0  0  0
 37 39  1  0  0  0
 37 47  1  0  0  0
 37 66  1  0  0  0
 37104  1  0  0  0
 38 43  2  0  0  0
 38 46  1  0  0  0
 38 47  1  0  0  0
 39 64  1  0  0  0
 39 67  2  0  0  0
 40 52  1  0  0  0
 40 53  2  0  0  0
 40 58  1  0  0  0
 41105  1  0  0  0
 41106  1  0  0  0
 41107  1  0  0  0
 41 48  1  0  0  0
 42 43  1  0  0  0
 42 66  1  0  0  0
 42108  1  0  0  0
 42109  1  0  0  0
 43 44  1  0  0  0
 44110  1  0  0  0
 45 46  2  0  0  0
 45111  1  0  0  0
 46112  1  0  0  0
 47113  1  0  0  0
 47114  1  0  0  0
 48 56  1  0  0  0
 48 65  1  0  0  0
 48115  1  0  0  0
 49 50  1  0  0  0
 49 53  1  0  0  0
 49 64  1  0  0  0
 49116  1  0  0  0
 50 51  1  0  0  0
 50117  1  0  0  0
 50118  1  0  0  0
 51 52  1  0  0  0
 51119  1  0  0  0
 51120  1  0  0  0
 52121  1  0  0  0
 52122  1  0  0  0
 53 54  1  0  0  0
 54 55  2  0  0  0
 54123  1  0  0  0
 55 57  1  0  0  0
 55124  1  0  0  0
 56 69  2  0  0  0
 57 58  2  0  0  0
 57125  1  0  0  0
 58126  1  0  0  0
 59 60  1  0  0  0
 59 61  1  0  0  0
 59 62  1  0  0  0
 60127  1  0  0  0
 60128  1  0  0  0
 60129  1  0  0  0
 61130  1  0  0  0
 61131  1  0  0  0
 61132  1  0  0  0
 62133  1  0  0  0
 62134  1  0  0  0
 62135  1  0  0  0
 63 65  1  0  0  0
 63136  1  0  0  0
 63137  1  0  0  0
 63138  1  0  0  0
 64139  1  0  0  0
 65140  1  0  0  0
 68 76  1  0  0  0
 71 72  2  0  0  0
 71 78  1  0  0  0
 71141  1  0  0  0
 72 75  1  0  0  0
 72 81  1  0  0  0
 73 78  2  0  0  0
 73 79  1  0  0  0
 73 81  1  0  0  0
 74142  1  0  0  0
 74143  1  0  0  0
 74144  1  0  0  0
 74 77  1  0  0  0
 75 80  1  0  0  0
 75145  1  0  0  0
 75146  1  0  0  0
 76 77  1  0  0  0
 76147  1  0  0  0
 76148  1  0  0  0
 77 79  1  0  0  0
 77149  1  0  0  0
 79150  1  0  0  0
 80151  1  0  0  0
M  ISO  4   1 100  68 101  76 101  80 100
M  END
> <chiral flag>
0

> <version>
0

> <s_m_source_file>
/data/baiqing/PycharmProjects/Reinvent-master-3.2/result/LINK_invent/BTK/process_docking_weight1_custom_product_contain_oxygen_bond_distance_aromatic_linkinvent_7_9_3/rearranged_h_0195.sdf

> <i_m_source_file_index>
33

> <r_mmod_Potential_Energy-OPLS-2005>
-23.0757369995117

> <r_mmod_Stretch_Energy-OPLS-2005>
91.9799957275391

> <r_mmod_Bend_Energy-OPLS-2005>
169.003692626953

> <r_mmod_Torsional_Energy-OPLS-2005>
188.731704711914

> <r_mmod_Improper_Torsional_Energy-OPLS-2005>
7.05258846282959

> <r_mmod_Van_der_Waal_Energy-OPLS-2005>
116.595909118652

> <r_mmod_Electrostatic_Energy-OPLS-2005>
-431.478118896484

> <r_mmod_Solvation_Energy-OPLS-2005>
-229.63981628418

> <b_mmod_Minimization_Converged-OPLS-2005>
0

> <r_mmod_RMS_Derivative-OPLS-2005>
1.66998136043549

$$$$
33
                    3D
 Structure written by MMmdl.
155163  0  0  1  0            999 V2000
  -30.5950  -14.7666   20.4538 C   0  0  0  0  0  0
  -30.4301  -12.4674   19.4764 C   0  0  0  0  0  0
  -29.5114  -12.5164   18.2349 C   0  0  0  0  0  0
  -28.0360  -12.3391   18.6443 C   0  0  0  0  0  0
  -27.6394  -13.2350   19.8481 C   0  0  2  0  0  0
  -28.6831  -13.1755   20.9852 C   0  0  0  0  0  0
  -25.2501  -13.8201   20.5688 C   0  0  0  0  0  0
  -24.1811  -13.0433   20.9228 C   0  0  0  0  0  0
  -24.6410  -11.6915   20.8764 C   0  0  0  0  0  0
  -23.9089  -10.4286   21.0428 C   0  0  0  0  0  0
  -24.3631   -9.4192   21.9198 C   0  0  0  0  0  0
  -23.6300   -8.2231   22.0757 C   0  0  0  0  0  0
  -22.4281   -8.0280   21.3552 C   0  0  0  0  0  0
  -21.9924   -9.0260   20.4655 C   0  0  0  0  0  0
  -22.7262  -10.2134   20.3075 C   0  0  0  0  0  0
  -21.6851   -6.0736   22.5286 C   0  0  0  0  0  0
  -21.4009   -6.5640   23.8222 C   0  0  0  0  0  0
  -21.3664   -5.6793   24.9184 C   0  0  0  0  0  0
  -21.6041   -4.3055   24.7237 C   0  0  0  0  0  0
  -21.8817   -3.8148   23.4360 C   0  0  0  0  0  0
  -21.9185   -4.6961   22.3413 C   0  0  0  0  0  0
  -22.7832  -13.5218   21.1881 C   0  0  0  0  0  0
  -22.1649   -4.2152   21.0993 F   0  0  0  0  0  0
  -21.5637   -3.4538   25.7744 F   0  0  0  0  0  0
  -29.9808  -13.5336   20.4034 N   0  0  0  0  0  0
  -26.2930  -12.9413   20.3262 N   0  0  0  0  0  0
  -25.9335  -11.6553   20.5747 N   0  0  0  0  0  0
  -22.0468  -12.8214   22.0430 N   0  0  0  0  0  0
  -25.4135  -15.1923   20.4058 N   0  0  0  0  0  0
  -31.7838  -14.8678   20.1385 O   0  0  0  0  0  0
  -21.6633   -6.8881   21.4250 O   0  0  0  0  0  0
  -22.3517  -14.5519   20.6720 O   0  0  0  0  0  0
  -24.6324  -31.8526   23.1948 C   0  0  0  0  0  0
  -25.9142  -32.4730   23.8302 C   0  0  1  0  0  0
  -27.2219  -27.2373   20.1333 C   0  0  0  0  0  0
  -25.5928  -33.8536   24.2226 N   0  0  0  0  0  0
  -23.4299  -30.4728   21.5381 C   0  0  2  0  0  0
  -24.8778  -28.9131   20.1089 C   0  0  0  0  0  0
  -22.7495  -29.4605   22.4901 C   0  0  0  0  0  0
  -18.0288  -28.1384   22.8495 C   0  0  0  0  0  0
  -24.1484  -36.7272   23.2642 C   0  0  0  0  0  0
  -25.9757  -30.7575   21.3787 C   0  0  0  0  0  0
  -26.0476  -29.3775   20.7210 C   0  0  0  0  0  0
  -27.2179  -28.5515   20.7212 C   0  0  0  0  0  0
  -26.0257  -26.8389   19.4990 C   0  0  0  0  0  0
  -24.8728  -27.6526   19.4886 C   0  0  0  0  0  0
  -23.6501  -29.8033   20.1546 C   0  0  0  0  0  0
  -25.4115  -36.3056   24.0321 C   0  0  1  0  0  0
  -20.5891  -28.3718   23.1282 C   0  0  2  0  0  0
  -20.6773  -26.9432   22.5426 C   0  0  0  0  0  0
  -19.5757  -26.6399   21.5217 C   0  0  0  0  0  0
  -18.1938  -26.7926   22.1637 C   0  0  0  0  0  0
  -19.1538  -28.8863   23.2890 C   0  0  0  0  0  0
  -18.9454  -30.1464   23.8901 C   0  0  0  0  0  0
  -17.6452  -30.6588   24.0554 C   0  0  0  0  0  0
  -25.9060  -34.9426   23.5082 C   0  0  0  0  0  0
  -16.5346  -29.9084   23.6320 C   0  0  0  0  0  0
  -16.7274  -28.6494   23.0361 C   0  0  0  0  0  0
  -26.4502  -31.6575   25.0707 C   0  0  0  0  0  0
  -25.3718  -31.3748   26.1422 C   0  0  0  0  0  0
  -27.0353  -30.2980   24.6232 C   0  0  0  0  0  0
  -27.6031  -32.4337   25.7490 C   0  0  0  0  0  0
  -27.5574  -37.1796   24.8468 C   0  0  0  0  0  0
  -21.4196  -29.3065   22.3657 N   0  0  0  0  0  0
  -26.4285  -37.3762   23.9411 N   0  0  0  0  0  0
  -24.6981  -31.0478   22.0928 N   0  0  0  0  0  0
  -23.4182  -28.8148   23.3009 O   0  0  0  0  0  0
  -28.3381  -26.3673   20.2177 O   0  0  0  0  0  0
  -26.5642  -34.8910   22.4657 O   0  0  0  0  0  0
  -23.5469  -32.1358   23.7230 O   0  0  0  0  0  0
  -27.8741  -18.2787   21.0684 C   0  0  0  0  0  0
  -29.1643  -18.5637   20.6019 C   0  0  0  0  0  0
  -26.9920  -19.3509   21.2137 C   0  0  0  0  0  0
  -28.5457  -20.8894   20.4987 C   0  0  0  0  0  0
  -26.8168  -23.5525   21.1796 C   0  0  0  0  0  0
  -30.2216  -17.3741   20.4663 C   0  0  0  0  0  0
  -28.3972  -24.9400   19.7124 C   0  0  0  0  0  0
  -28.2675  -23.6211   20.6689 C   0  0  2  0  0  0
  -29.4722  -19.8968   20.3077 N   0  0  0  0  0  0
  -27.3236  -20.6220   20.9419 N   0  0  0  0  0  0
  -25.7018  -19.1418   21.6721 N   0  0  0  0  0  0
  -28.8226  -22.2720   20.1635 N   0  0  0  0  0  0
  -29.8210  -15.9023   20.6444 N   0  0  0  0  0  0
  -31.4727  -12.5911   19.1792 H   0  0  0  0  0  0
  -30.3719  -11.4911   19.9603 H   0  0  0  0  0  0
  -29.7967  -11.7467   17.5166 H   0  0  0  0  0  0
  -29.6379  -13.4727   17.7241 H   0  0  0  0  0  0
  -27.8872  -11.2893   18.8988 H   0  0  0  0  0  0
  -27.3832  -12.5404   17.7945 H   0  0  0  0  0  0
  -27.6316  -14.2569   19.4688 H   0  0  0  0  0  0
  -28.7220  -12.1794   21.4279 H   0  0  0  0  0  0
  -28.4166  -13.8579   21.7941 H   0  0  0  0  0  0
  -25.2778   -9.5649   22.4771 H   0  0  0  0  0  0
  -23.9997   -7.4615   22.7482 H   0  0  0  0  0  0
  -21.0845   -8.8804   19.8962 H   0  0  0  0  0  0
  -22.3740  -10.9683   19.6189 H   0  0  0  0  0  0
  -21.1994   -7.6147   23.9728 H   0  0  0  0  0  0
  -21.1489   -6.0524   25.9091 H   0  0  0  0  0  0
  -22.0588   -2.7611   23.2865 H   0  0  0  0  0  0
  -22.4080  -11.9876   22.4827 H   0  0  0  0  0  0
  -21.1095  -13.1269   22.2640 H   0  0  0  0  0  0
  -24.6166  -15.8159   20.4624 H   0  0  0  0  0  0
  -26.2100  -15.6139   19.9472 H   0  0  0  0  0  0
  -26.7199  -32.5370   23.1031 H   0  0  0  0  0  0
  -25.0056  -33.9665   25.0355 H   0  0  0  0  0  0
  -22.7279  -31.2952   21.3878 H   0  0  0  0  0  0
  -23.3747  -35.9607   23.3310 H   0  0  0  0  0  0
  -24.3571  -36.8891   22.2058 H   0  0  0  0  0  0
  -23.7240  -37.6470   23.6670 H   0  0  0  0  0  0
  -26.1215  -31.5199   20.6113 H   0  0  0  0  0  0
  -26.8497  -30.8043   22.0168 H   0  0  0  0  0  0
  -28.1125  -28.9035   21.2164 H   0  0  0  0  0  0
  -25.9407  -25.8704   19.0310 H   0  0  0  0  0  0
  -23.9746  -27.2885   19.0090 H   0  0  0  0  0  0
  -23.7789  -30.5772   19.3970 H   0  0  0  0  0  0
  -22.7684  -29.2380   19.8489 H   0  0  0  0  0  0
  -25.1302  -36.1896   25.0814 H   0  0  0  0  0  0
  -20.9980  -28.3295   24.1404 H   0  0  0  0  0  0
  -20.5670  -26.2326   23.3639 H   0  0  0  0  0  0
  -21.6638  -26.7456   22.1216 H   0  0  0  0  0  0
  -19.6932  -25.6309   21.1248 H   0  0  0  0  0  0
  -19.6700  -27.3215   20.6751 H   0  0  0  0  0  0
  -17.4207  -26.6674   21.4040 H   0  0  0  0  0  0
  -18.0349  -26.0056   22.9030 H   0  0  0  0  0  0
  -19.7930  -30.7268   24.2285 H   0  0  0  0  0  0
  -17.5008  -31.6278   24.5137 H   0  0  0  0  0  0
  -15.5345  -30.2987   23.7639 H   0  0  0  0  0  0
  -15.8671  -28.0807   22.7089 H   0  0  0  0  0  0
  -24.5886  -30.7101   25.7763 H   0  0  0  0  0  0
  -24.8915  -32.2926   26.4827 H   0  0  0  0  0  0
  -25.8025  -30.8943   27.0216 H   0  0  0  0  0  0
  -26.2953  -29.6719   24.1228 H   0  0  0  0  0  0
  -27.3978  -29.7256   25.4781 H   0  0  0  0  0  0
  -27.8856  -30.4225   23.9521 H   0  0  0  0  0  0
  -27.2611  -33.3638   26.2047 H   0  0  0  0  0  0
  -28.3857  -32.6906   25.0338 H   0  0  0  0  0  0
  -28.0687  -31.8486   26.5431 H   0  0  0  0  0  0
  -28.2593  -38.0088   24.7501 H   0  0  0  0  0  0
  -28.1063  -36.2618   24.6309 H   0  0  0  0  0  0
  -27.2291  -37.1464   25.8869 H   0  0  0  0  0  0
  -20.9393  -29.8792   21.6859 H   0  0  0  0  0  0
  -26.0156  -38.2832   24.1411 H   0  0  0  0  0  0
  -27.5737  -17.2726   21.3209 H   0  0  0  0  0  0
  -26.7217  -22.8977   22.0462 H   0  0  0  0  0  0
  -26.1328  -23.2023   20.4070 H   0  0  0  0  0  0
  -26.4698  -24.5348   21.5032 H   0  0  0  0  0  0
  -31.0097  -17.5802   21.1920 H   0  0  0  0  0  0
  -30.6953  -17.4721   19.4885 H   0  0  0  0  0  0
  -29.3984  -24.8848   19.2836 H   0  0  0  0  0  0
  -27.7514  -24.8147   18.8453 H   0  0  0  0  0  0
  -28.8859  -23.8415   21.5395 H   0  0  0  0  0  0
  -25.3276  -18.2009   21.6751 H   0  0  0  0  0  0
  -25.0095  -19.8634   21.5148 H   0  0  0  0  0  0
  -29.7352  -22.3773   19.7361 H   0  0  0  0  0  0
  -28.8509  -15.7508   20.8703 H   0  0  0  0  0  0
  1 25  1  0  0  0
  1 30  2  0  0  0
  1 83  1  0  0  0
  2  3  1  0  0  0
  2 25  1  0  0  0
  2 84  1  0  0  0
  2 85  1  0  0  0
  3  4  1  0  0  0
  3 86  1  0  0  0
  3 87  1  0  0  0
  4  5  1  0  0  0
  4 88  1  0  0  0
  4 89  1  0  0  0
  5  6  1  0  0  0
  5 26  1  0  0  0
  5 90  1  0  0  0
  6 25  1  0  0  0
  6 91  1  0  0  0
  6 92  1  0  0  0
  7  8  2  0  0  0
  7 26  1  0  0  0
  7 29  1  0  0  0
  8  9  1  0  0  0
  8 22  1  0  0  0
  9 10  1  0  0  0
  9 27  2  0  0  0
 10 11  2  0  0  0
 10 15  1  0  0  0
 11 12  1  0  0  0
 11 93  1  0  0  0
 12 13  2  0  0  0
 12 94  1  0  0  0
 13 14  1  0  0  0
 13 31  1  0  0  0
 14 15  2  0  0  0
 14 95  1  0  0  0
 15 96  1  0  0  0
 16 17  2  0  0  0
 16 21  1  0  0  0
 16 31  1  0  0  0
 17 18  1  0  0  0
 17 97  1  0  0  0
 18 19  2  0  0  0
 18 98  1  0  0  0
 19 20  1  0  0  0
 19 24  1  0  0  0
 20 21  2  0  0  0
 20 99  1  0  0  0
 21 23  1  0  0  0
 22 28  1  0  0  0
 22 32  2  0  0  0
 26 27  1  0  0  0
 28100  1  0  0  0
 28101  1  0  0  0
 29102  1  0  0  0
 29103  1  0  0  0
 33 34  1  0  0  0
 33 66  1  0  0  0
 33 70  2  0  0  0
 34 36  1  0  0  0
 34 59  1  0  0  0
 34104  1  0  0  0
 35 44  2  0  0  0
 35 45  1  0  0  0
 35 68  1  0  0  0
 36 56  1  0  0  0
 36105  1  0  0  0
 37 39  1  0  0  0
 37 47  1  0  0  0
 37 66  1  0  0  0
 37106  1  0  0  0
 38 43  2  0  0  0
 38 46  1  0  0  0
 38 47  1  0  0  0
 39 64  1  0  0  0
 39 67  2  0  0  0
 40 52  1  0  0  0
 40 53  2  0  0  0
 40 58  1  0  0  0
 41107  1  0  0  0
 41108  1  0  0  0
 41109  1  0  0  0
 41 48  1  0  0  0
 42 43  1  0  0  0
 42 66  1  0  0  0
 42110  1  0  0  0
 42111  1  0  0  0
 43 44  1  0  0  0
 44112  1  0  0  0
 45 46  2  0  0  0
 45113  1  0  0  0
 46114  1  0  0  0
 47115  1  0  0  0
 47116  1  0  0  0
 48 56  1  0  0  0
 48 65  1  0  0  0
 48117  1  0  0  0
 49 50  1  0  0  0
 49 53  1  0  0  0
 49 64  1  0  0  0
 49118  1  0  0  0
 50 51  1  0  0  0
 50119  1  0  0  0
 50120  1  0  0  0
 51 52  1  0  0  0
 51121  1  0  0  0
 51122  1  0  0  0
 52123  1  0  0  0
 52124  1  0  0  0
 53 54  1  0  0  0
 54 55  2  0  0  0
 54125  1  0  0  0
 55 57  1  0  0  0
 55126  1  0  0  0
 56 69  2  0  0  0
 57 58  2  0  0  0
 57127  1  0  0  0
 58128  1  0  0  0
 59 60  1  0  0  0
 59 61  1  0  0  0
 59 62  1  0  0  0
 60129  1  0  0  0
 60130  1  0  0  0
 60131  1  0  0  0
 61132  1  0  0  0
 61133  1  0  0  0
 61134  1  0  0  0
 62135  1  0  0  0
 62136  1  0  0  0
 62137  1  0  0  0
 63 65  1  0  0  0
 63138  1  0  0  0
 63139  1  0  0  0
 63140  1  0  0  0
 64141  1  0  0  0
 65142  1  0  0  0
 68 77  1  0  0  0
 71 72  2  0  0  0
 71 73  1  0  0  0
 71143  1  0  0  0
 72 76  1  0  0  0
 72 79  1  0  0  0
 73 80  2  0  0  0
 73 81  1  0  0  0
 74 79  2  0  0  0
 74 80  1  0  0  0
 74 82  1  0  0  0
 75144  1  0  0  0
 75145  1  0  0  0
 75146  1  0  0  0
 75 78  1  0  0  0
 76 83  1  0  0  0
 76147  1  0  0  0
 76148  1  0  0  0
 77 78  1  0  0  0
 77149  1  0  0  0
 77150  1  0  0  0
 78 82  1  0  0  0
 78151  1  0  0  0
 81152  1  0  0  0
 81153  1  0  0  0
 82154  1  0  0  0
 83155  1  0  0  0
M  ISO  4   1 100  68 101  77 101  83 100
M  END
> <chiral flag>
0

> <version>
0

> <s_m_source_file>
/data/baiqing/PycharmProjects/Reinvent-master-3.2/result/LINK_invent/BTK/process_docking_weight1_custom_product_contain_oxygen_bond_distance_aromatic_linkinvent_7_9_3/rearranged_h_0195.sdf

> <i_m_source_file_index>
34

> <r_mmod_Potential_Energy-OPLS-2005>
-622.27685546875

> <r_mmod_Stretch_Energy-OPLS-2005>
134.569320678711

> <r_mmod_Bend_Energy-OPLS-2005>
199.582672119141

> <r_mmod_Torsional_Energy-OPLS-2005>
194.73095703125

> <r_mmod_Improper_Torsional_Energy-OPLS-2005>
9.51573657989502

> <r_mmod_Van_der_Waal_Energy-OPLS-2005>
139.6484375

> <r_mmod_Electrostatic_Energy-OPLS-2005>
-1140.00537109375

> <r_mmod_Solvation_Energy-OPLS-2005>
-255.595184326172

> <b_mmod_Minimization_Converged-OPLS-2005>
0

> <r_mmod_RMS_Derivative-OPLS-2005>
1.80854332447052

$$$$
34
                    3D
 Structure written by MMmdl.
155163  0  0  1  0            999 V2000
  -30.6052  -14.8060   20.4011 C   0  0  0  0  0  0
  -30.4275  -12.4861   19.4897 C   0  0  0  0  0  0
  -29.5227  -12.5085   18.2397 C   0  0  0  0  0  0
  -28.0390  -12.3479   18.6323 C   0  0  0  0  0  0
  -27.6354  -13.2414   19.8389 C   0  0  2  0  0  0
  -28.6788  -13.2084   20.9747 C   0  0  0  0  0  0
  -25.2490  -13.8195   20.5645 C   0  0  0  0  0  0
  -24.1787  -13.0463   20.9217 C   0  0  0  0  0  0
  -24.6403  -11.6948   20.8715 C   0  0  0  0  0  0
  -23.9074  -10.4333   21.0391 C   0  0  0  0  0  0
  -24.3623   -9.4256   21.9173 C   0  0  0  0  0  0
  -23.6301   -8.2261   22.0751 C   0  0  0  0  0  0
  -22.4287   -8.0265   21.3489 C   0  0  0  0  0  0
  -21.9916   -9.0264   20.4609 C   0  0  0  0  0  0
  -22.7248  -10.2154   20.3033 C   0  0  0  0  0  0
  -21.6909   -6.0728   22.5269 C   0  0  0  0  0  0
  -21.4025   -6.5625   23.8196 C   0  0  0  0  0  0
  -21.3628   -5.6774   24.9147 C   0  0  0  0  0  0
  -21.6087   -4.3054   24.7190 C   0  0  0  0  0  0
  -21.8819   -3.8134   23.4303 C   0  0  0  0  0  0
  -21.9185   -4.6951   22.3365 C   0  0  0  0  0  0
  -22.7815  -13.5258   21.1848 C   0  0  0  0  0  0
  -22.1672   -4.2158   21.0953 F   0  0  0  0  0  0
  -21.5627   -3.4533   25.7690 F   0  0  0  0  0  0
  -29.9665  -13.5768   20.3833 N   0  0  0  0  0  0
  -26.2923  -12.9413   20.3250 N   0  0  0  0  0  0
  -25.9325  -11.6543   20.5676 N   0  0  0  0  0  0
  -22.0413  -12.8262   22.0372 N   0  0  0  0  0  0
  -25.4319  -15.1898   20.4069 N   0  0  0  0  0  0
  -31.8204  -14.8090   20.1840 O   0  0  0  0  0  0
  -21.6659   -6.8863   21.4229 O   0  0  0  0  0  0
  -22.3515  -14.5545   20.6626 O   0  0  0  0  0  0
  -24.6300  -31.8589   23.1980 C   0  0  0  0  0  0
  -25.9161  -32.4740   23.8347 C   0  0  1  0  0  0
  -27.2309  -27.2729   20.1215 C   0  0  0  0  0  0
  -25.6014  -33.8558   24.2264 N   0  0  0  0  0  0
  -23.4273  -30.4788   21.5388 C   0  0  2  0  0  0
  -24.8826  -28.9305   20.0989 C   0  0  0  0  0  0
  -22.7506  -29.4563   22.4841 C   0  0  0  0  0  0
  -18.0302  -28.1383   22.8489 C   0  0  0  0  0  0
  -24.1520  -36.7297   23.2628 C   0  0  0  0  0  0
  -25.9722  -30.7735   21.3773 C   0  0  0  0  0  0
  -26.0470  -29.3901   20.7289 C   0  0  0  0  0  0
  -27.2242  -28.5737   20.7290 C   0  0  0  0  0  0
  -26.0492  -26.8814   19.4613 C   0  0  0  0  0  0
  -24.8880  -27.6827   19.4532 C   0  0  0  0  0  0
  -23.6537  -29.8195   20.1499 C   0  0  0  0  0  0
  -25.4153  -36.3075   24.0305 C   0  0  1  0  0  0
  -20.5902  -28.3729   23.1294 C   0  0  2  0  0  0
  -20.6816  -26.9456   22.5441 C   0  0  0  0  0  0
  -19.5787  -26.6384   21.5258 C   0  0  0  0  0  0
  -18.1944  -26.7927   22.1626 C   0  0  0  0  0  0
  -19.1559  -28.8858   23.2888 C   0  0  0  0  0  0
  -18.9459  -30.1464   23.8885 C   0  0  0  0  0  0
  -17.6451  -30.6579   24.0582 C   0  0  0  0  0  0
  -25.9074  -34.9441   23.5056 C   0  0  0  0  0  0
  -16.5338  -29.9086   23.6319 C   0  0  0  0  0  0
  -16.7276  -28.6510   23.0309 C   0  0  0  0  0  0
  -26.4547  -31.6522   25.0700 C   0  0  0  0  0  0
  -25.3792  -31.3667   26.1415 C   0  0  0  0  0  0
  -27.0332  -30.2939   24.6078 C   0  0  0  0  0  0
  -27.6062  -32.4285   25.7506 C   0  0  0  0  0  0
  -27.5588  -37.1822   24.8443 C   0  0  0  0  0  0
  -21.4185  -29.3083   22.3676 N   0  0  0  0  0  0
  -26.4309  -37.3793   23.9373 N   0  0  0  0  0  0
  -24.6940  -31.0565   22.0952 N   0  0  0  0  0  0
  -23.4237  -28.8136   23.2953 O   0  0  0  0  0  0
  -28.3364  -26.3933   20.1053 O   0  0  0  0  0  0
  -26.5623  -34.8906   22.4607 O   0  0  0  0  0  0
  -23.5457  -32.1407   23.7293 O   0  0  0  0  0  0
  -31.5537  -18.7046   18.7659 C   0  0  0  0  0  0
  -30.7740  -19.8545   18.9829 C   0  0  0  0  0  0
  -29.6367  -19.7242   19.7982 C   0  0  0  0  0  0
  -30.1466  -17.3618   20.0234 C   0  0  0  0  0  0
  -30.2279  -22.3493   21.4287 C   0  0  0  0  0  0
  -28.6559  -23.6378   19.7882 C   0  0  0  0  0  0
  -28.1739  -24.9776   20.5942 C   0  0  0  0  0  0
  -28.9335  -22.2368   20.5924 C   0  0  1  0  0  0
  -31.2341  -17.5029   19.2728 N   0  0  0  0  0  0
  -29.3215  -18.4512   20.2757 N   0  0  0  0  0  0
  -31.0675  -21.0609   18.3338 N   0  0  0  0  0  0
  -28.7618  -20.8855   19.8975 N   0  0  0  0  0  0
  -29.8593  -16.0021   20.4633 N   0  0  0  0  0  0
  -31.4702  -12.6010   19.1951 H   0  0  0  0  0  0
  -30.3645  -11.5229   19.9927 H   0  0  0  0  0  0
  -29.8250  -11.7212   17.5486 H   0  0  0  0  0  0
  -29.6620  -13.4489   17.7050 H   0  0  0  0  0  0
  -27.8694  -11.2994   18.8746 H   0  0  0  0  0  0
  -27.3992  -12.5673   17.7749 H   0  0  0  0  0  0
  -27.6197  -14.2604   19.4531 H   0  0  0  0  0  0
  -28.7237  -12.2165   21.4262 H   0  0  0  0  0  0
  -28.4013  -13.9011   21.7717 H   0  0  0  0  0  0
  -25.2751   -9.5782   22.4772 H   0  0  0  0  0  0
  -24.0060   -7.4657   22.7467 H   0  0  0  0  0  0
  -21.0833   -8.8735   19.8946 H   0  0  0  0  0  0
  -22.3644  -10.9662   19.6145 H   0  0  0  0  0  0
  -21.2048   -7.6160   23.9696 H   0  0  0  0  0  0
  -21.1467   -6.0504   25.9053 H   0  0  0  0  0  0
  -22.0631   -2.7607   23.2786 H   0  0  0  0  0  0
  -22.3996  -11.9959   22.4874 H   0  0  0  0  0  0
  -21.1002  -13.1290   22.2486 H   0  0  0  0  0  0
  -24.6838  -15.8618   20.5223 H   0  0  0  0  0  0
  -26.2763  -15.5967   20.0239 H   0  0  0  0  0  0
  -26.7212  -32.5431   23.1093 H   0  0  0  0  0  0
  -25.0324  -33.9747   25.0509 H   0  0  0  0  0  0
  -22.7231  -31.3014   21.3926 H   0  0  0  0  0  0
  -23.3765  -35.9631   23.3253 H   0  0  0  0  0  0
  -24.3617  -36.8976   22.2045 H   0  0  0  0  0  0
  -23.7281  -37.6488   23.6696 H   0  0  0  0  0  0
  -26.0981  -31.5347   20.6044 H   0  0  0  0  0  0
  -26.8549  -30.8343   22.0005 H   0  0  0  0  0  0
  -28.1146  -28.9273   21.2267 H   0  0  0  0  0  0
  -26.0301  -25.9401   18.9331 H   0  0  0  0  0  0
  -24.0090  -27.3426   18.9210 H   0  0  0  0  0  0
  -23.7915  -30.6032   19.4045 H   0  0  0  0  0  0
  -22.7689  -29.2659   19.8285 H   0  0  0  0  0  0
  -25.1320  -36.1898   25.0792 H   0  0  0  0  0  0
  -21.0002  -28.3326   24.1406 H   0  0  0  0  0  0
  -20.5782  -26.2342   23.3639 H   0  0  0  0  0  0
  -21.6663  -26.7520   22.1193 H   0  0  0  0  0  0
  -19.6964  -25.6299   21.1272 H   0  0  0  0  0  0
  -19.6687  -27.3200   20.6790 H   0  0  0  0  0  0
  -17.4248  -26.6723   21.3975 H   0  0  0  0  0  0
  -18.0268  -26.0037   22.8976 H   0  0  0  0  0  0
  -19.7913  -30.7302   24.2223 H   0  0  0  0  0  0
  -17.4979  -31.6215   24.5225 H   0  0  0  0  0  0
  -15.5333  -30.2975   23.7589 H   0  0  0  0  0  0
  -15.8683  -28.0835   22.6956 H   0  0  0  0  0  0
  -24.5988  -30.6967   25.7811 H   0  0  0  0  0  0
  -24.8953  -32.2806   26.4833 H   0  0  0  0  0  0
  -25.8153  -30.8903   27.0181 H   0  0  0  0  0  0
  -26.2836  -29.6718   24.1155 H   0  0  0  0  0  0
  -27.4097  -29.7153   25.4512 H   0  0  0  0  0  0
  -27.8698  -30.4198   23.9207 H   0  0  0  0  0  0
  -27.2604  -33.3579   26.2035 H   0  0  0  0  0  0
  -28.3916  -32.6840   25.0393 H   0  0  0  0  0  0
  -28.0645  -31.8432   26.5475 H   0  0  0  0  0  0
  -28.2559  -38.0174   24.7518 H   0  0  0  0  0  0
  -28.1127  -36.2674   24.6208 H   0  0  0  0  0  0
  -27.2296  -37.1410   25.8856 H   0  0  0  0  0  0
  -20.9361  -29.8895   21.6953 H   0  0  0  0  0  0
  -26.0136  -38.2839   24.1413 H   0  0  0  0  0  0
  -32.4111  -18.7310   18.1082 H   0  0  0  0  0  0
  -30.1621  -23.1880   22.1204 H   0  0  0  0  0  0
  -31.1177  -22.5273   20.8264 H   0  0  0  0  0  0
  -30.4188  -21.4743   22.0448 H   0  0  0  0  0  0
  -29.5564  -23.8865   19.2204 H   0  0  0  0  0  0
  -27.9007  -23.4465   19.0244 H   0  0  0  0  0  0
  -28.7047  -24.9722   21.5455 H   0  0  0  0  0  0
  -27.1310  -24.8212   20.8779 H   0  0  0  0  0  0
  -28.1334  -22.2094   21.3340 H   0  0  0  0  0  0
  -32.0233  -21.3089   18.1079 H   0  0  0  0  0  0
  -30.4735  -21.8447   18.5855 H   0  0  0  0  0  0
  -27.7801  -20.6332   19.7777 H   0  0  0  0  0  0
  -28.9147  -15.8803   20.7867 H   0  0  0  0  0  0
  1 25  1  0  0  0
  1 30  2  0  0  0
  1 83  1  0  0  0
  2  3  1  0  0  0
  2 25  1  0  0  0
  2 84  1  0  0  0
  2 85  1  0  0  0
  3  4  1  0  0  0
  3 86  1  0  0  0
  3 87  1  0  0  0
  4  5  1  0  0  0
  4 88  1  0  0  0
  4 89  1  0  0  0
  5  6  1  0  0  0
  5 26  1  0  0  0
  5 90  1  0  0  0
  6 25  1  0  0  0
  6 91  1  0  0  0
  6 92  1  0  0  0
  7  8  2  0  0  0
  7 26  1  0  0  0
  7 29  1  0  0  0
  8  9  1  0  0  0
  8 22  1  0  0  0
  9 10  1  0  0  0
  9 27  2  0  0  0
 10 11  2  0  0  0
 10 15  1  0  0  0
 11 12  1  0  0  0
 11 93  1  0  0  0
 12 13  2  0  0  0
 12 94  1  0  0  0
 13 14  1  0  0  0
 13 31  1  0  0  0
 14 15  2  0  0  0
 14 95  1  0  0  0
 15 96  1  0  0  0
 16 17  2  0  0  0
 16 21  1  0  0  0
 16 31  1  0  0  0
 17 18  1  0  0  0
 17 97  1  0  0  0
 18 19  2  0  0  0
 18 98  1  0  0  0
 19 20  1  0  0  0
 19 24  1  0  0  0
 20 21  2  0  0  0
 20 99  1  0  0  0
 21 23  1  0  0  0
 22 28  1  0  0  0
 22 32  2  0  0  0
 26 27  1  0  0  0
 28100  1  0  0  0
 28101  1  0  0  0
 29102  1  0  0  0
 29103  1  0  0  0
 33 34  1  0  0  0
 33 66  1  0  0  0
 33 70  2  0  0  0
 34 36  1  0  0  0
 34 59  1  0  0  0
 34104  1  0  0  0
 35 44  2  0  0  0
 35 45  1  0  0  0
 35 68  1  0  0  0
 36 56  1  0  0  0
 36105  1  0  0  0
 37 39  1  0  0  0
 37 47  1  0  0  0
 37 66  1  0  0  0
 37106  1  0  0  0
 38 43  2  0  0  0
 38 46  1  0  0  0
 38 47  1  0  0  0
 39 64  1  0  0  0
 39 67  2  0  0  0
 40 52  1  0  0  0
 40 53  2  0  0  0
 40 58  1  0  0  0
 41107  1  0  0  0
 41108  1  0  0  0
 41109  1  0  0  0
 41 48  1  0  0  0
 42 43  1  0  0  0
 42 66  1  0  0  0
 42110  1  0  0  0
 42111  1  0  0  0
 43 44  1  0  0  0
 44112  1  0  0  0
 45 46  2  0  0  0
 45113  1  0  0  0
 46114  1  0  0  0
 47115  1  0  0  0
 47116  1  0  0  0
 48 56  1  0  0  0
 48 65  1  0  0  0
 48117  1  0  0  0
 49 50  1  0  0  0
 49 53  1  0  0  0
 49 64  1  0  0  0
 49118  1  0  0  0
 50 51  1  0  0  0
 50119  1  0  0  0
 50120  1  0  0  0
 51 52  1  0  0  0
 51121  1  0  0  0
 51122  1  0  0  0
 52123  1  0  0  0
 52124  1  0  0  0
 53 54  1  0  0  0
 54 55  2  0  0  0
 54125  1  0  0  0
 55 57  1  0  0  0
 55126  1  0  0  0
 56 69  2  0  0  0
 57 58  2  0  0  0
 57127  1  0  0  0
 58128  1  0  0  0
 59 60  1  0  0  0
 59 61  1  0  0  0
 59 62  1  0  0  0
 60129  1  0  0  0
 60130  1  0  0  0
 60131  1  0  0  0
 61132  1  0  0  0
 61133  1  0  0  0
 61134  1  0  0  0
 62135  1  0  0  0
 62136  1  0  0  0
 62137  1  0  0  0
 63 65  1  0  0  0
 63138  1  0  0  0
 63139  1  0  0  0
 63140  1  0  0  0
 64141  1  0  0  0
 65142  1  0  0  0
 68 77  1  0  0  0
 71 72  2  0  0  0
 71 79  1  0  0  0
 71143  1  0  0  0
 72 73  1  0  0  0
 72 81  1  0  0  0
 73 80  2  0  0  0
 73 82  1  0  0  0
 74 79  2  0  0  0
 74 80  1  0  0  0
 74 83  1  0  0  0
 75144  1  0  0  0
 75145  1  0  0  0
 75146  1  0  0  0
 75 78  1  0  0  0
 76 77  1  0  0  0
 76 78  1  0  0  0
 76147  1  0  0  0
 76148  1  0  0  0
 77149  1  0  0  0
 77150  1  0  0  0
 78 82  1  0  0  0
 78151  1  0  0  0
 81152  1  0  0  0
 81153  1  0  0  0
 82154  1  0  0  0
 83155  1  0  0  0
M  ISO  4   1 100  68 101  77 101  83 100
M  END
> <chiral flag>
0

> <version>
0

> <s_m_source_file>
/data/baiqing/PycharmProjects/Reinvent-master-3.2/result/LINK_invent/BTK/process_docking_weight1_custom_product_contain_oxygen_bond_distance_aromatic_linkinvent_7_9_3/rearranged_h_0195.sdf

> <i_m_source_file_index>
35

> <r_mmod_Potential_Energy-OPLS-2005>
-123.929679870605

> <r_mmod_Stretch_Energy-OPLS-2005>
146.135620117188

> <r_mmod_Bend_Energy-OPLS-2005>
216.142700195312

> <r_mmod_Torsional_Energy-OPLS-2005>
266.657989501953

> <r_mmod_Improper_Torsional_Energy-OPLS-2005>
10.1230230331421

> <r_mmod_Van_der_Waal_Energy-OPLS-2005>
145.678909301758

> <r_mmod_Electrostatic_Energy-OPLS-2005>
-754.478210449219

> <r_mmod_Solvation_Energy-OPLS-2005>
-250.84748840332

> <b_mmod_Minimization_Converged-OPLS-2005>
0

> <r_mmod_RMS_Derivative-OPLS-2005>
9.07322406768799

$$$$
35
                    3D
 Structure written by MMmdl.
165173  0  0  1  0            999 V2000
  -30.6495  -14.5531   20.4945 C   0  0  0  0  0  0
  -30.4202  -12.3324   19.4486 C   0  0  0  0  0  0
  -29.5044  -12.5059   18.2179 C   0  0  0  0  0  0
  -28.0211  -12.3692   18.6166 C   0  0  0  0  0  0
  -27.6544  -13.2163   19.8646 C   0  0  2  0  0  0
  -28.6935  -13.0416   20.9958 C   0  0  0  0  0  0
  -25.2558  -13.8190   20.5658 C   0  0  0  0  0  0
  -24.1834  -13.0450   20.9162 C   0  0  0  0  0  0
  -24.6404  -11.6923   20.8728 C   0  0  0  0  0  0
  -23.9078  -10.4313   21.0395 C   0  0  0  0  0  0
  -24.3634   -9.4229   21.9171 C   0  0  0  0  0  0
  -23.6308   -8.2261   22.0744 C   0  0  0  0  0  0
  -22.4288   -8.0295   21.3542 C   0  0  0  0  0  0
  -21.9929   -9.0268   20.4648 C   0  0  0  0  0  0
  -22.7247  -10.2151   20.3049 C   0  0  0  0  0  0
  -21.6874   -6.0745   22.5278 C   0  0  0  0  0  0
  -21.4028   -6.5645   23.8209 C   0  0  0  0  0  0
  -21.3659   -5.6795   24.9171 C   0  0  0  0  0  0
  -21.6042   -4.3056   24.7217 C   0  0  0  0  0  0
  -21.8819   -3.8152   23.4340 C   0  0  0  0  0  0
  -21.9202   -4.6970   22.3396 C   0  0  0  0  0  0
  -22.7852  -13.5236   21.1818 C   0  0  0  0  0  0
  -22.1657   -4.2161   21.0972 F   0  0  0  0  0  0
  -21.5627   -3.4534   25.7724 F   0  0  0  0  0  0
  -30.0215  -13.3432   20.4430 N   0  0  0  0  0  0
  -26.2991  -12.9372   20.3311 N   0  0  0  0  0  0
  -25.9332  -11.6522   20.5746 N   0  0  0  0  0  0
  -22.0487  -12.8261   22.0393 N   0  0  0  0  0  0
  -25.4262  -15.1909   20.4065 N   0  0  0  0  0  0
  -31.8026  -14.7131   20.0812 O   0  0  0  0  0  0
  -21.6648   -6.8891   21.4240 O   0  0  0  0  0  0
  -22.3541  -14.5518   20.6628 O   0  0  0  0  0  0
  -24.6157  -31.8653   23.2084 C   0  0  0  0  0  0
  -25.9032  -32.4816   23.8400 C   0  0  1  0  0  0
  -27.2317  -27.3932   20.1201 C   0  0  0  0  0  0
  -25.5867  -33.8619   24.2320 N   0  0  0  0  0  0
  -23.4069  -30.4854   21.5483 C   0  0  2  0  0  0
  -24.8558  -28.9369   20.1249 C   0  0  0  0  0  0
  -22.7399  -29.4633   22.4978 C   0  0  0  0  0  0
  -18.0266  -28.1350   22.8497 C   0  0  0  0  0  0
  -24.1474  -36.7302   23.2647 C   0  0  0  0  0  0
  -25.9397  -30.8159   21.3705 C   0  0  0  0  0  0
  -26.0176  -29.4451   20.7205 C   0  0  0  0  0  0
  -27.2114  -28.6824   20.7095 C   0  0  0  0  0  0
  -26.0547  -26.9031   19.5225 C   0  0  0  0  0  0
  -24.8700  -27.6652   19.5236 C   0  0  0  0  0  0
  -23.6209  -29.8094   20.1674 C   0  0  0  0  0  0
  -25.4103  -36.3113   24.0346 C   0  0  1  0  0  0
  -20.5850  -28.3641   23.1306 C   0  0  2  0  0  0
  -20.6742  -26.9368   22.5414 C   0  0  0  0  0  0
  -19.5731  -26.6361   21.5199 C   0  0  0  0  0  0
  -18.1912  -26.7903   22.1614 C   0  0  0  0  0  0
  -19.1514  -28.8813   23.2905 C   0  0  0  0  0  0
  -18.9446  -30.1415   23.8923 C   0  0  0  0  0  0
  -17.6451  -30.6572   24.0544 C   0  0  0  0  0  0
  -25.9028  -34.9474   23.5132 C   0  0  0  0  0  0
  -16.5340  -29.9067   23.6322 C   0  0  0  0  0  0
  -16.7255  -28.6467   23.0376 C   0  0  0  0  0  0
  -26.4451  -31.6619   25.0748 C   0  0  0  0  0  0
  -25.3716  -31.3728   26.1499 C   0  0  0  0  0  0
  -27.0302  -30.3065   24.6163 C   0  0  0  0  0  0
  -27.6019  -32.4356   25.7494 C   0  0  0  0  0  0
  -27.5577  -37.1801   24.8460 C   0  0  0  0  0  0
  -21.4123  -29.3018   22.3715 N   0  0  0  0  0  0
  -26.4291  -37.3796   23.9403 N   0  0  0  0  0  0
  -24.6719  -31.0719   22.0996 N   0  0  0  0  0  0
  -23.4150  -28.8179   23.3040 O   0  0  0  0  0  0
  -28.3909  -26.6456   20.0534 O   0  0  0  0  0  0
  -26.5603  -34.8915   22.4701 O   0  0  0  0  0  0
  -23.5339  -32.1408   23.7458 O   0  0  0  0  0  0
  -30.0057  -16.9305   18.7854 C   0  0  0  0  0  0
  -29.8420  -16.8950   20.1984 C   0  0  0  0  0  0
  -29.7294  -19.2229   18.7364 C   0  0  0  0  0  0
  -29.5577  -19.2358   20.1512 C   0  0  0  0  0  0
  -29.9159  -20.9275   15.5983 C   0  0  0  0  0  0
  -27.7646  -21.3443   16.8711 C   0  0  0  0  0  0
  -28.1179  -24.0821   20.2912 C   0  0  0  0  0  0
  -28.4288  -21.4284   20.6630 C   0  0  0  0  0  0
  -28.5018  -25.4761   20.9010 C   0  0  0  0  0  0
  -29.0092  -20.4570   16.7410 C   0  0  0  0  0  0
  -29.0084  -22.8792   20.7733 C   0  0  1  0  0  0
  -29.9389  -18.0713   18.0609 N   0  0  0  0  0  0
  -29.5846  -18.0695   20.8656 N   0  0  0  0  0  0
  -29.8813  -15.6133   20.8555 N   0  0  0  0  0  0
  -29.5093  -20.4466   20.8784 N   0  0  0  0  0  0
  -29.7502  -20.4143   18.0000 N   0  0  0  0  0  0
  -30.2020  -22.8552   20.0004 O   0  0  0  0  0  0
  -31.4693  -12.4229   19.1607 H   0  0  0  0  0  0
  -30.3096  -11.3302   19.8650 H   0  0  0  0  0  0
  -29.7567  -11.7670   17.4565 H   0  0  0  0  0  0
  -29.6765  -13.4844   17.7650 H   0  0  0  0  0  0
  -27.8218  -11.3148   18.8100 H   0  0  0  0  0  0
  -27.3803  -12.6456   17.7780 H   0  0  0  0  0  0
  -27.6826  -14.2582   19.5453 H   0  0  0  0  0  0
  -28.6731  -12.0209   21.3806 H   0  0  0  0  0  0
  -28.4531  -13.6856   21.8423 H   0  0  0  0  0  0
  -25.2785   -9.5710   22.4734 H   0  0  0  0  0  0
  -24.0026   -7.4664   22.7465 H   0  0  0  0  0  0
  -21.0852   -8.8784   19.8964 H   0  0  0  0  0  0
  -22.3697  -10.9681   19.6150 H   0  0  0  0  0  0
  -21.2017   -7.6157   23.9720 H   0  0  0  0  0  0
  -21.1474   -6.0518   25.9075 H   0  0  0  0  0  0
  -22.0598   -2.7614   23.2829 H   0  0  0  0  0  0
  -22.4102  -11.9969   22.4858 H   0  0  0  0  0  0
  -21.1080  -13.1280   22.2523 H   0  0  0  0  0  0
  -24.6526  -15.8397   20.5080 H   0  0  0  0  0  0
  -26.2749  -15.6383   20.0854 H   0  0  0  0  0  0
  -26.7094  -32.5508   23.1154 H   0  0  0  0  0  0
  -25.0000  -33.9784   25.0454 H   0  0  0  0  0  0
  -22.6987  -31.3034   21.4021 H   0  0  0  0  0  0
  -23.3756  -35.9613   23.3316 H   0  0  0  0  0  0
  -24.3574  -36.8914   22.2060 H   0  0  0  0  0  0
  -23.7196  -37.6493   23.6666 H   0  0  0  0  0  0
  -26.0675  -31.5820   20.6043 H   0  0  0  0  0  0
  -26.8218  -30.8640   21.9970 H   0  0  0  0  0  0
  -28.1121  -29.0764   21.1604 H   0  0  0  0  0  0
  -26.0593  -25.9333   19.0471 H   0  0  0  0  0  0
  -23.9753  -27.2673   19.0653 H   0  0  0  0  0  0
  -23.7355  -30.5794   19.4044 H   0  0  0  0  0  0
  -22.7444  -29.2311   19.8705 H   0  0  0  0  0  0
  -25.1286  -36.1983   25.0844 H   0  0  0  0  0  0
  -20.9968  -28.3204   24.1413 H   0  0  0  0  0  0
  -20.5603  -26.2243   23.3603 H   0  0  0  0  0  0
  -21.6615  -26.7372   22.1226 H   0  0  0  0  0  0
  -19.6886  -25.6273   21.1223 H   0  0  0  0  0  0
  -19.6689  -27.3167   20.6731 H   0  0  0  0  0  0
  -17.4179  -26.6656   21.4020 H   0  0  0  0  0  0
  -18.0315  -26.0031   22.8992 H   0  0  0  0  0  0
  -19.7927  -30.7210   24.2313 H   0  0  0  0  0  0
  -17.5014  -31.6270   24.5114 H   0  0  0  0  0  0
  -15.5343  -30.2981   23.7640 H   0  0  0  0  0  0
  -15.8645  -28.0782   22.7123 H   0  0  0  0  0  0
  -24.5851  -30.7129   25.7822 H   0  0  0  0  0  0
  -24.8962  -32.2889   26.5019 H   0  0  0  0  0  0
  -25.8066  -30.8829   27.0220 H   0  0  0  0  0  0
  -26.2870  -29.6824   24.1196 H   0  0  0  0  0  0
  -27.4028  -29.7314   25.4646 H   0  0  0  0  0  0
  -27.8716  -30.4391   23.9361 H   0  0  0  0  0  0
  -27.2636  -33.3635   26.2118 H   0  0  0  0  0  0
  -28.3795  -32.6963   25.0302 H   0  0  0  0  0  0
  -28.0734  -31.8475   26.5376 H   0  0  0  0  0  0
  -28.2595  -38.0101   24.7531 H   0  0  0  0  0  0
  -28.1079  -36.2637   24.6268 H   0  0  0  0  0  0
  -27.2300  -37.1412   25.8864 H   0  0  0  0  0  0
  -20.9273  -29.8748   21.6951 H   0  0  0  0  0  0
  -26.0191  -38.2872   24.1432 H   0  0  0  0  0  0
  -30.1682  -16.0305   18.2100 H   0  0  0  0  0  0
  -29.3799  -20.9161   14.6470 H   0  0  0  0  0  0
  -30.7852  -20.2766   15.4901 H   0  0  0  0  0  0
  -30.2739  -21.9452   15.7563 H   0  0  0  0  0  0
  -27.2116  -21.3836   15.9310 H   0  0  0  0  0  0
  -28.0234  -22.3690   17.1413 H   0  0  0  0  0  0
  -27.0799  -20.9533   17.6241 H   0  0  0  0  0  0
  -28.1393  -24.1374   19.2034 H   0  0  0  0  0  0
  -27.0763  -23.8791   20.5440 H   0  0  0  0  0  0
  -27.9396  -21.2791   19.7020 H   0  0  0  0  0  0
  -27.6557  -21.2819   21.4199 H   0  0  0  0  0  0
  -29.5534  -25.4421   21.1908 H   0  0  0  0  0  0
  -27.9620  -25.6333   21.8362 H   0  0  0  0  0  0
  -28.6506  -19.4611   16.4762 H   0  0  0  0  0  0
  -29.2825  -23.0474   21.8175 H   0  0  0  0  0  0
  -29.0710  -15.3928   21.4118 H   0  0  0  0  0  0
  -30.3054  -21.0128   20.5761 H   0  0  0  0  0  0
  -29.6658  -21.2374   18.5980 H   0  0  0  0  0  0
  -30.6840  -23.6597   20.1763 H   0  0  0  0  0  0
  1 25  1  0  0  0
  1 30  2  0  0  0
  1 84  1  0  0  0
  2  3  1  0  0  0
  2 25  1  0  0  0
  2 88  1  0  0  0
  2 89  1  0  0  0
  3  4  1  0  0  0
  3 90  1  0  0  0
  3 91  1  0  0  0
  4  5  1  0  0  0
  4 92  1  0  0  0
  4 93  1  0  0  0
  5  6  1  0  0  0
  5 26  1  0  0  0
  5 94  1  0  0  0
  6 25  1  0  0  0
  6 95  1  0  0  0
  6 96  1  0  0  0
  7  8  2  0  0  0
  7 26  1  0  0  0
  7 29  1  0  0  0
  8  9  1  0  0  0
  8 22  1  0  0  0
  9 10  1  0  0  0
  9 27  2  0  0  0
 10 11  2  0  0  0
 10 15  1  0  0  0
 11 12  1  0  0  0
 11 97  1  0  0  0
 12 13  2  0  0  0
 12 98  1  0  0  0
 13 14  1  0  0  0
 13 31  1  0  0  0
 14 15  2  0  0  0
 14 99  1  0  0  0
 15100  1  0  0  0
 16 17  2  0  0  0
 16 21  1  0  0  0
 16 31  1  0  0  0
 17 18  1  0  0  0
 17101  1  0  0  0
 18 19  2  0  0  0
 18102  1  0  0  0
 19 20  1  0  0  0
 19 24  1  0  0  0
 20 21  2  0  0  0
 20103  1  0  0  0
 21 23  1  0  0  0
 22 28  1  0  0  0
 22 32  2  0  0  0
 26 27  1  0  0  0
 28104  1  0  0  0
 28105  1  0  0  0
 29106  1  0  0  0
 29107  1  0  0  0
 33 34  1  0  0  0
 33 66  1  0  0  0
 33 70  2  0  0  0
 34 36  1  0  0  0
 34 59  1  0  0  0
 34108  1  0  0  0
 35 44  2  0  0  0
 35 45  1  0  0  0
 35 68  1  0  0  0
 36 56  1  0  0  0
 36109  1  0  0  0
 37 39  1  0  0  0
 37 47  1  0  0  0
 37 66  1  0  0  0
 37110  1  0  0  0
 38 43  2  0  0  0
 38 46  1  0  0  0
 38 47  1  0  0  0
 39 64  1  0  0  0
 39 67  2  0  0  0
 40 52  1  0  0  0
 40 53  2  0  0  0
 40 58  1  0  0  0
 41111  1  0  0  0
 41112  1  0  0  0
 41113  1  0  0  0
 41 48  1  0  0  0
 42 43  1  0  0  0
 42 66  1  0  0  0
 42114  1  0  0  0
 42115  1  0  0  0
 43 44  1  0  0  0
 44116  1  0  0  0
 45 46  2  0  0  0
 45117  1  0  0  0
 46118  1  0  0  0
 47119  1  0  0  0
 47120  1  0  0  0
 48 56  1  0  0  0
 48 65  1  0  0  0
 48121  1  0  0  0
 49 50  1  0  0  0
 49 53  1  0  0  0
 49 64  1  0  0  0
 49122  1  0  0  0
 50 51  1  0  0  0
 50123  1  0  0  0
 50124  1  0  0  0
 51 52  1  0  0  0
 51125  1  0  0  0
 51126  1  0  0  0
 52127  1  0  0  0
 52128  1  0  0  0
 53 54  1  0  0  0
 54 55  2  0  0  0
 54129  1  0  0  0
 55 57  1  0  0  0
 55130  1  0  0  0
 56 69  2  0  0  0
 57 58  2  0  0  0
 57131  1  0  0  0
 58132  1  0  0  0
 59 60  1  0  0  0
 59 61  1  0  0  0
 59 62  1  0  0  0
 60133  1  0  0  0
 60134  1  0  0  0
 60135  1  0  0  0
 61136  1  0  0  0
 61137  1  0  0  0
 61138  1  0  0  0
 62139  1  0  0  0
 62140  1  0  0  0
 62141  1  0  0  0
 63 65  1  0  0  0
 63142  1  0  0  0
 63143  1  0  0  0
 63144  1  0  0  0
 64145  1  0  0  0
 65146  1  0  0  0
 68 79  1  0  0  0
 71 72  2  0  0  0
 71 82  1  0  0  0
 71147  1  0  0  0
 72 83  1  0  0  0
 72 84  1  0  0  0
 73 74  1  0  0  0
 73 82  2  0  0  0
 73 86  1  0  0  0
 74 83  2  0  0  0
 74 85  1  0  0  0
 75148  1  0  0  0
 75149  1  0  0  0
 75150  1  0  0  0
 75 80  1  0  0  0
 76 80  1  0  0  0
 76151  1  0  0  0
 76152  1  0  0  0
 76153  1  0  0  0
 77 79  1  0  0  0
 77 81  1  0  0  0
 77154  1  0  0  0
 77155  1  0  0  0
 78 81  1  0  0  0
 78 85  1  0  0  0
 78156  1  0  0  0
 78157  1  0  0  0
 79158  1  0  0  0
 79159  1  0  0  0
 80 86  1  0  0  0
 80160  1  0  0  0
 81 87  1  0  0  0
 81161  1  0  0  0
 84162  1  0  0  0
 85163  1  0  0  0
 86164  1  0  0  0
 87165  1  0  0  0
M  ISO  4   1 100  68 101  79 101  84 100
M  END
> <chiral flag>
0

> <version>
0

> <s_m_source_file>
/data/baiqing/PycharmProjects/Reinvent-master-3.2/result/LINK_invent/BTK/process_docking_weight1_custom_product_contain_oxygen_bond_distance_aromatic_linkinvent_7_9_3/rearranged_h_0195.sdf

> <i_m_source_file_index>
36

> <r_mmod_Potential_Energy-OPLS-2005>
-105.01628112793

> <r_mmod_Stretch_Energy-OPLS-2005>
52.246883392334

> <r_mmod_Bend_Energy-OPLS-2005>
127.706840515137

> <r_mmod_Torsional_Energy-OPLS-2005>
325.963226318359

> <r_mmod_Improper_Torsional_Energy-OPLS-2005>
16.9281826019287

> <r_mmod_Van_der_Waal_Energy-OPLS-2005>
154.702926635742

> <r_mmod_Electrostatic_Energy-OPLS-2005>
-560.406677246094

> <r_mmod_Solvation_Energy-OPLS-2005>
-244.638214111328

> <b_mmod_Minimization_Converged-OPLS-2005>
0

> <r_mmod_RMS_Derivative-OPLS-2005>
2.49534749984741

$$$$
36
                    3D
 Structure written by MMmdl.
158166  0  0  1  0            999 V2000
  -30.6098  -14.7277   20.4567 C   0  0  0  0  0  0
  -30.4310  -12.4367   19.4891 C   0  0  0  0  0  0
  -29.5140  -12.5030   18.2462 C   0  0  0  0  0  0
  -28.0379  -12.3354   18.6531 C   0  0  0  0  0  0
  -27.6457  -13.2301   19.8594 C   0  0  2  0  0  0
  -28.6859  -13.1484   21.0006 C   0  0  0  0  0  0
  -25.2519  -13.8186   20.5702 C   0  0  0  0  0  0
  -24.1806  -13.0436   20.9202 C   0  0  0  0  0  0
  -24.6392  -11.6911   20.8741 C   0  0  0  0  0  0
  -23.9066  -10.4291   21.0402 C   0  0  0  0  0  0
  -24.3618   -9.4205   21.9178 C   0  0  0  0  0  0
  -23.6290   -8.2243   22.0748 C   0  0  0  0  0  0
  -22.4272   -8.0280   21.3538 C   0  0  0  0  0  0
  -21.9912   -9.0251   20.4640 C   0  0  0  0  0  0
  -22.7241  -10.2132   20.3049 C   0  0  0  0  0  0
  -21.6853   -6.0733   22.5275 C   0  0  0  0  0  0
  -21.4016   -6.5639   23.8208 C   0  0  0  0  0  0
  -21.3661   -5.6790   24.9172 C   0  0  0  0  0  0
  -21.6047   -4.3052   24.7221 C   0  0  0  0  0  0
  -21.8821   -3.8144   23.4341 C   0  0  0  0  0  0
  -21.9193   -4.6962   22.3400 C   0  0  0  0  0  0
  -22.7829  -13.5220   21.1859 C   0  0  0  0  0  0
  -22.1663   -4.2152   21.0978 F   0  0  0  0  0  0
  -21.5626   -3.4537   25.7733 F   0  0  0  0  0  0
  -29.9958  -13.4945   20.4330 N   0  0  0  0  0  0
  -26.2950  -12.9394   20.3306 N   0  0  0  0  0  0
  -25.9325  -11.6536   20.5759 N   0  0  0  0  0  0
  -22.0477  -12.8207   22.0415 N   0  0  0  0  0  0
  -25.4223  -15.1909   20.4137 N   0  0  0  0  0  0
  -31.7766  -14.8353   20.0657 O   0  0  0  0  0  0
  -21.6639   -6.8874   21.4236 O   0  0  0  0  0  0
  -22.3518  -14.5528   20.6708 O   0  0  0  0  0  0
  -24.6323  -31.8536   23.1972 C   0  0  0  0  0  0
  -25.9140  -32.4746   23.8322 C   0  0  1  0  0  0
  -27.2181  -27.2493   20.1265 C   0  0  0  0  0  0
  -25.5931  -33.8551   24.2244 N   0  0  0  0  0  0
  -23.4294  -30.4770   21.5404 C   0  0  2  0  0  0
  -24.8774  -28.9264   20.1063 C   0  0  0  0  0  0
  -22.7512  -29.4585   22.4891 C   0  0  0  0  0  0
  -18.0294  -28.1390   22.8472 C   0  0  0  0  0  0
  -24.1492  -36.7287   23.2640 C   0  0  0  0  0  0
  -25.9765  -30.7619   21.3805 C   0  0  0  0  0  0
  -26.0478  -29.3837   20.7234 C   0  0  0  0  0  0
  -27.2180  -28.5557   20.7270 C   0  0  0  0  0  0
  -26.0287  -26.8760   19.4582 C   0  0  0  0  0  0
  -24.8743  -27.6813   19.4621 C   0  0  0  0  0  0
  -23.6486  -29.8138   20.1556 C   0  0  0  0  0  0
  -25.4114  -36.3064   24.0325 C   0  0  1  0  0  0
  -20.5901  -28.3701   23.1262 C   0  0  2  0  0  0
  -20.6782  -26.9415   22.5407 C   0  0  0  0  0  0
  -19.5753  -26.6380   21.5216 C   0  0  0  0  0  0
  -18.1932  -26.7929   22.1624 C   0  0  0  0  0  0
  -19.1548  -28.8861   23.2863 C   0  0  0  0  0  0
  -18.9474  -30.1460   23.8884 C   0  0  0  0  0  0
  -17.6472  -30.6589   24.0563 C   0  0  0  0  0  0
  -25.9056  -34.9434   23.5085 C   0  0  0  0  0  0
  -16.5362  -29.9085   23.6334 C   0  0  0  0  0  0
  -16.7279  -28.6510   23.0341 C   0  0  0  0  0  0
  -26.4505  -31.6576   25.0720 C   0  0  0  0  0  0
  -25.3730  -31.3733   26.1444 C   0  0  0  0  0  0
  -27.0349  -30.2987   24.6211 C   0  0  0  0  0  0
  -27.6045  -32.4332   25.7500 C   0  0  0  0  0  0
  -27.5575  -37.1791   24.8462 C   0  0  0  0  0  0
  -21.4219  -29.3045   22.3649 N   0  0  0  0  0  0
  -26.4282  -37.3765   23.9412 N   0  0  0  0  0  0
  -24.6986  -31.0490   22.0955 N   0  0  0  0  0  0
  -23.4210  -28.8116   23.2984 O   0  0  0  0  0  0
  -28.3045  -26.3400   20.2179 O   0  0  0  0  0  0
  -26.5633  -34.8909   22.4656 O   0  0  0  0  0  0
  -23.5467  -32.1369   23.7255 O   0  0  0  0  0  0
  -29.9684  -17.1063   18.6778 C   0  0  0  0  0  0
  -29.8346  -17.1665   20.0862 C   0  0  0  0  0  0
  -29.5324  -19.3652   18.4287 C   0  0  0  0  0  0
  -29.4303  -19.5683   19.8428 C   0  0  0  0  0  0
  -31.3674  -23.2236   21.4762 C   0  0  0  0  0  0
  -30.4655  -24.0920   20.5855 C   0  0  0  0  0  0
  -28.8437  -22.2060   19.7714 C   0  0  0  0  0  0
  -28.1226  -24.8797   19.8703 C   0  0  0  0  0  0
  -28.9852  -23.6535   20.5137 C   0  0  1  0  0  0
  -29.8071  -18.1725   17.8663 N   0  0  0  0  0  0
  -29.5652  -18.4289   20.6470 N   0  0  0  0  0  0
  -29.3414  -20.3624   17.4863 N   0  0  0  0  0  0
  -29.8684  -15.8555   20.7796 N   0  0  0  0  0  0
  -29.2133  -20.8826   20.4448 N   0  0  0  0  0  0
  -31.4755  -12.5468   19.1917 H   0  0  0  0  0  0
  -30.3609  -11.4566   19.9636 H   0  0  0  0  0  0
  -29.7914  -11.7279   17.5305 H   0  0  0  0  0  0
  -29.6499  -13.4564   17.7335 H   0  0  0  0  0  0
  -27.8866  -11.2859   18.9090 H   0  0  0  0  0  0
  -27.3836  -12.5352   17.8035 H   0  0  0  0  0  0
  -27.6461  -14.2548   19.4867 H   0  0  0  0  0  0
  -28.7120  -12.1456   21.4304 H   0  0  0  0  0  0
  -28.4181  -13.8205   21.8175 H   0  0  0  0  0  0
  -25.2763   -9.5685   22.4747 H   0  0  0  0  0  0
  -23.9998   -7.4641   22.7472 H   0  0  0  0  0  0
  -21.0838   -8.8770   19.8950 H   0  0  0  0  0  0
  -22.3692  -10.9667   19.6156 H   0  0  0  0  0  0
  -21.2011   -7.6148   23.9716 H   0  0  0  0  0  0
  -21.1482   -6.0519   25.9077 H   0  0  0  0  0  0
  -22.0598   -2.7607   23.2841 H   0  0  0  0  0  0
  -22.4098  -11.9869   22.4800 H   0  0  0  0  0  0
  -21.1093  -13.1227   22.2616 H   0  0  0  0  0  0
  -24.6550  -15.8432   20.5316 H   0  0  0  0  0  0
  -26.2674  -15.6332   20.0766 H   0  0  0  0  0  0
  -26.7199  -32.5395   23.1057 H   0  0  0  0  0  0
  -25.0085  -33.9691   25.0393 H   0  0  0  0  0  0
  -22.7264  -31.2999   21.3934 H   0  0  0  0  0  0
  -23.3752  -35.9625   23.3301 H   0  0  0  0  0  0
  -24.3579  -36.8917   22.2053 H   0  0  0  0  0  0
  -23.7254  -37.6488   23.6672 H   0  0  0  0  0  0
  -26.1161  -31.5193   20.6073 H   0  0  0  0  0  0
  -26.8544  -30.8129   22.0128 H   0  0  0  0  0  0
  -28.1093  -28.8941   21.2363 H   0  0  0  0  0  0
  -25.9517  -25.9367   18.9324 H   0  0  0  0  0  0
  -23.9833  -27.3312   18.9598 H   0  0  0  0  0  0
  -23.7730  -30.5918   19.4009 H   0  0  0  0  0  0
  -22.7672  -29.2476   19.8496 H   0  0  0  0  0  0
  -25.1292  -36.1903   25.0817 H   0  0  0  0  0  0
  -20.9995  -28.3287   24.1383 H   0  0  0  0  0  0
  -20.5688  -26.2312   23.3619 H   0  0  0  0  0  0
  -21.6646  -26.7434   22.1194 H   0  0  0  0  0  0
  -19.6922  -25.6292   21.1241 H   0  0  0  0  0  0
  -19.6693  -27.3198   20.6755 H   0  0  0  0  0  0
  -17.4203  -26.6678   21.4026 H   0  0  0  0  0  0
  -18.0324  -26.0077   22.9024 H   0  0  0  0  0  0
  -19.7950  -30.7273   24.2249 H   0  0  0  0  0  0
  -17.5029  -31.6266   24.5170 H   0  0  0  0  0  0
  -15.5362  -30.2982   23.7671 H   0  0  0  0  0  0
  -15.8681  -28.0835   22.7049 H   0  0  0  0  0  0
  -24.5915  -30.7062   25.7789 H   0  0  0  0  0  0
  -24.8910  -32.2903   26.4841 H   0  0  0  0  0  0
  -25.8050  -30.8941   27.0240 H   0  0  0  0  0  0
  -26.2929  -29.6736   24.1224 H   0  0  0  0  0  0
  -27.4018  -29.7246   25.4729 H   0  0  0  0  0  0
  -27.8817  -30.4254   23.9462 H   0  0  0  0  0  0
  -27.2635  -33.3643   26.2044 H   0  0  0  0  0  0
  -28.3871  -32.6881   25.0342 H   0  0  0  0  0  0
  -28.0698  -31.8486   26.5448 H   0  0  0  0  0  0
  -28.2574  -38.0104   24.7506 H   0  0  0  0  0  0
  -28.1083  -36.2624   24.6281 H   0  0  0  0  0  0
  -27.2290  -37.1435   25.8866 H   0  0  0  0  0  0
  -20.9409  -29.8800   21.6883 H   0  0  0  0  0  0
  -26.0159  -38.2836   24.1428 H   0  0  0  0  0  0
  -30.1435  -16.1712   18.1655 H   0  0  0  0  0  0
  -31.0013  -23.1934   22.5031 H   0  0  0  0  0  0
  -32.3815  -23.6234   21.5016 H   0  0  0  0  0  0
  -31.4385  -22.2001   21.1103 H   0  0  0  0  0  0
  -30.8810  -24.1410   19.5783 H   0  0  0  0  0  0
  -30.5104  -25.1111   20.9719 H   0  0  0  0  0  0
  -29.4424  -22.3167   18.8702 H   0  0  0  0  0  0
  -27.8099  -22.1018   19.4386 H   0  0  0  0  0  0
  -28.2199  -24.8208   18.7857 H   0  0  0  0  0  0
  -27.0946  -24.5962   20.0911 H   0  0  0  0  0  0
  -28.6229  -23.5388   21.5364 H   0  0  0  0  0  0
  -28.8279  -21.1663   17.8207 H   0  0  0  0  0  0
  -29.0767  -20.0638   16.5567 H   0  0  0  0  0  0
  -29.0639  -15.6739   21.3590 H   0  0  0  0  0  0
  -29.1997  -20.8918   21.4580 H   0  0  0  0  0  0
  1 25  1  0  0  0
  1 30  2  0  0  0
  1 83  1  0  0  0
  2  3  1  0  0  0
  2 25  1  0  0  0
  2 85  1  0  0  0
  2 86  1  0  0  0
  3  4  1  0  0  0
  3 87  1  0  0  0
  3 88  1  0  0  0
  4  5  1  0  0  0
  4 89  1  0  0  0
  4 90  1  0  0  0
  5  6  1  0  0  0
  5 26  1  0  0  0
  5 91  1  0  0  0
  6 25  1  0  0  0
  6 92  1  0  0  0
  6 93  1  0  0  0
  7  8  2  0  0  0
  7 26  1  0  0  0
  7 29  1  0  0  0
  8  9  1  0  0  0
  8 22  1  0  0  0
  9 10  1  0  0  0
  9 27  2  0  0  0
 10 11  2  0  0  0
 10 15  1  0  0  0
 11 12  1  0  0  0
 11 94  1  0  0  0
 12 13  2  0  0  0
 12 95  1  0  0  0
 13 14  1  0  0  0
 13 31  1  0  0  0
 14 15  2  0  0  0
 14 96  1  0  0  0
 15 97  1  0  0  0
 16 17  2  0  0  0
 16 21  1  0  0  0
 16 31  1  0  0  0
 17 18  1  0  0  0
 17 98  1  0  0  0
 18 19  2  0  0  0
 18 99  1  0  0  0
 19 20  1  0  0  0
 19 24  1  0  0  0
 20 21  2  0  0  0
 20100  1  0  0  0
 21 23  1  0  0  0
 22 28  1  0  0  0
 22 32  2  0  0  0
 26 27  1  0  0  0
 28101  1  0  0  0
 28102  1  0  0  0
 29103  1  0  0  0
 29104  1  0  0  0
 33 34  1  0  0  0
 33 66  1  0  0  0
 33 70  2  0  0  0
 34 36  1  0  0  0
 34 59  1  0  0  0
 34105  1  0  0  0
 35 44  2  0  0  0
 35 45  1  0  0  0
 35 68  1  0  0  0
 36 56  1  0  0  0
 36106  1  0  0  0
 37 39  1  0  0  0
 37 47  1  0  0  0
 37 66  1  0  0  0
 37107  1  0  0  0
 38 43  2  0  0  0
 38 46  1  0  0  0
 38 47  1  0  0  0
 39 64  1  0  0  0
 39 67  2  0  0  0
 40 52  1  0  0  0
 40 53  2  0  0  0
 40 58  1  0  0  0
 41108  1  0  0  0
 41109  1  0  0  0
 41110  1  0  0  0
 41 48  1  0  0  0
 42 43  1  0  0  0
 42 66  1  0  0  0
 42111  1  0  0  0
 42112  1  0  0  0
 43 44  1  0  0  0
 44113  1  0  0  0
 45 46  2  0  0  0
 45114  1  0  0  0
 46115  1  0  0  0
 47116  1  0  0  0
 47117  1  0  0  0
 48 56  1  0  0  0
 48 65  1  0  0  0
 48118  1  0  0  0
 49 50  1  0  0  0
 49 53  1  0  0  0
 49 64  1  0  0  0
 49119  1  0  0  0
 50 51  1  0  0  0
 50120  1  0  0  0
 50121  1  0  0  0
 51 52  1  0  0  0
 51122  1  0  0  0
 51123  1  0  0  0
 52124  1  0  0  0
 52125  1  0  0  0
 53 54  1  0  0  0
 54 55  2  0  0  0
 54126  1  0  0  0
 55 57  1  0  0  0
 55127  1  0  0  0
 56 69  2  0  0  0
 57 58  2  0  0  0
 57128  1  0  0  0
 58129  1  0  0  0
 59 60  1  0  0  0
 59 61  1  0  0  0
 59 62  1  0  0  0
 60130  1  0  0  0
 60131  1  0  0  0
 60132  1  0  0  0
 61133  1  0  0  0
 61134  1  0  0  0
 61135  1  0  0  0
 62136  1  0  0  0
 62137  1  0  0  0
 62138  1  0  0  0
 63 65  1  0  0  0
 63139  1  0  0  0
 63140  1  0  0  0
 63141  1  0  0  0
 64142  1  0  0  0
 65143  1  0  0  0
 68 78  1  0  0  0
 71 72  2  0  0  0
 71 80  1  0  0  0
 71144  1  0  0  0
 72 81  1  0  0  0
 72 83  1  0  0  0
 73 74  1  0  0  0
 73 80  2  0  0  0
 73 82  1  0  0  0
 74 81  2  0  0  0
 74 84  1  0  0  0
 75 76  1  0  0  0
 75145  1  0  0  0
 75146  1  0  0  0
 75147  1  0  0  0
 76148  1  0  0  0
 76149  1  0  0  0
 76 79  1  0  0  0
 77 79  1  0  0  0
 77 84  1  0  0  0
 77150  1  0  0  0
 77151  1  0  0  0
 78 79  1  0  0  0
 78152  1  0  0  0
 78153  1  0  0  0
 79154  1  0  0  0
 82155  1  0  0  0
 82156  1  0  0  0
 83157  1  0  0  0
 84158  1  0  0  0
M  ISO  4   1 100  68 101  78 101  83 100
M  END
> <chiral flag>
0

> <version>
0

> <s_m_source_file>
/data/baiqing/PycharmProjects/Reinvent-master-3.2/result/LINK_invent/BTK/process_docking_weight1_custom_product_contain_oxygen_bond_distance_aromatic_linkinvent_7_9_3/rearranged_h_0195.sdf

> <i_m_source_file_index>
37

> <r_mmod_Potential_Energy-OPLS-2005>
130.486053466797

> <r_mmod_Stretch_Energy-OPLS-2005>
138.649658203125

> <r_mmod_Bend_Energy-OPLS-2005>
192.35627746582

> <r_mmod_Torsional_Energy-OPLS-2005>
250.216293334961

> <r_mmod_Improper_Torsional_Energy-OPLS-2005>
8.94851112365723

> <r_mmod_Van_der_Waal_Energy-OPLS-2005>
152.633605957031

> <r_mmod_Electrostatic_Energy-OPLS-2005>
-464.903991699219

> <r_mmod_Solvation_Energy-OPLS-2005>
-233.24739074707

> <b_mmod_Minimization_Converged-OPLS-2005>
0

> <r_mmod_RMS_Derivative-OPLS-2005>
1.20884358882904

$$$$
37
                    3D
 Structure written by MMmdl.
168176  0  0  1  0            999 V2000
  -30.6446  -14.5854   20.4587 C   0  0  0  0  0  0
  -30.4321  -12.3401   19.4591 C   0  0  0  0  0  0
  -29.5210  -12.4981   18.2237 C   0  0  0  0  0  0
  -28.0376  -12.3578   18.6250 C   0  0  0  0  0  0
  -27.6598  -13.2213   19.8593 C   0  0  2  0  0  0
  -28.6988  -13.0723   20.9946 C   0  0  0  0  0  0
  -25.2610  -13.8190   20.5637 C   0  0  0  0  0  0
  -24.1896  -13.0436   20.9173 C   0  0  0  0  0  0
  -24.6474  -11.6918   20.8738 C   0  0  0  0  0  0
  -23.9123  -10.4292   21.0368 C   0  0  0  0  0  0
  -24.3675   -9.4215   21.9168 C   0  0  0  0  0  0
  -23.6333   -8.2249   22.0737 C   0  0  0  0  0  0
  -22.4314   -8.0282   21.3525 C   0  0  0  0  0  0
  -21.9955   -9.0263   20.4644 C   0  0  0  0  0  0
  -22.7282  -10.2145   20.3033 C   0  0  0  0  0  0
  -21.6863   -6.0746   22.5285 C   0  0  0  0  0  0
  -21.4016   -6.5643   23.8218 C   0  0  0  0  0  0
  -21.3659   -5.6791   24.9186 C   0  0  0  0  0  0
  -21.6051   -4.3053   24.7234 C   0  0  0  0  0  0
  -21.8808   -3.8144   23.4337 C   0  0  0  0  0  0
  -21.9186   -4.6965   22.3409 C   0  0  0  0  0  0
  -22.7916  -13.5215   21.1851 C   0  0  0  0  0  0
  -22.1655   -4.2145   21.0982 F   0  0  0  0  0  0
  -21.5650   -3.4542   25.7750 F   0  0  0  0  0  0
  -30.0263  -13.3660   20.4369 N   0  0  0  0  0  0
  -26.3046  -12.9382   20.3264 N   0  0  0  0  0  0
  -25.9399  -11.6527   20.5722 N   0  0  0  0  0  0
  -22.0510  -12.8245   22.0400 N   0  0  0  0  0  0
  -25.4325  -15.1913   20.4066 N   0  0  0  0  0  0
  -31.8210  -14.7181   20.0983 O   0  0  0  0  0  0
  -21.6638   -6.8911   21.4241 O   0  0  0  0  0  0
  -22.3607  -14.5479   20.6642 O   0  0  0  0  0  0
  -24.6201  -31.8662   23.2114 C   0  0  0  0  0  0
  -25.9070  -32.4825   23.8405 C   0  0  1  0  0  0
  -27.2099  -27.3604   20.0895 C   0  0  0  0  0  0
  -25.5913  -33.8625   24.2300 N   0  0  0  0  0  0
  -23.4098  -30.4940   21.5556 C   0  0  2  0  0  0
  -24.8465  -28.9605   20.1087 C   0  0  0  0  0  0
  -22.7436  -29.4652   22.4993 C   0  0  0  0  0  0
  -18.0281  -28.1423   22.8492 C   0  0  0  0  0  0
  -24.1478  -36.7285   23.2643 C   0  0  0  0  0  0
  -25.9480  -30.7991   21.3857 C   0  0  0  0  0  0
  -26.0112  -29.4343   20.7213 C   0  0  0  0  0  0
  -27.1893  -28.6384   20.7166 C   0  0  0  0  0  0
  -26.0145  -26.9264   19.4662 C   0  0  0  0  0  0
  -24.8504  -27.7133   19.4701 C   0  0  0  0  0  0
  -23.6164  -29.8414   20.1641 C   0  0  0  0  0  0
  -25.4115  -36.3113   24.0338 C   0  0  1  0  0  0
  -20.5866  -28.3707   23.1305 C   0  0  2  0  0  0
  -20.6769  -26.9445   22.5413 C   0  0  0  0  0  0
  -19.5736  -26.6407   21.5227 C   0  0  0  0  0  0
  -18.1924  -26.7961   22.1647 C   0  0  0  0  0  0
  -19.1529  -28.8884   23.2899 C   0  0  0  0  0  0
  -18.9459  -30.1486   23.8917 C   0  0  0  0  0  0
  -17.6463  -30.6632   24.0568 C   0  0  0  0  0  0
  -25.9049  -34.9488   23.5118 C   0  0  0  0  0  0
  -16.5349  -29.9135   23.6336 C   0  0  0  0  0  0
  -16.7270  -28.6556   23.0347 C   0  0  0  0  0  0
  -26.4454  -31.6649   25.0793 C   0  0  0  0  0  0
  -25.3644  -31.3801   26.1492 C   0  0  0  0  0  0
  -27.0271  -30.3067   24.6252 C   0  0  0  0  0  0
  -27.6070  -32.4364   25.7491 C   0  0  0  0  0  0
  -27.5591  -37.1790   24.8468 C   0  0  0  0  0  0
  -21.4161  -29.3048   22.3694 N   0  0  0  0  0  0
  -26.4290  -37.3817   23.9443 N   0  0  0  0  0  0
  -24.6777  -31.0681   22.1078 N   0  0  0  0  0  0
  -23.4167  -28.8201   23.3072 O   0  0  0  0  0  0
  -28.3737  -26.5876   20.1243 O   0  0  0  0  0  0
  -26.5617  -34.8943   22.4682 O   0  0  0  0  0  0
  -23.5383  -32.1465   23.7472 O   0  0  0  0  0  0
  -29.2862  -17.7162   17.9102 C   0  0  0  0  0  0
  -28.8675  -18.9340   18.4767 C   0  0  0  0  0  0
  -28.9284  -19.0181   19.8775 C   0  0  0  0  0  0
  -29.6356  -16.8072   19.9917 C   0  0  0  0  0  0
  -32.2044  -22.5904   21.6766 C   0  0  0  0  0  0
  -33.1529  -22.0287   19.4167 C   0  0  0  0  0  0
  -28.6654  -24.0258   20.4586 C   0  0  0  0  0  0
  -30.8603  -21.1511   20.0327 C   0  0  0  0  0  0
  -28.4591  -25.2613   19.5071 C   0  0  0  0  0  0
  -31.8655  -22.3100   20.2054 C   0  0  0  0  0  0
  -29.4064  -21.4236   20.5195 C   0  0  1  0  0  0
  -28.7057  -22.6206   19.7445 C   0  0  1  0  0  0
  -29.6526  -16.6682   18.6663 N   0  0  0  0  0  0
  -29.2888  -17.9456   20.6278 N   0  0  0  0  0  0
  -28.3878  -19.9855   17.6891 N   0  0  0  0  0  0
  -28.5446  -20.2159   20.5240 N   0  0  0  0  0  0
  -29.8605  -15.6596   20.7508 N   0  0  0  0  0  0
  -27.3676  -22.2291   19.4317 O   0  0  0  0  0  0
  -31.4834  -12.4256   19.1712 H   0  0  0  0  0  0
  -30.3194  -11.3446   19.8882 H   0  0  0  0  0  0
  -29.7824  -11.7527   17.4694 H   0  0  0  0  0  0
  -29.6981  -13.4683   17.7565 H   0  0  0  0  0  0
  -27.8620  -11.3088   18.8563 H   0  0  0  0  0  0
  -27.3927  -12.5919   17.7782 H   0  0  0  0  0  0
  -27.6818  -14.2586   19.5226 H   0  0  0  0  0  0
  -28.6881  -12.0653   21.4108 H   0  0  0  0  0  0
  -28.4669  -13.7465   21.8184 H   0  0  0  0  0  0
  -25.2792   -9.5704   22.4788 H   0  0  0  0  0  0
  -24.0025   -7.4651   22.7467 H   0  0  0  0  0  0
  -21.0864   -8.8798   19.9005 H   0  0  0  0  0  0
  -22.3687  -10.9709   19.6182 H   0  0  0  0  0  0
  -21.1993   -7.6150   23.9730 H   0  0  0  0  0  0
  -21.1514   -6.0519   25.9102 H   0  0  0  0  0  0
  -22.0585   -2.7595   23.2837 H   0  0  0  0  0  0
  -22.4054  -11.9934   22.4899 H   0  0  0  0  0  0
  -21.1122  -13.1362   22.2535 H   0  0  0  0  0  0
  -24.6638  -15.8436   20.5126 H   0  0  0  0  0  0
  -26.2728  -15.6234   20.0492 H   0  0  0  0  0  0
  -26.7140  -32.5466   23.1160 H   0  0  0  0  0  0
  -25.0036  -33.9784   25.0425 H   0  0  0  0  0  0
  -22.7039  -31.3175   21.4275 H   0  0  0  0  0  0
  -23.3778  -35.9571   23.3297 H   0  0  0  0  0  0
  -24.3560  -36.8906   22.2053 H   0  0  0  0  0  0
  -23.7162  -37.6465   23.6647 H   0  0  0  0  0  0
  -26.0837  -31.5688   20.6257 H   0  0  0  0  0  0
  -26.8248  -30.8329   22.0200 H   0  0  0  0  0  0
  -28.0782  -28.9955   21.2153 H   0  0  0  0  0  0
  -25.9139  -25.9842   18.9560 H   0  0  0  0  0  0
  -23.9595  -27.3533   18.9731 H   0  0  0  0  0  0
  -23.7351  -30.6277   19.4169 H   0  0  0  0  0  0
  -22.7308  -29.2793   19.8600 H   0  0  0  0  0  0
  -25.1285  -36.1977   25.0830 H   0  0  0  0  0  0
  -20.9981  -28.3291   24.1413 H   0  0  0  0  0  0
  -20.5698  -26.2329   23.3619 H   0  0  0  0  0  0
  -21.6637  -26.7501   22.1181 H   0  0  0  0  0  0
  -19.6896  -25.6312   21.1283 H   0  0  0  0  0  0
  -19.6676  -27.3193   20.6737 H   0  0  0  0  0  0
  -17.4184  -26.6695   21.4074 H   0  0  0  0  0  0
  -18.0350  -26.0127   22.9074 H   0  0  0  0  0  0
  -19.7942  -30.7301   24.2295 H   0  0  0  0  0  0
  -17.5031  -31.6322   24.5172 H   0  0  0  0  0  0
  -15.5358  -30.3055   23.7669 H   0  0  0  0  0  0
  -15.8665  -28.0905   22.7038 H   0  0  0  0  0  0
  -24.5867  -30.7102   25.7807 H   0  0  0  0  0  0
  -24.8753  -32.2955   26.4835 H   0  0  0  0  0  0
  -25.7925  -30.9045   27.0322 H   0  0  0  0  0  0
  -26.2852  -29.6878   24.1193 H   0  0  0  0  0  0
  -27.3852  -29.7299   25.4791 H   0  0  0  0  0  0
  -27.8785  -30.4366   23.9564 H   0  0  0  0  0  0
  -27.2751  -33.3669   26.2106 H   0  0  0  0  0  0
  -28.3810  -32.6909   25.0236 H   0  0  0  0  0  0
  -28.0811  -31.8454   26.5340 H   0  0  0  0  0  0
  -28.2625  -38.0076   24.7542 H   0  0  0  0  0  0
  -28.1061  -36.2615   24.6249 H   0  0  0  0  0  0
  -27.2316  -37.1405   25.8870 H   0  0  0  0  0  0
  -20.9349  -29.8746   21.6875 H   0  0  0  0  0  0
  -26.0182  -38.2884   24.1493 H   0  0  0  0  0  0
  -29.2994  -17.5820   16.8381 H   0  0  0  0  0  0
  -32.7912  -23.5060   21.7732 H   0  0  0  0  0  0
  -32.7935  -21.7770   22.1061 H   0  0  0  0  0  0
  -31.3141  -22.7177   22.2889 H   0  0  0  0  0  0
  -33.8698  -22.8444   19.5188 H   0  0  0  0  0  0
  -32.9464  -21.9014   18.3539 H   0  0  0  0  0  0
  -33.6460  -21.1220   19.7698 H   0  0  0  0  0  0
  -27.8956  -24.0118   21.2323 H   0  0  0  0  0  0
  -29.6076  -24.1766   20.9851 H   0  0  0  0  0  0
  -31.2670  -20.2762   20.5434 H   0  0  0  0  0  0
  -30.8325  -20.8897   18.9729 H   0  0  0  0  0  0
  -27.6519  -25.0359   18.8194 H   0  0  0  0  0  0
  -29.3311  -25.3059   18.8522 H   0  0  0  0  0  0
  -31.4200  -23.2097   19.7820 H   0  0  0  0  0  0
  -29.4675  -21.7008   21.5711 H   0  0  0  0  0  0
  -29.2173  -22.7515   18.7885 H   0  0  0  0  0  0
  -28.0278  -19.7656   16.7655 H   0  0  0  0  0  0
  -27.8689  -20.7298   18.1594 H   0  0  0  0  0  0
  -27.7507  -20.6111   20.0139 H   0  0  0  0  0  0
  -29.1062  -15.4541   21.3859 H   0  0  0  0  0  0
  -26.9441  -22.9499   18.9766 H   0  0  0  0  0  0
  1 25  1  0  0  0
  1 30  2  0  0  0
  1 87  1  0  0  0
  2  3  1  0  0  0
  2 25  1  0  0  0
  2 89  1  0  0  0
  2 90  1  0  0  0
  3  4  1  0  0  0
  3 91  1  0  0  0
  3 92  1  0  0  0
  4  5  1  0  0  0
  4 93  1  0  0  0
  4 94  1  0  0  0
  5  6  1  0  0  0
  5 26  1  0  0  0
  5 95  1  0  0  0
  6 25  1  0  0  0
  6 96  1  0  0  0
  6 97  1  0  0  0
  7  8  2  0  0  0
  7 26  1  0  0  0
  7 29  1  0  0  0
  8  9  1  0  0  0
  8 22  1  0  0  0
  9 10  1  0  0  0
  9 27  2  0  0  0
 10 11  2  0  0  0
 10 15  1  0  0  0
 11 12  1  0  0  0
 11 98  1  0  0  0
 12 13  2  0  0  0
 12 99  1  0  0  0
 13 14  1  0  0  0
 13 31  1  0  0  0
 14 15  2  0  0  0
 14100  1  0  0  0
 15101  1  0  0  0
 16 17  2  0  0  0
 16 21  1  0  0  0
 16 31  1  0  0  0
 17 18  1  0  0  0
 17102  1  0  0  0
 18 19  2  0  0  0
 18103  1  0  0  0
 19 20  1  0  0  0
 19 24  1  0  0  0
 20 21  2  0  0  0
 20104  1  0  0  0
 21 23  1  0  0  0
 22 28  1  0  0  0
 22 32  2  0  0  0
 26 27  1  0  0  0
 28105  1  0  0  0
 28106  1  0  0  0
 29107  1  0  0  0
 29108  1  0  0  0
 33 34  1  0  0  0
 33 66  1  0  0  0
 33 70  2  0  0  0
 34 36  1  0  0  0
 34 59  1  0  0  0
 34109  1  0  0  0
 35 44  2  0  0  0
 35 45  1  0  0  0
 35 68  1  0  0  0
 36 56  1  0  0  0
 36110  1  0  0  0
 37 39  1  0  0  0
 37 47  1  0  0  0
 37 66  1  0  0  0
 37111  1  0  0  0
 38 43  2  0  0  0
 38 46  1  0  0  0
 38 47  1  0  0  0
 39 64  1  0  0  0
 39 67  2  0  0  0
 40 52  1  0  0  0
 40 53  2  0  0  0
 40 58  1  0  0  0
 41112  1  0  0  0
 41113  1  0  0  0
 41114  1  0  0  0
 41 48  1  0  0  0
 42 43  1  0  0  0
 42 66  1  0  0  0
 42115  1  0  0  0
 42116  1  0  0  0
 43 44  1  0  0  0
 44117  1  0  0  0
 45 46  2  0  0  0
 45118  1  0  0  0
 46119  1  0  0  0
 47120  1  0  0  0
 47121  1  0  0  0
 48 56  1  0  0  0
 48 65  1  0  0  0
 48122  1  0  0  0
 49 50  1  0  0  0
 49 53  1  0  0  0
 49 64  1  0  0  0
 49123  1  0  0  0
 50 51  1  0  0  0
 50124  1  0  0  0
 50125  1  0  0  0
 51 52  1  0  0  0
 51126  1  0  0  0
 51127  1  0  0  0
 52128  1  0  0  0
 52129  1  0  0  0
 53 54  1  0  0  0
 54 55  2  0  0  0
 54130  1  0  0  0
 55 57  1  0  0  0
 55131  1  0  0  0
 56 69  2  0  0  0
 57 58  2  0  0  0
 57132  1  0  0  0
 58133  1  0  0  0
 59 60  1  0  0  0
 59 61  1  0  0  0
 59 62  1  0  0  0
 60134  1  0  0  0
 60135  1  0  0  0
 60136  1  0  0  0
 61137  1  0  0  0
 61138  1  0  0  0
 61139  1  0  0  0
 62140  1  0  0  0
 62141  1  0  0  0
 62142  1  0  0  0
 63 65  1  0  0  0
 63143  1  0  0  0
 63144  1  0  0  0
 63145  1  0  0  0
 64146  1  0  0  0
 65147  1  0  0  0
 68 79  1  0  0  0
 71 72  2  0  0  0
 71 83  1  0  0  0
 71148  1  0  0  0
 72 73  1  0  0  0
 72 85  1  0  0  0
 73 84  2  0  0  0
 73 86  1  0  0  0
 74 83  2  0  0  0
 74 84  1  0  0  0
 74 87  1  0  0  0
 75149  1  0  0  0
 75150  1  0  0  0
 75151  1  0  0  0
 75 80  1  0  0  0
 76 80  1  0  0  0
 76152  1  0  0  0
 76153  1  0  0  0
 76154  1  0  0  0
 77 79  1  0  0  0
 77 82  1  0  0  0
 77155  1  0  0  0
 77156  1  0  0  0
 78 80  1  0  0  0
 78157  1  0  0  0
 78158  1  0  0  0
 78 81  1  0  0  0
 79159  1  0  0  0
 79160  1  0  0  0
 80161  1  0  0  0
 81 82  1  0  0  0
 81 86  1  0  0  0
 81162  1  0  0  0
 82 88  1  0  0  0
 82163  1  0  0  0
 85164  1  0  0  0
 85165  1  0  0  0
 86166  1  0  0  0
 87167  1  0  0  0
 88168  1  0  0  0
M  ISO  4   1 100  68 101  79 101  87 100
M  END
> <chiral flag>
0

> <version>
0

> <s_m_source_file>
/data/baiqing/PycharmProjects/Reinvent-master-3.2/result/LINK_invent/BTK/process_docking_weight1_custom_product_contain_oxygen_bond_distance_aromatic_linkinvent_7_9_3/rearranged_h_0195.sdf

> <i_m_source_file_index>
38

> <r_mmod_Potential_Energy-OPLS-2005>
-431.090545654297

> <r_mmod_Stretch_Energy-OPLS-2005>
58.1135635375977

> <r_mmod_Bend_Energy-OPLS-2005>
147.695526123047

> <r_mmod_Torsional_Energy-OPLS-2005>
316.229339599609

> <r_mmod_Improper_Torsional_Energy-OPLS-2005>
16.2066020965576

> <r_mmod_Van_der_Waal_Energy-OPLS-2005>
170.031921386719

> <r_mmod_Electrostatic_Energy-OPLS-2005>
-925.180419921875

> <r_mmod_Solvation_Energy-OPLS-2005>
-248.203598022461

> <b_mmod_Minimization_Converged-OPLS-2005>
0

> <r_mmod_RMS_Derivative-OPLS-2005>
5.47292375564575

$$$$
38
                    3D
 Structure written by MMmdl.
159167  0  0  1  0            999 V2000
  -30.6291  -14.6384   20.5166 C   0  0  0  0  0  0
  -30.4427  -12.4016   19.4413 C   0  0  0  0  0  0
  -29.5028  -12.4988   18.2172 C   0  0  0  0  0  0
  -28.0247  -12.3474   18.6331 C   0  0  0  0  0  0
  -27.6529  -13.2138   19.8638 C   0  0  2  0  0  0
  -28.7018  -13.0748   20.9912 C   0  0  0  0  0  0
  -25.2565  -13.8165   20.5726 C   0  0  0  0  0  0
  -24.1836  -13.0428   20.9258 C   0  0  0  0  0  0
  -24.6395  -11.6908   20.8760 C   0  0  0  0  0  0
  -23.9042  -10.4302   21.0413 C   0  0  0  0  0  0
  -24.3606   -9.4221   21.9190 C   0  0  0  0  0  0
  -23.6298   -8.2241   22.0744 C   0  0  0  0  0  0
  -22.4285   -8.0285   21.3522 C   0  0  0  0  0  0
  -21.9908   -9.0260   20.4630 C   0  0  0  0  0  0
  -22.7220  -10.2148   20.3054 C   0  0  0  0  0  0
  -21.6857   -6.0745   22.5273 C   0  0  0  0  0  0
  -21.4033   -6.5644   23.8215 C   0  0  0  0  0  0
  -21.3658   -5.6791   24.9176 C   0  0  0  0  0  0
  -21.6040   -4.3050   24.7222 C   0  0  0  0  0  0
  -21.8828   -3.8152   23.4338 C   0  0  0  0  0  0
  -21.9200   -4.6975   22.3398 C   0  0  0  0  0  0
  -22.7862  -13.5239   21.1909 C   0  0  0  0  0  0
  -22.1670   -4.2168   21.0975 F   0  0  0  0  0  0
  -21.5614   -3.4524   25.7724 F   0  0  0  0  0  0
  -30.0119  -13.4198   20.4181 N   0  0  0  0  0  0
  -26.2981  -12.9330   20.3328 N   0  0  0  0  0  0
  -25.9322  -11.6484   20.5760 N   0  0  0  0  0  0
  -22.0484  -12.8206   22.0436 N   0  0  0  0  0  0
  -25.4247  -15.1884   20.4123 N   0  0  0  0  0  0
  -31.8054  -14.8016   20.1837 O   0  0  0  0  0  0
  -21.6654   -6.8880   21.4229 O   0  0  0  0  0  0
  -22.3542  -14.5530   20.6742 O   0  0  0  0  0  0
  -24.6245  -31.8585   23.2044 C   0  0  0  0  0  0
  -25.9098  -32.4782   23.8362 C   0  0  1  0  0  0
  -27.2219  -27.3322   20.1242 C   0  0  0  0  0  0
  -25.5922  -33.8586   24.2300 N   0  0  0  0  0  0
  -23.4167  -30.4828   21.5462 C   0  0  2  0  0  0
  -24.8633  -28.9372   20.1128 C   0  0  0  0  0  0
  -22.7460  -29.4609   22.4947 C   0  0  0  0  0  0
  -18.0287  -28.1392   22.8484 C   0  0  0  0  0  0
  -24.1480  -36.7293   23.2636 C   0  0  0  0  0  0
  -25.9555  -30.7975   21.3682 C   0  0  0  0  0  0
  -26.0307  -29.4239   20.7150 C   0  0  0  0  0  0
  -27.2152  -28.6332   20.7083 C   0  0  0  0  0  0
  -26.0395  -26.8940   19.4910 C   0  0  0  0  0  0
  -24.8691  -27.6788   19.4892 C   0  0  0  0  0  0
  -23.6299  -29.8151   20.1625 C   0  0  0  0  0  0
  -25.4108  -36.3094   24.0332 C   0  0  1  0  0  0
  -20.5880  -28.3668   23.1315 C   0  0  2  0  0  0
  -20.6773  -26.9405   22.5424 C   0  0  0  0  0  0
  -19.5759  -26.6392   21.5226 C   0  0  0  0  0  0
  -18.1932  -26.7937   22.1624 C   0  0  0  0  0  0
  -19.1539  -28.8846   23.2896 C   0  0  0  0  0  0
  -18.9463  -30.1455   23.8905 C   0  0  0  0  0  0
  -17.6465  -30.6594   24.0574 C   0  0  0  0  0  0
  -25.9039  -34.9458   23.5111 C   0  0  0  0  0  0
  -16.5355  -29.9088   23.6334 C   0  0  0  0  0  0
  -16.7274  -28.6504   23.0352 C   0  0  0  0  0  0
  -26.4501  -31.6573   25.0709 C   0  0  0  0  0  0
  -25.3746  -31.3685   26.1436 C   0  0  0  0  0  0
  -27.0339  -30.3014   24.6111 C   0  0  0  0  0  0
  -27.6078  -32.4287   25.7473 C   0  0  0  0  0  0
  -27.5582  -37.1808   24.8471 C   0  0  0  0  0  0
  -21.4163  -29.3041   22.3716 N   0  0  0  0  0  0
  -26.4299  -37.3785   23.9407 N   0  0  0  0  0  0
  -24.6849  -31.0619   22.0981 N   0  0  0  0  0  0
  -23.4190  -28.8138   23.3014 O   0  0  0  0  0  0
  -28.3486  -26.5041   20.1409 O   0  0  0  0  0  0
  -26.5600  -34.8922   22.4672 O   0  0  0  0  0  0
  -23.5418  -32.1350   23.7401 O   0  0  0  0  0  0
  -28.7702  -17.9409   21.3577 C   0  0  0  0  0  0
  -30.5435  -19.2324   19.7870 C   0  0  0  0  0  0
  -28.9515  -21.3420   20.0070 C   0  0  0  0  0  0
  -30.0670  -17.1520   21.0766 C   0  0  2  0  0  0
  -29.5940  -20.0731   20.6637 C   0  0  1  0  0  0
  -28.5216  -23.9234   18.2607 C   0  0  0  0  0  0
  -28.1818  -25.0867   20.5410 C   0  0  0  0  0  0
  -28.9997  -24.0054   19.7184 C   0  0  1  0  0  0
  -28.5286  -19.1911   21.1550 N   0  0  0  0  0  0
  -30.7160  -17.8884   19.9711 N   0  3  0  0  0  0
  -31.2286  -19.8460   18.8054 N   0  0  0  0  0  0
  -28.0475  -21.0983   19.0415 N   0  0  0  0  0  0
  -29.8120  -15.6927   20.7996 N   0  0  0  0  0  0
  -29.2745  -22.6420   20.3566 N   0  3  0  0  0  0
  -31.4825  -12.5441   19.1375 H   0  0  0  0  0  0
  -30.3910  -11.4065   19.8864 H   0  0  0  0  0  0
  -29.7612  -11.7326   17.4844 H   0  0  0  0  0  0
  -29.6427  -13.4579   17.7170 H   0  0  0  0  0  0
  -27.8482  -11.2943   18.8524 H   0  0  0  0  0  0
  -27.3669  -12.5955   17.7981 H   0  0  0  0  0  0
  -27.6678  -14.2489   19.5235 H   0  0  0  0  0  0
  -28.7199  -12.0580   21.3843 H   0  0  0  0  0  0
  -28.4541  -13.7118   21.8421 H   0  0  0  0  0  0
  -25.2754   -9.5715   22.4765 H   0  0  0  0  0  0
  -24.0030   -7.4628   22.7449 H   0  0  0  0  0  0
  -21.0843   -8.8771   19.8928 H   0  0  0  0  0  0
  -22.3676  -10.9690   19.6176 H   0  0  0  0  0  0
  -21.2050   -7.6155   23.9723 H   0  0  0  0  0  0
  -21.1459   -6.0522   25.9077 H   0  0  0  0  0  0
  -22.0609   -2.7613   23.2830 H   0  0  0  0  0  0
  -22.4087  -11.9878   22.4831 H   0  0  0  0  0  0
  -21.1096  -13.1212   22.2596 H   0  0  0  0  0  0
  -24.6492  -15.8302   20.5420 H   0  0  0  0  0  0
  -26.2183  -15.6137   19.9513 H   0  0  0  0  0  0
  -26.7163  -32.5484   23.1110 H   0  0  0  0  0  0
  -25.0105  -33.9716   25.0472 H   0  0  0  0  0  0
  -22.7114  -31.3045   21.4050 H   0  0  0  0  0  0
  -23.3749  -35.9621   23.3295 H   0  0  0  0  0  0
  -24.3584  -36.8911   22.2056 H   0  0  0  0  0  0
  -23.7225  -37.6496   23.6645 H   0  0  0  0  0  0
  -26.0780  -31.5586   20.5958 H   0  0  0  0  0  0
  -26.8413  -30.8565   21.9908 H   0  0  0  0  0  0
  -28.1159  -29.0025   21.1795 H   0  0  0  0  0  0
  -26.0135  -25.9352   18.9926 H   0  0  0  0  0  0
  -23.9754  -27.3081   19.0050 H   0  0  0  0  0  0
  -23.7455  -30.5916   19.4057 H   0  0  0  0  0  0
  -22.7516  -29.2392   19.8629 H   0  0  0  0  0  0
  -25.1291  -36.1949   25.0831 H   0  0  0  0  0  0
  -20.9973  -28.3258   24.1434 H   0  0  0  0  0  0
  -20.5686  -26.2262   23.3597 H   0  0  0  0  0  0
  -21.6623  -26.7457   22.1181 H   0  0  0  0  0  0
  -19.6924  -25.6298   21.1262 H   0  0  0  0  0  0
  -19.6720  -27.3212   20.6761 H   0  0  0  0  0  0
  -17.4204  -26.6675   21.4024 H   0  0  0  0  0  0
  -18.0339  -26.0078   22.9028 H   0  0  0  0  0  0
  -19.7941  -30.7262   24.2285 H   0  0  0  0  0  0
  -17.5025  -31.6283   24.5162 H   0  0  0  0  0  0
  -15.5353  -30.2986   23.7663 H   0  0  0  0  0  0
  -15.8679  -28.0825   22.7054 H   0  0  0  0  0  0
  -24.5953  -30.6987   25.7772 H   0  0  0  0  0  0
  -24.8883  -32.2829   26.4841 H   0  0  0  0  0  0
  -25.8091  -30.8896   27.0212 H   0  0  0  0  0  0
  -26.2897  -29.6775   24.1144 H   0  0  0  0  0  0
  -27.4081  -29.7257   25.4583 H   0  0  0  0  0  0
  -27.8736  -30.4323   23.9288 H   0  0  0  0  0  0
  -27.2721  -33.3600   26.2030 H   0  0  0  0  0  0
  -28.3906  -32.6801   25.0312 H   0  0  0  0  0  0
  -28.0698  -31.8393   26.5396 H   0  0  0  0  0  0
  -28.2605  -38.0099   24.7529 H   0  0  0  0  0  0
  -28.1076  -36.2638   24.6289 H   0  0  0  0  0  0
  -27.2300  -37.1457   25.8874 H   0  0  0  0  0  0
  -20.9317  -29.8764   21.6939 H   0  0  0  0  0  0
  -26.0179  -38.2858   24.1422 H   0  0  0  0  0  0
  -27.9784  -17.3061   21.7647 H   0  0  0  0  0  0
  -30.7032  -17.2290   21.9607 H   0  0  0  0  0  0
  -30.1745  -20.4236   21.5194 H   0  0  0  0  0  0
  -28.7217  -24.8642   17.7464 H   0  0  0  0  0  0
  -27.4500  -23.7354   18.1990 H   0  0  0  0  0  0
  -29.0493  -23.1473   17.7066 H   0  0  0  0  0  0
  -28.4964  -25.0257   21.5829 H   0  0  0  0  0  0
  -27.1335  -24.7877   20.5539 H   0  0  0  0  0  0
  -30.0024  -24.4285   19.6646 H   0  0  0  0  0  0
  -31.3889  -17.3768   19.4230 H   0  0  0  0  0  0
  -31.1227  -20.8391   18.6492 H   0  0  0  0  0  0
  -31.8740  -19.3659   18.1958 H   0  0  0  0  0  0
  -27.5769  -21.8289   18.5335 H   0  0  0  0  0  0
  -27.7710  -20.1419   18.8642 H   0  0  0  0  0  0
  -28.8652  -15.4082   20.9926 H   0  0  0  0  0  0
  -29.8758  -22.7171   21.1683 H   0  0  0  0  0  0
  1 25  1  0  0  0
  1 30  2  0  0  0
  1 83  1  0  0  0
  2  3  1  0  0  0
  2 25  1  0  0  0
  2 85  1  0  0  0
  2 86  1  0  0  0
  3  4  1  0  0  0
  3 87  1  0  0  0
  3 88  1  0  0  0
  4  5  1  0  0  0
  4 89  1  0  0  0
  4 90  1  0  0  0
  5  6  1  0  0  0
  5 26  1  0  0  0
  5 91  1  0  0  0
  6 25  1  0  0  0
  6 92  1  0  0  0
  6 93  1  0  0  0
  7  8  2  0  0  0
  7 26  1  0  0  0
  7 29  1  0  0  0
  8  9  1  0  0  0
  8 22  1  0  0  0
  9 10  1  0  0  0
  9 27  2  0  0  0
 10 11  2  0  0  0
 10 15  1  0  0  0
 11 12  1  0  0  0
 11 94  1  0  0  0
 12 13  2  0  0  0
 12 95  1  0  0  0
 13 14  1  0  0  0
 13 31  1  0  0  0
 14 15  2  0  0  0
 14 96  1  0  0  0
 15 97  1  0  0  0
 16 17  2  0  0  0
 16 21  1  0  0  0
 16 31  1  0  0  0
 17 18  1  0  0  0
 17 98  1  0  0  0
 18 19  2  0  0  0
 18 99  1  0  0  0
 19 20  1  0  0  0
 19 24  1  0  0  0
 20 21  2  0  0  0
 20100  1  0  0  0
 21 23  1  0  0  0
 22 28  1  0  0  0
 22 32  2  0  0  0
 26 27  1  0  0  0
 28101  1  0  0  0
 28102  1  0  0  0
 29103  1  0  0  0
 29104  1  0  0  0
 33 34  1  0  0  0
 33 66  1  0  0  0
 33 70  2  0  0  0
 34 36  1  0  0  0
 34 59  1  0  0  0
 34105  1  0  0  0
 35 44  2  0  0  0
 35 45  1  0  0  0
 35 68  1  0  0  0
 36 56  1  0  0  0
 36106  1  0  0  0
 37 39  1  0  0  0
 37 47  1  0  0  0
 37 66  1  0  0  0
 37107  1  0  0  0
 38 43  2  0  0  0
 38 46  1  0  0  0
 38 47  1  0  0  0
 39 64  1  0  0  0
 39 67  2  0  0  0
 40 52  1  0  0  0
 40 53  2  0  0  0
 40 58  1  0  0  0
 41108  1  0  0  0
 41109  1  0  0  0
 41110  1  0  0  0
 41 48  1  0  0  0
 42 43  1  0  0  0
 42 66  1  0  0  0
 42111  1  0  0  0
 42112  1  0  0  0
 43 44  1  0  0  0
 44113  1  0  0  0
 45 46  2  0  0  0
 45114  1  0  0  0
 46115  1  0  0  0
 47116  1  0  0  0
 47117  1  0  0  0
 48 56  1  0  0  0
 48 65  1  0  0  0
 48118  1  0  0  0
 49 50  1  0  0  0
 49 53  1  0  0  0
 49 64  1  0  0  0
 49119  1  0  0  0
 50 51  1  0  0  0
 50120  1  0  0  0
 50121  1  0  0  0
 51 52  1  0  0  0
 51122  1  0  0  0
 51123  1  0  0  0
 52124  1  0  0  0
 52125  1  0  0  0
 53 54  1  0  0  0
 54 55  2  0  0  0
 54126  1  0  0  0
 55 57  1  0  0  0
 55127  1  0  0  0
 56 69  2  0  0  0
 57 58  2  0  0  0
 57128  1  0  0  0
 58129  1  0  0  0
 59 60  1  0  0  0
 59 61  1  0  0  0
 59 62  1  0  0  0
 60130  1  0  0  0
 60131  1  0  0  0
 60132  1  0  0  0
 61133  1  0  0  0
 61134  1  0  0  0
 61135  1  0  0  0
 62136  1  0  0  0
 62137  1  0  0  0
 62138  1  0  0  0
 63 65  1  0  0  0
 63139  1  0  0  0
 63140  1  0  0  0
 63141  1  0  0  0
 64142  1  0  0  0
 65143  1  0  0  0
 68 77  1  0  0  0
 71 74  1  0  0  0
 71 79  2  0  0  0
 71144  1  0  0  0
 72 75  1  0  0  0
 72 80  2  0  0  0
 72 81  1  0  0  0
 73 82  1  0  0  0
 73 84  2  0  0  0
 73 75  1  0  0  0
 74 80  1  0  0  0
 74 83  1  0  0  0
 74145  1  0  0  0
 75 79  1  0  0  0
 75146  1  0  0  0
 76147  1  0  0  0
 76148  1  0  0  0
 76149  1  0  0  0
 76 78  1  0  0  0
 77 78  1  0  0  0
 77150  1  0  0  0
 77151  1  0  0  0
 78 84  1  0  0  0
 78152  1  0  0  0
 80153  1  0  0  0
 81154  1  0  0  0
 81155  1  0  0  0
 82156  1  0  0  0
 82157  1  0  0  0
 83158  1  0  0  0
 84159  1  0  0  0
M  CHG  2  80   1  84   1
M  ISO  4   1 100  68 101  77 101  83 100
M  END
> <chiral flag>
0

> <version>
0

> <s_m_source_file>
/data/baiqing/PycharmProjects/Reinvent-master-3.2/result/LINK_invent/BTK/process_docking_weight1_custom_product_contain_oxygen_bond_distance_aromatic_linkinvent_7_9_3/rearranged_h_0195.sdf

> <i_m_source_file_index>
39

> <r_mmod_Potential_Energy-OPLS-2005>
-153.94255065918

> <r_mmod_Stretch_Energy-OPLS-2005>
80.7025833129883

> <r_mmod_Bend_Energy-OPLS-2005>
146.738586425781

> <r_mmod_Torsional_Energy-OPLS-2005>
200.047454833984

> <r_mmod_Improper_Torsional_Energy-OPLS-2005>
5.47030305862427

> <r_mmod_Van_der_Waal_Energy-OPLS-2005>
126.268074035645

> <r_mmod_Electrostatic_Energy-OPLS-2005>
242.393615722656

> <r_mmod_Solvation_Energy-OPLS-2005>
-1001.13330078125

> <b_mmod_Minimization_Converged-OPLS-2005>
0

> <r_mmod_RMS_Derivative-OPLS-2005>
3.34715247154236

$$$$
39
                    3D
 Structure written by MMmdl.
152160  0  0  1  0            999 V2000
  -30.6190  -14.7426   20.4405 C   0  0  0  0  0  0
  -30.4298  -12.4451   19.4894 C   0  0  0  0  0  0
  -29.5153  -12.5051   18.2453 C   0  0  0  0  0  0
  -28.0391  -12.3348   18.6527 C   0  0  0  0  0  0
  -27.6433  -13.2351   19.8535 C   0  0  2  0  0  0
  -28.6852  -13.1727   20.9930 C   0  0  0  0  0  0
  -25.2510  -13.8205   20.5703 C   0  0  0  0  0  0
  -24.1801  -13.0445   20.9207 C   0  0  0  0  0  0
  -24.6395  -11.6924   20.8743 C   0  0  0  0  0  0
  -23.9072  -10.4296   21.0400 C   0  0  0  0  0  0
  -24.3622   -9.4212   21.9178 C   0  0  0  0  0  0
  -23.6297   -8.2246   22.0751 C   0  0  0  0  0  0
  -22.4281   -8.0281   21.3542 C   0  0  0  0  0  0
  -21.9913   -9.0256   20.4647 C   0  0  0  0  0  0
  -22.7242  -10.2137   20.3053 C   0  0  0  0  0  0
  -21.6856   -6.0736   22.5278 C   0  0  0  0  0  0
  -21.4018   -6.5640   23.8213 C   0  0  0  0  0  0
  -21.3660   -5.6792   24.9174 C   0  0  0  0  0  0
  -21.6042   -4.3054   24.7225 C   0  0  0  0  0  0
  -21.8818   -3.8147   23.4345 C   0  0  0  0  0  0
  -21.9193   -4.6963   22.3403 C   0  0  0  0  0  0
  -22.7818  -13.5224   21.1863 C   0  0  0  0  0  0
  -22.1660   -4.2149   21.0978 F   0  0  0  0  0  0
  -21.5627   -3.4537   25.7737 F   0  0  0  0  0  0
  -29.9917  -13.5149   20.4178 N   0  0  0  0  0  0
  -26.2942  -12.9421   20.3289 N   0  0  0  0  0  0
  -25.9330  -11.6559   20.5752 N   0  0  0  0  0  0
  -22.0461  -12.8220   22.0420 N   0  0  0  0  0  0
  -25.4194  -15.1929   20.4131 N   0  0  0  0  0  0
  -31.8095  -14.8104   20.1164 O   0  0  0  0  0  0
  -21.6642   -6.8879   21.4243 O   0  0  0  0  0  0
  -22.3503  -14.5525   20.6703 O   0  0  0  0  0  0
  -24.6318  -31.8557   23.1998 C   0  0  0  0  0  0
  -25.9146  -32.4756   23.8340 C   0  0  1  0  0  0
  -27.2117  -27.2544   20.1275 C   0  0  0  0  0  0
  -25.5941  -33.8560   24.2261 N   0  0  0  0  0  0
  -23.4279  -30.4811   21.5426 C   0  0  2  0  0  0
  -24.8742  -28.9331   20.1052 C   0  0  0  0  0  0
  -22.7501  -29.4615   22.4900 C   0  0  0  0  0  0
  -18.0293  -28.1385   22.8477 C   0  0  0  0  0  0
  -24.1489  -36.7286   23.2640 C   0  0  0  0  0  0
  -25.9752  -30.7656   21.3826 C   0  0  0  0  0  0
  -26.0459  -29.3890   20.7221 C   0  0  0  0  0  0
  -27.2160  -28.5611   20.7261 C   0  0  0  0  0  0
  -26.0226  -26.8846   19.4559 C   0  0  0  0  0  0
  -24.8690  -27.6897   19.4595 C   0  0  0  0  0  0
  -23.6455  -29.8202   20.1567 C   0  0  0  0  0  0
  -25.4114  -36.3072   24.0327 C   0  0  1  0  0  0
  -20.5896  -28.3706   23.1254 C   0  0  2  0  0  0
  -20.6779  -26.9422   22.5398 C   0  0  0  0  0  0
  -19.5757  -26.6382   21.5201 C   0  0  0  0  0  0
  -18.1939  -26.7926   22.1617 C   0  0  0  0  0  0
  -19.1545  -28.8861   23.2863 C   0  0  0  0  0  0
  -18.9469  -30.1458   23.8888 C   0  0  0  0  0  0
  -17.6469  -30.6588   24.0559 C   0  0  0  0  0  0
  -25.9057  -34.9442   23.5095 C   0  0  0  0  0  0
  -16.5360  -29.9085   23.6328 C   0  0  0  0  0  0
  -16.7280  -28.6500   23.0352 C   0  0  0  0  0  0
  -26.4506  -31.6582   25.0733 C   0  0  0  0  0  0
  -25.3725  -31.3733   26.1450 C   0  0  0  0  0  0
  -27.0360  -30.2998   24.6233 C   0  0  0  0  0  0
  -27.6057  -32.4324   25.7508 C   0  0  0  0  0  0
  -27.5577  -37.1801   24.8466 C   0  0  0  0  0  0
  -21.4208  -29.3055   22.3643 N   0  0  0  0  0  0
  -26.4290  -37.3770   23.9408 N   0  0  0  0  0  0
  -24.6974  -31.0521   22.0976 N   0  0  0  0  0  0
  -23.4198  -28.8150   23.2998 O   0  0  0  0  0  0
  -28.2881  -26.3345   20.2176 O   0  0  0  0  0  0
  -26.5628  -34.8916   22.4663 O   0  0  0  0  0  0
  -23.5469  -32.1388   23.7288 O   0  0  0  0  0  0
  -30.6053  -17.3557   18.8209 C   0  0  0  0  0  0
  -30.2373  -19.7600   18.7652 C   0  0  0  0  0  0
  -30.7206  -18.5899   18.1644 C   0  0  0  0  0  0
  -30.0134  -17.2638   20.0987 C   0  0  0  0  0  0
  -29.6420  -19.6955   20.0335 C   0  0  0  0  0  0
  -28.7017  -22.1642   19.9308 C   0  0  0  0  0  0
  -28.0228  -24.8682   19.9707 C   0  0  0  0  0  0
  -28.9037  -23.6411   20.5751 C   0  0  1  0  0  0
  -29.5374  -18.4562   20.6693 N   0  0  0  0  0  0
  -29.8666  -15.8935   20.6647 N   0  0  0  0  0  0
  -29.2112  -20.9272   20.6585 N   0  0  0  0  0  0
  -28.5398  -23.4966   21.9390 O   0  0  0  0  0  0
  -31.3039  -18.6517   16.9432 F   0  0  0  0  0  0
  -31.4746  -12.5517   19.1931 H   0  0  0  0  0  0
  -30.3588  -11.4698   19.9740 H   0  0  0  0  0  0
  -29.7982  -11.7303   17.5315 H   0  0  0  0  0  0
  -29.6498  -13.4588   17.7320 H   0  0  0  0  0  0
  -27.8912  -11.2864   18.9141 H   0  0  0  0  0  0
  -27.3861  -12.5293   17.8013 H   0  0  0  0  0  0
  -27.6378  -14.2568   19.4729 H   0  0  0  0  0  0
  -28.7139  -12.1776   21.4396 H   0  0  0  0  0  0
  -28.4198  -13.8603   21.7972 H   0  0  0  0  0  0
  -25.2762   -9.5693   22.4756 H   0  0  0  0  0  0
  -24.0006   -7.4639   22.7474 H   0  0  0  0  0  0
  -21.0841   -8.8774   19.8958 H   0  0  0  0  0  0
  -22.3689  -10.9674   19.6164 H   0  0  0  0  0  0
  -21.2013   -7.6148   23.9717 H   0  0  0  0  0  0
  -21.1482   -6.0521   25.9076 H   0  0  0  0  0  0
  -22.0596   -2.7609   23.2844 H   0  0  0  0  0  0
  -22.4078  -11.9896   22.4833 H   0  0  0  0  0  0
  -21.1074  -13.1247   22.2609 H   0  0  0  0  0  0
  -24.6502  -15.8442   20.5261 H   0  0  0  0  0  0
  -26.2647  -15.6352   20.0763 H   0  0  0  0  0  0
  -26.7212  -32.5402   23.1079 H   0  0  0  0  0  0
  -25.0079  -33.9689   25.0401 H   0  0  0  0  0  0
  -22.7251  -31.3046   21.3991 H   0  0  0  0  0  0
  -23.3749  -35.9621   23.3301 H   0  0  0  0  0  0
  -24.3581  -36.8910   22.2056 H   0  0  0  0  0  0
  -23.7244  -37.6488   23.6664 H   0  0  0  0  0  0
  -26.1169  -31.5275   20.6148 H   0  0  0  0  0  0
  -26.8520  -30.8120   22.0170 H   0  0  0  0  0  0
  -28.1073  -28.9006   21.2351 H   0  0  0  0  0  0
  -25.9454  -25.9465   18.9278 H   0  0  0  0  0  0
  -23.9768  -27.3406   18.9581 H   0  0  0  0  0  0
  -23.7696  -30.5993   19.4036 H   0  0  0  0  0  0
  -22.7630  -29.2557   19.8505 H   0  0  0  0  0  0
  -25.1295  -36.1919   25.0820 H   0  0  0  0  0  0
  -20.9992  -28.3289   24.1374 H   0  0  0  0  0  0
  -20.5666  -26.2324   23.3609 H   0  0  0  0  0  0
  -21.6650  -26.7437   22.1203 H   0  0  0  0  0  0
  -19.6921  -25.6288   21.1245 H   0  0  0  0  0  0
  -19.6690  -27.3179   20.6720 H   0  0  0  0  0  0
  -17.4204  -26.6662   21.4025 H   0  0  0  0  0  0
  -18.0353  -26.0071   22.9019 H   0  0  0  0  0  0
  -19.7948  -30.7270   24.2257 H   0  0  0  0  0  0
  -17.5028  -31.6268   24.5162 H   0  0  0  0  0  0
  -15.5361  -30.2987   23.7656 H   0  0  0  0  0  0
  -15.8680  -28.0816   22.7075 H   0  0  0  0  0  0
  -24.5906  -30.7073   25.7777 H   0  0  0  0  0  0
  -24.8907  -32.2902   26.4857 H   0  0  0  0  0  0
  -25.8040  -30.8924   27.0238 H   0  0  0  0  0  0
  -26.2955  -29.6737   24.1244 H   0  0  0  0  0  0
  -27.4020  -29.7269   25.4764 H   0  0  0  0  0  0
  -27.8840  -30.4265   23.9501 H   0  0  0  0  0  0
  -27.2667  -33.3630   26.2068 H   0  0  0  0  0  0
  -28.3880  -32.6872   25.0345 H   0  0  0  0  0  0
  -28.0715  -31.8460   26.5439 H   0  0  0  0  0  0
  -28.2596  -38.0096   24.7507 H   0  0  0  0  0  0
  -28.1069  -36.2627   24.6296 H   0  0  0  0  0  0
  -27.2296  -37.1459   25.8870 H   0  0  0  0  0  0
  -20.9392  -29.8793   21.6861 H   0  0  0  0  0  0
  -26.0168  -38.2846   24.1398 H   0  0  0  0  0  0
  -30.9760  -16.4813   18.3071 H   0  0  0  0  0  0
  -30.3692  -20.6917   18.2378 H   0  0  0  0  0  0
  -29.0935  -22.1960   18.9163 H   0  0  0  0  0  0
  -27.6297  -22.0079   19.8051 H   0  0  0  0  0  0
  -26.9989  -24.6395   20.2682 H   0  0  0  0  0  0
  -28.0417  -24.7564   18.8859 H   0  0  0  0  0  0
  -29.9610  -23.9042   20.5177 H   0  0  0  0  0  0
  -28.9937  -15.7327   21.1408 H   0  0  0  0  0  0
  -28.8906  -20.8668   21.6201 H   0  0  0  0  0  0
  -28.7079  -24.3339   22.3622 H   0  0  0  0  0  0
  1 25  1  0  0  0
  1 30  2  0  0  0
  1 80  1  0  0  0
  2  3  1  0  0  0
  2 25  1  0  0  0
  2 84  1  0  0  0
  2 85  1  0  0  0
  3  4  1  0  0  0
  3 86  1  0  0  0
  3 87  1  0  0  0
  4  5  1  0  0  0
  4 88  1  0  0  0
  4 89  1  0  0  0
  5  6  1  0  0  0
  5 26  1  0  0  0
  5 90  1  0  0  0
  6 25  1  0  0  0
  6 91  1  0  0  0
  6 92  1  0  0  0
  7  8  2  0  0  0
  7 26  1  0  0  0
  7 29  1  0  0  0
  8  9  1  0  0  0
  8 22  1  0  0  0
  9 10  1  0  0  0
  9 27  2  0  0  0
 10 11  2  0  0  0
 10 15  1  0  0  0
 11 12  1  0  0  0
 11 93  1  0  0  0
 12 13  2  0  0  0
 12 94  1  0  0  0
 13 14  1  0  0  0
 13 31  1  0  0  0
 14 15  2  0  0  0
 14 95  1  0  0  0
 15 96  1  0  0  0
 16 17  2  0  0  0
 16 21  1  0  0  0
 16 31  1  0  0  0
 17 18  1  0  0  0
 17 97  1  0  0  0
 18 19  2  0  0  0
 18 98  1  0  0  0
 19 20  1  0  0  0
 19 24  1  0  0  0
 20 21  2  0  0  0
 20 99  1  0  0  0
 21 23  1  0  0  0
 22 28  1  0  0  0
 22 32  2  0  0  0
 26 27  1  0  0  0
 28100  1  0  0  0
 28101  1  0  0  0
 29102  1  0  0  0
 29103  1  0  0  0
 33 34  1  0  0  0
 33 66  1  0  0  0
 33 70  2  0  0  0
 34 36  1  0  0  0
 34 59  1  0  0  0
 34104  1  0  0  0
 35 44  2  0  0  0
 35 45  1  0  0  0
 35 68  1  0  0  0
 36 56  1  0  0  0
 36105  1  0  0  0
 37 39  1  0  0  0
 37 47  1  0  0  0
 37 66  1  0  0  0
 37106  1  0  0  0
 38 43  2  0  0  0
 38 46  1  0  0  0
 38 47  1  0  0  0
 39 64  1  0  0  0
 39 67  2  0  0  0
 40 52  1  0  0  0
 40 53  2  0  0  0
 40 58  1  0  0  0
 41107  1  0  0  0
 41108  1  0  0  0
 41109  1  0  0  0
 41 48  1  0  0  0
 42 43  1  0  0  0
 42 66  1  0  0  0
 42110  1  0  0  0
 42111  1  0  0  0
 43 44  1  0  0  0
 44112  1  0  0  0
 45 46  2  0  0  0
 45113  1  0  0  0
 46114  1  0  0  0
 47115  1  0  0  0
 47116  1  0  0  0
 48 56  1  0  0  0
 48 65  1  0  0  0
 48117  1  0  0  0
 49 50  1  0  0  0
 49 53  1  0  0  0
 49 64  1  0  0  0
 49118  1  0  0  0
 50 51  1  0  0  0
 50119  1  0  0  0
 50120  1  0  0  0
 51 52  1  0  0  0
 51121  1  0  0  0
 51122  1  0  0  0
 52123  1  0  0  0
 52124  1  0  0  0
 53 54  1  0  0  0
 54 55  2  0  0  0
 54125  1  0  0  0
 55 57  1  0  0  0
 55126  1  0  0  0
 56 69  2  0  0  0
 57 58  2  0  0  0
 57127  1  0  0  0
 58128  1  0  0  0
 59 60  1  0  0  0
 59 61  1  0  0  0
 59 62  1  0  0  0
 60129  1  0  0  0
 60130  1  0  0  0
 60131  1  0  0  0
 61132  1  0  0  0
 61133  1  0  0  0
 61134  1  0  0  0
 62135  1  0  0  0
 62136  1  0  0  0
 62137  1  0  0  0
 63 65  1  0  0  0
 63138  1  0  0  0
 63139  1  0  0  0
 63140  1  0  0  0
 64141  1  0  0  0
 65142  1  0  0  0
 68 77  1  0  0  0
 71 73  2  0  0  0
 71 74  1  0  0  0
 71143  1  0  0  0
 72 73  1  0  0  0
 72 75  2  0  0  0
 72144  1  0  0  0
 73 83  1  0  0  0
 74 79  2  0  0  0
 74 80  1  0  0  0
 75 79  1  0  0  0
 75 81  1  0  0  0
 76 78  1  0  0  0
 76 81  1  0  0  0
 76145  1  0  0  0
 76146  1  0  0  0
 77 78  1  0  0  0
 77147  1  0  0  0
 77148  1  0  0  0
 78 82  1  0  0  0
 78149  1  0  0  0
 80150  1  0  0  0
 81151  1  0  0  0
 82152  1  0  0  0
M  ISO  4   1 100  68 101  77 101  80 100
M  END
> <chiral flag>
0

> <version>
0

> <s_m_source_file>
/data/baiqing/PycharmProjects/Reinvent-master-3.2/result/LINK_invent/BTK/process_docking_weight1_custom_product_contain_oxygen_bond_distance_aromatic_linkinvent_7_9_3/rearranged_h_0195.sdf

> <i_m_source_file_index>
40

> <r_mmod_Potential_Energy-OPLS-2005>
-68.9581298828125

> <r_mmod_Stretch_Energy-OPLS-2005>
127.586967468262

> <r_mmod_Bend_Energy-OPLS-2005>
169.905456542969

> <r_mmod_Torsional_Energy-OPLS-2005>
257.505187988281

> <r_mmod_Improper_Torsional_Energy-OPLS-2005>
5.81959390640259

> <r_mmod_Van_der_Waal_Energy-OPLS-2005>
150.181610107422

> <r_mmod_Electrostatic_Energy-OPLS-2005>
-628.540466308594

> <r_mmod_Solvation_Energy-OPLS-2005>
-241.157287597656

> <b_mmod_Minimization_Converged-OPLS-2005>
0

> <r_mmod_RMS_Derivative-OPLS-2005>
0.736187279224396

$$$$
40
                    3D
 Structure written by MMmdl.
162170  0  0  1  0            999 V2000
  -29.0005  -16.0614   20.7066 C   0  0  0  0  0  0
  -30.1062  -13.6696   19.6643 C   0  0  0  0  0  0
  -29.4808  -12.7964   18.5148 C   0  0  0  0  0  0
  -28.1601  -12.1631   18.9461 C   0  0  0  0  0  0
  -27.4647  -13.1915   19.8182 C   0  0  2  0  0  0
  -28.3001  -13.5412   21.0528 C   0  0  0  0  0  0
  -25.1625  -13.7836   20.5254 C   0  0  0  0  0  0
  -24.1129  -13.0224   20.9377 C   0  0  0  0  0  0
  -24.5794  -11.6675   20.9048 C   0  0  0  0  0  0
  -23.8628  -10.4105   21.0698 C   0  0  0  0  0  0
  -24.3351   -9.4068   21.9364 C   0  0  0  0  0  0
  -23.6124   -8.2063   22.0788 C   0  0  0  0  0  0
  -22.4106   -8.0148   21.3587 C   0  0  0  0  0  0
  -21.9720   -9.0088   20.4710 C   0  0  0  0  0  0
  -22.6935  -10.1996   20.3224 C   0  0  0  0  0  0
  -21.6776   -6.0646   22.5338 C   0  0  0  0  0  0
  -21.3967   -6.5589   23.8259 C   0  0  0  0  0  0
  -21.3617   -5.6765   24.9260 C   0  0  0  0  0  0
  -21.6022   -4.3004   24.7298 C   0  0  0  0  0  0
  -21.8821   -3.8086   23.4401 C   0  0  0  0  0  0
  -21.9157   -4.6909   22.3470 C   0  0  0  0  0  0
  -22.7336  -13.5219   21.2062 C   0  0  0  0  0  0
  -22.1632   -4.2094   21.1044 F   0  0  0  0  0  0
  -21.5621   -3.4497   25.7808 F   0  0  0  0  0  0
  -29.1291  -14.5853   20.4945 N   0  0  0  0  0  0
  -26.1700  -12.8767   20.2803 N   0  0  0  0  0  0
  -25.8593  -11.6065   20.5811 N   0  0  0  0  0  0
  -21.9904  -12.8366   22.0594 N   0  0  0  0  0  0
  -25.3361  -15.1407   20.2811 N   0  0  0  0  0  0
  -30.2612  -16.3186   20.4661 O   0  0  0  0  0  0
  -21.6488   -6.8722   21.4268 O   0  0  0  0  0  0
  -22.3295  -14.5541   20.6890 O   0  0  0  0  0  0
  -24.6123  -31.9613   23.2058 C   0  0  0  0  0  0
  -25.9096  -32.5078   23.8296 C   0  0  1  0  0  0
  -26.8627  -27.3613   20.0998 C   0  0  0  0  0  0
  -25.6066  -33.8810   24.2222 N   0  0  0  0  0  0
  -23.3242  -30.4707   21.6868 C   0  0  2  0  0  0
  -24.7828  -29.1256   20.0591 C   0  0  0  0  0  0
  -22.8877  -29.3674   22.6656 C   0  0  0  0  0  0
  -18.2768  -27.8836   22.6587 C   0  0  0  0  0  0
  -24.1404  -36.7380   23.2615 C   0  0  0  0  0  0
  -25.9112  -30.8212   21.4550 C   0  0  0  0  0  0
  -25.9315  -29.4726   20.7712 C   0  0  0  0  0  0
  -26.9802  -28.5674   20.8703 C   0  0  0  0  0  0
  -26.0647  -27.3827   18.9757 C   0  0  0  0  0  0
  -24.8967  -28.1296   19.0901 C   0  0  0  0  0  0
  -23.4395  -29.6877   20.3498 C   0  0  0  0  0  0
  -25.4121  -36.3153   24.0240 C   0  0  1  0  0  0
  -20.6849  -28.2288   23.3703 C   0  0  2  0  0  0
  -20.7705  -26.7485   23.0351 C   0  0  0  0  0  0
  -19.8406  -26.1307   21.9532 C   0  0  0  0  0  0
  -18.4805  -26.5389   21.9222 C   0  0  0  0  0  0
  -19.2961  -28.6759   23.2417 C   0  0  0  0  0  0
  -19.0894  -29.9521   23.7509 C   0  0  0  0  0  0
  -17.7682  -30.3700   23.7683 C   0  0  0  0  0  0
  -25.9320  -34.9610   23.5096 C   0  0  0  0  0  0
  -16.7086  -29.5031   23.3169 C   0  0  0  0  0  0
  -16.9672  -28.2533   22.7062 C   0  0  0  0  0  0
  -26.4362  -31.6866   25.0743 C   0  0  0  0  0  0
  -25.3411  -31.4226   26.1267 C   0  0  0  0  0  0
  -27.0246  -30.3100   24.6914 C   0  0  0  0  0  0
  -27.5974  -32.4590   25.7706 C   0  0  0  0  0  0
  -27.5559  -37.1754   24.8443 C   0  0  0  0  0  0
  -21.5063  -29.1039   22.5754 N   0  0  0  0  0  0
  -26.4201  -37.3877   23.9521 N   0  0  0  0  0  0
  -24.6390  -31.1581   22.1140 N   0  0  0  0  0  0
  -23.6200  -28.8659   23.4510 O   0  0  0  0  0  0
  -26.8538  -26.0839   20.6826 O   0  0  0  0  0  0
  -26.5819  -34.9182   22.4644 O   0  0  0  0  0  0
  -23.5375  -32.2508   23.7542 O   0  0  0  0  0  0
  -26.7226  -20.1409   21.7130 C   0  0  0  0  0  0
  -24.3567  -21.3193   21.8422 C   0  0  0  0  0  0
  -26.5982  -18.6818   21.3010 C   0  0  0  0  0  0
  -24.1027  -19.9484   21.4254 C   0  0  0  0  0  0
  -21.8459  -22.0025   23.2665 C   0  0  0  0  0  0
  -23.6822  -25.3074   18.5207 C   0  0  0  0  0  0
  -22.7574  -25.4882   21.0669 C   0  0  0  0  0  0
  -25.3797  -25.3718   20.8464 C   0  0  0  0  0  0
  -23.1443  -22.6181   22.3999 C   0  0  1  0  0  0
  -23.8117  -25.8022   20.1063 C   0  0  2  0  0  0
  -25.8076  -21.3024   21.9863 N   0  0  0  0  0  0
  -25.1406  -18.8124   21.2206 N   0  0  0  0  0  0
  -22.7590  -19.5647   21.2252 N   0  0  0  0  0  0
  -27.6699  -17.0985   21.0069 N   0  0  0  0  0  0
  -22.3526  -24.1130   21.8492 N   0  3  0  0  0  0
  -30.8565  -14.3334   19.1915 H   0  0  0  0  0  0
  -30.7179  -13.0826   20.3581 H   0  0  0  0  0  0
  -30.1932  -12.0112   18.1971 H   0  0  0  0  0  0
  -29.2887  -13.4165   17.6482 H   0  0  0  0  0  0
  -28.3575  -11.2760   19.5464 H   0  0  0  0  0  0
  -27.5474  -11.8328   18.1089 H   0  0  0  0  0  0
  -27.3196  -14.0565   19.1652 H   0  0  0  0  0  0
  -28.8535  -12.6740   21.4210 H   0  0  0  0  0  0
  -27.7184  -13.9078   21.8964 H   0  0  0  0  0  0
  -25.2491   -9.5568   22.4953 H   0  0  0  0  0  0
  -23.9863   -7.4395   22.7516 H   0  0  0  0  0  0
  -21.0584   -8.8578   19.8990 H   0  0  0  0  0  0
  -22.3393  -10.9577   19.6320 H   0  0  0  0  0  0
  -21.1949   -7.6085   23.9801 H   0  0  0  0  0  0
  -21.1438   -6.0449   25.9144 H   0  0  0  0  0  0
  -22.0625   -2.7550   23.2949 H   0  0  0  0  0  0
  -22.3305  -11.9880   22.4995 H   0  0  0  0  0  0
  -21.0659  -13.1655   22.2952 H   0  0  0  0  0  0
  -24.4196  -15.5508   20.1385 H   0  0  0  0  0  0
  -25.8800  -15.2524   19.4430 H   0  0  0  0  0  0
  -26.7433  -32.5539   23.1221 H   0  0  0  0  0  0
  -24.9384  -33.9922   24.9745 H   0  0  0  0  0  0
  -22.5600  -31.2591   21.5307 H   0  0  0  0  0  0
  -23.3679  -35.9667   23.3296 H   0  0  0  0  0  0
  -24.3437  -36.9072   22.2027 H   0  0  0  0  0  0
  -23.7177  -37.6588   23.6774 H   0  0  0  0  0  0
  -26.2128  -31.6212   20.7609 H   0  0  0  0  0  0
  -26.7146  -30.7028   22.2155 H   0  0  0  0  0  0
  -27.8985  -28.7928   21.3575 H   0  0  0  0  0  0
  -26.2045  -26.6927   18.1653 H   0  0  0  0  0  0
  -24.0562  -28.0391   18.3702 H   0  0  0  0  0  0
  -22.8830  -30.0265   19.4896 H   0  0  0  0  0  0
  -22.9029  -28.7986   20.4647 H   0  0  0  0  0  0
  -25.1240  -36.1948   25.0707 H   0  0  0  0  0  0
  -21.0743  -28.2604   24.3763 H   0  0  0  0  0  0
  -21.1506  -25.9490   23.6291 H   0  0  0  0  0  0
  -21.7258  -26.6215   22.7272 H   0  0  0  0  0  0
  -20.0432  -25.0955   22.0328 H   0  0  0  0  0  0
  -20.3026  -26.1193   21.0737 H   0  0  0  0  0  0
  -17.9413  -25.6900   22.2836 H   0  0  0  0  0  0
  -18.3546  -26.5508   20.8610 H   0  0  0  0  0  0
  -19.9634  -30.5054   24.0425 H   0  0  0  0  0  0
  -17.6323  -31.3883   24.0460 H   0  0  0  0  0  0
  -15.6966  -29.7529   23.2733 H   0  0  0  0  0  0
  -16.3512  -27.5868   22.1602 H   0  0  0  0  0  0
  -24.5565  -30.7729   25.7250 H   0  0  0  0  0  0
  -24.8620  -32.3518   26.4489 H   0  0  0  0  0  0
  -25.7249  -30.9289   27.0274 H   0  0  0  0  0  0
  -26.2951  -29.6821   24.1728 H   0  0  0  0  0  0
  -27.3131  -29.7473   25.5872 H   0  0  0  0  0  0
  -27.9244  -30.3821   24.0765 H   0  0  0  0  0  0
  -27.2509  -33.3767   26.2693 H   0  0  0  0  0  0
  -28.3739  -32.7627   25.0541 H   0  0  0  0  0  0
  -28.1040  -31.8650   26.5451 H   0  0  0  0  0  0
  -28.2589  -38.0045   24.7600 H   0  0  0  0  0  0
  -28.1056  -36.2617   24.6099 H   0  0  0  0  0  0
  -27.2349  -37.1206   25.8849 H   0  0  0  0  0  0
  -21.0676  -29.8142   22.0807 H   0  0  0  0  0  0
  -26.0087  -38.2867   24.1876 H   0  0  0  0  0  0
  -27.6236  -20.6565   21.9150 H   0  0  0  0  0  0
  -21.0904  -21.4886   22.7152 H   0  0  0  0  0  0
  -21.2552  -22.6201   23.9324 H   0  0  0  0  0  0
  -22.1925  -21.2983   23.9437 H   0  0  0  0  0  0
  -24.3080  -24.4404   18.4095 H   0  0  0  0  0  0
  -24.0856  -26.0490   17.8474 H   0  0  0  0  0  0
  -22.4944  -25.1527   18.2190 H   0  0  0  0  0  0
  -22.0593  -25.8509   20.4558 H   0  0  0  0  0  0
  -22.6356  -26.4615   21.2763 H   0  0  0  0  0  0
  -25.3250  -24.3963   20.4566 H   0  0  0  0  0  0
  -24.9026  -25.0931   21.7948 H   0  0  0  0  0  0
  -23.5194  -23.1949   23.2539 H   0  0  0  0  0  0
  -23.4480  -24.7342   19.7508 H   0  0  0  0  0  0
  -21.9785  -20.2567   21.2648 H   0  0  0  0  0  0
  -22.5911  -18.8682   20.5427 H   0  0  0  0  0  0
  -26.9266  -16.4038   21.1612 H   0  0  0  0  0  0
  -21.4339  -24.0596   21.4626 H   0  0  0  0  0  0
  -22.3407  -24.6734   22.6290 H   0  0  0  0  0  0
  1 25  1  0  0  0
  1 30  2  0  0  0
  1 84  1  0  0  0
  2  3  1  0  0  0
  2 25  1  0  0  0
  2 86  1  0  0  0
  2 87  1  0  0  0
  3  4  1  0  0  0
  3 88  1  0  0  0
  3 89  1  0  0  0
  4  5  1  0  0  0
  4 90  1  0  0  0
  4 91  1  0  0  0
  5  6  1  0  0  0
  5 26  1  0  0  0
  5 92  1  0  0  0
  6 25  1  0  0  0
  6 93  1  0  0  0
  6 94  1  0  0  0
  7  8  2  0  0  0
  7 26  1  0  0  0
  7 29  1  0  0  0
  8  9  1  0  0  0
  8 22  1  0  0  0
  9 10  1  0  0  0
  9 27  2  0  0  0
 10 11  2  0  0  0
 10 15  1  0  0  0
 11 12  1  0  0  0
 11 95  1  0  0  0
 12 13  2  0  0  0
 12 96  1  0  0  0
 13 14  1  0  0  0
 13 31  1  0  0  0
 14 15  2  0  0  0
 14 97  1  0  0  0
 15 98  1  0  0  0
 16 17  2  0  0  0
 16 21  1  0  0  0
 16 31  1  0  0  0
 17 18  1  0  0  0
 17 99  1  0  0  0
 18 19  2  0  0  0
 18100  1  0  0  0
 19 20  1  0  0  0
 19 24  1  0  0  0
 20 21  2  0  0  0
 20101  1  0  0  0
 21 23  1  0  0  0
 22 28  1  0  0  0
 22 32  2  0  0  0
 26 27  1  0  0  0
 28102  1  0  0  0
 28103  1  0  0  0
 29104  1  0  0  0
 29105  1  0  0  0
 33 34  1  0  0  0
 33 66  1  0  0  0
 33 70  2  0  0  0
 34 36  1  0  0  0
 34 59  1  0  0  0
 34106  1  0  0  0
 35 44  2  0  0  0
 35 45  1  0  0  0
 35 68  1  0  0  0
 36 56  1  0  0  0
 36107  1  0  0  0
 37 39  1  0  0  0
 37 47  1  0  0  0
 37 66  1  0  0  0
 37108  1  0  0  0
 38 43  2  0  0  0
 38 46  1  0  0  0
 38 47  1  0  0  0
 39 64  1  0  0  0
 39 67  2  0  0  0
 40 52  1  0  0  0
 40 53  2  0  0  0
 40 58  1  0  0  0
 41109  1  0  0  0
 41110  1  0  0  0
 41111  1  0  0  0
 41 48  1  0  0  0
 42 43  1  0  0  0
 42 66  1  0  0  0
 42112  1  0  0  0
 42113  1  0  0  0
 43 44  1  0  0  0
 44114  1  0  0  0
 45 46  2  0  0  0
 45115  1  0  0  0
 46116  1  0  0  0
 47117  1  0  0  0
 47118  1  0  0  0
 48 56  1  0  0  0
 48 65  1  0  0  0
 48119  1  0  0  0
 49 50  1  0  0  0
 49 53  1  0  0  0
 49 64  1  0  0  0
 49120  1  0  0  0
 50 51  1  0  0  0
 50121  1  0  0  0
 50122  1  0  0  0
 51 52  1  0  0  0
 51123  1  0  0  0
 51124  1  0  0  0
 52125  1  0  0  0
 52126  1  0  0  0
 53 54  1  0  0  0
 54 55  2  0  0  0
 54127  1  0  0  0
 55 57  1  0  0  0
 55128  1  0  0  0
 56 69  2  0  0  0
 57 58  2  0  0  0
 57129  1  0  0  0
 58130  1  0  0  0
 59 60  1  0  0  0
 59 61  1  0  0  0
 59 62  1  0  0  0
 60131  1  0  0  0
 60132  1  0  0  0
 60133  1  0  0  0
 61134  1  0  0  0
 61135  1  0  0  0
 61136  1  0  0  0
 62137  1  0  0  0
 62138  1  0  0  0
 62139  1  0  0  0
 63 65  1  0  0  0
 63140  1  0  0  0
 63141  1  0  0  0
 63142  1  0  0  0
 64143  1  0  0  0
 65144  1  0  0  0
 68 78  1  0  0  0
 71 73  2  0  0  0
 71 81  1  0  0  0
 71145  1  0  0  0
 72 74  1  0  0  0
 72 79  1  0  0  0
 72 81  2  0  0  0
 73 82  1  0  0  0
 73 84  1  0  0  0
 74 82  2  0  0  0
 74 83  1  0  0  0
 75146  1  0  0  0
 75147  1  0  0  0
 75148  1  0  0  0
 75 79  1  0  0  0
 76149  1  0  0  0
 76150  1  0  0  0
 76151  1  0  0  0
 76 80  1  0  0  0
 77 80  1  0  0  0
 77 85  1  0  0  0
 77152  1  0  0  0
 77153  1  0  0  0
 78 80  1  0  0  0
 78154  1  0  0  0
 78155  1  0  0  0
 79 85  1  0  0  0
 79156  1  0  0  0
 80157  1  0  0  0
 83158  1  0  0  0
 83159  1  0  0  0
 84160  1  0  0  0
 85161  1  0  0  0
 85162  1  0  0  0
M  CHG  1  85   1
M  ISO  4   1 100  68 101  78 101  84 100
M  END
> <chiral flag>
0

> <version>
0

> <s_m_source_file>
/data/baiqing/PycharmProjects/Reinvent-master-3.2/result/LINK_invent/BTK/process_docking_weight1_custom_product_contain_oxygen_bond_distance_aromatic_linkinvent_7_9_3/rearranged_h_0195.sdf

> <i_m_source_file_index>
41

> <r_mmod_Potential_Energy-OPLS-2005>
6042.85009765625

> <r_mmod_Stretch_Energy-OPLS-2005>
1803.81433105469

> <r_mmod_Bend_Energy-OPLS-2005>
1688.64978027344

> <r_mmod_Torsional_Energy-OPLS-2005>
514.959533691406

> <r_mmod_Improper_Torsional_Energy-OPLS-2005>
27.9110870361328

> <r_mmod_Van_der_Waal_Energy-OPLS-2005>
362.497253417969

> <r_mmod_Electrostatic_Energy-OPLS-2005>
-276.048645019531

> <r_mmod_Solvation_Energy-OPLS-2005>
-504.207275390625

> <b_mmod_Minimization_Converged-OPLS-2005>
0

> <r_mmod_RMS_Derivative-OPLS-2005>
99.9990005493164

$$$$
41
                    3D
 Structure written by MMmdl.
152160  0  0  1  0            999 V2000
  -30.6217  -14.6536   20.5105 C   0  0  0  0  0  0
  -30.4310  -12.4104   19.4549 C   0  0  0  0  0  0
  -29.5049  -12.5515   18.2251 C   0  0  0  0  0  0
  -28.0269  -12.3859   18.6262 C   0  0  0  0  0  0
  -27.6545  -13.2232   19.8791 C   0  0  2  0  0  0
  -28.6984  -13.0708   21.0091 C   0  0  0  0  0  0
  -25.2524  -13.8189   20.5616 C   0  0  0  0  0  0
  -24.1810  -13.0431   20.9174 C   0  0  0  0  0  0
  -24.6416  -11.6908   20.8719 C   0  0  0  0  0  0
  -23.9096  -10.4285   21.0397 C   0  0  0  0  0  0
  -24.3641   -9.4212   21.9159 C   0  0  0  0  0  0
  -23.6303   -8.2259   22.0769 C   0  0  0  0  0  0
  -22.4279   -8.0291   21.3572 C   0  0  0  0  0  0
  -21.9933   -9.0264   20.4676 C   0  0  0  0  0  0
  -22.7270  -10.2133   20.3073 C   0  0  0  0  0  0
  -21.6862   -6.0734   22.5278 C   0  0  0  0  0  0
  -21.4023   -6.5627   23.8198 C   0  0  0  0  0  0
  -21.3672   -5.6796   24.9166 C   0  0  0  0  0  0
  -21.6042   -4.3066   24.7217 C   0  0  0  0  0  0
  -21.8835   -3.8133   23.4347 C   0  0  0  0  0  0
  -21.9213   -4.6957   22.3406 C   0  0  0  0  0  0
  -22.7833  -13.5227   21.1851 C   0  0  0  0  0  0
  -22.1675   -4.2139   21.0970 F   0  0  0  0  0  0
  -21.5641   -3.4549   25.7724 F   0  0  0  0  0  0
  -30.0148  -13.4214   20.4509 N   0  0  0  0  0  0
  -26.2977  -12.9369   20.3375 N   0  0  0  0  0  0
  -25.9340  -11.6516   20.5784 N   0  0  0  0  0  0
  -22.0501  -12.8162   22.0427 N   0  0  0  0  0  0
  -25.4193  -15.1890   20.3895 N   0  0  0  0  0  0
  -31.7763  -14.8028   20.0894 O   0  0  0  0  0  0
  -21.6654   -6.8873   21.4246 O   0  0  0  0  0  0
  -22.3469  -14.5511   20.6728 O   0  0  0  0  0  0
  -24.6312  -31.8527   23.1992 C   0  0  0  0  0  0
  -25.9131  -32.4758   23.8346 C   0  0  1  0  0  0
  -27.2299  -27.2828   20.0992 C   0  0  0  0  0  0
  -25.5918  -33.8570   24.2278 N   0  0  0  0  0  0
  -23.4301  -30.4713   21.5467 C   0  0  2  0  0  0
  -24.8791  -28.9251   20.1063 C   0  0  0  0  0  0
  -22.7502  -29.4544   22.4948 C   0  0  0  0  0  0
  -18.0275  -28.1357   22.8479 C   0  0  0  0  0  0
  -24.1497  -36.7301   23.2636 C   0  0  0  0  0  0
  -25.9734  -30.7726   21.3728 C   0  0  0  0  0  0
  -26.0509  -29.3984   20.7107 C   0  0  0  0  0  0
  -27.2353  -28.5953   20.6834 C   0  0  0  0  0  0
  -26.0367  -26.8732   19.4681 C   0  0  0  0  0  0
  -24.8790  -27.6745   19.4664 C   0  0  0  0  0  0
  -23.6468  -29.8062   20.1624 C   0  0  0  0  0  0
  -25.4126  -36.3088   24.0323 C   0  0  1  0  0  0
  -20.5877  -28.3678   23.1273 C   0  0  2  0  0  0
  -20.6741  -26.9387   22.5415 C   0  0  0  0  0  0
  -19.5741  -26.6372   21.5188 C   0  0  0  0  0  0
  -18.1922  -26.7908   22.1590 C   0  0  0  0  0  0
  -19.1520  -28.8842   23.2868 C   0  0  0  0  0  0
  -18.9443  -30.1439   23.8898 C   0  0  0  0  0  0
  -17.6434  -30.6568   24.0559 C   0  0  0  0  0  0
  -25.9070  -34.9447   23.5115 C   0  0  0  0  0  0
  -16.5335  -29.9063   23.6313 C   0  0  0  0  0  0
  -16.7261  -28.6464   23.0367 C   0  0  0  0  0  0
  -26.4505  -31.6549   25.0707 C   0  0  0  0  0  0
  -25.3759  -31.3623   26.1424 C   0  0  0  0  0  0
  -27.0332  -30.2979   24.6144 C   0  0  0  0  0  0
  -27.6076  -32.4266   25.7489 C   0  0  0  0  0  0
  -27.5601  -37.1793   24.8456 C   0  0  0  0  0  0
  -21.4204  -29.3025   22.3690 N   0  0  0  0  0  0
  -26.4301  -37.3781   23.9409 N   0  0  0  0  0  0
  -24.6988  -31.0491   22.0963 N   0  0  0  0  0  0
  -23.4168  -28.8066   23.3064 O   0  0  0  0  0  0
  -28.3373  -26.4105   20.0784 O   0  0  0  0  0  0
  -26.5667  -34.8911   22.4699 O   0  0  0  0  0  0
  -23.5473  -32.1332   23.7296 O   0  0  0  0  0  0
  -28.6524  -19.0803   21.0508 C   0  0  0  0  0  0
  -29.4192  -19.7255   20.0399 C   0  0  0  0  0  0
  -29.7570  -17.0652   20.6521 C   0  0  0  0  0  0
  -29.7570  -22.3483   21.7553 C   0  0  0  0  0  0
  -28.8113  -23.7185   19.7716 C   0  0  0  0  0  0
  -28.1552  -24.9931   20.5286 C   0  0  0  0  0  0
  -28.8698  -22.2648   20.4960 C   0  0  1  0  0  0
  -28.8303  -17.7516   21.3448 N   0  0  0  0  0  0
  -30.3172  -18.9473   19.3657 N   0  0  0  0  0  0
  -30.4879  -17.6321   19.6628 N   0  0  0  0  0  0
  -29.3395  -21.1077   19.6522 N   0  0  0  0  0  0
  -29.8532  -15.6945   20.9683 N   0  0  0  0  0  0
  -31.4724  -12.5307   19.1583 H   0  0  0  0  0  0
  -30.3523  -11.4106   19.8849 H   0  0  0  0  0  0
  -29.7673  -11.8262   17.4580 H   0  0  0  0  0  0
  -29.6488  -13.5327   17.7692 H   0  0  0  0  0  0
  -27.8470  -11.3269   18.8163 H   0  0  0  0  0  0
  -27.3840  -12.6638   17.7909 H   0  0  0  0  0  0
  -27.6778  -14.2644   19.5620 H   0  0  0  0  0  0
  -28.7152  -12.0489   21.3940 H   0  0  0  0  0  0
  -28.4339  -13.6956   21.8624 H   0  0  0  0  0  0
  -25.2795   -9.5660   22.4713 H   0  0  0  0  0  0
  -24.0019   -7.4647   22.7468 H   0  0  0  0  0  0
  -21.0888   -8.8808   19.8936 H   0  0  0  0  0  0
  -22.3757  -10.9688   19.6168 H   0  0  0  0  0  0
  -21.2015   -7.6132   23.9702 H   0  0  0  0  0  0
  -21.1473   -6.0512   25.9067 H   0  0  0  0  0  0
  -22.0607   -2.7608   23.2844 H   0  0  0  0  0  0
  -22.4144  -11.9791   22.4744 H   0  0  0  0  0  0
  -21.1159  -13.1193   22.2704 H   0  0  0  0  0  0
  -24.6382  -15.8321   20.4440 H   0  0  0  0  0  0
  -26.2571  -15.6248   20.0222 H   0  0  0  0  0  0
  -26.7185  -32.5425   23.1078 H   0  0  0  0  0  0
  -25.0058  -33.9723   25.0416 H   0  0  0  0  0  0
  -22.7257  -31.2930   21.3993 H   0  0  0  0  0  0
  -23.3785  -35.9605   23.3274 H   0  0  0  0  0  0
  -24.3593  -36.8968   22.2058 H   0  0  0  0  0  0
  -23.7191  -37.6466   23.6692 H   0  0  0  0  0  0
  -26.1109  -31.5365   20.6091 H   0  0  0  0  0  0
  -26.8477  -30.8175   22.0091 H   0  0  0  0  0  0
  -28.1500  -28.9657   21.1279 H   0  0  0  0  0  0
  -26.0032  -25.9199   18.9592 H   0  0  0  0  0  0
  -23.9898  -27.3225   18.9600 H   0  0  0  0  0  0
  -23.7624  -30.5809   19.4033 H   0  0  0  0  0  0
  -22.7654  -29.2351   19.8664 H   0  0  0  0  0  0
  -25.1289  -36.1964   25.0809 H   0  0  0  0  0  0
  -20.9950  -28.3261   24.1402 H   0  0  0  0  0  0
  -20.5599  -26.2298   23.3625 H   0  0  0  0  0  0
  -21.6621  -26.7393   22.1247 H   0  0  0  0  0  0
  -19.6928  -25.6277   21.1247 H   0  0  0  0  0  0
  -19.6704  -27.3166   20.6701 H   0  0  0  0  0  0
  -17.4185  -26.6667   21.3999 H   0  0  0  0  0  0
  -18.0334  -26.0036   22.8972 H   0  0  0  0  0  0
  -19.7914  -30.7250   24.2301 H   0  0  0  0  0  0
  -17.4980  -31.6243   24.5148 H   0  0  0  0  0  0
  -15.5340  -30.2963   23.7615 H   0  0  0  0  0  0
  -15.8656  -28.0768   22.7122 H   0  0  0  0  0  0
  -24.5951  -30.6968   25.7703 H   0  0  0  0  0  0
  -24.8942  -32.2754   26.4936 H   0  0  0  0  0  0
  -25.8098  -30.8714   27.0151 H   0  0  0  0  0  0
  -26.2870  -29.6729   24.1218 H   0  0  0  0  0  0
  -27.4067  -29.7208   25.4617 H   0  0  0  0  0  0
  -27.8738  -30.4251   23.9321 H   0  0  0  0  0  0
  -27.2690  -33.3534   26.2140 H   0  0  0  0  0  0
  -28.3855  -32.6871   25.0296 H   0  0  0  0  0  0
  -28.0790  -31.8344   26.5351 H   0  0  0  0  0  0
  -28.2565  -38.0142   24.7580 H   0  0  0  0  0  0
  -28.1141  -36.2679   24.6184 H   0  0  0  0  0  0
  -27.2340  -37.1320   25.8857 H   0  0  0  0  0  0
  -20.9405  -29.8798   21.6922 H   0  0  0  0  0  0
  -26.0208  -38.2852   24.1444 H   0  0  0  0  0  0
  -27.8929  -19.6104   21.6100 H   0  0  0  0  0  0
  -29.3407  -23.0459   22.4823 H   0  0  0  0  0  0
  -30.7639  -22.6880   21.5030 H   0  0  0  0  0  0
  -29.8690  -21.3937   22.2743 H   0  0  0  0  0  0
  -29.8290  -23.9899   19.4961 H   0  0  0  0  0  0
  -28.2888  -23.5953   18.8212 H   0  0  0  0  0  0
  -28.5544  -25.0011   21.5414 H   0  0  0  0  0  0
  -27.0950  -24.7835   20.6616 H   0  0  0  0  0  0
  -27.8541  -22.0194   20.8140 H   0  0  0  0  0  0
  -29.9089  -21.3374   18.8413 H   0  0  0  0  0  0
  -29.0939  -15.3925   21.5546 H   0  0  0  0  0  0
  1 25  1  0  0  0
  1 30  2  0  0  0
  1 82  1  0  0  0
  2  3  1  0  0  0
  2 25  1  0  0  0
  2 83  1  0  0  0
  2 84  1  0  0  0
  3  4  1  0  0  0
  3 85  1  0  0  0
  3 86  1  0  0  0
  4  5  1  0  0  0
  4 87  1  0  0  0
  4 88  1  0  0  0
  5  6  1  0  0  0
  5 26  1  0  0  0
  5 89  1  0  0  0
  6 25  1  0  0  0
  6 90  1  0  0  0
  6 91  1  0  0  0
  7  8  2  0  0  0
  7 26  1  0  0  0
  7 29  1  0  0  0
  8  9  1  0  0  0
  8 22  1  0  0  0
  9 10  1  0  0  0
  9 27  2  0  0  0
 10 11  2  0  0  0
 10 15  1  0  0  0
 11 12  1  0  0  0
 11 92  1  0  0  0
 12 13  2  0  0  0
 12 93  1  0  0  0
 13 14  1  0  0  0
 13 31  1  0  0  0
 14 15  2  0  0  0
 14 94  1  0  0  0
 15 95  1  0  0  0
 16 17  2  0  0  0
 16 21  1  0  0  0
 16 31  1  0  0  0
 17 18  1  0  0  0
 17 96  1  0  0  0
 18 19  2  0  0  0
 18 97  1  0  0  0
 19 20  1  0  0  0
 19 24  1  0  0  0
 20 21  2  0  0  0
 20 98  1  0  0  0
 21 23  1  0  0  0
 22 28  1  0  0  0
 22 32  2  0  0  0
 26 27  1  0  0  0
 28 99  1  0  0  0
 28100  1  0  0  0
 29101  1  0  0  0
 29102  1  0  0  0
 33 34  1  0  0  0
 33 66  1  0  0  0
 33 70  2  0  0  0
 34 36  1  0  0  0
 34 59  1  0  0  0
 34103  1  0  0  0
 35 44  2  0  0  0
 35 45  1  0  0  0
 35 68  1  0  0  0
 36 56  1  0  0  0
 36104  1  0  0  0
 37 39  1  0  0  0
 37 47  1  0  0  0
 37 66  1  0  0  0
 37105  1  0  0  0
 38 43  2  0  0  0
 38 46  1  0  0  0
 38 47  1  0  0  0
 39 64  1  0  0  0
 39 67  2  0  0  0
 40 52  1  0  0  0
 40 53  2  0  0  0
 40 58  1  0  0  0
 41106  1  0  0  0
 41107  1  0  0  0
 41108  1  0  0  0
 41 48  1  0  0  0
 42 43  1  0  0  0
 42 66  1  0  0  0
 42109  1  0  0  0
 42110  1  0  0  0
 43 44  1  0  0  0
 44111  1  0  0  0
 45 46  2  0  0  0
 45112  1  0  0  0
 46113  1  0  0  0
 47114  1  0  0  0
 47115  1  0  0  0
 48 56  1  0  0  0
 48 65  1  0  0  0
 48116  1  0  0  0
 49 50  1  0  0  0
 49 53  1  0  0  0
 49 64  1  0  0  0
 49117  1  0  0  0
 50 51  1  0  0  0
 50118  1  0  0  0
 50119  1  0  0  0
 51 52  1  0  0  0
 51120  1  0  0  0
 51121  1  0  0  0
 52122  1  0  0  0
 52123  1  0  0  0
 53 54  1  0  0  0
 54 55  2  0  0  0
 54124  1  0  0  0
 55 57  1  0  0  0
 55125  1  0  0  0
 56 69  2  0  0  0
 57 58  2  0  0  0
 57126  1  0  0  0
 58127  1  0  0  0
 59 60  1  0  0  0
 59 61  1  0  0  0
 59 62  1  0  0  0
 60128  1  0  0  0
 60129  1  0  0  0
 60130  1  0  0  0
 61131  1  0  0  0
 61132  1  0  0  0
 61133  1  0  0  0
 62134  1  0  0  0
 62135  1  0  0  0
 62136  1  0  0  0
 63 65  1  0  0  0
 63137  1  0  0  0
 63138  1  0  0  0
 63139  1  0  0  0
 64140  1  0  0  0
 65141  1  0  0  0
 68 76  1  0  0  0
 71 72  2  0  0  0
 71 78  1  0  0  0
 71142  1  0  0  0
 72 79  1  0  0  0
 72 81  1  0  0  0
 73 78  2  0  0  0
 73 80  1  0  0  0
 73 82  1  0  0  0
 74143  1  0  0  0
 74144  1  0  0  0
 74145  1  0  0  0
 74 77  1  0  0  0
 75 76  1  0  0  0
 75 77  1  0  0  0
 75146  1  0  0  0
 75147  1  0  0  0
 76148  1  0  0  0
 76149  1  0  0  0
 77 81  1  0  0  0
 77150  1  0  0  0
 79 80  2  0  0  0
 81151  1  0  0  0
 82152  1  0  0  0
M  ISO  4   1 100  68 101  76 101  82 100
M  END
> <chiral flag>
0

> <version>
0

> <s_m_source_file>
/data/baiqing/PycharmProjects/Reinvent-master-3.2/result/LINK_invent/BTK/process_docking_weight1_custom_product_contain_oxygen_bond_distance_aromatic_linkinvent_7_9_3/rearranged_h_0195.sdf

> <i_m_source_file_index>
42

> <r_mmod_Potential_Energy-OPLS-2005>
-16.667667388916

> <r_mmod_Stretch_Energy-OPLS-2005>
99.3428802490234

> <r_mmod_Bend_Energy-OPLS-2005>
172.782363891602

> <r_mmod_Torsional_Energy-OPLS-2005>
221.960174560547

> <r_mmod_Improper_Torsional_Energy-OPLS-2005>
4.33160400390625

> <r_mmod_Van_der_Waal_Energy-OPLS-2005>
143.921936035156

> <r_mmod_Electrostatic_Energy-OPLS-2005>
-473.533355712891

> <r_mmod_Solvation_Energy-OPLS-2005>
-241.019683837891

> <b_mmod_Minimization_Converged-OPLS-2005>
0

> <r_mmod_RMS_Derivative-OPLS-2005>
6.15640258789062

$$$$
42
                    3D
 Structure written by MMmdl.
156164  0  0  1  0            999 V2000
  -30.6471  -14.5908   20.4554 C   0  0  0  0  0  0
  -30.4304  -12.3460   19.4696 C   0  0  0  0  0  0
  -29.5150  -12.4829   18.2326 C   0  0  0  0  0  0
  -28.0333  -12.3387   18.6358 C   0  0  0  0  0  0
  -27.6544  -13.2139   19.8613 C   0  0  2  0  0  0
  -28.6943  -13.0762   20.9973 C   0  0  0  0  0  0
  -25.2577  -13.8169   20.5664 C   0  0  0  0  0  0
  -24.1836  -13.0441   20.9181 C   0  0  0  0  0  0
  -24.6396  -11.6911   20.8726 C   0  0  0  0  0  0
  -23.9067  -10.4294   21.0405 C   0  0  0  0  0  0
  -24.3621   -9.4208   21.9181 C   0  0  0  0  0  0
  -23.6295   -8.2243   22.0751 C   0  0  0  0  0  0
  -22.4277   -8.0284   21.3540 C   0  0  0  0  0  0
  -21.9912   -9.0263   20.4647 C   0  0  0  0  0  0
  -22.7241  -10.2141   20.3057 C   0  0  0  0  0  0
  -21.6859   -6.0738   22.5276 C   0  0  0  0  0  0
  -21.4015   -6.5635   23.8211 C   0  0  0  0  0  0
  -21.3657   -5.6784   24.9169 C   0  0  0  0  0  0
  -21.6049   -4.3048   24.7221 C   0  0  0  0  0  0
  -21.8823   -3.8143   23.4339 C   0  0  0  0  0  0
  -21.9190   -4.6963   22.3395 C   0  0  0  0  0  0
  -22.7859  -13.5249   21.1833 C   0  0  0  0  0  0
  -22.1660   -4.2151   21.0976 F   0  0  0  0  0  0
  -21.5626   -3.4532   25.7730 F   0  0  0  0  0  0
  -30.0164  -13.3790   20.4359 N   0  0  0  0  0  0
  -26.2995  -12.9341   20.3287 N   0  0  0  0  0  0
  -25.9325  -11.6504   20.5742 N   0  0  0  0  0  0
  -22.0485  -12.8259   22.0393 N   0  0  0  0  0  0
  -25.4317  -15.1888   20.4062 N   0  0  0  0  0  0
  -31.8431  -14.6959   20.1557 O   0  0  0  0  0  0
  -21.6638   -6.8885   21.4240 O   0  0  0  0  0  0
  -22.3556  -14.5558   20.6676 O   0  0  0  0  0  0
  -24.6220  -31.8627   23.2086 C   0  0  0  0  0  0
  -25.9096  -32.4792   23.8382 C   0  0  1  0  0  0
  -27.2206  -27.3670   20.1021 C   0  0  0  0  0  0
  -25.5936  -33.8595   24.2311 N   0  0  0  0  0  0
  -23.4108  -30.4911   21.5497 C   0  0  2  0  0  0
  -24.8520  -28.9564   20.1131 C   0  0  0  0  0  0
  -22.7443  -29.4635   22.4941 C   0  0  0  0  0  0
  -18.0262  -28.1390   22.8452 C   0  0  0  0  0  0
  -24.1494  -36.7320   23.2632 C   0  0  0  0  0  0
  -25.9448  -30.8158   21.3628 C   0  0  0  0  0  0
  -26.0189  -29.4455   20.7093 C   0  0  0  0  0  0
  -27.2036  -28.6608   20.6956 C   0  0  0  0  0  0
  -26.0157  -26.9062   19.5141 C   0  0  0  0  0  0
  -24.8490  -27.6902   19.5120 C   0  0  0  0  0  0
  -23.6238  -29.8383   20.1596 C   0  0  0  0  0  0
  -25.4110  -36.3081   24.0321 C   0  0  1  0  0  0
  -20.5859  -28.3683   23.1292 C   0  0  2  0  0  0
  -20.6764  -26.9413   22.5419 C   0  0  0  0  0  0
  -19.5756  -26.6382   21.5207 C   0  0  0  0  0  0
  -18.1923  -26.7933   22.1594 C   0  0  0  0  0  0
  -19.1512  -28.8849   23.2865 C   0  0  0  0  0  0
  -18.9441  -30.1447   23.8888 C   0  0  0  0  0  0
  -17.6446  -30.6586   24.0562 C   0  0  0  0  0  0
  -25.9040  -34.9456   23.5101 C   0  0  0  0  0  0
  -16.5335  -29.9093   23.6316 C   0  0  0  0  0  0
  -16.7253  -28.6519   23.0317 C   0  0  0  0  0  0
  -26.4533  -31.6570   25.0708 C   0  0  0  0  0  0
  -25.3834  -31.3662   26.1477 C   0  0  0  0  0  0
  -27.0344  -30.2999   24.6077 C   0  0  0  0  0  0
  -27.6089  -32.4300   25.7497 C   0  0  0  0  0  0
  -27.5571  -37.1810   24.8449 C   0  0  0  0  0  0
  -21.4157  -29.3046   22.3696 N   0  0  0  0  0  0
  -26.4275  -37.3776   23.9406 N   0  0  0  0  0  0
  -24.6787  -31.0710   22.0998 N   0  0  0  0  0  0
  -23.4191  -28.8139   23.2975 O   0  0  0  0  0  0
  -28.3900  -26.6049   20.1438 O   0  0  0  0  0  0
  -26.5580  -34.8916   22.4649 O   0  0  0  0  0  0
  -23.5402  -32.1393   23.7465 O   0  0  0  0  0  0
  -29.2099  -18.8587   19.0307 C   0  0  0  0  0  0
  -29.4926  -17.2644   17.5168 C   0  0  0  0  0  0
  -29.6875  -16.7220   19.6531 C   0  0  0  0  0  0
  -28.8583  -20.3225   19.1295 C   0  0  0  0  0  0
  -28.7285  -21.2828   20.0836 C   0  0  0  0  0  0
  -30.1218  -23.9503   20.9550 C   0  0  0  0  0  0
  -28.2436  -22.7085   19.6742 C   0  0  0  0  0  0
  -28.4900  -25.2954   19.5049 C   0  0  0  0  0  0
  -28.6819  -24.0234   20.4238 C   0  0  2  0  0  0
  -29.2601  -18.5264   17.7434 N   0  0  0  0  0  0
  -29.4121  -17.9931   20.0546 N   0  0  0  0  0  0
  -29.7008  -16.3115   18.3853 N   0  0  0  0  0  0
  -29.5262  -16.9041   16.2095 N   0  0  0  0  0  0
  -29.8555  -15.6980   20.5941 N   0  0  0  0  0  0
  -31.4781  -12.4433   19.1798 H   0  0  0  0  0  0
  -30.3355  -11.3544   19.9145 H   0  0  0  0  0  0
  -29.7759  -11.7270   17.4909 H   0  0  0  0  0  0
  -29.6770  -13.4505   17.7541 H   0  0  0  0  0  0
  -27.8604  -11.2866   18.8678 H   0  0  0  0  0  0
  -27.3869  -12.5737   17.7894 H   0  0  0  0  0  0
  -27.6739  -14.2466   19.5148 H   0  0  0  0  0  0
  -28.6865  -12.0645   21.4068 H   0  0  0  0  0  0
  -28.4556  -13.7397   21.8294 H   0  0  0  0  0  0
  -25.2774   -9.5686   22.4749 H   0  0  0  0  0  0
  -24.0005   -7.4641   22.7474 H   0  0  0  0  0  0
  -21.0836   -8.8791   19.8965 H   0  0  0  0  0  0
  -22.3701  -10.9680   19.6166 H   0  0  0  0  0  0
  -21.2015   -7.6143   23.9720 H   0  0  0  0  0  0
  -21.1474   -6.0507   25.9075 H   0  0  0  0  0  0
  -22.0605   -2.7606   23.2834 H   0  0  0  0  0  0
  -22.4074  -11.9928   22.4813 H   0  0  0  0  0  0
  -21.1112  -13.1321   22.2575 H   0  0  0  0  0  0
  -24.6685  -15.8465   20.5261 H   0  0  0  0  0  0
  -26.2747  -15.6236   20.0563 H   0  0  0  0  0  0
  -26.7153  -32.5495   23.1130 H   0  0  0  0  0  0
  -25.0131  -33.9763   25.0484 H   0  0  0  0  0  0
  -22.7008  -31.3094   21.4156 H   0  0  0  0  0  0
  -23.3730  -35.9678   23.3284 H   0  0  0  0  0  0
  -24.3581  -36.8958   22.2048 H   0  0  0  0  0  0
  -23.7296  -37.6537   23.6670 H   0  0  0  0  0  0
  -26.0551  -31.5797   20.5917 H   0  0  0  0  0  0
  -26.8331  -30.8728   21.9798 H   0  0  0  0  0  0
  -28.1044  -29.0421   21.1556 H   0  0  0  0  0  0
  -25.9131  -25.9343   19.0620 H   0  0  0  0  0  0
  -23.9466  -27.3046   19.0578 H   0  0  0  0  0  0
  -23.7581  -30.6232   19.4134 H   0  0  0  0  0  0
  -22.7414  -29.2797   19.8436 H   0  0  0  0  0  0
  -25.1301  -36.1917   25.0811 H   0  0  0  0  0  0
  -20.9930  -28.3257   24.1420 H   0  0  0  0  0  0
  -20.5660  -26.2296   23.3612 H   0  0  0  0  0  0
  -21.6644  -26.7462   22.1229 H   0  0  0  0  0  0
  -19.6935  -25.6293   21.1240 H   0  0  0  0  0  0
  -19.6719  -27.3190   20.6738 H   0  0  0  0  0  0
  -17.4214  -26.6655   21.3980 H   0  0  0  0  0  0
  -18.0311  -26.0087   22.8997 H   0  0  0  0  0  0
  -19.7917  -30.7246   24.2276 H   0  0  0  0  0  0
  -17.5008  -31.6266   24.5169 H   0  0  0  0  0  0
  -15.5338  -30.3004   23.7658 H   0  0  0  0  0  0
  -15.8642  -28.0867   22.7014 H   0  0  0  0  0  0
  -24.6003  -30.7003   25.7842 H   0  0  0  0  0  0
  -24.9051  -32.2808   26.4984 H   0  0  0  0  0  0
  -25.8240  -30.8810   27.0195 H   0  0  0  0  0  0
  -26.2847  -29.6747   24.1202 H   0  0  0  0  0  0
  -27.4170  -29.7255   25.4525 H   0  0  0  0  0  0
  -27.8679  -30.4287   23.9167 H   0  0  0  0  0  0
  -27.2673  -33.3571   26.2117 H   0  0  0  0  0  0
  -28.3902  -32.6904   25.0346 H   0  0  0  0  0  0
  -28.0761  -31.8402   26.5394 H   0  0  0  0  0  0
  -28.2572  -38.0120   24.7487 H   0  0  0  0  0  0
  -28.1075  -36.2644   24.6272 H   0  0  0  0  0  0
  -27.2279  -37.1475   25.8846 H   0  0  0  0  0  0
  -20.9315  -29.8825   21.6971 H   0  0  0  0  0  0
  -26.0141  -38.2831   24.1443 H   0  0  0  0  0  0
  -28.6197  -20.7180   18.1519 H   0  0  0  0  0  0
  -28.9193  -21.0644   21.1249 H   0  0  0  0  0  0
  -30.2383  -23.1436   21.6793 H   0  0  0  0  0  0
  -30.3988  -24.8789   21.4564 H   0  0  0  0  0  0
  -30.8371  -23.7843   20.1490 H   0  0  0  0  0  0
  -27.1527  -22.6787   19.6843 H   0  0  0  0  0  0
  -28.5045  -22.8389   18.6231 H   0  0  0  0  0  0
  -27.6969  -25.1006   18.7910 H   0  0  0  0  0  0
  -29.3640  -25.3658   18.8566 H   0  0  0  0  0  0
  -28.0232  -24.1334   21.2867 H   0  0  0  0  0  0
  -29.0800  -17.5424   15.5654 H   0  0  0  0  0  0
  -29.3841  -15.9238   16.0097 H   0  0  0  0  0  0
  -29.0394  -15.5512   21.1630 H   0  0  0  0  0  0
  1 25  1  0  0  0
  1 30  2  0  0  0
  1 84  1  0  0  0
  2  3  1  0  0  0
  2 25  1  0  0  0
  2 85  1  0  0  0
  2 86  1  0  0  0
  3  4  1  0  0  0
  3 87  1  0  0  0
  3 88  1  0  0  0
  4  5  1  0  0  0
  4 89  1  0  0  0
  4 90  1  0  0  0
  5  6  1  0  0  0
  5 26  1  0  0  0
  5 91  1  0  0  0
  6 25  1  0  0  0
  6 92  1  0  0  0
  6 93  1  0  0  0
  7  8  2  0  0  0
  7 26  1  0  0  0
  7 29  1  0  0  0
  8  9  1  0  0  0
  8 22  1  0  0  0
  9 10  1  0  0  0
  9 27  2  0  0  0
 10 11  2  0  0  0
 10 15  1  0  0  0
 11 12  1  0  0  0
 11 94  1  0  0  0
 12 13  2  0  0  0
 12 95  1  0  0  0
 13 14  1  0  0  0
 13 31  1  0  0  0
 14 15  2  0  0  0
 14 96  1  0  0  0
 15 97  1  0  0  0
 16 17  2  0  0  0
 16 21  1  0  0  0
 16 31  1  0  0  0
 17 18  1  0  0  0
 17 98  1  0  0  0
 18 19  2  0  0  0
 18 99  1  0  0  0
 19 20  1  0  0  0
 19 24  1  0  0  0
 20 21  2  0  0  0
 20100  1  0  0  0
 21 23  1  0  0  0
 22 28  1  0  0  0
 22 32  2  0  0  0
 26 27  1  0  0  0
 28101  1  0  0  0
 28102  1  0  0  0
 29103  1  0  0  0
 29104  1  0  0  0
 33 34  1  0  0  0
 33 66  1  0  0  0
 33 70  2  0  0  0
 34 36  1  0  0  0
 34 59  1  0  0  0
 34105  1  0  0  0
 35 44  2  0  0  0
 35 45  1  0  0  0
 35 68  1  0  0  0
 36 56  1  0  0  0
 36106  1  0  0  0
 37 39  1  0  0  0
 37 47  1  0  0  0
 37 66  1  0  0  0
 37107  1  0  0  0
 38 43  2  0  0  0
 38 46  1  0  0  0
 38 47  1  0  0  0
 39 64  1  0  0  0
 39 67  2  0  0  0
 40 52  1  0  0  0
 40 53  2  0  0  0
 40 58  1  0  0  0
 41108  1  0  0  0
 41109  1  0  0  0
 41110  1  0  0  0
 41 48  1  0  0  0
 42 43  1  0  0  0
 42 66  1  0  0  0
 42111  1  0  0  0
 42112  1  0  0  0
 43 44  1  0  0  0
 44113  1  0  0  0
 45 46  2  0  0  0
 45114  1  0  0  0
 46115  1  0  0  0
 47116  1  0  0  0
 47117  1  0  0  0
 48 56  1  0  0  0
 48 65  1  0  0  0
 48118  1  0  0  0
 49 50  1  0  0  0
 49 53  1  0  0  0
 49 64  1  0  0  0
 49119  1  0  0  0
 50 51  1  0  0  0
 50120  1  0  0  0
 50121  1  0  0  0
 51 52  1  0  0  0
 51122  1  0  0  0
 51123  1  0  0  0
 52124  1  0  0  0
 52125  1  0  0  0
 53 54  1  0  0  0
 54 55  2  0  0  0
 54126  1  0  0  0
 55 57  1  0  0  0
 55127  1  0  0  0
 56 69  2  0  0  0
 57 58  2  0  0  0
 57128  1  0  0  0
 58129  1  0  0  0
 59 60  1  0  0  0
 59 61  1  0  0  0
 59 62  1  0  0  0
 60130  1  0  0  0
 60131  1  0  0  0
 60132  1  0  0  0
 61133  1  0  0  0
 61134  1  0  0  0
 61135  1  0  0  0
 62136  1  0  0  0
 62137  1  0  0  0
 62138  1  0  0  0
 63 65  1  0  0  0
 63139  1  0  0  0
 63140  1  0  0  0
 63141  1  0  0  0
 64142  1  0  0  0
 65143  1  0  0  0
 68 78  1  0  0  0
 71 74  1  0  0  0
 71 80  1  0  0  0
 71 81  2  0  0  0
 72 80  2  0  0  0
 72 82  1  0  0  0
 72 83  1  0  0  0
 73 81  1  0  0  0
 73 82  2  0  0  0
 73 84  1  0  0  0
 74 75  2  0  0  0
 74144  1  0  0  0
 75 77  1  0  0  0
 75145  1  0  0  0
 76146  1  0  0  0
 76147  1  0  0  0
 76148  1  0  0  0
 76 79  1  0  0  0
 77 79  1  0  0  0
 77149  1  0  0  0
 77150  1  0  0  0
 78 79  1  0  0  0
 78151  1  0  0  0
 78152  1  0  0  0
 79153  1  0  0  0
 83154  1  0  0  0
 83155  1  0  0  0
 84156  1  0  0  0
M  ISO  4   1 100  68 101  78 101  84 100
M  END
> <chiral flag>
0

> <version>
0

> <s_m_source_file>
/data/baiqing/PycharmProjects/Reinvent-master-3.2/result/LINK_invent/BTK/process_docking_weight1_custom_product_contain_oxygen_bond_distance_aromatic_linkinvent_7_9_3/rearranged_h_0195.sdf

> <i_m_source_file_index>
43

> <r_mmod_Potential_Energy-OPLS-2005>
-677.203674316406

> <r_mmod_Stretch_Energy-OPLS-2005>
62.6979141235352

> <r_mmod_Bend_Energy-OPLS-2005>
174.601913452148

> <r_mmod_Torsional_Energy-OPLS-2005>
256.553344726562

> <r_mmod_Improper_Torsional_Energy-OPLS-2005>
11.5768947601318

> <r_mmod_Van_der_Waal_Energy-OPLS-2005>
172.597427368164

> <r_mmod_Electrostatic_Energy-OPLS-2005>
-1157.04907226562

> <r_mmod_Solvation_Energy-OPLS-2005>
-232.540588378906

> <b_mmod_Minimization_Converged-OPLS-2005>
0

> <r_mmod_RMS_Derivative-OPLS-2005>
1.8228645324707

$$$$
43
                    3D
 Structure written by MMmdl.
157165  0  0  1  0            999 V2000
  -30.6201  -14.6588   20.4938 C   0  0  0  0  0  0
  -30.4387  -12.3990   19.4625 C   0  0  0  0  0  0
  -29.5115  -12.5050   18.2307 C   0  0  0  0  0  0
  -28.0338  -12.3410   18.6400 C   0  0  0  0  0  0
  -27.6522  -13.2183   19.8622 C   0  0  2  0  0  0
  -28.6952  -13.0847   20.9953 C   0  0  0  0  0  0
  -25.2552  -13.8173   20.5685 C   0  0  0  0  0  0
  -24.1818  -13.0437   20.9181 C   0  0  0  0  0  0
  -24.6386  -11.6907   20.8731 C   0  0  0  0  0  0
  -23.9052  -10.4293   21.0402 C   0  0  0  0  0  0
  -24.3606   -9.4210   21.9183 C   0  0  0  0  0  0
  -23.6285   -8.2243   22.0753 C   0  0  0  0  0  0
  -22.4267   -8.0277   21.3543 C   0  0  0  0  0  0
  -21.9898   -9.0250   20.4650 C   0  0  0  0  0  0
  -22.7222  -10.2130   20.3056 C   0  0  0  0  0  0
  -21.6851   -6.0730   22.5279 C   0  0  0  0  0  0
  -21.4016   -6.5637   23.8212 C   0  0  0  0  0  0
  -21.3660   -5.6789   24.9174 C   0  0  0  0  0  0
  -21.6043   -4.3049   24.7225 C   0  0  0  0  0  0
  -21.8820   -3.8142   23.4346 C   0  0  0  0  0  0
  -21.9194   -4.6960   22.3403 C   0  0  0  0  0  0
  -22.7839  -13.5237   21.1846 C   0  0  0  0  0  0
  -22.1662   -4.2147   21.0980 F   0  0  0  0  0  0
  -21.5627   -3.4534   25.7737 F   0  0  0  0  0  0
  -30.0114  -13.4280   20.4334 N   0  0  0  0  0  0
  -26.2979  -12.9358   20.3307 N   0  0  0  0  0  0
  -25.9315  -11.6511   20.5741 N   0  0  0  0  0  0
  -22.0480  -12.8236   22.0409 N   0  0  0  0  0  0
  -25.4265  -15.1894   20.4123 N   0  0  0  0  0  0
  -31.7898  -14.7919   20.1138 O   0  0  0  0  0  0
  -21.6636   -6.8869   21.4237 O   0  0  0  0  0  0
  -22.3530  -14.5545   20.6693 O   0  0  0  0  0  0
  -24.6259  -31.8595   23.2016 C   0  0  0  0  0  0
  -25.9102  -32.4781   23.8350 C   0  0  1  0  0  0
  -27.2293  -27.3223   20.1268 C   0  0  0  0  0  0
  -25.5912  -33.8580   24.2277 N   0  0  0  0  0  0
  -23.4204  -30.4812   21.5444 C   0  0  2  0  0  0
  -24.8684  -28.9323   20.1144 C   0  0  0  0  0  0
  -22.7478  -29.4621   22.4948 C   0  0  0  0  0  0
  -18.0286  -28.1387   22.8495 C   0  0  0  0  0  0
  -24.1485  -36.7293   23.2642 C   0  0  0  0  0  0
  -25.9600  -30.7925   21.3710 C   0  0  0  0  0  0
  -26.0365  -29.4181   20.7167 C   0  0  0  0  0  0
  -27.2225  -28.6263   20.7088 C   0  0  0  0  0  0
  -26.0427  -26.8860   19.4996 C   0  0  0  0  0  0
  -24.8730  -27.6712   19.4957 C   0  0  0  0  0  0
  -23.6351  -29.8113   20.1613 C   0  0  0  0  0  0
  -25.4111  -36.3088   24.0333 C   0  0  1  0  0  0
  -20.5887  -28.3690   23.1295 C   0  0  2  0  0  0
  -20.6772  -26.9413   22.5420 C   0  0  0  0  0  0
  -19.5746  -26.6388   21.5221 C   0  0  0  0  0  0
  -18.1926  -26.7931   22.1632 C   0  0  0  0  0  0
  -19.1539  -28.8856   23.2889 C   0  0  0  0  0  0
  -18.9460  -30.1459   23.8902 C   0  0  0  0  0  0
  -17.6458  -30.6591   24.0565 C   0  0  0  0  0  0
  -25.9046  -34.9456   23.5107 C   0  0  0  0  0  0
  -16.5350  -29.9089   23.6331 C   0  0  0  0  0  0
  -16.7273  -28.6506   23.0355 C   0  0  0  0  0  0
  -26.4481  -31.6596   25.0724 C   0  0  0  0  0  0
  -25.3713  -31.3744   26.1454 C   0  0  0  0  0  0
  -27.0313  -30.3018   24.6177 C   0  0  0  0  0  0
  -27.6049  -32.4331   25.7485 C   0  0  0  0  0  0
  -27.5577  -37.1801   24.8467 C   0  0  0  0  0  0
  -21.4193  -29.3040   22.3689 N   0  0  0  0  0  0
  -26.4291  -37.3781   23.9408 N   0  0  0  0  0  0
  -24.6875  -31.0611   22.0962 N   0  0  0  0  0  0
  -23.4201  -28.8170   23.3035 O   0  0  0  0  0  0
  -28.3472  -26.4771   20.1351 O   0  0  0  0  0  0
  -26.5624  -34.8923   22.4680 O   0  0  0  0  0  0
  -23.5422  -32.1389   23.7346 O   0  0  0  0  0  0
  -29.6127  -19.8990   20.3461 C   0  0  0  0  0  0
  -30.6987  -19.1056   19.8866 C   0  0  0  0  0  0
  -28.6528  -19.1101   21.0312 C   0  0  0  0  0  0
  -29.8250  -17.1178   20.6987 C   0  0  0  0  0  0
  -29.4175  -22.4865   22.2056 C   0  0  0  0  0  0
  -29.0017  -23.8798   20.0721 C   0  0  0  0  0  0
  -28.1686  -25.1063   20.6747 C   0  0  0  0  0  0
  -28.8762  -22.4355   20.7680 C   0  0  1  0  0  0
  -30.8041  -17.7629   20.0485 N   0  0  0  0  0  0
  -28.7584  -17.7658   21.1960 N   0  0  0  0  0  0
  -31.7428  -19.7127   19.2008 N   0  0  0  0  0  0
  -27.4961  -19.6852   21.5317 N   0  0  0  0  0  0
  -29.5494  -21.3134   20.0361 N   0  0  0  0  0  0
  -29.8123  -15.7100   20.8577 N   0  0  0  0  0  0
  -31.4812  -12.5186   19.1622 H   0  0  0  0  0  0
  -30.3715  -11.4059   19.9099 H   0  0  0  0  0  0
  -29.7801  -11.7492   17.4909 H   0  0  0  0  0  0
  -29.6530  -13.4716   17.7447 H   0  0  0  0  0  0
  -27.8733  -11.2886   18.8771 H   0  0  0  0  0  0
  -27.3812  -12.5637   17.7953 H   0  0  0  0  0  0
  -27.6666  -14.2512   19.5131 H   0  0  0  0  0  0
  -28.7079  -12.0660   21.3864 H   0  0  0  0  0  0
  -28.4350  -13.7216   21.8424 H   0  0  0  0  0  0
  -25.2752   -9.5690   22.4753 H   0  0  0  0  0  0
  -24.0000   -7.4636   22.7467 H   0  0  0  0  0  0
  -21.0830   -8.8763   19.8959 H   0  0  0  0  0  0
  -22.3676  -10.9665   19.6161 H   0  0  0  0  0  0
  -21.2009   -7.6146   23.9712 H   0  0  0  0  0  0
  -21.1481   -6.0520   25.9076 H   0  0  0  0  0  0
  -22.0599   -2.7604   23.2843 H   0  0  0  0  0  0
  -22.4081  -11.9902   22.4817 H   0  0  0  0  0  0
  -21.1102  -13.1276   22.2615 H   0  0  0  0  0  0
  -24.6583  -15.8412   20.5288 H   0  0  0  0  0  0
  -26.2789  -15.6379   20.1024 H   0  0  0  0  0  0
  -26.7172  -32.5454   23.1103 H   0  0  0  0  0  0
  -25.0036  -33.9719   25.0404 H   0  0  0  0  0  0
  -22.7146  -31.3017   21.3997 H   0  0  0  0  0  0
  -23.3744  -35.9630   23.3324 H   0  0  0  0  0  0
  -24.3571  -36.8893   22.2052 H   0  0  0  0  0  0
  -23.7242  -37.6503   23.6648 H   0  0  0  0  0  0
  -26.0890  -31.5551   20.6016 H   0  0  0  0  0  0
  -26.8412  -30.8439   21.9991 H   0  0  0  0  0  0
  -28.1219  -28.9979   21.1795 H   0  0  0  0  0  0
  -26.0144  -25.9210   19.0139 H   0  0  0  0  0  0
  -23.9793  -27.2949   19.0175 H   0  0  0  0  0  0
  -23.7513  -30.5845   19.4009 H   0  0  0  0  0  0
  -22.7560  -29.2374   19.8634 H   0  0  0  0  0  0
  -25.1290  -36.1944   25.0826 H   0  0  0  0  0  0
  -20.9979  -28.3257   24.1416 H   0  0  0  0  0  0
  -20.5677  -26.2297   23.3617 H   0  0  0  0  0  0
  -21.6640  -26.7444   22.1213 H   0  0  0  0  0  0
  -19.6905  -25.6299   21.1249 H   0  0  0  0  0  0
  -19.6682  -27.3201   20.6752 H   0  0  0  0  0  0
  -17.4200  -26.6697   21.4027 H   0  0  0  0  0  0
  -18.0313  -26.0069   22.9022 H   0  0  0  0  0  0
  -19.7934  -30.7278   24.2274 H   0  0  0  0  0  0
  -17.5010  -31.6269   24.5170 H   0  0  0  0  0  0
  -15.5349  -30.2989   23.7649 H   0  0  0  0  0  0
  -15.8676  -28.0822   22.7069 H   0  0  0  0  0  0
  -24.5881  -30.7098   25.7786 H   0  0  0  0  0  0
  -24.8904  -32.2911   26.4875 H   0  0  0  0  0  0
  -25.8031  -30.8923   27.0233 H   0  0  0  0  0  0
  -26.2879  -29.6783   24.1195 H   0  0  0  0  0  0
  -27.3998  -29.7267   25.4683 H   0  0  0  0  0  0
  -27.8756  -30.4303   23.9402 H   0  0  0  0  0  0
  -27.2666  -33.3633   26.2063 H   0  0  0  0  0  0
  -28.3845  -32.6892   25.0300 H   0  0  0  0  0  0
  -28.0729  -31.8457   26.5395 H   0  0  0  0  0  0
  -28.2615  -38.0080   24.7497 H   0  0  0  0  0  0
  -28.1052  -36.2612   24.6310 H   0  0  0  0  0  0
  -27.2298  -37.1481   25.8873 H   0  0  0  0  0  0
  -20.9379  -29.8744   21.6880 H   0  0  0  0  0  0
  -26.0177  -38.2861   24.1394 H   0  0  0  0  0  0
  -28.8979  -23.2342   22.8041 H   0  0  0  0  0  0
  -30.4798  -22.7340   22.2220 H   0  0  0  0  0  0
  -29.2939  -21.5354   22.7233 H   0  0  0  0  0  0
  -30.0547  -24.1645   20.0542 H   0  0  0  0  0  0
  -28.7116  -23.7806   19.0259 H   0  0  0  0  0  0
  -28.4226  -25.1929   21.7303 H   0  0  0  0  0  0
  -27.1180  -24.8174   20.6717 H   0  0  0  0  0  0
  -27.8107  -22.2094   20.8099 H   0  0  0  0  0  0
  -31.8761  -20.6843   19.4469 H   0  0  0  0  0  0
  -32.6082  -19.1913   19.1880 H   0  0  0  0  0  0
  -27.3020  -20.5942   21.1358 H   0  0  0  0  0  0
  -26.6874  -19.0858   21.6106 H   0  0  0  0  0  0
  -30.1824  -21.5939   19.2922 H   0  0  0  0  0  0
  -28.9379  -15.3862   21.2324 H   0  0  0  0  0  0
  1 25  1  0  0  0
  1 30  2  0  0  0
  1 84  1  0  0  0
  2  3  1  0  0  0
  2 25  1  0  0  0
  2 85  1  0  0  0
  2 86  1  0  0  0
  3  4  1  0  0  0
  3 87  1  0  0  0
  3 88  1  0  0  0
  4  5  1  0  0  0
  4 89  1  0  0  0
  4 90  1  0  0  0
  5  6  1  0  0  0
  5 26  1  0  0  0
  5 91  1  0  0  0
  6 25  1  0  0  0
  6 92  1  0  0  0
  6 93  1  0  0  0
  7  8  2  0  0  0
  7 26  1  0  0  0
  7 29  1  0  0  0
  8  9  1  0  0  0
  8 22  1  0  0  0
  9 10  1  0  0  0
  9 27  2  0  0  0
 10 11  2  0  0  0
 10 15  1  0  0  0
 11 12  1  0  0  0
 11 94  1  0  0  0
 12 13  2  0  0  0
 12 95  1  0  0  0
 13 14  1  0  0  0
 13 31  1  0  0  0
 14 15  2  0  0  0
 14 96  1  0  0  0
 15 97  1  0  0  0
 16 17  2  0  0  0
 16 21  1  0  0  0
 16 31  1  0  0  0
 17 18  1  0  0  0
 17 98  1  0  0  0
 18 19  2  0  0  0
 18 99  1  0  0  0
 19 20  1  0  0  0
 19 24  1  0  0  0
 20 21  2  0  0  0
 20100  1  0  0  0
 21 23  1  0  0  0
 22 28  1  0  0  0
 22 32  2  0  0  0
 26 27  1  0  0  0
 28101  1  0  0  0
 28102  1  0  0  0
 29103  1  0  0  0
 29104  1  0  0  0
 33 34  1  0  0  0
 33 66  1  0  0  0
 33 70  2  0  0  0
 34 36  1  0  0  0
 34 59  1  0  0  0
 34105  1  0  0  0
 35 44  2  0  0  0
 35 45  1  0  0  0
 35 68  1  0  0  0
 36 56  1  0  0  0
 36106  1  0  0  0
 37 39  1  0  0  0
 37 47  1  0  0  0
 37 66  1  0  0  0
 37107  1  0  0  0
 38 43  2  0  0  0
 38 46  1  0  0  0
 38 47  1  0  0  0
 39 64  1  0  0  0
 39 67  2  0  0  0
 40 52  1  0  0  0
 40 53  2  0  0  0
 40 58  1  0  0  0
 41108  1  0  0  0
 41109  1  0  0  0
 41110  1  0  0  0
 41 48  1  0  0  0
 42 43  1  0  0  0
 42 66  1  0  0  0
 42111  1  0  0  0
 42112  1  0  0  0
 43 44  1  0  0  0
 44113  1  0  0  0
 45 46  2  0  0  0
 45114  1  0  0  0
 46115  1  0  0  0
 47116  1  0  0  0
 47117  1  0  0  0
 48 56  1  0  0  0
 48 65  1  0  0  0
 48118  1  0  0  0
 49 50  1  0  0  0
 49 53  1  0  0  0
 49 64  1  0  0  0
 49119  1  0  0  0
 50 51  1  0  0  0
 50120  1  0  0  0
 50121  1  0  0  0
 51 52  1  0  0  0
 51122  1  0  0  0
 51123  1  0  0  0
 52124  1  0  0  0
 52125  1  0  0  0
 53 54  1  0  0  0
 54 55  2  0  0  0
 54126  1  0  0  0
 55 57  1  0  0  0
 55127  1  0  0  0
 56 69  2  0  0  0
 57 58  2  0  0  0
 57128  1  0  0  0
 58129  1  0  0  0
 59 60  1  0  0  0
 59 61  1  0  0  0
 59 62  1  0  0  0
 60130  1  0  0  0
 60131  1  0  0  0
 60132  1  0  0  0
 61133  1  0  0  0
 61134  1  0  0  0
 61135  1  0  0  0
 62136  1  0  0  0
 62137  1  0  0  0
 62138  1  0  0  0
 63 65  1  0  0  0
 63139  1  0  0  0
 63140  1  0  0  0
 63141  1  0  0  0
 64142  1  0  0  0
 65143  1  0  0  0
 68 77  1  0  0  0
 71 72  2  0  0  0
 71 73  1  0  0  0
 71 83  1  0  0  0
 72 79  1  0  0  0
 72 81  1  0  0  0
 73 80  2  0  0  0
 73 82  1  0  0  0
 74 79  2  0  0  0
 74 80  1  0  0  0
 74 84  1  0  0  0
 75144  1  0  0  0
 75145  1  0  0  0
 75146  1  0  0  0
 75 78  1  0  0  0
 76 77  1  0  0  0
 76 78  1  0  0  0
 76147  1  0  0  0
 76148  1  0  0  0
 77149  1  0  0  0
 77150  1  0  0  0
 78 83  1  0  0  0
 78151  1  0  0  0
 81152  1  0  0  0
 81153  1  0  0  0
 82154  1  0  0  0
 82155  1  0  0  0
 83156  1  0  0  0
 84157  1  0  0  0
M  ISO  4   1 100  68 101  77 101  84 100
M  END
> <chiral flag>
0

> <version>
0

> <s_m_source_file>
/data/baiqing/PycharmProjects/Reinvent-master-3.2/result/LINK_invent/BTK/process_docking_weight1_custom_product_contain_oxygen_bond_distance_aromatic_linkinvent_7_9_3/rearranged_h_0195.sdf

> <i_m_source_file_index>
44

> <r_mmod_Potential_Energy-OPLS-2005>
-499.413787841797

> <r_mmod_Stretch_Energy-OPLS-2005>
81.2975387573242

> <r_mmod_Bend_Energy-OPLS-2005>
172.475357055664

> <r_mmod_Torsional_Energy-OPLS-2005>
230.672348022461

> <r_mmod_Improper_Torsional_Energy-OPLS-2005>
12.6948308944702

> <r_mmod_Van_der_Waal_Energy-OPLS-2005>
149.266220092773

> <r_mmod_Electrostatic_Energy-OPLS-2005>
-951.491760253906

> <r_mmod_Solvation_Energy-OPLS-2005>
-243.836380004883

> <b_mmod_Minimization_Converged-OPLS-2005>
0

> <r_mmod_RMS_Derivative-OPLS-2005>
0.82431548833847

$$$$
44
                    3D
 Structure written by MMmdl.
156164  0  0  1  0            999 V2000
  -30.6849  -14.4691   20.6419 C   0  0  0  0  0  0
  -30.4399  -12.3267   19.4106 C   0  0  0  0  0  0
  -29.4982  -12.5253   18.2022 C   0  0  0  0  0  0
  -28.0195  -12.3708   18.6129 C   0  0  0  0  0  0
  -27.6655  -13.1960   19.8769 C   0  0  2  0  0  0
  -28.7045  -12.9370   20.9929 C   0  0  0  0  0  0
  -25.2616  -13.8137   20.5675 C   0  0  0  0  0  0
  -24.1858  -13.0430   20.9187 C   0  0  0  0  0  0
  -24.6390  -11.6890   20.8724 C   0  0  0  0  0  0
  -23.9052  -10.4283   21.0395 C   0  0  0  0  0  0
  -24.3607   -9.4203   21.9176 C   0  0  0  0  0  0
  -23.6286   -8.2240   22.0747 C   0  0  0  0  0  0
  -22.4268   -8.0277   21.3542 C   0  0  0  0  0  0
  -21.9900   -9.0247   20.4645 C   0  0  0  0  0  0
  -22.7221  -10.2129   20.3050 C   0  0  0  0  0  0
  -21.6852   -6.0734   22.5280 C   0  0  0  0  0  0
  -21.4013   -6.5635   23.8214 C   0  0  0  0  0  0
  -21.3660   -5.6786   24.9174 C   0  0  0  0  0  0
  -21.6044   -4.3050   24.7225 C   0  0  0  0  0  0
  -21.8819   -3.8146   23.4345 C   0  0  0  0  0  0
  -21.9194   -4.6963   22.3402 C   0  0  0  0  0  0
  -22.7886  -13.5247   21.1851 C   0  0  0  0  0  0
  -22.1662   -4.2152   21.0980 F   0  0  0  0  0  0
  -21.5633   -3.4533   25.7737 F   0  0  0  0  0  0
  -30.0455  -13.2735   20.4685 N   0  0  0  0  0  0
  -26.3032  -12.9278   20.3331 N   0  0  0  0  0  0
  -25.9311  -11.6453   20.5733 N   0  0  0  0  0  0
  -22.0509  -12.8244   22.0397 N   0  0  0  0  0  0
  -25.4368  -15.1859   20.4096 N   0  0  0  0  0  0
  -31.7491  -14.7452   20.0639 O   0  0  0  0  0  0
  -21.6633   -6.8875   21.4242 O   0  0  0  0  0  0
  -22.3583  -14.5558   20.6697 O   0  0  0  0  0  0
  -24.6145  -31.8680   23.2099 C   0  0  0  0  0  0
  -25.9040  -32.4825   23.8395 C   0  0  1  0  0  0
  -27.2382  -27.4327   20.1038 C   0  0  0  0  0  0
  -25.5897  -33.8622   24.2328 N   0  0  0  0  0  0
  -23.4038  -30.4894   21.5499 C   0  0  2  0  0  0
  -24.8545  -28.9514   20.1192 C   0  0  0  0  0  0
  -22.7412  -29.4654   22.4991 C   0  0  0  0  0  0
  -18.0271  -28.1371   22.8491 C   0  0  0  0  0  0
  -24.1486  -36.7317   23.2636 C   0  0  0  0  0  0
  -25.9324  -30.8307   21.3659 C   0  0  0  0  0  0
  -26.0128  -29.4618   20.7207 C   0  0  0  0  0  0
  -27.2100  -28.7071   20.7170 C   0  0  0  0  0  0
  -26.0685  -26.9363   19.4965 C   0  0  0  0  0  0
  -24.8759  -27.6858   19.5058 C   0  0  0  0  0  0
  -23.6150  -29.8182   20.1661 C   0  0  0  0  0  0
  -25.4109  -36.3114   24.0335 C   0  0  1  0  0  0
  -20.5860  -28.3659   23.1316 C   0  0  2  0  0  0
  -20.6762  -26.9395   22.5415 C   0  0  0  0  0  0
  -19.5743  -26.6381   21.5208 C   0  0  0  0  0  0
  -18.1921  -26.7918   22.1619 C   0  0  0  0  0  0
  -19.1520  -28.8830   23.2902 C   0  0  0  0  0  0
  -18.9447  -30.1435   23.8914 C   0  0  0  0  0  0
  -17.6449  -30.6580   24.0559 C   0  0  0  0  0  0
  -25.9034  -34.9478   23.5130 C   0  0  0  0  0  0
  -16.5341  -29.9080   23.6322 C   0  0  0  0  0  0
  -16.7258  -28.6493   23.0351 C   0  0  0  0  0  0
  -26.4470  -31.6599   25.0720 C   0  0  0  0  0  0
  -25.3736  -31.3707   26.1467 C   0  0  0  0  0  0
  -27.0304  -30.3041   24.6098 C   0  0  0  0  0  0
  -27.6052  -32.4311   25.7482 C   0  0  0  0  0  0
  -27.5584  -37.1811   24.8463 C   0  0  0  0  0  0
  -21.4138  -29.3029   22.3728 N   0  0  0  0  0  0
  -26.4298  -37.3797   23.9406 N   0  0  0  0  0  0
  -24.6681  -31.0772   22.1007 N   0  0  0  0  0  0
  -23.4175  -28.8198   23.3041 O   0  0  0  0  0  0
  -28.3781  -26.6630   20.0495 O   0  0  0  0  0  0
  -26.5597  -34.8929   22.4691 O   0  0  0  0  0  0
  -23.5337  -32.1435   23.7487 O   0  0  0  0  0  0
  -28.5329  -17.1755   21.8893 C   0  0  0  0  0  0
  -30.2534  -18.9566   20.6298 C   0  0  0  0  0  0
  -28.1567  -18.5281   21.7643 C   0  0  0  0  0  0
  -29.0230  -19.4530   21.1307 C   0  0  0  0  0  0
  -29.7568  -16.7097   21.3509 C   0  0  0  0  0  0
  -28.6760  -23.2948   20.8273 C   0  0  0  0  0  0
  -29.4741  -24.6090   20.9541 C   0  0  0  0  0  0
  -29.4597  -21.9537   20.8038 C   0  0  0  0  0  0
  -28.6527  -25.9043   21.2346 C   0  0  0  0  0  0
  -30.5640  -17.6330   20.7490 N   0  3  0  0  0  0
  -26.9181  -18.9683   22.2471 N   0  0  0  0  0  0
  -28.5853  -20.7928   21.0319 N   0  0  0  0  0  0
  -30.0546  -15.3105   21.4885 N   0  0  0  0  0  0
  -27.4411  -23.2938   20.7684 O   0  0  0  0  0  0
  -31.4793  -12.4586   19.1039 H   0  0  0  0  0  0
  -30.3715  -11.3031   19.7827 H   0  0  0  0  0  0
  -29.7425  -11.8108   17.4152 H   0  0  0  0  0  0
  -29.6566  -13.5157   17.7726 H   0  0  0  0  0  0
  -27.8339  -11.3121   18.7981 H   0  0  0  0  0  0
  -27.3675  -12.6513   17.7848 H   0  0  0  0  0  0
  -27.7180  -14.2486   19.5980 H   0  0  0  0  0  0
  -28.6860  -11.8832   21.2775 H   0  0  0  0  0  0
  -28.4323  -13.4714   21.9036 H   0  0  0  0  0  0
  -25.2755   -9.5684   22.4744 H   0  0  0  0  0  0
  -24.0002   -7.4631   22.7456 H   0  0  0  0  0  0
  -21.0839   -8.8758   19.8948 H   0  0  0  0  0  0
  -22.3676  -10.9667   19.6158 H   0  0  0  0  0  0
  -21.1997   -7.6141   23.9724 H   0  0  0  0  0  0
  -21.1485   -6.0511   25.9079 H   0  0  0  0  0  0
  -22.0600   -2.7610   23.2842 H   0  0  0  0  0  0
  -22.4105  -11.9897   22.4788 H   0  0  0  0  0  0
  -21.1129  -13.1281   22.2590 H   0  0  0  0  0  0
  -24.6518  -15.8242   20.4819 H   0  0  0  0  0  0
  -26.2490  -15.6095   19.9807 H   0  0  0  0  0  0
  -26.7113  -32.5544   23.1163 H   0  0  0  0  0  0
  -25.0060  -33.9788   25.0480 H   0  0  0  0  0  0
  -22.6927  -31.3058   21.4081 H   0  0  0  0  0  0
  -23.3746  -35.9654   23.3314 H   0  0  0  0  0  0
  -24.3579  -36.8917   22.2048 H   0  0  0  0  0  0
  -23.7243  -37.6528   23.6640 H   0  0  0  0  0  0
  -26.0432  -31.5933   20.5934 H   0  0  0  0  0  0
  -26.8207  -30.8890   21.9831 H   0  0  0  0  0  0
  -28.1066  -29.0991   21.1767 H   0  0  0  0  0  0
  -26.0833  -25.9659   19.0208 H   0  0  0  0  0  0
  -23.9868  -27.2861   19.0377 H   0  0  0  0  0  0
  -23.7223  -30.5909   19.4038 H   0  0  0  0  0  0
  -22.7402  -29.2359   19.8712 H   0  0  0  0  0  0
  -25.1289  -36.1983   25.0828 H   0  0  0  0  0  0
  -20.9953  -28.3218   24.1436 H   0  0  0  0  0  0
  -20.5660  -26.2266   23.3600 H   0  0  0  0  0  0
  -21.6633  -26.7436   22.1210 H   0  0  0  0  0  0
  -19.6908  -25.6294   21.1233 H   0  0  0  0  0  0
  -19.6689  -27.3195   20.6743 H   0  0  0  0  0  0
  -17.4195  -26.6666   21.4017 H   0  0  0  0  0  0
  -18.0322  -26.0051   22.9006 H   0  0  0  0  0  0
  -19.7924  -30.7243   24.2299 H   0  0  0  0  0  0
  -17.5005  -31.6267   24.5149 H   0  0  0  0  0  0
  -15.5342  -30.2991   23.7634 H   0  0  0  0  0  0
  -15.8656  -28.0814   22.7069 H   0  0  0  0  0  0
  -24.5893  -30.7079   25.7791 H   0  0  0  0  0  0
  -24.8948  -32.2868   26.4936 H   0  0  0  0  0  0
  -25.8078  -30.8845   27.0211 H   0  0  0  0  0  0
  -26.2851  -29.6800   24.1152 H   0  0  0  0  0  0
  -27.4075  -29.7277   25.4556 H   0  0  0  0  0  0
  -27.8684  -30.4360   23.9250 H   0  0  0  0  0  0
  -27.2676  -33.3595   26.2103 H   0  0  0  0  0  0
  -28.3841  -32.6898   25.0296 H   0  0  0  0  0  0
  -28.0746  -31.8409   26.5363 H   0  0  0  0  0  0
  -28.2606  -38.0104   24.7515 H   0  0  0  0  0  0
  -28.1077  -36.2639   24.6287 H   0  0  0  0  0  0
  -27.2303  -37.1459   25.8866 H   0  0  0  0  0  0
  -20.9299  -29.8750   21.6949 H   0  0  0  0  0  0
  -26.0191  -38.2877   24.1408 H   0  0  0  0  0  0
  -27.8606  -16.4886   22.3821 H   0  0  0  0  0  0
  -30.9851  -19.5734   20.1242 H   0  0  0  0  0  0
  -30.0948  -24.7395   20.0681 H   0  0  0  0  0  0
  -30.1643  -24.4598   21.7843 H   0  0  0  0  0  0
  -30.2378  -21.9876   21.5677 H   0  0  0  0  0  0
  -29.9563  -21.8630   19.8372 H   0  0  0  0  0  0
  -29.2289  -26.5470   21.9012 H   0  0  0  0  0  0
  -27.7342  -25.6704   21.7775 H   0  0  0  0  0  0
  -31.4619  -17.3203   20.3618 H   0  0  0  0  0  0
  -26.2411  -18.2361   22.4174 H   0  0  0  0  0  0
  -26.5125  -19.6944   21.6717 H   0  0  0  0  0  0
  -27.7737  -20.9982   21.6076 H   0  0  0  0  0  0
  -29.3840  -14.8047   22.0397 H   0  0  0  0  0  0
  1 25  1  0  0  0
  1 30  2  0  0  0
  1 83  1  0  0  0
  2  3  1  0  0  0
  2 25  1  0  0  0
  2 85  1  0  0  0
  2 86  1  0  0  0
  3  4  1  0  0  0
  3 87  1  0  0  0
  3 88  1  0  0  0
  4  5  1  0  0  0
  4 89  1  0  0  0
  4 90  1  0  0  0
  5  6  1  0  0  0
  5 26  1  0  0  0
  5 91  1  0  0  0
  6 25  1  0  0  0
  6 92  1  0  0  0
  6 93  1  0  0  0
  7  8  2  0  0  0
  7 26  1  0  0  0
  7 29  1  0  0  0
  8  9  1  0  0  0
  8 22  1  0  0  0
  9 10  1  0  0  0
  9 27  2  0  0  0
 10 11  2  0  0  0
 10 15  1  0  0  0
 11 12  1  0  0  0
 11 94  1  0  0  0
 12 13  2  0  0  0
 12 95  1  0  0  0
 13 14  1  0  0  0
 13 31  1  0  0  0
 14 15  2  0  0  0
 14 96  1  0  0  0
 15 97  1  0  0  0
 16 17  2  0  0  0
 16 21  1  0  0  0
 16 31  1  0  0  0
 17 18  1  0  0  0
 17 98  1  0  0  0
 18 19  2  0  0  0
 18 99  1  0  0  0
 19 20  1  0  0  0
 19 24  1  0  0  0
 20 21  2  0  0  0
 20100  1  0  0  0
 21 23  1  0  0  0
 22 28  1  0  0  0
 22 32  2  0  0  0
 26 27  1  0  0  0
 28101  1  0  0  0
 28102  1  0  0  0
 29103  1  0  0  0
 29104  1  0  0  0
 33 34  1  0  0  0
 33 66  1  0  0  0
 33 70  2  0  0  0
 34 36  1  0  0  0
 34 59  1  0  0  0
 34105  1  0  0  0
 35 44  2  0  0  0
 35 45  1  0  0  0
 35 68  1  0  0  0
 36 56  1  0  0  0
 36106  1  0  0  0
 37 39  1  0  0  0
 37 47  1  0  0  0
 37 66  1  0  0  0
 37107  1  0  0  0
 38 43  2  0  0  0
 38 46  1  0  0  0
 38 47  1  0  0  0
 39 64  1  0  0  0
 39 67  2  0  0  0
 40 52  1  0  0  0
 40 53  2  0  0  0
 40 58  1  0  0  0
 41108  1  0  0  0
 41109  1  0  0  0
 41110  1  0  0  0
 41 48  1  0  0  0
 42 43  1  0  0  0
 42 66  1  0  0  0
 42111  1  0  0  0
 42112  1  0  0  0
 43 44  1  0  0  0
 44113  1  0  0  0
 45 46  2  0  0  0
 45114  1  0  0  0
 46115  1  0  0  0
 47116  1  0  0  0
 47117  1  0  0  0
 48 56  1  0  0  0
 48 65  1  0  0  0
 48118  1  0  0  0
 49 50  1  0  0  0
 49 53  1  0  0  0
 49 64  1  0  0  0
 49119  1  0  0  0
 50 51  1  0  0  0
 50120  1  0  0  0
 50121  1  0  0  0
 51 52  1  0  0  0
 51122  1  0  0  0
 51123  1  0  0  0
 52124  1  0  0  0
 52125  1  0  0  0
 53 54  1  0  0  0
 54 55  2  0  0  0
 54126  1  0  0  0
 55 57  1  0  0  0
 55127  1  0  0  0
 56 69  2  0  0  0
 57 58  2  0  0  0
 57128  1  0  0  0
 58129  1  0  0  0
 59 60  1  0  0  0
 59 61  1  0  0  0
 59 62  1  0  0  0
 60130  1  0  0  0
 60131  1  0  0  0
 60132  1  0  0  0
 61133  1  0  0  0
 61134  1  0  0  0
 61135  1  0  0  0
 62136  1  0  0  0
 62137  1  0  0  0
 62138  1  0  0  0
 63 65  1  0  0  0
 63139  1  0  0  0
 63140  1  0  0  0
 63141  1  0  0  0
 64142  1  0  0  0
 65143  1  0  0  0
 68 79  1  0  0  0
 71 73  2  0  0  0
 71 75  1  0  0  0
 71144  1  0  0  0
 72 74  2  0  0  0
 72 80  1  0  0  0
 72145  1  0  0  0
 73 74  1  0  0  0
 73 81  1  0  0  0
 74 82  1  0  0  0
 75 80  2  0  0  0
 75 83  1  0  0  0
 76 77  1  0  0  0
 76 78  1  0  0  0
 76 84  2  0  0  0
 77 79  1  0  0  0
 77146  1  0  0  0
 77147  1  0  0  0
 78 82  1  0  0  0
 78148  1  0  0  0
 78149  1  0  0  0
 79150  1  0  0  0
 79151  1  0  0  0
 80152  1  0  0  0
 81153  1  0  0  0
 81154  1  0  0  0
 82155  1  0  0  0
 83156  1  0  0  0
M  CHG  1  80   1
M  ISO  4   1 100  68 101  79 101  83 100
M  END
> <chiral flag>
0

> <version>
0

> <s_m_source_file>
/data/baiqing/PycharmProjects/Reinvent-master-3.2/result/LINK_invent/BTK/process_docking_weight1_custom_product_contain_oxygen_bond_distance_aromatic_linkinvent_7_9_3/rearranged_h_0195.sdf

> <i_m_source_file_index>
45

> <r_mmod_Potential_Energy-OPLS-2005>
-90.2805099487305

> <r_mmod_Stretch_Energy-OPLS-2005>
43.1379737854004

> <r_mmod_Bend_Energy-OPLS-2005>
118.924842834473

> <r_mmod_Torsional_Energy-OPLS-2005>
234.939392089844

> <r_mmod_Improper_Torsional_Energy-OPLS-2005>
12.4909696578979

> <r_mmod_Van_der_Waal_Energy-OPLS-2005>
148.124588012695

> <r_mmod_Electrostatic_Energy-OPLS-2005>
-191.30924987793

> <r_mmod_Solvation_Energy-OPLS-2005>
-468.074493408203

> <b_mmod_Minimization_Converged-OPLS-2005>
0

> <r_mmod_RMS_Derivative-OPLS-2005>
0.686822950839996

$$$$
45
                    3D
 Structure written by MMmdl.
157165  0  0  1  0            999 V2000
  -30.5692  -14.7495   20.4715 C   0  0  0  0  0  0
  -30.4524  -12.4588   19.4662 C   0  0  0  0  0  0
  -29.5174  -12.5121   18.2346 C   0  0  0  0  0  0
  -28.0429  -12.3257   18.6484 C   0  0  0  0  0  0
  -27.6480  -13.2171   19.8545 C   0  0  2  0  0  0
  -28.6941  -13.1209   20.9881 C   0  0  0  0  0  0
  -25.2555  -13.8152   20.5679 C   0  0  0  0  0  0
  -24.1823  -13.0429   20.9192 C   0  0  0  0  0  0
  -24.6390  -11.6896   20.8739 C   0  0  0  0  0  0
  -23.9056  -10.4285   21.0407 C   0  0  0  0  0  0
  -24.3611   -9.4211   21.9187 C   0  0  0  0  0  0
  -23.6286   -8.2245   22.0761 C   0  0  0  0  0  0
  -22.4272   -8.0280   21.3548 C   0  0  0  0  0  0
  -21.9907   -9.0247   20.4646 C   0  0  0  0  0  0
  -22.7229  -10.2126   20.3054 C   0  0  0  0  0  0
  -21.6849   -6.0734   22.5275 C   0  0  0  0  0  0
  -21.4007   -6.5639   23.8207 C   0  0  0  0  0  0
  -21.3654   -5.6795   24.9170 C   0  0  0  0  0  0
  -21.6042   -4.3056   24.7222 C   0  0  0  0  0  0
  -21.8820   -3.8148   23.4345 C   0  0  0  0  0  0
  -21.9192   -4.6964   22.3401 C   0  0  0  0  0  0
  -22.7848  -13.5235   21.1842 C   0  0  0  0  0  0
  -22.1663   -4.2150   21.0979 F   0  0  0  0  0  0
  -21.5628   -3.4543   25.7736 F   0  0  0  0  0  0
  -29.9986  -13.4958   20.4193 N   0  0  0  0  0  0
  -26.2968  -12.9328   20.3278 N   0  0  0  0  0  0
  -25.9321  -11.6489   20.5746 N   0  0  0  0  0  0
  -22.0477  -12.8229   22.0390 N   0  0  0  0  0  0
  -25.4268  -15.1877   20.4080 N   0  0  0  0  0  0
  -31.7486  -14.9094   20.1380 O   0  0  0  0  0  0
  -21.6643   -6.8875   21.4236 O   0  0  0  0  0  0
  -22.3548  -14.5550   20.6698 O   0  0  0  0  0  0
  -24.6297  -31.8540   23.1961 C   0  0  0  0  0  0
  -25.9113  -32.4757   23.8328 C   0  0  1  0  0  0
  -27.2263  -27.2675   20.1337 C   0  0  0  0  0  0
  -25.5897  -33.8559   24.2239 N   0  0  0  0  0  0
  -23.4274  -30.4740   21.5395 C   0  0  2  0  0  0
  -24.8742  -28.9101   20.1178 C   0  0  0  0  0  0
  -22.7494  -29.4600   22.4917 C   0  0  0  0  0  0
  -18.0287  -28.1387   22.8501 C   0  0  0  0  0  0
  -24.1466  -36.7264   23.2650 C   0  0  0  0  0  0
  -25.9712  -30.7706   21.3709 C   0  0  0  0  0  0
  -26.0459  -29.3898   20.7188 C   0  0  0  0  0  0
  -27.2266  -28.5832   20.7070 C   0  0  0  0  0  0
  -26.0323  -26.8410   19.5190 C   0  0  0  0  0  0
  -24.8719  -27.6439   19.5077 C   0  0  0  0  0  0
  -23.6443  -29.7978   20.1596 C   0  0  0  0  0  0
  -25.4097  -36.3069   24.0334 C   0  0  1  0  0  0
  -20.5892  -28.3691   23.1270 C   0  0  2  0  0  0
  -20.6768  -26.9410   22.5407 C   0  0  0  0  0  0
  -19.5739  -26.6383   21.5213 C   0  0  0  0  0  0
  -18.1924  -26.7936   22.1626 C   0  0  0  0  0  0
  -19.1541  -28.8856   23.2885 C   0  0  0  0  0  0
  -18.9478  -30.1460   23.8904 C   0  0  0  0  0  0
  -17.6479  -30.6592   24.0577 C   0  0  0  0  0  0
  -25.9048  -34.9443   23.5097 C   0  0  0  0  0  0
  -16.5362  -29.9095   23.6346 C   0  0  0  0  0  0
  -16.7276  -28.6508   23.0372 C   0  0  0  0  0  0
  -26.4473  -31.6597   25.0729 C   0  0  0  0  0  0
  -25.3687  -31.3738   26.1441 C   0  0  0  0  0  0
  -27.0338  -30.3027   24.6204 C   0  0  0  0  0  0
  -27.6042  -32.4333   25.7494 C   0  0  0  0  0  0
  -27.5561  -37.1783   24.8473 C   0  0  0  0  0  0
  -21.4202  -29.3048   22.3663 N   0  0  0  0  0  0
  -26.4265  -37.3775   23.9429 N   0  0  0  0  0  0
  -24.6959  -31.0510   22.0926 N   0  0  0  0  0  0
  -23.4196  -28.8155   23.3019 O   0  0  0  0  0  0
  -28.3495  -26.4172   20.1064 O   0  0  0  0  0  0
  -26.5649  -34.8934   22.4684 O   0  0  0  0  0  0
  -23.5445  -32.1353   23.7253 O   0  0  0  0  0  0
  -29.0294  -19.7290   20.3776 C   0  0  0  0  0  0
  -29.6860  -17.2603   20.5524 C   0  0  0  0  0  0
  -29.1820  -22.9348   17.3418 C   0  0  0  0  0  0
  -27.0442  -21.1347   21.2158 C   0  0  0  0  0  0
  -29.2150  -24.0335   18.4193 C   0  0  0  0  0  0
  -28.2857  -25.0106   20.6386 C   0  0  0  0  0  0
  -28.2192  -21.0873   20.2216 C   0  0  1  0  0  0
  -28.4399  -23.6839   19.7089 C   0  0  2  0  0  0
  -30.3364  -19.5133   20.6716 N   0  0  0  0  0  0
  -30.7107  -18.1204   20.7572 N   0  0  0  0  0  0
  -29.6934  -15.7897   20.7228 N   0  0  0  0  0  0
  -29.0244  -22.3857   20.3389 N   0  3  0  0  0  0
  -28.1797  -18.1518   20.1951 S   0  0  0  0  0  0
  -31.4888  -12.6116   19.1600 H   0  0  0  0  0  0
  -30.4214  -11.4736   19.9344 H   0  0  0  0  0  0
  -29.8024  -11.7461   17.5128 H   0  0  0  0  0  0
  -29.6328  -13.4708   17.7258 H   0  0  0  0  0  0
  -27.9029  -11.2752   18.9057 H   0  0  0  0  0  0
  -27.3833  -12.5186   17.8019 H   0  0  0  0  0  0
  -27.6471  -14.2412   19.4815 H   0  0  0  0  0  0
  -28.7337  -12.1075   21.3904 H   0  0  0  0  0  0
  -28.4229  -13.7633   21.8273 H   0  0  0  0  0  0
  -25.2750   -9.5697   22.4768 H   0  0  0  0  0  0
  -23.9993   -7.4645   22.7492 H   0  0  0  0  0  0
  -21.0834   -8.8755   19.8952 H   0  0  0  0  0  0
  -22.3679  -10.9666   19.6165 H   0  0  0  0  0  0
  -21.1993   -7.6143   23.9708 H   0  0  0  0  0  0
  -21.1472   -6.0526   25.9071 H   0  0  0  0  0  0
  -22.0606   -2.7613   23.2844 H   0  0  0  0  0  0
  -22.4079  -11.9874   22.4753 H   0  0  0  0  0  0
  -21.1105  -13.1269   22.2602 H   0  0  0  0  0  0
  -24.6488  -15.8319   20.5025 H   0  0  0  0  0  0
  -26.2504  -15.6232   20.0144 H   0  0  0  0  0  0
  -26.7190  -32.5406   23.1084 H   0  0  0  0  0  0
  -25.0004  -33.9704   25.0358 H   0  0  0  0  0  0
  -22.7257  -31.2961   21.3880 H   0  0  0  0  0  0
  -23.3755  -35.9570   23.3292 H   0  0  0  0  0  0
  -24.3551  -36.8903   22.2070 H   0  0  0  0  0  0
  -23.7180  -37.6441   23.6687 H   0  0  0  0  0  0
  -26.1037  -31.5278   20.5969 H   0  0  0  0  0  0
  -26.8523  -30.8251   21.9994 H   0  0  0  0  0  0
  -28.1326  -28.9542   21.1661 H   0  0  0  0  0  0
  -25.9935  -25.8715   19.0420 H   0  0  0  0  0  0
  -23.9739  -27.2723   19.0332 H   0  0  0  0  0  0
  -23.7663  -30.5696   19.3996 H   0  0  0  0  0  0
  -22.7637  -29.2289   19.8562 H   0  0  0  0  0  0
  -25.1274  -36.1920   25.0824 H   0  0  0  0  0  0
  -20.9997  -28.3263   24.1383 H   0  0  0  0  0  0
  -20.5654  -26.2308   23.3612 H   0  0  0  0  0  0
  -21.6628  -26.7418   22.1197 H   0  0  0  0  0  0
  -19.6905  -25.6301   21.1231 H   0  0  0  0  0  0
  -19.6674  -27.3210   20.6758 H   0  0  0  0  0  0
  -17.4189  -26.6708   21.4027 H   0  0  0  0  0  0
  -18.0306  -26.0063   22.9003 H   0  0  0  0  0  0
  -19.7962  -30.7274   24.2260 H   0  0  0  0  0  0
  -17.5039  -31.6280   24.5172 H   0  0  0  0  0  0
  -15.5371  -30.3008   23.7666 H   0  0  0  0  0  0
  -15.8667  -28.0829   22.7097 H   0  0  0  0  0  0
  -24.5882  -30.7068   25.7754 H   0  0  0  0  0  0
  -24.8857  -32.2906   26.4847 H   0  0  0  0  0  0
  -25.7982  -30.8932   27.0241 H   0  0  0  0  0  0
  -26.2933  -29.6767   24.1219 H   0  0  0  0  0  0
  -27.4027  -29.7294   25.4721 H   0  0  0  0  0  0
  -27.8788  -30.4328   23.9441 H   0  0  0  0  0  0
  -27.2687  -33.3686   26.1990 H   0  0  0  0  0  0
  -28.3888  -32.6799   25.0329 H   0  0  0  0  0  0
  -28.0656  -31.8499   26.5472 H   0  0  0  0  0  0
  -28.2572  -38.0091   24.7536 H   0  0  0  0  0  0
  -28.1057  -36.2621   24.6263 H   0  0  0  0  0  0
  -27.2287  -37.1385   25.8880 H   0  0  0  0  0  0
  -20.9386  -29.8758   21.6862 H   0  0  0  0  0  0
  -26.0138  -38.2839   24.1469 H   0  0  0  0  0  0
  -29.5638  -23.3139   16.3932 H   0  0  0  0  0  0
  -28.1653  -22.5814   17.1620 H   0  0  0  0  0  0
  -29.7958  -22.0756   17.6148 H   0  0  0  0  0  0
  -26.4004  -20.2621   21.1087 H   0  0  0  0  0  0
  -26.4159  -22.0097   21.0552 H   0  0  0  0  0  0
  -27.3955  -21.1582   22.2468 H   0  0  0  0  0  0
  -28.7719  -24.9317   17.9843 H   0  0  0  0  0  0
  -30.2467  -24.2987   18.6530 H   0  0  0  0  0  0
  -29.0932  -24.9744   21.3691 H   0  0  0  0  0  0
  -27.3781  -24.9057   21.2350 H   0  0  0  0  0  0
  -27.8079  -21.0612   19.2122 H   0  0  0  0  0  0
  -27.4241  -23.4478   19.3870 H   0  0  0  0  0  0
  -28.7773  -15.4291   20.9299 H   0  0  0  0  0  0
  -29.9204  -22.2101   19.9126 H   0  0  0  0  0  0
  -29.2153  -22.5310   21.3178 H   0  0  0  0  0  0
  1 25  1  0  0  0
  1 30  2  0  0  0
  1 81  1  0  0  0
  2  3  1  0  0  0
  2 25  1  0  0  0
  2 84  1  0  0  0
  2 85  1  0  0  0
  3  4  1  0  0  0
  3 86  1  0  0  0
  3 87  1  0  0  0
  4  5  1  0  0  0
  4 88  1  0  0  0
  4 89  1  0  0  0
  5  6  1  0  0  0
  5 26  1  0  0  0
  5 90  1  0  0  0
  6 25  1  0  0  0
  6 91  1  0  0  0
  6 92  1  0  0  0
  7  8  2  0  0  0
  7 26  1  0  0  0
  7 29  1  0  0  0
  8  9  1  0  0  0
  8 22  1  0  0  0
  9 10  1  0  0  0
  9 27  2  0  0  0
 10 11  2  0  0  0
 10 15  1  0  0  0
 11 12  1  0  0  0
 11 93  1  0  0  0
 12 13  2  0  0  0
 12 94  1  0  0  0
 13 14  1  0  0  0
 13 31  1  0  0  0
 14 15  2  0  0  0
 14 95  1  0  0  0
 15 96  1  0  0  0
 16 17  2  0  0  0
 16 21  1  0  0  0
 16 31  1  0  0  0
 17 18  1  0  0  0
 17 97  1  0  0  0
 18 19  2  0  0  0
 18 98  1  0  0  0
 19 20  1  0  0  0
 19 24  1  0  0  0
 20 21  2  0  0  0
 20 99  1  0  0  0
 21 23  1  0  0  0
 22 28  1  0  0  0
 22 32  2  0  0  0
 26 27  1  0  0  0
 28100  1  0  0  0
 28101  1  0  0  0
 29102  1  0  0  0
 29103  1  0  0  0
 33 34  1  0  0  0
 33 66  1  0  0  0
 33 70  2  0  0  0
 34 36  1  0  0  0
 34 59  1  0  0  0
 34104  1  0  0  0
 35 44  2  0  0  0
 35 45  1  0  0  0
 35 68  1  0  0  0
 36 56  1  0  0  0
 36105  1  0  0  0
 37 39  1  0  0  0
 37 47  1  0  0  0
 37 66  1  0  0  0
 37106  1  0  0  0
 38 43  2  0  0  0
 38 46  1  0  0  0
 38 47  1  0  0  0
 39 64  1  0  0  0
 39 67  2  0  0  0
 40 52  1  0  0  0
 40 53  2  0  0  0
 40 58  1  0  0  0
 41107  1  0  0  0
 41108  1  0  0  0
 41109  1  0  0  0
 41 48  1  0  0  0
 42 43  1  0  0  0
 42 66  1  0  0  0
 42110  1  0  0  0
 42111  1  0  0  0
 43 44  1  0  0  0
 44112  1  0  0  0
 45 46  2  0  0  0
 45113  1  0  0  0
 46114  1  0  0  0
 47115  1  0  0  0
 47116  1  0  0  0
 48 56  1  0  0  0
 48 65  1  0  0  0
 48117  1  0  0  0
 49 50  1  0  0  0
 49 53  1  0  0  0
 49 64  1  0  0  0
 49118  1  0  0  0
 50 51  1  0  0  0
 50119  1  0  0  0
 50120  1  0  0  0
 51 52  1  0  0  0
 51121  1  0  0  0
 51122  1  0  0  0
 52123  1  0  0  0
 52124  1  0  0  0
 53 54  1  0  0  0
 54 55  2  0  0  0
 54125  1  0  0  0
 55 57  1  0  0  0
 55126  1  0  0  0
 56 69  2  0  0  0
 57 58  2  0  0  0
 57127  1  0  0  0
 58128  1  0  0  0
 59 60  1  0  0  0
 59 61  1  0  0  0
 59 62  1  0  0  0
 60129  1  0  0  0
 60130  1  0  0  0
 60131  1  0  0  0
 61132  1  0  0  0
 61133  1  0  0  0
 61134  1  0  0  0
 62135  1  0  0  0
 62136  1  0  0  0
 62137  1  0  0  0
 63 65  1  0  0  0
 63138  1  0  0  0
 63139  1  0  0  0
 63140  1  0  0  0
 64141  1  0  0  0
 65142  1  0  0  0
 68 76  1  0  0  0
 71 77  1  0  0  0
 71 79  2  0  0  0
 71 83  1  0  0  0
 72 80  2  0  0  0
 72 81  1  0  0  0
 72 83  1  0  0  0
 73 75  1  0  0  0
 73143  1  0  0  0
 73144  1  0  0  0
 73145  1  0  0  0
 74146  1  0  0  0
 74147  1  0  0  0
 74148  1  0  0  0
 74 77  1  0  0  0
 75149  1  0  0  0
 75150  1  0  0  0
 75 78  1  0  0  0
 76 78  1  0  0  0
 76151  1  0  0  0
 76152  1  0  0  0
 77 82  1  0  0  0
 77153  1  0  0  0
 78 82  1  0  0  0
 78154  1  0  0  0
 79 80  1  0  0  0
 81155  1  0  0  0
 82156  1  0  0  0
 82157  1  0  0  0
M  CHG  1  82   1
M  ISO  4   1 100  68 101  76 101  81 100
M  END
> <chiral flag>
0

> <version>
0

> <s_m_source_file>
/data/baiqing/PycharmProjects/Reinvent-master-3.2/result/LINK_invent/BTK/process_docking_weight1_custom_product_contain_oxygen_bond_distance_aromatic_linkinvent_7_9_3/rearranged_h_0195.sdf

> <i_m_source_file_index>
46

> <r_mmod_Potential_Energy-OPLS-2005>
-79.4609832763672

> <r_mmod_Stretch_Energy-OPLS-2005>
117.367835998535

> <r_mmod_Bend_Energy-OPLS-2005>
201.561782836914

> <r_mmod_Torsional_Energy-OPLS-2005>
246.06623840332

> <r_mmod_Improper_Torsional_Energy-OPLS-2005>
5.40407419204712

> <r_mmod_Van_der_Waal_Energy-OPLS-2005>
104.560516357422

> <r_mmod_Electrostatic_Energy-OPLS-2005>
-349.831420898438

> <r_mmod_Solvation_Energy-OPLS-2005>
-484.722564697266

> <b_mmod_Minimization_Converged-OPLS-2005>
0

> <r_mmod_RMS_Derivative-OPLS-2005>
1.83919501304626

$$$$
46
                    3D
 Structure written by MMmdl.
177185  0  0  1  0            999 V2000
  -30.5549  -14.7109   20.4636 C   0  0  0  0  0  0
  -30.4527  -12.4263   19.4649 C   0  0  0  0  0  0
  -29.5153  -12.5073   18.2347 C   0  0  0  0  0  0
  -28.0362  -12.3304   18.6395 C   0  0  0  0  0  0
  -27.6475  -13.2089   19.8567 C   0  0  2  0  0  0
  -28.6946  -13.0806   20.9852 C   0  0  0  0  0  0
  -25.2540  -13.8130   20.5680 C   0  0  0  0  0  0
  -24.1809  -13.0402   20.9181 C   0  0  0  0  0  0
  -24.6376  -11.6868   20.8731 C   0  0  0  0  0  0
  -23.9048  -10.4262   21.0398 C   0  0  0  0  0  0
  -24.3602   -9.4179   21.9172 C   0  0  0  0  0  0
  -23.6279   -8.2218   22.0746 C   0  0  0  0  0  0
  -22.4259   -8.0260   21.3541 C   0  0  0  0  0  0
  -21.9890   -9.0226   20.4639 C   0  0  0  0  0  0
  -22.7221  -10.2108   20.3048 C   0  0  0  0  0  0
  -21.6844   -6.0719   22.5275 C   0  0  0  0  0  0
  -21.4012   -6.5631   23.8205 C   0  0  0  0  0  0
  -21.3661   -5.6789   24.9169 C   0  0  0  0  0  0
  -21.6041   -4.3054   24.7227 C   0  0  0  0  0  0
  -21.8819   -3.8140   23.4353 C   0  0  0  0  0  0
  -21.9187   -4.6949   22.3404 C   0  0  0  0  0  0
  -22.7838  -13.5190   21.1865 C   0  0  0  0  0  0
  -22.1655   -4.2139   21.0983 F   0  0  0  0  0  0
  -21.5630   -3.4539   25.7742 F   0  0  0  0  0  0
  -30.0065  -13.4489   20.4332 N   0  0  0  0  0  0
  -26.2954  -12.9289   20.3285 N   0  0  0  0  0  0
  -25.9298  -11.6457   20.5743 N   0  0  0  0  0  0
  -22.0510  -12.8171   22.0447 N   0  0  0  0  0  0
  -25.4244  -15.1855   20.4128 N   0  0  0  0  0  0
  -31.7448  -14.8716   20.1665 O   0  0  0  0  0  0
  -21.6625   -6.8859   21.4239 O   0  0  0  0  0  0
  -22.3507  -14.5495   20.6719 O   0  0  0  0  0  0
  -24.6287  -31.8563   23.2024 C   0  0  0  0  0  0
  -25.9124  -32.4772   23.8343 C   0  0  1  0  0  0
  -27.2250  -27.2848   20.1218 C   0  0  0  0  0  0
  -25.5923  -33.8579   24.2256 N   0  0  0  0  0  0
  -23.4231  -30.4809   21.5445 C   0  0  2  0  0  0
  -24.8709  -28.9330   20.1101 C   0  0  0  0  0  0
  -22.7487  -29.4605   22.4929 C   0  0  0  0  0  0
  -18.0275  -28.1387   22.8458 C   0  0  0  0  0  0
  -24.1485  -36.7281   23.2650 C   0  0  0  0  0  0
  -25.9694  -30.7768   21.3803 C   0  0  0  0  0  0
  -26.0424  -29.4033   20.7172 C   0  0  0  0  0  0
  -27.2200  -28.5922   20.7113 C   0  0  0  0  0  0
  -26.0251  -26.8750   19.4944 C   0  0  0  0  0  0
  -24.8667  -27.6753   19.4894 C   0  0  0  0  0  0
  -23.6398  -29.8172   20.1587 C   0  0  0  0  0  0
  -25.4116  -36.3081   24.0333 C   0  0  1  0  0  0
  -20.5878  -28.3684   23.1282 C   0  0  2  0  0  0
  -20.6763  -26.9402   22.5418 C   0  0  0  0  0  0
  -19.5752  -26.6362   21.5219 C   0  0  0  0  0  0
  -18.1923  -26.7924   22.1608 C   0  0  0  0  0  0
  -19.1533  -28.8845   23.2856 C   0  0  0  0  0  0
  -18.9475  -30.1441   23.8879 C   0  0  0  0  0  0
  -17.6485  -30.6586   24.0551 C   0  0  0  0  0  0
  -25.9066  -34.9451   23.5101 C   0  0  0  0  0  0
  -16.5366  -29.9087   23.6347 C   0  0  0  0  0  0
  -16.7267  -28.6509   23.0345 C   0  0  0  0  0  0
  -26.4511  -31.6608   25.0734 C   0  0  0  0  0  0
  -25.3716  -31.3758   26.1447 C   0  0  0  0  0  0
  -27.0368  -30.3028   24.6217 C   0  0  0  0  0  0
  -27.6068  -32.4342   25.7483 C   0  0  0  0  0  0
  -27.5578  -37.1786   24.8466 C   0  0  0  0  0  0
  -21.4197  -29.3029   22.3690 N   0  0  0  0  0  0
  -26.4286  -37.3777   23.9425 N   0  0  0  0  0  0
  -24.6923  -31.0535   22.0989 N   0  0  0  0  0  0
  -23.4198  -28.8133   23.3016 O   0  0  0  0  0  0
  -28.3363  -26.4141   20.1764 O   0  0  0  0  0  0
  -26.5635  -34.8922   22.4671 O   0  0  0  0  0  0
  -23.5446  -32.1396   23.7333 O   0  0  0  0  0  0
  -30.5331  -19.1263   21.9917 C   0  0  0  0  0  0
  -29.7281  -18.5904   20.0614 C   0  0  0  0  0  0
  -30.1071  -19.7328   20.7661 C   0  0  0  0  0  0
  -33.3713  -22.0346   19.9447 C   0  0  0  0  0  0
  -35.4395  -22.8509   21.2493 C   0  0  0  0  0  0
  -32.5976  -17.9326   17.9969 C   0  0  0  0  0  0
  -32.6833  -19.1852   15.8174 C   0  0  0  0  0  0
  -34.6832  -21.6530   20.6431 C   0  0  0  0  0  0
  -29.5735  -15.9754   20.5667 C   0  0  0  0  0  0
  -29.2785  -23.8828   20.3664 C   0  0  0  0  0  0
  -28.9972  -22.2850   20.3006 C   0  0  0  0  0  0
  -33.0699  -20.4554   17.9808 C   0  0  0  0  0  0
  -28.1108  -24.9406   20.0444 C   0  0  0  0  0  0
  -30.2530  -21.2826   20.4233 C   0  0  2  0  0  0
  -32.5163  -20.8957   19.3615 C   0  0  2  0  0  0
  -32.3200  -19.2802   17.3079 C   0  0  0  0  0  0
  -30.4667  -17.7914   22.0135 N   0  0  0  0  0  0
  -29.9950  -17.4125   20.8031 N   0  0  0  0  0  0
  -31.1418  -21.4470   19.2439 N   0  3  0  0  0  0
  -33.0300  -23.2190   19.8481 O   0  0  0  0  0  0
  -31.4905  -12.5753   19.1613 H   0  0  0  0  0  0
  -30.4127  -11.4335   19.9174 H   0  0  0  0  0  0
  -29.7934  -11.7497   17.5006 H   0  0  0  0  0  0
  -29.6427  -13.4724   17.7417 H   0  0  0  0  0  0
  -27.8811  -11.2775   18.8783 H   0  0  0  0  0  0
  -27.3826  -12.5463   17.7932 H   0  0  0  0  0  0
  -27.6473  -14.2353   19.4970 H   0  0  0  0  0  0
  -28.7214  -12.0561   21.3601 H   0  0  0  0  0  0
  -28.4290  -13.6955   21.8452 H   0  0  0  0  0  0
  -25.2747   -9.5655   22.4735 H   0  0  0  0  0  0
  -23.9984   -7.4610   22.7458 H   0  0  0  0  0  0
  -21.0819   -8.8731   19.8949 H   0  0  0  0  0  0
  -22.3665  -10.9636   19.6152 H   0  0  0  0  0  0
  -21.2009   -7.6139   23.9710 H   0  0  0  0  0  0
  -21.1484   -6.0521   25.9074 H   0  0  0  0  0  0
  -22.0602   -2.7602   23.2853 H   0  0  0  0  0  0
  -22.4150  -11.9824   22.4798 H   0  0  0  0  0  0
  -21.1139  -13.1180   22.2714 H   0  0  0  0  0  0
  -24.6562  -15.8378   20.5284 H   0  0  0  0  0  0
  -26.2766  -15.6328   20.1019 H   0  0  0  0  0  0
  -26.7185  -32.5424   23.1076 H   0  0  0  0  0  0
  -25.0031  -33.9719   25.0374 H   0  0  0  0  0  0
  -22.7184  -31.3025   21.4010 H   0  0  0  0  0  0
  -23.3762  -35.9595   23.3303 H   0  0  0  0  0  0
  -24.3563  -36.8919   22.2065 H   0  0  0  0  0  0
  -23.7223  -37.6468   23.6684 H   0  0  0  0  0  0
  -26.1037  -31.5419   20.6146 H   0  0  0  0  0  0
  -26.8481  -30.8231   22.0118 H   0  0  0  0  0  0
  -28.1148  -28.9460   21.2033 H   0  0  0  0  0  0
  -25.9495  -25.9122   19.0123 H   0  0  0  0  0  0
  -23.9689  -27.3062   19.0121 H   0  0  0  0  0  0
  -23.7586  -30.5975   19.4071 H   0  0  0  0  0  0
  -22.7594  -29.2507   19.8511 H   0  0  0  0  0  0
  -25.1292  -36.1922   25.0822 H   0  0  0  0  0  0
  -20.9950  -28.3262   24.1412 H   0  0  0  0  0  0
  -20.5676  -26.2291   23.3616 H   0  0  0  0  0  0
  -21.6637  -26.7421   22.1210 H   0  0  0  0  0  0
  -19.6936  -25.6276   21.1245 H   0  0  0  0  0  0
  -19.6720  -27.3168   20.6752 H   0  0  0  0  0  0
  -17.4201  -26.6663   21.4006 H   0  0  0  0  0  0
  -18.0302  -26.0066   22.9002 H   0  0  0  0  0  0
  -19.7963  -30.7236   24.2239 H   0  0  0  0  0  0
  -17.5056  -31.6275   24.5132 H   0  0  0  0  0  0
  -15.5374  -30.2991   23.7696 H   0  0  0  0  0  0
  -15.8656  -28.0840   22.7073 H   0  0  0  0  0  0
  -24.5882  -30.7139   25.7750 H   0  0  0  0  0  0
  -24.8924  -32.2931   26.4872 H   0  0  0  0  0  0
  -25.8002  -30.8910   27.0227 H   0  0  0  0  0  0
  -26.2957  -29.6764   24.1252 H   0  0  0  0  0  0
  -27.4085  -29.7313   25.4733 H   0  0  0  0  0  0
  -27.8815  -30.4318   23.9447 H   0  0  0  0  0  0
  -27.2698  -33.3659   26.2032 H   0  0  0  0  0  0
  -28.3883  -32.6875   25.0307 H   0  0  0  0  0  0
  -28.0729  -31.8481   26.5413 H   0  0  0  0  0  0
  -28.2591  -38.0085   24.7509 H   0  0  0  0  0  0
  -28.1070  -36.2612   24.6284 H   0  0  0  0  0  0
  -27.2285  -37.1430   25.8865 H   0  0  0  0  0  0
  -20.9383  -29.8781   21.6924 H   0  0  0  0  0  0
  -26.0172  -38.2852   24.1434 H   0  0  0  0  0  0
  -30.9251  -19.6221   22.8688 H   0  0  0  0  0  0
  -29.3030  -18.5100   19.0706 H   0  0  0  0  0  0
  -36.3352  -22.5198   21.7746 H   0  0  0  0  0  0
  -34.8217  -23.3917   21.9681 H   0  0  0  0  0  0
  -35.7525  -23.5568   20.4796 H   0  0  0  0  0  0
  -31.9932  -17.1388   17.5556 H   0  0  0  0  0  0
  -32.3699  -17.9536   19.0619 H   0  0  0  0  0  0
  -33.6435  -17.6413   17.8918 H   0  0  0  0  0  0
  -32.1261  -18.3869   15.3277 H   0  0  0  0  0  0
  -33.7461  -18.9796   15.6794 H   0  0  0  0  0  0
  -32.4554  -20.1120   15.2893 H   0  0  0  0  0  0
  -35.3257  -21.1353   19.9314 H   0  0  0  0  0  0
  -34.4499  -20.9364   21.4297 H   0  0  0  0  0  0
  -29.0325  -15.9850   19.6218 H   0  0  0  0  0  0
  -28.8203  -15.7676   21.3234 H   0  0  0  0  0  0
  -30.1050  -24.1142   19.6953 H   0  0  0  0  0  0
  -29.6537  -24.1063   21.3656 H   0  0  0  0  0  0
  -28.4516  -22.0519   19.3867 H   0  0  0  0  0  0
  -28.3058  -22.0505   21.1106 H   0  0  0  0  0  0
  -34.1233  -20.1833   18.0785 H   0  0  0  0  0  0
  -33.0598  -21.3171   17.3098 H   0  0  0  0  0  0
  -27.2589  -24.6745   20.6714 H   0  0  0  0  0  0
  -27.8022  -24.7505   19.0156 H   0  0  0  0  0  0
  -30.8096  -21.7152   21.2552 H   0  0  0  0  0  0
  -32.5412  -20.0440   20.0402 H   0  0  0  0  0  0
  -31.2467  -19.4692   17.3571 H   0  0  0  0  0  0
  -31.2986  -22.4357   19.1014 H   0  0  0  0  0  0
  -30.6924  -21.0755   18.4256 H   0  0  0  0  0  0
  1 25  1  0  0  0
  1 30  2  0  0  0
  1 79  1  0  0  0
  2  3  1  0  0  0
  2 25  1  0  0  0
  2 91  1  0  0  0
  2 92  1  0  0  0
  3  4  1  0  0  0
  3 93  1  0  0  0
  3 94  1  0  0  0
  4  5  1  0  0  0
  4 95  1  0  0  0
  4 96  1  0  0  0
  5  6  1  0  0  0
  5 26  1  0  0  0
  5 97  1  0  0  0
  6 25  1  0  0  0
  6 98  1  0  0  0
  6 99  1  0  0  0
  7  8  2  0  0  0
  7 26  1  0  0  0
  7 29  1  0  0  0
  8  9  1  0  0  0
  8 22  1  0  0  0
  9 10  1  0  0  0
  9 27  2  0  0  0
 10 11  2  0  0  0
 10 15  1  0  0  0
 11 12  1  0  0  0
 11100  1  0  0  0
 12 13  2  0  0  0
 12101  1  0  0  0
 13 14  1  0  0  0
 13 31  1  0  0  0
 14 15  2  0  0  0
 14102  1  0  0  0
 15103  1  0  0  0
 16 17  2  0  0  0
 16 21  1  0  0  0
 16 31  1  0  0  0
 17 18  1  0  0  0
 17104  1  0  0  0
 18 19  2  0  0  0
 18105  1  0  0  0
 19 20  1  0  0  0
 19 24  1  0  0  0
 20 21  2  0  0  0
 20106  1  0  0  0
 21 23  1  0  0  0
 22 28  1  0  0  0
 22 32  2  0  0  0
 26 27  1  0  0  0
 28107  1  0  0  0
 28108  1  0  0  0
 29109  1  0  0  0
 29110  1  0  0  0
 33 34  1  0  0  0
 33 66  1  0  0  0
 33 70  2  0  0  0
 34 36  1  0  0  0
 34 59  1  0  0  0
 34111  1  0  0  0
 35 44  2  0  0  0
 35 45  1  0  0  0
 35 68  1  0  0  0
 36 56  1  0  0  0
 36112  1  0  0  0
 37 39  1  0  0  0
 37 47  1  0  0  0
 37 66  1  0  0  0
 37113  1  0  0  0
 38 43  2  0  0  0
 38 46  1  0  0  0
 38 47  1  0  0  0
 39 64  1  0  0  0
 39 67  2  0  0  0
 40 52  1  0  0  0
 40 53  2  0  0  0
 40 58  1  0  0  0
 41114  1  0  0  0
 41115  1  0  0  0
 41116  1  0  0  0
 41 48  1  0  0  0
 42 43  1  0  0  0
 42 66  1  0  0  0
 42117  1  0  0  0
 42118  1  0  0  0
 43 44  1  0  0  0
 44119  1  0  0  0
 45 46  2  0  0  0
 45120  1  0  0  0
 46121  1  0  0  0
 47122  1  0  0  0
 47123  1  0  0  0
 48 56  1  0  0  0
 48 65  1  0  0  0
 48124  1  0  0  0
 49 50  1  0  0  0
 49 53  1  0  0  0
 49 64  1  0  0  0
 49125  1  0  0  0
 50 51  1  0  0  0
 50126  1  0  0  0
 50127  1  0  0  0
 51 52  1  0  0  0
 51128  1  0  0  0
 51129  1  0  0  0
 52130  1  0  0  0
 52131  1  0  0  0
 53 54  1  0  0  0
 54 55  2  0  0  0
 54132  1  0  0  0
 55 57  1  0  0  0
 55133  1  0  0  0
 56 69  2  0  0  0
 57 58  2  0  0  0
 57134  1  0  0  0
 58135  1  0  0  0
 59 60  1  0  0  0
 59 61  1  0  0  0
 59 62  1  0  0  0
 60136  1  0  0  0
 60137  1  0  0  0
 60138  1  0  0  0
 61139  1  0  0  0
 61140  1  0  0  0
 61141  1  0  0  0
 62142  1  0  0  0
 62143  1  0  0  0
 62144  1  0  0  0
 63 65  1  0  0  0
 63145  1  0  0  0
 63146  1  0  0  0
 63147  1  0  0  0
 64148  1  0  0  0
 65149  1  0  0  0
 68 83  1  0  0  0
 71 73  1  0  0  0
 71 87  2  0  0  0
 71150  1  0  0  0
 72 73  2  0  0  0
 72 88  1  0  0  0
 72151  1  0  0  0
 73 84  1  0  0  0
 74 78  1  0  0  0
 74 85  1  0  0  0
 74 90  2  0  0  0
 75 78  1  0  0  0
 75152  1  0  0  0
 75153  1  0  0  0
 75154  1  0  0  0
 76155  1  0  0  0
 76156  1  0  0  0
 76157  1  0  0  0
 76 86  1  0  0  0
 77 86  1  0  0  0
 77158  1  0  0  0
 77159  1  0  0  0
 77160  1  0  0  0
 78161  1  0  0  0
 78162  1  0  0  0
 79 88  1  0  0  0
 79163  1  0  0  0
 79164  1  0  0  0
 80 81  1  0  0  0
 80 83  1  0  0  0
 80165  1  0  0  0
 80166  1  0  0  0
 81167  1  0  0  0
 81168  1  0  0  0
 81 84  1  0  0  0
 82 86  1  0  0  0
 82169  1  0  0  0
 82170  1  0  0  0
 82 85  1  0  0  0
 83171  1  0  0  0
 83172  1  0  0  0
 84 89  1  0  0  0
 84173  1  0  0  0
 85 89  1  0  0  0
 85174  1  0  0  0
 86175  1  0  0  0
 87 88  1  0  0  0
 89176  1  0  0  0
 89177  1  0  0  0
M  CHG  1  89   1
M  ISO  4   1 100  68 101  79 100  83 101
M  END
> <chiral flag>
0

> <version>
0

> <s_m_source_file>
/data/baiqing/PycharmProjects/Reinvent-master-3.2/result/LINK_invent/BTK/process_docking_weight1_custom_product_contain_oxygen_bond_distance_aromatic_linkinvent_7_9_3/rearranged_h_0195.sdf

> <i_m_source_file_index>
47

> <r_mmod_Potential_Energy-OPLS-2005>
-66.5946655273438

> <r_mmod_Stretch_Energy-OPLS-2005>
110.109741210938

> <r_mmod_Bend_Energy-OPLS-2005>
173.888366699219

> <r_mmod_Torsional_Energy-OPLS-2005>
221.300704956055

> <r_mmod_Improper_Torsional_Energy-OPLS-2005>
9.27074909210205

> <r_mmod_Van_der_Waal_Energy-OPLS-2005>
107.841995239258

> <r_mmod_Electrostatic_Energy-OPLS-2005>
-296.781921386719

> <r_mmod_Solvation_Energy-OPLS-2005>
-463.538299560547

> <b_mmod_Minimization_Converged-OPLS-2005>
0

> <r_mmod_RMS_Derivative-OPLS-2005>
2.20981097221375

$$$$
47
                    3D
 Structure written by MMmdl.
175183  0  0  1  0            999 V2000
  -30.7118  -14.4370   20.5849 C   0  0  0  0  0  0
  -30.4135  -12.2881   19.4164 C   0  0  0  0  0  0
  -29.4966  -12.5263   18.2015 C   0  0  0  0  0  0
  -28.0158  -12.3921   18.6065 C   0  0  0  0  0  0
  -27.6645  -13.2098   19.8799 C   0  0  2  0  0  0
  -28.7032  -12.9646   20.9962 C   0  0  0  0  0  0
  -25.2603  -13.8189   20.5675 C   0  0  0  0  0  0
  -24.1849  -13.0478   20.9186 C   0  0  0  0  0  0
  -24.6401  -11.6936   20.8714 C   0  0  0  0  0  0
  -23.9056  -10.4325   21.0363 C   0  0  0  0  0  0
  -24.3621   -9.4247   21.9145 C   0  0  0  0  0  0
  -23.6314   -8.2270   22.0730 C   0  0  0  0  0  0
  -22.4285   -8.0284   21.3541 C   0  0  0  0  0  0
  -21.9916   -9.0248   20.4648 C   0  0  0  0  0  0
  -22.7227  -10.2146   20.3025 C   0  0  0  0  0  0
  -21.6879   -6.0737   22.5268 C   0  0  0  0  0  0
  -21.4035   -6.5652   23.8201 C   0  0  0  0  0  0
  -21.3651   -5.6797   24.9160 C   0  0  0  0  0  0
  -21.6044   -4.3055   24.7201 C   0  0  0  0  0  0
  -21.8839   -3.8153   23.4323 C   0  0  0  0  0  0
  -21.9222   -4.6968   22.3381 C   0  0  0  0  0  0
  -22.7870  -13.5262   21.1848 C   0  0  0  0  0  0
  -22.1682   -4.2162   21.0971 F   0  0  0  0  0  0
  -21.5609   -3.4540   25.7711 F   0  0  0  0  0  0
  -30.0408  -13.2604   20.4564 N   0  0  0  0  0  0
  -26.3041  -12.9367   20.3378 N   0  0  0  0  0  0
  -25.9328  -11.6533   20.5740 N   0  0  0  0  0  0
  -22.0483  -12.8252   22.0402 N   0  0  0  0  0  0
  -25.4326  -15.1925   20.4094 N   0  0  0  0  0  0
  -31.8059  -14.6468   20.0490 O   0  0  0  0  0  0
  -21.6674   -6.8863   21.4228 O   0  0  0  0  0  0
  -22.3548  -14.5547   20.6673 O   0  0  0  0  0  0
  -24.6137  -31.8684   23.2078 C   0  0  0  0  0  0
  -25.9030  -32.4822   23.8397 C   0  0  1  0  0  0
  -27.2443  -27.4532   20.0817 C   0  0  0  0  0  0
  -25.5884  -33.8620   24.2334 N   0  0  0  0  0  0
  -23.4013  -30.4915   21.5454 C   0  0  2  0  0  0
  -24.8471  -28.9561   20.1119 C   0  0  0  0  0  0
  -22.7411  -29.4664   22.4953 C   0  0  0  0  0  0
  -18.0268  -28.1375   22.8463 C   0  0  0  0  0  0
  -24.1476  -36.7334   23.2638 C   0  0  0  0  0  0
  -25.9254  -30.8406   21.3526 C   0  0  0  0  0  0
  -26.0031  -29.4717   20.7095 C   0  0  0  0  0  0
  -27.1999  -28.7229   20.6990 C   0  0  0  0  0  0
  -26.0638  -26.9409   19.4937 C   0  0  0  0  0  0
  -24.8714  -27.6890   19.5037 C   0  0  0  0  0  0
  -23.6085  -29.8206   20.1597 C   0  0  0  0  0  0
  -25.4088  -36.3110   24.0339 C   0  0  1  0  0  0
  -20.5860  -28.3672   23.1287 C   0  0  2  0  0  0
  -20.6734  -26.9405   22.5400 C   0  0  0  0  0  0
  -19.5725  -26.6380   21.5183 C   0  0  0  0  0  0
  -18.1910  -26.7915   22.1607 C   0  0  0  0  0  0
  -19.1521  -28.8831   23.2880 C   0  0  0  0  0  0
  -18.9457  -30.1424   23.8915 C   0  0  0  0  0  0
  -17.6464  -30.6575   24.0564 C   0  0  0  0  0  0
  -25.9018  -34.9476   23.5135 C   0  0  0  0  0  0
  -16.5349  -29.9090   23.6306 C   0  0  0  0  0  0
  -16.7260  -28.6505   23.0321 C   0  0  0  0  0  0
  -26.4465  -31.6594   25.0724 C   0  0  0  0  0  0
  -25.3755  -31.3698   26.1495 C   0  0  0  0  0  0
  -27.0293  -30.3043   24.6066 C   0  0  0  0  0  0
  -27.6046  -32.4301   25.7494 C   0  0  0  0  0  0
  -27.5570  -37.1820   24.8465 C   0  0  0  0  0  0
  -21.4138  -29.3058   22.3714 N   0  0  0  0  0  0
  -26.4273  -37.3800   23.9419 N   0  0  0  0  0  0
  -24.6654  -31.0815   22.0948 N   0  0  0  0  0  0
  -23.4192  -28.8181   23.2967 O   0  0  0  0  0  0
  -28.4394  -26.7653   20.0913 O   0  0  0  0  0  0
  -26.5592  -34.8928   22.4699 O   0  0  0  0  0  0
  -23.5325  -32.1416   23.7481 O   0  0  0  0  0  0
  -30.7657  -17.4481   22.3543 C   0  0  0  0  0  0
  -30.4319  -18.8165   20.0164 C   0  0  0  0  0  0
  -30.3394  -16.7804   21.1858 C   0  0  0  0  0  0
  -30.9173  -19.4479   21.2062 C   0  0  0  0  0  0
  -32.4280  -23.1745   17.2127 C   0  0  0  0  0  0
  -32.4158  -21.7743   15.1288 C   0  0  0  0  0  0
  -28.5113  -24.3196   19.5883 C   0  0  0  0  0  0
  -30.6440  -21.3230   16.8886 C   0  0  0  0  0  0
  -29.0827  -21.8126   18.9664 C   0  0  0  0  0  0
  -28.6900  -25.7759   19.0905 C   0  0  0  0  0  0
  -30.2361  -19.4544   18.6131 C   0  0  2  0  0  0
  -32.1017  -21.7834   16.6327 C   0  0  0  0  0  0
  -30.3013  -21.0116   18.3857 C   0  0  1  0  0  0
  -28.9691  -23.3008   18.5187 C   0  0  1  0  0  0
  -31.0602  -18.7669   22.3639 N   0  0  0  0  0  0
  -30.1553  -17.4797   20.0318 N   0  0  0  0  0  0
  -31.3224  -20.7695   21.3187 N   0  0  0  0  0  0
  -30.0834  -15.3923   21.2848 N   0  0  0  0  0  0
  -29.0406  -18.8707   17.9750 N   0  3  0  0  0  0
  -28.0457  -23.3714   17.4443 O   0  0  0  0  0  0
  -31.4615  -12.3727   19.1254 H   0  0  0  0  0  0
  -30.2891  -11.2687   19.7884 H   0  0  0  0  0  0
  -29.7300  -11.8162   17.4083 H   0  0  0  0  0  0
  -29.6791  -13.5183   17.7854 H   0  0  0  0  0  0
  -27.8158  -11.3354   18.7785 H   0  0  0  0  0  0
  -27.3731  -12.6939   17.7770 H   0  0  0  0  0  0
  -27.7151  -14.2640   19.6083 H   0  0  0  0  0  0
  -28.6653  -11.9234   21.3185 H   0  0  0  0  0  0
  -28.4672  -13.5478   21.8863 H   0  0  0  0  0  0
  -25.2755   -9.5772   22.4729 H   0  0  0  0  0  0
  -24.0061   -7.4686   22.7452 H   0  0  0  0  0  0
  -21.0846   -8.8750   19.8954 H   0  0  0  0  0  0
  -22.3652  -10.9670   19.6138 H   0  0  0  0  0  0
  -21.2020   -7.6152   23.9710 H   0  0  0  0  0  0
  -21.1448   -6.0515   25.9073 H   0  0  0  0  0  0
  -22.0621   -2.7610   23.2824 H   0  0  0  0  0  0
  -22.4124  -11.9955   22.4834 H   0  0  0  0  0  0
  -21.1057  -13.1224   22.2491 H   0  0  0  0  0  0
  -24.6674  -15.8490   20.5160 H   0  0  0  0  0  0
  -26.2947  -15.6339   20.1147 H   0  0  0  0  0  0
  -26.7121  -32.5549   23.1195 H   0  0  0  0  0  0
  -25.0037  -33.9787   25.0471 H   0  0  0  0  0  0
  -22.6904  -31.3081   21.4043 H   0  0  0  0  0  0
  -23.3717  -35.9692   23.3289 H   0  0  0  0  0  0
  -24.3587  -36.8952   22.2058 H   0  0  0  0  0  0
  -23.7247  -37.6543   23.6658 H   0  0  0  0  0  0
  -26.0274  -31.6004   20.5758 H   0  0  0  0  0  0
  -26.8164  -30.9073   21.9638 H   0  0  0  0  0  0
  -28.0948  -29.1262   21.1522 H   0  0  0  0  0  0
  -26.0484  -25.9645   19.0305 H   0  0  0  0  0  0
  -23.9815  -27.2858   19.0406 H   0  0  0  0  0  0
  -23.7176  -30.5926   19.3969 H   0  0  0  0  0  0
  -22.7330  -29.2387   19.8635 H   0  0  0  0  0  0
  -25.1259  -36.1980   25.0833 H   0  0  0  0  0  0
  -20.9972  -28.3238   24.1402 H   0  0  0  0  0  0
  -20.5558  -26.2322   23.3613 H   0  0  0  0  0  0
  -21.6614  -26.7382   22.1257 H   0  0  0  0  0  0
  -19.6884  -25.6292   21.1210 H   0  0  0  0  0  0
  -19.6641  -27.3182   20.6705 H   0  0  0  0  0  0
  -17.4178  -26.6641   21.4016 H   0  0  0  0  0  0
  -18.0328  -26.0055   22.9007 H   0  0  0  0  0  0
  -19.7941  -30.7206   24.2315 H   0  0  0  0  0  0
  -17.5032  -31.6251   24.5176 H   0  0  0  0  0  0
  -15.5355  -30.3006   23.7602 H   0  0  0  0  0  0
  -15.8667  -28.0832   22.7020 H   0  0  0  0  0  0
  -24.5933  -30.7024   25.7868 H   0  0  0  0  0  0
  -24.8942  -32.2848   26.4954 H   0  0  0  0  0  0
  -25.8133  -30.8894   27.0254 H   0  0  0  0  0  0
  -26.2826  -29.6809   24.1139 H   0  0  0  0  0  0
  -27.4105  -29.7271   25.4500 H   0  0  0  0  0  0
  -27.8635  -30.4371   23.9175 H   0  0  0  0  0  0
  -27.2679  -33.3603   26.2084 H   0  0  0  0  0  0
  -28.3868  -32.6847   25.0333 H   0  0  0  0  0  0
  -28.0710  -31.8421   26.5412 H   0  0  0  0  0  0
  -28.2592  -38.0112   24.7504 H   0  0  0  0  0  0
  -28.1056  -36.2649   24.6274 H   0  0  0  0  0  0
  -27.2318  -37.1453   25.8877 H   0  0  0  0  0  0
  -20.9300  -29.8896   21.7039 H   0  0  0  0  0  0
  -26.0155  -38.2882   24.1400 H   0  0  0  0  0  0
  -30.8943  -16.9126   23.2849 H   0  0  0  0  0  0
  -33.4690  -23.4372   17.0182 H   0  0  0  0  0  0
  -32.2933  -23.2240   18.2936 H   0  0  0  0  0  0
  -31.8129  -23.9553   16.7637 H   0  0  0  0  0  0
  -33.4468  -22.0773   14.9414 H   0  0  0  0  0  0
  -31.7684  -22.4621   14.5829 H   0  0  0  0  0  0
  -32.2830  -20.7807   14.6981 H   0  0  0  0  0  0
  -27.4781  -24.1337   19.8821 H   0  0  0  0  0  0
  -29.1138  -24.1843   20.4877 H   0  0  0  0  0  0
  -30.4702  -20.4372   16.2785 H   0  0  0  0  0  0
  -29.9720  -22.0547   16.4523 H   0  0  0  0  0  0
  -29.1637  -21.7882   20.0531 H   0  0  0  0  0  0
  -28.1404  -21.3034   18.7620 H   0  0  0  0  0  0
  -28.1198  -25.9643   18.1788 H   0  0  0  0  0  0
  -29.7309  -25.9088   18.7958 H   0  0  0  0  0  0
  -31.0893  -19.0470   18.0669 H   0  0  0  0  0  0
  -32.7711  -21.0620   17.1056 H   0  0  0  0  0  0
  -31.1751  -21.3716   18.9197 H   0  0  0  0  0  0
  -29.9393  -23.6454   18.1664 H   0  0  0  0  0  0
  -31.5529  -21.3012   20.4896 H   0  0  0  0  0  0
  -31.8580  -21.0351   22.1356 H   0  0  0  0  0  0
  -29.3033  -15.1069   21.8579 H   0  0  0  0  0  0
  -28.1952  -19.2303   18.3776 H   0  0  0  0  0  0
  -29.0765  -17.8838   18.1631 H   0  0  0  0  0  0
  -29.0357  -19.0213   16.9829 H   0  0  0  0  0  0
  -28.4309  -22.9433   16.6861 H   0  0  0  0  0  0
  1 25  1  0  0  0
  1 30  2  0  0  0
  1 88  1  0  0  0
  2  3  1  0  0  0
  2 25  1  0  0  0
  2 91  1  0  0  0
  2 92  1  0  0  0
  3  4  1  0  0  0
  3 93  1  0  0  0
  3 94  1  0  0  0
  4  5  1  0  0  0
  4 95  1  0  0  0
  4 96  1  0  0  0
  5  6  1  0  0  0
  5 26  1  0  0  0
  5 97  1  0  0  0
  6 25  1  0  0  0
  6 98  1  0  0  0
  6 99  1  0  0  0
  7  8  2  0  0  0
  7 26  1  0  0  0
  7 29  1  0  0  0
  8  9  1  0  0  0
  8 22  1  0  0  0
  9 10  1  0  0  0
  9 27  2  0  0  0
 10 11  2  0  0  0
 10 15  1  0  0  0
 11 12  1  0  0  0
 11100  1  0  0  0
 12 13  2  0  0  0
 12101  1  0  0  0
 13 14  1  0  0  0
 13 31  1  0  0  0
 14 15  2  0  0  0
 14102  1  0  0  0
 15103  1  0  0  0
 16 17  2  0  0  0
 16 21  1  0  0  0
 16 31  1  0  0  0
 17 18  1  0  0  0
 17104  1  0  0  0
 18 19  2  0  0  0
 18105  1  0  0  0
 19 20  1  0  0  0
 19 24  1  0  0  0
 20 21  2  0  0  0
 20106  1  0  0  0
 21 23  1  0  0  0
 22 28  1  0  0  0
 22 32  2  0  0  0
 26 27  1  0  0  0
 28107  1  0  0  0
 28108  1  0  0  0
 29109  1  0  0  0
 29110  1  0  0  0
 33 34  1  0  0  0
 33 66  1  0  0  0
 33 70  2  0  0  0
 34 36  1  0  0  0
 34 59  1  0  0  0
 34111  1  0  0  0
 35 44  2  0  0  0
 35 45  1  0  0  0
 35 68  1  0  0  0
 36 56  1  0  0  0
 36112  1  0  0  0
 37 39  1  0  0  0
 37 47  1  0  0  0
 37 66  1  0  0  0
 37113  1  0  0  0
 38 43  2  0  0  0
 38 46  1  0  0  0
 38 47  1  0  0  0
 39 64  1  0  0  0
 39 67  2  0  0  0
 40 52  1  0  0  0
 40 53  2  0  0  0
 40 58  1  0  0  0
 41114  1  0  0  0
 41115  1  0  0  0
 41116  1  0  0  0
 41 48  1  0  0  0
 42 43  1  0  0  0
 42 66  1  0  0  0
 42117  1  0  0  0
 42118  1  0  0  0
 43 44  1  0  0  0
 44119  1  0  0  0
 45 46  2  0  0  0
 45120  1  0  0  0
 46121  1  0  0  0
 47122  1  0  0  0
 47123  1  0  0  0
 48 56  1  0  0  0
 48 65  1  0  0  0
 48124  1  0  0  0
 49 50  1  0  0  0
 49 53  1  0  0  0
 49 64  1  0  0  0
 49125  1  0  0  0
 50 51  1  0  0  0
 50126  1  0  0  0
 50127  1  0  0  0
 51 52  1  0  0  0
 51128  1  0  0  0
 51129  1  0  0  0
 52130  1  0  0  0
 52131  1  0  0  0
 53 54  1  0  0  0
 54 55  2  0  0  0
 54132  1  0  0  0
 55 57  1  0  0  0
 55133  1  0  0  0
 56 69  2  0  0  0
 57 58  2  0  0  0
 57134  1  0  0  0
 58135  1  0  0  0
 59 60  1  0  0  0
 59 61  1  0  0  0
 59 62  1  0  0  0
 60136  1  0  0  0
 60137  1  0  0  0
 60138  1  0  0  0
 61139  1  0  0  0
 61140  1  0  0  0
 61141  1  0  0  0
 62142  1  0  0  0
 62143  1  0  0  0
 62144  1  0  0  0
 63 65  1  0  0  0
 63145  1  0  0  0
 63146  1  0  0  0
 63147  1  0  0  0
 64148  1  0  0  0
 65149  1  0  0  0
 68 80  1  0  0  0
 71 73  2  0  0  0
 71 85  1  0  0  0
 71150  1  0  0  0
 72 74  1  0  0  0
 72 81  1  0  0  0
 72 86  2  0  0  0
 73 86  1  0  0  0
 73 88  1  0  0  0
 74 85  2  0  0  0
 74 87  1  0  0  0
 75151  1  0  0  0
 75152  1  0  0  0
 75153  1  0  0  0
 75 82  1  0  0  0
 76 82  1  0  0  0
 76154  1  0  0  0
 76155  1  0  0  0
 76156  1  0  0  0
 77 80  1  0  0  0
 77 84  1  0  0  0
 77157  1  0  0  0
 77158  1  0  0  0
 78 82  1  0  0  0
 78159  1  0  0  0
 78160  1  0  0  0
 78 83  1  0  0  0
 79 83  1  0  0  0
 79 84  1  0  0  0
 79161  1  0  0  0
 79162  1  0  0  0
 80163  1  0  0  0
 80164  1  0  0  0
 81 83  1  0  0  0
 81 89  1  0  0  0
 81165  1  0  0  0
 82166  1  0  0  0
 83167  1  0  0  0
 84 90  1  0  0  0
 84168  1  0  0  0
 87169  1  0  0  0
 87170  1  0  0  0
 88171  1  0  0  0
 89172  1  0  0  0
 89173  1  0  0  0
 89174  1  0  0  0
 90175  1  0  0  0
M  CHG  1  89   1
M  ISO  4   1 100  68 101  80 101  88 100
M  END
> <chiral flag>
0

> <version>
0

> <s_m_source_file>
/data/baiqing/PycharmProjects/Reinvent-master-3.2/result/LINK_invent/BTK/process_docking_weight1_custom_product_contain_oxygen_bond_distance_aromatic_linkinvent_7_9_3/rearranged_h_0195.sdf

> <i_m_source_file_index>
48

> <r_mmod_Potential_Energy-OPLS-2005>
-304.592712402344

> <r_mmod_Stretch_Energy-OPLS-2005>
47.3771667480469

> <r_mmod_Bend_Energy-OPLS-2005>
141.627227783203

> <r_mmod_Torsional_Energy-OPLS-2005>
278.974304199219

> <r_mmod_Improper_Torsional_Energy-OPLS-2005>
5.05119323730469

> <r_mmod_Van_der_Waal_Energy-OPLS-2005>
169.587127685547

> <r_mmod_Electrostatic_Energy-OPLS-2005>
-430.130584716797

> <r_mmod_Solvation_Energy-OPLS-2005>
-526.648010253906

> <b_mmod_Minimization_Converged-OPLS-2005>
0

> <r_mmod_RMS_Derivative-OPLS-2005>
3.36160087585449

$$$$
48
                    3D
 Structure written by MMmdl.
159167  0  0  1  0            999 V2000
  -30.6577  -14.7696   20.4261 C   0  0  0  0  0  0
  -30.4201  -12.4722   19.4730 C   0  0  0  0  0  0
  -29.5086  -12.4924   18.2299 C   0  0  0  0  0  0
  -28.0355  -12.3230   18.6511 C   0  0  0  0  0  0
  -27.6326  -13.2411   19.8367 C   0  0  2  0  0  0
  -28.6799  -13.2313   20.9653 C   0  0  0  0  0  0
  -25.2468  -13.8204   20.5680 C   0  0  0  0  0  0
  -24.1766  -13.0450   20.9186 C   0  0  0  0  0  0
  -24.6373  -11.6933   20.8729 C   0  0  0  0  0  0
  -23.9066  -10.4297   21.0404 C   0  0  0  0  0  0
  -24.3611   -9.4215   21.9186 C   0  0  0  0  0  0
  -23.6283   -8.2259   22.0767 C   0  0  0  0  0  0
  -22.4267   -8.0278   21.3559 C   0  0  0  0  0  0
  -21.9903   -9.0251   20.4665 C   0  0  0  0  0  0
  -22.7233  -10.2130   20.3064 C   0  0  0  0  0  0
  -21.6851   -6.0719   22.5280 C   0  0  0  0  0  0
  -21.4023   -6.5630   23.8215 C   0  0  0  0  0  0
  -21.3671   -5.6787   24.9178 C   0  0  0  0  0  0
  -21.6040   -4.3049   24.7233 C   0  0  0  0  0  0
  -21.8822   -3.8132   23.4359 C   0  0  0  0  0  0
  -21.9210   -4.6946   22.3407 C   0  0  0  0  0  0
  -22.7795  -13.5246   21.1858 C   0  0  0  0  0  0
  -22.1673   -4.2132   21.0983 F   0  0  0  0  0  0
  -21.5633   -3.4527   25.7752 F   0  0  0  0  0  0
  -29.9645  -13.5778   20.3506 N   0  0  0  0  0  0
  -26.2897  -12.9432   20.3245 N   0  0  0  0  0  0
  -25.9306  -11.6563   20.5731 N   0  0  0  0  0  0
  -22.0451  -12.8217   22.0407 N   0  0  0  0  0  0
  -25.4167  -15.1912   20.4119 N   0  0  0  0  0  0
  -31.8816  -14.7411   20.2754 O   0  0  0  0  0  0
  -21.6640   -6.8868   21.4250 O   0  0  0  0  0  0
  -22.3483  -14.5557   20.6727 O   0  0  0  0  0  0
  -24.6324  -31.8518   23.1978 C   0  0  0  0  0  0
  -25.9148  -32.4735   23.8317 C   0  0  1  0  0  0
  -27.2001  -27.2395   20.1269 C   0  0  0  0  0  0
  -25.5927  -33.8545   24.2226 N   0  0  0  0  0  0
  -23.4306  -30.4740   21.5439 C   0  0  2  0  0  0
  -24.8732  -28.9231   20.1095 C   0  0  0  0  0  0
  -22.7522  -29.4563   22.4927 C   0  0  0  0  0  0
  -18.0291  -28.1404   22.8476 C   0  0  0  0  0  0
  -24.1495  -36.7274   23.2638 C   0  0  0  0  0  0
  -25.9789  -30.7586   21.3814 C   0  0  0  0  0  0
  -26.0493  -29.3811   20.7188 C   0  0  0  0  0  0
  -27.2203  -28.5534   20.7129 C   0  0  0  0  0  0
  -26.0072  -26.8585   19.4790 C   0  0  0  0  0  0
  -24.8577  -27.6695   19.4797 C   0  0  0  0  0  0
  -23.6473  -29.8146   20.1581 C   0  0  0  0  0  0
  -25.4126  -36.3054   24.0309 C   0  0  1  0  0  0
  -20.5893  -28.3717   23.1339 C   0  0  2  0  0  0
  -20.6778  -26.9423   22.5503 C   0  0  0  0  0  0
  -19.5792  -26.6369   21.5290 C   0  0  0  0  0  0
  -18.1954  -26.7919   22.1693 C   0  0  0  0  0  0
  -19.1545  -28.8893   23.2841 C   0  0  0  0  0  0
  -18.9451  -30.1533   23.8790 C   0  0  0  0  0  0
  -17.6466  -30.6644   24.0481 C   0  0  0  0  0  0
  -25.9058  -34.9419   23.5063 C   0  0  0  0  0  0
  -16.5358  -29.9106   23.6313 C   0  0  0  0  0  0
  -16.7277  -28.6513   23.0356 C   0  0  0  0  0  0
  -26.4516  -31.6572   25.0708 C   0  0  0  0  0  0
  -25.3734  -31.3736   26.1415 C   0  0  0  0  0  0
  -27.0360  -30.2978   24.6215 C   0  0  0  0  0  0
  -27.6058  -32.4320   25.7498 C   0  0  0  0  0  0
  -27.5585  -37.1794   24.8468 C   0  0  0  0  0  0
  -21.4217  -29.3038   22.3715 N   0  0  0  0  0  0
  -26.4296  -37.3758   23.9402 N   0  0  0  0  0  0
  -24.7009  -31.0464   22.0976 N   0  0  0  0  0  0
  -23.4220  -28.8089   23.3014 O   0  0  0  0  0  0
  -28.2572  -26.2985   20.1586 O   0  0  0  0  0  0
  -26.5652  -34.8887   22.4654 O   0  0  0  0  0  0
  -23.5466  -32.1351   23.7263 O   0  0  0  0  0  0
  -27.6441  -18.9015   21.7365 C   0  0  0  0  0  0
  -27.6156  -17.5562   22.1217 C   0  0  0  0  0  0
  -28.6406  -19.3485   20.8476 C   0  0  0  0  0  0
  -29.3368  -17.0260   20.7353 C   0  0  0  0  0  0
  -26.7657  -23.1372   22.9563 C   0  0  0  0  0  0
  -27.2189  -21.9656   22.0724 C   0  0  0  0  0  0
  -27.9483  -24.9262   20.7214 C   0  0  0  0  0  0
  -28.4284  -22.0936   21.0960 C   0  0  2  0  0  0
  -28.4078  -23.4523   20.1503 C   0  0  1  0  0  0
  -28.4501  -16.6363   21.6399 N   0  0  0  0  0  0
  -29.4549  -18.3459   20.3293 N   0  0  0  0  0  0
  -26.6860  -17.0893   23.0359 N   0  0  0  0  0  0
  -28.7536  -20.7462   20.4050 N   0  0  0  0  0  0
  -30.0576  -15.9815   20.0885 N   0  0  0  0  0  0
  -27.5282  -23.1017   19.0957 O   0  0  0  0  0  0
  -31.4636  -12.5738   19.1705 H   0  0  0  0  0  0
  -30.3507  -11.5132   19.9882 H   0  0  0  0  0  0
  -29.7940  -11.7048   17.5304 H   0  0  0  0  0  0
  -29.6348  -13.4351   17.6975 H   0  0  0  0  0  0
  -27.8949  -11.2767   18.9257 H   0  0  0  0  0  0
  -27.3769  -12.5012   17.8007 H   0  0  0  0  0  0
  -27.6129  -14.2549   19.4353 H   0  0  0  0  0  0
  -28.7232  -12.2546   21.4478 H   0  0  0  0  0  0
  -28.4184  -13.9521   21.7405 H   0  0  0  0  0  0
  -25.2769   -9.5668   22.4749 H   0  0  0  0  0  0
  -23.9985   -7.4644   22.7475 H   0  0  0  0  0  0
  -21.0839   -8.8758   19.8970 H   0  0  0  0  0  0
  -22.3684  -10.9655   19.6158 H   0  0  0  0  0  0
  -21.2007   -7.6135   23.9697 H   0  0  0  0  0  0
  -21.1485   -6.0531   25.9076 H   0  0  0  0  0  0
  -22.0587   -2.7589   23.2871 H   0  0  0  0  0  0
  -22.4061  -11.9866   22.4787 H   0  0  0  0  0  0
  -21.1092  -13.1280   22.2676 H   0  0  0  0  0  0
  -24.6574  -15.8506   20.5434 H   0  0  0  0  0  0
  -26.2995  -15.6323   20.1873 H   0  0  0  0  0  0
  -26.7203  -32.5352   23.1040 H   0  0  0  0  0  0
  -25.0066  -33.9717   25.0358 H   0  0  0  0  0  0
  -22.7236  -31.2927   21.3992 H   0  0  0  0  0  0
  -23.3751  -35.9617   23.3316 H   0  0  0  0  0  0
  -24.3588  -36.8893   22.2053 H   0  0  0  0  0  0
  -23.7247  -37.6466   23.6676 H   0  0  0  0  0  0
  -26.1194  -31.5212   20.6146 H   0  0  0  0  0  0
  -26.8562  -30.8057   22.0143 H   0  0  0  0  0  0
  -28.1209  -28.8960   21.2023 H   0  0  0  0  0  0
  -25.9478  -25.8968   18.9881 H   0  0  0  0  0  0
  -23.9565  -27.3188   18.9957 H   0  0  0  0  0  0
  -23.7724  -30.5946   19.4058 H   0  0  0  0  0  0
  -22.7634  -29.2516   19.8538 H   0  0  0  0  0  0
  -25.1314  -36.1904   25.0799 H   0  0  0  0  0  0
  -20.9936  -28.3350   24.1484 H   0  0  0  0  0  0
  -20.5665  -26.2345   23.3734 H   0  0  0  0  0  0
  -21.6659  -26.7419   22.1351 H   0  0  0  0  0  0
  -19.6958  -25.6261   21.1382 H   0  0  0  0  0  0
  -19.6756  -27.3116   20.6773 H   0  0  0  0  0  0
  -17.4205  -26.6562   21.4147 H   0  0  0  0  0  0
  -18.0399  -26.0140   22.9171 H   0  0  0  0  0  0
  -19.7915  -30.7403   24.2108 H   0  0  0  0  0  0
  -17.5026  -31.6336   24.5052 H   0  0  0  0  0  0
  -15.5358  -30.2971   23.7712 H   0  0  0  0  0  0
  -15.8679  -28.0803   22.7126 H   0  0  0  0  0  0
  -24.5918  -30.7072   25.7759 H   0  0  0  0  0  0
  -24.8899  -32.2897   26.4804 H   0  0  0  0  0  0
  -25.8027  -30.8940   27.0211 H   0  0  0  0  0  0
  -26.2947  -29.6716   24.1223 H   0  0  0  0  0  0
  -27.4017  -29.7245   25.4744 H   0  0  0  0  0  0
  -27.8836  -30.4247   23.9480 H   0  0  0  0  0  0
  -27.2669  -33.3635   26.2044 H   0  0  0  0  0  0
  -28.3893  -32.6857   25.0353 H   0  0  0  0  0  0
  -28.0690  -31.8453   26.5436 H   0  0  0  0  0  0
  -28.2595  -38.0099   24.7495 H   0  0  0  0  0  0
  -28.1076  -36.2611   24.6316 H   0  0  0  0  0  0
  -27.2289  -37.1465   25.8869 H   0  0  0  0  0  0
  -20.9391  -29.8731   21.6906 H   0  0  0  0  0  0
  -26.0163  -38.2824   24.1405 H   0  0  0  0  0  0
  -26.8574  -19.5215   22.1161 H   0  0  0  0  0  0
  -26.0462  -23.7837   22.4554 H   0  0  0  0  0  0
  -27.5983  -23.7228   23.3398 H   0  0  0  0  0  0
  -26.2398  -22.7487   23.8300 H   0  0  0  0  0  0
  -26.3508  -21.5620   21.5494 H   0  0  0  0  0  0
  -27.5320  -21.2512   22.8301 H   0  0  0  0  0  0
  -28.3809  -24.9978   21.7182 H   0  0  0  0  0  0
  -26.8760  -24.8762   20.8753 H   0  0  0  0  0  0
  -29.2841  -22.2553   21.7543 H   0  0  0  0  0  0
  -29.4066  -23.5770   19.7298 H   0  0  0  0  0  0
  -25.8657  -17.6498   23.2206 H   0  0  0  0  0  0
  -26.5133  -16.0925   23.0519 H   0  0  0  0  0  0
  -29.3817  -20.8606   19.6163 H   0  0  0  0  0  0
  -30.7034  -16.4189   19.4528 H   0  0  0  0  0  0
  -26.8351  -22.5752   19.4805 H   0  0  0  0  0  0
  1 25  1  0  0  0
  1 30  2  0  0  0
  1 84  1  0  0  0
  2  3  1  0  0  0
  2 25  1  0  0  0
  2 86  1  0  0  0
  2 87  1  0  0  0
  3  4  1  0  0  0
  3 88  1  0  0  0
  3 89  1  0  0  0
  4  5  1  0  0  0
  4 90  1  0  0  0
  4 91  1  0  0  0
  5  6  1  0  0  0
  5 26  1  0  0  0
  5 92  1  0  0  0
  6 25  1  0  0  0
  6 93  1  0  0  0
  6 94  1  0  0  0
  7  8  2  0  0  0
  7 26  1  0  0  0
  7 29  1  0  0  0
  8  9  1  0  0  0
  8 22  1  0  0  0
  9 10  1  0  0  0
  9 27  2  0  0  0
 10 11  2  0  0  0
 10 15  1  0  0  0
 11 12  1  0  0  0
 11 95  1  0  0  0
 12 13  2  0  0  0
 12 96  1  0  0  0
 13 14  1  0  0  0
 13 31  1  0  0  0
 14 15  2  0  0  0
 14 97  1  0  0  0
 15 98  1  0  0  0
 16 17  2  0  0  0
 16 21  1  0  0  0
 16 31  1  0  0  0
 17 18  1  0  0  0
 17 99  1  0  0  0
 18 19  2  0  0  0
 18100  1  0  0  0
 19 20  1  0  0  0
 19 24  1  0  0  0
 20 21  2  0  0  0
 20101  1  0  0  0
 21 23  1  0  0  0
 22 28  1  0  0  0
 22 32  2  0  0  0
 26 27  1  0  0  0
 28102  1  0  0  0
 28103  1  0  0  0
 29104  1  0  0  0
 29105  1  0  0  0
 33 34  1  0  0  0
 33 66  1  0  0  0
 33 70  2  0  0  0
 34 36  1  0  0  0
 34 59  1  0  0  0
 34106  1  0  0  0
 35 44  2  0  0  0
 35 45  1  0  0  0
 35 68  1  0  0  0
 36 56  1  0  0  0
 36107  1  0  0  0
 37 39  1  0  0  0
 37 47  1  0  0  0
 37 66  1  0  0  0
 37108  1  0  0  0
 38 43  2  0  0  0
 38 46  1  0  0  0
 38 47  1  0  0  0
 39 64  1  0  0  0
 39 67  2  0  0  0
 40 52  1  0  0  0
 40 53  2  0  0  0
 40 58  1  0  0  0
 41109  1  0  0  0
 41110  1  0  0  0
 41111  1  0  0  0
 41 48  1  0  0  0
 42 43  1  0  0  0
 42 66  1  0  0  0
 42112  1  0  0  0
 42113  1  0  0  0
 43 44  1  0  0  0
 44114  1  0  0  0
 45 46  2  0  0  0
 45115  1  0  0  0
 46116  1  0  0  0
 47117  1  0  0  0
 47118  1  0  0  0
 48 56  1  0  0  0
 48 65  1  0  0  0
 48119  1  0  0  0
 49 50  1  0  0  0
 49 53  1  0  0  0
 49 64  1  0  0  0
 49120  1  0  0  0
 50 51  1  0  0  0
 50121  1  0  0  0
 50122  1  0  0  0
 51 52  1  0  0  0
 51123  1  0  0  0
 51124  1  0  0  0
 52125  1  0  0  0
 52126  1  0  0  0
 53 54  1  0  0  0
 54 55  2  0  0  0
 54127  1  0  0  0
 55 57  1  0  0  0
 55128  1  0  0  0
 56 69  2  0  0  0
 57 58  2  0  0  0
 57129  1  0  0  0
 58130  1  0  0  0
 59 60  1  0  0  0
 59 61  1  0  0  0
 59 62  1  0  0  0
 60131  1  0  0  0
 60132  1  0  0  0
 60133  1  0  0  0
 61134  1  0  0  0
 61135  1  0  0  0
 61136  1  0  0  0
 62137  1  0  0  0
 62138  1  0  0  0
 62139  1  0  0  0
 63 65  1  0  0  0
 63140  1  0  0  0
 63141  1  0  0  0
 63142  1  0  0  0
 64143  1  0  0  0
 65144  1  0  0  0
 68 77  1  0  0  0
 71 72  2  0  0  0
 71 73  1  0  0  0
 71145  1  0  0  0
 72 80  1  0  0  0
 72 82  1  0  0  0
 73 81  2  0  0  0
 73 83  1  0  0  0
 74 80  2  0  0  0
 74 81  1  0  0  0
 74 84  1  0  0  0
 75 76  1  0  0  0
 75146  1  0  0  0
 75147  1  0  0  0
 75148  1  0  0  0
 76149  1  0  0  0
 76150  1  0  0  0
 76 78  1  0  0  0
 77 79  1  0  0  0
 77151  1  0  0  0
 77152  1  0  0  0
 78 79  1  0  0  0
 78 83  1  0  0  0
 78153  1  0  0  0
 79 85  1  0  0  0
 79154  1  0  0  0
 82155  1  0  0  0
 82156  1  0  0  0
 83157  1  0  0  0
 84158  1  0  0  0
 85159  1  0  0  0
M  ISO  4   1 100  68 101  77 101  84 100
M  END
> <chiral flag>
0

> <version>
0

> <s_m_source_file>
/data/baiqing/PycharmProjects/Reinvent-master-3.2/result/LINK_invent/BTK/process_docking_weight1_custom_product_contain_oxygen_bond_distance_aromatic_linkinvent_7_9_3/rearranged_h_0195.sdf

> <i_m_source_file_index>
49

> <r_mmod_Potential_Energy-OPLS-2005>
-223.582992553711

> <r_mmod_Stretch_Energy-OPLS-2005>
149.508148193359

> <r_mmod_Bend_Energy-OPLS-2005>
262.069396972656

> <r_mmod_Torsional_Energy-OPLS-2005>
315.598480224609

> <r_mmod_Improper_Torsional_Energy-OPLS-2005>
28.057186126709

> <r_mmod_Van_der_Waal_Energy-OPLS-2005>
150.587005615234

> <r_mmod_Electrostatic_Energy-OPLS-2005>
-1003.77770996094

> <r_mmod_Solvation_Energy-OPLS-2005>
-235.142364501953

> <b_mmod_Minimization_Converged-OPLS-2005>
0

> <r_mmod_RMS_Derivative-OPLS-2005>
3.11995387077332

$$$$
49
                    3D
 Structure written by MMmdl.
157165  0  0  1  0            999 V2000
  -30.7128  -14.5126   20.5574 C   0  0  0  0  0  0
  -30.4196  -12.3262   19.4410 C   0  0  0  0  0  0
  -29.4993  -12.4990   18.2165 C   0  0  0  0  0  0
  -28.0216  -12.3527   18.6272 C   0  0  0  0  0  0
  -27.6553  -13.2141   19.8663 C   0  0  2  0  0  0
  -28.6973  -13.0458   20.9959 C   0  0  0  0  0  0
  -25.2554  -13.8176   20.5676 C   0  0  0  0  0  0
  -24.1817  -13.0450   20.9200 C   0  0  0  0  0  0
  -24.6371  -11.6918   20.8734 C   0  0  0  0  0  0
  -23.9034  -10.4301   21.0398 C   0  0  0  0  0  0
  -24.3589   -9.4215   21.9173 C   0  0  0  0  0  0
  -23.6272   -8.2246   22.0733 C   0  0  0  0  0  0
  -22.4266   -8.0264   21.3519 C   0  0  0  0  0  0
  -21.9894   -9.0234   20.4629 C   0  0  0  0  0  0
  -22.7208  -10.2122   20.3042 C   0  0  0  0  0  0
  -21.6846   -6.0724   22.5275 C   0  0  0  0  0  0
  -21.4019   -6.5627   23.8212 C   0  0  0  0  0  0
  -21.3670   -5.6775   24.9168 C   0  0  0  0  0  0
  -21.6041   -4.3037   24.7212 C   0  0  0  0  0  0
  -21.8814   -3.8135   23.4330 C   0  0  0  0  0  0
  -21.9186   -4.6955   22.3393 C   0  0  0  0  0  0
  -22.7834  -13.5242   21.1860 C   0  0  0  0  0  0
  -22.1655   -4.2146   21.0970 F   0  0  0  0  0  0
  -21.5633   -3.4517   25.7725 F   0  0  0  0  0  0
  -30.0258  -13.3402   20.4348 N   0  0  0  0  0  0
  -26.2987  -12.9353   20.3324 N   0  0  0  0  0  0
  -25.9297  -11.6512   20.5743 N   0  0  0  0  0  0
  -22.0461  -12.8255   22.0423 N   0  0  0  0  0  0
  -25.4248  -15.1895   20.4062 N   0  0  0  0  0  0
  -31.8550  -14.6335   20.1004 O   0  0  0  0  0  0
  -21.6622   -6.8862   21.4234 O   0  0  0  0  0  0
  -22.3527  -14.5534   20.6675 O   0  0  0  0  0  0
  -24.6157  -31.8650   23.2084 C   0  0  0  0  0  0
  -25.9049  -32.4797   23.8382 C   0  0  1  0  0  0
  -27.2329  -27.4236   20.0967 C   0  0  0  0  0  0
  -25.5896  -33.8599   24.2311 N   0  0  0  0  0  0
  -23.4051  -30.4881   21.5490 C   0  0  2  0  0  0
  -24.8529  -28.9513   20.1138 C   0  0  0  0  0  0
  -22.7420  -29.4622   22.4972 C   0  0  0  0  0  0
  -18.0279  -28.1375   22.8502 C   0  0  0  0  0  0
  -24.1484  -36.7320   23.2637 C   0  0  0  0  0  0
  -25.9348  -30.8286   21.3609 C   0  0  0  0  0  0
  -26.0146  -29.4614   20.7086 C   0  0  0  0  0  0
  -27.2112  -28.7057   20.6949 C   0  0  0  0  0  0
  -26.0573  -26.9330   19.4899 C   0  0  0  0  0  0
  -24.8694  -27.6870   19.4994 C   0  0  0  0  0  0
  -23.6151  -29.8202   20.1632 C   0  0  0  0  0  0
  -25.4098  -36.3103   24.0336 C   0  0  1  0  0  0
  -20.5862  -28.3654   23.1331 C   0  0  2  0  0  0
  -20.6767  -26.9380   22.5451 C   0  0  0  0  0  0
  -19.5748  -26.6365   21.5249 C   0  0  0  0  0  0
  -18.1923  -26.7918   22.1640 C   0  0  0  0  0  0
  -19.1522  -28.8834   23.2912 C   0  0  0  0  0  0
  -18.9454  -30.1457   23.8903 C   0  0  0  0  0  0
  -17.6456  -30.6586   24.0561 C   0  0  0  0  0  0
  -25.9026  -34.9475   23.5115 C   0  0  0  0  0  0
  -16.5350  -29.9081   23.6323 C   0  0  0  0  0  0
  -16.7269  -28.6507   23.0337 C   0  0  0  0  0  0
  -26.4483  -31.6569   25.0704 C   0  0  0  0  0  0
  -25.3760  -31.3666   26.1452 C   0  0  0  0  0  0
  -27.0307  -30.3013   24.6075 C   0  0  0  0  0  0
  -27.6063  -32.4295   25.7453 C   0  0  0  0  0  0
  -27.5574  -37.1811   24.8464 C   0  0  0  0  0  0
  -21.4149  -29.3013   22.3729 N   0  0  0  0  0  0
  -26.4286  -37.3786   23.9410 N   0  0  0  0  0  0
  -24.6701  -31.0754   22.0980 N   0  0  0  0  0  0
  -23.4191  -28.8149   23.3001 O   0  0  0  0  0  0
  -28.3728  -26.6472   20.1021 O   0  0  0  0  0  0
  -26.5590  -34.8935   22.4682 O   0  0  0  0  0  0
  -23.5350  -32.1398   23.7470 O   0  0  0  0  0  0
  -29.8348  -19.0848   21.2061 C   0  0  0  0  0  0
  -31.8104  -18.4238   21.9342 C   0  0  0  0  0  0
  -30.3784  -16.8916   21.2263 C   0  0  0  0  0  0
  -28.5227  -22.8323   20.9122 C   0  0  0  0  0  0
  -27.5753  -19.8149   20.2325 C   0  0  0  0  0  0
  -28.7565  -24.1409   20.1176 C   0  0  0  0  0  0
  -29.3740  -21.5839   20.5839 C   0  0  0  0  0  0
  -28.2559  -25.4183   20.8538 C   0  0  0  0  0  0
  -28.7886  -20.2207   21.1018 C   0  0  2  0  0  0
  -31.0114  -19.4423   21.7115 N   0  0  0  0  0  0
  -29.4440  -17.8184   20.9784 N   0  0  0  0  0  0
  -31.5863  -17.1433   21.7333 N   0  0  0  0  0  0
  -33.0276  -18.7386   22.4460 N   0  0  0  0  0  0
  -30.0061  -15.5708   21.0279 N   0  0  0  0  0  0
  -27.6737  -22.7882   21.8072 O   0  0  0  0  0  0
  -31.4668  -12.4064   19.1435 H   0  0  0  0  0  0
  -30.3095  -11.3276   19.8670 H   0  0  0  0  0  0
  -29.7501  -11.7638   17.4515 H   0  0  0  0  0  0
  -29.6649  -13.4786   17.7653 H   0  0  0  0  0  0
  -27.8452  -11.2989   18.8422 H   0  0  0  0  0  0
  -27.3691  -12.5992   17.7888 H   0  0  0  0  0  0
  -27.6828  -14.2540   19.5401 H   0  0  0  0  0  0
  -28.6816  -12.0267   21.3834 H   0  0  0  0  0  0
  -28.4514  -13.6858   21.8457 H   0  0  0  0  0  0
  -25.2726   -9.5685   22.4749 H   0  0  0  0  0  0
  -23.9971   -7.4636   22.7454 H   0  0  0  0  0  0
  -21.0819   -8.8723   19.8943 H   0  0  0  0  0  0
  -22.3640  -10.9635   19.6143 H   0  0  0  0  0  0
  -21.2018   -7.6138   23.9711 H   0  0  0  0  0  0
  -21.1509   -6.0507   25.9074 H   0  0  0  0  0  0
  -22.0590   -2.7597   23.2816 H   0  0  0  0  0  0
  -22.4054  -11.9918   22.4834 H   0  0  0  0  0  0
  -21.1052  -13.1240   22.2566 H   0  0  0  0  0  0
  -24.6512  -15.8358   20.5090 H   0  0  0  0  0  0
  -26.2602  -15.6290   20.0398 H   0  0  0  0  0  0
  -26.7119  -32.5509   23.1147 H   0  0  0  0  0  0
  -25.0058  -33.9752   25.0465 H   0  0  0  0  0  0
  -22.6946  -31.3056   21.4095 H   0  0  0  0  0  0
  -23.3733  -35.9665   23.3296 H   0  0  0  0  0  0
  -24.3572  -36.8926   22.2049 H   0  0  0  0  0  0
  -23.7261  -37.6541   23.6648 H   0  0  0  0  0  0
  -26.0431  -31.5903   20.5891 H   0  0  0  0  0  0
  -26.8251  -30.8880   21.9741 H   0  0  0  0  0  0
  -28.1102  -29.0931   21.1551 H   0  0  0  0  0  0
  -26.0609  -25.9629   19.0134 H   0  0  0  0  0  0
  -23.9767  -27.2891   19.0356 H   0  0  0  0  0  0
  -23.7260  -30.5956   19.4042 H   0  0  0  0  0  0
  -22.7399  -29.2414   19.8660 H   0  0  0  0  0  0
  -25.1278  -36.1951   25.0829 H   0  0  0  0  0  0
  -20.9960  -28.3234   24.1456 H   0  0  0  0  0  0
  -20.5666  -26.2254   23.3640 H   0  0  0  0  0  0
  -21.6633  -26.7414   22.1253 H   0  0  0  0  0  0
  -19.6906  -25.6277   21.1264 H   0  0  0  0  0  0
  -19.6689  -27.3176   20.6786 H   0  0  0  0  0  0
  -17.4190  -26.6655   21.4049 H   0  0  0  0  0  0
  -18.0328  -26.0071   22.9047 H   0  0  0  0  0  0
  -19.7921  -30.7305   24.2236 H   0  0  0  0  0  0
  -17.4996  -31.6264   24.5157 H   0  0  0  0  0  0
  -15.5348  -30.2997   23.7645 H   0  0  0  0  0  0
  -15.8658  -28.0848   22.7034 H   0  0  0  0  0  0
  -24.5940  -30.7004   25.7791 H   0  0  0  0  0  0
  -24.8949  -32.2824   26.4914 H   0  0  0  0  0  0
  -25.8126  -30.8829   27.0197 H   0  0  0  0  0  0
  -26.2843  -29.6767   24.1155 H   0  0  0  0  0  0
  -27.4111  -29.7251   25.4520 H   0  0  0  0  0  0
  -27.8666  -30.4325   23.9194 H   0  0  0  0  0  0
  -27.2682  -33.3582   26.2065 H   0  0  0  0  0  0
  -28.3852  -32.6865   25.0261 H   0  0  0  0  0  0
  -28.0765  -31.8396   26.5335 H   0  0  0  0  0  0
  -28.2601  -38.0099   24.7493 H   0  0  0  0  0  0
  -28.1064  -36.2636   24.6305 H   0  0  0  0  0  0
  -27.2295  -37.1469   25.8869 H   0  0  0  0  0  0
  -20.9297  -29.8776   21.6990 H   0  0  0  0  0  0
  -26.0167  -38.2857   24.1423 H   0  0  0  0  0  0
  -27.0807  -18.9303   20.6329 H   0  0  0  0  0  0
  -27.8856  -19.5878   19.2121 H   0  0  0  0  0  0
  -26.8228  -20.6014   20.1844 H   0  0  0  0  0  0
  -29.8173  -24.2301   19.8821 H   0  0  0  0  0  0
  -28.2319  -24.0401   19.1676 H   0  0  0  0  0  0
  -30.3396  -21.7683   21.0527 H   0  0  0  0  0  0
  -29.5625  -21.5362   19.5120 H   0  0  0  0  0  0
  -28.8435  -25.5510   21.7631 H   0  0  0  0  0  0
  -27.2303  -25.2618   21.1971 H   0  0  0  0  0  0
  -28.4332  -20.3675   22.1229 H   0  0  0  0  0  0
  -33.1126  -19.6400   22.8961 H   0  0  0  0  0  0
  -33.5505  -17.9854   22.8711 H   0  0  0  0  0  0
  -29.0321  -15.3839   21.1892 H   0  0  0  0  0  0
  1 25  1  0  0  0
  1 30  2  0  0  0
  1 84  1  0  0  0
  2  3  1  0  0  0
  2 25  1  0  0  0
  2 86  1  0  0  0
  2 87  1  0  0  0
  3  4  1  0  0  0
  3 88  1  0  0  0
  3 89  1  0  0  0
  4  5  1  0  0  0
  4 90  1  0  0  0
  4 91  1  0  0  0
  5  6  1  0  0  0
  5 26  1  0  0  0
  5 92  1  0  0  0
  6 25  1  0  0  0
  6 93  1  0  0  0
  6 94  1  0  0  0
  7  8  2  0  0  0
  7 26  1  0  0  0
  7 29  1  0  0  0
  8  9  1  0  0  0
  8 22  1  0  0  0
  9 10  1  0  0  0
  9 27  2  0  0  0
 10 11  2  0  0  0
 10 15  1  0  0  0
 11 12  1  0  0  0
 11 95  1  0  0  0
 12 13  2  0  0  0
 12 96  1  0  0  0
 13 14  1  0  0  0
 13 31  1  0  0  0
 14 15  2  0  0  0
 14 97  1  0  0  0
 15 98  1  0  0  0
 16 17  2  0  0  0
 16 21  1  0  0  0
 16 31  1  0  0  0
 17 18  1  0  0  0
 17 99  1  0  0  0
 18 19  2  0  0  0
 18100  1  0  0  0
 19 20  1  0  0  0
 19 24  1  0  0  0
 20 21  2  0  0  0
 20101  1  0  0  0
 21 23  1  0  0  0
 22 28  1  0  0  0
 22 32  2  0  0  0
 26 27  1  0  0  0
 28102  1  0  0  0
 28103  1  0  0  0
 29104  1  0  0  0
 29105  1  0  0  0
 33 34  1  0  0  0
 33 66  1  0  0  0
 33 70  2  0  0  0
 34 36  1  0  0  0
 34 59  1  0  0  0
 34106  1  0  0  0
 35 44  2  0  0  0
 35 45  1  0  0  0
 35 68  1  0  0  0
 36 56  1  0  0  0
 36107  1  0  0  0
 37 39  1  0  0  0
 37 47  1  0  0  0
 37 66  1  0  0  0
 37108  1  0  0  0
 38 43  2  0  0  0
 38 46  1  0  0  0
 38 47  1  0  0  0
 39 64  1  0  0  0
 39 67  2  0  0  0
 40 52  1  0  0  0
 40 53  2  0  0  0
 40 58  1  0  0  0
 41109  1  0  0  0
 41110  1  0  0  0
 41111  1  0  0  0
 41 48  1  0  0  0
 42 43  1  0  0  0
 42 66  1  0  0  0
 42112  1  0  0  0
 42113  1  0  0  0
 43 44  1  0  0  0
 44114  1  0  0  0
 45 46  2  0  0  0
 45115  1  0  0  0
 46116  1  0  0  0
 47117  1  0  0  0
 47118  1  0  0  0
 48 56  1  0  0  0
 48 65  1  0  0  0
 48119  1  0  0  0
 49 50  1  0  0  0
 49 53  1  0  0  0
 49 64  1  0  0  0
 49120  1  0  0  0
 50 51  1  0  0  0
 50121  1  0  0  0
 50122  1  0  0  0
 51 52  1  0  0  0
 51123  1  0  0  0
 51124  1  0  0  0
 52125  1  0  0  0
 52126  1  0  0  0
 53 54  1  0  0  0
 54 55  2  0  0  0
 54127  1  0  0  0
 55 57  1  0  0  0
 55128  1  0  0  0
 56 69  2  0  0  0
 57 58  2  0  0  0
 57129  1  0  0  0
 58130  1  0  0  0
 59 60  1  0  0  0
 59 61  1  0  0  0
 59 62  1  0  0  0
 60131  1  0  0  0
 60132  1  0  0  0
 60133  1  0  0  0
 61134  1  0  0  0
 61135  1  0  0  0
 61136  1  0  0  0
 62137  1  0  0  0
 62138  1  0  0  0
 62139  1  0  0  0
 63 65  1  0  0  0
 63140  1  0  0  0
 63141  1  0  0  0
 63142  1  0  0  0
 64143  1  0  0  0
 65144  1  0  0  0
 68 78  1  0  0  0
 71 79  1  0  0  0
 71 80  1  0  0  0
 71 81  2  0  0  0
 72 80  2  0  0  0
 72 82  1  0  0  0
 72 83  1  0  0  0
 73 81  1  0  0  0
 73 82  2  0  0  0
 73 84  1  0  0  0
 74 76  1  0  0  0
 74 77  1  0  0  0
 74 85  2  0  0  0
 75145  1  0  0  0
 75146  1  0  0  0
 75147  1  0  0  0
 75 79  1  0  0  0
 76 78  1  0  0  0
 76148  1  0  0  0
 76149  1  0  0  0
 77 79  1  0  0  0
 77150  1  0  0  0
 77151  1  0  0  0
 78152  1  0  0  0
 78153  1  0  0  0
 79154  1  0  0  0
 83155  1  0  0  0
 83156  1  0  0  0
 84157  1  0  0  0
M  ISO  4   1 100  68 101  78 101  84 100
M  END
> <chiral flag>
0

> <version>
0

> <s_m_source_file>
/data/baiqing/PycharmProjects/Reinvent-master-3.2/result/LINK_invent/BTK/process_docking_weight1_custom_product_contain_oxygen_bond_distance_aromatic_linkinvent_7_9_3/rearranged_h_0195.sdf

> <i_m_source_file_index>
50

> <r_mmod_Potential_Energy-OPLS-2005>
-945.761962890625

> <r_mmod_Stretch_Energy-OPLS-2005>
43.748851776123

> <r_mmod_Bend_Energy-OPLS-2005>
103.044448852539

> <r_mmod_Torsional_Energy-OPLS-2005>
234.24609375

> <r_mmod_Improper_Torsional_Energy-OPLS-2005>
8.62919330596924

> <r_mmod_Van_der_Waal_Energy-OPLS-2005>
179.644622802734

> <r_mmod_Electrostatic_Energy-OPLS-2005>
-1286.84130859375

> <r_mmod_Solvation_Energy-OPLS-2005>
-246.176940917969

> <b_mmod_Minimization_Converged-OPLS-2005>
0

> <r_mmod_RMS_Derivative-OPLS-2005>
2.31508016586304

$$$$
50
                    3D
 Structure written by MMmdl.
161169  0  0  1  0            999 V2000
  -30.6551  -14.4921   20.5493 C   0  0  0  0  0  0
  -30.4354  -12.3127   19.4216 C   0  0  0  0  0  0
  -29.4945  -12.4899   18.2090 C   0  0  0  0  0  0
  -28.0126  -12.3624   18.6216 C   0  0  0  0  0  0
  -27.6605  -13.1906   19.8858 C   0  0  2  0  0  0
  -28.7063  -12.9576   20.9989 C   0  0  0  0  0  0
  -25.2585  -13.8126   20.5693 C   0  0  0  0  0  0
  -24.1823  -13.0428   20.9199 C   0  0  0  0  0  0
  -24.6361  -11.6889   20.8768 C   0  0  0  0  0  0
  -23.9026  -10.4287   21.0417 C   0  0  0  0  0  0
  -24.3593   -9.4206   21.9172 C   0  0  0  0  0  0
  -23.6293   -8.2230   22.0732 C   0  0  0  0  0  0
  -22.4271   -8.0262   21.3533 C   0  0  0  0  0  0
  -21.9898   -9.0234   20.4635 C   0  0  0  0  0  0
  -22.7215  -10.2125   20.3050 C   0  0  0  0  0  0
  -21.6848   -6.0738   22.5286 C   0  0  0  0  0  0
  -21.4012   -6.5646   23.8219 C   0  0  0  0  0  0
  -21.3651   -5.6793   24.9177 C   0  0  0  0  0  0
  -21.6044   -4.3057   24.7226 C   0  0  0  0  0  0
  -21.8820   -3.8154   23.4345 C   0  0  0  0  0  0
  -21.9189   -4.6971   22.3405 C   0  0  0  0  0  0
  -22.7843  -13.5235   21.1853 C   0  0  0  0  0  0
  -22.1656   -4.2158   21.0986 F   0  0  0  0  0  0
  -21.5625   -3.4542   25.7736 F   0  0  0  0  0  0
  -30.0333  -13.2858   20.4494 N   0  0  0  0  0  0
  -26.3017  -12.9253   20.3441 N   0  0  0  0  0  0
  -25.9286  -11.6441   20.5814 N   0  0  0  0  0  0
  -22.0463  -12.8227   22.0403 N   0  0  0  0  0  0
  -25.4320  -15.1844   20.4074 N   0  0  0  0  0  0
  -31.7906  -14.6968   20.1052 O   0  0  0  0  0  0
  -21.6633   -6.8869   21.4241 O   0  0  0  0  0  0
  -22.3536  -14.5535   20.6681 O   0  0  0  0  0  0
  -24.6141  -31.8681   23.2095 C   0  0  0  0  0  0
  -25.9042  -32.4824   23.8399 C   0  0  1  0  0  0
  -27.2489  -27.4487   20.0938 C   0  0  0  0  0  0
  -25.5906  -33.8624   24.2330 N   0  0  0  0  0  0
  -23.4020  -30.4902   21.5483 C   0  0  2  0  0  0
  -24.8482  -28.9510   20.1152 C   0  0  0  0  0  0
  -22.7408  -29.4667   22.4986 C   0  0  0  0  0  0
  -18.0274  -28.1377   22.8494 C   0  0  0  0  0  0
  -24.1481  -36.7315   23.2642 C   0  0  0  0  0  0
  -25.9284  -30.8356   21.3618 C   0  0  0  0  0  0
  -26.0036  -29.4704   20.7100 C   0  0  0  0  0  0
  -27.1994  -28.7243   20.6974 C   0  0  0  0  0  0
  -26.0667  -26.9258   19.5164 C   0  0  0  0  0  0
  -24.8739  -27.6768   19.5206 C   0  0  0  0  0  0
  -23.6092  -29.8167   20.1643 C   0  0  0  0  0  0
  -25.4102  -36.3123   24.0348 C   0  0  1  0  0  0
  -20.5863  -28.3662   23.1315 C   0  0  2  0  0  0
  -20.6765  -26.9400   22.5411 C   0  0  0  0  0  0
  -19.5745  -26.6378   21.5211 C   0  0  0  0  0  0
  -18.1923  -26.7931   22.1615 C   0  0  0  0  0  0
  -19.1525  -28.8831   23.2911 C   0  0  0  0  0  0
  -18.9458  -30.1439   23.8914 C   0  0  0  0  0  0
  -17.6462  -30.6589   24.0551 C   0  0  0  0  0  0
  -25.9030  -34.9483   23.5138 C   0  0  0  0  0  0
  -16.5349  -29.9090   23.6317 C   0  0  0  0  0  0
  -16.7266  -28.6501   23.0353 C   0  0  0  0  0  0
  -26.4473  -31.6621   25.0731 C   0  0  0  0  0  0
  -25.3755  -31.3720   26.1494 C   0  0  0  0  0  0
  -27.0320  -30.3073   24.6119 C   0  0  0  0  0  0
  -27.6050  -32.4355   25.7479 C   0  0  0  0  0  0
  -27.5581  -37.1810   24.8467 C   0  0  0  0  0  0
  -21.4134  -29.3037   22.3720 N   0  0  0  0  0  0
  -26.4290  -37.3801   23.9415 N   0  0  0  0  0  0
  -24.6659  -31.0811   22.0977 N   0  0  0  0  0  0
  -23.4189  -28.8226   23.3042 O   0  0  0  0  0  0
  -28.4619  -26.7931   20.1198 O   0  0  0  0  0  0
  -26.5578  -34.8939   22.4691 O   0  0  0  0  0  0
  -23.5346  -32.1410   23.7520 O   0  0  0  0  0  0
  -29.5353  -18.6990   19.1435 C   0  0  0  0  0  0
  -30.0199  -19.0988   21.4553 C   0  0  0  0  0  0
  -29.6098  -17.3177   19.4008 C   0  0  0  0  0  0
  -29.7506  -19.6283   20.1727 C   0  0  0  0  0  0
  -29.9154  -16.8708   20.7160 C   0  0  0  0  0  0
  -29.3292  -16.3804   18.2373 C   0  0  0  0  0  0
  -31.7080  -21.9012   20.9070 C   0  0  0  0  0  0
  -29.9888  -23.4449   19.8677 C   0  0  0  0  0  0
  -28.6946  -25.6025   19.3674 C   0  0  0  0  0  0
  -30.2045  -22.1020   20.6313 C   0  0  1  0  0  0
  -28.7887  -24.3435   20.2747 C   0  0  1  0  0  0
  -30.0913  -17.7685   21.7141 N   0  0  0  0  0  0
  -29.6654  -20.9950   19.8377 N   0  0  0  0  0  0
  -29.8761  -15.4821   21.0335 N   0  0  0  0  0  0
  -27.5639  -23.6316   20.1983 O   0  0  0  0  0  0
  -31.4751  -12.4396   19.1118 H   0  0  0  0  0  0
  -30.3654  -11.2991   19.8192 H   0  0  0  0  0  0
  -29.7322  -11.7513   17.4428 H   0  0  0  0  0  0
  -29.6633  -13.4636   17.7490 H   0  0  0  0  0  0
  -27.8133  -11.3067   18.8087 H   0  0  0  0  0  0
  -27.3628  -12.6449   17.7927 H   0  0  0  0  0  0
  -27.6963  -14.2381   19.6076 H   0  0  0  0  0  0
  -28.6900  -11.9143   21.3169 H   0  0  0  0  0  0
  -28.4653  -13.5347   21.8925 H   0  0  0  0  0  0
  -25.2732   -9.5702   22.4736 H   0  0  0  0  0  0
  -24.0019   -7.4625   22.7446 H   0  0  0  0  0  0
  -21.0820   -8.8755   19.8938 H   0  0  0  0  0  0
  -22.3664  -10.9662   19.6163 H   0  0  0  0  0  0
  -21.2001   -7.6154   23.9735 H   0  0  0  0  0  0
  -21.1465   -6.0512   25.9082 H   0  0  0  0  0  0
  -22.0601   -2.7620   23.2845 H   0  0  0  0  0  0
  -22.4080  -11.9918   22.4860 H   0  0  0  0  0  0
  -21.1069  -13.1250   22.2575 H   0  0  0  0  0  0
  -24.6635  -15.8388   20.5096 H   0  0  0  0  0  0
  -26.2825  -15.6260   20.0833 H   0  0  0  0  0  0
  -26.7115  -32.5534   23.1168 H   0  0  0  0  0  0
  -25.0113  -33.9778   25.0517 H   0  0  0  0  0  0
  -22.6918  -31.3070   21.4076 H   0  0  0  0  0  0
  -23.3750  -35.9642   23.3316 H   0  0  0  0  0  0
  -24.3584  -36.8903   22.2052 H   0  0  0  0  0  0
  -23.7218  -37.6521   23.6641 H   0  0  0  0  0  0
  -26.0492  -31.6037   20.5959 H   0  0  0  0  0  0
  -26.8131  -30.8837   21.9844 H   0  0  0  0  0  0
  -28.0935  -29.1292   21.1513 H   0  0  0  0  0  0
  -26.0384  -25.9405   19.0770 H   0  0  0  0  0  0
  -23.9812  -27.2643   19.0710 H   0  0  0  0  0  0
  -23.7180  -30.5864   19.3992 H   0  0  0  0  0  0
  -22.7335  -29.2327   19.8725 H   0  0  0  0  0  0
  -25.1283  -36.1987   25.0840 H   0  0  0  0  0  0
  -20.9972  -28.3237   24.1433 H   0  0  0  0  0  0
  -20.5665  -26.2284   23.3607 H   0  0  0  0  0  0
  -21.6644  -26.7461   22.1208 H   0  0  0  0  0  0
  -19.6908  -25.6291   21.1235 H   0  0  0  0  0  0
  -19.6688  -27.3188   20.6744 H   0  0  0  0  0  0
  -17.4206  -26.6698   21.3997 H   0  0  0  0  0  0
  -18.0315  -26.0067   22.8998 H   0  0  0  0  0  0
  -19.7938  -30.7237   24.2312 H   0  0  0  0  0  0
  -17.5023  -31.6272   24.5153 H   0  0  0  0  0  0
  -15.5352  -30.2993   23.7639 H   0  0  0  0  0  0
  -15.8669  -28.0813   22.7075 H   0  0  0  0  0  0
  -24.5898  -30.7108   25.7823 H   0  0  0  0  0  0
  -24.8996  -32.2885   26.4999 H   0  0  0  0  0  0
  -25.8120  -30.8834   27.0216 H   0  0  0  0  0  0
  -26.2865  -29.6804   24.1213 H   0  0  0  0  0  0
  -27.4139  -29.7344   25.4580 H   0  0  0  0  0  0
  -27.8684  -30.4407   23.9251 H   0  0  0  0  0  0
  -27.2665  -33.3641   26.2095 H   0  0  0  0  0  0
  -28.3828  -32.6942   25.0279 H   0  0  0  0  0  0
  -28.0769  -31.8472   26.5355 H   0  0  0  0  0  0
  -28.2615  -38.0092   24.7523 H   0  0  0  0  0  0
  -28.1063  -36.2631   24.6294 H   0  0  0  0  0  0
  -27.2318  -37.1472   25.8875 H   0  0  0  0  0  0
  -20.9303  -29.8743   21.6916 H   0  0  0  0  0  0
  -26.0189  -38.2887   24.1404 H   0  0  0  0  0  0
  -29.3034  -19.0492   18.1474 H   0  0  0  0  0  0
  -30.1648  -19.7456   22.3076 H   0  0  0  0  0  0
  -29.2010  -16.9363   17.3079 H   0  0  0  0  0  0
  -28.4078  -15.8279   18.4007 H   0  0  0  0  0  0
  -30.1546  -15.6891   18.0765 H   0  0  0  0  0  0
  -32.0968  -22.6989   21.5427 H   0  0  0  0  0  0
  -32.2873  -21.9072   19.9825 H   0  0  0  0  0  0
  -31.9305  -20.9687   21.4210 H   0  0  0  0  0  0
  -29.9800  -23.2727   18.7886 H   0  0  0  0  0  0
  -30.8726  -24.0645   20.0273 H   0  0  0  0  0  0
  -28.0330  -25.4612   18.5131 H   0  0  0  0  0  0
  -29.6708  -25.7753   18.9133 H   0  0  0  0  0  0
  -29.6819  -22.1497   21.5891 H   0  0  0  0  0  0
  -28.9389  -24.6564   21.3100 H   0  0  0  0  0  0
  -29.3862  -21.2153   18.8857 H   0  0  0  0  0  0
  -29.0403  -15.1759   21.5048 H   0  0  0  0  0  0
  -27.4621  -23.3159   19.3068 H   0  0  0  0  0  0
  1 25  1  0  0  0
  1 30  2  0  0  0
  1 84  1  0  0  0
  2  3  1  0  0  0
  2 25  1  0  0  0
  2 86  1  0  0  0
  2 87  1  0  0  0
  3  4  1  0  0  0
  3 88  1  0  0  0
  3 89  1  0  0  0
  4  5  1  0  0  0
  4 90  1  0  0  0
  4 91  1  0  0  0
  5  6  1  0  0  0
  5 26  1  0  0  0
  5 92  1  0  0  0
  6 25  1  0  0  0
  6 93  1  0  0  0
  6 94  1  0  0  0
  7  8  2  0  0  0
  7 26  1  0  0  0
  7 29  1  0  0  0
  8  9  1  0  0  0
  8 22  1  0  0  0
  9 10  1  0  0  0
  9 27  2  0  0  0
 10 11  2  0  0  0
 10 15  1  0  0  0
 11 12  1  0  0  0
 11 95  1  0  0  0
 12 13  2  0  0  0
 12 96  1  0  0  0
 13 14  1  0  0  0
 13 31  1  0  0  0
 14 15  2  0  0  0
 14 97  1  0  0  0
 15 98  1  0  0  0
 16 17  2  0  0  0
 16 21  1  0  0  0
 16 31  1  0  0  0
 17 18  1  0  0  0
 17 99  1  0  0  0
 18 19  2  0  0  0
 18100  1  0  0  0
 19 20  1  0  0  0
 19 24  1  0  0  0
 20 21  2  0  0  0
 20101  1  0  0  0
 21 23  1  0  0  0
 22 28  1  0  0  0
 22 32  2  0  0  0
 26 27  1  0  0  0
 28102  1  0  0  0
 28103  1  0  0  0
 29104  1  0  0  0
 29105  1  0  0  0
 33 34  1  0  0  0
 33 66  1  0  0  0
 33 70  2  0  0  0
 34 36  1  0  0  0
 34 59  1  0  0  0
 34106  1  0  0  0
 35 44  2  0  0  0
 35 45  1  0  0  0
 35 68  1  0  0  0
 36 56  1  0  0  0
 36107  1  0  0  0
 37 39  1  0  0  0
 37 47  1  0  0  0
 37 66  1  0  0  0
 37108  1  0  0  0
 38 43  2  0  0  0
 38 46  1  0  0  0
 38 47  1  0  0  0
 39 64  1  0  0  0
 39 67  2  0  0  0
 40 52  1  0  0  0
 40 53  2  0  0  0
 40 58  1  0  0  0
 41109  1  0  0  0
 41110  1  0  0  0
 41111  1  0  0  0
 41 48  1  0  0  0
 42 43  1  0  0  0
 42 66  1  0  0  0
 42112  1  0  0  0
 42113  1  0  0  0
 43 44  1  0  0  0
 44114  1  0  0  0
 45 46  2  0  0  0
 45115  1  0  0  0
 46116  1  0  0  0
 47117  1  0  0  0
 47118  1  0  0  0
 48 56  1  0  0  0
 48 65  1  0  0  0
 48119  1  0  0  0
 49 50  1  0  0  0
 49 53  1  0  0  0
 49 64  1  0  0  0
 49120  1  0  0  0
 50 51  1  0  0  0
 50121  1  0  0  0
 50122  1  0  0  0
 51 52  1  0  0  0
 51123  1  0  0  0
 51124  1  0  0  0
 52125  1  0  0  0
 52126  1  0  0  0
 53 54  1  0  0  0
 54 55  2  0  0  0
 54127  1  0  0  0
 55 57  1  0  0  0
 55128  1  0  0  0
 56 69  2  0  0  0
 57 58  2  0  0  0
 57129  1  0  0  0
 58130  1  0  0  0
 59 60  1  0  0  0
 59 61  1  0  0  0
 59 62  1  0  0  0
 60131  1  0  0  0
 60132  1  0  0  0
 60133  1  0  0  0
 61134  1  0  0  0
 61135  1  0  0  0
 61136  1  0  0  0
 62137  1  0  0  0
 62138  1  0  0  0
 62139  1  0  0  0
 63 65  1  0  0  0
 63140  1  0  0  0
 63141  1  0  0  0
 63142  1  0  0  0
 64143  1  0  0  0
 65144  1  0  0  0
 68 79  1  0  0  0
 71 73  2  0  0  0
 71 74  1  0  0  0
 71145  1  0  0  0
 72 74  2  0  0  0
 72 82  1  0  0  0
 72146  1  0  0  0
 73 75  1  0  0  0
 73 76  1  0  0  0
 74 83  1  0  0  0
 75 82  2  0  0  0
 75 84  1  0  0  0
 76147  1  0  0  0
 76148  1  0  0  0
 76149  1  0  0  0
 77150  1  0  0  0
 77151  1  0  0  0
 77152  1  0  0  0
 77 80  1  0  0  0
 78 80  1  0  0  0
 78 81  1  0  0  0
 78153  1  0  0  0
 78154  1  0  0  0
 79 81  1  0  0  0
 79155  1  0  0  0
 79156  1  0  0  0
 80 83  1  0  0  0
 80157  1  0  0  0
 81 85  1  0  0  0
 81158  1  0  0  0
 83159  1  0  0  0
 84160  1  0  0  0
 85161  1  0  0  0
M  ISO  4   1 100  68 101  79 101  84 100
M  END
> <chiral flag>
0

> <version>
0

> <s_m_source_file>
/data/baiqing/PycharmProjects/Reinvent-master-3.2/result/LINK_invent/BTK/process_docking_weight1_custom_product_contain_oxygen_bond_distance_aromatic_linkinvent_7_9_3/rearranged_h_0195.sdf

> <i_m_source_file_index>
51

> <r_mmod_Potential_Energy-OPLS-2005>
-99.6704254150391

> <r_mmod_Stretch_Energy-OPLS-2005>
37.6298980712891

> <r_mmod_Bend_Energy-OPLS-2005>
135.80419921875

> <r_mmod_Torsional_Energy-OPLS-2005>
243.990570068359

> <r_mmod_Improper_Torsional_Energy-OPLS-2005>
5.17637300491333

> <r_mmod_Van_der_Waal_Energy-OPLS-2005>
155.379241943359

> <r_mmod_Electrostatic_Energy-OPLS-2005>
-441.877349853516

> <r_mmod_Solvation_Energy-OPLS-2005>
-250.462249755859

> <b_mmod_Minimization_Converged-OPLS-2005>
0

> <r_mmod_RMS_Derivative-OPLS-2005>
2.40447235107422

$$$$
51
                    3D
 Structure written by MMmdl.
159167  0  0  1  0            999 V2000
  -30.6925  -14.7530   20.3322 C   0  0  0  0  0  0
  -30.4240  -12.4347   19.4792 C   0  0  0  0  0  0
  -29.5235  -12.4273   18.2308 C   0  0  0  0  0  0
  -28.0346  -12.3316   18.6195 C   0  0  0  0  0  0
  -27.6377  -13.2325   19.8233 C   0  0  2  0  0  0
  -28.6953  -13.2468   20.9457 C   0  0  0  0  0  0
  -25.2549  -13.8184   20.5770 C   0  0  0  0  0  0
  -24.1827  -13.0382   20.9263 C   0  0  0  0  0  0
  -24.6424  -11.6887   20.8774 C   0  0  0  0  0  0
  -23.9078  -10.4288   21.0426 C   0  0  0  0  0  0
  -24.3640   -9.4196   21.9171 C   0  0  0  0  0  0
  -23.6302   -8.2242   22.0726 C   0  0  0  0  0  0
  -22.4269   -8.0306   21.3540 C   0  0  0  0  0  0
  -21.9930   -9.0265   20.4619 C   0  0  0  0  0  0
  -22.7263  -10.2152   20.3039 C   0  0  0  0  0  0
  -21.6836   -6.0751   22.5314 C   0  0  0  0  0  0
  -21.3985   -6.5625   23.8261 C   0  0  0  0  0  0
  -21.3706   -5.6767   24.9217 C   0  0  0  0  0  0
  -21.6067   -4.3036   24.7263 C   0  0  0  0  0  0
  -21.8798   -3.8140   23.4383 C   0  0  0  0  0  0
  -21.9184   -4.6968   22.3434 C   0  0  0  0  0  0
  -22.7871  -13.5251   21.1865 C   0  0  0  0  0  0
  -22.1630   -4.2169   21.1003 F   0  0  0  0  0  0
  -21.5705   -3.4511   25.7781 F   0  0  0  0  0  0
  -29.9913  -13.5616   20.3334 N   0  0  0  0  0  0
  -26.2969  -12.9384   20.3242 N   0  0  0  0  0  0
  -25.9362  -11.6515   20.5694 N   0  0  0  0  0  0
  -22.0471  -12.8362   22.0487 N   0  0  0  0  0  0
  -25.4070  -15.1936   20.4368 N   0  0  0  0  0  0
  -31.9223  -14.6799   20.3001 O   0  0  0  0  0  0
  -21.6604   -6.8905   21.4272 O   0  0  0  0  0  0
  -22.3578  -14.5436   20.6547 O   0  0  0  0  0  0
  -24.6287  -31.8576   23.1939 C   0  0  0  0  0  0
  -25.9145  -32.4737   23.8286 C   0  0  1  0  0  0
  -27.2157  -27.3049   20.1728 C   0  0  0  0  0  0
  -25.5906  -33.8525   24.2213 N   0  0  0  0  0  0
  -23.4185  -30.4843   21.5333 C   0  0  2  0  0  0
  -24.8674  -28.9325   20.1005 C   0  0  0  0  0  0
  -22.7446  -29.4688   22.4861 C   0  0  0  0  0  0
  -18.0293  -28.1396   22.8478 C   0  0  0  0  0  0
  -24.1464  -36.7321   23.2623 C   0  0  0  0  0  0
  -25.9583  -30.7916   21.3589 C   0  0  0  0  0  0
  -26.0327  -29.4163   20.7101 C   0  0  0  0  0  0
  -27.2130  -28.6151   20.7318 C   0  0  0  0  0  0
  -26.0419  -26.8773   19.5188 C   0  0  0  0  0  0
  -24.8745  -27.6661   19.4870 C   0  0  0  0  0  0
  -23.6326  -29.8096   20.1484 C   0  0  0  0  0  0
  -25.4077  -36.3040   24.0291 C   0  0  1  0  0  0
  -20.5898  -28.3731   23.1205 C   0  0  2  0  0  0
  -20.6774  -26.9431   22.5381 C   0  0  0  0  0  0
  -19.5755  -26.6390   21.5188 C   0  0  0  0  0  0
  -18.1942  -26.7930   22.1614 C   0  0  0  0  0  0
  -19.1551  -28.8872   23.2860 C   0  0  0  0  0  0
  -18.9476  -30.1470   23.8895 C   0  0  0  0  0  0
  -17.6483  -30.6596   24.0569 C   0  0  0  0  0  0
  -25.9037  -34.9405   23.5057 C   0  0  0  0  0  0
  -16.5374  -29.9111   23.6315 C   0  0  0  0  0  0
  -16.7298  -28.6528   23.0336 C   0  0  0  0  0  0
  -26.4467  -31.6539   25.0682 C   0  0  0  0  0  0
  -25.3685  -31.3724   26.1408 C   0  0  0  0  0  0
  -27.0263  -30.2920   24.6184 C   0  0  0  0  0  0
  -27.5998  -32.4289   25.7480 C   0  0  0  0  0  0
  -27.5570  -37.1805   24.8469 C   0  0  0  0  0  0
  -21.4162  -29.3095   22.3586 N   0  0  0  0  0  0
  -26.4267  -37.3754   23.9410 N   0  0  0  0  0  0
  -24.6877  -31.0605   22.0866 N   0  0  0  0  0  0
  -23.4171  -28.8216   23.2931 O   0  0  0  0  0  0
  -28.3080  -26.4328   20.2648 O   0  0  0  0  0  0
  -26.5637  -34.8900   22.4648 O   0  0  0  0  0  0
  -23.5465  -32.1348   23.7312 O   0  0  0  0  0  0
  -29.3995  -17.5022   22.0487 C   0  0  0  0  0  0
  -29.8087  -17.4429   20.7365 C   0  0  0  0  0  0
  -29.4031  -19.7809   20.9873 C   0  0  0  0  0  0
  -26.3065  -21.8781   20.2867 C   0  0  0  0  0  0
  -29.1979  -16.1948   18.6174 C   0  0  0  0  0  0
  -27.1691  -22.1596   21.5358 C   0  0  0  0  0  0
  -28.0401  -25.1037   20.8790 C   0  0  0  0  0  0
  -30.1401  -16.2025   19.8337 C   0  0  2  0  0  0
  -28.6691  -22.4032   21.2748 C   0  0  2  0  0  0
  -28.9361  -23.8057   20.5113 C   0  0  1  0  0  0
  -29.8310  -18.7726   20.1804 N   0  0  0  0  0  0
  -29.2707  -21.1711   20.6529 N   0  0  0  0  0  0
  -28.7053  -23.4770   19.1565 O   0  0  0  0  0  0
  -29.0132  -19.1414   22.5803 S   0  0  0  0  0  0
  -31.4670  -12.5226   19.1781 H   0  0  0  0  0  0
  -30.3363  -11.4904   20.0175 H   0  0  0  0  0  0
  -29.7926  -11.5836   17.5936 H   0  0  0  0  0  0
  -29.7200  -13.3084   17.6212 H   0  0  0  0  0  0
  -27.8304  -11.2872   18.8491 H   0  0  0  0  0  0
  -27.4067  -12.5749   17.7599 H   0  0  0  0  0  0
  -27.5932  -14.2324   19.4079 H   0  0  0  0  0  0
  -28.7386  -12.2801   21.4469 H   0  0  0  0  0  0
  -28.4376  -13.9761   21.7126 H   0  0  0  0  0  0
  -25.2817   -9.5621   22.4726 H   0  0  0  0  0  0
  -24.0025   -7.4602   22.7433 H   0  0  0  0  0  0
  -21.0873   -8.8771   19.8910 H   0  0  0  0  0  0
  -22.3728  -10.9657   19.6116 H   0  0  0  0  0  0
  -21.1873   -7.6104   23.9796 H   0  0  0  0  0  0
  -21.1570   -6.0466   25.9134 H   0  0  0  0  0  0
  -22.0514   -2.7616   23.2831 H   0  0  0  0  0  0
  -22.3931  -11.9979   22.4920 H   0  0  0  0  0  0
  -21.1018  -13.1406   22.2329 H   0  0  0  0  0  0
  -24.6174  -15.8209   20.5370 H   0  0  0  0  0  0
  -26.2964  -15.6739   20.4135 H   0  0  0  0  0  0
  -26.7239  -32.5458   23.1061 H   0  0  0  0  0  0
  -25.0044  -33.9631   25.0360 H   0  0  0  0  0  0
  -22.7183  -31.3107   21.3820 H   0  0  0  0  0  0
  -23.3685  -35.9715   23.3275 H   0  0  0  0  0  0
  -24.3585  -36.8987   22.2058 H   0  0  0  0  0  0
  -23.7260  -37.6511   23.6692 H   0  0  0  0  0  0
  -26.0824  -31.5483   20.5812 H   0  0  0  0  0  0
  -26.8446  -30.8432   21.9823 H   0  0  0  0  0  0
  -28.1071  -28.9677   21.2234 H   0  0  0  0  0  0
  -26.0353  -25.8965   19.0596 H   0  0  0  0  0  0
  -23.9788  -27.2821   19.0150 H   0  0  0  0  0  0
  -23.7545  -30.5831   19.3906 H   0  0  0  0  0  0
  -22.7536  -29.2379   19.8416 H   0  0  0  0  0  0
  -25.1261  -36.1849   25.0781 H   0  0  0  0  0  0
  -21.0015  -28.3333   24.1317 H   0  0  0  0  0  0
  -20.5566  -26.2386   23.3615 H   0  0  0  0  0  0
  -21.6652  -26.7396   22.1244 H   0  0  0  0  0  0
  -19.6885  -25.6275   21.1274 H   0  0  0  0  0  0
  -19.6647  -27.3154   20.6662 H   0  0  0  0  0  0
  -17.4177  -26.6640   21.4052 H   0  0  0  0  0  0
  -18.0379  -26.0086   22.9023 H   0  0  0  0  0  0
  -19.7960  -30.7290   24.2238 H   0  0  0  0  0  0
  -17.5048  -31.6257   24.5187 H   0  0  0  0  0  0
  -15.5373  -30.3032   23.7622 H   0  0  0  0  0  0
  -15.8693  -28.0862   22.7029 H   0  0  0  0  0  0
  -24.5911  -30.6965   25.7820 H   0  0  0  0  0  0
  -24.8801  -32.2902   26.4703 H   0  0  0  0  0  0
  -25.8017  -30.9056   27.0272 H   0  0  0  0  0  0
  -26.2814  -29.6697   24.1217 H   0  0  0  0  0  0
  -27.3877  -29.7149   25.4709 H   0  0  0  0  0  0
  -27.8728  -30.4103   23.9416 H   0  0  0  0  0  0
  -27.2566  -33.3648   26.1915 H   0  0  0  0  0  0
  -28.3893  -32.6758   25.0363 H   0  0  0  0  0  0
  -28.0545  -31.8493   26.5529 H   0  0  0  0  0  0
  -28.2557  -38.0130   24.7521 H   0  0  0  0  0  0
  -28.1061  -36.2652   24.6234 H   0  0  0  0  0  0
  -27.2334  -37.1431   25.8887 H   0  0  0  0  0  0
  -20.9329  -29.8825   21.6813 H   0  0  0  0  0  0
  -26.0110  -38.2824   24.1388 H   0  0  0  0  0  0
  -29.2588  -16.6822   22.7351 H   0  0  0  0  0  0
  -26.6493  -20.9857   19.7598 H   0  0  0  0  0  0
  -26.2841  -22.7023   19.5704 H   0  0  0  0  0  0
  -25.2745  -21.6923   20.5854 H   0  0  0  0  0  0
  -29.3744  -17.0963   18.0303 H   0  0  0  0  0  0
  -28.1549  -16.2381   18.9244 H   0  0  0  0  0  0
  -29.3514  -15.3698   17.9270 H   0  0  0  0  0  0
  -27.0565  -21.3033   22.1981 H   0  0  0  0  0  0
  -26.7682  -22.9857   22.1229 H   0  0  0  0  0  0
  -28.1381  -25.2801   21.9516 H   0  0  0  0  0  0
  -26.9863  -24.8397   20.7853 H   0  0  0  0  0  0
  -31.0542  -16.5525   19.3512 H   0  0  0  0  0  0
  -29.1312  -22.4942   22.2617 H   0  0  0  0  0  0
  -29.9905  -24.0512   20.6277 H   0  0  0  0  0  0
  -29.6359  -21.3972   19.7352 H   0  0  0  0  0  0
  -27.9112  -22.9542   19.1688 H   0  0  0  0  0  0
  1 25  1  0  0  0
  1 30  2  0  0  0
  1 78  1  0  0  0
  2  3  1  0  0  0
  2 25  1  0  0  0
  2 85  1  0  0  0
  2 86  1  0  0  0
  3  4  1  0  0  0
  3 87  1  0  0  0
  3 88  1  0  0  0
  4  5  1  0  0  0
  4 89  1  0  0  0
  4 90  1  0  0  0
  5  6  1  0  0  0
  5 26  1  0  0  0
  5 91  1  0  0  0
  6 25  1  0  0  0
  6 92  1  0  0  0
  6 93  1  0  0  0
  7  8  2  0  0  0
  7 26  1  0  0  0
  7 29  1  0  0  0
  8  9  1  0  0  0
  8 22  1  0  0  0
  9 10  1  0  0  0
  9 27  2  0  0  0
 10 11  2  0  0  0
 10 15  1  0  0  0
 11 12  1  0  0  0
 11 94  1  0  0  0
 12 13  2  0  0  0
 12 95  1  0  0  0
 13 14  1  0  0  0
 13 31  1  0  0  0
 14 15  2  0  0  0
 14 96  1  0  0  0
 15 97  1  0  0  0
 16 17  2  0  0  0
 16 21  1  0  0  0
 16 31  1  0  0  0
 17 18  1  0  0  0
 17 98  1  0  0  0
 18 19  2  0  0  0
 18 99  1  0  0  0
 19 20  1  0  0  0
 19 24  1  0  0  0
 20 21  2  0  0  0
 20100  1  0  0  0
 21 23  1  0  0  0
 22 28  1  0  0  0
 22 32  2  0  0  0
 26 27  1  0  0  0
 28101  1  0  0  0
 28102  1  0  0  0
 29103  1  0  0  0
 29104  1  0  0  0
 33 34  1  0  0  0
 33 66  1  0  0  0
 33 70  2  0  0  0
 34 36  1  0  0  0
 34 59  1  0  0  0
 34105  1  0  0  0
 35 44  2  0  0  0
 35 45  1  0  0  0
 35 68  1  0  0  0
 36 56  1  0  0  0
 36106  1  0  0  0
 37 39  1  0  0  0
 37 47  1  0  0  0
 37 66  1  0  0  0
 37107  1  0  0  0
 38 43  2  0  0  0
 38 46  1  0  0  0
 38 47  1  0  0  0
 39 64  1  0  0  0
 39 67  2  0  0  0
 40 52  1  0  0  0
 40 53  2  0  0  0
 40 58  1  0  0  0
 41108  1  0  0  0
 41109  1  0  0  0
 41110  1  0  0  0
 41 48  1  0  0  0
 42 43  1  0  0  0
 42 66  1  0  0  0
 42111  1  0  0  0
 42112  1  0  0  0
 43 44  1  0  0  0
 44113  1  0  0  0
 45 46  2  0  0  0
 45114  1  0  0  0
 46115  1  0  0  0
 47116  1  0  0  0
 47117  1  0  0  0
 48 56  1  0  0  0
 48 65  1  0  0  0
 48118  1  0  0  0
 49 50  1  0  0  0
 49 53  1  0  0  0
 49 64  1  0  0  0
 49119  1  0  0  0
 50 51  1  0  0  0
 50120  1  0  0  0
 50121  1  0  0  0
 51 52  1  0  0  0
 51122  1  0  0  0
 51123  1  0  0  0
 52124  1  0  0  0
 52125  1  0  0  0
 53 54  1  0  0  0
 54 55  2  0  0  0
 54126  1  0  0  0
 55 57  1  0  0  0
 55127  1  0  0  0
 56 69  2  0  0  0
 57 58  2  0  0  0
 57128  1  0  0  0
 58129  1  0  0  0
 59 60  1  0  0  0
 59 61  1  0  0  0
 59 62  1  0  0  0
 60130  1  0  0  0
 60131  1  0  0  0
 60132  1  0  0  0
 61133  1  0  0  0
 61134  1  0  0  0
 61135  1  0  0  0
 62136  1  0  0  0
 62137  1  0  0  0
 62138  1  0  0  0
 63 65  1  0  0  0
 63139  1  0  0  0
 63140  1  0  0  0
 63141  1  0  0  0
 64142  1  0  0  0
 65143  1  0  0  0
 68 77  1  0  0  0
 71 72  2  0  0  0
 71 84  1  0  0  0
 71144  1  0  0  0
 72 78  1  0  0  0
 72 81  1  0  0  0
 73 81  2  0  0  0
 73 82  1  0  0  0
 73 84  1  0  0  0
 74 76  1  0  0  0
 74145  1  0  0  0
 74146  1  0  0  0
 74147  1  0  0  0
 75148  1  0  0  0
 75149  1  0  0  0
 75150  1  0  0  0
 75 78  1  0  0  0
 76151  1  0  0  0
 76152  1  0  0  0
 76 79  1  0  0  0
 77 80  1  0  0  0
 77153  1  0  0  0
 77154  1  0  0  0
 78155  1  0  0  0
 79 80  1  0  0  0
 79 82  1  0  0  0
 79156  1  0  0  0
 80 83  1  0  0  0
 80157  1  0  0  0
 82158  1  0  0  0
 83159  1  0  0  0
M  ISO  4   1 100  68 101  77 101  78 100
M  END
> <chiral flag>
0

> <version>
0

> <s_m_source_file>
/data/baiqing/PycharmProjects/Reinvent-master-3.2/result/LINK_invent/BTK/process_docking_weight1_custom_product_contain_oxygen_bond_distance_aromatic_linkinvent_7_9_3/rearranged_h_0195.sdf

> <i_m_source_file_index>
52

> <r_mmod_Potential_Energy-OPLS-2005>
193.194183349609

> <r_mmod_Stretch_Energy-OPLS-2005>
104.231620788574

> <r_mmod_Bend_Energy-OPLS-2005>
197.072952270508

> <r_mmod_Torsional_Energy-OPLS-2005>
279.148803710938

> <r_mmod_Improper_Torsional_Energy-OPLS-2005>
15.5279664993286

> <r_mmod_Van_der_Waal_Energy-OPLS-2005>
117.590446472168

> <r_mmod_Electrostatic_Energy-OPLS-2005>
-401.426666259766

> <r_mmod_Solvation_Energy-OPLS-2005>
-217.362213134766

> <b_mmod_Minimization_Converged-OPLS-2005>
0

> <r_mmod_RMS_Derivative-OPLS-2005>
9.283766746521

$$$$
52
                    3D
 Structure written by MMmdl.
163171  0  0  1  0            999 V2000
  -30.7222  -14.5051   20.6361 C   0  0  0  0  0  0
  -30.4235  -12.3542   19.4249 C   0  0  0  0  0  0
  -29.4935  -12.5305   18.2084 C   0  0  0  0  0  0
  -28.0187  -12.3695   18.6223 C   0  0  0  0  0  0
  -27.6609  -13.2131   19.8742 C   0  0  2  0  0  0
  -28.7023  -13.0073   20.9960 C   0  0  0  0  0  0
  -25.2588  -13.8170   20.5686 C   0  0  0  0  0  0
  -24.1847  -13.0441   20.9190 C   0  0  0  0  0  0
  -24.6408  -11.6909   20.8739 C   0  0  0  0  0  0
  -23.9072  -10.4293   21.0408 C   0  0  0  0  0  0
  -24.3621   -9.4207   21.9187 C   0  0  0  0  0  0
  -23.6294   -8.2243   22.0754 C   0  0  0  0  0  0
  -22.4277   -8.0283   21.3544 C   0  0  0  0  0  0
  -21.9913   -9.0260   20.4649 C   0  0  0  0  0  0
  -22.7244  -10.2139   20.3060 C   0  0  0  0  0  0
  -21.6853   -6.0737   22.5281 C   0  0  0  0  0  0
  -21.4013   -6.5640   23.8215 C   0  0  0  0  0  0
  -21.3660   -5.6793   24.9178 C   0  0  0  0  0  0
  -21.6045   -4.3055   24.7227 C   0  0  0  0  0  0
  -21.8819   -3.8148   23.4348 C   0  0  0  0  0  0
  -21.9193   -4.6965   22.3403 C   0  0  0  0  0  0
  -22.7866  -13.5235   21.1849 C   0  0  0  0  0  0
  -22.1661   -4.2152   21.0980 F   0  0  0  0  0  0
  -21.5632   -3.4537   25.7739 F   0  0  0  0  0  0
  -30.0298  -13.3389   20.4525 N   0  0  0  0  0  0
  -26.3026  -12.9350   20.3359 N   0  0  0  0  0  0
  -25.9337  -11.6503   20.5760 N   0  0  0  0  0  0
  -22.0505  -12.8229   22.0405 N   0  0  0  0  0  0
  -25.4307  -15.1885   20.4070 N   0  0  0  0  0  0
  -31.7772  -14.7129   20.0277 O   0  0  0  0  0  0
  -21.6640   -6.8881   21.4243 O   0  0  0  0  0  0
  -22.3551  -14.5540   20.6700 O   0  0  0  0  0  0
  -24.6205  -31.8650   23.2092 C   0  0  0  0  0  0
  -25.9081  -32.4805   23.8392 C   0  0  1  0  0  0
  -27.2237  -27.3711   20.0918 C   0  0  0  0  0  0
  -25.5920  -33.8606   24.2316 N   0  0  0  0  0  0
  -23.4104  -30.4917   21.5512 C   0  0  2  0  0  0
  -24.8542  -28.9583   20.1105 C   0  0  0  0  0  0
  -22.7442  -29.4649   22.4967 C   0  0  0  0  0  0
  -18.0279  -28.1381   22.8491 C   0  0  0  0  0  0
  -24.1489  -36.7305   23.2637 C   0  0  0  0  0  0
  -25.9481  -30.8076   21.3768 C   0  0  0  0  0  0
  -26.0195  -29.4400   20.7183 C   0  0  0  0  0  0
  -27.2022  -28.6523   20.7113 C   0  0  0  0  0  0
  -26.0373  -26.9421   19.4469 C   0  0  0  0  0  0
  -24.8619  -27.7111   19.4717 C   0  0  0  0  0  0
  -23.6210  -29.8325   20.1637 C   0  0  0  0  0  0
  -25.4112  -36.3100   24.0333 C   0  0  1  0  0  0
  -20.5874  -28.3677   23.1302 C   0  0  2  0  0  0
  -20.6769  -26.9409   22.5413 C   0  0  0  0  0  0
  -19.5746  -26.6386   21.5214 C   0  0  0  0  0  0
  -18.1925  -26.7927   22.1624 C   0  0  0  0  0  0
  -19.1529  -28.8846   23.2893 C   0  0  0  0  0  0
  -18.9454  -30.1450   23.8907 C   0  0  0  0  0  0
  -17.6455  -30.6586   24.0565 C   0  0  0  0  0  0
  -25.9043  -34.9467   23.5120 C   0  0  0  0  0  0
  -16.5346  -29.9086   23.6329 C   0  0  0  0  0  0
  -16.7267  -28.6503   23.0351 C   0  0  0  0  0  0
  -26.4487  -31.6598   25.0740 C   0  0  0  0  0  0
  -25.3737  -31.3716   26.1477 C   0  0  0  0  0  0
  -27.0324  -30.3029   24.6162 C   0  0  0  0  0  0
  -27.6055  -32.4327   25.7502 C   0  0  0  0  0  0
  -27.5581  -37.1810   24.8467 C   0  0  0  0  0  0
  -21.4163  -29.3040   22.3706 N   0  0  0  0  0  0
  -26.4296  -37.3788   23.9406 N   0  0  0  0  0  0
  -24.6780  -31.0703   22.1026 N   0  0  0  0  0  0
  -23.4192  -28.8180   23.3018 O   0  0  0  0  0  0
  -28.3711  -26.5765   20.1505 O   0  0  0  0  0  0
  -26.5603  -34.8923   22.4681 O   0  0  0  0  0  0
  -23.5383  -32.1432   23.7449 O   0  0  0  0  0  0
  -30.5728  -17.9214   20.4423 C   0  0  0  0  0  0
  -28.6169  -17.4663   21.2454 C   0  0  0  0  0  0
  -29.7403  -19.0143   20.2341 C   0  0  0  0  0  0
  -31.1733  -24.3901   17.9920 C   0  0  0  0  0  0
  -29.3199  -20.2023   18.0863 C   0  0  0  0  0  0
  -30.2732  -15.6112   21.6405 C   0  0  0  0  0  0
  -31.0584  -23.1362   18.8727 C   0  0  0  0  0  0
  -29.2363  -24.1471   20.3744 C   0  0  0  0  0  0
  -28.3342  -25.2051   19.6460 C   0  0  0  0  0  0
  -29.9967  -20.3176   19.4691 C   0  0  1  0  0  0
  -29.6534  -22.8952   19.4994 C   0  0  2  0  0  0
  -28.4885  -18.7076   20.7691 N   0  0  0  0  0  0
  -29.8347  -16.9202   21.0956 N   0  0  0  0  0  0
  -29.5859  -21.5604   20.2165 N   0  3  0  0  0  0
  -31.4658  -12.4581   19.1188 H   0  0  0  0  0  0
  -30.3381  -11.3430   19.8256 H   0  0  0  0  0  0
  -29.7457  -11.8075   17.4315 H   0  0  0  0  0  0
  -29.6469  -13.5183   17.7709 H   0  0  0  0  0  0
  -27.8441  -11.3123   18.8260 H   0  0  0  0  0  0
  -27.3625  -12.6315   17.7916 H   0  0  0  0  0  0
  -27.7021  -14.2605   19.5748 H   0  0  0  0  0  0
  -28.6954  -11.9680   21.3276 H   0  0  0  0  0  0
  -28.4245  -13.5829   21.8745 H   0  0  0  0  0  0
  -25.2769   -9.5678   22.4758 H   0  0  0  0  0  0
  -24.0006   -7.4630   22.7466 H   0  0  0  0  0  0
  -21.0848   -8.8784   19.8948 H   0  0  0  0  0  0
  -22.3711  -10.9680   19.6167 H   0  0  0  0  0  0
  -21.2004   -7.6148   23.9719 H   0  0  0  0  0  0
  -21.1483   -6.0523   25.9081 H   0  0  0  0  0  0
  -22.0598   -2.7610   23.2849 H   0  0  0  0  0  0
  -22.4112  -11.9888   22.4795 H   0  0  0  0  0  0
  -21.1122  -13.1258   22.2604 H   0  0  0  0  0  0
  -24.6582  -15.8397   20.4952 H   0  0  0  0  0  0
  -26.2681  -15.6167   20.0341 H   0  0  0  0  0  0
  -26.7147  -32.5492   23.1144 H   0  0  0  0  0  0
  -25.0086  -33.9764   25.0472 H   0  0  0  0  0  0
  -22.7016  -31.3110   21.4140 H   0  0  0  0  0  0
  -23.3749  -35.9640   23.3309 H   0  0  0  0  0  0
  -24.3582  -36.8912   22.2050 H   0  0  0  0  0  0
  -23.7243  -37.6513   23.6647 H   0  0  0  0  0  0
  -26.0762  -31.5739   20.6111 H   0  0  0  0  0  0
  -26.8307  -30.8532   22.0030 H   0  0  0  0  0  0
  -28.0953  -29.0154   21.2007 H   0  0  0  0  0  0
  -25.9720  -26.0130   18.9043 H   0  0  0  0  0  0
  -23.9711  -27.3418   18.9822 H   0  0  0  0  0  0
  -23.7362  -30.6117   19.4095 H   0  0  0  0  0  0
  -22.7419  -29.2600   19.8621 H   0  0  0  0  0  0
  -25.1290  -36.1964   25.0826 H   0  0  0  0  0  0
  -20.9964  -28.3245   24.1423 H   0  0  0  0  0  0
  -20.5678  -26.2285   23.3604 H   0  0  0  0  0  0
  -21.6639  -26.7452   22.1202 H   0  0  0  0  0  0
  -19.6909  -25.6298   21.1239 H   0  0  0  0  0  0
  -19.6685  -27.3200   20.6746 H   0  0  0  0  0  0
  -17.4196  -26.6678   21.4025 H   0  0  0  0  0  0
  -18.0325  -26.0066   22.9018 H   0  0  0  0  0  0
  -19.7928  -30.7264   24.2282 H   0  0  0  0  0  0
  -17.5009  -31.6268   24.5163 H   0  0  0  0  0  0
  -15.5347  -30.2992   23.7647 H   0  0  0  0  0  0
  -15.8666  -28.0825   22.7062 H   0  0  0  0  0  0
  -24.5914  -30.7060   25.7812 H   0  0  0  0  0  0
  -24.8926  -32.2874   26.4920 H   0  0  0  0  0  0
  -25.8081  -30.8888   27.0240 H   0  0  0  0  0  0
  -26.2886  -29.6788   24.1195 H   0  0  0  0  0  0
  -27.4046  -29.7274   25.4648 H   0  0  0  0  0  0
  -27.8747  -30.4328   23.9362 H   0  0  0  0  0  0
  -27.2669  -33.3620   26.2096 H   0  0  0  0  0  0
  -28.3854  -32.6899   25.0322 H   0  0  0  0  0  0
  -28.0736  -31.8444   26.5405 H   0  0  0  0  0  0
  -28.2606  -38.0100   24.7508 H   0  0  0  0  0  0
  -28.1070  -36.2632   24.6301 H   0  0  0  0  0  0
  -27.2298  -37.1472   25.8870 H   0  0  0  0  0  0
  -20.9327  -29.8775   21.6937 H   0  0  0  0  0  0
  -26.0183  -38.2867   24.1400 H   0  0  0  0  0  0
  -31.6114  -17.7748   20.1738 H   0  0  0  0  0  0
  -27.8073  -16.9529   21.7466 H   0  0  0  0  0  0
  -32.1601  -24.4447   17.5313 H   0  0  0  0  0  0
  -31.0384  -25.3083   18.5639 H   0  0  0  0  0  0
  -30.4382  -24.3788   17.1865 H   0  0  0  0  0  0
  -29.6488  -19.2952   17.5787 H   0  0  0  0  0  0
  -29.5600  -21.0316   17.4233 H   0  0  0  0  0  0
  -28.2352  -20.1453   18.1789 H   0  0  0  0  0  0
  -29.5205  -15.2604   22.3396 H   0  0  0  0  0  0
  -31.1378  -15.8141   22.2724 H   0  0  0  0  0  0
  -31.8098  -23.1860   19.6621 H   0  0  0  0  0  0
  -31.3492  -22.2995   18.2403 H   0  0  0  0  0  0
  -28.7047  -23.8185   21.2679 H   0  0  0  0  0  0
  -30.1332  -24.6400   20.7504 H   0  0  0  0  0  0
  -27.3413  -24.7667   19.7096 H   0  0  0  0  0  0
  -28.5800  -25.2520   18.5852 H   0  0  0  0  0  0
  -31.0725  -20.3857   19.3058 H   0  0  0  0  0  0
  -28.9256  -22.8287   18.6899 H   0  0  0  0  0  0
  -30.1511  -21.5964   21.0490 H   0  0  0  0  0  0
  -28.6401  -21.3940   20.5228 H   0  0  0  0  0  0
  1 25  1  0  0  0
  1 30  2  0  0  0
  1 76  1  0  0  0
  2  3  1  0  0  0
  2 25  1  0  0  0
  2 85  1  0  0  0
  2 86  1  0  0  0
  3  4  1  0  0  0
  3 87  1  0  0  0
  3 88  1  0  0  0
  4  5  1  0  0  0
  4 89  1  0  0  0
  4 90  1  0  0  0
  5  6  1  0  0  0
  5 26  1  0  0  0
  5 91  1  0  0  0
  6 25  1  0  0  0
  6 92  1  0  0  0
  6 93  1  0  0  0
  7  8  2  0  0  0
  7 26  1  0  0  0
  7 29  1  0  0  0
  8  9  1  0  0  0
  8 22  1  0  0  0
  9 10  1  0  0  0
  9 27  2  0  0  0
 10 11  2  0  0  0
 10 15  1  0  0  0
 11 12  1  0  0  0
 11 94  1  0  0  0
 12 13  2  0  0  0
 12 95  1  0  0  0
 13 14  1  0  0  0
 13 31  1  0  0  0
 14 15  2  0  0  0
 14 96  1  0  0  0
 15 97  1  0  0  0
 16 17  2  0  0  0
 16 21  1  0  0  0
 16 31  1  0  0  0
 17 18  1  0  0  0
 17 98  1  0  0  0
 18 19  2  0  0  0
 18 99  1  0  0  0
 19 20  1  0  0  0
 19 24  1  0  0  0
 20 21  2  0  0  0
 20100  1  0  0  0
 21 23  1  0  0  0
 22 28  1  0  0  0
 22 32  2  0  0  0
 26 27  1  0  0  0
 28101  1  0  0  0
 28102  1  0  0  0
 29103  1  0  0  0
 29104  1  0  0  0
 33 34  1  0  0  0
 33 66  1  0  0  0
 33 70  2  0  0  0
 34 36  1  0  0  0
 34 59  1  0  0  0
 34105  1  0  0  0
 35 44  2  0  0  0
 35 45  1  0  0  0
 35 68  1  0  0  0
 36 56  1  0  0  0
 36106  1  0  0  0
 37 39  1  0  0  0
 37 47  1  0  0  0
 37 66  1  0  0  0
 37107  1  0  0  0
 38 43  2  0  0  0
 38 46  1  0  0  0
 38 47  1  0  0  0
 39 64  1  0  0  0
 39 67  2  0  0  0
 40 52  1  0  0  0
 40 53  2  0  0  0
 40 58  1  0  0  0
 41108  1  0  0  0
 41109  1  0  0  0
 41110  1  0  0  0
 41 48  1  0  0  0
 42 43  1  0  0  0
 42 66  1  0  0  0
 42111  1  0  0  0
 42112  1  0  0  0
 43 44  1  0  0  0
 44113  1  0  0  0
 45 46  2  0  0  0
 45114  1  0  0  0
 46115  1  0  0  0
 47116  1  0  0  0
 47117  1  0  0  0
 48 56  1  0  0  0
 48 65  1  0  0  0
 48118  1  0  0  0
 49 50  1  0  0  0
 49 53  1  0  0  0
 49 64  1  0  0  0
 49119  1  0  0  0
 50 51  1  0  0  0
 50120  1  0  0  0
 50121  1  0  0  0
 51 52  1  0  0  0
 51122  1  0  0  0
 51123  1  0  0  0
 52124  1  0  0  0
 52125  1  0  0  0
 53 54  1  0  0  0
 54 55  2  0  0  0
 54126  1  0  0  0
 55 57  1  0  0  0
 55127  1  0  0  0
 56 69  2  0  0  0
 57 58  2  0  0  0
 57128  1  0  0  0
 58129  1  0  0  0
 59 60  1  0  0  0
 59 61  1  0  0  0
 59 62  1  0  0  0
 60130  1  0  0  0
 60131  1  0  0  0
 60132  1  0  0  0
 61133  1  0  0  0
 61134  1  0  0  0
 61135  1  0  0  0
 62136  1  0  0  0
 62137  1  0  0  0
 62138  1  0  0  0
 63 65  1  0  0  0
 63139  1  0  0  0
 63140  1  0  0  0
 63141  1  0  0  0
 64142  1  0  0  0
 65143  1  0  0  0
 68 79  1  0  0  0
 71 73  2  0  0  0
 71 83  1  0  0  0
 71144  1  0  0  0
 72 82  2  0  0  0
 72 83  1  0  0  0
 72145  1  0  0  0
 73 80  1  0  0  0
 73 82  1  0  0  0
 74 77  1  0  0  0
 74146  1  0  0  0
 74147  1  0  0  0
 74148  1  0  0  0
 75149  1  0  0  0
 75150  1  0  0  0
 75151  1  0  0  0
 75 80  1  0  0  0
 76 83  1  0  0  0
 76152  1  0  0  0
 76153  1  0  0  0
 77154  1  0  0  0
 77155  1  0  0  0
 77 81  1  0  0  0
 78 79  1  0  0  0
 78 81  1  0  0  0
 78156  1  0  0  0
 78157  1  0  0  0
 79158  1  0  0  0
 79159  1  0  0  0
 80 84  1  0  0  0
 80160  1  0  0  0
 81 84  1  0  0  0
 81161  1  0  0  0
 84162  1  0  0  0
 84163  1  0  0  0
M  CHG  1  84   1
M  ISO  4   1 100  68 101  76 100  79 101
M  END
> <chiral flag>
0

> <version>
0

> <s_m_source_file>
/data/baiqing/PycharmProjects/Reinvent-master-3.2/result/LINK_invent/BTK/process_docking_weight1_custom_product_contain_oxygen_bond_distance_aromatic_linkinvent_7_9_3/rearranged_h_0195.sdf

> <i_m_source_file_index>
53

> <r_mmod_Potential_Energy-OPLS-2005>
-206.516632080078

> <r_mmod_Stretch_Energy-OPLS-2005>
57.2540092468262

> <r_mmod_Bend_Energy-OPLS-2005>
135.372756958008

> <r_mmod_Torsional_Energy-OPLS-2005>
190.171157836914

> <r_mmod_Improper_Torsional_Energy-OPLS-2005>
2.70637202262878

> <r_mmod_Van_der_Waal_Energy-OPLS-2005>
129.697052001953

> <r_mmod_Electrostatic_Energy-OPLS-2005>
-310.217529296875

> <r_mmod_Solvation_Energy-OPLS-2005>
-433.471343994141

> <b_mmod_Minimization_Converged-OPLS-2005>
0

> <r_mmod_RMS_Derivative-OPLS-2005>
0.402739316225052

$$$$
53
                    3D
 Structure written by MMmdl.
151159  0  0  1  0            999 V2000
  -30.6025  -14.7510   20.4296 C   0  0  0  0  0  0
  -30.4336  -12.4502   19.4971 C   0  0  0  0  0  0
  -29.5180  -12.5002   18.2533 C   0  0  0  0  0  0
  -28.0443  -12.3172   18.6637 C   0  0  0  0  0  0
  -27.6397  -13.2279   19.8513 C   0  0  2  0  0  0
  -28.6789  -13.1840   20.9932 C   0  0  0  0  0  0
  -25.2492  -13.8181   20.5696 C   0  0  0  0  0  0
  -24.1757  -13.0448   20.9204 C   0  0  0  0  0  0
  -24.6322  -11.6916   20.8730 C   0  0  0  0  0  0
  -23.8986  -10.4297   21.0402 C   0  0  0  0  0  0
  -24.3558   -9.4233   21.9187 C   0  0  0  0  0  0
  -23.6254   -8.2262   22.0765 C   0  0  0  0  0  0
  -22.4244   -8.0277   21.3556 C   0  0  0  0  0  0
  -21.9852   -9.0235   20.4663 C   0  0  0  0  0  0
  -22.7155  -10.2134   20.3061 C   0  0  0  0  0  0
  -21.6852   -6.0712   22.5272 C   0  0  0  0  0  0
  -21.4014   -6.5627   23.8197 C   0  0  0  0  0  0
  -21.3667   -5.6790   24.9172 C   0  0  0  0  0  0
  -21.6050   -4.3050   24.7228 C   0  0  0  0  0  0
  -21.8818   -3.8132   23.4346 C   0  0  0  0  0  0
  -21.9184   -4.6937   22.3402 C   0  0  0  0  0  0
  -22.7788  -13.5261   21.1857 C   0  0  0  0  0  0
  -22.1664   -4.2119   21.0978 F   0  0  0  0  0  0
  -21.5625   -3.4542   25.7741 F   0  0  0  0  0  0
  -29.9873  -13.5203   20.4176 N   0  0  0  0  0  0
  -26.2898  -12.9372   20.3261 N   0  0  0  0  0  0
  -25.9255  -11.6524   20.5720 N   0  0  0  0  0  0
  -22.0416  -12.8281   22.0425 N   0  0  0  0  0  0
  -25.4195  -15.1899   20.4111 N   0  0  0  0  0  0
  -31.7888  -14.8441   20.1016 O   0  0  0  0  0  0
  -21.6654   -6.8856   21.4227 O   0  0  0  0  0  0
  -22.3498  -14.5589   20.6730 O   0  0  0  0  0  0
  -24.6309  -31.8539   23.2018 C   0  0  0  0  0  0
  -25.9126  -32.4755   23.8367 C   0  0  1  0  0  0
  -27.2167  -27.2570   20.1240 C   0  0  0  0  0  0
  -25.5920  -33.8555   24.2286 N   0  0  0  0  0  0
  -23.4278  -30.4772   21.5430 C   0  0  2  0  0  0
  -24.8756  -28.9266   20.1093 C   0  0  0  0  0  0
  -22.7487  -29.4589   22.4908 C   0  0  0  0  0  0
  -18.0271  -28.1397   22.8461 C   0  0  0  0  0  0
  -24.1474  -36.7293   23.2639 C   0  0  0  0  0  0
  -25.9730  -30.7692   21.3800 C   0  0  0  0  0  0
  -26.0465  -29.3906   20.7228 C   0  0  0  0  0  0
  -27.2188  -28.5651   20.7223 C   0  0  0  0  0  0
  -26.0253  -26.8746   19.4669 C   0  0  0  0  0  0
  -24.8704  -27.6784   19.4713 C   0  0  0  0  0  0
  -23.6460  -29.8122   20.1592 C   0  0  0  0  0  0
  -25.4095  -36.3070   24.0333 C   0  0  1  0  0  0
  -20.5874  -28.3700   23.1265 C   0  0  2  0  0  0
  -20.6757  -26.9414   22.5406 C   0  0  0  0  0  0
  -19.5751  -26.6383   21.5196 C   0  0  0  0  0  0
  -18.1926  -26.7927   22.1603 C   0  0  0  0  0  0
  -19.1524  -28.8864   23.2859 C   0  0  0  0  0  0
  -18.9444  -30.1462   23.8893 C   0  0  0  0  0  0
  -17.6449  -30.6595   24.0550 C   0  0  0  0  0  0
  -25.9027  -34.9433   23.5109 C   0  0  0  0  0  0
  -16.5340  -29.9090   23.6336 C   0  0  0  0  0  0
  -16.7258  -28.6501   23.0355 C   0  0  0  0  0  0
  -26.4495  -31.6580   25.0756 C   0  0  0  0  0  0
  -25.3734  -31.3747   26.1491 C   0  0  0  0  0  0
  -27.0342  -30.2988   24.6280 C   0  0  0  0  0  0
  -27.6053  -32.4316   25.7548 C   0  0  0  0  0  0
  -27.5569  -37.1800   24.8459 C   0  0  0  0  0  0
  -21.4189  -29.3033   22.3641 N   0  0  0  0  0  0
  -26.4269  -37.3765   23.9410 N   0  0  0  0  0  0
  -24.6970  -31.0506   22.0996 N   0  0  0  0  0  0
  -23.4185  -28.8129   23.2998 O   0  0  0  0  0  0
  -28.3095  -26.3544   20.2015 O   0  0  0  0  0  0
  -26.5586  -34.8902   22.4677 O   0  0  0  0  0  0
  -23.5459  -32.1348   23.7318 O   0  0  0  0  0  0
  -29.6286  -18.9210   21.8869 C   0  0  0  0  0  0
  -29.6522  -18.6231   20.5451 C   0  0  0  0  0  0
  -29.1755  -20.9758   20.5074 C   0  0  0  0  0  0
  -30.5491  -24.1222   20.3603 C   0  0  0  0  0  0
  -30.0467  -17.2424   19.8836 C   0  0  0  0  0  0
  -28.1317  -24.8930   19.8656 C   0  0  0  0  0  0
  -29.0729  -23.7335   20.5013 C   0  0  2  0  0  0
  -29.3642  -19.8241   19.7906 N   0  0  0  0  0  0
  -28.9111  -22.3050   20.0087 N   0  0  0  0  0  0
  -29.8151  -15.8847   20.5457 N   0  0  0  0  0  0
  -29.3135  -20.6265   22.2295 S   0  0  0  0  0  0
  -31.4791  -12.5604   19.2000 H   0  0  0  0  0  0
  -30.3656  -11.4819   19.9952 H   0  0  0  0  0  0
  -29.8097  -11.7251   17.5436 H   0  0  0  0  0  0
  -29.6388  -13.4533   17.7346 H   0  0  0  0  0  0
  -27.9117  -11.2728   18.9469 H   0  0  0  0  0  0
  -27.3880  -12.4895   17.8104 H   0  0  0  0  0  0
  -27.6301  -14.2426   19.4546 H   0  0  0  0  0  0
  -28.7047  -12.2001   21.4633 H   0  0  0  0  0  0
  -28.4057  -13.8888   21.7788 H   0  0  0  0  0  0
  -25.2683   -9.5753   22.4774 H   0  0  0  0  0  0
  -23.9974   -7.4662   22.7487 H   0  0  0  0  0  0
  -21.0779   -8.8722   19.8971 H   0  0  0  0  0  0
  -22.3552  -10.9674   19.6190 H   0  0  0  0  0  0
  -21.2020   -7.6140   23.9687 H   0  0  0  0  0  0
  -21.1495   -6.0535   25.9073 H   0  0  0  0  0  0
  -22.0582   -2.7585   23.2856 H   0  0  0  0  0  0
  -22.3969  -11.9930   22.4842 H   0  0  0  0  0  0
  -21.1059  -13.1385   22.2650 H   0  0  0  0  0  0
  -24.6522  -15.8455   20.5158 H   0  0  0  0  0  0
  -26.2625  -15.6241   20.0588 H   0  0  0  0  0  0
  -26.7196  -32.5418   23.1108 H   0  0  0  0  0  0
  -25.0093  -33.9703   25.0455 H   0  0  0  0  0  0
  -22.7242  -31.2994   21.3973 H   0  0  0  0  0  0
  -23.3728  -35.9634   23.3292 H   0  0  0  0  0  0
  -24.3557  -36.8924   22.2055 H   0  0  0  0  0  0
  -23.7236  -37.6501   23.6657 H   0  0  0  0  0  0
  -26.1023  -31.5293   20.6082 H   0  0  0  0  0  0
  -26.8548  -30.8283   22.0071 H   0  0  0  0  0  0
  -28.1118  -28.9094   21.2261 H   0  0  0  0  0  0
  -25.9511  -25.9288   18.9530 H   0  0  0  0  0  0
  -23.9738  -27.3249   18.9803 H   0  0  0  0  0  0
  -23.7639  -30.5877   19.4013 H   0  0  0  0  0  0
  -22.7661  -29.2393   19.8605 H   0  0  0  0  0  0
  -25.1270  -36.1921   25.0824 H   0  0  0  0  0  0
  -20.9961  -28.3282   24.1395 H   0  0  0  0  0  0
  -20.5624  -26.2321   23.3614 H   0  0  0  0  0  0
  -21.6632  -26.7413   22.1237 H   0  0  0  0  0  0
  -19.6913  -25.6287   21.1257 H   0  0  0  0  0  0
  -19.6712  -27.3166   20.6709 H   0  0  0  0  0  0
  -17.4191  -26.6650   21.4013 H   0  0  0  0  0  0
  -18.0333  -26.0083   22.9022 H   0  0  0  0  0  0
  -19.7921  -30.7258   24.2284 H   0  0  0  0  0  0
  -17.5005  -31.6278   24.5142 H   0  0  0  0  0  0
  -15.5342  -30.2994   23.7669 H   0  0  0  0  0  0
  -15.8645  -28.0822   22.7101 H   0  0  0  0  0  0
  -24.5952  -30.7015   25.7874 H   0  0  0  0  0  0
  -24.8870  -32.2917   26.4828 H   0  0  0  0  0  0
  -25.8081  -30.9042   27.0323 H   0  0  0  0  0  0
  -26.2951  -29.6745   24.1250 H   0  0  0  0  0  0
  -27.3925  -29.7239   25.4831 H   0  0  0  0  0  0
  -27.8864  -30.4223   23.9594 H   0  0  0  0  0  0
  -27.2667  -33.3638   26.2078 H   0  0  0  0  0  0
  -28.3915  -32.6835   25.0418 H   0  0  0  0  0  0
  -28.0658  -31.8465   26.5517 H   0  0  0  0  0  0
  -28.2579  -38.0101   24.7481 H   0  0  0  0  0  0
  -28.1066  -36.2629   24.6292 H   0  0  0  0  0  0
  -27.2285  -37.1466   25.8861 H   0  0  0  0  0  0
  -20.9368  -29.8777   21.6868 H   0  0  0  0  0  0
  -26.0153  -38.2842   24.1414 H   0  0  0  0  0  0
  -29.8248  -18.2409   22.7055 H   0  0  0  0  0  0
  -30.8570  -24.1274   19.3139 H   0  0  0  0  0  0
  -31.1939  -23.4217   20.8928 H   0  0  0  0  0  0
  -30.7385  -25.1181   20.7668 H   0  0  0  0  0  0
  -31.1012  -17.3014   19.6125 H   0  0  0  0  0  0
  -29.5421  -17.1746   18.9177 H   0  0  0  0  0  0
  -27.1181  -24.5911   20.1263 H   0  0  0  0  0  0
  -28.1936  -24.8214   18.7789 H   0  0  0  0  0  0
  -28.8542  -23.7044   21.5687 H   0  0  0  0  0  0
  -28.7668  -22.2827   19.0034 H   0  0  0  0  0  0
  -28.8617  -15.7131   20.8264 H   0  0  0  0  0  0
  1 25  1  0  0  0
  1 30  2  0  0  0
  1 80  1  0  0  0
  2  3  1  0  0  0
  2 25  1  0  0  0
  2 82  1  0  0  0
  2 83  1  0  0  0
  3  4  1  0  0  0
  3 84  1  0  0  0
  3 85  1  0  0  0
  4  5  1  0  0  0
  4 86  1  0  0  0
  4 87  1  0  0  0
  5  6  1  0  0  0
  5 26  1  0  0  0
  5 88  1  0  0  0
  6 25  1  0  0  0
  6 89  1  0  0  0
  6 90  1  0  0  0
  7  8  2  0  0  0
  7 26  1  0  0  0
  7 29  1  0  0  0
  8  9  1  0  0  0
  8 22  1  0  0  0
  9 10  1  0  0  0
  9 27  2  0  0  0
 10 11  2  0  0  0
 10 15  1  0  0  0
 11 12  1  0  0  0
 11 91  1  0  0  0
 12 13  2  0  0  0
 12 92  1  0  0  0
 13 14  1  0  0  0
 13 31  1  0  0  0
 14 15  2  0  0  0
 14 93  1  0  0  0
 15 94  1  0  0  0
 16 17  2  0  0  0
 16 21  1  0  0  0
 16 31  1  0  0  0
 17 18  1  0  0  0
 17 95  1  0  0  0
 18 19  2  0  0  0
 18 96  1  0  0  0
 19 20  1  0  0  0
 19 24  1  0  0  0
 20 21  2  0  0  0
 20 97  1  0  0  0
 21 23  1  0  0  0
 22 28  1  0  0  0
 22 32  2  0  0  0
 26 27  1  0  0  0
 28 98  1  0  0  0
 28 99  1  0  0  0
 29100  1  0  0  0
 29101  1  0  0  0
 33 34  1  0  0  0
 33 66  1  0  0  0
 33 70  2  0  0  0
 34 36  1  0  0  0
 34 59  1  0  0  0
 34102  1  0  0  0
 35 44  2  0  0  0
 35 45  1  0  0  0
 35 68  1  0  0  0
 36 56  1  0  0  0
 36103  1  0  0  0
 37 39  1  0  0  0
 37 47  1  0  0  0
 37 66  1  0  0  0
 37104  1  0  0  0
 38 43  2  0  0  0
 38 46  1  0  0  0
 38 47  1  0  0  0
 39 64  1  0  0  0
 39 67  2  0  0  0
 40 52  1  0  0  0
 40 53  2  0  0  0
 40 58  1  0  0  0
 41105  1  0  0  0
 41106  1  0  0  0
 41107  1  0  0  0
 41 48  1  0  0  0
 42 43  1  0  0  0
 42 66  1  0  0  0
 42108  1  0  0  0
 42109  1  0  0  0
 43 44  1  0  0  0
 44110  1  0  0  0
 45 46  2  0  0  0
 45111  1  0  0  0
 46112  1  0  0  0
 47113  1  0  0  0
 47114  1  0  0  0
 48 56  1  0  0  0
 48 65  1  0  0  0
 48115  1  0  0  0
 49 50  1  0  0  0
 49 53  1  0  0  0
 49 64  1  0  0  0
 49116  1  0  0  0
 50 51  1  0  0  0
 50117  1  0  0  0
 50118  1  0  0  0
 51 52  1  0  0  0
 51119  1  0  0  0
 51120  1  0  0  0
 52121  1  0  0  0
 52122  1  0  0  0
 53 54  1  0  0  0
 54 55  2  0  0  0
 54123  1  0  0  0
 55 57  1  0  0  0
 55124  1  0  0  0
 56 69  2  0  0  0
 57 58  2  0  0  0
 57125  1  0  0  0
 58126  1  0  0  0
 59 60  1  0  0  0
 59 61  1  0  0  0
 59 62  1  0  0  0
 60127  1  0  0  0
 60128  1  0  0  0
 60129  1  0  0  0
 61130  1  0  0  0
 61131  1  0  0  0
 61132  1  0  0  0
 62133  1  0  0  0
 62134  1  0  0  0
 62135  1  0  0  0
 63 65  1  0  0  0
 63136  1  0  0  0
 63137  1  0  0  0
 63138  1  0  0  0
 64139  1  0  0  0
 65140  1  0  0  0
 68 76  1  0  0  0
 71 72  2  0  0  0
 71 81  1  0  0  0
 71141  1  0  0  0
 72 75  1  0  0  0
 72 78  1  0  0  0
 73 78  2  0  0  0
 73 79  1  0  0  0
 73 81  1  0  0  0
 74142  1  0  0  0
 74143  1  0  0  0
 74144  1  0  0  0
 74 77  1  0  0  0
 75 80  1  0  0  0
 75145  1  0  0  0
 75146  1  0  0  0
 76 77  1  0  0  0
 76147  1  0  0  0
 76148  1  0  0  0
 77 79  1  0  0  0
 77149  1  0  0  0
 79150  1  0  0  0
 80151  1  0  0  0
M  ISO  4   1 100  68 101  76 101  80 100
M  END
> <chiral flag>
0

> <version>
0

> <s_m_source_file>
/data/baiqing/PycharmProjects/Reinvent-master-3.2/result/LINK_invent/BTK/process_docking_weight1_custom_product_contain_oxygen_bond_distance_aromatic_linkinvent_7_9_3/rearranged_h_0195.sdf

> <i_m_source_file_index>
54

> <r_mmod_Potential_Energy-OPLS-2005>
-63.6308898925781

> <r_mmod_Stretch_Energy-OPLS-2005>
112.845932006836

> <r_mmod_Bend_Energy-OPLS-2005>
154.699172973633

> <r_mmod_Torsional_Energy-OPLS-2005>
202.36003112793

> <r_mmod_Improper_Torsional_Energy-OPLS-2005>
8.60605049133301

> <r_mmod_Van_der_Waal_Energy-OPLS-2005>
117.511474609375

> <r_mmod_Electrostatic_Energy-OPLS-2005>
-522.124816894531

> <r_mmod_Solvation_Energy-OPLS-2005>
-228.599380493164

> <b_mmod_Minimization_Converged-OPLS-2005>
0

> <r_mmod_RMS_Derivative-OPLS-2005>
3.21932816505432

$$$$
54
                    3D
 Structure written by MMmdl.
154162  0  0  1  0            999 V2000
  -30.5973  -14.7316   20.4673 C   0  0  0  0  0  0
  -30.4342  -12.4421   19.4825 C   0  0  0  0  0  0
  -29.5135  -12.5147   18.2426 C   0  0  0  0  0  0
  -28.0377  -12.3410   18.6492 C   0  0  0  0  0  0
  -27.6465  -13.2304   19.8593 C   0  0  2  0  0  0
  -28.6865  -13.1351   20.9990 C   0  0  0  0  0  0
  -25.2522  -13.8201   20.5687 C   0  0  0  0  0  0
  -24.1801  -13.0450   20.9195 C   0  0  0  0  0  0
  -24.6389  -11.6922   20.8731 C   0  0  0  0  0  0
  -23.9060  -10.4300   21.0399 C   0  0  0  0  0  0
  -24.3614   -9.4217   21.9179 C   0  0  0  0  0  0
  -23.6294   -8.2251   22.0751 C   0  0  0  0  0  0
  -22.4276   -8.0283   21.3544 C   0  0  0  0  0  0
  -21.9910   -9.0252   20.4643 C   0  0  0  0  0  0
  -22.7232  -10.2133   20.3052 C   0  0  0  0  0  0
  -21.6855   -6.0734   22.5278 C   0  0  0  0  0  0
  -21.4019   -6.5637   23.8211 C   0  0  0  0  0  0
  -21.3656   -5.6787   24.9174 C   0  0  0  0  0  0
  -21.6044   -4.3048   24.7225 C   0  0  0  0  0  0
  -21.8815   -3.8143   23.4345 C   0  0  0  0  0  0
  -21.9197   -4.6963   22.3404 C   0  0  0  0  0  0
  -22.7827  -13.5234   21.1858 C   0  0  0  0  0  0
  -22.1663   -4.2151   21.0980 F   0  0  0  0  0  0
  -21.5628   -3.4530   25.7735 F   0  0  0  0  0  0
  -29.9965  -13.4897   20.4365 N   0  0  0  0  0  0
  -26.2949  -12.9404   20.3286 N   0  0  0  0  0  0
  -25.9320  -11.6548   20.5740 N   0  0  0  0  0  0
  -22.0468  -12.8229   22.0413 N   0  0  0  0  0  0
  -25.4245  -15.1919   20.4116 N   0  0  0  0  0  0
  -31.7573  -14.8540   20.0560 O   0  0  0  0  0  0
  -21.6640   -6.8875   21.4241 O   0  0  0  0  0  0
  -22.3516  -14.5545   20.6706 O   0  0  0  0  0  0
  -24.6324  -31.8551   23.1993 C   0  0  0  0  0  0
  -25.9156  -32.4755   23.8329 C   0  0  1  0  0  0
  -27.2118  -27.2556   20.1285 C   0  0  0  0  0  0
  -25.5947  -33.8558   24.2249 N   0  0  0  0  0  0
  -23.4277  -30.4802   21.5442 C   0  0  2  0  0  0
  -24.8731  -28.9323   20.1061 C   0  0  0  0  0  0
  -22.7495  -29.4606   22.4910 C   0  0  0  0  0  0
  -18.0296  -28.1385   22.8492 C   0  0  0  0  0  0
  -24.1493  -36.7288   23.2639 C   0  0  0  0  0  0
  -25.9754  -30.7670   21.3799 C   0  0  0  0  0  0
  -26.0466  -29.3912   20.7182 C   0  0  0  0  0  0
  -27.2194  -28.5670   20.7173 C   0  0  0  0  0  0
  -26.0163  -26.8761   19.4740 C   0  0  0  0  0  0
  -24.8650  -27.6839   19.4700 C   0  0  0  0  0  0
  -23.6440  -29.8189   20.1581 C   0  0  0  0  0  0
  -25.4119  -36.3068   24.0323 C   0  0  1  0  0  0
  -20.5891  -28.3704   23.1261 C   0  0  2  0  0  0
  -20.6781  -26.9416   22.5416 C   0  0  0  0  0  0
  -19.5753  -26.6365   21.5235 C   0  0  0  0  0  0
  -18.1935  -26.7915   22.1650 C   0  0  0  0  0  0
  -19.1547  -28.8858   23.2875 C   0  0  0  0  0  0
  -18.9467  -30.1460   23.8894 C   0  0  0  0  0  0
  -17.6465  -30.6582   24.0559 C   0  0  0  0  0  0
  -25.9059  -34.9439   23.5084 C   0  0  0  0  0  0
  -16.5357  -29.9073   23.6346 C   0  0  0  0  0  0
  -16.7285  -28.6495   23.0371 C   0  0  0  0  0  0
  -26.4510  -31.6587   25.0729 C   0  0  0  0  0  0
  -25.3724  -31.3748   26.1444 C   0  0  0  0  0  0
  -27.0356  -30.2997   24.6231 C   0  0  0  0  0  0
  -27.6046  -32.4340   25.7513 C   0  0  0  0  0  0
  -27.5578  -37.1799   24.8466 C   0  0  0  0  0  0
  -21.4197  -29.3057   22.3656 N   0  0  0  0  0  0
  -26.4294  -37.3765   23.9401 N   0  0  0  0  0  0
  -24.6977  -31.0514   22.0972 N   0  0  0  0  0  0
  -23.4197  -28.8133   23.2999 O   0  0  0  0  0  0
  -28.2900  -26.3372   20.2095 O   0  0  0  0  0  0
  -26.5633  -34.8917   22.4653 O   0  0  0  0  0  0
  -23.5473  -32.1384   23.7282 O   0  0  0  0  0  0
  -29.6973  -18.4160   20.8683 C   0  0  0  0  0  0
  -29.6028  -17.1172   20.2292 C   0  0  0  0  0  0
  -29.2815  -19.6116   20.1749 C   0  0  0  0  0  0
  -28.7010  -18.2558   18.4174 C   0  0  0  0  0  0
  -28.0558  -18.1508   17.0525 C   0  0  0  0  0  0
  -28.6503  -22.1556   20.0176 C   0  0  0  0  0  0
  -27.9974  -24.8665   20.0369 C   0  0  0  0  0  0
  -28.9665  -23.6595   20.5349 C   0  0  1  0  0  0
  -29.0830  -17.1111   18.9841 N   0  0  0  0  0  0
  -28.7794  -19.4766   18.9418 N   0  0  0  0  0  0
  -29.8617  -15.8248   20.8971 N   0  0  0  0  0  0
  -29.3506  -20.9699   20.6605 N   0  0  0  0  0  0
  -28.8529  -23.5752   21.9457 O   0  0  0  0  0  0
  -31.4763  -12.5634   19.1818 H   0  0  0  0  0  0
  -30.3755  -11.4580   19.9497 H   0  0  0  0  0  0
  -29.7940  -11.7500   17.5167 H   0  0  0  0  0  0
  -29.6455  -13.4756   17.7411 H   0  0  0  0  0  0
  -27.8869  -11.2903   18.8994 H   0  0  0  0  0  0
  -27.3842  -12.5462   17.8002 H   0  0  0  0  0  0
  -27.6511  -14.2580   19.4947 H   0  0  0  0  0  0
  -28.7121  -12.1247   21.4113 H   0  0  0  0  0  0
  -28.4160  -13.7912   21.8274 H   0  0  0  0  0  0
  -25.2759   -9.5695   22.4751 H   0  0  0  0  0  0
  -24.0002   -7.4642   22.7468 H   0  0  0  0  0  0
  -21.0844   -8.8764   19.8948 H   0  0  0  0  0  0
  -22.3689  -10.9668   19.6157 H   0  0  0  0  0  0
  -21.2011   -7.6145   23.9718 H   0  0  0  0  0  0
  -21.1483   -6.0516   25.9075 H   0  0  0  0  0  0
  -22.0601   -2.7609   23.2844 H   0  0  0  0  0  0
  -22.4093  -11.9898   22.4804 H   0  0  0  0  0  0
  -21.1082  -13.1247   22.2605 H   0  0  0  0  0  0
  -24.6562  -15.8452   20.5158 H   0  0  0  0  0  0
  -26.2688  -15.6247   20.0591 H   0  0  0  0  0  0
  -26.7219  -32.5396   23.1068 H   0  0  0  0  0  0
  -25.0083  -33.9695   25.0387 H   0  0  0  0  0  0
  -22.7257  -31.3045   21.4005 H   0  0  0  0  0  0
  -23.3753  -35.9625   23.3300 H   0  0  0  0  0  0
  -24.3579  -36.8916   22.2053 H   0  0  0  0  0  0
  -23.7260  -37.6493   23.6668 H   0  0  0  0  0  0
  -26.1179  -31.5286   20.6119 H   0  0  0  0  0  0
  -26.8523  -30.8110   22.0147 H   0  0  0  0  0  0
  -28.1149  -28.9115   21.2149 H   0  0  0  0  0  0
  -25.9326  -25.9251   18.9708 H   0  0  0  0  0  0
  -23.9699  -27.3287   18.9775 H   0  0  0  0  0  0
  -23.7640  -30.5989   19.4049 H   0  0  0  0  0  0
  -22.7608  -29.2525   19.8549 H   0  0  0  0  0  0
  -25.1301  -36.1906   25.0817 H   0  0  0  0  0  0
  -20.9984  -28.3299   24.1383 H   0  0  0  0  0  0
  -20.5683  -26.2318   23.3633 H   0  0  0  0  0  0
  -21.6654  -26.7442   22.1220 H   0  0  0  0  0  0
  -19.6924  -25.6270   21.1268 H   0  0  0  0  0  0
  -19.6682  -27.3167   20.6765 H   0  0  0  0  0  0
  -17.4207  -26.6655   21.4050 H   0  0  0  0  0  0
  -18.0316  -26.0085   22.9075 H   0  0  0  0  0  0
  -19.7934  -30.7283   24.2268 H   0  0  0  0  0  0
  -17.5026  -31.6273   24.5142 H   0  0  0  0  0  0
  -15.5359  -30.2986   23.7671 H   0  0  0  0  0  0
  -15.8688  -28.0802   22.7104 H   0  0  0  0  0  0
  -24.5898  -30.7103   25.7771 H   0  0  0  0  0  0
  -24.8927  -32.2922   26.4853 H   0  0  0  0  0  0
  -25.8032  -30.8931   27.0231 H   0  0  0  0  0  0
  -26.2942  -29.6748   24.1240 H   0  0  0  0  0  0
  -27.4005  -29.7263   25.4763 H   0  0  0  0  0  0
  -27.8835  -30.4262   23.9501 H   0  0  0  0  0  0
  -27.2630  -33.3636   26.2079 H   0  0  0  0  0  0
  -28.3864  -32.6913   25.0357 H   0  0  0  0  0  0
  -28.0710  -31.8484   26.5447 H   0  0  0  0  0  0
  -28.2591  -38.0098   24.7494 H   0  0  0  0  0  0
  -28.1074  -36.2622   24.6305 H   0  0  0  0  0  0
  -27.2292  -37.1467   25.8870 H   0  0  0  0  0  0
  -20.9366  -29.8795   21.6886 H   0  0  0  0  0  0
  -26.0168  -38.2840   24.1392 H   0  0  0  0  0  0
  -30.0793  -18.4850   21.8771 H   0  0  0  0  0  0
  -28.5376  -17.3820   16.4489 H   0  0  0  0  0  0
  -28.1212  -19.0942   16.5097 H   0  0  0  0  0  0
  -27.0023  -17.8929   17.1575 H   0  0  0  0  0  0
  -27.5783  -21.9778   20.1139 H   0  0  0  0  0  0
  -28.8497  -22.1255   18.9450 H   0  0  0  0  0  0
  -27.0227  -24.6588   20.4811 H   0  0  0  0  0  0
  -27.8651  -24.7205   18.9639 H   0  0  0  0  0  0
  -29.9965  -23.9090   20.2773 H   0  0  0  0  0  0
  -29.0868  -15.5410   21.4747 H   0  0  0  0  0  0
  -29.6614  -21.1189   21.6153 H   0  0  0  0  0  0
  -29.0481  -24.4410   22.2921 H   0  0  0  0  0  0
  1 25  1  0  0  0
  1 30  2  0  0  0
  1 81  1  0  0  0
  2  3  1  0  0  0
  2 25  1  0  0  0
  2 84  1  0  0  0
  2 85  1  0  0  0
  3  4  1  0  0  0
  3 86  1  0  0  0
  3 87  1  0  0  0
  4  5  1  0  0  0
  4 88  1  0  0  0
  4 89  1  0  0  0
  5  6  1  0  0  0
  5 26  1  0  0  0
  5 90  1  0  0  0
  6 25  1  0  0  0
  6 91  1  0  0  0
  6 92  1  0  0  0
  7  8  2  0  0  0
  7 26  1  0  0  0
  7 29  1  0  0  0
  8  9  1  0  0  0
  8 22  1  0  0  0
  9 10  1  0  0  0
  9 27  2  0  0  0
 10 11  2  0  0  0
 10 15  1  0  0  0
 11 12  1  0  0  0
 11 93  1  0  0  0
 12 13  2  0  0  0
 12 94  1  0  0  0
 13 14  1  0  0  0
 13 31  1  0  0  0
 14 15  2  0  0  0
 14 95  1  0  0  0
 15 96  1  0  0  0
 16 17  2  0  0  0
 16 21  1  0  0  0
 16 31  1  0  0  0
 17 18  1  0  0  0
 17 97  1  0  0  0
 18 19  2  0  0  0
 18 98  1  0  0  0
 19 20  1  0  0  0
 19 24  1  0  0  0
 20 21  2  0  0  0
 20 99  1  0  0  0
 21 23  1  0  0  0
 22 28  1  0  0  0
 22 32  2  0  0  0
 26 27  1  0  0  0
 28100  1  0  0  0
 28101  1  0  0  0
 29102  1  0  0  0
 29103  1  0  0  0
 33 34  1  0  0  0
 33 66  1  0  0  0
 33 70  2  0  0  0
 34 36  1  0  0  0
 34 59  1  0  0  0
 34104  1  0  0  0
 35 44  2  0  0  0
 35 45  1  0  0  0
 35 68  1  0  0  0
 36 56  1  0  0  0
 36105  1  0  0  0
 37 39  1  0  0  0
 37 47  1  0  0  0
 37 66  1  0  0  0
 37106  1  0  0  0
 38 43  2  0  0  0
 38 46  1  0  0  0
 38 47  1  0  0  0
 39 64  1  0  0  0
 39 67  2  0  0  0
 40 52  1  0  0  0
 40 53  2  0  0  0
 40 58  1  0  0  0
 41107  1  0  0  0
 41108  1  0  0  0
 41109  1  0  0  0
 41 48  1  0  0  0
 42 43  1  0  0  0
 42 66  1  0  0  0
 42110  1  0  0  0
 42111  1  0  0  0
 43 44  1  0  0  0
 44112  1  0  0  0
 45 46  2  0  0  0
 45113  1  0  0  0
 46114  1  0  0  0
 47115  1  0  0  0
 47116  1  0  0  0
 48 56  1  0  0  0
 48 65  1  0  0  0
 48117  1  0  0  0
 49 50  1  0  0  0
 49 53  1  0  0  0
 49 64  1  0  0  0
 49118  1  0  0  0
 50 51  1  0  0  0
 50119  1  0  0  0
 50120  1  0  0  0
 51 52  1  0  0  0
 51121  1  0  0  0
 51122  1  0  0  0
 52123  1  0  0  0
 52124  1  0  0  0
 53 54  1  0  0  0
 54 55  2  0  0  0
 54125  1  0  0  0
 55 57  1  0  0  0
 55126  1  0  0  0
 56 69  2  0  0  0
 57 58  2  0  0  0
 57127  1  0  0  0
 58128  1  0  0  0
 59 60  1  0  0  0
 59 61  1  0  0  0
 59 62  1  0  0  0
 60129  1  0  0  0
 60130  1  0  0  0
 60131  1  0  0  0
 61132  1  0  0  0
 61133  1  0  0  0
 61134  1  0  0  0
 62135  1  0  0  0
 62136  1  0  0  0
 62137  1  0  0  0
 63 65  1  0  0  0
 63138  1  0  0  0
 63139  1  0  0  0
 63140  1  0  0  0
 64141  1  0  0  0
 65142  1  0  0  0
 68 77  1  0  0  0
 71 72  2  0  0  0
 71 73  1  0  0  0
 71143  1  0  0  0
 72 79  1  0  0  0
 72 81  1  0  0  0
 73 80  2  0  0  0
 73 82  1  0  0  0
 74 75  1  0  0  0
 74 79  2  0  0  0
 74 80  1  0  0  0
 75144  1  0  0  0
 75145  1  0  0  0
 75146  1  0  0  0
 76 78  1  0  0  0
 76 82  1  0  0  0
 76147  1  0  0  0
 76148  1  0  0  0
 77 78  1  0  0  0
 77149  1  0  0  0
 77150  1  0  0  0
 78 83  1  0  0  0
 78151  1  0  0  0
 81152  1  0  0  0
 82153  1  0  0  0
 83154  1  0  0  0
M  ISO  4   1 100  68 101  77 101  81 100
M  END
> <chiral flag>
0

> <version>
0

> <s_m_source_file>
/data/baiqing/PycharmProjects/Reinvent-master-3.2/result/LINK_invent/BTK/process_docking_weight1_custom_product_contain_oxygen_bond_distance_aromatic_linkinvent_7_9_3/rearranged_h_0195.sdf

> <i_m_source_file_index>
55

> <r_mmod_Potential_Energy-OPLS-2005>
-377.650939941406

> <r_mmod_Stretch_Energy-OPLS-2005>
114.436836242676

> <r_mmod_Bend_Energy-OPLS-2005>
171.125396728516

> <r_mmod_Torsional_Energy-OPLS-2005>
264.447937011719

> <r_mmod_Improper_Torsional_Energy-OPLS-2005>
6.43010234832764

> <r_mmod_Van_der_Waal_Energy-OPLS-2005>
148.98698425293

> <r_mmod_Electrostatic_Energy-OPLS-2005>
-911.522827148438

> <r_mmod_Solvation_Energy-OPLS-2005>
-256.376983642578

> <b_mmod_Minimization_Converged-OPLS-2005>
0

> <r_mmod_RMS_Derivative-OPLS-2005>
1.43289983272552

$$$$
55
                    3D
 Structure written by MMmdl.
156164  0  0  1  0            999 V2000
  -30.6769  -14.5355   20.5676 C   0  0  0  0  0  0
  -30.4345  -12.3392   19.4558 C   0  0  0  0  0  0
  -29.5153  -12.5311   18.2285 C   0  0  0  0  0  0
  -28.0293  -12.3953   18.6193 C   0  0  0  0  0  0
  -27.6674  -13.2197   19.8855 C   0  0  2  0  0  0
  -28.7056  -13.0116   21.0150 C   0  0  0  0  0  0
  -25.2590  -13.8191   20.5688 C   0  0  0  0  0  0
  -24.1852  -13.0461   20.9195 C   0  0  0  0  0  0
  -24.6416  -11.6928   20.8723 C   0  0  0  0  0  0
  -23.9062  -10.4318   21.0384 C   0  0  0  0  0  0
  -24.3619   -9.4242   21.9162 C   0  0  0  0  0  0
  -23.6315   -8.2268   22.0735 C   0  0  0  0  0  0
  -22.4289   -8.0296   21.3540 C   0  0  0  0  0  0
  -21.9916   -9.0266   20.4628 C   0  0  0  0  0  0
  -22.7230  -10.2155   20.3044 C   0  0  0  0  0  0
  -21.6867   -6.0739   22.5281 C   0  0  0  0  0  0
  -21.4008   -6.5637   23.8212 C   0  0  0  0  0  0
  -21.3662   -5.6789   24.9169 C   0  0  0  0  0  0
  -21.6057   -4.3054   24.7226 C   0  0  0  0  0  0
  -21.8814   -3.8148   23.4343 C   0  0  0  0  0  0
  -21.9195   -4.6963   22.3400 C   0  0  0  0  0  0
  -22.7873  -13.5259   21.1868 C   0  0  0  0  0  0
  -22.1678   -4.2153   21.0980 F   0  0  0  0  0  0
  -21.5640   -3.4537   25.7743 F   0  0  0  0  0  0
  -30.0446  -13.3262   20.4815 N   0  0  0  0  0  0
  -26.3056  -12.9383   20.3379 N   0  0  0  0  0  0
  -25.9353  -11.6530   20.5759 N   0  0  0  0  0  0
  -22.0505  -12.8242   22.0416 N   0  0  0  0  0  0
  -25.4272  -15.1914   20.4072 N   0  0  0  0  0  0
  -31.7487  -14.7623   20.0028 O   0  0  0  0  0  0
  -21.6671   -6.8882   21.4243 O   0  0  0  0  0  0
  -22.3528  -14.5555   20.6706 O   0  0  0  0  0  0
  -24.6243  -31.8618   23.2036 C   0  0  0  0  0  0
  -25.9104  -32.4790   23.8370 C   0  0  1  0  0  0
  -27.2256  -27.3540   20.1068 C   0  0  0  0  0  0
  -25.5926  -33.8590   24.2292 N   0  0  0  0  0  0
  -23.4170  -30.4873   21.5443 C   0  0  2  0  0  0
  -24.8630  -28.9562   20.1037 C   0  0  0  0  0  0
  -22.7464  -29.4615   22.4904 C   0  0  0  0  0  0
  -18.0295  -28.1382   22.8478 C   0  0  0  0  0  0
  -24.1501  -36.7307   23.2629 C   0  0  0  0  0  0
  -25.9534  -30.8045   21.3717 C   0  0  0  0  0  0
  -26.0265  -29.4349   20.7158 C   0  0  0  0  0  0
  -27.2072  -28.6413   20.7187 C   0  0  0  0  0  0
  -26.0419  -26.9322   19.4530 C   0  0  0  0  0  0
  -24.8701  -27.7082   19.4662 C   0  0  0  0  0  0
  -23.6288  -29.8298   20.1556 C   0  0  0  0  0  0
  -25.4117  -36.3085   24.0325 C   0  0  1  0  0  0
  -20.5898  -28.3685   23.1272 C   0  0  2  0  0  0
  -20.6790  -26.9405   22.5402 C   0  0  0  0  0  0
  -19.5756  -26.6379   21.5214 C   0  0  0  0  0  0
  -18.1930  -26.7933   22.1622 C   0  0  0  0  0  0
  -19.1541  -28.8853   23.2885 C   0  0  0  0  0  0
  -18.9457  -30.1456   23.8895 C   0  0  0  0  0  0
  -17.6454  -30.6580   24.0560 C   0  0  0  0  0  0
  -25.9043  -34.9463   23.5103 C   0  0  0  0  0  0
  -16.5349  -29.9077   23.6326 C   0  0  0  0  0  0
  -16.7277  -28.6504   23.0331 C   0  0  0  0  0  0
  -26.4489  -31.6582   25.0728 C   0  0  0  0  0  0
  -25.3738  -31.3728   26.1458 C   0  0  0  0  0  0
  -27.0322  -30.3008   24.6166 C   0  0  0  0  0  0
  -27.6061  -32.4296   25.7502 C   0  0  0  0  0  0
  -27.5591  -37.1792   24.8443 C   0  0  0  0  0  0
  -21.4178  -29.3042   22.3655 N   0  0  0  0  0  0
  -26.4289  -37.3779   23.9404 N   0  0  0  0  0  0
  -24.6836  -31.0666   22.0969 N   0  0  0  0  0  0
  -23.4200  -28.8129   23.2956 O   0  0  0  0  0  0
  -28.3641  -26.5445   20.1716 O   0  0  0  0  0  0
  -26.5603  -34.8921   22.4663 O   0  0  0  0  0  0
  -23.5415  -32.1401   23.7376 O   0  0  0  0  0  0
  -31.6163  -18.1349   20.1260 C   0  0  0  0  0  0
  -30.2908  -18.0687   20.5745 C   0  0  0  0  0  0
  -32.1471  -19.4125   19.9266 C   0  0  0  0  0  0
  -30.2199  -20.3885   20.6484 C   0  0  0  0  0  0
  -29.4897  -16.7504   20.5687 C   0  0  0  0  0  0
  -29.3895  -22.7157   20.0557 C   0  0  0  0  0  0
  -28.2537  -25.1113   19.8654 C   0  0  0  0  0  0
  -29.0906  -24.1054   20.7474 C   0  0  1  0  0  0
  -29.6118  -19.2188   20.8647 N   0  0  0  0  0  0
  -31.4500  -20.5333   20.1708 N   0  0  0  0  0  0
  -33.4305  -19.5873   19.4392 N   0  0  0  0  0  0
  -29.5230  -21.5517   20.9639 N   0  0  0  0  0  0
  -29.9996  -15.5116   21.2054 N   0  0  0  0  0  0
  -28.3291  -23.8336   21.9174 O   0  0  0  0  0  0
  -31.4827  -12.4404   19.1687 H   0  0  0  0  0  0
  -30.3417  -11.3264   19.8517 H   0  0  0  0  0  0
  -29.7661  -11.8074   17.4525 H   0  0  0  0  0  0
  -29.6901  -13.5152   17.7900 H   0  0  0  0  0  0
  -27.8195  -11.3395   18.7853 H   0  0  0  0  0  0
  -27.3965  -12.7007   17.7848 H   0  0  0  0  0  0
  -27.7054  -14.2685   19.5897 H   0  0  0  0  0  0
  -28.6862  -11.9789   21.3661 H   0  0  0  0  0  0
  -28.4510  -13.6122   21.8907 H   0  0  0  0  0  0
  -25.2765   -9.5753   22.4724 H   0  0  0  0  0  0
  -24.0050   -7.4662   22.7447 H   0  0  0  0  0  0
  -21.0848   -8.8781   19.8926 H   0  0  0  0  0  0
  -22.3677  -10.9697   19.6163 H   0  0  0  0  0  0
  -21.1997   -7.6143   23.9720 H   0  0  0  0  0  0
  -21.1493   -6.0515   25.9073 H   0  0  0  0  0  0
  -22.0592   -2.7609   23.2853 H   0  0  0  0  0  0
  -22.4099  -11.9914   22.4846 H   0  0  0  0  0  0
  -21.1105  -13.1236   22.2561 H   0  0  0  0  0  0
  -24.6589  -15.8457   20.5143 H   0  0  0  0  0  0
  -26.2783  -15.6330   20.0879 H   0  0  0  0  0  0
  -26.7175  -32.5477   23.1125 H   0  0  0  0  0  0
  -25.0104  -33.9744   25.0456 H   0  0  0  0  0  0
  -22.7133  -31.3101   21.4061 H   0  0  0  0  0  0
  -23.3755  -35.9642   23.3254 H   0  0  0  0  0  0
  -24.3615  -36.8960   22.2049 H   0  0  0  0  0  0
  -23.7258  -37.6507   23.6672 H   0  0  0  0  0  0
  -26.0854  -31.5687   20.6055 H   0  0  0  0  0  0
  -26.8355  -30.8521   21.9983 H   0  0  0  0  0  0
  -28.0968  -28.9994   21.2184 H   0  0  0  0  0  0
  -25.9812  -25.9999   18.9131 H   0  0  0  0  0  0
  -23.9822  -27.3425   18.9680 H   0  0  0  0  0  0
  -23.7355  -30.6098   19.3997 H   0  0  0  0  0  0
  -22.7532  -29.2513   19.8567 H   0  0  0  0  0  0
  -25.1289  -36.1935   25.0818 H   0  0  0  0  0  0
  -21.0021  -28.3271   24.1381 H   0  0  0  0  0  0
  -20.5699  -26.2294   23.3598 H   0  0  0  0  0  0
  -21.6658  -26.7418   22.1187 H   0  0  0  0  0  0
  -19.6906  -25.6291   21.1238 H   0  0  0  0  0  0
  -19.6708  -27.3209   20.6759 H   0  0  0  0  0  0
  -17.4205  -26.6678   21.4016 H   0  0  0  0  0  0
  -18.0311  -26.0086   22.9026 H   0  0  0  0  0  0
  -19.7928  -30.7281   24.2260 H   0  0  0  0  0  0
  -17.4997  -31.6261   24.5162 H   0  0  0  0  0  0
  -15.5351  -30.2969   23.7645 H   0  0  0  0  0  0
  -15.8681  -28.0831   22.7020 H   0  0  0  0  0  0
  -24.5912  -30.7095   25.7753 H   0  0  0  0  0  0
  -24.8954  -32.2898   26.4898 H   0  0  0  0  0  0
  -25.8053  -30.8879   27.0220 H   0  0  0  0  0  0
  -26.2906  -29.6743   24.1178 H   0  0  0  0  0  0
  -27.4016  -29.7278   25.4687 H   0  0  0  0  0  0
  -27.8759  -30.4275   23.9374 H   0  0  0  0  0  0
  -27.2691  -33.3586   26.2116 H   0  0  0  0  0  0
  -28.3853  -32.6854   25.0314 H   0  0  0  0  0  0
  -28.0747  -31.8396   26.5388 H   0  0  0  0  0  0
  -28.2547  -38.0146   24.7556 H   0  0  0  0  0  0
  -28.1147  -36.2676   24.6174 H   0  0  0  0  0  0
  -27.2325  -37.1334   25.8848 H   0  0  0  0  0  0
  -20.9324  -29.8802   21.6912 H   0  0  0  0  0  0
  -26.0158  -38.2842   24.1445 H   0  0  0  0  0  0
  -32.1696  -17.2371   19.8840 H   0  0  0  0  0  0
  -29.2415  -16.5218   19.5311 H   0  0  0  0  0  0
  -28.5297  -16.9557   21.0451 H   0  0  0  0  0  0
  -30.2819  -22.8049   19.4357 H   0  0  0  0  0  0
  -28.5753  -22.4768   19.3696 H   0  0  0  0  0  0
  -27.2285  -24.7488   19.9372 H   0  0  0  0  0  0
  -28.5400  -24.9855   18.8203 H   0  0  0  0  0  0
  -30.0332  -24.5707   21.0431 H   0  0  0  0  0  0
  -33.9052  -18.8002   19.0131 H   0  0  0  0  0  0
  -33.6557  -20.4816   19.0201 H   0  0  0  0  0  0
  -28.6731  -21.3919   21.4902 H   0  0  0  0  0  0
  -29.3399  -15.1506   21.8752 H   0  0  0  0  0  0
  -28.1899  -24.6654   22.3595 H   0  0  0  0  0  0
  1 25  1  0  0  0
  1 30  2  0  0  0
  1 83  1  0  0  0
  2  3  1  0  0  0
  2 25  1  0  0  0
  2 85  1  0  0  0
  2 86  1  0  0  0
  3  4  1  0  0  0
  3 87  1  0  0  0
  3 88  1  0  0  0
  4  5  1  0  0  0
  4 89  1  0  0  0
  4 90  1  0  0  0
  5  6  1  0  0  0
  5 26  1  0  0  0
  5 91  1  0  0  0
  6 25  1  0  0  0
  6 92  1  0  0  0
  6 93  1  0  0  0
  7  8  2  0  0  0
  7 26  1  0  0  0
  7 29  1  0  0  0
  8  9  1  0  0  0
  8 22  1  0  0  0
  9 10  1  0  0  0
  9 27  2  0  0  0
 10 11  2  0  0  0
 10 15  1  0  0  0
 11 12  1  0  0  0
 11 94  1  0  0  0
 12 13  2  0  0  0
 12 95  1  0  0  0
 13 14  1  0  0  0
 13 31  1  0  0  0
 14 15  2  0  0  0
 14 96  1  0  0  0
 15 97  1  0  0  0
 16 17  2  0  0  0
 16 21  1  0  0  0
 16 31  1  0  0  0
 17 18  1  0  0  0
 17 98  1  0  0  0
 18 19  2  0  0  0
 18 99  1  0  0  0
 19 20  1  0  0  0
 19 24  1  0  0  0
 20 21  2  0  0  0
 20100  1  0  0  0
 21 23  1  0  0  0
 22 28  1  0  0  0
 22 32  2  0  0  0
 26 27  1  0  0  0
 28101  1  0  0  0
 28102  1  0  0  0
 29103  1  0  0  0
 29104  1  0  0  0
 33 34  1  0  0  0
 33 66  1  0  0  0
 33 70  2  0  0  0
 34 36  1  0  0  0
 34 59  1  0  0  0
 34105  1  0  0  0
 35 44  2  0  0  0
 35 45  1  0  0  0
 35 68  1  0  0  0
 36 56  1  0  0  0
 36106  1  0  0  0
 37 39  1  0  0  0
 37 47  1  0  0  0
 37 66  1  0  0  0
 37107  1  0  0  0
 38 43  2  0  0  0
 38 46  1  0  0  0
 38 47  1  0  0  0
 39 64  1  0  0  0
 39 67  2  0  0  0
 40 52  1  0  0  0
 40 53  2  0  0  0
 40 58  1  0  0  0
 41108  1  0  0  0
 41109  1  0  0  0
 41110  1  0  0  0
 41 48  1  0  0  0
 42 43  1  0  0  0
 42 66  1  0  0  0
 42111  1  0  0  0
 42112  1  0  0  0
 43 44  1  0  0  0
 44113  1  0  0  0
 45 46  2  0  0  0
 45114  1  0  0  0
 46115  1  0  0  0
 47116  1  0  0  0
 47117  1  0  0  0
 48 56  1  0  0  0
 48 65  1  0  0  0
 48118  1  0  0  0
 49 50  1  0  0  0
 49 53  1  0  0  0
 49 64  1  0  0  0
 49119  1  0  0  0
 50 51  1  0  0  0
 50120  1  0  0  0
 50121  1  0  0  0
 51 52  1  0  0  0
 51122  1  0  0  0
 51123  1  0  0  0
 52124  1  0  0  0
 52125  1  0  0  0
 53 54  1  0  0  0
 54 55  2  0  0  0
 54126  1  0  0  0
 55 57  1  0  0  0
 55127  1  0  0  0
 56 69  2  0  0  0
 57 58  2  0  0  0
 57128  1  0  0  0
 58129  1  0  0  0
 59 60  1  0  0  0
 59 61  1  0  0  0
 59 62  1  0  0  0
 60130  1  0  0  0
 60131  1  0  0  0
 60132  1  0  0  0
 61133  1  0  0  0
 61134  1  0  0  0
 61135  1  0  0  0
 62136  1  0  0  0
 62137  1  0  0  0
 62138  1  0  0  0
 63 65  1  0  0  0
 63139  1  0  0  0
 63140  1  0  0  0
 63141  1  0  0  0
 64142  1  0  0  0
 65143  1  0  0  0
 68 77  1  0  0  0
 71 72  2  0  0  0
 71 73  1  0  0  0
 71144  1  0  0  0
 72 75  1  0  0  0
 72 79  1  0  0  0
 73 80  2  0  0  0
 73 81  1  0  0  0
 74 79  2  0  0  0
 74 80  1  0  0  0
 74 82  1  0  0  0
 75 83  1  0  0  0
 75145  1  0  0  0
 75146  1  0  0  0
 76 78  1  0  0  0
 76 82  1  0  0  0
 76147  1  0  0  0
 76148  1  0  0  0
 77 78  1  0  0  0
 77149  1  0  0  0
 77150  1  0  0  0
 78 84  1  0  0  0
 78151  1  0  0  0
 81152  1  0  0  0
 81153  1  0  0  0
 82154  1  0  0  0
 83155  1  0  0  0
 84156  1  0  0  0
M  ISO  4   1 100  68 101  77 101  83 100
M  END
> <chiral flag>
0

> <version>
0

> <s_m_source_file>
/data/baiqing/PycharmProjects/Reinvent-master-3.2/result/LINK_invent/BTK/process_docking_weight1_custom_product_contain_oxygen_bond_distance_aromatic_linkinvent_7_9_3/rearranged_h_0195.sdf

> <i_m_source_file_index>
56

> <r_mmod_Potential_Energy-OPLS-2005>
-834.149047851562

> <r_mmod_Stretch_Energy-OPLS-2005>
54.1265144348145

> <r_mmod_Bend_Energy-OPLS-2005>
128.956985473633

> <r_mmod_Torsional_Energy-OPLS-2005>
278.389190673828

> <r_mmod_Improper_Torsional_Energy-OPLS-2005>
13.3708982467651

> <r_mmod_Van_der_Waal_Energy-OPLS-2005>
161.681289672852

> <r_mmod_Electrostatic_Energy-OPLS-2005>
-1221.66906738281

> <r_mmod_Solvation_Energy-OPLS-2005>
-277.303283691406

> <b_mmod_Minimization_Converged-OPLS-2005>
0

> <r_mmod_RMS_Derivative-OPLS-2005>
3.39164733886719

$$$$
56
                    3D
 Structure written by MMmdl.
151159  0  0  1  0            999 V2000
  -30.5683  -14.6870   20.5113 C   0  0  0  0  0  0
  -30.4530  -12.4274   19.4463 C   0  0  0  0  0  0
  -29.5119  -12.5221   18.2217 C   0  0  0  0  0  0
  -28.0331  -12.3513   18.6282 C   0  0  0  0  0  0
  -27.6536  -13.2115   19.8614 C   0  0  2  0  0  0
  -28.7001  -13.0452   20.9872 C   0  0  0  0  0  0
  -25.2580  -13.8167   20.5698 C   0  0  0  0  0  0
  -24.1836  -13.0443   20.9209 C   0  0  0  0  0  0
  -24.6390  -11.6910   20.8735 C   0  0  0  0  0  0
  -23.9052  -10.4302   21.0394 C   0  0  0  0  0  0
  -24.3612   -9.4228   21.9174 C   0  0  0  0  0  0
  -23.6300   -8.2261   22.0745 C   0  0  0  0  0  0
  -22.4278   -8.0290   21.3539 C   0  0  0  0  0  0
  -21.9905   -9.0257   20.4642 C   0  0  0  0  0  0
  -22.7226  -10.2144   20.3046 C   0  0  0  0  0  0
  -21.6863   -6.0739   22.5276 C   0  0  0  0  0  0
  -21.4022   -6.5643   23.8209 C   0  0  0  0  0  0
  -21.3654   -5.6795   24.9166 C   0  0  0  0  0  0
  -21.6044   -4.3057   24.7218 C   0  0  0  0  0  0
  -21.8827   -3.8150   23.4342 C   0  0  0  0  0  0
  -21.9197   -4.6966   22.3396 C   0  0  0  0  0  0
  -22.7859  -13.5239   21.1868 C   0  0  0  0  0  0
  -22.1663   -4.2149   21.0974 F   0  0  0  0  0  0
  -21.5619   -3.4541   25.7731 F   0  0  0  0  0  0
  -30.0133  -13.4305   20.4364 N   0  0  0  0  0  0
  -26.2987  -12.9325   20.3291 N   0  0  0  0  0  0
  -25.9310  -11.6489   20.5723 N   0  0  0  0  0  0
  -22.0502  -12.8228   22.0420 N   0  0  0  0  0  0
  -25.4318  -15.1891   20.4115 N   0  0  0  0  0  0
  -31.7116  -14.9097   20.0946 O   0  0  0  0  0  0
  -21.6650   -6.8886   21.4240 O   0  0  0  0  0  0
  -22.3551  -14.5538   20.6701 O   0  0  0  0  0  0
  -24.6282  -31.8574   23.2002 C   0  0  0  0  0  0
  -25.9118  -32.4765   23.8342 C   0  0  1  0  0  0
  -27.2291  -27.2958   20.1232 C   0  0  0  0  0  0
  -25.5924  -33.8567   24.2264 N   0  0  0  0  0  0
  -23.4242  -30.4794   21.5439 C   0  0  2  0  0  0
  -24.8730  -28.9297   20.1137 C   0  0  0  0  0  0
  -22.7494  -29.4603   22.4935 C   0  0  0  0  0  0
  -18.0285  -28.1389   22.8485 C   0  0  0  0  0  0
  -24.1488  -36.7292   23.2636 C   0  0  0  0  0  0
  -25.9676  -30.7795   21.3772 C   0  0  0  0  0  0
  -26.0424  -29.4040   20.7214 C   0  0  0  0  0  0
  -27.2237  -28.5996   20.7153 C   0  0  0  0  0  0
  -26.0371  -26.8820   19.4870 C   0  0  0  0  0  0
  -24.8732  -27.6747   19.4868 C   0  0  0  0  0  0
  -23.6416  -29.8117   20.1607 C   0  0  0  0  0  0
  -25.4118  -36.3079   24.0322 C   0  0  1  0  0  0
  -20.5889  -28.3694   23.1287 C   0  0  2  0  0  0
  -20.6780  -26.9418   22.5419 C   0  0  0  0  0  0
  -19.5755  -26.6383   21.5225 C   0  0  0  0  0  0
  -18.1932  -26.7928   22.1629 C   0  0  0  0  0  0
  -19.1538  -28.8861   23.2873 C   0  0  0  0  0  0
  -18.9461  -30.1464   23.8896 C   0  0  0  0  0  0
  -17.6459  -30.6593   24.0564 C   0  0  0  0  0  0
  -25.9055  -34.9444   23.5095 C   0  0  0  0  0  0
  -16.5349  -29.9094   23.6331 C   0  0  0  0  0  0
  -16.7272  -28.6508   23.0353 C   0  0  0  0  0  0
  -26.4493  -31.6579   25.0721 C   0  0  0  0  0  0
  -25.3713  -31.3745   26.1443 C   0  0  0  0  0  0
  -27.0342  -30.2992   24.6199 C   0  0  0  0  0  0
  -27.6043  -32.4322   25.7507 C   0  0  0  0  0  0
  -27.5581  -37.1805   24.8460 C   0  0  0  0  0  0
  -21.4205  -29.3037   22.3677 N   0  0  0  0  0  0
  -26.4296  -37.3776   23.9402 N   0  0  0  0  0  0
  -24.6921  -31.0562   22.0970 N   0  0  0  0  0  0
  -23.4207  -28.8148   23.3027 O   0  0  0  0  0  0
  -28.3457  -26.4337   20.1429 O   0  0  0  0  0  0
  -26.5628  -34.8915   22.4668 O   0  0  0  0  0  0
  -23.5438  -32.1391   23.7310 O   0  0  0  0  0  0
  -28.2780  -17.5147   21.4598 C   0  0  0  0  0  0
  -29.4688  -17.0924   20.9131 C   0  0  0  0  0  0
  -29.5651  -19.4206   20.5251 C   0  0  0  0  0  0
  -27.9355  -24.9597   22.0147 C   0  0  0  0  0  0
  -29.2618  -23.9165   20.0722 C   0  0  0  0  0  0
  -28.1445  -24.9919   20.4916 C   0  0  2  0  0  0
  -30.2034  -18.2022   20.3750 N   0  0  0  0  0  0
  -29.7064  -15.6436   20.9887 N   0  0  0  0  0  0
  -28.9888  -22.4558   20.4506 N   0  0  0  0  0  0
  -31.3747  -21.4126   20.7222 O   0  0  0  0  0  0
  -30.1465  -21.1249   18.5256 O   0  0  0  0  0  0
  -28.0148  -19.2420   21.3293 S   0  0  0  0  0  0
  -30.1196  -21.1404   20.0000 S   0  0  0  0  0  0
  -31.4868  -12.5887   19.1379 H   0  0  0  0  0  0
  -30.4212  -11.4281   19.8821 H   0  0  0  0  0  0
  -29.7836  -11.7710   17.4795 H   0  0  0  0  0  0
  -29.6451  -13.4897   17.7358 H   0  0  0  0  0  0
  -27.8710  -11.2964   18.8512 H   0  0  0  0  0  0
  -27.3801  -12.5876   17.7864 H   0  0  0  0  0  0
  -27.6721  -14.2494   19.5292 H   0  0  0  0  0  0
  -28.7291  -12.0092   21.3274 H   0  0  0  0  0  0
  -28.4258  -13.6291   21.8668 H   0  0  0  0  0  0
  -25.2760   -9.5713   22.4741 H   0  0  0  0  0  0
  -24.0016   -7.4655   22.7459 H   0  0  0  0  0  0
  -21.0835   -8.8773   19.8956 H   0  0  0  0  0  0
  -22.3678  -10.9677   19.6151 H   0  0  0  0  0  0
  -21.2030   -7.6154   23.9710 H   0  0  0  0  0  0
  -21.1457   -6.0523   25.9066 H   0  0  0  0  0  0
  -22.0612   -2.7612   23.2839 H   0  0  0  0  0  0
  -22.4117  -11.9901   22.4825 H   0  0  0  0  0  0
  -21.1104  -13.1229   22.2594 H   0  0  0  0  0  0
  -24.6585  -15.8383   20.5064 H   0  0  0  0  0  0
  -26.2575  -15.6158   20.0123 H   0  0  0  0  0  0
  -26.7188  -32.5434   23.1089 H   0  0  0  0  0  0
  -25.0052  -33.9711   25.0395 H   0  0  0  0  0  0
  -22.7173  -31.2991   21.3983 H   0  0  0  0  0  0
  -23.3751  -35.9626   23.3303 H   0  0  0  0  0  0
  -24.3573  -36.8914   22.2049 H   0  0  0  0  0  0
  -23.7248  -37.6494   23.6665 H   0  0  0  0  0  0
  -26.1007  -31.5393   20.6059 H   0  0  0  0  0  0
  -26.8468  -30.8301   22.0079 H   0  0  0  0  0  0
  -28.1201  -28.9589   21.2010 H   0  0  0  0  0  0
  -25.9829  -25.9326   18.9756 H   0  0  0  0  0  0
  -23.9795  -27.3106   18.9987 H   0  0  0  0  0  0
  -23.7612  -30.5856   19.4018 H   0  0  0  0  0  0
  -22.7629  -29.2389   19.8594 H   0  0  0  0  0  0
  -25.1305  -36.1924   25.0817 H   0  0  0  0  0  0
  -20.9969  -28.3272   24.1412 H   0  0  0  0  0  0
  -20.5701  -26.2305   23.3623 H   0  0  0  0  0  0
  -21.6648  -26.7460   22.1202 H   0  0  0  0  0  0
  -19.6920  -25.6295   21.1255 H   0  0  0  0  0  0
  -19.6693  -27.3197   20.6759 H   0  0  0  0  0  0
  -17.4209  -26.6675   21.4025 H   0  0  0  0  0  0
  -18.0320  -26.0079   22.9030 H   0  0  0  0  0  0
  -19.7940  -30.7275   24.2266 H   0  0  0  0  0  0
  -17.5019  -31.6272   24.5164 H   0  0  0  0  0  0
  -15.5354  -30.2996   23.7661 H   0  0  0  0  0  0
  -15.8667  -28.0830   22.7075 H   0  0  0  0  0  0
  -24.5864  -30.7124   25.7769 H   0  0  0  0  0  0
  -24.8936  -32.2931   26.4861 H   0  0  0  0  0  0
  -25.8013  -30.8913   27.0222 H   0  0  0  0  0  0
  -26.2933  -29.6743   24.1197 H   0  0  0  0  0  0
  -27.3998  -29.7247   25.4718 H   0  0  0  0  0  0
  -27.8817  -30.4265   23.9461 H   0  0  0  0  0  0
  -27.2629  -33.3607   26.2096 H   0  0  0  0  0  0
  -28.3853  -32.6908   25.0344 H   0  0  0  0  0  0
  -28.0711  -31.8443   26.5417 H   0  0  0  0  0  0
  -28.2598  -38.0099   24.7513 H   0  0  0  0  0  0
  -28.1079  -36.2635   24.6288 H   0  0  0  0  0  0
  -27.2298  -37.1453   25.8860 H   0  0  0  0  0  0
  -20.9399  -29.8744   21.6865 H   0  0  0  0  0  0
  -26.0172  -38.2850   24.1407 H   0  0  0  0  0  0
  -27.5120  -16.9174   21.9377 H   0  0  0  0  0  0
  -27.1068  -25.6001   22.3177 H   0  0  0  0  0  0
  -28.8273  -25.3033   22.5389 H   0  0  0  0  0  0
  -27.7033  -23.9559   22.3684 H   0  0  0  0  0  0
  -30.2202  -24.2078   20.5043 H   0  0  0  0  0  0
  -29.4035  -23.9621   18.9915 H   0  0  0  0  0  0
  -27.2299  -24.6273   20.0305 H   0  0  0  0  0  0
  -28.9108  -15.1624   21.3765 H   0  0  0  0  0  0
  -28.8094  -22.3747   21.4524 H   0  0  0  0  0  0
  1 25  1  0  0  0
  1 30  2  0  0  0
  1 78  1  0  0  0
  2  3  1  0  0  0
  2 25  1  0  0  0
  2 84  1  0  0  0
  2 85  1  0  0  0
  3  4  1  0  0  0
  3 86  1  0  0  0
  3 87  1  0  0  0
  4  5  1  0  0  0
  4 88  1  0  0  0
  4 89  1  0  0  0
  5  6  1  0  0  0
  5 26  1  0  0  0
  5 90  1  0  0  0
  6 25  1  0  0  0
  6 91  1  0  0  0
  6 92  1  0  0  0
  7  8  2  0  0  0
  7 26  1  0  0  0
  7 29  1  0  0  0
  8  9  1  0  0  0
  8 22  1  0  0  0
  9 10  1  0  0  0
  9 27  2  0  0  0
 10 11  2  0  0  0
 10 15  1  0  0  0
 11 12  1  0  0  0
 11 93  1  0  0  0
 12 13  2  0  0  0
 12 94  1  0  0  0
 13 14  1  0  0  0
 13 31  1  0  0  0
 14 15  2  0  0  0
 14 95  1  0  0  0
 15 96  1  0  0  0
 16 17  2  0  0  0
 16 21  1  0  0  0
 16 31  1  0  0  0
 17 18  1  0  0  0
 17 97  1  0  0  0
 18 19  2  0  0  0
 18 98  1  0  0  0
 19 20  1  0  0  0
 19 24  1  0  0  0
 20 21  2  0  0  0
 20 99  1  0  0  0
 21 23  1  0  0  0
 22 28  1  0  0  0
 22 32  2  0  0  0
 26 27  1  0  0  0
 28100  1  0  0  0
 28101  1  0  0  0
 29102  1  0  0  0
 29103  1  0  0  0
 33 34  1  0  0  0
 33 66  1  0  0  0
 33 70  2  0  0  0
 34 36  1  0  0  0
 34 59  1  0  0  0
 34104  1  0  0  0
 35 44  2  0  0  0
 35 45  1  0  0  0
 35 68  1  0  0  0
 36 56  1  0  0  0
 36105  1  0  0  0
 37 39  1  0  0  0
 37 47  1  0  0  0
 37 66  1  0  0  0
 37106  1  0  0  0
 38 43  2  0  0  0
 38 46  1  0  0  0
 38 47  1  0  0  0
 39 64  1  0  0  0
 39 67  2  0  0  0
 40 52  1  0  0  0
 40 53  2  0  0  0
 40 58  1  0  0  0
 41107  1  0  0  0
 41108  1  0  0  0
 41109  1  0  0  0
 41 48  1  0  0  0
 42 43  1  0  0  0
 42 66  1  0  0  0
 42110  1  0  0  0
 42111  1  0  0  0
 43 44  1  0  0  0
 44112  1  0  0  0
 45 46  2  0  0  0
 45113  1  0  0  0
 46114  1  0  0  0
 47115  1  0  0  0
 47116  1  0  0  0
 48 56  1  0  0  0
 48 65  1  0  0  0
 48117  1  0  0  0
 49 50  1  0  0  0
 49 53  1  0  0  0
 49 64  1  0  0  0
 49118  1  0  0  0
 50 51  1  0  0  0
 50119  1  0  0  0
 50120  1  0  0  0
 51 52  1  0  0  0
 51121  1  0  0  0
 51122  1  0  0  0
 52123  1  0  0  0
 52124  1  0  0  0
 53 54  1  0  0  0
 54 55  2  0  0  0
 54125  1  0  0  0
 55 57  1  0  0  0
 55126  1  0  0  0
 56 69  2  0  0  0
 57 58  2  0  0  0
 57127  1  0  0  0
 58128  1  0  0  0
 59 60  1  0  0  0
 59 61  1  0  0  0
 59 62  1  0  0  0
 60129  1  0  0  0
 60130  1  0  0  0
 60131  1  0  0  0
 61132  1  0  0  0
 61133  1  0  0  0
 61134  1  0  0  0
 62135  1  0  0  0
 62136  1  0  0  0
 62137  1  0  0  0
 63 65  1  0  0  0
 63138  1  0  0  0
 63139  1  0  0  0
 63140  1  0  0  0
 64141  1  0  0  0
 65142  1  0  0  0
 68 76  1  0  0  0
 71 72  2  0  0  0
 71 82  1  0  0  0
 71143  1  0  0  0
 72 77  1  0  0  0
 72 78  1  0  0  0
 73 77  2  0  0  0
 73 82  1  0  0  0
 73 83  1  0  0  0
 74144  1  0  0  0
 74145  1  0  0  0
 74146  1  0  0  0
 74 76  1  0  0  0
 75 76  1  0  0  0
 75 79  1  0  0  0
 75147  1  0  0  0
 75148  1  0  0  0
 76149  1  0  0  0
 78150  1  0  0  0
 79151  1  0  0  0
 79 83  1  0  0  0
 80 83  2  0  0  0
 81 83  2  0  0  0
M  ISO  4   1 100  68 101  76 101  78 100
M  END
> <chiral flag>
0

> <version>
0

> <s_m_source_file>
/data/baiqing/PycharmProjects/Reinvent-master-3.2/result/LINK_invent/BTK/process_docking_weight1_custom_product_contain_oxygen_bond_distance_aromatic_linkinvent_7_9_3/rearranged_h_0195.sdf

> <i_m_source_file_index>
57

> <r_mmod_Potential_Energy-OPLS-2005>
20.0862655639648

> <r_mmod_Stretch_Energy-OPLS-2005>
98.3384399414062

> <r_mmod_Bend_Energy-OPLS-2005>
184.121658325195

> <r_mmod_Torsional_Energy-OPLS-2005>
223.846466064453

> <r_mmod_Improper_Torsional_Energy-OPLS-2005>
8.67706394195557

> <r_mmod_Van_der_Waal_Energy-OPLS-2005>
112.74397277832

> <r_mmod_Electrostatic_Energy-OPLS-2005>
-398.208557128906

> <r_mmod_Solvation_Energy-OPLS-2005>
-271.875701904297

> <b_mmod_Minimization_Converged-OPLS-2005>
0

> <r_mmod_RMS_Derivative-OPLS-2005>
1.3980085849762

$$$$
57
                    3D
 Structure written by MMmdl.
154162  0  0  1  0            999 V2000
  -30.6680  -14.5050   20.5783 C   0  0  0  0  0  0
  -30.4399  -12.3258   19.4240 C   0  0  0  0  0  0
  -29.5026  -12.5071   18.2091 C   0  0  0  0  0  0
  -28.0226  -12.3639   18.6198 C   0  0  0  0  0  0
  -27.6658  -13.2013   19.8759 C   0  0  2  0  0  0
  -28.7074  -12.9679   20.9940 C   0  0  0  0  0  0
  -25.2599  -13.8142   20.5661 C   0  0  0  0  0  0
  -24.1844  -13.0432   20.9164 C   0  0  0  0  0  0
  -24.6393  -11.6897   20.8729 C   0  0  0  0  0  0
  -23.9060  -10.4288   21.0411 C   0  0  0  0  0  0
  -24.3613   -9.4204   21.9191 C   0  0  0  0  0  0
  -23.6279   -8.2250   22.0768 C   0  0  0  0  0  0
  -22.4264   -8.0287   21.3553 C   0  0  0  0  0  0
  -21.9898   -9.0266   20.4663 C   0  0  0  0  0  0
  -22.7236  -10.2139   20.3062 C   0  0  0  0  0  0
  -21.6848   -6.0735   22.5283 C   0  0  0  0  0  0
  -21.4023   -6.5643   23.8215 C   0  0  0  0  0  0
  -21.3655   -5.6797   24.9177 C   0  0  0  0  0  0
  -21.6034   -4.3059   24.7234 C   0  0  0  0  0  0
  -21.8817   -3.8147   23.4355 C   0  0  0  0  0  0
  -21.9192   -4.6961   22.3409 C   0  0  0  0  0  0
  -22.7866  -13.5250   21.1817 C   0  0  0  0  0  0
  -22.1653   -4.2148   21.0986 F   0  0  0  0  0  0
  -21.5625   -3.4542   25.7744 F   0  0  0  0  0  0
  -30.0400  -13.2997   20.4524 N   0  0  0  0  0  0
  -26.3040  -12.9300   20.3354 N   0  0  0  0  0  0
  -25.9322  -11.6469   20.5759 N   0  0  0  0  0  0
  -22.0492  -12.8264   22.0377 N   0  0  0  0  0  0
  -25.4313  -15.1865   20.4066 N   0  0  0  0  0  0
  -31.7801  -14.7273   20.0864 O   0  0  0  0  0  0
  -21.6628   -6.8881   21.4246 O   0  0  0  0  0  0
  -22.3563  -14.5559   20.6662 O   0  0  0  0  0  0
  -24.6165  -31.8652   23.2097 C   0  0  0  0  0  0
  -25.9053  -32.4810   23.8383 C   0  0  1  0  0  0
  -27.2340  -27.4194   20.1020 C   0  0  0  0  0  0
  -25.5892  -33.8609   24.2300 N   0  0  0  0  0  0
  -23.4052  -30.4886   21.5494 C   0  0  2  0  0  0
  -24.8534  -28.9508   20.1162 C   0  0  0  0  0  0
  -22.7410  -29.4663   22.4988 C   0  0  0  0  0  0
  -18.0268  -28.1382   22.8486 C   0  0  0  0  0  0
  -24.1488  -36.7329   23.2636 C   0  0  0  0  0  0
  -25.9350  -30.8270   21.3649 C   0  0  0  0  0  0
  -26.0152  -29.4602   20.7118 C   0  0  0  0  0  0
  -27.2119  -28.7031   20.6984 C   0  0  0  0  0  0
  -26.0574  -26.9258   19.5028 C   0  0  0  0  0  0
  -24.8695  -27.6821   19.5091 C   0  0  0  0  0  0
  -23.6142  -29.8178   20.1655 C   0  0  0  0  0  0
  -25.4109  -36.3109   24.0325 C   0  0  1  0  0  0
  -20.5859  -28.3675   23.1319 C   0  0  2  0  0  0
  -20.6760  -26.9409   22.5430 C   0  0  0  0  0  0
  -19.5739  -26.6388   21.5221 C   0  0  0  0  0  0
  -18.1915  -26.7925   22.1624 C   0  0  0  0  0  0
  -19.1518  -28.8844   23.2900 C   0  0  0  0  0  0
  -18.9450  -30.1444   23.8916 C   0  0  0  0  0  0
  -17.6451  -30.6589   24.0571 C   0  0  0  0  0  0
  -25.9038  -34.9469   23.5119 C   0  0  0  0  0  0
  -16.5344  -29.9098   23.6325 C   0  0  0  0  0  0
  -16.7262  -28.6514   23.0338 C   0  0  0  0  0  0
  -26.4496  -31.6611   25.0717 C   0  0  0  0  0  0
  -25.3768  -31.3694   26.1462 C   0  0  0  0  0  0
  -27.0397  -30.3071   24.6113 C   0  0  0  0  0  0
  -27.6032  -32.4362   25.7499 C   0  0  0  0  0  0
  -27.5578  -37.1803   24.8459 C   0  0  0  0  0  0
  -21.4133  -29.3035   22.3717 N   0  0  0  0  0  0
  -26.4298  -37.3792   23.9391 N   0  0  0  0  0  0
  -24.6699  -31.0745   22.0995 N   0  0  0  0  0  0
  -23.4168  -28.8206   23.3043 O   0  0  0  0  0  0
  -28.3718  -26.6382   20.0858 O   0  0  0  0  0  0
  -26.5619  -34.8931   22.4692 O   0  0  0  0  0  0
  -23.5362  -32.1402   23.7499 O   0  0  0  0  0  0
  -29.5658  -19.2559   21.4885 C   0  0  0  0  0  0
  -29.9566  -16.8665   21.1808 C   0  0  0  0  0  0
  -30.1382  -23.4891   22.6903 C   0  0  0  0  0  0
  -29.1763  -20.6078   22.0611 C   0  0  0  0  0  0
  -28.9906  -24.2039   20.5104 C   0  0  0  0  0  0
  -28.3544  -25.5408   21.0229 C   0  0  0  0  0  0
  -29.1116  -23.0805   21.6038 C   0  0  1  0  0  0
  -30.6006  -18.9997   20.6644 N   0  0  0  0  0  0
  -30.8261  -17.6222   20.4842 N   0  0  0  0  0  0
  -29.9361  -15.4379   21.2214 N   0  0  0  0  0  0
  -29.4138  -21.7025   21.0710 N   0  3  0  0  0  0
  -28.7490  -17.7955   22.0615 S   0  0  0  0  0  0
  -31.4812  -12.4470   19.1214 H   0  0  0  0  0  0
  -30.3632  -11.3122   19.8209 H   0  0  0  0  0  0
  -29.7459  -11.7786   17.4347 H   0  0  0  0  0  0
  -29.6653  -13.4887   17.7614 H   0  0  0  0  0  0
  -27.8357  -11.3066   18.8152 H   0  0  0  0  0  0
  -27.3720  -12.6374   17.7887 H   0  0  0  0  0  0
  -27.7130  -14.2499   19.5826 H   0  0  0  0  0  0
  -28.6925  -11.9236   21.3086 H   0  0  0  0  0  0
  -28.4548  -13.5366   21.8904 H   0  0  0  0  0  0
  -25.2767   -9.5674   22.4756 H   0  0  0  0  0  0
  -23.9980   -7.4647   22.7496 H   0  0  0  0  0  0
  -21.0820   -8.8803   19.8973 H   0  0  0  0  0  0
  -22.3708  -10.9681   19.6170 H   0  0  0  0  0  0
  -21.2025   -7.6155   23.9723 H   0  0  0  0  0  0
  -21.1469   -6.0524   25.9078 H   0  0  0  0  0  0
  -22.0594   -2.7608   23.2860 H   0  0  0  0  0  0
  -22.4086  -11.9936   22.4794 H   0  0  0  0  0  0
  -21.1122  -13.1331   22.2582 H   0  0  0  0  0  0
  -24.6595  -15.8366   20.5081 H   0  0  0  0  0  0
  -26.2745  -15.6282   20.0630 H   0  0  0  0  0  0
  -26.7111  -32.5528   23.1135 H   0  0  0  0  0  0
  -24.9973  -33.9769   25.0396 H   0  0  0  0  0  0
  -22.6958  -31.3064   21.4099 H   0  0  0  0  0  0
  -23.3738  -35.9678   23.3319 H   0  0  0  0  0  0
  -24.3576  -36.8938   22.2048 H   0  0  0  0  0  0
  -23.7268  -37.6540   23.6657 H   0  0  0  0  0  0
  -26.0525  -31.5944   20.5981 H   0  0  0  0  0  0
  -26.8207  -30.8793   21.9866 H   0  0  0  0  0  0
  -28.1112  -29.0919   21.1570 H   0  0  0  0  0  0
  -26.0605  -25.9507   19.0380 H   0  0  0  0  0  0
  -23.9748  -27.2819   19.0516 H   0  0  0  0  0  0
  -23.7203  -30.5922   19.4045 H   0  0  0  0  0  0
  -22.7366  -29.2375   19.8722 H   0  0  0  0  0  0
  -25.1290  -36.1971   25.0821 H   0  0  0  0  0  0
  -20.9950  -28.3245   24.1438 H   0  0  0  0  0  0
  -20.5669  -26.2275   23.3609 H   0  0  0  0  0  0
  -21.6627  -26.7453   22.1212 H   0  0  0  0  0  0
  -19.6905  -25.6307   21.1229 H   0  0  0  0  0  0
  -19.6677  -27.3212   20.6762 H   0  0  0  0  0  0
  -17.4182  -26.6671   21.4033 H   0  0  0  0  0  0
  -18.0323  -26.0071   22.9028 H   0  0  0  0  0  0
  -19.7931  -30.7253   24.2289 H   0  0  0  0  0  0
  -17.5017  -31.6267   24.5177 H   0  0  0  0  0  0
  -15.5348  -30.3007   23.7650 H   0  0  0  0  0  0
  -15.8654  -28.0855   22.7032 H   0  0  0  0  0  0
  -24.6042  -30.6903   25.7835 H   0  0  0  0  0  0
  -24.8842  -32.2828   26.4804 H   0  0  0  0  0  0
  -25.8157  -30.9008   27.0278 H   0  0  0  0  0  0
  -26.2973  -29.6778   24.1186 H   0  0  0  0  0  0
  -27.4232  -29.7360   25.4574 H   0  0  0  0  0  0
  -27.8763  -30.4443   23.9255 H   0  0  0  0  0  0
  -27.2572  -33.3563   26.2235 H   0  0  0  0  0  0
  -28.3771  -32.7107   25.0318 H   0  0  0  0  0  0
  -28.0815  -31.8423   26.5302 H   0  0  0  0  0  0
  -28.2597  -38.0095   24.7505 H   0  0  0  0  0  0
  -28.1070  -36.2622   24.6292 H   0  0  0  0  0  0
  -27.2291  -37.1468   25.8862 H   0  0  0  0  0  0
  -20.9300  -29.8734   21.6913 H   0  0  0  0  0  0
  -26.0186  -38.2877   24.1383 H   0  0  0  0  0  0
  -29.9291  -24.4716   23.1100 H   0  0  0  0  0  0
  -31.1528  -23.5163   22.2937 H   0  0  0  0  0  0
  -30.1349  -22.8138   23.5434 H   0  0  0  0  0  0
  -29.7655  -20.7523   22.9647 H   0  0  0  0  0  0
  -28.1262  -20.5846   22.3548 H   0  0  0  0  0  0
  -29.9736  -24.4096   20.0876 H   0  0  0  0  0  0
  -28.3809  -23.8403   19.6826 H   0  0  0  0  0  0
  -28.8885  -25.9062   21.8985 H   0  0  0  0  0  0
  -27.3411  -25.3287   21.3681 H   0  0  0  0  0  0
  -28.1304  -23.0138   22.0789 H   0  0  0  0  0  0
  -29.1249  -15.0549   21.6779 H   0  0  0  0  0  0
  -28.8230  -21.5120   20.2778 H   0  0  0  0  0  0
  -30.3682  -21.6403   20.7547 H   0  0  0  0  0  0
  1 25  1  0  0  0
  1 30  2  0  0  0
  1 80  1  0  0  0
  2  3  1  0  0  0
  2 25  1  0  0  0
  2 83  1  0  0  0
  2 84  1  0  0  0
  3  4  1  0  0  0
  3 85  1  0  0  0
  3 86  1  0  0  0
  4  5  1  0  0  0
  4 87  1  0  0  0
  4 88  1  0  0  0
  5  6  1  0  0  0
  5 26  1  0  0  0
  5 89  1  0  0  0
  6 25  1  0  0  0
  6 90  1  0  0  0
  6 91  1  0  0  0
  7  8  2  0  0  0
  7 26  1  0  0  0
  7 29  1  0  0  0
  8  9  1  0  0  0
  8 22  1  0  0  0
  9 10  1  0  0  0
  9 27  2  0  0  0
 10 11  2  0  0  0
 10 15  1  0  0  0
 11 12  1  0  0  0
 11 92  1  0  0  0
 12 13  2  0  0  0
 12 93  1  0  0  0
 13 14  1  0  0  0
 13 31  1  0  0  0
 14 15  2  0  0  0
 14 94  1  0  0  0
 15 95  1  0  0  0
 16 17  2  0  0  0
 16 21  1  0  0  0
 16 31  1  0  0  0
 17 18  1  0  0  0
 17 96  1  0  0  0
 18 19  2  0  0  0
 18 97  1  0  0  0
 19 20  1  0  0  0
 19 24  1  0  0  0
 20 21  2  0  0  0
 20 98  1  0  0  0
 21 23  1  0  0  0
 22 28  1  0  0  0
 22 32  2  0  0  0
 26 27  1  0  0  0
 28 99  1  0  0  0
 28100  1  0  0  0
 29101  1  0  0  0
 29102  1  0  0  0
 33 34  1  0  0  0
 33 66  1  0  0  0
 33 70  2  0  0  0
 34 36  1  0  0  0
 34 59  1  0  0  0
 34103  1  0  0  0
 35 44  2  0  0  0
 35 45  1  0  0  0
 35 68  1  0  0  0
 36 56  1  0  0  0
 36104  1  0  0  0
 37 39  1  0  0  0
 37 47  1  0  0  0
 37 66  1  0  0  0
 37105  1  0  0  0
 38 43  2  0  0  0
 38 46  1  0  0  0
 38 47  1  0  0  0
 39 64  1  0  0  0
 39 67  2  0  0  0
 40 52  1  0  0  0
 40 53  2  0  0  0
 40 58  1  0  0  0
 41106  1  0  0  0
 41107  1  0  0  0
 41108  1  0  0  0
 41 48  1  0  0  0
 42 43  1  0  0  0
 42 66  1  0  0  0
 42109  1  0  0  0
 42110  1  0  0  0
 43 44  1  0  0  0
 44111  1  0  0  0
 45 46  2  0  0  0
 45112  1  0  0  0
 46113  1  0  0  0
 47114  1  0  0  0
 47115  1  0  0  0
 48 56  1  0  0  0
 48 65  1  0  0  0
 48116  1  0  0  0
 49 50  1  0  0  0
 49 53  1  0  0  0
 49 64  1  0  0  0
 49117  1  0  0  0
 50 51  1  0  0  0
 50118  1  0  0  0
 50119  1  0  0  0
 51 52  1  0  0  0
 51120  1  0  0  0
 51121  1  0  0  0
 52122  1  0  0  0
 52123  1  0  0  0
 53 54  1  0  0  0
 54 55  2  0  0  0
 54124  1  0  0  0
 55 57  1  0  0  0
 55125  1  0  0  0
 56 69  2  0  0  0
 57 58  2  0  0  0
 57126  1  0  0  0
 58127  1  0  0  0
 59 60  1  0  0  0
 59 61  1  0  0  0
 59 62  1  0  0  0
 60128  1  0  0  0
 60129  1  0  0  0
 60130  1  0  0  0
 61131  1  0  0  0
 61132  1  0  0  0
 61133  1  0  0  0
 62134  1  0  0  0
 62135  1  0  0  0
 62136  1  0  0  0
 63 65  1  0  0  0
 63137  1  0  0  0
 63138  1  0  0  0
 63139  1  0  0  0
 64140  1  0  0  0
 65141  1  0  0  0
 68 76  1  0  0  0
 71 74  1  0  0  0
 71 78  2  0  0  0
 71 82  1  0  0  0
 72 79  2  0  0  0
 72 80  1  0  0  0
 72 82  1  0  0  0
 73142  1  0  0  0
 73143  1  0  0  0
 73144  1  0  0  0
 73 77  1  0  0  0
 74 81  1  0  0  0
 74145  1  0  0  0
 74146  1  0  0  0
 75 76  1  0  0  0
 75 77  1  0  0  0
 75147  1  0  0  0
 75148  1  0  0  0
 76149  1  0  0  0
 76150  1  0  0  0
 77 81  1  0  0  0
 77151  1  0  0  0
 78 79  1  0  0  0
 80152  1  0  0  0
 81153  1  0  0  0
 81154  1  0  0  0
M  CHG  1  81   1
M  ISO  4   1 100  68 101  76 101  80 100
M  END
> <chiral flag>
0

> <version>
0

> <s_m_source_file>
/data/baiqing/PycharmProjects/Reinvent-master-3.2/result/LINK_invent/BTK/process_docking_weight1_custom_product_contain_oxygen_bond_distance_aromatic_linkinvent_7_9_3/rearranged_h_0195.sdf

> <i_m_source_file_index>
58

> <r_mmod_Potential_Energy-OPLS-2005>
-362.945373535156

> <r_mmod_Stretch_Energy-OPLS-2005>
43.6570892333984

> <r_mmod_Bend_Energy-OPLS-2005>
119.558433532715

> <r_mmod_Torsional_Energy-OPLS-2005>
231.225723266602

> <r_mmod_Improper_Torsional_Energy-OPLS-2005>
3.3919506072998

> <r_mmod_Van_der_Waal_Energy-OPLS-2005>
128.277496337891

> <r_mmod_Electrostatic_Energy-OPLS-2005>
-389.243774414062

> <r_mmod_Solvation_Energy-OPLS-2005>
-515.056823730469

> <b_mmod_Minimization_Converged-OPLS-2005>
0

> <r_mmod_RMS_Derivative-OPLS-2005>
1.74315321445465

$$$$
58
                    3D
 Structure written by MMmdl.
154162  0  0  1  0            999 V2000
  -30.6645  -14.5390   20.4813 C   0  0  0  0  0  0
  -30.4184  -12.3179   19.4511 C   0  0  0  0  0  0
  -29.5044  -12.4922   18.2183 C   0  0  0  0  0  0
  -28.0196  -12.3661   18.6187 C   0  0  0  0  0  0
  -27.6533  -13.2185   19.8641 C   0  0  2  0  0  0
  -28.6936  -13.0458   20.9946 C   0  0  0  0  0  0
  -25.2558  -13.8192   20.5697 C   0  0  0  0  0  0
  -24.1829  -13.0447   20.9201 C   0  0  0  0  0  0
  -24.6399  -11.6914   20.8727 C   0  0  0  0  0  0
  -23.9070  -10.4296   21.0392 C   0  0  0  0  0  0
  -24.3627   -9.4211   21.9163 C   0  0  0  0  0  0
  -23.6314   -8.2237   22.0736 C   0  0  0  0  0  0
  -22.4293   -8.0279   21.3521 C   0  0  0  0  0  0
  -21.9920   -9.0251   20.4623 C   0  0  0  0  0  0
  -22.7246  -10.2136   20.3034 C   0  0  0  0  0  0
  -21.6869   -6.0740   22.5271 C   0  0  0  0  0  0
  -21.4024   -6.5636   23.8208 C   0  0  0  0  0  0
  -21.3650   -5.6783   24.9160 C   0  0  0  0  0  0
  -21.6054   -4.3048   24.7208 C   0  0  0  0  0  0
  -21.8818   -3.8140   23.4319 C   0  0  0  0  0  0
  -21.9197   -4.6965   22.3386 C   0  0  0  0  0  0
  -22.7843  -13.5239   21.1863 C   0  0  0  0  0  0
  -22.1661   -4.2155   21.0962 F   0  0  0  0  0  0
  -21.5619   -3.4533   25.7712 F   0  0  0  0  0  0
  -30.0205  -13.3369   20.4374 N   0  0  0  0  0  0
  -26.2986  -12.9376   20.3312 N   0  0  0  0  0  0
  -25.9333  -11.6522   20.5739 N   0  0  0  0  0  0
  -22.0488  -12.8220   22.0419 N   0  0  0  0  0  0
  -25.4269  -15.1914   20.4106 N   0  0  0  0  0  0
  -31.8502  -14.6469   20.1466 O   0  0  0  0  0  0
  -21.6633   -6.8887   21.4241 O   0  0  0  0  0  0
  -22.3520  -14.5535   20.6694 O   0  0  0  0  0  0
  -24.6169  -31.8663   23.2058 C   0  0  0  0  0  0
  -25.9048  -32.4812   23.8379 C   0  0  1  0  0  0
  -27.2282  -27.4029   20.1243 C   0  0  0  0  0  0
  -25.5887  -33.8613   24.2283 N   0  0  0  0  0  0
  -23.4086  -30.4874   21.5467 C   0  0  2  0  0  0
  -24.8566  -28.9465   20.1166 C   0  0  0  0  0  0
  -22.7429  -29.4652   22.4966 C   0  0  0  0  0  0
  -18.0272  -28.1397   22.8483 C   0  0  0  0  0  0
  -24.1485  -36.7317   23.2642 C   0  0  0  0  0  0
  -25.9400  -30.8238   21.3658 C   0  0  0  0  0  0
  -26.0175  -29.4558   20.7128 C   0  0  0  0  0  0
  -27.2097  -28.6928   20.7075 C   0  0  0  0  0  0
  -26.0537  -26.9115   19.5212 C   0  0  0  0  0  0
  -24.8706  -27.6760   19.5132 C   0  0  0  0  0  0
  -23.6209  -29.8173   20.1622 C   0  0  0  0  0  0
  -25.4108  -36.3110   24.0337 C   0  0  1  0  0  0
  -20.5867  -28.3690   23.1309 C   0  0  2  0  0  0
  -20.6770  -26.9431   22.5423 C   0  0  0  0  0  0
  -19.5747  -26.6398   21.5226 C   0  0  0  0  0  0
  -18.1919  -26.7938   22.1630 C   0  0  0  0  0  0
  -19.1522  -28.8860   23.2887 C   0  0  0  0  0  0
  -18.9451  -30.1464   23.8891 C   0  0  0  0  0  0
  -17.6456  -30.6607   24.0579 C   0  0  0  0  0  0
  -25.9042  -34.9478   23.5112 C   0  0  0  0  0  0
  -16.5348  -29.9118   23.6335 C   0  0  0  0  0  0
  -16.7261  -28.6547   23.0331 C   0  0  0  0  0  0
  -26.4453  -31.6609   25.0730 C   0  0  0  0  0  0
  -25.3695  -31.3758   26.1463 C   0  0  0  0  0  0
  -27.0300  -30.3030   24.6168 C   0  0  0  0  0  0
  -27.6017  -32.4346   25.7494 C   0  0  0  0  0  0
  -27.5588  -37.1811   24.8456 C   0  0  0  0  0  0
  -21.4153  -29.3051   22.3708 N   0  0  0  0  0  0
  -26.4285  -37.3806   23.9423 N   0  0  0  0  0  0
  -24.6734  -31.0745   22.0971 N   0  0  0  0  0  0
  -23.4183  -28.8199   23.3031 O   0  0  0  0  0  0
  -28.3671  -26.6238   20.1332 O   0  0  0  0  0  0
  -26.5628  -34.8947   22.4686 O   0  0  0  0  0  0
  -23.5345  -32.1417   23.7419 O   0  0  0  0  0  0
  -30.2084  -17.9794   18.0951 C   0  0  0  0  0  0
  -29.8751  -19.1995   18.6942 C   0  0  0  0  0  0
  -29.4886  -19.1481   20.0496 C   0  0  0  0  0  0
  -29.8930  -16.8477   20.0647 C   0  0  0  0  0  0
  -28.2983  -24.0676   20.1153 C   0  0  0  0  0  0
  -28.4037  -21.4346   20.1768 C   0  0  0  0  0  0
  -28.2955  -25.4064   20.9208 C   0  0  0  0  0  0
  -28.6740  -22.7759   20.9246 C   0  0  1  0  0  0
  -30.2027  -16.8173   18.7721 N   0  0  0  0  0  0
  -29.5041  -17.9600   20.7208 N   0  0  0  0  0  0
  -29.1032  -20.2882   20.7966 N   0  0  0  0  0  0
  -29.8916  -15.6287   20.7370 N   0  0  0  0  0  0
  -30.0654  -22.7882   21.2190 O   0  0  0  0  0  0
  -29.9749  -20.3448   17.9749 F   0  0  0  0  0  0
  -31.4668  -12.4031   19.1595 H   0  0  0  0  0  0
  -30.3038  -11.3180   19.8742 H   0  0  0  0  0  0
  -29.7522  -11.7508   17.4573 H   0  0  0  0  0  0
  -29.6835  -13.4675   17.7622 H   0  0  0  0  0  0
  -27.8209  -11.3125   18.8186 H   0  0  0  0  0  0
  -27.3793  -12.6364   17.7769 H   0  0  0  0  0  0
  -27.6821  -14.2603   19.5453 H   0  0  0  0  0  0
  -28.6729  -12.0255   21.3811 H   0  0  0  0  0  0
  -28.4622  -13.6901   21.8430 H   0  0  0  0  0  0
  -25.2774   -9.5699   22.4730 H   0  0  0  0  0  0
  -24.0031   -7.4630   22.7458 H   0  0  0  0  0  0
  -21.0840   -8.8776   19.8935 H   0  0  0  0  0  0
  -22.3706  -10.9673   19.6133 H   0  0  0  0  0  0
  -21.2022   -7.6147   23.9724 H   0  0  0  0  0  0
  -21.1481   -6.0494   25.9070 H   0  0  0  0  0  0
  -22.0608   -2.7610   23.2806 H   0  0  0  0  0  0
  -22.4116  -11.9887   22.4806 H   0  0  0  0  0  0
  -21.1089  -13.1216   22.2609 H   0  0  0  0  0  0
  -24.6633  -15.8498   20.5248 H   0  0  0  0  0  0
  -26.2736  -15.6299   20.0724 H   0  0  0  0  0  0
  -26.7131  -32.5509   23.1161 H   0  0  0  0  0  0
  -25.0010  -33.9764   25.0406 H   0  0  0  0  0  0
  -22.6994  -31.3055   21.4038 H   0  0  0  0  0  0
  -23.3760  -35.9637   23.3275 H   0  0  0  0  0  0
  -24.3590  -36.8951   22.2062 H   0  0  0  0  0  0
  -23.7219  -37.6509   23.6671 H   0  0  0  0  0  0
  -26.0589  -31.5900   20.5990 H   0  0  0  0  0  0
  -26.8245  -30.8752   21.9891 H   0  0  0  0  0  0
  -28.1056  -29.0786   21.1739 H   0  0  0  0  0  0
  -26.0532  -25.9332   19.0643 H   0  0  0  0  0  0
  -23.9794  -27.2756   19.0501 H   0  0  0  0  0  0
  -23.7375  -30.5921   19.4035 H   0  0  0  0  0  0
  -22.7448  -29.2402   19.8602 H   0  0  0  0  0  0
  -25.1281  -36.1974   25.0831 H   0  0  0  0  0  0
  -20.9943  -28.3274   24.1437 H   0  0  0  0  0  0
  -20.5709  -26.2311   23.3616 H   0  0  0  0  0  0
  -21.6640  -26.7510   22.1200 H   0  0  0  0  0  0
  -19.6925  -25.6313   21.1252 H   0  0  0  0  0  0
  -19.6677  -27.3218   20.6759 H   0  0  0  0  0  0
  -17.4202  -26.6679   21.4022 H   0  0  0  0  0  0
  -18.0320  -26.0087   22.9034 H   0  0  0  0  0  0
  -19.7930  -30.7276   24.2250 H   0  0  0  0  0  0
  -17.5028  -31.6276   24.5204 H   0  0  0  0  0  0
  -15.5349  -30.3031   23.7663 H   0  0  0  0  0  0
  -15.8660  -28.0895   22.7004 H   0  0  0  0  0  0
  -24.5818  -30.7169   25.7786 H   0  0  0  0  0  0
  -24.8957  -32.2945   26.4931 H   0  0  0  0  0  0
  -25.8004  -30.8884   27.0214 H   0  0  0  0  0  0
  -26.2885  -29.6797   24.1153 H   0  0  0  0  0  0
  -27.3956  -29.7265   25.4679 H   0  0  0  0  0  0
  -27.8762  -30.4309   23.9410 H   0  0  0  0  0  0
  -27.2602  -33.3613   26.2114 H   0  0  0  0  0  0
  -28.3800  -32.6959   25.0313 H   0  0  0  0  0  0
  -28.0724  -31.8464   26.5374 H   0  0  0  0  0  0
  -28.2584  -38.0131   24.7562 H   0  0  0  0  0  0
  -28.1099  -36.2676   24.6195 H   0  0  0  0  0  0
  -27.2326  -37.1361   25.8858 H   0  0  0  0  0  0
  -20.9327  -29.8755   21.6901 H   0  0  0  0  0  0
  -26.0166  -38.2878   24.1444 H   0  0  0  0  0  0
  -30.4989  -17.9335   17.0551 H   0  0  0  0  0  0
  -28.9713  -24.1622   19.2611 H   0  0  0  0  0  0
  -27.3049  -23.9347   19.6847 H   0  0  0  0  0  0
  -28.6663  -21.5750   19.1346 H   0  0  0  0  0  0
  -27.3321  -21.2271   20.1799 H   0  0  0  0  0  0
  -29.1623  -25.4276   21.5827 H   0  0  0  0  0  0
  -27.4323  -25.4173   21.5909 H   0  0  0  0  0  0
  -28.1211  -22.7734   21.8669 H   0  0  0  0  0  0
  -29.8744  -20.6528   21.3497 H   0  0  0  0  0  0
  -29.0502  -15.4480   21.2553 H   0  0  0  0  0  0
  -30.2437  -23.5282   21.7917 H   0  0  0  0  0  0
  1 25  1  0  0  0
  1 30  2  0  0  0
  1 82  1  0  0  0
  2  3  1  0  0  0
  2 25  1  0  0  0
  2 85  1  0  0  0
  2 86  1  0  0  0
  3  4  1  0  0  0
  3 87  1  0  0  0
  3 88  1  0  0  0
  4  5  1  0  0  0
  4 89  1  0  0  0
  4 90  1  0  0  0
  5  6  1  0  0  0
  5 26  1  0  0  0
  5 91  1  0  0  0
  6 25  1  0  0  0
  6 92  1  0  0  0
  6 93  1  0  0  0
  7  8  2  0  0  0
  7 26  1  0  0  0
  7 29  1  0  0  0
  8  9  1  0  0  0
  8 22  1  0  0  0
  9 10  1  0  0  0
  9 27  2  0  0  0
 10 11  2  0  0  0
 10 15  1  0  0  0
 11 12  1  0  0  0
 11 94  1  0  0  0
 12 13  2  0  0  0
 12 95  1  0  0  0
 13 14  1  0  0  0
 13 31  1  0  0  0
 14 15  2  0  0  0
 14 96  1  0  0  0
 15 97  1  0  0  0
 16 17  2  0  0  0
 16 21  1  0  0  0
 16 31  1  0  0  0
 17 18  1  0  0  0
 17 98  1  0  0  0
 18 19  2  0  0  0
 18 99  1  0  0  0
 19 20  1  0  0  0
 19 24  1  0  0  0
 20 21  2  0  0  0
 20100  1  0  0  0
 21 23  1  0  0  0
 22 28  1  0  0  0
 22 32  2  0  0  0
 26 27  1  0  0  0
 28101  1  0  0  0
 28102  1  0  0  0
 29103  1  0  0  0
 29104  1  0  0  0
 33 34  1  0  0  0
 33 66  1  0  0  0
 33 70  2  0  0  0
 34 36  1  0  0  0
 34 59  1  0  0  0
 34105  1  0  0  0
 35 44  2  0  0  0
 35 45  1  0  0  0
 35 68  1  0  0  0
 36 56  1  0  0  0
 36106  1  0  0  0
 37 39  1  0  0  0
 37 47  1  0  0  0
 37 66  1  0  0  0
 37107  1  0  0  0
 38 43  2  0  0  0
 38 46  1  0  0  0
 38 47  1  0  0  0
 39 64  1  0  0  0
 39 67  2  0  0  0
 40 52  1  0  0  0
 40 53  2  0  0  0
 40 58  1  0  0  0
 41108  1  0  0  0
 41109  1  0  0  0
 41110  1  0  0  0
 41 48  1  0  0  0
 42 43  1  0  0  0
 42 66  1  0  0  0
 42111  1  0  0  0
 42112  1  0  0  0
 43 44  1  0  0  0
 44113  1  0  0  0
 45 46  2  0  0  0
 45114  1  0  0  0
 46115  1  0  0  0
 47116  1  0  0  0
 47117  1  0  0  0
 48 56  1  0  0  0
 48 65  1  0  0  0
 48118  1  0  0  0
 49 50  1  0  0  0
 49 53  1  0  0  0
 49 64  1  0  0  0
 49119  1  0  0  0
 50 51  1  0  0  0
 50120  1  0  0  0
 50121  1  0  0  0
 51 52  1  0  0  0
 51122  1  0  0  0
 51123  1  0  0  0
 52124  1  0  0  0
 52125  1  0  0  0
 53 54  1  0  0  0
 54 55  2  0  0  0
 54126  1  0  0  0
 55 57  1  0  0  0
 55127  1  0  0  0
 56 69  2  0  0  0
 57 58  2  0  0  0
 57128  1  0  0  0
 58129  1  0  0  0
 59 60  1  0  0  0
 59 61  1  0  0  0
 59 62  1  0  0  0
 60130  1  0  0  0
 60131  1  0  0  0
 60132  1  0  0  0
 61133  1  0  0  0
 61134  1  0  0  0
 61135  1  0  0  0
 62136  1  0  0  0
 62137  1  0  0  0
 62138  1  0  0  0
 63 65  1  0  0  0
 63139  1  0  0  0
 63140  1  0  0  0
 63141  1  0  0  0
 64142  1  0  0  0
 65143  1  0  0  0
 68 77  1  0  0  0
 71 72  2  0  0  0
 71 79  1  0  0  0
 71144  1  0  0  0
 72 73  1  0  0  0
 72 84  1  0  0  0
 73 80  2  0  0  0
 73 81  1  0  0  0
 74 79  2  0  0  0
 74 80  1  0  0  0
 74 82  1  0  0  0
 75 77  1  0  0  0
 75 78  1  0  0  0
 75145  1  0  0  0
 75146  1  0  0  0
 76 78  1  0  0  0
 76 81  1  0  0  0
 76147  1  0  0  0
 76148  1  0  0  0
 77149  1  0  0  0
 77150  1  0  0  0
 78 83  1  0  0  0
 78151  1  0  0  0
 81152  1  0  0  0
 82153  1  0  0  0
 83154  1  0  0  0
M  ISO  4   1 100  68 101  77 101  82 100
M  END
> <chiral flag>
0

> <version>
0

> <s_m_source_file>
/data/baiqing/PycharmProjects/Reinvent-master-3.2/result/LINK_invent/BTK/process_docking_weight1_custom_product_contain_oxygen_bond_distance_aromatic_linkinvent_7_9_3/rearranged_h_0195.sdf

> <i_m_source_file_index>
59

> <r_mmod_Potential_Energy-OPLS-2005>
-417.237518310547

> <r_mmod_Stretch_Energy-OPLS-2005>
46.2159843444824

> <r_mmod_Bend_Energy-OPLS-2005>
110.609245300293

> <r_mmod_Torsional_Energy-OPLS-2005>
305.78466796875

> <r_mmod_Improper_Torsional_Energy-OPLS-2005>
10.328465461731

> <r_mmod_Van_der_Waal_Energy-OPLS-2005>
163.339614868164

> <r_mmod_Electrostatic_Energy-OPLS-2005>
-829.435363769531

> <r_mmod_Solvation_Energy-OPLS-2005>
-248.371505737305

> <b_mmod_Minimization_Converged-OPLS-2005>
0

> <r_mmod_RMS_Derivative-OPLS-2005>
2.95064496994019

$$$$
59
                    3D
 Structure written by MMmdl.
164172  0  0  1  0            999 V2000
  -30.4832  -14.8649   20.3982 C   0  0  0  0  0  0
  -30.4384  -12.5307   19.4552 C   0  0  0  0  0  0
  -29.5091  -12.4920   18.2200 C   0  0  0  0  0  0
  -28.0427  -12.2799   18.6499 C   0  0  0  0  0  0
  -27.6278  -13.2054   19.8230 C   0  0  2  0  0  0
  -28.6704  -13.1908   20.9545 C   0  0  0  0  0  0
  -25.2653  -13.7891   20.5905 C   0  0  0  0  0  0
  -24.1848  -13.0304   20.9340 C   0  0  0  0  0  0
  -24.6358  -11.6764   20.8793 C   0  0  0  0  0  0
  -23.9029  -10.4201   21.0435 C   0  0  0  0  0  0
  -24.3598   -9.4118   21.9192 C   0  0  0  0  0  0
  -23.6252   -8.2184   22.0771 C   0  0  0  0  0  0
  -22.4242   -8.0246   21.3558 C   0  0  0  0  0  0
  -21.9875   -9.0218   20.4664 C   0  0  0  0  0  0
  -22.7215  -10.2069   20.3057 C   0  0  0  0  0  0
  -21.6821   -6.0723   22.5286 C   0  0  0  0  0  0
  -21.3982   -6.5634   23.8217 C   0  0  0  0  0  0
  -21.3653   -5.6791   24.9180 C   0  0  0  0  0  0
  -21.6062   -4.3058   24.7225 C   0  0  0  0  0  0
  -21.8825   -3.8144   23.4345 C   0  0  0  0  0  0
  -21.9180   -4.6960   22.3399 C   0  0  0  0  0  0
  -22.7900  -13.5200   21.1953 C   0  0  0  0  0  0
  -22.1666   -4.2153   21.0976 F   0  0  0  0  0  0
  -21.5651   -3.4539   25.7736 F   0  0  0  0  0  0
  -29.9417  -13.5976   20.3587 N   0  0  0  0  0  0
  -26.2910  -12.9072   20.3154 N   0  0  0  0  0  0
  -25.9245  -11.6281   20.5661 N   0  0  0  0  0  0
  -22.0469  -12.8215   22.0461 N   0  0  0  0  0  0
  -25.4723  -15.1462   20.4600 N   0  0  0  0  0  0
  -31.6891  -14.9980   20.1682 O   0  0  0  0  0  0
  -21.6603   -6.8843   21.4246 O   0  0  0  0  0  0
  -22.3700  -14.5534   20.6739 O   0  0  0  0  0  0
  -24.6336  -31.8528   23.1956 C   0  0  0  0  0  0
  -25.9149  -32.4731   23.8290 C   0  0  1  0  0  0
  -27.2502  -27.2703   20.0994 C   0  0  0  0  0  0
  -25.5944  -33.8532   24.2228 N   0  0  0  0  0  0
  -23.4286  -30.4775   21.5361 C   0  0  2  0  0  0
  -24.8799  -28.9102   20.1105 C   0  0  0  0  0  0
  -22.7480  -29.4643   22.4896 C   0  0  0  0  0  0
  -18.0273  -28.1379   22.8418 C   0  0  0  0  0  0
  -24.1495  -36.7274   23.2636 C   0  0  0  0  0  0
  -25.9720  -30.7626   21.3742 C   0  0  0  0  0  0
  -26.0481  -29.3840   20.7191 C   0  0  0  0  0  0
  -27.2271  -28.5746   20.7047 C   0  0  0  0  0  0
  -26.0464  -26.8482   19.4877 C   0  0  0  0  0  0
  -24.8832  -27.6506   19.4899 C   0  0  0  0  0  0
  -23.6476  -29.7974   20.1566 C   0  0  0  0  0  0
  -25.4132  -36.3059   24.0319 C   0  0  1  0  0  0
  -20.5887  -28.3679   23.1230 C   0  0  2  0  0  0
  -20.6811  -26.9417   22.5322 C   0  0  0  0  0  0
  -19.5736  -26.6284   21.5199 C   0  0  0  0  0  0
  -18.1907  -26.7894   22.1578 C   0  0  0  0  0  0
  -19.1521  -28.8842   23.2846 C   0  0  0  0  0  0
  -18.9438  -30.1409   23.8897 C   0  0  0  0  0  0
  -17.6436  -30.6533   24.0541 C   0  0  0  0  0  0
  -25.9051  -34.9424   23.5067 C   0  0  0  0  0  0
  -16.5341  -29.9091   23.6256 C   0  0  0  0  0  0
  -16.7282  -28.6507   23.0276 C   0  0  0  0  0  0
  -26.4517  -31.6571   25.0696 C   0  0  0  0  0  0
  -25.3729  -31.3731   26.1390 C   0  0  0  0  0  0
  -27.0373  -30.3001   24.6185 C   0  0  0  0  0  0
  -27.6050  -32.4316   25.7487 C   0  0  0  0  0  0
  -27.5586  -37.1798   24.8471 C   0  0  0  0  0  0
  -21.4217  -29.3013   22.3607 N   0  0  0  0  0  0
  -26.4297  -37.3760   23.9408 N   0  0  0  0  0  0
  -24.6973  -31.0481   22.0935 N   0  0  0  0  0  0
  -23.4166  -28.8214   23.3038 O   0  0  0  0  0  0
  -28.4074  -26.4530   20.1487 O   0  0  0  0  0  0
  -26.5621  -34.8919   22.4636 O   0  0  0  0  0  0
  -23.5483  -32.1379   23.7225 O   0  0  0  0  0  0
  -27.8734  -21.1601   19.1266 C   0  0  0  0  0  0
  -29.0622  -18.8011   20.0935 C   0  0  0  0  0  0
  -29.0431  -21.2496   19.8885 C   0  0  0  0  0  0
  -27.7457  -18.8497   19.4915 C   0  0  0  0  0  0
  -24.9296  -18.4684   21.1422 C   0  0  0  0  0  0
  -24.3395  -17.4668   18.8546 C   0  0  0  0  0  0
  -27.5781  -23.4969   21.4496 C   0  0  0  0  0  0
  -29.8919  -17.4972   20.6405 C   0  0  0  0  0  0
  -28.5351  -25.0560   19.6050 C   0  0  0  0  0  0
  -25.3405  -18.2991   19.6721 C   0  0  0  0  0  0
  -28.8237  -23.8172   20.6122 C   0  0  2  0  0  0
  -27.2801  -19.9786   18.8937 N   0  0  0  0  0  0
  -29.6649  -20.0605   20.2909 N   0  0  0  0  0  0
  -29.5748  -22.5610   20.1678 N   0  0  0  0  0  0
  -26.7558  -17.8458   19.5581 N   0  0  0  0  0  0
  -29.6125  -15.9701   20.4954 N   0  0  0  0  0  0
  -31.4685  -12.7128   19.1362 H   0  0  0  0  0  0
  -30.4480  -11.5667   19.9662 H   0  0  0  0  0  0
  -29.8177  -11.6957   17.5374 H   0  0  0  0  0  0
  -29.5982  -13.4235   17.6645 H   0  0  0  0  0  0
  -27.9324  -11.2364   18.9490 H   0  0  0  0  0  0
  -27.3727  -12.4219   17.7999 H   0  0  0  0  0  0
  -27.6009  -14.2095   19.4076 H   0  0  0  0  0  0
  -28.7515  -12.2043   21.4079 H   0  0  0  0  0  0
  -28.3752  -13.8765   21.7477 H   0  0  0  0  0  0
  -25.2756   -9.5586   22.4744 H   0  0  0  0  0  0
  -23.9963   -7.4566   22.7468 H   0  0  0  0  0  0
  -21.0819   -8.8732   19.8957 H   0  0  0  0  0  0
  -22.3716  -10.9616   19.6156 H   0  0  0  0  0  0
  -21.1970   -7.6143   23.9713 H   0  0  0  0  0  0
  -21.1470   -6.0522   25.9082 H   0  0  0  0  0  0
  -22.0602   -2.7610   23.2839 H   0  0  0  0  0  0
  -22.4065  -11.9870   22.4846 H   0  0  0  0  0  0
  -21.1070  -13.1222   22.2574 H   0  0  0  0  0  0
  -24.6414  -15.7278   20.5100 H   0  0  0  0  0  0
  -26.0779  -15.4572   19.7121 H   0  0  0  0  0  0
  -26.7219  -32.5388   23.1037 H   0  0  0  0  0  0
  -25.0101  -33.9678   25.0379 H   0  0  0  0  0  0
  -22.7235  -31.2983   21.3845 H   0  0  0  0  0  0
  -23.3748  -35.9613   23.3294 H   0  0  0  0  0  0
  -24.3577  -36.8916   22.2046 H   0  0  0  0  0  0
  -23.7248  -37.6475   23.6675 H   0  0  0  0  0  0
  -26.0988  -31.5227   20.6010 H   0  0  0  0  0  0
  -26.8502  -30.8199   22.0053 H   0  0  0  0  0  0
  -28.1262  -28.9389   21.1809 H   0  0  0  0  0  0
  -25.9705  -25.8857   19.0082 H   0  0  0  0  0  0
  -23.9845  -27.2796   19.0154 H   0  0  0  0  0  0
  -23.7690  -30.5653   19.3913 H   0  0  0  0  0  0
  -22.7647  -29.2273   19.8588 H   0  0  0  0  0  0
  -25.1305  -36.1877   25.0814 H   0  0  0  0  0  0
  -21.0057  -28.3209   24.1330 H   0  0  0  0  0  0
  -20.5936  -26.2222   23.3488 H   0  0  0  0  0  0
  -21.6649  -26.7551   22.0996 H   0  0  0  0  0  0
  -19.6867  -25.6160   21.1298 H   0  0  0  0  0  0
  -19.6653  -27.3040   20.6675 H   0  0  0  0  0  0
  -17.4226  -26.6641   21.3911 H   0  0  0  0  0  0
  -18.0227  -26.0060   22.8992 H   0  0  0  0  0  0
  -19.7898  -30.7213   24.2315 H   0  0  0  0  0  0
  -17.5017  -31.6209   24.5125 H   0  0  0  0  0  0
  -15.5347  -30.3032   23.7525 H   0  0  0  0  0  0
  -15.8701  -28.0816   22.6983 H   0  0  0  0  0  0
  -24.5910  -30.7078   25.7718 H   0  0  0  0  0  0
  -24.8922  -32.2906   26.4793 H   0  0  0  0  0  0
  -25.8030  -30.8925   27.0185 H   0  0  0  0  0  0
  -26.2971  -29.6731   24.1216 H   0  0  0  0  0  0
  -27.4065  -29.7268   25.4699 H   0  0  0  0  0  0
  -27.8824  -30.4274   23.9417 H   0  0  0  0  0  0
  -27.2631  -33.3595   26.2079 H   0  0  0  0  0  0
  -28.3865  -32.6916   25.0334 H   0  0  0  0  0  0
  -28.0705  -31.8426   26.5408 H   0  0  0  0  0  0
  -28.2589  -38.0100   24.7490 H   0  0  0  0  0  0
  -28.1074  -36.2619   24.6305 H   0  0  0  0  0  0
  -27.2281  -37.1451   25.8866 H   0  0  0  0  0  0
  -20.9429  -29.8514   21.6630 H   0  0  0  0  0  0
  -26.0155  -38.2830   24.1422 H   0  0  0  0  0  0
  -27.3849  -22.0343   18.7159 H   0  0  0  0  0  0
  -23.8790  -18.7571   21.2273 H   0  0  0  0  0  0
  -25.5161  -19.2543   21.6213 H   0  0  0  0  0  0
  -25.0732  -17.5526   21.7155 H   0  0  0  0  0  0
  -23.5644  -18.1141   18.4448 H   0  0  0  0  0  0
  -23.7905  -16.7474   19.4563 H   0  0  0  0  0  0
  -24.8100  -16.9499   18.0192 H   0  0  0  0  0  0
  -27.7868  -22.7485   22.2175 H   0  0  0  0  0  0
  -26.7506  -23.1409   20.8356 H   0  0  0  0  0  0
  -27.2343  -24.3962   21.9588 H   0  0  0  0  0  0
  -29.9336  -17.6447   21.7196 H   0  0  0  0  0  0
  -30.9150  -17.6518   20.2910 H   0  0  0  0  0  0
  -29.3997  -25.1132   18.9433 H   0  0  0  0  0  0
  -27.7245  -24.7896   18.9283 H   0  0  0  0  0  0
  -25.1743  -19.2851   19.2412 H   0  0  0  0  0  0
  -29.5362  -24.2423   21.3207 H   0  0  0  0  0  0
  -30.5254  -22.5305   20.5292 H   0  0  0  0  0  0
  -26.9971  -17.1062   20.2066 H   0  0  0  0  0  0
  -28.6464  -15.7130   20.6317 H   0  0  0  0  0  0
  1 25  1  0  0  0
  1 30  2  0  0  0
  1 86  1  0  0  0
  2  3  1  0  0  0
  2 25  1  0  0  0
  2 87  1  0  0  0
  2 88  1  0  0  0
  3  4  1  0  0  0
  3 89  1  0  0  0
  3 90  1  0  0  0
  4  5  1  0  0  0
  4 91  1  0  0  0
  4 92  1  0  0  0
  5  6  1  0  0  0
  5 26  1  0  0  0
  5 93  1  0  0  0
  6 25  1  0  0  0
  6 94  1  0  0  0
  6 95  1  0  0  0
  7  8  2  0  0  0
  7 26  1  0  0  0
  7 29  1  0  0  0
  8  9  1  0  0  0
  8 22  1  0  0  0
  9 10  1  0  0  0
  9 27  2  0  0  0
 10 11  2  0  0  0
 10 15  1  0  0  0
 11 12  1  0  0  0
 11 96  1  0  0  0
 12 13  2  0  0  0
 12 97  1  0  0  0
 13 14  1  0  0  0
 13 31  1  0  0  0
 14 15  2  0  0  0
 14 98  1  0  0  0
 15 99  1  0  0  0
 16 17  2  0  0  0
 16 21  1  0  0  0
 16 31  1  0  0  0
 17 18  1  0  0  0
 17100  1  0  0  0
 18 19  2  0  0  0
 18101  1  0  0  0
 19 20  1  0  0  0
 19 24  1  0  0  0
 20 21  2  0  0  0
 20102  1  0  0  0
 21 23  1  0  0  0
 22 28  1  0  0  0
 22 32  2  0  0  0
 26 27  1  0  0  0
 28103  1  0  0  0
 28104  1  0  0  0
 29105  1  0  0  0
 29106  1  0  0  0
 33 34  1  0  0  0
 33 66  1  0  0  0
 33 70  2  0  0  0
 34 36  1  0  0  0
 34 59  1  0  0  0
 34107  1  0  0  0
 35 44  2  0  0  0
 35 45  1  0  0  0
 35 68  1  0  0  0
 36 56  1  0  0  0
 36108  1  0  0  0
 37 39  1  0  0  0
 37 47  1  0  0  0
 37 66  1  0  0  0
 37109  1  0  0  0
 38 43  2  0  0  0
 38 46  1  0  0  0
 38 47  1  0  0  0
 39 64  1  0  0  0
 39 67  2  0  0  0
 40 52  1  0  0  0
 40 53  2  0  0  0
 40 58  1  0  0  0
 41110  1  0  0  0
 41111  1  0  0  0
 41112  1  0  0  0
 41 48  1  0  0  0
 42 43  1  0  0  0
 42 66  1  0  0  0
 42113  1  0  0  0
 42114  1  0  0  0
 43 44  1  0  0  0
 44115  1  0  0  0
 45 46  2  0  0  0
 45116  1  0  0  0
 46117  1  0  0  0
 47118  1  0  0  0
 47119  1  0  0  0
 48 56  1  0  0  0
 48 65  1  0  0  0
 48120  1  0  0  0
 49 50  1  0  0  0
 49 53  1  0  0  0
 49 64  1  0  0  0
 49121  1  0  0  0
 50 51  1  0  0  0
 50122  1  0  0  0
 50123  1  0  0  0
 51 52  1  0  0  0
 51124  1  0  0  0
 51125  1  0  0  0
 52126  1  0  0  0
 52127  1  0  0  0
 53 54  1  0  0  0
 54 55  2  0  0  0
 54128  1  0  0  0
 55 57  1  0  0  0
 55129  1  0  0  0
 56 69  2  0  0  0
 57 58  2  0  0  0
 57130  1  0  0  0
 58131  1  0  0  0
 59 60  1  0  0  0
 59 61  1  0  0  0
 59 62  1  0  0  0
 60132  1  0  0  0
 60133  1  0  0  0
 60134  1  0  0  0
 61135  1  0  0  0
 61136  1  0  0  0
 61137  1  0  0  0
 62138  1  0  0  0
 62139  1  0  0  0
 62140  1  0  0  0
 63 65  1  0  0  0
 63141  1  0  0  0
 63142  1  0  0  0
 63143  1  0  0  0
 64144  1  0  0  0
 65145  1  0  0  0
 68 79  1  0  0  0
 71 73  2  0  0  0
 71 82  1  0  0  0
 71146  1  0  0  0
 72 74  1  0  0  0
 72 78  1  0  0  0
 72 83  2  0  0  0
 73 83  1  0  0  0
 73 84  1  0  0  0
 74 82  2  0  0  0
 74 85  1  0  0  0
 75147  1  0  0  0
 75148  1  0  0  0
 75149  1  0  0  0
 75 80  1  0  0  0
 76 80  1  0  0  0
 76150  1  0  0  0
 76151  1  0  0  0
 76152  1  0  0  0
 77153  1  0  0  0
 77154  1  0  0  0
 77155  1  0  0  0
 77 81  1  0  0  0
 78 86  1  0  0  0
 78156  1  0  0  0
 78157  1  0  0  0
 79 81  1  0  0  0
 79158  1  0  0  0
 79159  1  0  0  0
 80 85  1  0  0  0
 80160  1  0  0  0
 81 84  1  0  0  0
 81161  1  0  0  0
 84162  1  0  0  0
 85163  1  0  0  0
 86164  1  0  0  0
M  ISO  4   1 100  68 101  79 101  86 100
M  END
> <chiral flag>
0

> <version>
0

> <s_m_source_file>
/data/baiqing/PycharmProjects/Reinvent-master-3.2/result/LINK_invent/BTK/process_docking_weight1_custom_product_contain_oxygen_bond_distance_aromatic_linkinvent_7_9_3/rearranged_h_0195.sdf

> <i_m_source_file_index>
60

> <r_mmod_Potential_Energy-OPLS-2005>
266.034973144531

> <r_mmod_Stretch_Energy-OPLS-2005>
158.68669128418

> <r_mmod_Bend_Energy-OPLS-2005>
252.478424072266

> <r_mmod_Torsional_Energy-OPLS-2005>
237.706756591797

> <r_mmod_Improper_Torsional_Energy-OPLS-2005>
15.9746084213257

> <r_mmod_Van_der_Waal_Energy-OPLS-2005>
150.212173461914

> <r_mmod_Electrostatic_Energy-OPLS-2005>
-444.589630126953

> <r_mmod_Solvation_Energy-OPLS-2005>
-225.282775878906

> <b_mmod_Minimization_Converged-OPLS-2005>
0

> <r_mmod_RMS_Derivative-OPLS-2005>
7.11552047729492

$$$$
60
                    3D
 Structure written by MMmdl.
169177  0  0  1  0            999 V2000
  -30.7302  -14.4796   20.5642 C   0  0  0  0  0  0
  -30.4105  -12.3067   19.4350 C   0  0  0  0  0  0
  -29.4922  -12.5010   18.2120 C   0  0  0  0  0  0
  -28.0144  -12.3619   18.6232 C   0  0  0  0  0  0
  -27.6575  -13.2134   19.8714 C   0  0  2  0  0  0
  -28.6999  -13.0279   20.9987 C   0  0  0  0  0  0
  -25.2566  -13.8176   20.5678 C   0  0  0  0  0  0
  -24.1827  -13.0444   20.9177 C   0  0  0  0  0  0
  -24.6390  -11.6913   20.8736 C   0  0  0  0  0  0
  -23.9060  -10.4293   21.0400 C   0  0  0  0  0  0
  -24.3613   -9.4210   21.9180 C   0  0  0  0  0  0
  -23.6290   -8.2247   22.0756 C   0  0  0  0  0  0
  -22.4275   -8.0280   21.3544 C   0  0  0  0  0  0
  -21.9907   -9.0251   20.4646 C   0  0  0  0  0  0
  -22.7234  -10.2132   20.3052 C   0  0  0  0  0  0
  -21.6853   -6.0733   22.5276 C   0  0  0  0  0  0
  -21.4012   -6.5639   23.8208 C   0  0  0  0  0  0
  -21.3658   -5.6793   24.9171 C   0  0  0  0  0  0
  -21.6045   -4.3055   24.7223 C   0  0  0  0  0  0
  -21.8820   -3.8147   23.4344 C   0  0  0  0  0  0
  -21.9193   -4.6962   22.3400 C   0  0  0  0  0  0
  -22.7848  -13.5236   21.1838 C   0  0  0  0  0  0
  -22.1661   -4.2148   21.0977 F   0  0  0  0  0  0
  -21.5630   -3.4541   25.7736 F   0  0  0  0  0  0
  -30.0306  -13.3154   20.4402 N   0  0  0  0  0  0
  -26.3003  -12.9356   20.3357 N   0  0  0  0  0  0
  -25.9320  -11.6510   20.5773 N   0  0  0  0  0  0
  -22.0491  -12.8228   22.0396 N   0  0  0  0  0  0
  -25.4285  -15.1893   20.4067 N   0  0  0  0  0  0
  -31.8641  -14.5937   20.0878 O   0  0  0  0  0  0
  -21.6640   -6.8877   21.4239 O   0  0  0  0  0  0
  -22.3535  -14.5543   20.6691 O   0  0  0  0  0  0
  -24.6175  -31.8675   23.2119 C   0  0  0  0  0  0
  -25.9063  -32.4816   23.8410 C   0  0  1  0  0  0
  -27.2184  -27.4046   20.0996 C   0  0  0  0  0  0
  -25.5911  -33.8619   24.2335 N   0  0  0  0  0  0
  -23.4056  -30.4964   21.5519 C   0  0  2  0  0  0
  -24.8496  -28.9703   20.1082 C   0  0  0  0  0  0
  -22.7426  -29.4667   22.4962 C   0  0  0  0  0  0
  -18.0280  -28.1376   22.8490 C   0  0  0  0  0  0
  -24.1487  -36.7316   23.2639 C   0  0  0  0  0  0
  -25.9402  -30.8235   21.3732 C   0  0  0  0  0  0
  -26.0133  -29.4597   20.7141 C   0  0  0  0  0  0
  -27.2003  -28.6846   20.7093 C   0  0  0  0  0  0
  -26.0402  -26.9625   19.4488 C   0  0  0  0  0  0
  -24.8599  -27.7220   19.4702 C   0  0  0  0  0  0
  -23.6146  -29.8403   20.1628 C   0  0  0  0  0  0
  -25.4108  -36.3109   24.0337 C   0  0  1  0  0  0
  -20.5875  -28.3672   23.1300 C   0  0  2  0  0  0
  -20.6775  -26.9404   22.5410 C   0  0  0  0  0  0
  -19.5749  -26.6384   21.5212 C   0  0  0  0  0  0
  -18.1925  -26.7923   22.1619 C   0  0  0  0  0  0
  -19.1532  -28.8839   23.2892 C   0  0  0  0  0  0
  -18.9458  -30.1442   23.8908 C   0  0  0  0  0  0
  -17.6462  -30.6581   24.0567 C   0  0  0  0  0  0
  -25.9038  -34.9474   23.5134 C   0  0  0  0  0  0
  -16.5354  -29.9083   23.6330 C   0  0  0  0  0  0
  -16.7270  -28.6501   23.0352 C   0  0  0  0  0  0
  -26.4481  -31.6597   25.0744 C   0  0  0  0  0  0
  -25.3737  -31.3702   26.1484 C   0  0  0  0  0  0
  -27.0320  -30.3037   24.6137 C   0  0  0  0  0  0
  -27.6054  -32.4322   25.7504 C   0  0  0  0  0  0
  -27.5581  -37.1814   24.8462 C   0  0  0  0  0  0
  -21.4151  -29.3040   22.3701 N   0  0  0  0  0  0
  -26.4293  -37.3793   23.9407 N   0  0  0  0  0  0
  -24.6727  -31.0767   22.1030 N   0  0  0  0  0  0
  -23.4195  -28.8198   23.3000 O   0  0  0  0  0  0
  -28.3540  -26.6071   20.1656 O   0  0  0  0  0  0
  -26.5596  -34.8921   22.4692 O   0  0  0  0  0  0
  -23.5362  -32.1442   23.7496 O   0  0  0  0  0  0
  -29.5231  -17.9321   21.1528 C   0  0  0  0  0  0
  -30.4902  -16.8979   21.1806 C   0  0  0  0  0  0
  -29.9676  -19.2680   21.2147 C   0  0  0  0  0  0
  -32.1167  -18.5312   21.3548 C   0  0  0  0  0  0
  -33.5865  -18.8637   21.4868 C   0  0  0  0  0  0
  -29.1367  -20.7991   25.5740 C   0  0  0  0  0  0
  -31.2729  -21.2977   24.3336 C   0  0  0  0  0  0
  -29.0063  -21.7438   23.2257 C   0  0  0  0  0  0
  -28.6290  -22.7879   20.8923 C   0  0  0  0  0  0
  -28.1382  -25.1734   20.0771 C   0  0  0  0  0  0
  -29.8101  -20.8427   24.1928 C   0  0  0  0  0  0
  -29.3857  -21.6890   21.7175 C   0  0  2  0  0  0
  -29.0217  -24.3064   21.0133 C   0  0  1  0  0  0
  -31.7888  -17.2452   21.3169 N   0  0  0  0  0  0
  -31.2731  -19.5509   21.2929 N   0  0  0  0  0  0
  -30.0552  -15.5342   21.0817 N   0  0  0  0  0  0
  -29.0665  -20.3485   21.1759 N   0  0  0  0  0  0
  -28.7424  -24.7997   22.3106 O   0  0  0  0  0  0
  -31.4579  -12.3757   19.1364 H   0  0  0  0  0  0
  -30.2892  -11.3041   19.8481 H   0  0  0  0  0  0
  -29.7344  -11.7719   17.4376 H   0  0  0  0  0  0
  -29.6628  -13.4846   17.7712 H   0  0  0  0  0  0
  -27.8278  -11.3072   18.8286 H   0  0  0  0  0  0
  -27.3645  -12.6268   17.7885 H   0  0  0  0  0  0
  -27.6920  -14.2562   19.5558 H   0  0  0  0  0  0
  -28.6747  -12.0041   21.3748 H   0  0  0  0  0  0
  -28.4635  -13.6605   21.8555 H   0  0  0  0  0  0
  -25.2757   -9.5688   22.4755 H   0  0  0  0  0  0
  -23.9998   -7.4641   22.7479 H   0  0  0  0  0  0
  -21.0840   -8.8765   19.8951 H   0  0  0  0  0  0
  -22.3689  -10.9668   19.6160 H   0  0  0  0  0  0
  -21.2004   -7.6147   23.9709 H   0  0  0  0  0  0
  -21.1479   -6.0525   25.9073 H   0  0  0  0  0  0
  -22.0602   -2.7610   23.2844 H   0  0  0  0  0  0
  -22.4107  -11.9885   22.4775 H   0  0  0  0  0  0
  -21.1110  -13.1254   22.2607 H   0  0  0  0  0  0
  -24.6578  -15.8420   20.5005 H   0  0  0  0  0  0
  -26.2741  -15.6249   20.0609 H   0  0  0  0  0  0
  -26.7134  -32.5518   23.1172 H   0  0  0  0  0  0
  -25.0068  -33.9782   25.0485 H   0  0  0  0  0  0
  -22.6957  -31.3150   21.4178 H   0  0  0  0  0  0
  -23.3745  -35.9654   23.3306 H   0  0  0  0  0  0
  -24.3586  -36.8930   22.2053 H   0  0  0  0  0  0
  -23.7246  -37.6525   23.6654 H   0  0  0  0  0  0
  -26.0631  -31.5912   20.6082 H   0  0  0  0  0  0
  -26.8250  -30.8696   21.9963 H   0  0  0  0  0  0
  -28.0916  -29.0512   21.1993 H   0  0  0  0  0  0
  -26.0041  -26.0233   18.9171 H   0  0  0  0  0  0
  -23.9704  -27.3480   18.9822 H   0  0  0  0  0  0
  -23.7277  -30.6219   19.4104 H   0  0  0  0  0  0
  -22.7361  -29.2671   19.8604 H   0  0  0  0  0  0
  -25.1282  -36.1978   25.0831 H   0  0  0  0  0  0
  -20.9976  -28.3245   24.1417 H   0  0  0  0  0  0
  -20.5691  -26.2276   23.3600 H   0  0  0  0  0  0
  -21.6642  -26.7450   22.1194 H   0  0  0  0  0  0
  -19.6913  -25.6298   21.1232 H   0  0  0  0  0  0
  -19.6691  -27.3200   20.6748 H   0  0  0  0  0  0
  -17.4200  -26.6682   21.4012 H   0  0  0  0  0  0
  -18.0320  -26.0053   22.9003 H   0  0  0  0  0  0
  -19.7935  -30.7250   24.2286 H   0  0  0  0  0  0
  -17.5018  -31.6263   24.5161 H   0  0  0  0  0  0
  -15.5355  -30.2990   23.7644 H   0  0  0  0  0  0
  -15.8670  -28.0826   22.7062 H   0  0  0  0  0  0
  -24.5909  -30.7057   25.7813 H   0  0  0  0  0  0
  -24.8932  -32.2855   26.4947 H   0  0  0  0  0  0
  -25.8081  -30.8854   27.0235 H   0  0  0  0  0  0
  -26.2877  -29.6789   24.1186 H   0  0  0  0  0  0
  -27.4082  -29.7281   25.4604 H   0  0  0  0  0  0
  -27.8715  -30.4356   23.9308 H   0  0  0  0  0  0
  -27.2679  -33.3621   26.2100 H   0  0  0  0  0  0
  -28.3854  -32.6889   25.0322 H   0  0  0  0  0  0
  -28.0732  -31.8433   26.5405 H   0  0  0  0  0  0
  -28.2595  -38.0112   24.7514 H   0  0  0  0  0  0
  -28.1081  -36.2646   24.6286 H   0  0  0  0  0  0
  -27.2301  -37.1464   25.8864 H   0  0  0  0  0  0
  -20.9311  -29.8770   21.6933 H   0  0  0  0  0  0
  -26.0182  -38.2874   24.1402 H   0  0  0  0  0  0
  -28.4699  -17.7038   21.0678 H   0  0  0  0  0  0
  -34.2068  -18.0897   21.0343 H   0  0  0  0  0  0
  -33.8589  -18.9497   22.5383 H   0  0  0  0  0  0
  -33.8201  -19.8083   20.9953 H   0  0  0  0  0  0
  -29.6779  -20.1438   26.2577 H   0  0  0  0  0  0
  -28.1162  -20.4203   25.5035 H   0  0  0  0  0  0
  -29.0914  -21.7892   26.0294 H   0  0  0  0  0  0
  -31.8209  -20.6536   25.0223 H   0  0  0  0  0  0
  -31.3391  -22.3183   24.7119 H   0  0  0  0  0  0
  -31.7986  -21.2663   23.3799 H   0  0  0  0  0  0
  -29.1095  -22.7594   23.5990 H   0  0  0  0  0  0
  -27.9436  -21.5144   23.3214 H   0  0  0  0  0  0
  -27.5592  -22.6853   21.0827 H   0  0  0  0  0  0
  -28.7501  -22.5338   19.8378 H   0  0  0  0  0  0
  -27.1140  -24.8978   20.3307 H   0  0  0  0  0  0
  -28.2931  -24.8712   19.0404 H   0  0  0  0  0  0
  -29.8051  -19.8205   23.8178 H   0  0  0  0  0  0
  -30.4519  -21.8863   21.6067 H   0  0  0  0  0  0
  -30.0776  -24.4509   20.7794 H   0  0  0  0  0  0
  -29.0984  -15.3510   21.3339 H   0  0  0  0  0  0
  -28.0845  -20.1010   21.1401 H   0  0  0  0  0  0
  -28.8086  -25.7496   22.2601 H   0  0  0  0  0  0
  1 25  1  0  0  0
  1 30  2  0  0  0
  1 86  1  0  0  0
  2  3  1  0  0  0
  2 25  1  0  0  0
  2 89  1  0  0  0
  2 90  1  0  0  0
  3  4  1  0  0  0
  3 91  1  0  0  0
  3 92  1  0  0  0
  4  5  1  0  0  0
  4 93  1  0  0  0
  4 94  1  0  0  0
  5  6  1  0  0  0
  5 26  1  0  0  0
  5 95  1  0  0  0
  6 25  1  0  0  0
  6 96  1  0  0  0
  6 97  1  0  0  0
  7  8  2  0  0  0
  7 26  1  0  0  0
  7 29  1  0  0  0
  8  9  1  0  0  0
  8 22  1  0  0  0
  9 10  1  0  0  0
  9 27  2  0  0  0
 10 11  2  0  0  0
 10 15  1  0  0  0
 11 12  1  0  0  0
 11 98  1  0  0  0
 12 13  2  0  0  0
 12 99  1  0  0  0
 13 14  1  0  0  0
 13 31  1  0  0  0
 14 15  2  0  0  0
 14100  1  0  0  0
 15101  1  0  0  0
 16 17  2  0  0  0
 16 21  1  0  0  0
 16 31  1  0  0  0
 17 18  1  0  0  0
 17102  1  0  0  0
 18 19  2  0  0  0
 18103  1  0  0  0
 19 20  1  0  0  0
 19 24  1  0  0  0
 20 21  2  0  0  0
 20104  1  0  0  0
 21 23  1  0  0  0
 22 28  1  0  0  0
 22 32  2  0  0  0
 26 27  1  0  0  0
 28105  1  0  0  0
 28106  1  0  0  0
 29107  1  0  0  0
 29108  1  0  0  0
 33 34  1  0  0  0
 33 66  1  0  0  0
 33 70  2  0  0  0
 34 36  1  0  0  0
 34 59  1  0  0  0
 34109  1  0  0  0
 35 44  2  0  0  0
 35 45  1  0  0  0
 35 68  1  0  0  0
 36 56  1  0  0  0
 36110  1  0  0  0
 37 39  1  0  0  0
 37 47  1  0  0  0
 37 66  1  0  0  0
 37111  1  0  0  0
 38 43  2  0  0  0
 38 46  1  0  0  0
 38 47  1  0  0  0
 39 64  1  0  0  0
 39 67  2  0  0  0
 40 52  1  0  0  0
 40 53  2  0  0  0
 40 58  1  0  0  0
 41112  1  0  0  0
 41113  1  0  0  0
 41114  1  0  0  0
 41 48  1  0  0  0
 42 43  1  0  0  0
 42 66  1  0  0  0
 42115  1  0  0  0
 42116  1  0  0  0
 43 44  1  0  0  0
 44117  1  0  0  0
 45 46  2  0  0  0
 45118  1  0  0  0
 46119  1  0  0  0
 47120  1  0  0  0
 47121  1  0  0  0
 48 56  1  0  0  0
 48 65  1  0  0  0
 48122  1  0  0  0
 49 50  1  0  0  0
 49 53  1  0  0  0
 49 64  1  0  0  0
 49123  1  0  0  0
 50 51  1  0  0  0
 50124  1  0  0  0
 50125  1  0  0  0
 51 52  1  0  0  0
 51126  1  0  0  0
 51127  1  0  0  0
 52128  1  0  0  0
 52129  1  0  0  0
 53 54  1  0  0  0
 54 55  2  0  0  0
 54130  1  0  0  0
 55 57  1  0  0  0
 55131  1  0  0  0
 56 69  2  0  0  0
 57 58  2  0  0  0
 57132  1  0  0  0
 58133  1  0  0  0
 59 60  1  0  0  0
 59 61  1  0  0  0
 59 62  1  0  0  0
 60134  1  0  0  0
 60135  1  0  0  0
 60136  1  0  0  0
 61137  1  0  0  0
 61138  1  0  0  0
 61139  1  0  0  0
 62140  1  0  0  0
 62141  1  0  0  0
 62142  1  0  0  0
 63 65  1  0  0  0
 63143  1  0  0  0
 63144  1  0  0  0
 63145  1  0  0  0
 64146  1  0  0  0
 65147  1  0  0  0
 68 80  1  0  0  0
 71 72  2  0  0  0
 71 73  1  0  0  0
 71148  1  0  0  0
 72 84  1  0  0  0
 72 86  1  0  0  0
 73 85  2  0  0  0
 73 87  1  0  0  0
 74 75  1  0  0  0
 74 84  2  0  0  0
 74 85  1  0  0  0
 75149  1  0  0  0
 75150  1  0  0  0
 75151  1  0  0  0
 76152  1  0  0  0
 76153  1  0  0  0
 76154  1  0  0  0
 76 81  1  0  0  0
 77 81  1  0  0  0
 77155  1  0  0  0
 77156  1  0  0  0
 77157  1  0  0  0
 78 81  1  0  0  0
 78158  1  0  0  0
 78159  1  0  0  0
 78 82  1  0  0  0
 79 82  1  0  0  0
 79 83  1  0  0  0
 79160  1  0  0  0
 79161  1  0  0  0
 80 83  1  0  0  0
 80162  1  0  0  0
 80163  1  0  0  0
 81164  1  0  0  0
 82 87  1  0  0  0
 82165  1  0  0  0
 83 88  1  0  0  0
 83166  1  0  0  0
 86167  1  0  0  0
 87168  1  0  0  0
 88169  1  0  0  0
M  ISO  4   1 100  68 101  80 101  86 100
M  END
> <chiral flag>
0

> <version>
0

> <s_m_source_file>
/data/baiqing/PycharmProjects/Reinvent-master-3.2/result/LINK_invent/BTK/process_docking_weight1_custom_product_contain_oxygen_bond_distance_aromatic_linkinvent_7_9_3/rearranged_h_0195.sdf

> <i_m_source_file_index>
61

> <r_mmod_Potential_Energy-OPLS-2005>
-449.376525878906

> <r_mmod_Stretch_Energy-OPLS-2005>
45.3719711303711

> <r_mmod_Bend_Energy-OPLS-2005>
125.233879089355

> <r_mmod_Torsional_Energy-OPLS-2005>
227.134857177734

> <r_mmod_Improper_Torsional_Energy-OPLS-2005>
5.32022428512573

> <r_mmod_Van_der_Waal_Energy-OPLS-2005>
170.165954589844

> <r_mmod_Electrostatic_Energy-OPLS-2005>
-785.239868164062

> <r_mmod_Solvation_Energy-OPLS-2005>
-257.360809326172

> <b_mmod_Minimization_Converged-OPLS-2005>
0

> <r_mmod_RMS_Derivative-OPLS-2005>
0.686868965625763

$$$$
61
                    3D
 Structure written by MMmdl.
166174  0  0  1  0            999 V2000
  -30.6942  -14.5064   20.5703 C   0  0  0  0  0  0
  -30.4154  -12.3286   19.4257 C   0  0  0  0  0  0
  -29.4893  -12.5100   18.2070 C   0  0  0  0  0  0
  -28.0110  -12.3687   18.6192 C   0  0  0  0  0  0
  -27.6540  -13.2140   19.8710 C   0  0  2  0  0  0
  -28.6962  -13.0202   20.9950 C   0  0  0  0  0  0
  -25.2547  -13.8185   20.5695 C   0  0  0  0  0  0
  -24.1825  -13.0447   20.9200 C   0  0  0  0  0  0
  -24.6393  -11.6916   20.8760 C   0  0  0  0  0  0
  -23.9077  -10.4302   21.0418 C   0  0  0  0  0  0
  -24.3631   -9.4211   21.9188 C   0  0  0  0  0  0
  -23.6307   -8.2243   22.0754 C   0  0  0  0  0  0
  -22.4287   -8.0291   21.3546 C   0  0  0  0  0  0
  -21.9929   -9.0258   20.4645 C   0  0  0  0  0  0
  -22.7254  -10.2138   20.3060 C   0  0  0  0  0  0
  -21.6849   -6.0757   22.5289 C   0  0  0  0  0  0
  -21.4005   -6.5655   23.8227 C   0  0  0  0  0  0
  -21.3661   -5.6806   24.9182 C   0  0  0  0  0  0
  -21.6041   -4.3069   24.7226 C   0  0  0  0  0  0
  -21.8817   -3.8163   23.4344 C   0  0  0  0  0  0
  -21.9193   -4.6984   22.3407 C   0  0  0  0  0  0
  -22.7841  -13.5221   21.1855 C   0  0  0  0  0  0
  -22.1662   -4.2174   21.0983 F   0  0  0  0  0  0
  -21.5627   -3.4548   25.7733 F   0  0  0  0  0  0
  -30.0191  -13.3285   20.4336 N   0  0  0  0  0  0
  -26.2983  -12.9365   20.3360 N   0  0  0  0  0  0
  -25.9316  -11.6523   20.5776 N   0  0  0  0  0  0
  -22.0493  -12.8204   22.0413 N   0  0  0  0  0  0
  -25.4265  -15.1902   20.4085 N   0  0  0  0  0  0
  -31.8354  -14.6426   20.1132 O   0  0  0  0  0  0
  -21.6640   -6.8891   21.4248 O   0  0  0  0  0  0
  -22.3538  -14.5539   20.6718 O   0  0  0  0  0  0
  -24.6157  -31.8657   23.2112 C   0  0  0  0  0  0
  -25.9038  -32.4829   23.8391 C   0  0  1  0  0  0
  -27.2202  -27.4062   20.1073 C   0  0  0  0  0  0
  -25.5885  -33.8630   24.2318 N   0  0  0  0  0  0
  -23.4047  -30.4869   21.5549 C   0  0  2  0  0  0
  -24.8519  -28.9496   20.1209 C   0  0  0  0  0  0
  -22.7425  -29.4603   22.5022 C   0  0  0  0  0  0
  -18.0261  -28.1351   22.8479 C   0  0  0  0  0  0
  -24.1489  -36.7301   23.2641 C   0  0  0  0  0  0
  -25.9347  -30.8204   21.3721 C   0  0  0  0  0  0
  -26.0123  -29.4488   20.7281 C   0  0  0  0  0  0
  -27.2048  -28.6816   20.7245 C   0  0  0  0  0  0
  -26.0511  -26.9314   19.4856 C   0  0  0  0  0  0
  -24.8648  -27.6895   19.4997 C   0  0  0  0  0  0
  -23.6160  -29.8206   20.1691 C   0  0  0  0  0  0
  -25.4122  -36.3115   24.0332 C   0  0  1  0  0  0
  -20.5856  -28.3628   23.1326 C   0  0  2  0  0  0
  -20.6786  -26.9365   22.5425 C   0  0  0  0  0  0
  -19.5770  -26.6352   21.5210 C   0  0  0  0  0  0
  -18.1927  -26.7902   22.1598 C   0  0  0  0  0  0
  -19.1516  -28.8815   23.2889 C   0  0  0  0  0  0
  -18.9450  -30.1421   23.8898 C   0  0  0  0  0  0
  -17.6453  -30.6585   24.0528 C   0  0  0  0  0  0
  -25.9048  -34.9485   23.5131 C   0  0  0  0  0  0
  -16.5344  -29.9066   23.6324 C   0  0  0  0  0  0
  -16.7252  -28.6481   23.0336 C   0  0  0  0  0  0
  -26.4470  -31.6613   25.0726 C   0  0  0  0  0  0
  -25.3706  -31.3725   26.1450 C   0  0  0  0  0  0
  -27.0334  -30.3078   24.6088 C   0  0  0  0  0  0
  -27.6043  -32.4353   25.7486 C   0  0  0  0  0  0
  -27.5591  -37.1797   24.8455 C   0  0  0  0  0  0
  -21.4161  -29.2978   22.3738 N   0  0  0  0  0  0
  -26.4311  -37.3797   23.9407 N   0  0  0  0  0  0
  -24.6701  -31.0733   22.1035 N   0  0  0  0  0  0
  -23.4201  -28.8150   23.3062 O   0  0  0  0  0  0
  -28.3501  -26.6200   20.0386 O   0  0  0  0  0  0
  -26.5605  -34.8923   22.4689 O   0  0  0  0  0  0
  -23.5338  -32.1406   23.7495 O   0  0  0  0  0  0
  -31.3276  -19.3122   21.9104 C   0  0  0  0  0  0
  -32.0053  -18.1659   22.3325 C   0  0  0  0  0  0
  -30.1350  -19.1330   21.2112 C   0  0  0  0  0  0
  -30.4044  -16.8362   21.3582 C   0  0  0  0  0  0
  -33.3273  -18.2523   23.0652 C   0  0  0  0  0  0
  -27.6651  -21.0640   18.2911 C   0  0  0  0  0  0
  -27.3219  -20.1947   19.5104 C   0  0  0  0  0  0
  -27.7289  -21.9478   21.4152 C   0  0  0  0  0  0
  -28.4351  -23.2476   20.8869 C   0  0  0  0  0  0
  -28.6952  -25.8909   21.2257 C   0  0  0  0  0  0
  -28.0762  -20.5385   20.8137 C   0  0  2  0  0  0
  -27.8938  -24.5756   21.5186 C   0  0  2  0  0  0
  -31.5328  -16.9388   22.0611 N   0  0  0  0  0  0
  -29.6553  -17.8861   20.9600 N   0  0  0  0  0  0
  -29.5141  -20.2905   20.7031 N   0  0  0  0  0  0
  -29.9766  -15.5553   21.0500 N   0  0  0  0  0  0
  -27.9052  -24.4155   22.9280 O   0  0  0  0  0  0
  -31.4591  -12.4275   19.1211 H   0  0  0  0  0  0
  -30.3217  -11.3206   19.8334 H   0  0  0  0  0  0
  -29.7298  -11.7797   17.4332 H   0  0  0  0  0  0
  -29.6563  -13.4930   17.7634 H   0  0  0  0  0  0
  -27.8220  -11.3125   18.8174 H   0  0  0  0  0  0
  -27.3609  -12.6425   17.7873 H   0  0  0  0  0  0
  -27.6889  -14.2583   19.5592 H   0  0  0  0  0  0
  -28.6805  -11.9920   21.3590 H   0  0  0  0  0  0
  -28.4577  -13.6408   21.8606 H   0  0  0  0  0  0
  -25.2771   -9.5684   22.4774 H   0  0  0  0  0  0
  -24.0022   -7.4632   22.7469 H   0  0  0  0  0  0
  -21.0868   -8.8778   19.8944 H   0  0  0  0  0  0
  -22.3722  -10.9680   19.6182 H   0  0  0  0  0  0
  -21.1999   -7.6163   23.9733 H   0  0  0  0  0  0
  -21.1477   -6.0533   25.9084 H   0  0  0  0  0  0
  -22.0596   -2.7629   23.2836 H   0  0  0  0  0  0
  -22.4098  -11.9842   22.4775 H   0  0  0  0  0  0
  -21.1108  -13.1219   22.2623 H   0  0  0  0  0  0
  -24.6559  -15.8416   20.5057 H   0  0  0  0  0  0
  -26.2697  -15.6296   20.0628 H   0  0  0  0  0  0
  -26.7104  -32.5540   23.1144 H   0  0  0  0  0  0
  -25.0031  -33.9774   25.0458 H   0  0  0  0  0  0
  -22.6929  -31.3038   21.4188 H   0  0  0  0  0  0
  -23.3756  -35.9619   23.3299 H   0  0  0  0  0  0
  -24.3581  -36.8921   22.2051 H   0  0  0  0  0  0
  -23.7212  -37.6495   23.6668 H   0  0  0  0  0  0
  -26.0424  -31.5837   20.5997 H   0  0  0  0  0  0
  -26.8212  -30.8787   21.9919 H   0  0  0  0  0  0
  -28.1043  -29.0595   21.1908 H   0  0  0  0  0  0
  -26.0553  -25.9672   18.9955 H   0  0  0  0  0  0
  -23.9717  -27.3036   19.0265 H   0  0  0  0  0  0
  -23.7308  -30.5950   19.4118 H   0  0  0  0  0  0
  -22.7382  -29.2480   19.8698 H   0  0  0  0  0  0
  -25.1291  -36.1997   25.0825 H   0  0  0  0  0  0
  -20.9915  -28.3198   24.1461 H   0  0  0  0  0  0
  -20.5739  -26.2202   23.3598 H   0  0  0  0  0  0
  -21.6643  -26.7450   22.1177 H   0  0  0  0  0  0
  -19.6943  -25.6265   21.1218 H   0  0  0  0  0  0
  -19.6732  -27.3198   20.6776 H   0  0  0  0  0  0
  -17.4206  -26.6629   21.3994 H   0  0  0  0  0  0
  -18.0314  -26.0043   22.8997 H   0  0  0  0  0  0
  -19.7947  -30.7222   24.2254 H   0  0  0  0  0  0
  -17.5025  -31.6258   24.5136 H   0  0  0  0  0  0
  -15.5354  -30.2967   23.7671 H   0  0  0  0  0  0
  -15.8641  -28.0820   22.7052 H   0  0  0  0  0  0
  -24.5857  -30.7112   25.7745 H   0  0  0  0  0  0
  -24.8901  -32.2894   26.4895 H   0  0  0  0  0  0
  -25.7997  -30.8863   27.0210 H   0  0  0  0  0  0
  -26.2878  -29.6815   24.1172 H   0  0  0  0  0  0
  -27.4169  -29.7355   25.4531 H   0  0  0  0  0  0
  -27.8677  -30.4423   23.9194 H   0  0  0  0  0  0
  -27.2660  -33.3656   26.2054 H   0  0  0  0  0  0
  -28.3850  -32.6904   25.0308 H   0  0  0  0  0  0
  -28.0699  -31.8478   26.5398 H   0  0  0  0  0  0
  -28.2580  -38.0124   24.7561 H   0  0  0  0  0  0
  -28.1121  -36.2659   24.6237 H   0  0  0  0  0  0
  -27.2300  -37.1375   25.8851 H   0  0  0  0  0  0
  -20.9348  -29.8678   21.6931 H   0  0  0  0  0  0
  -26.0200  -38.2866   24.1458 H   0  0  0  0  0  0
  -31.7350  -20.2951   22.1131 H   0  0  0  0  0  0
  -33.3490  -19.1251   23.7174 H   0  0  0  0  0  0
  -34.1464  -18.3436   22.3512 H   0  0  0  0  0  0
  -33.5043  -17.3681   23.6771 H   0  0  0  0  0  0
  -27.2418  -20.6400   17.3809 H   0  0  0  0  0  0
  -28.7416  -21.1514   18.1414 H   0  0  0  0  0  0
  -27.2480  -22.0636   18.3893 H   0  0  0  0  0  0
  -27.5213  -19.1509   19.2620 H   0  0  0  0  0  0
  -26.2473  -20.2488   19.6911 H   0  0  0  0  0  0
  -26.6496  -22.0881   21.3396 H   0  0  0  0  0  0
  -27.9215  -21.8809   22.4880 H   0  0  0  0  0  0
  -28.3380  -23.3220   19.8054 H   0  0  0  0  0  0
  -29.5036  -23.1692   21.0758 H   0  0  0  0  0  0
  -29.7608  -25.6631   21.1849 H   0  0  0  0  0  0
  -28.5871  -26.5796   22.0651 H   0  0  0  0  0  0
  -27.7065  -19.8193   21.5483 H   0  0  0  0  0  0
  -26.8509  -24.7132   21.2306 H   0  0  0  0  0  0
  -30.0714  -21.1261   20.8224 H   0  0  0  0  0  0
  -28.9962  -15.3836   21.1911 H   0  0  0  0  0  0
  -28.8121  -24.3040   23.1962 H   0  0  0  0  0  0
  1 25  1  0  0  0
  1 30  2  0  0  0
  1 86  1  0  0  0
  2  3  1  0  0  0
  2 25  1  0  0  0
  2 88  1  0  0  0
  2 89  1  0  0  0
  3  4  1  0  0  0
  3 90  1  0  0  0
  3 91  1  0  0  0
  4  5  1  0  0  0
  4 92  1  0  0  0
  4 93  1  0  0  0
  5  6  1  0  0  0
  5 26  1  0  0  0
  5 94  1  0  0  0
  6 25  1  0  0  0
  6 95  1  0  0  0
  6 96  1  0  0  0
  7  8  2  0  0  0
  7 26  1  0  0  0
  7 29  1  0  0  0
  8  9  1  0  0  0
  8 22  1  0  0  0
  9 10  1  0  0  0
  9 27  2  0  0  0
 10 11  2  0  0  0
 10 15  1  0  0  0
 11 12  1  0  0  0
 11 97  1  0  0  0
 12 13  2  0  0  0
 12 98  1  0  0  0
 13 14  1  0  0  0
 13 31  1  0  0  0
 14 15  2  0  0  0
 14 99  1  0  0  0
 15100  1  0  0  0
 16 17  2  0  0  0
 16 21  1  0  0  0
 16 31  1  0  0  0
 17 18  1  0  0  0
 17101  1  0  0  0
 18 19  2  0  0  0
 18102  1  0  0  0
 19 20  1  0  0  0
 19 24  1  0  0  0
 20 21  2  0  0  0
 20103  1  0  0  0
 21 23  1  0  0  0
 22 28  1  0  0  0
 22 32  2  0  0  0
 26 27  1  0  0  0
 28104  1  0  0  0
 28105  1  0  0  0
 29106  1  0  0  0
 29107  1  0  0  0
 33 34  1  0  0  0
 33 66  1  0  0  0
 33 70  2  0  0  0
 34 36  1  0  0  0
 34 59  1  0  0  0
 34108  1  0  0  0
 35 44  2  0  0  0
 35 45  1  0  0  0
 35 68  1  0  0  0
 36 56  1  0  0  0
 36109  1  0  0  0
 37 39  1  0  0  0
 37 47  1  0  0  0
 37 66  1  0  0  0
 37110  1  0  0  0
 38 43  2  0  0  0
 38 46  1  0  0  0
 38 47  1  0  0  0
 39 64  1  0  0  0
 39 67  2  0  0  0
 40 52  1  0  0  0
 40 53  2  0  0  0
 40 58  1  0  0  0
 41111  1  0  0  0
 41112  1  0  0  0
 41113  1  0  0  0
 41 48  1  0  0  0
 42 43  1  0  0  0
 42 66  1  0  0  0
 42114  1  0  0  0
 42115  1  0  0  0
 43 44  1  0  0  0
 44116  1  0  0  0
 45 46  2  0  0  0
 45117  1  0  0  0
 46118  1  0  0  0
 47119  1  0  0  0
 47120  1  0  0  0
 48 56  1  0  0  0
 48 65  1  0  0  0
 48121  1  0  0  0
 49 50  1  0  0  0
 49 53  1  0  0  0
 49 64  1  0  0  0
 49122  1  0  0  0
 50 51  1  0  0  0
 50123  1  0  0  0
 50124  1  0  0  0
 51 52  1  0  0  0
 51125  1  0  0  0
 51126  1  0  0  0
 52127  1  0  0  0
 52128  1  0  0  0
 53 54  1  0  0  0
 54 55  2  0  0  0
 54129  1  0  0  0
 55 57  1  0  0  0
 55130  1  0  0  0
 56 69  2  0  0  0
 57 58  2  0  0  0
 57131  1  0  0  0
 58132  1  0  0  0
 59 60  1  0  0  0
 59 61  1  0  0  0
 59 62  1  0  0  0
 60133  1  0  0  0
 60134  1  0  0  0
 60135  1  0  0  0
 61136  1  0  0  0
 61137  1  0  0  0
 61138  1  0  0  0
 62139  1  0  0  0
 62140  1  0  0  0
 62141  1  0  0  0
 63 65  1  0  0  0
 63142  1  0  0  0
 63143  1  0  0  0
 63144  1  0  0  0
 64145  1  0  0  0
 65146  1  0  0  0
 68 80  1  0  0  0
 71 72  2  0  0  0
 71 73  1  0  0  0
 71147  1  0  0  0
 72 75  1  0  0  0
 72 83  1  0  0  0
 73 84  2  0  0  0
 73 85  1  0  0  0
 74 83  2  0  0  0
 74 84  1  0  0  0
 74 86  1  0  0  0
 75148  1  0  0  0
 75149  1  0  0  0
 75150  1  0  0  0
 76 77  1  0  0  0
 76151  1  0  0  0
 76152  1  0  0  0
 76153  1  0  0  0
 77154  1  0  0  0
 77155  1  0  0  0
 77 81  1  0  0  0
 78 79  1  0  0  0
 78 81  1  0  0  0
 78156  1  0  0  0
 78157  1  0  0  0
 79 82  1  0  0  0
 79158  1  0  0  0
 79159  1  0  0  0
 80 82  1  0  0  0
 80160  1  0  0  0
 80161  1  0  0  0
 81 85  1  0  0  0
 81162  1  0  0  0
 82 87  1  0  0  0
 82163  1  0  0  0
 85164  1  0  0  0
 86165  1  0  0  0
 87166  1  0  0  0
M  ISO  4   1 100  68 101  80 101  86 100
M  END
> <chiral flag>
0

> <version>
0

> <s_m_source_file>
/data/baiqing/PycharmProjects/Reinvent-master-3.2/result/LINK_invent/BTK/process_docking_weight1_custom_product_contain_oxygen_bond_distance_aromatic_linkinvent_7_9_3/rearranged_h_0195.sdf

> <i_m_source_file_index>
62

> <r_mmod_Potential_Energy-OPLS-2005>
-517.242126464844

> <r_mmod_Stretch_Energy-OPLS-2005>
44.3563346862793

> <r_mmod_Bend_Energy-OPLS-2005>
126.885864257812

> <r_mmod_Torsional_Energy-OPLS-2005>
267.737670898438

> <r_mmod_Improper_Torsional_Energy-OPLS-2005>
7.76850509643555

> <r_mmod_Van_der_Waal_Energy-OPLS-2005>
151.316513061523

> <r_mmod_Electrostatic_Energy-OPLS-2005>
-882.457336425781

> <r_mmod_Solvation_Energy-OPLS-2005>
-250.052474975586

> <b_mmod_Minimization_Converged-OPLS-2005>
0

> <r_mmod_RMS_Derivative-OPLS-2005>
3.0132896900177

$$$$
62
                    3D
 Structure written by MMmdl.
158166  0  0  1  0            999 V2000
  -30.6837  -14.6600   20.4787 C   0  0  0  0  0  0
  -30.4280  -12.4103   19.4596 C   0  0  0  0  0  0
  -29.5000  -12.4872   18.2302 C   0  0  0  0  0  0
  -28.0242  -12.3304   18.6491 C   0  0  0  0  0  0
  -27.6432  -13.2289   19.8563 C   0  0  2  0  0  0
  -28.6956  -13.1557   20.9841 C   0  0  0  0  0  0
  -25.2506  -13.8194   20.5711 C   0  0  0  0  0  0
  -24.1806  -13.0440   20.9235 C   0  0  0  0  0  0
  -24.6397  -11.6919   20.8769 C   0  0  0  0  0  0
  -23.9057  -10.4303   21.0408 C   0  0  0  0  0  0
  -24.3608   -9.4237   21.9213 C   0  0  0  0  0  0
  -23.6275   -8.2276   22.0788 C   0  0  0  0  0  0
  -22.4286   -8.0294   21.3524 C   0  0  0  0  0  0
  -21.9949   -9.0251   20.4611 C   0  0  0  0  0  0
  -22.7265  -10.2136   20.3017 C   0  0  0  0  0  0
  -21.6846   -6.0771   22.5306 C   0  0  0  0  0  0
  -21.4006   -6.5659   23.8247 C   0  0  0  0  0  0
  -21.3646   -5.6791   24.9201 C   0  0  0  0  0  0
  -21.6054   -4.3069   24.7231 C   0  0  0  0  0  0
  -21.8806   -3.8166   23.4332 C   0  0  0  0  0  0
  -21.9185   -4.6996   22.3408 C   0  0  0  0  0  0
  -22.7828  -13.5227   21.1877 C   0  0  0  0  0  0
  -22.1646   -4.2179   21.0996 F   0  0  0  0  0  0
  -21.5631   -3.4564   25.7742 F   0  0  0  0  0  0
  -30.0016  -13.4747   20.3950 N   0  0  0  0  0  0
  -26.2937  -12.9393   20.3343 N   0  0  0  0  0  0
  -25.9332  -11.6533   20.5812 N   0  0  0  0  0  0
  -22.0480  -12.8251   22.0455 N   0  0  0  0  0  0
  -25.4236  -15.1913   20.4140 N   0  0  0  0  0  0
  -31.8707  -14.7160   20.1524 O   0  0  0  0  0  0
  -21.6628   -6.8905   21.4247 O   0  0  0  0  0  0
  -22.3488  -14.5487   20.6659 O   0  0  0  0  0  0
  -24.6291  -31.8575   23.2023 C   0  0  0  0  0  0
  -25.9138  -32.4755   23.8342 C   0  0  1  0  0  0
  -27.2149  -27.3070   20.0992 C   0  0  0  0  0  0
  -25.5939  -33.8557   24.2248 N   0  0  0  0  0  0
  -23.4215  -30.4867   21.5454 C   0  0  2  0  0  0
  -24.8647  -28.9453   20.1162 C   0  0  0  0  0  0
  -22.7483  -29.4623   22.4926 C   0  0  0  0  0  0
  -18.0282  -28.1372   22.8477 C   0  0  0  0  0  0
  -24.1490  -36.7271   23.2639 C   0  0  0  0  0  0
  -25.9692  -30.7872   21.3768 C   0  0  0  0  0  0
  -26.0417  -29.4188   20.7084 C   0  0  0  0  0  0
  -27.2236  -28.6137   20.6841 C   0  0  0  0  0  0
  -25.9989  -26.8890   19.5036 C   0  0  0  0  0  0
  -24.8441  -27.6844   19.5108 C   0  0  0  0  0  0
  -23.6366  -29.8274   20.1612 C   0  0  0  0  0  0
  -25.4118  -36.3058   24.0320 C   0  0  1  0  0  0
  -20.5891  -28.3681   23.1259 C   0  0  2  0  0  0
  -20.6777  -26.9407   22.5377 C   0  0  0  0  0  0
  -19.5752  -26.6379   21.5183 C   0  0  0  0  0  0
  -18.1936  -26.7912   22.1617 C   0  0  0  0  0  0
  -19.1540  -28.8850   23.2861 C   0  0  0  0  0  0
  -18.9466  -30.1453   23.8879 C   0  0  0  0  0  0
  -17.6469  -30.6584   24.0554 C   0  0  0  0  0  0
  -25.9051  -34.9433   23.5083 C   0  0  0  0  0  0
  -16.5360  -29.9068   23.6345 C   0  0  0  0  0  0
  -16.7270  -28.6484   23.0366 C   0  0  0  0  0  0
  -26.4534  -31.6571   25.0719 C   0  0  0  0  0  0
  -25.3782  -31.3701   26.1451 C   0  0  0  0  0  0
  -27.0389  -30.2985   24.6206 C   0  0  0  0  0  0
  -27.6065  -32.4340   25.7495 C   0  0  0  0  0  0
  -27.5573  -37.1779   24.8474 C   0  0  0  0  0  0
  -21.4191  -29.3047   22.3667 N   0  0  0  0  0  0
  -26.4290  -37.3756   23.9413 N   0  0  0  0  0  0
  -24.6921  -31.0597   22.0973 N   0  0  0  0  0  0
  -23.4211  -28.8153   23.3007 O   0  0  0  0  0  0
  -28.3298  -26.4436   20.1143 O   0  0  0  0  0  0
  -26.5632  -34.8911   22.4648 O   0  0  0  0  0  0
  -23.5445  -32.1385   23.7340 O   0  0  0  0  0  0
  -29.6513  -20.6480   19.5800 C   0  0  0  0  0  0
  -29.9680  -18.5992   20.7318 C   0  0  0  0  0  0
  -29.3471  -21.3573   20.7798 C   0  0  0  0  0  0
  -29.6306  -19.3033   21.9333 C   0  0  0  0  0  0
  -30.5889  -24.5272   20.0439 C   0  0  0  0  0  0
  -29.1712  -19.3320   24.3759 C   0  0  0  0  0  0
  -30.6862  -17.1860   20.7072 C   0  0  0  0  0  0
  -28.0635  -24.9851   19.9867 C   0  0  0  0  0  0
  -29.2066  -23.8751   19.9423 C   0  0  2  0  0  0
  -29.9527  -19.3062   19.5592 N   0  0  0  0  0  0
  -29.3221  -20.6423   21.9383 N   0  0  0  0  0  0
  -29.6556  -18.6546   23.1775 N   0  0  0  0  0  0
  -29.0319  -22.7533   20.9176 N   0  0  0  0  0  0
  -30.0056  -15.8324   20.7214 N   0  0  0  0  0  0
  -31.4683  -12.5168   19.1488 H   0  0  0  0  0  0
  -30.3667  -11.4329   19.9427 H   0  0  0  0  0  0
  -29.7694  -11.7174   17.5048 H   0  0  0  0  0  0
  -29.6333  -13.4470   17.7262 H   0  0  0  0  0  0
  -27.8656  -11.2812   18.9044 H   0  0  0  0  0  0
  -27.3748  -12.5366   17.7984 H   0  0  0  0  0  0
  -27.6424  -14.2512   19.4773 H   0  0  0  0  0  0
  -28.7155  -12.1634   21.4356 H   0  0  0  0  0  0
  -28.4474  -13.8546   21.7829 H   0  0  0  0  0  0
  -25.2726   -9.5767   22.4815 H   0  0  0  0  0  0
  -23.9941   -7.4720   22.7600 H   0  0  0  0  0  0
  -21.0882   -8.8766   19.8912 H   0  0  0  0  0  0
  -22.3736  -10.9652   19.6100 H   0  0  0  0  0  0
  -21.1973   -7.6173   23.9767 H   0  0  0  0  0  0
  -21.1485   -6.0522   25.9109 H   0  0  0  0  0  0
  -22.0578   -2.7633   23.2835 H   0  0  0  0  0  0
  -22.4055  -11.9914   22.4876 H   0  0  0  0  0  0
  -21.1149  -13.1348   22.2702 H   0  0  0  0  0  0
  -26.2878  -15.6336   20.1276 H   0  0  0  0  0  0
  -24.6608  -15.8512   20.5213 H   0  0  0  0  0  0
  -26.7201  -32.5412   23.1073 H   0  0  0  0  0  0
  -25.0060  -33.9681   25.0387 H   0  0  0  0  0  0
  -22.7146  -31.3061   21.4017 H   0  0  0  0  0  0
  -23.3747  -35.9605   23.3302 H   0  0  0  0  0  0
  -24.3584  -36.8899   22.2053 H   0  0  0  0  0  0
  -23.7260  -37.6473   23.6678 H   0  0  0  0  0  0
  -26.1141  -31.5598   20.6193 H   0  0  0  0  0  0
  -26.8437  -30.8191   22.0155 H   0  0  0  0  0  0
  -28.1329  -28.9751   21.1454 H   0  0  0  0  0  0
  -25.8771  -25.9306   19.0283 H   0  0  0  0  0  0
  -23.9352  -27.3062   19.0610 H   0  0  0  0  0  0
  -23.7624  -30.6035   19.4060 H   0  0  0  0  0  0
  -22.7565  -29.2595   19.8554 H   0  0  0  0  0  0
  -25.1303  -36.1871   25.0814 H   0  0  0  0  0  0
  -20.9972  -28.3247   24.1386 H   0  0  0  0  0  0
  -20.5663  -26.2289   23.3577 H   0  0  0  0  0  0
  -21.6644  -26.7424   22.1187 H   0  0  0  0  0  0
  -19.6911  -25.6283   21.1226 H   0  0  0  0  0  0
  -19.6691  -27.3179   20.6711 H   0  0  0  0  0  0
  -17.4192  -26.6638   21.4034 H   0  0  0  0  0  0
  -18.0366  -26.0052   22.9024 H   0  0  0  0  0  0
  -19.7952  -30.7258   24.2246 H   0  0  0  0  0  0
  -17.5033  -31.6262   24.5136 H   0  0  0  0  0  0
  -15.5362  -30.2964   23.7680 H   0  0  0  0  0  0
  -15.8673  -28.0787   22.7114 H   0  0  0  0  0  0
  -24.5918  -30.7098   25.7774 H   0  0  0  0  0  0
  -24.9040  -32.2873   26.4948 H   0  0  0  0  0  0
  -25.8129  -30.8813   27.0176 H   0  0  0  0  0  0
  -26.2962  -29.6686   24.1285 H   0  0  0  0  0  0
  -27.4123  -29.7291   25.4726 H   0  0  0  0  0  0
  -27.8828  -30.4244   23.9417 H   0  0  0  0  0  0
  -27.2624  -33.3604   26.2102 H   0  0  0  0  0  0
  -28.3862  -32.6960   25.0332 H   0  0  0  0  0  0
  -28.0762  -31.8470   26.5392 H   0  0  0  0  0  0
  -28.2586  -38.0070   24.7508 H   0  0  0  0  0  0
  -28.1065  -36.2603   24.6320 H   0  0  0  0  0  0
  -27.2291  -37.1457   25.8875 H   0  0  0  0  0  0
  -20.9357  -29.8787   21.6902 H   0  0  0  0  0  0
  -26.0151  -38.2817   24.1422 H   0  0  0  0  0  0
  -29.6557  -21.1548   18.6276 H   0  0  0  0  0  0
  -30.7062  -25.2807   19.2608 H   0  0  0  0  0  0
  -31.3907  -23.8010   19.9144 H   0  0  0  0  0  0
  -30.7182  -25.0356   20.9988 H   0  0  0  0  0  0
  -29.2261  -18.6659   25.2370 H   0  0  0  0  0  0
  -28.1300  -19.6428   24.2594 H   0  0  0  0  0  0
  -29.7724  -20.2158   24.5968 H   0  0  0  0  0  0
  -31.3974  -17.1817   21.5328 H   0  0  0  0  0  0
  -31.3156  -17.2079   19.8163 H   0  0  0  0  0  0
  -27.3402  -24.7095   20.7548 H   0  0  0  0  0  0
  -27.5664  -24.8280   19.0330 H   0  0  0  0  0  0
  -29.1616  -23.4180   18.9517 H   0  0  0  0  0  0
  -29.7356  -17.6417   23.1951 H   0  0  0  0  0  0
  -28.7707  -23.0457   21.8557 H   0  0  0  0  0  0
  -29.0098  -15.7952   20.8784 H   0  0  0  0  0  0
  1 25  1  0  0  0
  1 30  2  0  0  0
  1 84  1  0  0  0
  2  3  1  0  0  0
  2 25  1  0  0  0
  2 85  1  0  0  0
  2 86  1  0  0  0
  3  4  1  0  0  0
  3 87  1  0  0  0
  3 88  1  0  0  0
  4  5  1  0  0  0
  4 89  1  0  0  0
  4 90  1  0  0  0
  5  6  1  0  0  0
  5 26  1  0  0  0
  5 91  1  0  0  0
  6 25  1  0  0  0
  6 92  1  0  0  0
  6 93  1  0  0  0
  7  8  2  0  0  0
  7 26  1  0  0  0
  7 29  1  0  0  0
  8  9  1  0  0  0
  8 22  1  0  0  0
  9 10  1  0  0  0
  9 27  2  0  0  0
 10 11  2  0  0  0
 10 15  1  0  0  0
 11 12  1  0  0  0
 11 94  1  0  0  0
 12 13  2  0  0  0
 12 95  1  0  0  0
 13 14  1  0  0  0
 13 31  1  0  0  0
 14 15  2  0  0  0
 14 96  1  0  0  0
 15 97  1  0  0  0
 16 17  2  0  0  0
 16 21  1  0  0  0
 16 31  1  0  0  0
 17 18  1  0  0  0
 17 98  1  0  0  0
 18 19  2  0  0  0
 18 99  1  0  0  0
 19 20  1  0  0  0
 19 24  1  0  0  0
 20 21  2  0  0  0
 20100  1  0  0  0
 21 23  1  0  0  0
 22 28  1  0  0  0
 22 32  2  0  0  0
 26 27  1  0  0  0
 28101  1  0  0  0
 28102  1  0  0  0
 29103  1  0  0  0
 29104  1  0  0  0
 33 34  1  0  0  0
 33 66  1  0  0  0
 33 70  2  0  0  0
 34 36  1  0  0  0
 34 59  1  0  0  0
 34105  1  0  0  0
 35 44  2  0  0  0
 35 45  1  0  0  0
 35 68  1  0  0  0
 36 56  1  0  0  0
 36106  1  0  0  0
 37 39  1  0  0  0
 37 47  1  0  0  0
 37 66  1  0  0  0
 37107  1  0  0  0
 38 43  2  0  0  0
 38 46  1  0  0  0
 38 47  1  0  0  0
 39 64  1  0  0  0
 39 67  2  0  0  0
 40 52  1  0  0  0
 40 53  2  0  0  0
 40 58  1  0  0  0
 41108  1  0  0  0
 41109  1  0  0  0
 41110  1  0  0  0
 41 48  1  0  0  0
 42 43  1  0  0  0
 42 66  1  0  0  0
 42111  1  0  0  0
 42112  1  0  0  0
 43 44  1  0  0  0
 44113  1  0  0  0
 45 46  2  0  0  0
 45114  1  0  0  0
 46115  1  0  0  0
 47116  1  0  0  0
 47117  1  0  0  0
 48 56  1  0  0  0
 48 65  1  0  0  0
 48118  1  0  0  0
 49 50  1  0  0  0
 49 53  1  0  0  0
 49 64  1  0  0  0
 49119  1  0  0  0
 50 51  1  0  0  0
 50120  1  0  0  0
 50121  1  0  0  0
 51 52  1  0  0  0
 51122  1  0  0  0
 51123  1  0  0  0
 52124  1  0  0  0
 52125  1  0  0  0
 53 54  1  0  0  0
 54 55  2  0  0  0
 54126  1  0  0  0
 55 57  1  0  0  0
 55127  1  0  0  0
 56 69  2  0  0  0
 57 58  2  0  0  0
 57128  1  0  0  0
 58129  1  0  0  0
 59 60  1  0  0  0
 59 61  1  0  0  0
 59 62  1  0  0  0
 60130  1  0  0  0
 60131  1  0  0  0
 60132  1  0  0  0
 61133  1  0  0  0
 61134  1  0  0  0
 61135  1  0  0  0
 62136  1  0  0  0
 62137  1  0  0  0
 62138  1  0  0  0
 63 65  1  0  0  0
 63139  1  0  0  0
 63140  1  0  0  0
 63141  1  0  0  0
 64142  1  0  0  0
 65143  1  0  0  0
 68 78  1  0  0  0
 71 73  2  0  0  0
 71 80  1  0  0  0
 71144  1  0  0  0
 72 74  1  0  0  0
 72 77  1  0  0  0
 72 80  2  0  0  0
 73 81  1  0  0  0
 73 83  1  0  0  0
 74 81  2  0  0  0
 74 82  1  0  0  0
 75145  1  0  0  0
 75146  1  0  0  0
 75147  1  0  0  0
 75 79  1  0  0  0
 76 82  1  0  0  0
 76148  1  0  0  0
 76149  1  0  0  0
 76150  1  0  0  0
 77 84  1  0  0  0
 77151  1  0  0  0
 77152  1  0  0  0
 78 79  1  0  0  0
 78153  1  0  0  0
 78154  1  0  0  0
 79 83  1  0  0  0
 79155  1  0  0  0
 82156  1  0  0  0
 83157  1  0  0  0
 84158  1  0  0  0
M  ISO  4   1 100  68 101  78 101  84 100
M  END
> <chiral flag>
0

> <version>
0

> <s_m_source_file>
/data/baiqing/PycharmProjects/Reinvent-master-3.2/result/LINK_invent/BTK/process_docking_weight1_custom_product_contain_oxygen_bond_distance_aromatic_linkinvent_7_9_3/rearranged_h_0195.sdf

> <i_m_source_file_index>
63

> <r_mmod_Potential_Energy-OPLS-2005>
110.112831115723

> <r_mmod_Stretch_Energy-OPLS-2005>
89.492431640625

> <r_mmod_Bend_Energy-OPLS-2005>
190.770782470703

> <r_mmod_Torsional_Energy-OPLS-2005>
210.332229614258

> <r_mmod_Improper_Torsional_Energy-OPLS-2005>
7.4541335105896

> <r_mmod_Van_der_Waal_Energy-OPLS-2005>
157.466217041016

> <r_mmod_Electrostatic_Energy-OPLS-2005>
-360.793273925781

> <r_mmod_Solvation_Energy-OPLS-2005>
-242.986999511719

> <b_mmod_Minimization_Converged-OPLS-2005>
0

> <r_mmod_RMS_Derivative-OPLS-2005>
4.43295383453369

$$$$
63
                    3D
 Structure written by MMmdl.
160168  0  0  1  0            999 V2000
  -30.7159  -14.4847   20.5349 C   0  0  0  0  0  0
  -30.4235  -12.3091   19.4204 C   0  0  0  0  0  0
  -29.4936  -12.4927   18.2038 C   0  0  0  0  0  0
  -28.0147  -12.3691   18.6163 C   0  0  0  0  0  0
  -27.6631  -13.2125   19.8711 C   0  0  2  0  0  0
  -28.7092  -13.0142   20.9930 C   0  0  0  0  0  0
  -25.2596  -13.8184   20.5680 C   0  0  0  0  0  0
  -24.1857  -13.0457   20.9193 C   0  0  0  0  0  0
  -24.6408  -11.6927   20.8736 C   0  0  0  0  0  0
  -23.9077  -10.4305   21.0400 C   0  0  0  0  0  0
  -24.3642   -9.4224   21.9169 C   0  0  0  0  0  0
  -23.6321   -8.2261   22.0732 C   0  0  0  0  0  0
  -22.4299   -8.0303   21.3535 C   0  0  0  0  0  0
  -21.9934   -9.0271   20.4635 C   0  0  0  0  0  0
  -22.7253  -10.2153   20.3047 C   0  0  0  0  0  0
  -21.6865   -6.0741   22.5270 C   0  0  0  0  0  0
  -21.4012   -6.5647   23.8207 C   0  0  0  0  0  0
  -21.3663   -5.6800   24.9169 C   0  0  0  0  0  0
  -21.6053   -4.3060   24.7213 C   0  0  0  0  0  0
  -21.8835   -3.8156   23.4327 C   0  0  0  0  0  0
  -21.9196   -4.6966   22.3388 C   0  0  0  0  0  0
  -22.7876  -13.5254   21.1850 C   0  0  0  0  0  0
  -22.1671   -4.2160   21.0964 F   0  0  0  0  0  0
  -21.5627   -3.4535   25.7714 F   0  0  0  0  0  0
  -30.0418  -13.3057   20.4339 N   0  0  0  0  0  0
  -26.3042  -12.9363   20.3359 N   0  0  0  0  0  0
  -25.9339  -11.6520   20.5767 N   0  0  0  0  0  0
  -22.0524  -12.8239   22.0411 N   0  0  0  0  0  0
  -25.4313  -15.1900   20.4048 N   0  0  0  0  0  0
  -31.8617  -14.6251   20.0942 O   0  0  0  0  0  0
  -21.6664   -6.8888   21.4238 O   0  0  0  0  0  0
  -22.3558  -14.5553   20.6682 O   0  0  0  0  0  0
  -24.6161  -31.8680   23.2107 C   0  0  0  0  0  0
  -25.9069  -32.4816   23.8390 C   0  0  1  0  0  0
  -27.2439  -27.4312   20.0982 C   0  0  0  0  0  0
  -25.5926  -33.8612   24.2343 N   0  0  0  0  0  0
  -23.4028  -30.4873   21.5555 C   0  0  2  0  0  0
  -24.8484  -28.9467   20.1229 C   0  0  0  0  0  0
  -22.7411  -29.4638   22.5057 C   0  0  0  0  0  0
  -18.0271  -28.1351   22.8531 C   0  0  0  0  0  0
  -24.1487  -36.7310   23.2640 C   0  0  0  0  0  0
  -25.9313  -30.8249   21.3673 C   0  0  0  0  0  0
  -26.0078  -29.4583   20.7188 C   0  0  0  0  0  0
  -27.2060  -28.7092   20.7023 C   0  0  0  0  0  0
  -26.0670  -26.9341   19.4943 C   0  0  0  0  0  0
  -24.8716  -27.6811   19.5106 C   0  0  0  0  0  0
  -23.6110  -29.8172   20.1712 C   0  0  0  0  0  0
  -25.4104  -36.3106   24.0351 C   0  0  1  0  0  0
  -20.5859  -28.3639   23.1362 C   0  0  2  0  0  0
  -20.6779  -26.9386   22.5445 C   0  0  0  0  0  0
  -19.5753  -26.6375   21.5248 C   0  0  0  0  0  0
  -18.1921  -26.7908   22.1638 C   0  0  0  0  0  0
  -19.1519  -28.8815   23.2934 C   0  0  0  0  0  0
  -18.9445  -30.1425   23.8933 C   0  0  0  0  0  0
  -17.6445  -30.6570   24.0561 C   0  0  0  0  0  0
  -25.9037  -34.9476   23.5141 C   0  0  0  0  0  0
  -16.5336  -29.9066   23.6330 C   0  0  0  0  0  0
  -16.7260  -28.6468   23.0390 C   0  0  0  0  0  0
  -26.4508  -31.6582   25.0711 C   0  0  0  0  0  0
  -25.3780  -31.3696   26.1468 C   0  0  0  0  0  0
  -27.0376  -30.3032   24.6100 C   0  0  0  0  0  0
  -27.6091  -32.4303   25.7456 C   0  0  0  0  0  0
  -27.5582  -37.1809   24.8467 C   0  0  0  0  0  0
  -21.4146  -29.2993   22.3770 N   0  0  0  0  0  0
  -26.4291  -37.3791   23.9413 N   0  0  0  0  0  0
  -24.6683  -31.0747   22.1027 N   0  0  0  0  0  0
  -23.4181  -28.8204   23.3122 O   0  0  0  0  0  0
  -28.4330  -26.7281   20.0607 O   0  0  0  0  0  0
  -26.5594  -34.8933   22.4700 O   0  0  0  0  0  0
  -23.5356  -32.1455   23.7498 O   0  0  0  0  0  0
  -31.2361  -18.8091   19.9481 C   0  0  0  0  0  0
  -29.2729  -17.7967   21.4850 C   0  0  0  0  0  0
  -30.2922  -19.6654   20.5661 C   0  0  0  0  0  0
  -30.2019  -16.9227   20.8520 C   0  0  0  0  0  0
  -28.1569  -17.2703   22.3663 C   0  0  0  0  0  0
  -29.1884  -22.5259   22.0232 C   0  0  0  0  0  0
  -28.9905  -22.9772   19.4479 C   0  0  0  0  0  0
  -28.4184  -25.3456   20.4643 C   0  0  0  0  0  0
  -29.1958  -21.9396   20.6016 C   0  0  1  0  0  0
  -29.3710  -24.4882   19.5844 C   0  0  1  0  0  0
  -31.1890  -17.4601   20.0839 N   0  0  0  0  0  0
  -29.3135  -19.1475   21.3437 N   0  0  0  0  0  0
  -30.0039  -15.5152   21.0309 N   0  0  0  0  0  0
  -30.3560  -21.0613   20.3791 N   0  0  0  0  0  0
  -30.7228  -24.6467   19.9879 O   0  0  0  0  0  0
  -31.4646  -12.4048   19.1079 H   0  0  0  0  0  0
  -30.3269  -11.3030   19.8282 H   0  0  0  0  0  0
  -29.7282  -11.7484   17.4413 H   0  0  0  0  0  0
  -29.6683  -13.4684   17.7476 H   0  0  0  0  0  0
  -27.8194  -11.3152   18.8124 H   0  0  0  0  0  0
  -27.3663  -12.6460   17.7833 H   0  0  0  0  0  0
  -27.7020  -14.2594   19.5693 H   0  0  0  0  0  0
  -28.6851  -11.9872   21.3604 H   0  0  0  0  0  0
  -28.4736  -13.6386   21.8553 H   0  0  0  0  0  0
  -25.2781   -9.5706   22.4741 H   0  0  0  0  0  0
  -24.0033   -7.4659   22.7458 H   0  0  0  0  0  0
  -21.0844   -8.8792   19.8959 H   0  0  0  0  0  0
  -22.3696  -10.9695   19.6172 H   0  0  0  0  0  0
  -21.2012   -7.6154   23.9707 H   0  0  0  0  0  0
  -21.1465   -6.0520   25.9071 H   0  0  0  0  0  0
  -22.0604   -2.7609   23.2816 H   0  0  0  0  0  0
  -22.4147  -11.9930   22.4835 H   0  0  0  0  0  0
  -21.1128  -13.1242   22.2589 H   0  0  0  0  0  0
  -24.6587  -15.8401   20.5064 H   0  0  0  0  0  0
  -26.2595  -15.6194   20.0136 H   0  0  0  0  0  0
  -26.7134  -32.5532   23.1139 H   0  0  0  0  0  0
  -25.0108  -33.9778   25.0512 H   0  0  0  0  0  0
  -22.6914  -31.3038   21.4193 H   0  0  0  0  0  0
  -23.3745  -35.9645   23.3310 H   0  0  0  0  0  0
  -24.3569  -36.8916   22.2048 H   0  0  0  0  0  0
  -23.7250  -37.6527   23.6642 H   0  0  0  0  0  0
  -26.0468  -31.5865   20.5946 H   0  0  0  0  0  0
  -26.8171  -30.8758   21.9878 H   0  0  0  0  0  0
  -28.1014  -29.1068   21.1580 H   0  0  0  0  0  0
  -26.0718  -25.9793   18.9890 H   0  0  0  0  0  0
  -23.9823  -27.2813   19.0432 H   0  0  0  0  0  0
  -23.7258  -30.5939   19.4138 H   0  0  0  0  0  0
  -22.7319  -29.2424   19.8743 H   0  0  0  0  0  0
  -25.1276  -36.1961   25.0843 H   0  0  0  0  0  0
  -20.9947  -28.3192   24.1488 H   0  0  0  0  0  0
  -20.5738  -26.2235   23.3625 H   0  0  0  0  0  0
  -21.6646  -26.7480   22.1200 H   0  0  0  0  0  0
  -19.6916  -25.6300   21.1251 H   0  0  0  0  0  0
  -19.6680  -27.3217   20.6808 H   0  0  0  0  0  0
  -17.4224  -26.6727   21.3996 H   0  0  0  0  0  0
  -18.0248  -26.0003   22.8973 H   0  0  0  0  0  0
  -19.7918  -30.7236   24.2316 H   0  0  0  0  0  0
  -17.4997  -31.6263   24.5141 H   0  0  0  0  0  0
  -15.5334  -30.2977   23.7629 H   0  0  0  0  0  0
  -15.8664  -28.0770   22.7131 H   0  0  0  0  0  0
  -24.5891  -30.7125   25.7786 H   0  0  0  0  0  0
  -24.9054  -32.2878   26.4969 H   0  0  0  0  0  0
  -25.8113  -30.8785   27.0194 H   0  0  0  0  0  0
  -26.2933  -29.6708   24.1245 H   0  0  0  0  0  0
  -27.4275  -29.7321   25.4537 H   0  0  0  0  0  0
  -27.8697  -30.4357   23.9180 H   0  0  0  0  0  0
  -27.2709  -33.3567   26.2103 H   0  0  0  0  0  0
  -28.3846  -32.6929   25.0248 H   0  0  0  0  0  0
  -28.0834  -31.8400   26.5307 H   0  0  0  0  0  0
  -28.2621  -38.0089   24.7511 H   0  0  0  0  0  0
  -28.1068  -36.2632   24.6288 H   0  0  0  0  0  0
  -27.2317  -37.1455   25.8878 H   0  0  0  0  0  0
  -20.9318  -29.8646   21.6933 H   0  0  0  0  0  0
  -26.0186  -38.2879   24.1382 H   0  0  0  0  0  0
  -32.0197  -19.2043   19.3167 H   0  0  0  0  0  0
  -27.5265  -16.5813   21.8074 H   0  0  0  0  0  0
  -27.5262  -18.0807   22.7325 H   0  0  0  0  0  0
  -28.5655  -16.7454   23.2299 H   0  0  0  0  0  0
  -28.2354  -23.0114   22.2382 H   0  0  0  0  0  0
  -29.9775  -23.2646   22.1621 H   0  0  0  0  0  0
  -29.3336  -21.7499   22.7748 H   0  0  0  0  0  0
  -27.9270  -22.9629   19.2073 H   0  0  0  0  0  0
  -29.4559  -22.5838   18.5440 H   0  0  0  0  0  0
  -28.7072  -25.2873   21.5143 H   0  0  0  0  0  0
  -27.4157  -24.9272   20.4119 H   0  0  0  0  0  0
  -28.3200  -21.2928   20.5373 H   0  0  0  0  0  0
  -29.2997  -24.8960   18.5740 H   0  0  0  0  0  0
  -29.1204  -15.2561   21.4387 H   0  0  0  0  0  0
  -31.1023  -21.4016   19.7813 H   0  0  0  0  0  0
  -31.2750  -24.4240   19.2449 H   0  0  0  0  0  0
  1 25  1  0  0  0
  1 30  2  0  0  0
  1 83  1  0  0  0
  2  3  1  0  0  0
  2 25  1  0  0  0
  2 86  1  0  0  0
  2 87  1  0  0  0
  3  4  1  0  0  0
  3 88  1  0  0  0
  3 89  1  0  0  0
  4  5  1  0  0  0
  4 90  1  0  0  0
  4 91  1  0  0  0
  5  6  1  0  0  0
  5 26  1  0  0  0
  5 92  1  0  0  0
  6 25  1  0  0  0
  6 93  1  0  0  0
  6 94  1  0  0  0
  7  8  2  0  0  0
  7 26  1  0  0  0
  7 29  1  0  0  0
  8  9  1  0  0  0
  8 22  1  0  0  0
  9 10  1  0  0  0
  9 27  2  0  0  0
 10 11  2  0  0  0
 10 15  1  0  0  0
 11 12  1  0  0  0
 11 95  1  0  0  0
 12 13  2  0  0  0
 12 96  1  0  0  0
 13 14  1  0  0  0
 13 31  1  0  0  0
 14 15  2  0  0  0
 14 97  1  0  0  0
 15 98  1  0  0  0
 16 17  2  0  0  0
 16 21  1  0  0  0
 16 31  1  0  0  0
 17 18  1  0  0  0
 17 99  1  0  0  0
 18 19  2  0  0  0
 18100  1  0  0  0
 19 20  1  0  0  0
 19 24  1  0  0  0
 20 21  2  0  0  0
 20101  1  0  0  0
 21 23  1  0  0  0
 22 28  1  0  0  0
 22 32  2  0  0  0
 26 27  1  0  0  0
 28102  1  0  0  0
 28103  1  0  0  0
 29104  1  0  0  0
 29105  1  0  0  0
 33 34  1  0  0  0
 33 66  1  0  0  0
 33 70  2  0  0  0
 34 36  1  0  0  0
 34 59  1  0  0  0
 34106  1  0  0  0
 35 44  2  0  0  0
 35 45  1  0  0  0
 35 68  1  0  0  0
 36 56  1  0  0  0
 36107  1  0  0  0
 37 39  1  0  0  0
 37 47  1  0  0  0
 37 66  1  0  0  0
 37108  1  0  0  0
 38 43  2  0  0  0
 38 46  1  0  0  0
 38 47  1  0  0  0
 39 64  1  0  0  0
 39 67  2  0  0  0
 40 52  1  0  0  0
 40 53  2  0  0  0
 40 58  1  0  0  0
 41109  1  0  0  0
 41110  1  0  0  0
 41111  1  0  0  0
 41 48  1  0  0  0
 42 43  1  0  0  0
 42 66  1  0  0  0
 42112  1  0  0  0
 42113  1  0  0  0
 43 44  1  0  0  0
 44114  1  0  0  0
 45 46  2  0  0  0
 45115  1  0  0  0
 46116  1  0  0  0
 47117  1  0  0  0
 47118  1  0  0  0
 48 56  1  0  0  0
 48 65  1  0  0  0
 48119  1  0  0  0
 49 50  1  0  0  0
 49 53  1  0  0  0
 49 64  1  0  0  0
 49120  1  0  0  0
 50 51  1  0  0  0
 50121  1  0  0  0
 50122  1  0  0  0
 51 52  1  0  0  0
 51123  1  0  0  0
 51124  1  0  0  0
 52125  1  0  0  0
 52126  1  0  0  0
 53 54  1  0  0  0
 54 55  2  0  0  0
 54127  1  0  0  0
 55 57  1  0  0  0
 55128  1  0  0  0
 56 69  2  0  0  0
 57 58  2  0  0  0
 57129  1  0  0  0
 58130  1  0  0  0
 59 60  1  0  0  0
 59 61  1  0  0  0
 59 62  1  0  0  0
 60131  1  0  0  0
 60132  1  0  0  0
 60133  1  0  0  0
 61134  1  0  0  0
 61135  1  0  0  0
 61136  1  0  0  0
 62137  1  0  0  0
 62138  1  0  0  0
 62139  1  0  0  0
 63 65  1  0  0  0
 63140  1  0  0  0
 63141  1  0  0  0
 63142  1  0  0  0
 64143  1  0  0  0
 65144  1  0  0  0
 68 78  1  0  0  0
 71 73  2  0  0  0
 71 81  1  0  0  0
 71145  1  0  0  0
 72 74  1  0  0  0
 72 75  1  0  0  0
 72 82  2  0  0  0
 73 82  1  0  0  0
 73 84  1  0  0  0
 74 81  2  0  0  0
 74 83  1  0  0  0
 75146  1  0  0  0
 75147  1  0  0  0
 75148  1  0  0  0
 76149  1  0  0  0
 76150  1  0  0  0
 76151  1  0  0  0
 76 79  1  0  0  0
 77 79  1  0  0  0
 77 80  1  0  0  0
 77152  1  0  0  0
 77153  1  0  0  0
 78 80  1  0  0  0
 78154  1  0  0  0
 78155  1  0  0  0
 79 84  1  0  0  0
 79156  1  0  0  0
 80 85  1  0  0  0
 80157  1  0  0  0
 83158  1  0  0  0
 84159  1  0  0  0
 85160  1  0  0  0
M  ISO  4   1 100  68 101  78 101  83 100
M  END
> <chiral flag>
0

> <version>
0

> <s_m_source_file>
/data/baiqing/PycharmProjects/Reinvent-master-3.2/result/LINK_invent/BTK/process_docking_weight1_custom_product_contain_oxygen_bond_distance_aromatic_linkinvent_7_9_3/rearranged_h_0195.sdf

> <i_m_source_file_index>
64

> <r_mmod_Potential_Energy-OPLS-2005>
-19.0085315704346

> <r_mmod_Stretch_Energy-OPLS-2005>
43.0449295043945

> <r_mmod_Bend_Energy-OPLS-2005>
124.485488891602

> <r_mmod_Torsional_Energy-OPLS-2005>
241.407669067383

> <r_mmod_Improper_Torsional_Energy-OPLS-2005>
4.83187103271484

> <r_mmod_Van_der_Waal_Energy-OPLS-2005>
158.933212280273

> <r_mmod_Electrostatic_Energy-OPLS-2005>
-341.691253662109

> <r_mmod_Solvation_Energy-OPLS-2005>
-264.121978759766

> <b_mmod_Minimization_Converged-OPLS-2005>
0

> <r_mmod_RMS_Derivative-OPLS-2005>
2.63555669784546

$$$$
64
                    3D
 Structure written by MMmdl.
150158  0  0  1  0            999 V2000
  -30.6861  -14.6405   20.4977 C   0  0  0  0  0  0
  -30.4171  -12.3998   19.4631 C   0  0  0  0  0  0
  -29.4973  -12.4962   18.2288 C   0  0  0  0  0  0
  -28.0241  -12.3346   18.6454 C   0  0  0  0  0  0
  -27.6442  -13.2280   19.8567 C   0  0  2  0  0  0
  -28.6903  -13.1409   20.9902 C   0  0  0  0  0  0
  -25.2502  -13.8197   20.5699 C   0  0  0  0  0  0
  -24.1788  -13.0446   20.9208 C   0  0  0  0  0  0
  -24.6374  -11.6921   20.8752 C   0  0  0  0  0  0
  -23.9059  -10.4295   21.0408 C   0  0  0  0  0  0
  -24.3606   -9.4207   21.9187 C   0  0  0  0  0  0
  -23.6282   -8.2241   22.0755 C   0  0  0  0  0  0
  -22.4271   -8.0275   21.3538 C   0  0  0  0  0  0
  -21.9905   -9.0251   20.4646 C   0  0  0  0  0  0
  -22.7229  -10.2131   20.3059 C   0  0  0  0  0  0
  -21.6853   -6.0729   22.5272 C   0  0  0  0  0  0
  -21.4014   -6.5638   23.8205 C   0  0  0  0  0  0
  -21.3659   -5.6791   24.9172 C   0  0  0  0  0  0
  -21.6048   -4.3055   24.7227 C   0  0  0  0  0  0
  -21.8817   -3.8144   23.4350 C   0  0  0  0  0  0
  -21.9191   -4.6955   22.3401 C   0  0  0  0  0  0
  -22.7813  -13.5228   21.1867 C   0  0  0  0  0  0
  -22.1659   -4.2139   21.0978 F   0  0  0  0  0  0
  -21.5631   -3.4541   25.7743 F   0  0  0  0  0  0
  -30.0008  -13.4565   20.4086 N   0  0  0  0  0  0
  -26.2938  -12.9404   20.3324 N   0  0  0  0  0  0
  -25.9305  -11.6552   20.5779 N   0  0  0  0  0  0
  -22.0468  -12.8209   22.0429 N   0  0  0  0  0  0
  -25.4204  -15.1917   20.4097 N   0  0  0  0  0  0
  -31.8659  -14.7018   20.1474 O   0  0  0  0  0  0
  -21.6636   -6.8867   21.4235 O   0  0  0  0  0  0
  -22.3493  -14.5533   20.6715 O   0  0  0  0  0  0
  -24.6278  -31.8598   23.2047 C   0  0  0  0  0  0
  -25.9129  -32.4775   23.8367 C   0  0  1  0  0  0
  -27.2166  -27.3106   20.1142 C   0  0  0  0  0  0
  -25.5934  -33.8574   24.2289 N   0  0  0  0  0  0
  -23.4208  -30.4870   21.5478 C   0  0  2  0  0  0
  -24.8660  -28.9479   20.1107 C   0  0  0  0  0  0
  -22.7482  -29.4625   22.4929 C   0  0  0  0  0  0
  -18.0284  -28.1380   22.8476 C   0  0  0  0  0  0
  -24.1474  -36.7289   23.2635 C   0  0  0  0  0  0
  -25.9642  -30.7880   21.3791 C   0  0  0  0  0  0
  -26.0374  -29.4168   20.7188 C   0  0  0  0  0  0
  -27.2163  -28.6098   20.7133 C   0  0  0  0  0  0
  -26.0198  -26.9088   19.4713 C   0  0  0  0  0  0
  -24.8597  -27.6988   19.4789 C   0  0  0  0  0  0
  -23.6357  -29.8288   20.1605 C   0  0  0  0  0  0
  -25.4098  -36.3080   24.0327 C   0  0  1  0  0  0
  -20.5889  -28.3688   23.1261 C   0  0  2  0  0  0
  -20.6767  -26.9404   22.5403 C   0  0  0  0  0  0
  -19.5741  -26.6384   21.5203 C   0  0  0  0  0  0
  -18.1923  -26.7921   22.1618 C   0  0  0  0  0  0
  -19.1540  -28.8852   23.2857 C   0  0  0  0  0  0
  -18.9467  -30.1451   23.8871 C   0  0  0  0  0  0
  -17.6472  -30.6582   24.0564 C   0  0  0  0  0  0
  -25.9047  -34.9451   23.5112 C   0  0  0  0  0  0
  -16.5357  -29.9083   23.6336 C   0  0  0  0  0  0
  -16.7277  -28.6505   23.0347 C   0  0  0  0  0  0
  -26.4497  -31.6590   25.0746 C   0  0  0  0  0  0
  -25.3720  -31.3735   26.1467 C   0  0  0  0  0  0
  -27.0354  -30.3007   24.6232 C   0  0  0  0  0  0
  -27.6056  -32.4332   25.7517 C   0  0  0  0  0  0
  -27.5567  -37.1792   24.8459 C   0  0  0  0  0  0
  -21.4198  -29.3040   22.3660 N   0  0  0  0  0  0
  -26.4269  -37.3784   23.9418 N   0  0  0  0  0  0
  -24.6898  -31.0609   22.1008 N   0  0  0  0  0  0
  -23.4198  -28.8153   23.3005 O   0  0  0  0  0  0
  -28.3152  -26.4303   20.1776 O   0  0  0  0  0  0
  -26.5617  -34.8924   22.4675 O   0  0  0  0  0  0
  -23.5445  -32.1405   23.7378 O   0  0  0  0  0  0
  -28.7010  -18.8104   20.2890 C   0  0  0  0  0  0
  -30.3386  -20.8893   20.8756 C   0  0  0  0  0  0
  -30.0159  -18.5467   20.7580 C   0  0  0  0  0  0
  -29.0212  -21.1524   20.4096 C   0  0  0  0  0  0
  -30.6912  -17.1359   20.9511 C   0  0  0  0  0  0
  -29.0297  -23.8092   20.3884 C   0  0  0  0  0  0
  -28.0238  -24.9846   19.9979 C   0  0  0  0  0  0
  -30.8195  -19.6161   21.0458 N   0  0  0  0  0  0
  -28.2170  -20.0876   20.1245 N   0  0  0  0  0  0
  -28.4371  -22.4430   20.2056 N   0  0  0  0  0  0
  -30.0117  -15.7954   20.8071 N   0  0  0  0  0  0
  -31.4602  -12.4947   19.1588 H   0  0  0  0  0  0
  -30.3347  -11.4190   19.9339 H   0  0  0  0  0  0
  -29.7653  -11.7324   17.4979 H   0  0  0  0  0  0
  -29.6372  -13.4587   17.7344 H   0  0  0  0  0  0
  -27.8699  -11.2851   18.8990 H   0  0  0  0  0  0
  -27.3660  -12.5422   17.8012 H   0  0  0  0  0  0
  -27.6474  -14.2538   19.4885 H   0  0  0  0  0  0
  -28.7019  -12.1425   21.4296 H   0  0  0  0  0  0
  -28.4404  -13.8264   21.8004 H   0  0  0  0  0  0
  -25.2750   -9.5691   22.4766 H   0  0  0  0  0  0
  -23.9998   -7.4637   22.7475 H   0  0  0  0  0  0
  -21.0838   -8.8762   19.8948 H   0  0  0  0  0  0
  -22.3680  -10.9669   19.6167 H   0  0  0  0  0  0
  -21.2003   -7.6148   23.9704 H   0  0  0  0  0  0
  -21.1488   -6.0528   25.9073 H   0  0  0  0  0  0
  -22.0596   -2.7607   23.2855 H   0  0  0  0  0  0
  -22.4095  -11.9874   22.4808 H   0  0  0  0  0  0
  -21.1085  -13.1227   22.2650 H   0  0  0  0  0  0
  -24.6510  -15.8458   20.5070 H   0  0  0  0  0  0
  -26.2682  -15.6278   20.0709 H   0  0  0  0  0  0
  -26.7202  -32.5440   23.1124 H   0  0  0  0  0  0
  -25.0052  -33.9697   25.0413 H   0  0  0  0  0  0
  -22.7150  -31.3078   21.4077 H   0  0  0  0  0  0
  -23.3733  -35.9622   23.3310 H   0  0  0  0  0  0
  -24.3557  -36.8916   22.2047 H   0  0  0  0  0  0
  -23.7245  -37.6495   23.6663 H   0  0  0  0  0  0
  -26.0983  -31.5520   20.6122 H   0  0  0  0  0  0
  -26.8433  -30.8342   22.0106 H   0  0  0  0  0  0
  -28.1110  -28.9633   21.2065 H   0  0  0  0  0  0
  -25.9388  -25.9603   18.9642 H   0  0  0  0  0  0
  -23.9640  -27.3355   18.9942 H   0  0  0  0  0  0
  -23.7581  -30.6087   19.4081 H   0  0  0  0  0  0
  -22.7541  -29.2625   19.8537 H   0  0  0  0  0  0
  -25.1280  -36.1925   25.0821 H   0  0  0  0  0  0
  -20.9960  -28.3280   24.1392 H   0  0  0  0  0  0
  -20.5669  -26.2301   23.3612 H   0  0  0  0  0  0
  -21.6635  -26.7435   22.1198 H   0  0  0  0  0  0
  -19.6894  -25.6296   21.1239 H   0  0  0  0  0  0
  -19.6674  -27.3186   20.6721 H   0  0  0  0  0  0
  -17.4188  -26.6668   21.4027 H   0  0  0  0  0  0
  -18.0322  -26.0056   22.9007 H   0  0  0  0  0  0
  -19.7950  -30.7264   24.2233 H   0  0  0  0  0  0
  -17.5039  -31.6257   24.5168 H   0  0  0  0  0  0
  -15.5368  -30.2982   23.7674 H   0  0  0  0  0  0
  -15.8677  -28.0840   22.7052 H   0  0  0  0  0  0
  -24.5907  -30.7066   25.7808 H   0  0  0  0  0  0
  -24.8876  -32.2891   26.4858 H   0  0  0  0  0  0
  -25.8028  -30.8951   27.0271 H   0  0  0  0  0  0
  -26.2948  -29.6744   24.1244 H   0  0  0  0  0  0
  -27.4022  -29.7280   25.4763 H   0  0  0  0  0  0
  -27.8832  -30.4285   23.9500 H   0  0  0  0  0  0
  -27.2674  -33.3647   26.2067 H   0  0  0  0  0  0
  -28.3873  -32.6871   25.0348 H   0  0  0  0  0  0
  -28.0713  -31.8474   26.5453 H   0  0  0  0  0  0
  -28.2580  -38.0094   24.7524 H   0  0  0  0  0  0
  -28.1078  -36.2628   24.6272 H   0  0  0  0  0  0
  -27.2286  -37.1436   25.8863 H   0  0  0  0  0  0
  -20.9384  -29.8805   21.6907 H   0  0  0  0  0  0
  -26.0149  -38.2855   24.1443 H   0  0  0  0  0  0
  -28.0338  -17.9997   20.0348 H   0  0  0  0  0  0
  -31.0136  -21.6976   21.1166 H   0  0  0  0  0  0
  -31.1237  -17.1411   21.9521 H   0  0  0  0  0  0
  -31.5480  -17.1562   20.2755 H   0  0  0  0  0  0
  -29.3422  -23.9253   21.4273 H   0  0  0  0  0  0
  -29.9333  -23.8905   19.7825 H   0  0  0  0  0  0
  -27.1095  -24.7726   20.5559 H   0  0  0  0  0  0
  -27.7897  -24.8398   18.9419 H   0  0  0  0  0  0
  -27.4694  -22.4278   19.8974 H   0  0  0  0  0  0
  -29.0342  -15.7273   21.0461 H   0  0  0  0  0  0
  1 25  1  0  0  0
  1 30  2  0  0  0
  1 81  1  0  0  0
  2  3  1  0  0  0
  2 25  1  0  0  0
  2 82  1  0  0  0
  2 83  1  0  0  0
  3  4  1  0  0  0
  3 84  1  0  0  0
  3 85  1  0  0  0
  4  5  1  0  0  0
  4 86  1  0  0  0
  4 87  1  0  0  0
  5  6  1  0  0  0
  5 26  1  0  0  0
  5 88  1  0  0  0
  6 25  1  0  0  0
  6 89  1  0  0  0
  6 90  1  0  0  0
  7  8  2  0  0  0
  7 26  1  0  0  0
  7 29  1  0  0  0
  8  9  1  0  0  0
  8 22  1  0  0  0
  9 10  1  0  0  0
  9 27  2  0  0  0
 10 11  2  0  0  0
 10 15  1  0  0  0
 11 12  1  0  0  0
 11 91  1  0  0  0
 12 13  2  0  0  0
 12 92  1  0  0  0
 13 14  1  0  0  0
 13 31  1  0  0  0
 14 15  2  0  0  0
 14 93  1  0  0  0
 15 94  1  0  0  0
 16 17  2  0  0  0
 16 21  1  0  0  0
 16 31  1  0  0  0
 17 18  1  0  0  0
 17 95  1  0  0  0
 18 19  2  0  0  0
 18 96  1  0  0  0
 19 20  1  0  0  0
 19 24  1  0  0  0
 20 21  2  0  0  0
 20 97  1  0  0  0
 21 23  1  0  0  0
 22 28  1  0  0  0
 22 32  2  0  0  0
 26 27  1  0  0  0
 28 98  1  0  0  0
 28 99  1  0  0  0
 29100  1  0  0  0
 29101  1  0  0  0
 33 34  1  0  0  0
 33 66  1  0  0  0
 33 70  2  0  0  0
 34 36  1  0  0  0
 34 59  1  0  0  0
 34102  1  0  0  0
 35 44  2  0  0  0
 35 45  1  0  0  0
 35 68  1  0  0  0
 36 56  1  0  0  0
 36103  1  0  0  0
 37 39  1  0  0  0
 37 47  1  0  0  0
 37 66  1  0  0  0
 37104  1  0  0  0
 38 43  2  0  0  0
 38 46  1  0  0  0
 38 47  1  0  0  0
 39 64  1  0  0  0
 39 67  2  0  0  0
 40 52  1  0  0  0
 40 53  2  0  0  0
 40 58  1  0  0  0
 41105  1  0  0  0
 41106  1  0  0  0
 41107  1  0  0  0
 41 48  1  0  0  0
 42 43  1  0  0  0
 42 66  1  0  0  0
 42108  1  0  0  0
 42109  1  0  0  0
 43 44  1  0  0  0
 44110  1  0  0  0
 45 46  2  0  0  0
 45111  1  0  0  0
 46112  1  0  0  0
 47113  1  0  0  0
 47114  1  0  0  0
 48 56  1  0  0  0
 48 65  1  0  0  0
 48115  1  0  0  0
 49 50  1  0  0  0
 49 53  1  0  0  0
 49 64  1  0  0  0
 49116  1  0  0  0
 50 51  1  0  0  0
 50117  1  0  0  0
 50118  1  0  0  0
 51 52  1  0  0  0
 51119  1  0  0  0
 51120  1  0  0  0
 52121  1  0  0  0
 52122  1  0  0  0
 53 54  1  0  0  0
 54 55  2  0  0  0
 54123  1  0  0  0
 55 57  1  0  0  0
 55124  1  0  0  0
 56 69  2  0  0  0
 57 58  2  0  0  0
 57125  1  0  0  0
 58126  1  0  0  0
 59 60  1  0  0  0
 59 61  1  0  0  0
 59 62  1  0  0  0
 60127  1  0  0  0
 60128  1  0  0  0
 60129  1  0  0  0
 61130  1  0  0  0
 61131  1  0  0  0
 61132  1  0  0  0
 62133  1  0  0  0
 62134  1  0  0  0
 62135  1  0  0  0
 63 65  1  0  0  0
 63136  1  0  0  0
 63137  1  0  0  0
 63138  1  0  0  0
 64139  1  0  0  0
 65140  1  0  0  0
 68 77  1  0  0  0
 71 73  2  0  0  0
 71 79  1  0  0  0
 71141  1  0  0  0
 72 74  1  0  0  0
 72 78  2  0  0  0
 72142  1  0  0  0
 73 75  1  0  0  0
 73 78  1  0  0  0
 74 79  2  0  0  0
 74 80  1  0  0  0
 75 81  1  0  0  0
 75143  1  0  0  0
 75144  1  0  0  0
 76 77  1  0  0  0
 76 80  1  0  0  0
 76145  1  0  0  0
 76146  1  0  0  0
 77147  1  0  0  0
 77148  1  0  0  0
 80149  1  0  0  0
 81150  1  0  0  0
M  ISO  4   1 100  68 101  77 101  81 100
M  END
> <chiral flag>
0

> <version>
0

> <s_m_source_file>
/data/baiqing/PycharmProjects/Reinvent-master-3.2/result/LINK_invent/BTK/process_docking_weight1_custom_product_contain_oxygen_bond_distance_aromatic_linkinvent_7_9_3/rearranged_h_0195.sdf

> <i_m_source_file_index>
65

> <r_mmod_Potential_Energy-OPLS-2005>
52.9301948547363

> <r_mmod_Stretch_Energy-OPLS-2005>
81.8198471069336

> <r_mmod_Bend_Energy-OPLS-2005>
173.540618896484

> <r_mmod_Torsional_Energy-OPLS-2005>
185.223846435547

> <r_mmod_Improper_Torsional_Energy-OPLS-2005>
3.82537221908569

> <r_mmod_Van_der_Waal_Energy-OPLS-2005>
154.522506713867

> <r_mmod_Electrostatic_Energy-OPLS-2005>
-363.532348632812

> <r_mmod_Solvation_Energy-OPLS-2005>
-238.481262207031

> <b_mmod_Minimization_Converged-OPLS-2005>
0

> <r_mmod_RMS_Derivative-OPLS-2005>
1.55392324924469

$$$$
65
                    3D
 Structure written by MMmdl.
152160  0  0  1  0            999 V2000
  -30.6152  -14.7615   20.4361 C   0  0  0  0  0  0
  -30.4403  -12.4575   19.4882 C   0  0  0  0  0  0
  -29.5227  -12.5144   18.2447 C   0  0  0  0  0  0
  -28.0468  -12.3436   18.6551 C   0  0  0  0  0  0
  -27.6488  -13.2435   19.8548 C   0  0  2  0  0  0
  -28.6917  -13.1788   20.9929 C   0  0  0  0  0  0
  -25.2548  -13.8251   20.5702 C   0  0  0  0  0  0
  -24.1830  -13.0493   20.9162 C   0  0  0  0  0  0
  -24.6421  -11.6978   20.8705 C   0  0  0  0  0  0
  -23.9114  -10.4338   21.0384 C   0  0  0  0  0  0
  -24.3655   -9.4271   21.9175 C   0  0  0  0  0  0
  -23.6322   -8.2311   22.0792 C   0  0  0  0  0  0
  -22.4296   -8.0324   21.3586 C   0  0  0  0  0  0
  -21.9933   -9.0301   20.4709 C   0  0  0  0  0  0
  -22.7266  -10.2171   20.3075 C   0  0  0  0  0  0
  -21.6896   -6.0748   22.5257 C   0  0  0  0  0  0
  -21.4019   -6.5637   23.8174 C   0  0  0  0  0  0
  -21.3667   -5.6795   24.9136 C   0  0  0  0  0  0
  -21.6032   -4.3043   24.7202 C   0  0  0  0  0  0
  -21.8832   -3.8148   23.4319 C   0  0  0  0  0  0
  -21.9219   -4.6975   22.3385 C   0  0  0  0  0  0
  -22.7851  -13.5296   21.1799 C   0  0  0  0  0  0
  -22.1689   -4.2161   21.0969 F   0  0  0  0  0  0
  -21.5653   -3.4535   25.7715 F   0  0  0  0  0  0
  -30.0001  -13.5248   20.4220 N   0  0  0  0  0  0
  -26.2985  -12.9475   20.3270 N   0  0  0  0  0  0
  -25.9344  -11.6616   20.5708 N   0  0  0  0  0  0
  -22.0498  -12.8282   22.0352 N   0  0  0  0  0  0
  -25.4271  -15.1989   20.4232 N   0  0  0  0  0  0
  -31.7916  -14.8487   20.0683 O   0  0  0  0  0  0
  -21.6692   -6.8888   21.4226 O   0  0  0  0  0  0
  -22.3520  -14.5639   20.6707 O   0  0  0  0  0  0
  -24.6364  -31.8552   23.1972 C   0  0  0  0  0  0
  -25.9190  -32.4749   23.8325 C   0  0  1  0  0  0
  -27.1998  -27.2251   20.1149 C   0  0  0  0  0  0
  -25.5971  -33.8552   24.2236 N   0  0  0  0  0  0
  -23.4312  -30.4799   21.5441 C   0  0  2  0  0  0
  -24.8714  -28.9254   20.1101 C   0  0  0  0  0  0
  -22.7535  -29.4609   22.4933 C   0  0  0  0  0  0
  -18.0293  -28.1429   22.8466 C   0  0  0  0  0  0
  -24.1477  -36.7271   23.2635 C   0  0  0  0  0  0
  -25.9815  -30.7554   21.3824 C   0  0  0  0  0  0
  -26.0492  -29.3752   20.7198 C   0  0  0  0  0  0
  -27.2166  -28.5381   20.7110 C   0  0  0  0  0  0
  -25.9946  -26.8570   19.4746 C   0  0  0  0  0  0
  -24.8502  -27.6755   19.4780 C   0  0  0  0  0  0
  -23.6492  -29.8220   20.1577 C   0  0  0  0  0  0
  -25.4110  -36.3061   24.0310 C   0  0  1  0  0  0
  -20.5896  -28.3730   23.1281 C   0  0  2  0  0  0
  -20.6788  -26.9451   22.5420 C   0  0  0  0  0  0
  -19.5759  -26.6408   21.5227 C   0  0  0  0  0  0
  -18.1937  -26.7968   22.1622 C   0  0  0  0  0  0
  -19.1551  -28.8897   23.2847 C   0  0  0  0  0  0
  -18.9476  -30.1502   23.8866 C   0  0  0  0  0  0
  -17.6481  -30.6620   24.0583 C   0  0  0  0  0  0
  -25.9075  -34.9441   23.5074 C   0  0  0  0  0  0
  -16.5366  -29.9122   23.6351 C   0  0  0  0  0  0
  -16.7287  -28.6550   23.0336 C   0  0  0  0  0  0
  -26.4520  -31.6593   25.0743 C   0  0  0  0  0  0
  -25.3717  -31.3803   26.1452 C   0  0  0  0  0  0
  -27.0369  -30.2993   24.6277 C   0  0  0  0  0  0
  -27.6060  -32.4340   25.7532 C   0  0  0  0  0  0
  -27.5581  -37.1784   24.8455 C   0  0  0  0  0  0
  -21.4242  -29.3061   22.3681 N   0  0  0  0  0  0
  -26.4270  -37.3781   23.9431 N   0  0  0  0  0  0
  -24.7023  -31.0493   22.0972 N   0  0  0  0  0  0
  -23.4225  -28.8163   23.3055 O   0  0  0  0  0  0
  -28.2713  -26.2914   20.1698 O   0  0  0  0  0  0
  -26.5658  -34.8927   22.4647 O   0  0  0  0  0  0
  -23.5506  -32.1419   23.7228 O   0  0  0  0  0  0
  -29.5372  -17.0449   18.6199 C   0  0  0  0  0  0
  -29.2648  -18.1834   17.8508 C   0  0  0  0  0  0
  -29.7169  -17.1747   20.0021 C   0  0  0  0  0  0
  -29.3153  -19.5585   19.7115 C   0  0  0  0  0  0
  -28.6732  -22.0903   19.7154 C   0  0  0  0  0  0
  -29.0770  -18.0683   16.3532 C   0  0  0  0  0  0
  -29.0106  -23.5771   20.2542 C   0  0  0  0  0  0
  -27.9826  -24.8132   19.9458 C   0  0  0  0  0  0
  -29.1710  -19.4100   18.3951 N   0  0  0  0  0  0
  -29.5833  -18.4722   20.5204 N   0  0  0  0  0  0
  -29.8692  -15.8970   20.7464 N   0  0  0  0  0  0
  -29.2727  -20.9171   20.2009 N   0  0  0  0  0  0
  -27.8095  -22.0333   18.8357 O   0  0  0  0  0  0
  -31.4858  -12.5691   19.1888 H   0  0  0  0  0  0
  -30.3762  -11.4823   19.9717 H   0  0  0  0  0  0
  -29.8065  -11.7372   17.5314 H   0  0  0  0  0  0
  -29.6550  -13.4669   17.7290 H   0  0  0  0  0  0
  -27.8917  -11.2959   18.9141 H   0  0  0  0  0  0
  -27.4006  -12.5510   17.8033 H   0  0  0  0  0  0
  -27.6435  -14.2667   19.4761 H   0  0  0  0  0  0
  -28.7239  -12.1835   21.4378 H   0  0  0  0  0  0
  -28.4264  -13.8632   21.7996 H   0  0  0  0  0  0
  -25.2813   -9.5783   22.4720 H   0  0  0  0  0  0
  -24.0063   -7.4752   22.7538 H   0  0  0  0  0  0
  -21.0853   -8.8842   19.9047 H   0  0  0  0  0  0
  -22.3719  -10.9706   19.6194 H   0  0  0  0  0  0
  -21.1982   -7.6136   23.9654 H   0  0  0  0  0  0
  -21.1487   -6.0527   25.9028 H   0  0  0  0  0  0
  -22.0617   -2.7621   23.2801 H   0  0  0  0  0  0
  -22.4126  -11.9940   22.4740 H   0  0  0  0  0  0
  -21.1136  -13.1342   22.2585 H   0  0  0  0  0  0
  -24.6709  -15.8581   20.5769 H   0  0  0  0  0  0
  -26.2716  -15.6435   20.0931 H   0  0  0  0  0  0
  -26.7271  -32.5368   23.1073 H   0  0  0  0  0  0
  -25.0111  -33.9701   25.0376 H   0  0  0  0  0  0
  -22.7265  -31.3013   21.4025 H   0  0  0  0  0  0
  -23.3753  -35.9588   23.3264 H   0  0  0  0  0  0
  -24.3569  -36.8950   22.2061 H   0  0  0  0  0  0
  -23.7213  -37.6444   23.6696 H   0  0  0  0  0  0
  -26.1252  -31.5139   20.6111 H   0  0  0  0  0  0
  -26.8578  -30.8028   22.0174 H   0  0  0  0  0  0
  -28.1166  -28.8720   21.2090 H   0  0  0  0  0  0
  -25.8905  -25.9037   18.9789 H   0  0  0  0  0  0
  -23.9478  -27.3255   18.9967 H   0  0  0  0  0  0
  -23.7911  -30.6043   19.4105 H   0  0  0  0  0  0
  -22.7609  -29.2718   19.8412 H   0  0  0  0  0  0
  -25.1283  -36.1883   25.0802 H   0  0  0  0  0  0
  -20.9949  -28.3315   24.1415 H   0  0  0  0  0  0
  -20.5724  -26.2351   23.3629 H   0  0  0  0  0  0
  -21.6661  -26.7526   22.1199 H   0  0  0  0  0  0
  -19.6929  -25.6307   21.1283 H   0  0  0  0  0  0
  -19.6686  -27.3205   20.6739 H   0  0  0  0  0  0
  -17.4208  -26.6711   21.4009 H   0  0  0  0  0  0
  -18.0319  -26.0132   22.9040 H   0  0  0  0  0  0
  -19.7955  -30.7324   24.2202 H   0  0  0  0  0  0
  -17.5043  -31.6282   24.5220 H   0  0  0  0  0  0
  -15.5365  -30.3024   23.7692 H   0  0  0  0  0  0
  -15.8685  -28.0892   22.7027 H   0  0  0  0  0  0
  -24.5831  -30.7227   25.7787 H   0  0  0  0  0  0
  -24.8972  -32.3003   26.4871 H   0  0  0  0  0  0
  -25.7980  -30.8963   27.0244 H   0  0  0  0  0  0
  -26.2986  -29.6733   24.1247 H   0  0  0  0  0  0
  -27.3983  -29.7275   25.4839 H   0  0  0  0  0  0
  -27.8892  -30.4259   23.9595 H   0  0  0  0  0  0
  -27.2654  -33.3641   26.2098 H   0  0  0  0  0  0
  -28.3874  -32.6900   25.0366 H   0  0  0  0  0  0
  -28.0721  -31.8473   26.5463 H   0  0  0  0  0  0
  -28.2551  -38.0130   24.7564 H   0  0  0  0  0  0
  -28.1113  -36.2655   24.6161 H   0  0  0  0  0  0
  -27.2328  -37.1329   25.8869 H   0  0  0  0  0  0
  -20.9468  -29.8765   21.6846 H   0  0  0  0  0  0
  -26.0118  -38.2833   24.1482 H   0  0  0  0  0  0
  -29.5858  -16.0786   18.1370 H   0  0  0  0  0  0
  -30.0485  -17.9610   15.8720 H   0  0  0  0  0  0
  -28.5794  -18.9430   15.9334 H   0  0  0  0  0  0
  -28.4777  -17.1903   16.1092 H   0  0  0  0  0  0
  -29.9664  -23.8366   19.7967 H   0  0  0  0  0  0
  -29.1998  -23.5221   21.3269 H   0  0  0  0  0  0
  -27.0811  -24.5833   20.5172 H   0  0  0  0  0  0
  -27.6973  -24.7126   18.8987 H   0  0  0  0  0  0
  -29.1049  -15.7155   21.3740 H   0  0  0  0  0  0
  -29.8442  -21.0570   21.0186 H   0  0  0  0  0  0
  1 25  1  0  0  0
  1 30  2  0  0  0
  1 81  1  0  0  0
  2  3  1  0  0  0
  2 25  1  0  0  0
  2 84  1  0  0  0
  2 85  1  0  0  0
  3  4  1  0  0  0
  3 86  1  0  0  0
  3 87  1  0  0  0
  4  5  1  0  0  0
  4 88  1  0  0  0
  4 89  1  0  0  0
  5  6  1  0  0  0
  5 26  1  0  0  0
  5 90  1  0  0  0
  6 25  1  0  0  0
  6 91  1  0  0  0
  6 92  1  0  0  0
  7  8  2  0  0  0
  7 26  1  0  0  0
  7 29  1  0  0  0
  8  9  1  0  0  0
  8 22  1  0  0  0
  9 10  1  0  0  0
  9 27  2  0  0  0
 10 11  2  0  0  0
 10 15  1  0  0  0
 11 12  1  0  0  0
 11 93  1  0  0  0
 12 13  2  0  0  0
 12 94  1  0  0  0
 13 14  1  0  0  0
 13 31  1  0  0  0
 14 15  2  0  0  0
 14 95  1  0  0  0
 15 96  1  0  0  0
 16 17  2  0  0  0
 16 21  1  0  0  0
 16 31  1  0  0  0
 17 18  1  0  0  0
 17 97  1  0  0  0
 18 19  2  0  0  0
 18 98  1  0  0  0
 19 20  1  0  0  0
 19 24  1  0  0  0
 20 21  2  0  0  0
 20 99  1  0  0  0
 21 23  1  0  0  0
 22 28  1  0  0  0
 22 32  2  0  0  0
 26 27  1  0  0  0
 28100  1  0  0  0
 28101  1  0  0  0
 29102  1  0  0  0
 29103  1  0  0  0
 33 34  1  0  0  0
 33 66  1  0  0  0
 33 70  2  0  0  0
 34 36  1  0  0  0
 34 59  1  0  0  0
 34104  1  0  0  0
 35 44  2  0  0  0
 35 45  1  0  0  0
 35 68  1  0  0  0
 36 56  1  0  0  0
 36105  1  0  0  0
 37 39  1  0  0  0
 37 47  1  0  0  0
 37 66  1  0  0  0
 37106  1  0  0  0
 38 43  2  0  0  0
 38 46  1  0  0  0
 38 47  1  0  0  0
 39 64  1  0  0  0
 39 67  2  0  0  0
 40 52  1  0  0  0
 40 53  2  0  0  0
 40 58  1  0  0  0
 41107  1  0  0  0
 41108  1  0  0  0
 41109  1  0  0  0
 41 48  1  0  0  0
 42 43  1  0  0  0
 42 66  1  0  0  0
 42110  1  0  0  0
 42111  1  0  0  0
 43 44  1  0  0  0
 44112  1  0  0  0
 45 46  2  0  0  0
 45113  1  0  0  0
 46114  1  0  0  0
 47115  1  0  0  0
 47116  1  0  0  0
 48 56  1  0  0  0
 48 65  1  0  0  0
 48117  1  0  0  0
 49 50  1  0  0  0
 49 53  1  0  0  0
 49 64  1  0  0  0
 49118  1  0  0  0
 50 51  1  0  0  0
 50119  1  0  0  0
 50120  1  0  0  0
 51 52  1  0  0  0
 51121  1  0  0  0
 51122  1  0  0  0
 52123  1  0  0  0
 52124  1  0  0  0
 53 54  1  0  0  0
 54 55  2  0  0  0
 54125  1  0  0  0
 55 57  1  0  0  0
 55126  1  0  0  0
 56 69  2  0  0  0
 57 58  2  0  0  0
 57127  1  0  0  0
 58128  1  0  0  0
 59 60  1  0  0  0
 59 61  1  0  0  0
 59 62  1  0  0  0
 60129  1  0  0  0
 60130  1  0  0  0
 60131  1  0  0  0
 61132  1  0  0  0
 61133  1  0  0  0
 61134  1  0  0  0
 62135  1  0  0  0
 62136  1  0  0  0
 62137  1  0  0  0
 63 65  1  0  0  0
 63138  1  0  0  0
 63139  1  0  0  0
 63140  1  0  0  0
 64141  1  0  0  0
 65142  1  0  0  0
 68 78  1  0  0  0
 71 72  2  0  0  0
 71 73  1  0  0  0
 71143  1  0  0  0
 72 76  1  0  0  0
 72 79  1  0  0  0
 73 80  2  0  0  0
 73 81  1  0  0  0
 74 79  2  0  0  0
 74 80  1  0  0  0
 74 82  1  0  0  0
 75 77  1  0  0  0
 75 82  1  0  0  0
 75 83  2  0  0  0
 76144  1  0  0  0
 76145  1  0  0  0
 76146  1  0  0  0
 77 78  1  0  0  0
 77147  1  0  0  0
 77148  1  0  0  0
 78149  1  0  0  0
 78150  1  0  0  0
 81151  1  0  0  0
 82152  1  0  0  0
M  ISO  4   1 100  68 101  78 101  81 100
M  END
> <chiral flag>
0

> <version>
0

> <s_m_source_file>
/data/baiqing/PycharmProjects/Reinvent-master-3.2/result/LINK_invent/BTK/process_docking_weight1_custom_product_contain_oxygen_bond_distance_aromatic_linkinvent_7_9_3/rearranged_h_0195.sdf

> <i_m_source_file_index>
66

> <r_mmod_Potential_Energy-OPLS-2005>
-222.871566772461

> <r_mmod_Stretch_Energy-OPLS-2005>
143.498397827148

> <r_mmod_Bend_Energy-OPLS-2005>
177.299026489258

> <r_mmod_Torsional_Energy-OPLS-2005>
250.987243652344

> <r_mmod_Improper_Torsional_Energy-OPLS-2005>
5.12207508087158

> <r_mmod_Van_der_Waal_Energy-OPLS-2005>
146.747589111328

> <r_mmod_Electrostatic_Energy-OPLS-2005>
-781.374877929688

> <r_mmod_Solvation_Energy-OPLS-2005>
-266.034637451172

> <b_mmod_Minimization_Converged-OPLS-2005>
0

> <r_mmod_RMS_Derivative-OPLS-2005>
4.0120792388916

$$$$
66
                    3D
 Structure written by MMmdl.
157165  0  0  1  0            999 V2000
  -30.6682  -14.5743   20.5204 C   0  0  0  0  0  0
  -30.4293  -12.3605   19.4365 C   0  0  0  0  0  0
  -29.5054  -12.5130   18.2115 C   0  0  0  0  0  0
  -28.0230  -12.3731   18.6147 C   0  0  0  0  0  0
  -27.6554  -13.2237   19.8622 C   0  0  2  0  0  0
  -28.7013  -13.0557   20.9875 C   0  0  0  0  0  0
  -25.2573  -13.8210   20.5679 C   0  0  0  0  0  0
  -24.1834  -13.0452   20.9134 C   0  0  0  0  0  0
  -24.6422  -11.6921   20.8697 C   0  0  0  0  0  0
  -23.9098  -10.4288   21.0369 C   0  0  0  0  0  0
  -24.3642   -9.4208   21.9166 C   0  0  0  0  0  0
  -23.6306   -8.2252   22.0761 C   0  0  0  0  0  0
  -22.4287   -8.0296   21.3556 C   0  0  0  0  0  0
  -21.9919   -9.0259   20.4662 C   0  0  0  0  0  0
  -22.7249  -10.2129   20.3037 C   0  0  0  0  0  0
  -21.6854   -6.0735   22.5273 C   0  0  0  0  0  0
  -21.4017   -6.5642   23.8203 C   0  0  0  0  0  0
  -21.3652   -5.6797   24.9172 C   0  0  0  0  0  0
  -21.6049   -4.3056   24.7215 C   0  0  0  0  0  0
  -21.8819   -3.8144   23.4337 C   0  0  0  0  0  0
  -21.9184   -4.6961   22.3392 C   0  0  0  0  0  0
  -22.7848  -13.5226   21.1804 C   0  0  0  0  0  0
  -22.1646   -4.2150   21.0965 F   0  0  0  0  0  0
  -21.5647   -3.4537   25.7724 F   0  0  0  0  0  0
  -30.0177  -13.3785   20.4187 N   0  0  0  0  0  0
  -26.3017  -12.9405   20.3300 N   0  0  0  0  0  0
  -25.9356  -11.6544   20.5720 N   0  0  0  0  0  0
  -22.0509  -12.8223   22.0386 N   0  0  0  0  0  0
  -25.4315  -15.1937   20.4169 N   0  0  0  0  0  0
  -31.8332  -14.7181   20.1465 O   0  0  0  0  0  0
  -21.6665   -6.8881   21.4236 O   0  0  0  0  0  0
  -22.3490  -14.5499   20.6611 O   0  0  0  0  0  0
  -24.6244  -31.8623   23.2045 C   0  0  0  0  0  0
  -25.9102  -32.4798   23.8360 C   0  0  1  0  0  0
  -27.2233  -27.3449   20.1179 C   0  0  0  0  0  0
  -25.5923  -33.8596   24.2294 N   0  0  0  0  0  0
  -23.4157  -30.4857   21.5481 C   0  0  2  0  0  0
  -24.8594  -28.9389   20.1172 C   0  0  0  0  0  0
  -22.7467  -29.4637   22.4965 C   0  0  0  0  0  0
  -18.0284  -28.1392   22.8493 C   0  0  0  0  0  0
  -24.1483  -36.7306   23.2640 C   0  0  0  0  0  0
  -25.9524  -30.8016   21.3696 C   0  0  0  0  0  0
  -26.0270  -29.4285   20.7163 C   0  0  0  0  0  0
  -27.2140  -28.6436   20.7050 C   0  0  0  0  0  0
  -26.0368  -26.8994   19.4946 C   0  0  0  0  0  0
  -24.8634  -27.6780   19.4997 C   0  0  0  0  0  0
  -23.6279  -29.8178   20.1646 C   0  0  0  0  0  0
  -25.4106  -36.3098   24.0336 C   0  0  1  0  0  0
  -20.5886  -28.3686   23.1307 C   0  0  2  0  0  0
  -20.6775  -26.9416   22.5424 C   0  0  0  0  0  0
  -19.5746  -26.6385   21.5232 C   0  0  0  0  0  0
  -18.1925  -26.7934   22.1635 C   0  0  0  0  0  0
  -19.1533  -28.8855   23.2896 C   0  0  0  0  0  0
  -18.9462  -30.1462   23.8897 C   0  0  0  0  0  0
  -17.6460  -30.6600   24.0567 C   0  0  0  0  0  0
  -25.9043  -34.9466   23.5116 C   0  0  0  0  0  0
  -16.5350  -29.9095   23.6331 C   0  0  0  0  0  0
  -16.7271  -28.6516   23.0344 C   0  0  0  0  0  0
  -26.4482  -31.6605   25.0730 C   0  0  0  0  0  0
  -25.3717  -31.3749   26.1469 C   0  0  0  0  0  0
  -27.0332  -30.3032   24.6178 C   0  0  0  0  0  0
  -27.6035  -32.4346   25.7508 C   0  0  0  0  0  0
  -27.5581  -37.1815   24.8468 C   0  0  0  0  0  0
  -21.4188  -29.3044   22.3714 N   0  0  0  0  0  0
  -26.4287  -37.3789   23.9418 N   0  0  0  0  0  0
  -24.6830  -31.0658   22.0983 N   0  0  0  0  0  0
  -23.4207  -28.8190   23.3041 O   0  0  0  0  0  0
  -28.3561  -26.5308   20.1227 O   0  0  0  0  0  0
  -26.5615  -34.8929   22.4683 O   0  0  0  0  0  0
  -23.5421  -32.1405   23.7394 O   0  0  0  0  0  0
  -29.3226  -18.0898   20.3395 C   0  0  0  0  0  0
  -27.4847  -18.4207   19.1785 C   0  0  0  0  0  0
  -28.6406  -20.1812   19.8320 C   0  0  0  0  0  0
  -30.8780  -22.3310   20.7880 C   0  0  0  0  0  0
  -30.3352  -17.0759   20.9302 C   0  0  0  0  0  0
  -29.2407  -24.1048   19.9261 C   0  0  0  0  0  0
  -28.1982  -25.1233   20.5285 C   0  0  0  0  0  0
  -29.3850  -22.6404   20.5515 C   0  0  1  0  0  0
  -28.2768  -17.5308   19.7331 N   0  0  0  0  0  0
  -29.5606  -19.4195   20.4445 N   0  0  0  0  0  0
  -27.5851  -19.7349   19.1737 N   0  0  0  0  0  0
  -26.4172  -17.9122   18.5145 N   0  0  0  0  0  0
  -28.7419  -21.5834   19.7324 N   0  0  0  0  0  0
  -29.9204  -15.6423   20.8840 N   0  0  0  0  0  0
  -31.4752  -12.4649   19.1395 H   0  0  0  0  0  0
  -30.3372  -11.3616   19.8639 H   0  0  0  0  0  0
  -29.7647  -11.7730   17.4542 H   0  0  0  0  0  0
  -29.6686  -13.4880   17.7502 H   0  0  0  0  0  0
  -27.8322  -11.3175   18.8092 H   0  0  0  0  0  0
  -27.3823  -12.6480   17.7748 H   0  0  0  0  0  0
  -27.6809  -14.2654   19.5414 H   0  0  0  0  0  0
  -28.6976  -12.0318   21.3632 H   0  0  0  0  0  0
  -28.4636  -13.6879   21.8444 H   0  0  0  0  0  0
  -25.2791   -9.5681   22.4744 H   0  0  0  0  0  0
  -24.0000   -7.4652   22.7489 H   0  0  0  0  0  0
  -21.0852   -8.8756   19.8985 H   0  0  0  0  0  0
  -22.3684  -10.9665   19.6146 H   0  0  0  0  0  0
  -21.2019   -7.6154   23.9693 H   0  0  0  0  0  0
  -21.1488   -6.0547   25.9075 H   0  0  0  0  0  0
  -22.0611   -2.7607   23.2837 H   0  0  0  0  0  0
  -22.4100  -11.9863   22.4754 H   0  0  0  0  0  0
  -21.1137  -13.1267   22.2609 H   0  0  0  0  0  0
  -24.6715  -15.8537   20.5388 H   0  0  0  0  0  0
  -26.2981  -15.6461   20.1499 H   0  0  0  0  0  0
  -26.7174  -32.5477   23.1116 H   0  0  0  0  0  0
  -25.0066  -33.9739   25.0438 H   0  0  0  0  0  0
  -22.7077  -31.3047   21.4068 H   0  0  0  0  0  0
  -23.3747  -35.9637   23.3306 H   0  0  0  0  0  0
  -24.3564  -36.8930   22.2054 H   0  0  0  0  0  0
  -23.7236  -37.6511   23.6649 H   0  0  0  0  0  0
  -26.0768  -31.5645   20.5995 H   0  0  0  0  0  0
  -26.8366  -30.8533   21.9933 H   0  0  0  0  0  0
  -28.1135  -29.0190   21.1722 H   0  0  0  0  0  0
  -26.0095  -25.9422   18.9937 H   0  0  0  0  0  0
  -23.9671  -27.3008   19.0269 H   0  0  0  0  0  0
  -23.7465  -30.5933   19.4079 H   0  0  0  0  0  0
  -22.7483  -29.2464   19.8634 H   0  0  0  0  0  0
  -25.1284  -36.1944   25.0827 H   0  0  0  0  0  0
  -20.9958  -28.3247   24.1436 H   0  0  0  0  0  0
  -20.5690  -26.2291   23.3618 H   0  0  0  0  0  0
  -21.6640  -26.7458   22.1203 H   0  0  0  0  0  0
  -19.6902  -25.6294   21.1263 H   0  0  0  0  0  0
  -19.6687  -27.3196   20.6764 H   0  0  0  0  0  0
  -17.4200  -26.6702   21.4035 H   0  0  0  0  0  0
  -18.0312  -26.0077   22.9026 H   0  0  0  0  0  0
  -19.7936  -30.7293   24.2256 H   0  0  0  0  0  0
  -17.5013  -31.6273   24.5176 H   0  0  0  0  0  0
  -15.5353  -30.2998   23.7655 H   0  0  0  0  0  0
  -15.8672  -28.0846   22.7037 H   0  0  0  0  0  0
  -24.5859  -30.7136   25.7805 H   0  0  0  0  0  0
  -24.8945  -32.2923   26.4917 H   0  0  0  0  0  0
  -25.8037  -30.8899   27.0232 H   0  0  0  0  0  0
  -26.2913  -29.6794   24.1179 H   0  0  0  0  0  0
  -27.4022  -29.7276   25.4682 H   0  0  0  0  0  0
  -27.8774  -30.4349   23.9406 H   0  0  0  0  0  0
  -27.2625  -33.3632   26.2096 H   0  0  0  0  0  0
  -28.3828  -32.6947   25.0332 H   0  0  0  0  0  0
  -28.0712  -31.8471   26.5420 H   0  0  0  0  0  0
  -28.2602  -38.0111   24.7512 H   0  0  0  0  0  0
  -28.1076  -36.2646   24.6280 H   0  0  0  0  0  0
  -27.2304  -37.1450   25.8874 H   0  0  0  0  0  0
  -20.9362  -29.8763   21.6927 H   0  0  0  0  0  0
  -26.0177  -38.2870   24.1410 H   0  0  0  0  0  0
  -31.3609  -23.1171   21.3699 H   0  0  0  0  0  0
  -31.4230  -22.2406   19.8465 H   0  0  0  0  0  0
  -31.0253  -21.4109   21.3537 H   0  0  0  0  0  0
  -30.5161  -17.3375   21.9725 H   0  0  0  0  0  0
  -31.2860  -17.2146   20.4135 H   0  0  0  0  0  0
  -30.2040  -24.6065   20.0179 H   0  0  0  0  0  0
  -29.0845  -24.0300   18.8490 H   0  0  0  0  0  0
  -28.2935  -25.1044   21.6138 H   0  0  0  0  0  0
  -27.2002  -24.7360   20.3320 H   0  0  0  0  0  0
  -28.8907  -22.6383   21.5241 H   0  0  0  0  0  0
  -26.4761  -16.9459   18.2293 H   0  0  0  0  0  0
  -25.9626  -18.5273   17.8544 H   0  0  0  0  0  0
  -27.9859  -21.9527   19.1679 H   0  0  0  0  0  0
  -28.9333  -15.4898   21.0140 H   0  0  0  0  0  0
  1 25  1  0  0  0
  1 30  2  0  0  0
  1 84  1  0  0  0
  2  3  1  0  0  0
  2 25  1  0  0  0
  2 85  1  0  0  0
  2 86  1  0  0  0
  3  4  1  0  0  0
  3 87  1  0  0  0
  3 88  1  0  0  0
  4  5  1  0  0  0
  4 89  1  0  0  0
  4 90  1  0  0  0
  5  6  1  0  0  0
  5 26  1  0  0  0
  5 91  1  0  0  0
  6 25  1  0  0  0
  6 92  1  0  0  0
  6 93  1  0  0  0
  7  8  2  0  0  0
  7 26  1  0  0  0
  7 29  1  0  0  0
  8  9  1  0  0  0
  8 22  1  0  0  0
  9 10  1  0  0  0
  9 27  2  0  0  0
 10 11  2  0  0  0
 10 15  1  0  0  0
 11 12  1  0  0  0
 11 94  1  0  0  0
 12 13  2  0  0  0
 12 95  1  0  0  0
 13 14  1  0  0  0
 13 31  1  0  0  0
 14 15  2  0  0  0
 14 96  1  0  0  0
 15 97  1  0  0  0
 16 17  2  0  0  0
 16 21  1  0  0  0
 16 31  1  0  0  0
 17 18  1  0  0  0
 17 98  1  0  0  0
 18 19  2  0  0  0
 18 99  1  0  0  0
 19 20  1  0  0  0
 19 24  1  0  0  0
 20 21  2  0  0  0
 20100  1  0  0  0
 21 23  1  0  0  0
 22 28  1  0  0  0
 22 32  2  0  0  0
 26 27  1  0  0  0
 28101  1  0  0  0
 28102  1  0  0  0
 29103  1  0  0  0
 29104  1  0  0  0
 33 34  1  0  0  0
 33 66  1  0  0  0
 33 70  2  0  0  0
 34 36  1  0  0  0
 34 59  1  0  0  0
 34105  1  0  0  0
 35 44  2  0  0  0
 35 45  1  0  0  0
 35 68  1  0  0  0
 36 56  1  0  0  0
 36106  1  0  0  0
 37 39  1  0  0  0
 37 47  1  0  0  0
 37 66  1  0  0  0
 37107  1  0  0  0
 38 43  2  0  0  0
 38 46  1  0  0  0
 38 47  1  0  0  0
 39 64  1  0  0  0
 39 67  2  0  0  0
 40 52  1  0  0  0
 40 53  2  0  0  0
 40 58  1  0  0  0
 41108  1  0  0  0
 41109  1  0  0  0
 41110  1  0  0  0
 41 48  1  0  0  0
 42 43  1  0  0  0
 42 66  1  0  0  0
 42111  1  0  0  0
 42112  1  0  0  0
 43 44  1  0  0  0
 44113  1  0  0  0
 45 46  2  0  0  0
 45114  1  0  0  0
 46115  1  0  0  0
 47116  1  0  0  0
 47117  1  0  0  0
 48 56  1  0  0  0
 48 65  1  0  0  0
 48118  1  0  0  0
 49 50  1  0  0  0
 49 53  1  0  0  0
 49 64  1  0  0  0
 49119  1  0  0  0
 50 51  1  0  0  0
 50120  1  0  0  0
 50121  1  0  0  0
 51 52  1  0  0  0
 51122  1  0  0  0
 51123  1  0  0  0
 52124  1  0  0  0
 52125  1  0  0  0
 53 54  1  0  0  0
 54 55  2  0  0  0
 54126  1  0  0  0
 55 57  1  0  0  0
 55127  1  0  0  0
 56 69  2  0  0  0
 57 58  2  0  0  0
 57128  1  0  0  0
 58129  1  0  0  0
 59 60  1  0  0  0
 59 61  1  0  0  0
 59 62  1  0  0  0
 60130  1  0  0  0
 60131  1  0  0  0
 60132  1  0  0  0
 61133  1  0  0  0
 61134  1  0  0  0
 61135  1  0  0  0
 62136  1  0  0  0
 62137  1  0  0  0
 62138  1  0  0  0
 63 65  1  0  0  0
 63139  1  0  0  0
 63140  1  0  0  0
 63141  1  0  0  0
 64142  1  0  0  0
 65143  1  0  0  0
 68 77  1  0  0  0
 71 75  1  0  0  0
 71 79  1  0  0  0
 71 80  2  0  0  0
 72 79  2  0  0  0
 72 81  1  0  0  0
 72 82  1  0  0  0
 73 80  1  0  0  0
 73 81  2  0  0  0
 73 83  1  0  0  0
 74144  1  0  0  0
 74145  1  0  0  0
 74146  1  0  0  0
 74 78  1  0  0  0
 75 84  1  0  0  0
 75147  1  0  0  0
 75148  1  0  0  0
 76 77  1  0  0  0
 76 78  1  0  0  0
 76149  1  0  0  0
 76150  1  0  0  0
 77151  1  0  0  0
 77152  1  0  0  0
 78 83  1  0  0  0
 78153  1  0  0  0
 82154  1  0  0  0
 82155  1  0  0  0
 83156  1  0  0  0
 84157  1  0  0  0
M  ISO  4   1 100  68 101  77 101  84 100
M  END
> <chiral flag>
0

> <version>
0

> <s_m_source_file>
/data/baiqing/PycharmProjects/Reinvent-master-3.2/result/LINK_invent/BTK/process_docking_weight1_custom_product_contain_oxygen_bond_distance_aromatic_linkinvent_7_9_3/rearranged_h_0195.sdf

> <i_m_source_file_index>
67

> <r_mmod_Potential_Energy-OPLS-2005>
-1056.76171875

> <r_mmod_Stretch_Energy-OPLS-2005>
60.9694061279297

> <r_mmod_Bend_Energy-OPLS-2005>
144.413528442383

> <r_mmod_Torsional_Energy-OPLS-2005>
223.941772460938

> <r_mmod_Improper_Torsional_Energy-OPLS-2005>
8.47619247436523

> <r_mmod_Van_der_Waal_Energy-OPLS-2005>
165.002227783203

> <r_mmod_Electrostatic_Energy-OPLS-2005>
-1461.5380859375

> <r_mmod_Solvation_Energy-OPLS-2005>
-231.269958496094

> <b_mmod_Minimization_Converged-OPLS-2005>
0

> <r_mmod_RMS_Derivative-OPLS-2005>
2.61006617546082

$$$$
67
                    3D
 Structure written by MMmdl.
152160  0  0  1  0            999 V2000
  -30.6873  -14.4759   20.5746 C   0  0  0  0  0  0
  -30.4194  -12.3008   19.4295 C   0  0  0  0  0  0
  -29.4981  -12.4971   18.2075 C   0  0  0  0  0  0
  -28.0178  -12.3525   18.6161 C   0  0  0  0  0  0
  -27.6581  -13.2022   19.8650 C   0  0  2  0  0  0
  -28.6975  -12.9993   20.9913 C   0  0  0  0  0  0
  -25.2583  -13.8137   20.5665 C   0  0  0  0  0  0
  -24.1841  -13.0434   20.9168 C   0  0  0  0  0  0
  -24.6370  -11.6891   20.8707 C   0  0  0  0  0  0
  -23.9025  -10.4296   21.0386 C   0  0  0  0  0  0
  -24.3591   -9.4219   21.9164 C   0  0  0  0  0  0
  -23.6275   -8.2257   22.0741 C   0  0  0  0  0  0
  -22.4256   -8.0282   21.3549 C   0  0  0  0  0  0
  -21.9897   -9.0243   20.4646 C   0  0  0  0  0  0
  -22.7198  -10.2129   20.3039 C   0  0  0  0  0  0
  -21.6853   -6.0720   22.5275 C   0  0  0  0  0  0
  -21.4010   -6.5615   23.8209 C   0  0  0  0  0  0
  -21.3670   -5.6777   24.9175 C   0  0  0  0  0  0
  -21.6044   -4.3037   24.7230 C   0  0  0  0  0  0
  -21.8815   -3.8125   23.4348 C   0  0  0  0  0  0
  -21.9194   -4.6947   22.3403 C   0  0  0  0  0  0
  -22.7864  -13.5233   21.1847 C   0  0  0  0  0  0
  -22.1657   -4.2124   21.0984 F   0  0  0  0  0  0
  -21.5652   -3.4527   25.7750 F   0  0  0  0  0  0
  -30.0298  -13.2904   20.4455 N   0  0  0  0  0  0
  -26.3007  -12.9299   20.3305 N   0  0  0  0  0  0
  -25.9290  -11.6463   20.5706 N   0  0  0  0  0  0
  -22.0504  -12.8243   22.0404 N   0  0  0  0  0  0
  -25.4340  -15.1849   20.4068 N   0  0  0  0  0  0
  -31.8238  -14.6390   20.1178 O   0  0  0  0  0  0
  -21.6626   -6.8870   21.4245 O   0  0  0  0  0  0
  -22.3547  -14.5550   20.6695 O   0  0  0  0  0  0
  -24.6153  -31.8683   23.2093 C   0  0  0  0  0  0
  -25.9070  -32.4805   23.8371 C   0  0  1  0  0  0
  -27.2406  -27.4323   20.0915 C   0  0  0  0  0  0
  -25.5924  -33.8600   24.2298 N   0  0  0  0  0  0
  -23.4019  -30.4915   21.5507 C   0  0  2  0  0  0
  -24.8453  -28.9502   20.1203 C   0  0  0  0  0  0
  -22.7432  -29.4681   22.5026 C   0  0  0  0  0  0
  -18.0340  -28.1373   22.8507 C   0  0  0  0  0  0
  -24.1491  -36.7308   23.2632 C   0  0  0  0  0  0
  -25.9303  -30.8312   21.3621 C   0  0  0  0  0  0
  -26.0042  -29.4656   20.7092 C   0  0  0  0  0  0
  -27.2003  -28.7142   20.6889 C   0  0  0  0  0  0
  -26.0525  -26.9210   19.5179 C   0  0  0  0  0  0
  -24.8637  -27.6759   19.5272 C   0  0  0  0  0  0
  -23.6080  -29.8187   20.1672 C   0  0  0  0  0  0
  -25.4118  -36.3099   24.0322 C   0  0  1  0  0  0
  -20.5918  -28.3670   23.1357 C   0  0  2  0  0  0
  -20.6856  -26.9425   22.5435 C   0  0  0  0  0  0
  -19.5855  -26.6404   21.5223 C   0  0  0  0  0  0
  -18.2022  -26.7922   22.1620 C   0  0  0  0  0  0
  -19.1582  -28.8843   23.2920 C   0  0  0  0  0  0
  -18.9525  -30.1453   23.8914 C   0  0  0  0  0  0
  -17.6534  -30.6606   24.0554 C   0  0  0  0  0  0
  -25.9047  -34.9467   23.5108 C   0  0  0  0  0  0
  -16.5421  -29.9091   23.6359 C   0  0  0  0  0  0
  -16.7327  -28.6500   23.0390 C   0  0  0  0  0  0
  -26.4499  -31.6589   25.0710 C   0  0  0  0  0  0
  -25.3788  -31.3690   26.1473 C   0  0  0  0  0  0
  -27.0337  -30.3024   24.6120 C   0  0  0  0  0  0
  -27.6075  -32.4304   25.7485 C   0  0  0  0  0  0
  -27.5581  -37.1815   24.8464 C   0  0  0  0  0  0
  -21.4166  -29.3056   22.3775 N   0  0  0  0  0  0
  -26.4306  -37.3783   23.9391 N   0  0  0  0  0  0
  -24.6668  -31.0804   22.0976 N   0  0  0  0  0  0
  -23.4217  -28.8222   23.3069 O   0  0  0  0  0  0
  -28.4504  -26.7620   20.0834 O   0  0  0  0  0  0
  -26.5598  -34.8934   22.4658 O   0  0  0  0  0  0
  -23.5355  -32.1426   23.7513 O   0  0  0  0  0  0
  -28.2245  -18.2975   20.4002 C   0  0  0  0  0  0
  -27.6682  -19.6123   20.4272 C   0  0  0  0  0  0
  -29.5725  -18.2648   20.6484 C   0  0  0  0  0  0
  -28.5749  -20.6131   20.6750 C   0  0  0  0  0  0
  -29.0335  -23.0364   20.6844 C   0  0  0  0  0  0
  -30.4988  -17.0688   20.6058 C   0  0  0  0  0  0
  -29.9503  -15.7157   21.1528 C   0  0  0  0  0  0
  -28.3245  -24.4023   20.8303 C   0  0  0  0  0  0
  -28.5622  -25.3913   19.6607 C   0  0  0  0  0  0
  -28.2501  -21.9400   20.7232 N   0  0  0  0  0  0
  -30.2604  -22.9960   20.5598 O   0  0  0  0  0  0
  -30.1623  -19.8930   20.9457 S   0  0  0  0  0  0
  -31.4661  -12.3918   19.1373 H   0  0  0  0  0  0
  -30.3104  -11.2904   19.8275 H   0  0  0  0  0  0
  -29.7423  -11.7680   17.4345 H   0  0  0  0  0  0
  -29.6676  -13.4818   17.7658 H   0  0  0  0  0  0
  -27.8402  -11.2960   18.8212 H   0  0  0  0  0  0
  -27.3660  -12.6127   17.7799 H   0  0  0  0  0  0
  -27.6937  -14.2449   19.5483 H   0  0  0  0  0  0
  -28.6667  -11.9697   21.3534 H   0  0  0  0  0  0
  -28.4610  -13.6178   21.8575 H   0  0  0  0  0  0
  -25.2727   -9.5699   22.4744 H   0  0  0  0  0  0
  -23.9984   -7.4642   22.7446 H   0  0  0  0  0  0
  -21.0838   -8.8730   19.8951 H   0  0  0  0  0  0
  -22.3619  -10.9664   19.6157 H   0  0  0  0  0  0
  -21.1978   -7.6116   23.9702 H   0  0  0  0  0  0
  -21.1513   -6.0511   25.9084 H   0  0  0  0  0  0
  -22.0585   -2.7585   23.2849 H   0  0  0  0  0  0
  -22.4075  -11.9876   22.4791 H   0  0  0  0  0  0
  -21.1144  -13.1315   22.2627 H   0  0  0  0  0  0
  -24.6743  -15.8489   20.5126 H   0  0  0  0  0  0
  -26.2926  -15.6118   20.0876 H   0  0  0  0  0  0
  -26.7152  -32.5501   23.1136 H   0  0  0  0  0  0
  -25.0127  -33.9746   25.0481 H   0  0  0  0  0  0
  -22.6902  -31.3082   21.4107 H   0  0  0  0  0  0
  -23.3747  -35.9645   23.3308 H   0  0  0  0  0  0
  -24.3599  -36.8916   22.2049 H   0  0  0  0  0  0
  -23.7268  -37.6525   23.6645 H   0  0  0  0  0  0
  -26.0534  -31.6013   20.5993 H   0  0  0  0  0  0
  -26.8136  -30.8709   21.9881 H   0  0  0  0  0  0
  -28.0997  -29.1165   21.1326 H   0  0  0  0  0  0
  -26.0118  -25.9462   19.0589 H   0  0  0  0  0  0
  -23.9678  -27.2684   19.0805 H   0  0  0  0  0  0
  -23.7163  -30.5896   19.4033 H   0  0  0  0  0  0
  -22.7320  -29.2382   19.8723 H   0  0  0  0  0  0
  -25.1303  -36.1957   25.0818 H   0  0  0  0  0  0
  -21.0007  -28.3240   24.1479 H   0  0  0  0  0  0
  -20.5870  -26.2269   23.3612 H   0  0  0  0  0  0
  -21.6736  -26.7534   22.1197 H   0  0  0  0  0  0
  -19.7090  -25.6323   21.1252 H   0  0  0  0  0  0
  -19.6811  -27.3256   20.6785 H   0  0  0  0  0  0
  -17.4299  -26.6629   21.4022 H   0  0  0  0  0  0
  -18.0468  -26.0075   22.9039 H   0  0  0  0  0  0
  -19.8045  -30.7222   24.2267 H   0  0  0  0  0  0
  -17.5131  -31.6310   24.5107 H   0  0  0  0  0  0
  -15.5441  -30.3023   23.7689 H   0  0  0  0  0  0
  -15.8711  -28.0846   22.7116 H   0  0  0  0  0  0
  -24.5944  -30.7049   25.7814 H   0  0  0  0  0  0
  -24.9009  -32.2848   26.4960 H   0  0  0  0  0  0
  -25.8170  -30.8835   27.0204 H   0  0  0  0  0  0
  -26.2876  -29.6760   24.1217 H   0  0  0  0  0  0
  -27.4125  -29.7288   25.4593 H   0  0  0  0  0  0
  -27.8703  -30.4302   23.9248 H   0  0  0  0  0  0
  -27.2678  -33.3567   26.2123 H   0  0  0  0  0  0
  -28.3870  -32.6925   25.0319 H   0  0  0  0  0  0
  -28.0767  -31.8404   26.5369 H   0  0  0  0  0  0
  -28.2614  -38.0096   24.7505 H   0  0  0  0  0  0
  -28.1064  -36.2640   24.6298 H   0  0  0  0  0  0
  -27.2298  -37.1469   25.8865 H   0  0  0  0  0  0
  -20.9325  -29.8802   21.7020 H   0  0  0  0  0  0
  -26.0190  -38.2855   24.1392 H   0  0  0  0  0  0
  -27.6144  -17.4327   20.1823 H   0  0  0  0  0  0
  -26.6171  -19.7745   20.2346 H   0  0  0  0  0  0
  -31.4136  -17.3044   21.1511 H   0  0  0  0  0  0
  -30.8134  -16.9390   19.5696 H   0  0  0  0  0  0
  -28.9025  -15.6401   20.8757 H   0  0  0  0  0  0
  -29.9798  -15.7002   22.2439 H   0  0  0  0  0  0
  -28.7143  -24.8506   21.7440 H   0  0  0  0  0  0
  -27.2547  -24.2700   20.9948 H   0  0  0  0  0  0
  -27.9360  -25.1517   18.8026 H   0  0  0  0  0  0
  -29.5827  -25.2806   19.2918 H   0  0  0  0  0  0
  -27.2603  -22.1415   20.7580 H   0  0  0  0  0  0
  1 25  1  0  0  0
  1 30  2  0  0  0
  1 77  1  0  0  0
  2  3  1  0  0  0
  2 25  1  0  0  0
  2 83  1  0  0  0
  2 84  1  0  0  0
  3  4  1  0  0  0
  3 85  1  0  0  0
  3 86  1  0  0  0
  4  5  1  0  0  0
  4 87  1  0  0  0
  4 88  1  0  0  0
  5  6  1  0  0  0
  5 26  1  0  0  0
  5 89  1  0  0  0
  6 25  1  0  0  0
  6 90  1  0  0  0
  6 91  1  0  0  0
  7  8  2  0  0  0
  7 26  1  0  0  0
  7 29  1  0  0  0
  8  9  1  0  0  0
  8 22  1  0  0  0
  9 10  1  0  0  0
  9 27  2  0  0  0
 10 11  2  0  0  0
 10 15  1  0  0  0
 11 12  1  0  0  0
 11 92  1  0  0  0
 12 13  2  0  0  0
 12 93  1  0  0  0
 13 14  1  0  0  0
 13 31  1  0  0  0
 14 15  2  0  0  0
 14 94  1  0  0  0
 15 95  1  0  0  0
 16 17  2  0  0  0
 16 21  1  0  0  0
 16 31  1  0  0  0
 17 18  1  0  0  0
 17 96  1  0  0  0
 18 19  2  0  0  0
 18 97  1  0  0  0
 19 20  1  0  0  0
 19 24  1  0  0  0
 20 21  2  0  0  0
 20 98  1  0  0  0
 21 23  1  0  0  0
 22 28  1  0  0  0
 22 32  2  0  0  0
 26 27  1  0  0  0
 28 99  1  0  0  0
 28100  1  0  0  0
 29101  1  0  0  0
 29102  1  0  0  0
 33 34  1  0  0  0
 33 66  1  0  0  0
 33 70  2  0  0  0
 34 36  1  0  0  0
 34 59  1  0  0  0
 34103  1  0  0  0
 35 44  2  0  0  0
 35 45  1  0  0  0
 35 68  1  0  0  0
 36 56  1  0  0  0
 36104  1  0  0  0
 37 39  1  0  0  0
 37 47  1  0  0  0
 37 66  1  0  0  0
 37105  1  0  0  0
 38 43  2  0  0  0
 38 46  1  0  0  0
 38 47  1  0  0  0
 39 64  1  0  0  0
 39 67  2  0  0  0
 40 52  1  0  0  0
 40 53  2  0  0  0
 40 58  1  0  0  0
 41106  1  0  0  0
 41107  1  0  0  0
 41108  1  0  0  0
 41 48  1  0  0  0
 42 43  1  0  0  0
 42 66  1  0  0  0
 42109  1  0  0  0
 42110  1  0  0  0
 43 44  1  0  0  0
 44111  1  0  0  0
 45 46  2  0  0  0
 45112  1  0  0  0
 46113  1  0  0  0
 47114  1  0  0  0
 47115  1  0  0  0
 48 56  1  0  0  0
 48 65  1  0  0  0
 48116  1  0  0  0
 49 50  1  0  0  0
 49 53  1  0  0  0
 49 64  1  0  0  0
 49117  1  0  0  0
 50 51  1  0  0  0
 50118  1  0  0  0
 50119  1  0  0  0
 51 52  1  0  0  0
 51120  1  0  0  0
 51121  1  0  0  0
 52122  1  0  0  0
 52123  1  0  0  0
 53 54  1  0  0  0
 54 55  2  0  0  0
 54124  1  0  0  0
 55 57  1  0  0  0
 55125  1  0  0  0
 56 69  2  0  0  0
 57 58  2  0  0  0
 57126  1  0  0  0
 58127  1  0  0  0
 59 60  1  0  0  0
 59 61  1  0  0  0
 59 62  1  0  0  0
 60128  1  0  0  0
 60129  1  0  0  0
 60130  1  0  0  0
 61131  1  0  0  0
 61132  1  0  0  0
 61133  1  0  0  0
 62134  1  0  0  0
 62135  1  0  0  0
 62136  1  0  0  0
 63 65  1  0  0  0
 63137  1  0  0  0
 63138  1  0  0  0
 63139  1  0  0  0
 64140  1  0  0  0
 65141  1  0  0  0
 68 79  1  0  0  0
 71 72  1  0  0  0
 71 73  2  0  0  0
 71142  1  0  0  0
 72 74  2  0  0  0
 72143  1  0  0  0
 73 76  1  0  0  0
 73 82  1  0  0  0
 74 80  1  0  0  0
 74 82  1  0  0  0
 75 78  1  0  0  0
 75 80  1  0  0  0
 75 81  2  0  0  0
 76 77  1  0  0  0
 76144  1  0  0  0
 76145  1  0  0  0
 77146  1  0  0  0
 77147  1  0  0  0
 78 79  1  0  0  0
 78148  1  0  0  0
 78149  1  0  0  0
 79150  1  0  0  0
 79151  1  0  0  0
 80152  1  0  0  0
M  ISO  4   1 100  68 101  77 100  79 101
M  END
> <chiral flag>
0

> <version>
0

> <s_m_source_file>
/data/baiqing/PycharmProjects/Reinvent-master-3.2/result/LINK_invent/BTK/process_docking_weight1_custom_product_contain_oxygen_bond_distance_aromatic_linkinvent_7_9_3/rearranged_h_0195.sdf

> <i_m_source_file_index>
68

> <r_mmod_Potential_Energy-OPLS-2005>
-118.492088317871

> <r_mmod_Stretch_Energy-OPLS-2005>
37.1316223144531

> <r_mmod_Bend_Energy-OPLS-2005>
116.239044189453

> <r_mmod_Torsional_Energy-OPLS-2005>
166.972564697266

> <r_mmod_Improper_Torsional_Energy-OPLS-2005>
3.55236077308655

> <r_mmod_Van_der_Waal_Energy-OPLS-2005>
130.491134643555

> <r_mmod_Electrostatic_Energy-OPLS-2005>
-358.826629638672

> <r_mmod_Solvation_Energy-OPLS-2005>
-227.66682434082

> <b_mmod_Minimization_Converged-OPLS-2005>
0

> <r_mmod_RMS_Derivative-OPLS-2005>
3.06676816940308

$$$$
68
                    3D
 Structure written by MMmdl.
165173  0  0  1  0            999 V2000
  -30.6650  -14.5070   20.5345 C   0  0  0  0  0  0
  -30.4286  -12.3131   19.4220 C   0  0  0  0  0  0
  -29.4996  -12.5051   18.2025 C   0  0  0  0  0  0
  -28.0188  -12.3642   18.6125 C   0  0  0  0  0  0
  -27.6606  -13.2021   19.8698 C   0  0  2  0  0  0
  -28.7048  -12.9790   20.9891 C   0  0  0  0  0  0
  -25.2593  -13.8150   20.5666 C   0  0  0  0  0  0
  -24.1835  -13.0436   20.9162 C   0  0  0  0  0  0
  -24.6378  -11.6901   20.8729 C   0  0  0  0  0  0
  -23.9045  -10.4292   21.0409 C   0  0  0  0  0  0
  -24.3602   -9.4212   21.9182 C   0  0  0  0  0  0
  -23.6278   -8.2244   22.0752 C   0  0  0  0  0  0
  -22.4257   -8.0281   21.3551 C   0  0  0  0  0  0
  -21.9889   -9.0251   20.4650 C   0  0  0  0  0  0
  -22.7222  -10.2134   20.3061 C   0  0  0  0  0  0
  -21.6843   -6.0739   22.5281 C   0  0  0  0  0  0
  -21.4009   -6.5637   23.8218 C   0  0  0  0  0  0
  -21.3663   -5.6786   24.9178 C   0  0  0  0  0  0
  -21.6045   -4.3050   24.7229 C   0  0  0  0  0  0
  -21.8810   -3.8151   23.4344 C   0  0  0  0  0  0
  -21.9185   -4.6970   22.3407 C   0  0  0  0  0  0
  -22.7862  -13.5253   21.1826 C   0  0  0  0  0  0
  -22.1655   -4.2160   21.0982 F   0  0  0  0  0  0
  -21.5628   -3.4532   25.7741 F   0  0  0  0  0  0
  -30.0333  -13.3010   20.4384 N   0  0  0  0  0  0
  -26.3014  -12.9300   20.3327 N   0  0  0  0  0  0
  -25.9305  -11.6470   20.5733 N   0  0  0  0  0  0
  -22.0484  -12.8276   22.0388 N   0  0  0  0  0  0
  -25.4340  -15.1875   20.4134 N   0  0  0  0  0  0
  -31.8154  -14.6718   20.1133 O   0  0  0  0  0  0
  -21.6624   -6.8881   21.4243 O   0  0  0  0  0  0
  -22.3560  -14.5564   20.6676 O   0  0  0  0  0  0
  -24.6135  -31.8677   23.2109 C   0  0  0  0  0  0
  -25.9019  -32.4830   23.8419 C   0  0  1  0  0  0
  -27.2458  -27.4252   20.0831 C   0  0  0  0  0  0
  -25.5877  -33.8633   24.2351 N   0  0  0  0  0  0
  -23.4048  -30.4891   21.5509 C   0  0  2  0  0  0
  -24.8529  -28.9538   20.1114 C   0  0  0  0  0  0
  -22.7422  -29.4648   22.4996 C   0  0  0  0  0  0
  -18.0278  -28.1367   22.8507 C   0  0  0  0  0  0
  -24.1477  -36.7292   23.2647 C   0  0  0  0  0  0
  -25.9363  -30.8206   21.3766 C   0  0  0  0  0  0
  -26.0107  -29.4582   20.7149 C   0  0  0  0  0  0
  -27.2027  -28.6978   20.7027 C   0  0  0  0  0  0
  -26.0631  -26.9291   19.4874 C   0  0  0  0  0  0
  -24.8752  -27.6887   19.4972 C   0  0  0  0  0  0
  -23.6138  -29.8207   20.1654 C   0  0  0  0  0  0
  -25.4105  -36.3126   24.0354 C   0  0  1  0  0  0
  -20.5867  -28.3652   23.1314 C   0  0  2  0  0  0
  -20.6767  -26.9388   22.5409 C   0  0  0  0  0  0
  -19.5745  -26.6383   21.5206 C   0  0  0  0  0  0
  -18.1926  -26.7922   22.1621 C   0  0  0  0  0  0
  -19.1528  -28.8827   23.2914 C   0  0  0  0  0  0
  -18.9456  -30.1436   23.8923 C   0  0  0  0  0  0
  -17.6457  -30.6579   24.0559 C   0  0  0  0  0  0
  -25.9026  -34.9487   23.5155 C   0  0  0  0  0  0
  -16.5352  -29.9072   23.6329 C   0  0  0  0  0  0
  -16.7267  -28.6481   23.0373 C   0  0  0  0  0  0
  -26.4455  -31.6630   25.0761 C   0  0  0  0  0  0
  -25.3705  -31.3747   26.1497 C   0  0  0  0  0  0
  -27.0324  -30.3081   24.6179 C   0  0  0  0  0  0
  -27.6053  -32.4364   25.7485 C   0  0  0  0  0  0
  -27.5589  -37.1805   24.8472 C   0  0  0  0  0  0
  -21.4146  -29.3023   22.3725 N   0  0  0  0  0  0
  -26.4304  -37.3801   23.9410 N   0  0  0  0  0  0
  -24.6690  -31.0746   22.1028 N   0  0  0  0  0  0
  -23.4183  -28.8199   23.3058 O   0  0  0  0  0  0
  -28.4398  -26.7234   20.1076 O   0  0  0  0  0  0
  -26.5598  -34.8933   22.4724 O   0  0  0  0  0  0
  -23.5321  -32.1466   23.7468 O   0  0  0  0  0  0
  -28.6221  -18.7814   20.5765 C   0  0  0  0  0  0
  -29.7685  -19.5930   20.4227 C   0  0  0  0  0  0
  -30.9944  -18.8829   20.5225 C   0  0  0  0  0  0
  -29.8876  -16.8758   20.7956 C   0  0  0  0  0  0
  -33.1934  -19.0063   19.2548 C   0  0  0  0  0  0
  -33.1264  -19.4858   21.7587 C   0  0  0  0  0  0
  -28.5643  -20.7821   17.9944 C   0  0  0  0  0  0
  -28.5288  -24.2058   19.8826 C   0  0  0  0  0  0
  -29.0152  -23.0703   18.9376 C   0  0  0  0  0  0
  -28.6743  -25.6106   19.2273 C   0  0  0  0  0  0
  -32.3639  -19.5593   20.4255 C   0  0  0  0  0  0
  -28.6858  -21.5876   19.3073 C   0  0  2  0  0  0
  -28.6868  -17.4443   20.7625 N   0  0  0  0  0  0
  -31.0332  -17.5428   20.7128 N   0  0  0  0  0  0
  -29.7042  -20.9965   20.1924 N   0  0  0  0  0  0
  -29.8691  -15.5080   20.9823 N   0  0  0  0  0  0
  -31.4764  -12.4068   19.1295 H   0  0  0  0  0  0
  -30.3258  -11.3045   19.8244 H   0  0  0  0  0  0
  -29.7420  -11.7797   17.4243 H   0  0  0  0  0  0
  -29.6658  -13.4892   17.7605 H   0  0  0  0  0  0
  -27.8285  -11.3085   18.8056 H   0  0  0  0  0  0
  -27.3704  -12.6391   17.7799 H   0  0  0  0  0  0
  -27.7024  -14.2484   19.5671 H   0  0  0  0  0  0
  -28.6905  -11.9376   21.3151 H   0  0  0  0  0  0
  -28.4679  -13.5620   21.8805 H   0  0  0  0  0  0
  -25.2763   -9.5673   22.4739 H   0  0  0  0  0  0
  -24.0000   -7.4625   22.7456 H   0  0  0  0  0  0
  -21.0827   -8.8765   19.8956 H   0  0  0  0  0  0
  -22.3693  -10.9657   19.6155 H   0  0  0  0  0  0
  -21.2007   -7.6146   23.9724 H   0  0  0  0  0  0
  -21.1490   -6.0518   25.9076 H   0  0  0  0  0  0
  -22.0591   -2.7617   23.2835 H   0  0  0  0  0  0
  -22.4100  -11.9965   22.4835 H   0  0  0  0  0  0
  -21.1098  -13.1309   22.2559 H   0  0  0  0  0  0
  -24.6658  -15.8400   20.5281 H   0  0  0  0  0  0
  -26.2965  -15.6404   20.1359 H   0  0  0  0  0  0
  -26.7083  -32.5527   23.1174 H   0  0  0  0  0  0
  -25.0035  -33.9817   25.0501 H   0  0  0  0  0  0
  -22.6943  -31.3068   21.4129 H   0  0  0  0  0  0
  -23.3772  -35.9592   23.3337 H   0  0  0  0  0  0
  -24.3567  -36.8875   22.2055 H   0  0  0  0  0  0
  -23.7194  -37.6489   23.6641 H   0  0  0  0  0  0
  -26.0718  -31.5953   20.6208 H   0  0  0  0  0  0
  -26.8120  -30.8554   22.0130 H   0  0  0  0  0  0
  -28.0969  -29.0861   21.1696 H   0  0  0  0  0  0
  -26.0361  -25.9544   19.0225 H   0  0  0  0  0  0
  -23.9833  -27.2931   19.0310 H   0  0  0  0  0  0
  -23.7169  -30.5954   19.4050 H   0  0  0  0  0  0
  -22.7380  -29.2379   19.8746 H   0  0  0  0  0  0
  -25.1284  -36.2015   25.0851 H   0  0  0  0  0  0
  -20.9968  -28.3202   24.1429 H   0  0  0  0  0  0
  -20.5658  -26.2259   23.3592 H   0  0  0  0  0  0
  -21.6643  -26.7424   22.1212 H   0  0  0  0  0  0
  -19.6900  -25.6297   21.1231 H   0  0  0  0  0  0
  -19.6683  -27.3195   20.6740 H   0  0  0  0  0  0
  -17.4199  -26.6690   21.4017 H   0  0  0  0  0  0
  -18.0315  -26.0046   22.8996 H   0  0  0  0  0  0
  -19.7928  -30.7247   24.2311 H   0  0  0  0  0  0
  -17.5007  -31.6267   24.5140 H   0  0  0  0  0  0
  -15.5349  -30.2972   23.7644 H   0  0  0  0  0  0
  -15.8671  -28.0779   22.7113 H   0  0  0  0  0  0
  -24.5817  -30.7193   25.7783 H   0  0  0  0  0  0
  -24.8964  -32.2917   26.5014 H   0  0  0  0  0  0
  -25.7998  -30.8812   27.0225 H   0  0  0  0  0  0
  -26.2908  -29.6826   24.1196 H   0  0  0  0  0  0
  -27.4066  -29.7339   25.4666 H   0  0  0  0  0  0
  -27.8751  -30.4438   23.9395 H   0  0  0  0  0  0
  -27.2698  -33.3648   26.2124 H   0  0  0  0  0  0
  -28.3785  -32.6962   25.0240 H   0  0  0  0  0  0
  -28.0817  -31.8468   26.5330 H   0  0  0  0  0  0
  -28.2628  -38.0083   24.7530 H   0  0  0  0  0  0
  -28.1075  -36.2629   24.6299 H   0  0  0  0  0  0
  -27.2318  -37.1448   25.8878 H   0  0  0  0  0  0
  -20.9310  -29.8716   21.6918 H   0  0  0  0  0  0
  -26.0216  -38.2895   24.1387 H   0  0  0  0  0  0
  -27.6290  -19.2062   20.5449 H   0  0  0  0  0  0
  -32.6527  -19.1112   18.3143 H   0  0  0  0  0  0
  -33.4225  -17.9490   19.3921 H   0  0  0  0  0  0
  -34.1386  -19.5400   19.1548 H   0  0  0  0  0  0
  -32.5526  -19.9584   22.5563 H   0  0  0  0  0  0
  -34.0887  -19.9942   21.6928 H   0  0  0  0  0  0
  -33.3162  -18.4520   22.0514 H   0  0  0  0  0  0
  -27.8028  -21.2118   17.3416 H   0  0  0  0  0  0
  -28.2726  -19.7443   18.1463 H   0  0  0  0  0  0
  -29.5042  -20.7809   17.4396 H   0  0  0  0  0  0
  -29.0986  -24.1702   20.8118 H   0  0  0  0  0  0
  -27.4852  -24.0463   20.1510 H   0  0  0  0  0  0
  -30.0857  -23.1769   18.7536 H   0  0  0  0  0  0
  -28.5562  -23.2804   17.9699 H   0  0  0  0  0  0
  -28.0898  -25.6841   18.3094 H   0  0  0  0  0  0
  -29.7084  -25.7170   18.8972 H   0  0  0  0  0  0
  -32.2156  -20.6180   20.2158 H   0  0  0  0  0  0
  -27.7172  -21.5646   19.8108 H   0  0  0  0  0  0
  -30.5762  -21.5160   20.2550 H   0  0  0  0  0  0
  -28.9712  -15.1731   21.2837 H   0  0  0  0  0  0
  1 25  1  0  0  0
  1 30  2  0  0  0
  1 86  1  0  0  0
  2  3  1  0  0  0
  2 25  1  0  0  0
  2 87  1  0  0  0
  2 88  1  0  0  0
  3  4  1  0  0  0
  3 89  1  0  0  0
  3 90  1  0  0  0
  4  5  1  0  0  0
  4 91  1  0  0  0
  4 92  1  0  0  0
  5  6  1  0  0  0
  5 26  1  0  0  0
  5 93  1  0  0  0
  6 25  1  0  0  0
  6 94  1  0  0  0
  6 95  1  0  0  0
  7  8  2  0  0  0
  7 26  1  0  0  0
  7 29  1  0  0  0
  8  9  1  0  0  0
  8 22  1  0  0  0
  9 10  1  0  0  0
  9 27  2  0  0  0
 10 11  2  0  0  0
 10 15  1  0  0  0
 11 12  1  0  0  0
 11 96  1  0  0  0
 12 13  2  0  0  0
 12 97  1  0  0  0
 13 14  1  0  0  0
 13 31  1  0  0  0
 14 15  2  0  0  0
 14 98  1  0  0  0
 15 99  1  0  0  0
 16 17  2  0  0  0
 16 21  1  0  0  0
 16 31  1  0  0  0
 17 18  1  0  0  0
 17100  1  0  0  0
 18 19  2  0  0  0
 18101  1  0  0  0
 19 20  1  0  0  0
 19 24  1  0  0  0
 20 21  2  0  0  0
 20102  1  0  0  0
 21 23  1  0  0  0
 22 28  1  0  0  0
 22 32  2  0  0  0
 26 27  1  0  0  0
 28103  1  0  0  0
 28104  1  0  0  0
 29105  1  0  0  0
 29106  1  0  0  0
 33 34  1  0  0  0
 33 66  1  0  0  0
 33 70  2  0  0  0
 34 36  1  0  0  0
 34 59  1  0  0  0
 34107  1  0  0  0
 35 44  2  0  0  0
 35 45  1  0  0  0
 35 68  1  0  0  0
 36 56  1  0  0  0
 36108  1  0  0  0
 37 39  1  0  0  0
 37 47  1  0  0  0
 37 66  1  0  0  0
 37109  1  0  0  0
 38 43  2  0  0  0
 38 46  1  0  0  0
 38 47  1  0  0  0
 39 64  1  0  0  0
 39 67  2  0  0  0
 40 52  1  0  0  0
 40 53  2  0  0  0
 40 58  1  0  0  0
 41110  1  0  0  0
 41111  1  0  0  0
 41112  1  0  0  0
 41 48  1  0  0  0
 42 43  1  0  0  0
 42 66  1  0  0  0
 42113  1  0  0  0
 42114  1  0  0  0
 43 44  1  0  0  0
 44115  1  0  0  0
 45 46  2  0  0  0
 45116  1  0  0  0
 46117  1  0  0  0
 47118  1  0  0  0
 47119  1  0  0  0
 48 56  1  0  0  0
 48 65  1  0  0  0
 48120  1  0  0  0
 49 50  1  0  0  0
 49 53  1  0  0  0
 49 64  1  0  0  0
 49121  1  0  0  0
 50 51  1  0  0  0
 50122  1  0  0  0
 50123  1  0  0  0
 51 52  1  0  0  0
 51124  1  0  0  0
 51125  1  0  0  0
 52126  1  0  0  0
 52127  1  0  0  0
 53 54  1  0  0  0
 54 55  2  0  0  0
 54128  1  0  0  0
 55 57  1  0  0  0
 55129  1  0  0  0
 56 69  2  0  0  0
 57 58  2  0  0  0
 57130  1  0  0  0
 58131  1  0  0  0
 59 60  1  0  0  0
 59 61  1  0  0  0
 59 62  1  0  0  0
 60132  1  0  0  0
 60133  1  0  0  0
 60134  1  0  0  0
 61135  1  0  0  0
 61136  1  0  0  0
 61137  1  0  0  0
 62138  1  0  0  0
 62139  1  0  0  0
 62140  1  0  0  0
 63 65  1  0  0  0
 63141  1  0  0  0
 63142  1  0  0  0
 63143  1  0  0  0
 64144  1  0  0  0
 65145  1  0  0  0
 68 80  1  0  0  0
 71 72  2  0  0  0
 71 83  1  0  0  0
 71146  1  0  0  0
 72 73  1  0  0  0
 72 85  1  0  0  0
 73 81  1  0  0  0
 73 84  2  0  0  0
 74 83  2  0  0  0
 74 84  1  0  0  0
 74 86  1  0  0  0
 75147  1  0  0  0
 75148  1  0  0  0
 75149  1  0  0  0
 75 81  1  0  0  0
 76 81  1  0  0  0
 76150  1  0  0  0
 76151  1  0  0  0
 76152  1  0  0  0
 77153  1  0  0  0
 77154  1  0  0  0
 77155  1  0  0  0
 77 82  1  0  0  0
 78 79  1  0  0  0
 78 80  1  0  0  0
 78156  1  0  0  0
 78157  1  0  0  0
 79 82  1  0  0  0
 79158  1  0  0  0
 79159  1  0  0  0
 80160  1  0  0  0
 80161  1  0  0  0
 81162  1  0  0  0
 82 85  1  0  0  0
 82163  1  0  0  0
 85164  1  0  0  0
 86165  1  0  0  0
M  ISO  4   1 100  68 101  80 101  86 100
M  END
> <chiral flag>
0

> <version>
0

> <s_m_source_file>
/data/baiqing/PycharmProjects/Reinvent-master-3.2/result/LINK_invent/BTK/process_docking_weight1_custom_product_contain_oxygen_bond_distance_aromatic_linkinvent_7_9_3/rearranged_h_0195.sdf

> <i_m_source_file_index>
69

> <r_mmod_Potential_Energy-OPLS-2005>
-427.106567382812

> <r_mmod_Stretch_Energy-OPLS-2005>
42.754711151123

> <r_mmod_Bend_Energy-OPLS-2005>
133.923355102539

> <r_mmod_Torsional_Energy-OPLS-2005>
199.610122680664

> <r_mmod_Improper_Torsional_Energy-OPLS-2005>
6.40626049041748

> <r_mmod_Van_der_Waal_Energy-OPLS-2005>
159.781677246094

> <r_mmod_Electrostatic_Energy-OPLS-2005>
-765.343566894531

> <r_mmod_Solvation_Energy-OPLS-2005>
-220.41667175293

> <b_mmod_Minimization_Converged-OPLS-2005>
0

> <r_mmod_RMS_Derivative-OPLS-2005>
2.00162506103516

$$$$
69
                    3D
 Structure written by MMmdl.
159167  0  0  1  0            999 V2000
  -30.6800  -14.5695   20.4129 C   0  0  0  0  0  0
  -30.4272  -12.3158   19.4554 C   0  0  0  0  0  0
  -29.5024  -12.3995   18.2227 C   0  0  0  0  0  0
  -28.0176  -12.3114   18.6389 C   0  0  0  0  0  0
  -27.6473  -13.1992   19.8621 C   0  0  2  0  0  0
  -28.7061  -13.1033   20.9846 C   0  0  0  0  0  0
  -25.2577  -13.8140   20.5732 C   0  0  0  0  0  0
  -24.1815  -13.0435   20.9204 C   0  0  0  0  0  0
  -24.6362  -11.6897   20.8784 C   0  0  0  0  0  0
  -23.9039  -10.4292   21.0421 C   0  0  0  0  0  0
  -24.3607   -9.4205   21.9188 C   0  0  0  0  0  0
  -23.6289   -8.2238   22.0750 C   0  0  0  0  0  0
  -22.4272   -8.0279   21.3538 C   0  0  0  0  0  0
  -21.9899   -9.0255   20.4644 C   0  0  0  0  0  0
  -22.7216  -10.2136   20.3061 C   0  0  0  0  0  0
  -21.6848   -6.0731   22.5271 C   0  0  0  0  0  0
  -21.4008   -6.5632   23.8206 C   0  0  0  0  0  0
  -21.3664   -5.6785   24.9167 C   0  0  0  0  0  0
  -21.6051   -4.3050   24.7216 C   0  0  0  0  0  0
  -21.8831   -3.8143   23.4338 C   0  0  0  0  0  0
  -21.9196   -4.6959   22.3392 C   0  0  0  0  0  0
  -22.7843  -13.5248   21.1844 C   0  0  0  0  0  0
  -22.1660   -4.2148   21.0967 F   0  0  0  0  0  0
  -21.5638   -3.4531   25.7727 F   0  0  0  0  0  0
  -30.0182  -13.3768   20.3864 N   0  0  0  0  0  0
  -26.2980  -12.9264   20.3419 N   0  0  0  0  0  0
  -25.9293  -11.6451   20.5876 N   0  0  0  0  0  0
  -22.0470  -12.8258   22.0402 N   0  0  0  0  0  0
  -25.4358  -15.1852   20.4140 N   0  0  0  0  0  0
  -31.8949  -14.6465   20.2128 O   0  0  0  0  0  0
  -21.6641   -6.8868   21.4230 O   0  0  0  0  0  0
  -22.3547  -14.5553   20.6676 O   0  0  0  0  0  0
  -24.6168  -31.8673   23.2090 C   0  0  0  0  0  0
  -25.9045  -32.4824   23.8406 C   0  0  1  0  0  0
  -27.2370  -27.4063   20.1041 C   0  0  0  0  0  0
  -25.5880  -33.8626   24.2320 N   0  0  0  0  0  0
  -23.4062  -30.4914   21.5491 C   0  0  2  0  0  0
  -24.8529  -28.9561   20.1127 C   0  0  0  0  0  0
  -22.7426  -29.4653   22.4965 C   0  0  0  0  0  0
  -18.0270  -28.1380   22.8483 C   0  0  0  0  0  0
  -24.1478  -36.7321   23.2640 C   0  0  0  0  0  0
  -25.9389  -30.8222   21.3698 C   0  0  0  0  0  0
  -26.0136  -29.4559   20.7144 C   0  0  0  0  0  0
  -27.2036  -28.6885   20.7083 C   0  0  0  0  0  0
  -26.0571  -26.9403   19.4756 C   0  0  0  0  0  0
  -24.8715  -27.6975   19.4900 C   0  0  0  0  0  0
  -23.6173  -29.8269   20.1628 C   0  0  0  0  0  0
  -25.4102  -36.3118   24.0338 C   0  0  1  0  0  0
  -20.5868  -28.3668   23.1302 C   0  0  2  0  0  0
  -20.6757  -26.9399   22.5415 C   0  0  0  0  0  0
  -19.5744  -26.6380   21.5205 C   0  0  0  0  0  0
  -18.1920  -26.7926   22.1613 C   0  0  0  0  0  0
  -19.1525  -28.8837   23.2892 C   0  0  0  0  0  0
  -18.9455  -30.1438   23.8912 C   0  0  0  0  0  0
  -17.6461  -30.6585   24.0564 C   0  0  0  0  0  0
  -25.9032  -34.9482   23.5130 C   0  0  0  0  0  0
  -16.5348  -29.9092   23.6324 C   0  0  0  0  0  0
  -16.7262  -28.6506   23.0345 C   0  0  0  0  0  0
  -26.4456  -31.6625   25.0759 C   0  0  0  0  0  0
  -25.3717  -31.3752   26.1513 C   0  0  0  0  0  0
  -27.0287  -30.3061   24.6163 C   0  0  0  0  0  0
  -27.6026  -32.4356   25.7516 C   0  0  0  0  0  0
  -27.5583  -37.1815   24.8460 C   0  0  0  0  0  0
  -21.4150  -29.3036   22.3706 N   0  0  0  0  0  0
  -26.4286  -37.3805   23.9412 N   0  0  0  0  0  0
  -24.6718  -31.0763   22.0997 N   0  0  0  0  0  0
  -23.4188  -28.8192   23.3014 O   0  0  0  0  0  0
  -28.4098  -26.6642   20.1587 O   0  0  0  0  0  0
  -26.5613  -34.8931   22.4703 O   0  0  0  0  0  0
  -23.5352  -32.1429   23.7469 O   0  0  0  0  0  0
  -30.2053  -19.2956   21.0659 C   0  0  0  0  0  0
  -30.0518  -16.8937   20.7983 C   0  0  0  0  0  0
  -30.6664  -22.9610   19.1333 C   0  0  0  0  0  0
  -30.9912  -22.5073   22.4233 C   0  0  0  0  0  0
  -29.6951  -15.8853   18.6678 C   0  0  0  0  0  0
  -29.3216  -24.4084   20.7474 C   0  0  0  0  0  0
  -28.3992  -25.2555   19.8254 C   0  0  0  0  0  0
  -29.6126  -22.9473   20.2641 C   0  0  2  0  0  0
  -29.9780  -21.9393   21.4153 C   0  0  1  0  0  0
  -29.1653  -18.7749   21.7369 N   0  0  0  0  0  0
  -29.0580  -17.3855   21.5587 N   0  0  0  0  0  0
  -30.4827  -20.6591   20.9105 N   0  0  0  0  0  0
  -29.9071  -15.6507   20.1105 N   0  0  0  0  0  0
  -31.2511  -18.0995   20.3067 S   0  0  0  0  0  0
  -31.4717  -12.4049   19.1513 H   0  0  0  0  0  0
  -30.3350  -11.3427   19.9395 H   0  0  0  0  0  0
  -29.7365  -11.5841   17.5371 H   0  0  0  0  0  0
  -29.6973  -13.3060   17.6553 H   0  0  0  0  0  0
  -27.8230  -11.2660   18.8826 H   0  0  0  0  0  0
  -27.3714  -12.5441   17.7916 H   0  0  0  0  0  0
  -27.6319  -14.2251   19.5143 H   0  0  0  0  0  0
  -28.7031  -12.1136   21.4435 H   0  0  0  0  0  0
  -28.4876  -13.8167   21.7813 H   0  0  0  0  0  0
  -25.2756   -9.5694   22.4756 H   0  0  0  0  0  0
  -24.0015   -7.4627   22.7462 H   0  0  0  0  0  0
  -21.0831   -8.8776   19.8943 H   0  0  0  0  0  0
  -22.3678  -10.9687   19.6180 H   0  0  0  0  0  0
  -21.1989   -7.6141   23.9709 H   0  0  0  0  0  0
  -21.1472   -6.0507   25.9071 H   0  0  0  0  0  0
  -22.0606   -2.7607   23.2832 H   0  0  0  0  0  0
  -22.4081  -11.9932   22.4816 H   0  0  0  0  0  0
  -21.1088  -13.1295   22.2588 H   0  0  0  0  0  0
  -24.6818  -15.8522   20.5375 H   0  0  0  0  0  0
  -26.3128  -15.6217   20.1579 H   0  0  0  0  0  0
  -26.7124  -32.5524   23.1181 H   0  0  0  0  0  0
  -25.0012  -33.9788   25.0449 H   0  0  0  0  0  0
  -22.6961  -31.3093   21.4098 H   0  0  0  0  0  0
  -23.3742  -35.9652   23.3304 H   0  0  0  0  0  0
  -24.3570  -36.8938   22.2054 H   0  0  0  0  0  0
  -23.7222  -37.6521   23.6657 H   0  0  0  0  0  0
  -26.0625  -31.5871   20.6023 H   0  0  0  0  0  0
  -26.8229  -30.8710   21.9940 H   0  0  0  0  0  0
  -28.0960  -29.0704   21.1844 H   0  0  0  0  0  0
  -26.0219  -25.9940   18.9593 H   0  0  0  0  0  0
  -23.9836  -27.3057   19.0135 H   0  0  0  0  0  0
  -23.7323  -30.6049   19.4071 H   0  0  0  0  0  0
  -22.7392  -29.2532   19.8610 H   0  0  0  0  0  0
  -25.1275  -36.1990   25.0831 H   0  0  0  0  0  0
  -20.9961  -28.3235   24.1423 H   0  0  0  0  0  0
  -20.5637  -26.2281   23.3607 H   0  0  0  0  0  0
  -21.6630  -26.7426   22.1221 H   0  0  0  0  0  0
  -19.6901  -25.6290   21.1233 H   0  0  0  0  0  0
  -19.6688  -27.3190   20.6735 H   0  0  0  0  0  0
  -17.4190  -26.6671   21.4015 H   0  0  0  0  0  0
  -18.0318  -26.0067   22.9008 H   0  0  0  0  0  0
  -19.7935  -30.7238   24.2298 H   0  0  0  0  0  0
  -17.5023  -31.6270   24.5159 H   0  0  0  0  0  0
  -15.5353  -30.3007   23.7634 H   0  0  0  0  0  0
  -15.8657  -28.0833   22.7059 H   0  0  0  0  0  0
  -24.5858  -30.7129   25.7865 H   0  0  0  0  0  0
  -24.8948  -32.2920   26.4994 H   0  0  0  0  0  0
  -25.8069  -30.8902   27.0259 H   0  0  0  0  0  0
  -26.2853  -29.6851   24.1155 H   0  0  0  0  0  0
  -27.3969  -29.7279   25.4648 H   0  0  0  0  0  0
  -27.8726  -30.4374   23.9386 H   0  0  0  0  0  0
  -27.2625  -33.3622   26.2156 H   0  0  0  0  0  0
  -28.3799  -32.6985   25.0329 H   0  0  0  0  0  0
  -28.0742  -31.8461   26.5387 H   0  0  0  0  0  0
  -28.2602  -38.0111   24.7515 H   0  0  0  0  0  0
  -28.1075  -36.2648   24.6268 H   0  0  0  0  0  0
  -27.2313  -37.1447   25.8865 H   0  0  0  0  0  0
  -20.9303  -29.8788   21.6958 H   0  0  0  0  0  0
  -26.0182  -38.2882   24.1421 H   0  0  0  0  0  0
  -30.4083  -23.6765   18.3533 H   0  0  0  0  0  0
  -30.7475  -21.9917   18.6412 H   0  0  0  0  0  0
  -31.6549  -23.2293   19.5046 H   0  0  0  0  0  0
  -30.6089  -23.3946   22.9279 H   0  0  0  0  0  0
  -31.9321  -22.7803   21.9442 H   0  0  0  0  0  0
  -31.2162  -21.7806   23.2055 H   0  0  0  0  0  0
  -29.3351  -16.8965   18.4686 H   0  0  0  0  0  0
  -28.9482  -15.2333   18.2283 H   0  0  0  0  0  0
  -30.6200  -15.7643   18.1001 H   0  0  0  0  0  0
  -28.8483  -24.3771   21.7295 H   0  0  0  0  0  0
  -30.2707  -24.9265   20.8891 H   0  0  0  0  0  0
  -27.4131  -24.8045   19.9149 H   0  0  0  0  0  0
  -28.7009  -25.1607   18.7823 H   0  0  0  0  0  0
  -28.6876  -22.5719   19.8234 H   0  0  0  0  0  0
  -29.0615  -21.7263   21.9686 H   0  0  0  0  0  0
  -31.3005  -20.7911   20.3263 H   0  0  0  0  0  0
  1 25  1  0  0  0
  1 30  2  0  0  0
  1 83  1  0  0  0
  2  3  1  0  0  0
  2 25  1  0  0  0
  2 85  1  0  0  0
  2 86  1  0  0  0
  3  4  1  0  0  0
  3 87  1  0  0  0
  3 88  1  0  0  0
  4  5  1  0  0  0
  4 89  1  0  0  0
  4 90  1  0  0  0
  5  6  1  0  0  0
  5 26  1  0  0  0
  5 91  1  0  0  0
  6 25  1  0  0  0
  6 92  1  0  0  0
  6 93  1  0  0  0
  7  8  2  0  0  0
  7 26  1  0  0  0
  7 29  1  0  0  0
  8  9  1  0  0  0
  8 22  1  0  0  0
  9 10  1  0  0  0
  9 27  2  0  0  0
 10 11  2  0  0  0
 10 15  1  0  0  0
 11 12  1  0  0  0
 11 94  1  0  0  0
 12 13  2  0  0  0
 12 95  1  0  0  0
 13 14  1  0  0  0
 13 31  1  0  0  0
 14 15  2  0  0  0
 14 96  1  0  0  0
 15 97  1  0  0  0
 16 17  2  0  0  0
 16 21  1  0  0  0
 16 31  1  0  0  0
 17 18  1  0  0  0
 17 98  1  0  0  0
 18 19  2  0  0  0
 18 99  1  0  0  0
 19 20  1  0  0  0
 19 24  1  0  0  0
 20 21  2  0  0  0
 20100  1  0  0  0
 21 23  1  0  0  0
 22 28  1  0  0  0
 22 32  2  0  0  0
 26 27  1  0  0  0
 28101  1  0  0  0
 28102  1  0  0  0
 29103  1  0  0  0
 29104  1  0  0  0
 33 34  1  0  0  0
 33 66  1  0  0  0
 33 70  2  0  0  0
 34 36  1  0  0  0
 34 59  1  0  0  0
 34105  1  0  0  0
 35 44  2  0  0  0
 35 45  1  0  0  0
 35 68  1  0  0  0
 36 56  1  0  0  0
 36106  1  0  0  0
 37 39  1  0  0  0
 37 47  1  0  0  0
 37 66  1  0  0  0
 37107  1  0  0  0
 38 43  2  0  0  0
 38 46  1  0  0  0
 38 47  1  0  0  0
 39 64  1  0  0  0
 39 67  2  0  0  0
 40 52  1  0  0  0
 40 53  2  0  0  0
 40 58  1  0  0  0
 41108  1  0  0  0
 41109  1  0  0  0
 41110  1  0  0  0
 41 48  1  0  0  0
 42 43  1  0  0  0
 42 66  1  0  0  0
 42111  1  0  0  0
 42112  1  0  0  0
 43 44  1  0  0  0
 44113  1  0  0  0
 45 46  2  0  0  0
 45114  1  0  0  0
 46115  1  0  0  0
 47116  1  0  0  0
 47117  1  0  0  0
 48 56  1  0  0  0
 48 65  1  0  0  0
 48118  1  0  0  0
 49 50  1  0  0  0
 49 53  1  0  0  0
 49 64  1  0  0  0
 49119  1  0  0  0
 50 51  1  0  0  0
 50120  1  0  0  0
 50121  1  0  0  0
 51 52  1  0  0  0
 51122  1  0  0  0
 51123  1  0  0  0
 52124  1  0  0  0
 52125  1  0  0  0
 53 54  1  0  0  0
 54 55  2  0  0  0
 54126  1  0  0  0
 55 57  1  0  0  0
 55127  1  0  0  0
 56 69  2  0  0  0
 57 58  2  0  0  0
 57128  1  0  0  0
 58129  1  0  0  0
 59 60  1  0  0  0
 59 61  1  0  0  0
 59 62  1  0  0  0
 60130  1  0  0  0
 60131  1  0  0  0
 60132  1  0  0  0
 61133  1  0  0  0
 61134  1  0  0  0
 61135  1  0  0  0
 62136  1  0  0  0
 62137  1  0  0  0
 62138  1  0  0  0
 63 65  1  0  0  0
 63139  1  0  0  0
 63140  1  0  0  0
 63141  1  0  0  0
 64142  1  0  0  0
 65143  1  0  0  0
 68 77  1  0  0  0
 71 80  2  0  0  0
 71 82  1  0  0  0
 71 84  1  0  0  0
 72 81  2  0  0  0
 72 83  1  0  0  0
 72 84  1  0  0  0
 73144  1  0  0  0
 73145  1  0  0  0
 73146  1  0  0  0
 73 78  1  0  0  0
 74147  1  0  0  0
 74148  1  0  0  0
 74149  1  0  0  0
 74 79  1  0  0  0
 75 83  1  0  0  0
 75150  1  0  0  0
 75151  1  0  0  0
 75152  1  0  0  0
 76 77  1  0  0  0
 76 78  1  0  0  0
 76153  1  0  0  0
 76154  1  0  0  0
 77155  1  0  0  0
 77156  1  0  0  0
 78 79  1  0  0  0
 78157  1  0  0  0
 79 82  1  0  0  0
 79158  1  0  0  0
 80 81  1  0  0  0
 82159  1  0  0  0
M  ISO  4   1 100  68 101  77 101  83 100
M  END
> <chiral flag>
0

> <version>
0

> <s_m_source_file>
/data/baiqing/PycharmProjects/Reinvent-master-3.2/result/LINK_invent/BTK/process_docking_weight1_custom_product_contain_oxygen_bond_distance_aromatic_linkinvent_7_9_3/rearranged_h_0195.sdf

> <i_m_source_file_index>
70

> <r_mmod_Potential_Energy-OPLS-2005>
79.6133117675781

> <r_mmod_Stretch_Energy-OPLS-2005>
43.7618522644043

> <r_mmod_Bend_Energy-OPLS-2005>
124.089729309082

> <r_mmod_Torsional_Energy-OPLS-2005>
316.090026855469

> <r_mmod_Improper_Torsional_Energy-OPLS-2005>
25.2372074127197

> <r_mmod_Van_der_Waal_Energy-OPLS-2005>
132.071701049805

> <r_mmod_Electrostatic_Energy-OPLS-2005>
-396.437286376953

> <r_mmod_Solvation_Energy-OPLS-2005>
-201.105224609375

> <b_mmod_Minimization_Converged-OPLS-2005>
0

> <r_mmod_RMS_Derivative-OPLS-2005>
1.53397941589355

$$$$
70
                    3D
 Structure written by MMmdl.
163171  0  0  1  0            999 V2000
  -30.7402  -14.4255   20.6040 C   0  0  0  0  0  0
  -30.4113  -12.2879   19.4231 C   0  0  0  0  0  0
  -29.4935  -12.5073   18.2058 C   0  0  0  0  0  0
  -28.0148  -12.3683   18.6143 C   0  0  0  0  0  0
  -27.6611  -13.2067   19.8730 C   0  0  2  0  0  0
  -28.6974  -12.9845   20.9980 C   0  0  0  0  0  0
  -25.2575  -13.8156   20.5654 C   0  0  0  0  0  0
  -24.1831  -13.0434   20.9161 C   0  0  0  0  0  0
  -24.6366  -11.6899   20.8689 C   0  0  0  0  0  0
  -23.9015  -10.4285   21.0367 C   0  0  0  0  0  0
  -24.3579   -9.4218   21.9153 C   0  0  0  0  0  0
  -23.6281   -8.2242   22.0730 C   0  0  0  0  0  0
  -22.4264   -8.0257   21.3526 C   0  0  0  0  0  0
  -21.9881   -9.0225   20.4632 C   0  0  0  0  0  0
  -22.7187  -10.2114   20.3028 C   0  0  0  0  0  0
  -21.6857   -6.0714   22.5269 C   0  0  0  0  0  0
  -21.4007   -6.5618   23.8199 C   0  0  0  0  0  0
  -21.3653   -5.6774   24.9170 C   0  0  0  0  0  0
  -21.6048   -4.3037   24.7225 C   0  0  0  0  0  0
  -21.8829   -3.8127   23.4345 C   0  0  0  0  0  0
  -21.9200   -4.6940   22.3397 C   0  0  0  0  0  0
  -22.7856  -13.5232   21.1843 C   0  0  0  0  0  0
  -22.1677   -4.2120   21.0979 F   0  0  0  0  0  0
  -21.5627   -3.4518   25.7739 F   0  0  0  0  0  0
  -30.0372  -13.2696   20.4544 N   0  0  0  0  0  0
  -26.3002  -12.9330   20.3313 N   0  0  0  0  0  0
  -25.9290  -11.6482   20.5706 N   0  0  0  0  0  0
  -22.0502  -12.8226   22.0401 N   0  0  0  0  0  0
  -25.4311  -15.1875   20.4077 N   0  0  0  0  0  0
  -31.8458  -14.5824   20.0770 O   0  0  0  0  0  0
  -21.6640   -6.8852   21.4231 O   0  0  0  0  0  0
  -22.3547  -14.5544   20.6695 O   0  0  0  0  0  0
  -24.6062  -31.8703   23.2136 C   0  0  0  0  0  0
  -25.8983  -32.4825   23.8418 C   0  0  1  0  0  0
  -27.2480  -27.4776   20.1074 C   0  0  0  0  0  0
  -25.5877  -33.8618   24.2355 N   0  0  0  0  0  0
  -23.3927  -30.4948   21.5492 C   0  0  2  0  0  0
  -24.8441  -28.9630   20.1147 C   0  0  0  0  0  0
  -22.7368  -29.4681   22.4989 C   0  0  0  0  0  0
  -18.0279  -28.1375   22.8486 C   0  0  0  0  0  0
  -24.1467  -36.7302   23.2643 C   0  0  0  0  0  0
  -25.9126  -30.8533   21.3573 C   0  0  0  0  0  0
  -25.9939  -29.4873   20.7147 C   0  0  0  0  0  0
  -27.1951  -28.7537   20.7153 C   0  0  0  0  0  0
  -26.0864  -26.9649   19.4949 C   0  0  0  0  0  0
  -24.8826  -27.6976   19.5003 C   0  0  0  0  0  0
  -23.6013  -29.8226   20.1641 C   0  0  0  0  0  0
  -25.4069  -36.3094   24.0364 C   0  0  1  0  0  0
  -20.5866  -28.3638   23.1338 C   0  0  2  0  0  0
  -20.6752  -26.9374   22.5457 C   0  0  0  0  0  0
  -19.5772  -26.6375   21.5212 C   0  0  0  0  0  0
  -18.1929  -26.7943   22.1576 C   0  0  0  0  0  0
  -19.1528  -28.8818   23.2923 C   0  0  0  0  0  0
  -18.9468  -30.1434   23.8919 C   0  0  0  0  0  0
  -17.6473  -30.6582   24.0566 C   0  0  0  0  0  0
  -25.9004  -34.9472   23.5148 C   0  0  0  0  0  0
  -16.5356  -29.9093   23.6319 C   0  0  0  0  0  0
  -16.7271  -28.6516   23.0322 C   0  0  0  0  0  0
  -26.4449  -31.6588   25.0716 C   0  0  0  0  0  0
  -25.3763  -31.3741   26.1526 C   0  0  0  0  0  0
  -27.0242  -30.3023   24.6044 C   0  0  0  0  0  0
  -27.6066  -32.4285   25.7436 C   0  0  0  0  0  0
  -27.5596  -37.1753   24.8439 C   0  0  0  0  0  0
  -21.4108  -29.3001   22.3714 N   0  0  0  0  0  0
  -26.4243  -37.3791   23.9483 N   0  0  0  0  0  0
  -24.6548  -31.0859   22.1002 N   0  0  0  0  0  0
  -23.4171  -28.8250   23.3028 O   0  0  0  0  0  0
  -28.3801  -26.6964   20.0734 O   0  0  0  0  0  0
  -26.5558  -34.8928   22.4705 O   0  0  0  0  0  0
  -23.5272  -32.1428   23.7567 O   0  0  0  0  0  0
  -29.5585  -17.6540   22.0222 C   0  0  0  0  0  0
  -31.8384  -18.6172   20.9514 C   0  0  0  0  0  0
  -30.4696  -16.7809   21.3706 C   0  0  0  0  0  0
  -30.9217  -19.4762   21.6142 C   0  0  0  0  0  0
  -32.9207  -19.2927   18.7639 C   0  0  0  0  0  0
  -33.1115  -19.1082   20.2765 C   0  0  0  0  0  0
  -30.7155  -23.2315   21.4902 C   0  0  0  0  0  0
  -29.6772  -24.3587   21.3318 C   0  0  0  0  0  0
  -30.1221  -21.8258   21.7066 C   0  0  0  0  0  0
  -29.3467  -26.9208   21.0966 C   0  0  0  0  0  0
  -30.3369  -25.7440   21.1361 C   0  0  2  0  0  0
  -29.7761  -18.9905   22.1457 N   0  0  0  0  0  0
  -31.6088  -17.2926   20.8394 N   0  0  0  0  0  0
  -30.1184  -15.4013   21.2940 N   0  0  0  0  0  0
  -31.1961  -20.8420   21.7540 N   0  0  0  0  0  0
  -31.0983  -25.7806   19.9418 O   0  0  0  0  0  0
  -31.4600  -12.3607   19.1268 H   0  0  0  0  0  0
  -30.2890  -11.2768   19.8136 H   0  0  0  0  0  0
  -29.7352  -11.7920   17.4191 H   0  0  0  0  0  0
  -29.6703  -13.4979   17.7841 H   0  0  0  0  0  0
  -27.8214  -11.3119   18.8060 H   0  0  0  0  0  0
  -27.3678  -12.6466   17.7819 H   0  0  0  0  0  0
  -27.7079  -14.2550   19.5771 H   0  0  0  0  0  0
  -28.6608  -11.9504   21.3441 H   0  0  0  0  0  0
  -28.4536  -13.5899   21.8721 H   0  0  0  0  0  0
  -25.2735   -9.5719   22.4700 H   0  0  0  0  0  0
  -24.0008   -7.4637   22.7444 H   0  0  0  0  0  0
  -21.0804   -8.8713   19.8949 H   0  0  0  0  0  0
  -22.3618  -10.9625   19.6115 H   0  0  0  0  0  0
  -21.1989   -7.6125   23.9683 H   0  0  0  0  0  0
  -21.1465   -6.0511   25.9069 H   0  0  0  0  0  0
  -22.0615   -2.7587   23.2841 H   0  0  0  0  0  0
  -22.4115  -11.9895   22.4802 H   0  0  0  0  0  0
  -21.1119  -13.1255   22.2591 H   0  0  0  0  0  0
  -24.6621  -15.8424   20.5006 H   0  0  0  0  0  0
  -26.2802  -15.6204   20.0659 H   0  0  0  0  0  0
  -26.7049  -32.5574   23.1190 H   0  0  0  0  0  0
  -25.0044  -33.9778   25.0518 H   0  0  0  0  0  0
  -22.6785  -31.3101   21.4110 H   0  0  0  0  0  0
  -23.3758  -35.9598   23.3198 H   0  0  0  0  0  0
  -24.3597  -36.9011   22.2080 H   0  0  0  0  0  0
  -23.7160  -37.6456   23.6706 H   0  0  0  0  0  0
  -26.0109  -31.6163   20.5842 H   0  0  0  0  0  0
  -26.8055  -30.9155   21.9680 H   0  0  0  0  0  0
  -28.0701  -29.1855   21.1789 H   0  0  0  0  0  0
  -26.1169  -25.9929   19.0239 H   0  0  0  0  0  0
  -23.9986  -27.2884   19.0297 H   0  0  0  0  0  0
  -23.7038  -30.5957   19.4009 H   0  0  0  0  0  0
  -22.7279  -29.2361   19.8720 H   0  0  0  0  0  0
  -25.1216  -36.1918   25.0840 H   0  0  0  0  0  0
  -20.9987  -28.3218   24.1452 H   0  0  0  0  0  0
  -20.5621  -26.2253   23.3648 H   0  0  0  0  0  0
  -21.6634  -26.7395   22.1289 H   0  0  0  0  0  0
  -19.6927  -25.6293   21.1239 H   0  0  0  0  0  0
  -19.6759  -27.3183   20.6749 H   0  0  0  0  0  0
  -17.4244  -26.6768   21.3920 H   0  0  0  0  0  0
  -18.0268  -26.0042   22.8916 H   0  0  0  0  0  0
  -19.7948  -30.7234   24.2289 H   0  0  0  0  0  0
  -17.5037  -31.6245   24.5205 H   0  0  0  0  0  0
  -15.5359  -30.2998   23.7633 H   0  0  0  0  0  0
  -15.8683  -28.0851   22.6986 H   0  0  0  0  0  0
  -24.5931  -30.7037   25.7961 H   0  0  0  0  0  0
  -24.8953  -32.2916   26.4924 H   0  0  0  0  0  0
  -25.8194  -30.9018   27.0303 H   0  0  0  0  0  0
  -26.2739  -29.6780   24.1170 H   0  0  0  0  0  0
  -27.4094  -29.7256   25.4461 H   0  0  0  0  0  0
  -27.8543  -30.4334   23.9099 H   0  0  0  0  0  0
  -27.2714  -33.3573   26.2062 H   0  0  0  0  0  0
  -28.3838  -32.6850   25.0226 H   0  0  0  0  0  0
  -28.0766  -31.8367   26.5300 H   0  0  0  0  0  0
  -28.2516  -38.0144   24.7592 H   0  0  0  0  0  0
  -28.1173  -36.2681   24.6042 H   0  0  0  0  0  0
  -27.2396  -37.1159   25.8859 H   0  0  0  0  0  0
  -20.9254  -29.8693   21.6917 H   0  0  0  0  0  0
  -26.0115  -38.2839   24.1603 H   0  0  0  0  0  0
  -28.6384  -17.2797   22.4459 H   0  0  0  0  0  0
  -33.8342  -19.6572   18.2961 H   0  0  0  0  0  0
  -32.1280  -20.0106   18.5516 H   0  0  0  0  0  0
  -32.6569  -18.3501   18.2813 H   0  0  0  0  0  0
  -33.9038  -18.3807   20.4592 H   0  0  0  0  0  0
  -33.4564  -20.0365   20.7292 H   0  0  0  0  0  0
  -31.3772  -23.4781   22.3229 H   0  0  0  0  0  0
  -31.3446  -23.2163   20.5990 H   0  0  0  0  0  0
  -29.0478  -24.3875   22.2225 H   0  0  0  0  0  0
  -29.0080  -24.1379   20.4992 H   0  0  0  0  0  0
  -29.4336  -21.5788   20.8969 H   0  0  0  0  0  0
  -29.5529  -21.7895   22.6368 H   0  0  0  0  0  0
  -29.8781  -27.8586   20.9263 H   0  0  0  0  0  0
  -28.8517  -26.9968   22.0667 H   0  0  0  0  0  0
  -31.0224  -25.9196   21.9677 H   0  0  0  0  0  0
  -29.2382  -15.1451   21.7090 H   0  0  0  0  0  0
  -32.0668  -21.1406   21.3281 H   0  0  0  0  0  0
  -30.4751  -25.8160   19.2207 H   0  0  0  0  0  0
  1 25  1  0  0  0
  1 30  2  0  0  0
  1 84  1  0  0  0
  2  3  1  0  0  0
  2 25  1  0  0  0
  2 87  1  0  0  0
  2 88  1  0  0  0
  3  4  1  0  0  0
  3 89  1  0  0  0
  3 90  1  0  0  0
  4  5  1  0  0  0
  4 91  1  0  0  0
  4 92  1  0  0  0
  5  6  1  0  0  0
  5 26  1  0  0  0
  5 93  1  0  0  0
  6 25  1  0  0  0
  6 94  1  0  0  0
  6 95  1  0  0  0
  7  8  2  0  0  0
  7 26  1  0  0  0
  7 29  1  0  0  0
  8  9  1  0  0  0
  8 22  1  0  0  0
  9 10  1  0  0  0
  9 27  2  0  0  0
 10 11  2  0  0  0
 10 15  1  0  0  0
 11 12  1  0  0  0
 11 96  1  0  0  0
 12 13  2  0  0  0
 12 97  1  0  0  0
 13 14  1  0  0  0
 13 31  1  0  0  0
 14 15  2  0  0  0
 14 98  1  0  0  0
 15 99  1  0  0  0
 16 17  2  0  0  0
 16 21  1  0  0  0
 16 31  1  0  0  0
 17 18  1  0  0  0
 17100  1  0  0  0
 18 19  2  0  0  0
 18101  1  0  0  0
 19 20  1  0  0  0
 19 24  1  0  0  0
 20 21  2  0  0  0
 20102  1  0  0  0
 21 23  1  0  0  0
 22 28  1  0  0  0
 22 32  2  0  0  0
 26 27  1  0  0  0
 28103  1  0  0  0
 28104  1  0  0  0
 29105  1  0  0  0
 29106  1  0  0  0
 33 34  1  0  0  0
 33 66  1  0  0  0
 33 70  2  0  0  0
 34 36  1  0  0  0
 34 59  1  0  0  0
 34107  1  0  0  0
 35 44  2  0  0  0
 35 45  1  0  0  0
 35 68  1  0  0  0
 36 56  1  0  0  0
 36108  1  0  0  0
 37 39  1  0  0  0
 37 47  1  0  0  0
 37 66  1  0  0  0
 37109  1  0  0  0
 38 43  2  0  0  0
 38 46  1  0  0  0
 38 47  1  0  0  0
 39 64  1  0  0  0
 39 67  2  0  0  0
 40 52  1  0  0  0
 40 53  2  0  0  0
 40 58  1  0  0  0
 41110  1  0  0  0
 41111  1  0  0  0
 41112  1  0  0  0
 41 48  1  0  0  0
 42 43  1  0  0  0
 42 66  1  0  0  0
 42113  1  0  0  0
 42114  1  0  0  0
 43 44  1  0  0  0
 44115  1  0  0  0
 45 46  2  0  0  0
 45116  1  0  0  0
 46117  1  0  0  0
 47118  1  0  0  0
 47119  1  0  0  0
 48 56  1  0  0  0
 48 65  1  0  0  0
 48120  1  0  0  0
 49 50  1  0  0  0
 49 53  1  0  0  0
 49 64  1  0  0  0
 49121  1  0  0  0
 50 51  1  0  0  0
 50122  1  0  0  0
 50123  1  0  0  0
 51 52  1  0  0  0
 51124  1  0  0  0
 51125  1  0  0  0
 52126  1  0  0  0
 52127  1  0  0  0
 53 54  1  0  0  0
 54 55  2  0  0  0
 54128  1  0  0  0
 55 57  1  0  0  0
 55129  1  0  0  0
 56 69  2  0  0  0
 57 58  2  0  0  0
 57130  1  0  0  0
 58131  1  0  0  0
 59 60  1  0  0  0
 59 61  1  0  0  0
 59 62  1  0  0  0
 60132  1  0  0  0
 60133  1  0  0  0
 60134  1  0  0  0
 61135  1  0  0  0
 61136  1  0  0  0
 61137  1  0  0  0
 62138  1  0  0  0
 62139  1  0  0  0
 62140  1  0  0  0
 63 65  1  0  0  0
 63141  1  0  0  0
 63142  1  0  0  0
 63143  1  0  0  0
 64144  1  0  0  0
 65145  1  0  0  0
 68 80  1  0  0  0
 71 73  2  0  0  0
 71 82  1  0  0  0
 71146  1  0  0  0
 72 74  1  0  0  0
 72 76  1  0  0  0
 72 83  2  0  0  0
 73 83  1  0  0  0
 73 84  1  0  0  0
 74 82  2  0  0  0
 74 85  1  0  0  0
 75 76  1  0  0  0
 75147  1  0  0  0
 75148  1  0  0  0
 75149  1  0  0  0
 76150  1  0  0  0
 76151  1  0  0  0
 77 78  1  0  0  0
 77 79  1  0  0  0
 77152  1  0  0  0
 77153  1  0  0  0
 78 81  1  0  0  0
 78154  1  0  0  0
 78155  1  0  0  0
 79 85  1  0  0  0
 79156  1  0  0  0
 79157  1  0  0  0
 80 81  1  0  0  0
 80158  1  0  0  0
 80159  1  0  0  0
 81 86  1  0  0  0
 81160  1  0  0  0
 84161  1  0  0  0
 85162  1  0  0  0
 86163  1  0  0  0
M  ISO  4   1 100  68 101  80 101  84 100
M  END
> <chiral flag>
0

> <version>
0

> <s_m_source_file>
/data/baiqing/PycharmProjects/Reinvent-master-3.2/result/LINK_invent/BTK/process_docking_weight1_custom_product_contain_oxygen_bond_distance_aromatic_linkinvent_7_9_3/rearranged_h_0195.sdf

> <i_m_source_file_index>
71

> <r_mmod_Potential_Energy-OPLS-2005>
-138.227447509766

> <r_mmod_Stretch_Energy-OPLS-2005>
35.4215698242188

> <r_mmod_Bend_Energy-OPLS-2005>
103.126708984375

> <r_mmod_Torsional_Energy-OPLS-2005>
195.233901977539

> <r_mmod_Improper_Torsional_Energy-OPLS-2005>
5.48592042922974

> <r_mmod_Van_der_Waal_Energy-OPLS-2005>
166.849243164062

> <r_mmod_Electrostatic_Energy-OPLS-2005>
-401.693878173828

> <r_mmod_Solvation_Energy-OPLS-2005>
-251.873626708984

> <b_mmod_Minimization_Converged-OPLS-2005>
0

> <r_mmod_RMS_Derivative-OPLS-2005>
2.41314363479614

$$$$
71
                    3D
 Structure written by MMmdl.
153161  0  0  1  0            999 V2000
  -30.5816  -14.7712   20.4587 C   0  0  0  0  0  0
  -30.4419  -12.4662   19.4876 C   0  0  0  0  0  0
  -29.5167  -12.4871   18.2488 C   0  0  0  0  0  0
  -28.0422  -12.3239   18.6609 C   0  0  0  0  0  0
  -27.6472  -13.2241   19.8593 C   0  0  2  0  0  0
  -28.6894  -13.1562   20.9973 C   0  0  0  0  0  0
  -25.2556  -13.8161   20.5705 C   0  0  0  0  0  0
  -24.1827  -13.0451   20.9232 C   0  0  0  0  0  0
  -24.6386  -11.6907   20.8781 C   0  0  0  0  0  0
  -23.9057  -10.4299   21.0459 C   0  0  0  0  0  0
  -24.3623   -9.4185   21.9200 C   0  0  0  0  0  0
  -23.6291   -8.2218   22.0748 C   0  0  0  0  0  0
  -22.4267   -8.0273   21.3546 C   0  0  0  0  0  0
  -21.9918   -9.0247   20.4650 C   0  0  0  0  0  0
  -22.7251  -10.2125   20.3076 C   0  0  0  0  0  0
  -21.6845   -6.0738   22.5289 C   0  0  0  0  0  0
  -21.4008   -6.5645   23.8223 C   0  0  0  0  0  0
  -21.3659   -5.6794   24.9185 C   0  0  0  0  0  0
  -21.6053   -4.3057   24.7234 C   0  0  0  0  0  0
  -21.8814   -3.8151   23.4352 C   0  0  0  0  0  0
  -21.9189   -4.6968   22.3410 C   0  0  0  0  0  0
  -22.7859  -13.5254   21.1905 C   0  0  0  0  0  0
  -22.1660   -4.2161   21.0981 F   0  0  0  0  0  0
  -21.5637   -3.4547   25.7744 F   0  0  0  0  0  0
  -29.9908  -13.5239   20.4262 N   0  0  0  0  0  0
  -26.2968  -12.9353   20.3320 N   0  0  0  0  0  0
  -25.9320  -11.6511   20.5792 N   0  0  0  0  0  0
  -22.0488  -12.8240   22.0446 N   0  0  0  0  0  0
  -25.4285  -15.1874   20.4077 N   0  0  0  0  0  0
  -31.7535  -14.8825   20.0789 O   0  0  0  0  0  0
  -21.6626   -6.8873   21.4242 O   0  0  0  0  0  0
  -22.3542  -14.5564   20.6756 O   0  0  0  0  0  0
  -24.6324  -31.8531   23.1988 C   0  0  0  0  0  0
  -25.9143  -32.4755   23.8332 C   0  0  1  0  0  0
  -27.2198  -27.2503   20.1302 C   0  0  0  0  0  0
  -25.5941  -33.8558   24.2270 N   0  0  0  0  0  0
  -23.4292  -30.4775   21.5425 C   0  0  2  0  0  0
  -24.8769  -28.9266   20.1078 C   0  0  0  0  0  0
  -22.7501  -29.4607   22.4924 C   0  0  0  0  0  0
  -18.0290  -28.1397   22.8482 C   0  0  0  0  0  0
  -24.1494  -36.7291   23.2628 C   0  0  0  0  0  0
  -25.9756  -30.7658   21.3774 C   0  0  0  0  0  0
  -26.0484  -29.3859   20.7216 C   0  0  0  0  0  0
  -27.2229  -28.5606   20.7217 C   0  0  0  0  0  0
  -26.0249  -26.8722   19.4748 C   0  0  0  0  0  0
  -24.8709  -27.6767   19.4745 C   0  0  0  0  0  0
  -23.6475  -29.8127   20.1574 C   0  0  0  0  0  0
  -25.4107  -36.3080   24.0329 C   0  0  1  0  0  0
  -20.5892  -28.3720   23.1293 C   0  0  2  0  0  0
  -20.6781  -26.9437   22.5451 C   0  0  0  0  0  0
  -19.5785  -26.6405   21.5221 C   0  0  0  0  0  0
  -18.1934  -26.7958   22.1577 C   0  0  0  0  0  0
  -19.1544  -28.8870   23.2893 C   0  0  0  0  0  0
  -18.9439  -30.1463   23.8926 C   0  0  0  0  0  0
  -17.6439  -30.6589   24.0580 C   0  0  0  0  0  0
  -25.9039  -34.9443   23.5096 C   0  0  0  0  0  0
  -16.5338  -29.9076   23.6332 C   0  0  0  0  0  0
  -16.7261  -28.6505   23.0335 C   0  0  0  0  0  0
  -26.4501  -31.6580   25.0716 C   0  0  0  0  0  0
  -25.3728  -31.3739   26.1453 C   0  0  0  0  0  0
  -27.0340  -30.2998   24.6189 C   0  0  0  0  0  0
  -27.6067  -32.4305   25.7510 C   0  0  0  0  0  0
  -27.5579  -37.1808   24.8462 C   0  0  0  0  0  0
  -21.4199  -29.3055   22.3681 N   0  0  0  0  0  0
  -26.4290  -37.3776   23.9407 N   0  0  0  0  0  0
  -24.6992  -31.0511   22.0961 N   0  0  0  0  0  0
  -23.4195  -28.8137   23.3014 O   0  0  0  0  0  0
  -28.2966  -26.3288   20.2099 O   0  0  0  0  0  0
  -26.5617  -34.8913   22.4665 O   0  0  0  0  0  0
  -23.5478  -32.1365   23.7282 O   0  0  0  0  0  0
  -29.0806  -18.4668   18.1477 C   0  0  0  0  0  0
  -29.3465  -17.2226   18.7619 C   0  0  0  0  0  0
  -29.6459  -17.2112   20.1517 C   0  0  0  0  0  0
  -29.2835  -19.6006   20.1077 C   0  0  0  0  0  0
  -28.5005  -22.1174   20.1658 C   0  0  0  0  0  0
  -27.9923  -24.8542   20.0674 C   0  0  0  0  0  0
  -28.9534  -23.6306   20.5459 C   0  0  1  0  0  0
  -29.0474  -19.6293   18.8139 N   0  0  0  0  0  0
  -29.5722  -18.4518   20.7988 N   0  0  0  0  0  0
  -29.2545  -16.0628   17.9826 N   0  0  0  0  0  0
  -29.8068  -15.8765   20.7979 N   0  0  0  0  0  0
  -29.2253  -20.8944   20.7217 N   0  0  0  0  0  0
  -28.9928  -23.6379   21.9614 O   0  0  0  0  0  0
  -31.4795  -12.6013   19.1773 H   0  0  0  0  0  0
  -30.4028  -11.4910   19.9739 H   0  0  0  0  0  0
  -29.7983  -11.6888   17.5615 H   0  0  0  0  0  0
  -29.6482  -13.4120   17.6908 H   0  0  0  0  0  0
  -27.8947  -11.2778   18.9261 H   0  0  0  0  0  0
  -27.3831  -12.5166   17.8134 H   0  0  0  0  0  0
  -27.6407  -14.2457   19.4802 H   0  0  0  0  0  0
  -28.7343  -12.1561   21.4321 H   0  0  0  0  0  0
  -28.4123  -13.8246   21.8123 H   0  0  0  0  0  0
  -25.2763   -9.5661   22.4786 H   0  0  0  0  0  0
  -24.0010   -7.4601   22.7458 H   0  0  0  0  0  0
  -21.0859   -8.8794   19.8947 H   0  0  0  0  0  0
  -22.3721  -10.9687   19.6210 H   0  0  0  0  0  0
  -21.1988   -7.6151   23.9740 H   0  0  0  0  0  0
  -21.1495   -6.0520   25.9095 H   0  0  0  0  0  0
  -22.0584   -2.7618   23.2855 H   0  0  0  0  0  0
  -22.4108  -11.9889   22.4806 H   0  0  0  0  0  0
  -21.1100  -13.1258   22.2674 H   0  0  0  0  0  0
  -24.6548  -15.8351   20.5001 H   0  0  0  0  0  0
  -26.2599  -15.6113   20.0167 H   0  0  0  0  0  0
  -26.7205  -32.5426   23.1069 H   0  0  0  0  0  0
  -25.0142  -33.9710   25.0457 H   0  0  0  0  0  0
  -22.7239  -31.2998   21.3950 H   0  0  0  0  0  0
  -23.3759  -35.9629   23.3296 H   0  0  0  0  0  0
  -24.3583  -36.8902   22.2044 H   0  0  0  0  0  0
  -23.7262  -37.6489   23.6650 H   0  0  0  0  0  0
  -26.1046  -31.5239   20.6026 H   0  0  0  0  0  0
  -26.8553  -30.8242   22.0079 H   0  0  0  0  0  0
  -28.1154  -28.9037   21.2259 H   0  0  0  0  0  0
  -25.9447  -25.9232   18.9694 H   0  0  0  0  0  0
  -23.9748  -27.3205   18.9875 H   0  0  0  0  0  0
  -23.7719  -30.5894   19.4019 H   0  0  0  0  0  0
  -22.7643  -29.2451   19.8555 H   0  0  0  0  0  0
  -25.1299  -36.1926   25.0830 H   0  0  0  0  0  0
  -20.9972  -28.3342   24.1421 H   0  0  0  0  0  0
  -20.5661  -26.2329   23.3652 H   0  0  0  0  0  0
  -21.6666  -26.7461   22.1285 H   0  0  0  0  0  0
  -19.6977  -25.6325   21.1255 H   0  0  0  0  0  0
  -19.6771  -27.3224   20.6772 H   0  0  0  0  0  0
  -17.4240  -26.6760   21.3928 H   0  0  0  0  0  0
  -18.0267  -26.0054   22.8901 H   0  0  0  0  0  0
  -19.7902  -30.7288   24.2313 H   0  0  0  0  0  0
  -17.4974  -31.6266   24.5185 H   0  0  0  0  0  0
  -15.5343  -30.2975   23.7667 H   0  0  0  0  0  0
  -15.8664  -28.0847   22.7003 H   0  0  0  0  0  0
  -24.5923  -30.7046   25.7813 H   0  0  0  0  0  0
  -24.8901  -32.2909   26.4850 H   0  0  0  0  0  0
  -25.8076  -30.8967   27.0254 H   0  0  0  0  0  0
  -26.2923  -29.6762   24.1188 H   0  0  0  0  0  0
  -27.3986  -29.7245   25.4709 H   0  0  0  0  0  0
  -27.8816  -30.4261   23.9451 H   0  0  0  0  0  0
  -27.2674  -33.3610   26.2082 H   0  0  0  0  0  0
  -28.3905  -32.6844   25.0356 H   0  0  0  0  0  0
  -28.0690  -31.8406   26.5441 H   0  0  0  0  0  0
  -28.2601  -38.0096   24.7497 H   0  0  0  0  0  0
  -28.1068  -36.2634   24.6309 H   0  0  0  0  0  0
  -27.2289  -37.1476   25.8857 H   0  0  0  0  0  0
  -20.9358  -29.8762   21.6900 H   0  0  0  0  0  0
  -26.0168  -38.2858   24.1389 H   0  0  0  0  0  0
  -28.8543  -18.5318   17.0918 H   0  0  0  0  0  0
  -28.4865  -22.0465   19.0783 H   0  0  0  0  0  0
  -27.4558  -22.0039   20.4658 H   0  0  0  0  0  0
  -27.0226  -24.6658   20.5284 H   0  0  0  0  0  0
  -27.8398  -24.6979   18.9986 H   0  0  0  0  0  0
  -29.9563  -23.8073   20.1554 H   0  0  0  0  0  0
  -29.7910  -15.2417   18.2329 H   0  0  0  0  0  0
  -29.1376  -16.1647   16.9783 H   0  0  0  0  0  0
  -29.0097  -15.6313   21.3600 H   0  0  0  0  0  0
  -29.3071  -20.8673   21.7317 H   0  0  0  0  0  0
  -29.7384  -23.1027   22.2152 H   0  0  0  0  0  0
  1 25  1  0  0  0
  1 30  2  0  0  0
  1 81  1  0  0  0
  2  3  1  0  0  0
  2 25  1  0  0  0
  2 84  1  0  0  0
  2 85  1  0  0  0
  3  4  1  0  0  0
  3 86  1  0  0  0
  3 87  1  0  0  0
  4  5  1  0  0  0
  4 88  1  0  0  0
  4 89  1  0  0  0
  5  6  1  0  0  0
  5 26  1  0  0  0
  5 90  1  0  0  0
  6 25  1  0  0  0
  6 91  1  0  0  0
  6 92  1  0  0  0
  7  8  2  0  0  0
  7 26  1  0  0  0
  7 29  1  0  0  0
  8  9  1  0  0  0
  8 22  1  0  0  0
  9 10  1  0  0  0
  9 27  2  0  0  0
 10 11  2  0  0  0
 10 15  1  0  0  0
 11 12  1  0  0  0
 11 93  1  0  0  0
 12 13  2  0  0  0
 12 94  1  0  0  0
 13 14  1  0  0  0
 13 31  1  0  0  0
 14 15  2  0  0  0
 14 95  1  0  0  0
 15 96  1  0  0  0
 16 17  2  0  0  0
 16 21  1  0  0  0
 16 31  1  0  0  0
 17 18  1  0  0  0
 17 97  1  0  0  0
 18 19  2  0  0  0
 18 98  1  0  0  0
 19 20  1  0  0  0
 19 24  1  0  0  0
 20 21  2  0  0  0
 20 99  1  0  0  0
 21 23  1  0  0  0
 22 28  1  0  0  0
 22 32  2  0  0  0
 26 27  1  0  0  0
 28100  1  0  0  0
 28101  1  0  0  0
 29102  1  0  0  0
 29103  1  0  0  0
 33 34  1  0  0  0
 33 66  1  0  0  0
 33 70  2  0  0  0
 34 36  1  0  0  0
 34 59  1  0  0  0
 34104  1  0  0  0
 35 44  2  0  0  0
 35 45  1  0  0  0
 35 68  1  0  0  0
 36 56  1  0  0  0
 36105  1  0  0  0
 37 39  1  0  0  0
 37 47  1  0  0  0
 37 66  1  0  0  0
 37106  1  0  0  0
 38 43  2  0  0  0
 38 46  1  0  0  0
 38 47  1  0  0  0
 39 64  1  0  0  0
 39 67  2  0  0  0
 40 52  1  0  0  0
 40 53  2  0  0  0
 40 58  1  0  0  0
 41107  1  0  0  0
 41108  1  0  0  0
 41109  1  0  0  0
 41 48  1  0  0  0
 42 43  1  0  0  0
 42 66  1  0  0  0
 42110  1  0  0  0
 42111  1  0  0  0
 43 44  1  0  0  0
 44112  1  0  0  0
 45 46  2  0  0  0
 45113  1  0  0  0
 46114  1  0  0  0
 47115  1  0  0  0
 47116  1  0  0  0
 48 56  1  0  0  0
 48 65  1  0  0  0
 48117  1  0  0  0
 49 50  1  0  0  0
 49 53  1  0  0  0
 49 64  1  0  0  0
 49118  1  0  0  0
 50 51  1  0  0  0
 50119  1  0  0  0
 50120  1  0  0  0
 51 52  1  0  0  0
 51121  1  0  0  0
 51122  1  0  0  0
 52123  1  0  0  0
 52124  1  0  0  0
 53 54  1  0  0  0
 54 55  2  0  0  0
 54125  1  0  0  0
 55 57  1  0  0  0
 55126  1  0  0  0
 56 69  2  0  0  0
 57 58  2  0  0  0
 57127  1  0  0  0
 58128  1  0  0  0
 59 60  1  0  0  0
 59 61  1  0  0  0
 59 62  1  0  0  0
 60129  1  0  0  0
 60130  1  0  0  0
 60131  1  0  0  0
 61132  1  0  0  0
 61133  1  0  0  0
 61134  1  0  0  0
 62135  1  0  0  0
 62136  1  0  0  0
 62137  1  0  0  0
 63 65  1  0  0  0
 63138  1  0  0  0
 63139  1  0  0  0
 63140  1  0  0  0
 64141  1  0  0  0
 65142  1  0  0  0
 68 76  1  0  0  0
 71 72  2  0  0  0
 71 78  1  0  0  0
 71143  1  0  0  0
 72 73  1  0  0  0
 72 80  1  0  0  0
 73 79  2  0  0  0
 73 81  1  0  0  0
 74 78  2  0  0  0
 74 79  1  0  0  0
 74 82  1  0  0  0
 75 77  1  0  0  0
 75 82  1  0  0  0
 75144  1  0  0  0
 75145  1  0  0  0
 76 77  1  0  0  0
 76146  1  0  0  0
 76147  1  0  0  0
 77 83  1  0  0  0
 77148  1  0  0  0
 80149  1  0  0  0
 80150  1  0  0  0
 81151  1  0  0  0
 82152  1  0  0  0
 83153  1  0  0  0
M  ISO  4   1 100  68 101  76 101  81 100
M  END
> <chiral flag>
0

> <version>
0

> <s_m_source_file>
/data/baiqing/PycharmProjects/Reinvent-master-3.2/result/LINK_invent/BTK/process_docking_weight1_custom_product_contain_oxygen_bond_distance_aromatic_linkinvent_7_9_3/rearranged_h_0195.sdf

> <i_m_source_file_index>
72

> <r_mmod_Potential_Energy-OPLS-2005>
-340.955200195312

> <r_mmod_Stretch_Energy-OPLS-2005>
128.833206176758

> <r_mmod_Bend_Energy-OPLS-2005>
175.443374633789

> <r_mmod_Torsional_Energy-OPLS-2005>
275.639007568359

> <r_mmod_Improper_Torsional_Energy-OPLS-2005>
10.2368278503418

> <r_mmod_Van_der_Waal_Energy-OPLS-2005>
155.102340698242

> <r_mmod_Electrostatic_Energy-OPLS-2005>
-913.480346679688

> <r_mmod_Solvation_Energy-OPLS-2005>
-268.642944335938

> <b_mmod_Minimization_Converged-OPLS-2005>
0

> <r_mmod_RMS_Derivative-OPLS-2005>
3.61923861503601

$$$$
72
                    3D
 Structure written by MMmdl.
155163  0  0  1  0            999 V2000
  -29.6482  -14.1067   21.1076 C   0  0  0  0  0  0
  -30.6763  -12.5803   19.2771 C   0  0  0  0  0  0
  -29.8075  -12.5776   17.9447 C   0  0  0  0  0  0
  -28.2745  -12.3348   18.0660 C   0  0  0  0  0  0
  -27.9470  -13.0271   19.3142 C   0  0  2  0  0  0
  -28.7704  -12.1800   20.3888 C   0  0  0  0  0  0
  -25.1899  -14.2721   19.9470 C   0  0  0  0  0  0
  -24.2551  -13.5720   21.2081 C   0  0  0  0  0  0
  -24.9057  -11.9967   21.6962 C   0  0  0  0  0  0
  -24.0613  -10.6628   21.5025 C   0  0  0  0  0  0
  -24.4474   -9.4868   22.1867 C   0  0  0  0  0  0
  -23.7102   -8.2713   22.1567 C   0  0  0  0  0  0
  -22.5277   -8.1307   21.3978 C   0  0  0  0  0  0
  -22.1868   -9.2247   20.5672 C   0  0  0  0  0  0
  -22.9465  -10.4419   20.6011 C   0  0  0  0  0  0
  -21.7140   -6.1261   22.5038 C   0  0  0  0  0  0
  -21.4165   -6.5946   23.8050 C   0  0  0  0  0  0
  -21.3664   -5.7011   24.8969 C   0  0  0  0  0  0
  -21.5985   -4.3274   24.6994 C   0  0  0  0  0  0
  -21.8742   -3.8476   23.4075 C   0  0  0  0  0  0
  -21.9251   -4.7386   22.3169 C   0  0  0  0  0  0
  -22.7826  -13.7938   21.2993 C   0  0  0  0  0  0
  -22.1731   -4.2495   21.0786 F   0  0  0  0  0  0
  -21.5570   -3.4696   25.7483 F   0  0  0  0  0  0
  -29.8836  -12.9515   20.4651 N   0  0  0  0  0  0
  -26.6622  -13.0494   19.6807 N   0  0  0  0  0  0
  -26.3526  -11.7356   20.9081 N   0  0  0  0  0  0
  -22.0699  -12.9945   22.0900 N   0  0  0  0  0  0
  -25.1067  -15.4941   19.3690 N   0  0  0  0  0  0
  -30.6187  -14.9067   20.9615 O   0  0  0  0  0  0
  -21.7454   -6.9797   21.4107 O   0  0  0  0  0  0
  -22.2538  -14.6782   20.6403 O   0  0  0  0  0  0
  -24.6502  -31.8399   23.1885 C   0  0  0  0  0  0
  -25.9265  -32.4649   23.8270 C   0  0  1  0  0  0
  -27.0529  -26.9870   20.2500 C   0  0  0  0  0  0
  -25.5996  -33.8465   24.2168 N   0  0  0  0  0  0
  -23.4507  -30.4728   21.5323 C   0  0  2  0  0  0
  -24.8779  -28.9002   20.0919 C   0  0  0  0  0  0
  -22.7583  -29.4560   22.4771 C   0  0  0  0  0  0
  -18.0312  -28.1403   22.8468 C   0  0  0  0  0  0
  -24.1491  -36.7227   23.2642 C   0  0  0  0  0  0
  -26.0147  -30.6733   21.4087 C   0  0  0  0  0  0
  -26.0546  -29.2787   20.7486 C   0  0  0  0  0  0
  -27.1547  -28.3358   20.8086 C   0  0  0  0  0  0
  -25.9001  -26.7681   19.4771 C   0  0  0  0  0  0
  -24.8272  -27.6733   19.4211 C   0  0  0  0  0  0
  -23.6759  -29.8261   20.1405 C   0  0  0  0  0  0
  -25.4127  -36.3001   24.0308 C   0  0  1  0  0  0
  -20.5931  -28.3748   23.1182 C   0  0  2  0  0  0
  -20.6796  -26.9439   22.5382 C   0  0  0  0  0  0
  -19.5763  -26.6379   21.5203 C   0  0  0  0  0  0
  -18.1949  -26.7937   22.1622 C   0  0  0  0  0  0
  -19.1572  -28.8893   23.2822 C   0  0  0  0  0  0
  -18.9488  -30.1484   23.8858 C   0  0  0  0  0  0
  -17.6485  -30.6597   24.0559 C   0  0  0  0  0  0
  -25.9091  -34.9379   23.5045 C   0  0  0  0  0  0
  -16.5374  -29.9089   23.6342 C   0  0  0  0  0  0
  -16.7297  -28.6507   23.0361 C   0  0  0  0  0  0
  -26.4549  -31.6556   25.0756 C   0  0  0  0  0  0
  -25.3700  -31.3788   26.1430 C   0  0  0  0  0  0
  -27.0446  -30.2926   24.6460 C   0  0  0  0  0  0
  -27.6048  -32.4363   25.7548 C   0  0  0  0  0  0
  -27.5571  -37.1772   24.8462 C   0  0  0  0  0  0
  -21.4271  -29.3065   22.3527 N   0  0  0  0  0  0
  -26.4276  -37.3729   23.9412 N   0  0  0  0  0  0
  -24.7261  -31.0214   22.0949 N   0  0  0  0  0  0
  -23.4212  -28.8086   23.2919 O   0  0  0  0  0  0
  -27.9267  -25.8528   20.4844 O   0  0  0  0  0  0
  -26.5675  -34.8885   22.4622 O   0  0  0  0  0  0
  -23.5612  -32.1327   23.7064 O   0  0  0  0  0  0
  -28.5197  -18.7809   19.8316 C   0  0  0  0  0  0
  -28.7539  -17.6189   19.2022 C   0  0  0  0  0  0
  -27.2418  -17.1759   20.8904 C   0  0  0  0  0  0
  -27.1612  -21.2833   20.6662 C   0  0  0  0  0  0
  -26.4956  -15.8106   21.7538 C   0  0  0  0  0  0
  -27.2874  -22.8863   21.2187 C   0  0  0  0  0  0
  -26.5422  -13.9194   21.6995 C   0  0  0  0  0  0
  -27.5940  -24.2931   20.2298 C   0  0  0  0  0  0
  -27.4852  -18.6443   20.7489 N   0  0  0  0  0  0
  -27.9450  -16.7358   19.8051 N   0  3  0  0  0  0
  -26.9882  -19.9996   21.3630 N   0  0  0  0  0  0
  -28.3086  -14.1484   21.8367 N   0  0  0  0  0  0
  -27.2055  -21.2476   19.4337 O   0  0  0  0  0  0
  -31.5270  -13.2551   19.1643 H   0  0  0  0  0  0
  -31.1134  -11.5937   19.4422 H   0  0  0  0  0  0
  -30.2355  -11.8767   17.2263 H   0  0  0  0  0  0
  -29.9377  -13.5578   17.4814 H   0  0  0  0  0  0
  -28.0228  -11.2733   18.0937 H   0  0  0  0  0  0
  -27.7416  -12.7641   17.2156 H   0  0  0  0  0  0
  -28.1851  -14.0755   19.1300 H   0  0  0  0  0  0
  -28.9749  -11.1626   20.0407 H   0  0  0  0  0  0
  -28.5152  -11.9190   21.4205 H   0  0  0  0  0  0
  -25.3232   -9.5356   22.8186 H   0  0  0  0  0  0
  -24.0596   -7.4464   22.7609 H   0  0  0  0  0  0
  -21.3260   -9.1524   19.9172 H   0  0  0  0  0  0
  -22.6276  -11.2519   19.9618 H   0  0  0  0  0  0
  -21.2285   -7.6455   23.9690 H   0  0  0  0  0  0
  -21.1467   -6.0705   25.8881 H   0  0  0  0  0  0
  -22.0437   -2.7942   23.2487 H   0  0  0  0  0  0
  -22.5008  -12.2583   22.6286 H   0  0  0  0  0  0
  -21.0698  -13.1248   22.1589 H   0  0  0  0  0  0
  -24.2141  -15.9675   19.4598 H   0  0  0  0  0  0
  -25.4756  -15.5944   18.4305 H   0  0  0  0  0  0
  -26.7319  -32.5193   23.0973 H   0  0  0  0  0  0
  -25.0122  -33.9573   25.0303 H   0  0  0  0  0  0
  -22.7575  -31.3041   21.3879 H   0  0  0  0  0  0
  -23.3766  -35.9544   23.3280 H   0  0  0  0  0  0
  -24.3571  -36.8891   22.2061 H   0  0  0  0  0  0
  -23.7232  -37.6407   23.6702 H   0  0  0  0  0  0
  -26.2014  -31.4229   20.6386 H   0  0  0  0  0  0
  -26.8763  -30.7068   22.0638 H   0  0  0  0  0  0
  -28.0328  -28.5925   21.3841 H   0  0  0  0  0  0
  -25.7437  -25.8372   18.9605 H   0  0  0  0  0  0
  -23.9364  -27.3957   18.8741 H   0  0  0  0  0  0
  -23.8357  -30.6111   19.4003 H   0  0  0  0  0  0
  -22.7814  -29.2922   19.8145 H   0  0  0  0  0  0
  -25.1315  -36.1815   25.0800 H   0  0  0  0  0  0
  -21.0039  -28.3364   24.1297 H   0  0  0  0  0  0
  -20.5687  -26.2373   23.3620 H   0  0  0  0  0  0
  -21.6659  -26.7432   22.1181 H   0  0  0  0  0  0
  -19.6924  -25.6279   21.1261 H   0  0  0  0  0  0
  -19.6692  -27.3162   20.6710 H   0  0  0  0  0  0
  -17.4209  -26.6666   21.4038 H   0  0  0  0  0  0
  -18.0364  -26.0093   22.9036 H   0  0  0  0  0  0
  -19.7966  -30.7308   24.2207 H   0  0  0  0  0  0
  -17.5042  -31.6271   24.5171 H   0  0  0  0  0  0
  -15.5374  -30.2982   23.7693 H   0  0  0  0  0  0
  -15.8694  -28.0817   22.7100 H   0  0  0  0  0  0
  -24.5874  -30.7145   25.7749 H   0  0  0  0  0  0
  -24.8901  -32.2988   26.4774 H   0  0  0  0  0  0
  -25.7948  -30.9006   27.0264 H   0  0  0  0  0  0
  -26.3111  -29.6604   24.1443 H   0  0  0  0  0  0
  -27.3961  -29.7289   25.5115 H   0  0  0  0  0  0
  -27.9062  -30.4117   23.9887 H   0  0  0  0  0  0
  -27.2604  -33.3683   26.2045 H   0  0  0  0  0  0
  -28.3896  -32.6900   25.0410 H   0  0  0  0  0  0
  -28.0679  -31.8558   26.5538 H   0  0  0  0  0  0
  -28.2555  -38.0100   24.7533 H   0  0  0  0  0  0
  -28.1100  -36.2627   24.6258 H   0  0  0  0  0  0
  -27.2288  -37.1376   25.8863 H   0  0  0  0  0  0
  -20.9477  -29.8795   21.6721 H   0  0  0  0  0  0
  -26.0130  -38.2788   24.1433 H   0  0  0  0  0  0
  -29.0112  -19.7164   19.6128 H   0  0  0  0  0  0
  -29.4215  -17.3616   18.3921 H   0  0  0  0  0  0
  -27.0472  -15.9656   22.6814 H   0  0  0  0  0  0
  -26.9208  -15.3766   20.9101 H   0  0  0  0  0  0
  -28.0627  -22.8600   21.9846 H   0  0  0  0  0  0
  -26.3657  -23.0792   21.7672 H   0  0  0  0  0  0
  -26.2893  -13.6357   22.7275 H   0  0  0  0  0  0
  -24.9946  -12.4710   19.9174 H   0  0  0  0  0  0
  -26.8653  -24.2230   19.4292 H   0  0  0  0  0  0
  -28.5071  -23.9975   19.7135 H   0  0  0  0  0  0
  -27.8749  -15.7841   19.4800 H   0  0  0  0  0  0
  -26.7069  -19.9138   22.3300 H   0  0  0  0  0  0
  -28.4575  -14.7864   22.6066 H   0  0  0  0  0  0
  1 25  1  0  0  0
  1 30  2  0  0  0
  1 82  1  0  0  0
  2  3  1  0  0  0
  2 25  1  0  0  0
  2 84  1  0  0  0
  2 85  1  0  0  0
  3  4  1  0  0  0
  3 86  1  0  0  0
  3 87  1  0  0  0
  4  5  1  0  0  0
  4 88  1  0  0  0
  4 89  1  0  0  0
  5  6  1  0  0  0
  5 26  1  0  0  0
  5 90  1  0  0  0
  6 25  1  0  0  0
  6 91  1  0  0  0
  6 92  1  0  0  0
  7  8  2  0  0  0
  7 26  1  0  0  0
  7 29  1  0  0  0
  8  9  1  0  0  0
  8 22  1  0  0  0
  9 10  1  0  0  0
  9 27  2  0  0  0
 10 11  2  0  0  0
 10 15  1  0  0  0
 11 12  1  0  0  0
 11 93  1  0  0  0
 12 13  2  0  0  0
 12 94  1  0  0  0
 13 14  1  0  0  0
 13 31  1  0  0  0
 14 15  2  0  0  0
 14 95  1  0  0  0
 15 96  1  0  0  0
 16 17  2  0  0  0
 16 21  1  0  0  0
 16 31  1  0  0  0
 17 18  1  0  0  0
 17 97  1  0  0  0
 18 19  2  0  0  0
 18 98  1  0  0  0
 19 20  1  0  0  0
 19 24  1  0  0  0
 20 21  2  0  0  0
 20 99  1  0  0  0
 21 23  1  0  0  0
 22 28  1  0  0  0
 22 32  2  0  0  0
 26 27  1  0  0  0
 28100  1  0  0  0
 28101  1  0  0  0
 29102  1  0  0  0
 29103  1  0  0  0
 33 34  1  0  0  0
 33 66  1  0  0  0
 33 70  2  0  0  0
 34 36  1  0  0  0
 34 59  1  0  0  0
 34104  1  0  0  0
 35 44  2  0  0  0
 35 45  1  0  0  0
 35 68  1  0  0  0
 36 56  1  0  0  0
 36105  1  0  0  0
 37 39  1  0  0  0
 37 47  1  0  0  0
 37 66  1  0  0  0
 37106  1  0  0  0
 38 43  2  0  0  0
 38 46  1  0  0  0
 38 47  1  0  0  0
 39 64  1  0  0  0
 39 67  2  0  0  0
 40 52  1  0  0  0
 40 53  2  0  0  0
 40 58  1  0  0  0
 41107  1  0  0  0
 41108  1  0  0  0
 41109  1  0  0  0
 41 48  1  0  0  0
 42 43  1  0  0  0
 42 66  1  0  0  0
 42110  1  0  0  0
 42111  1  0  0  0
 43 44  1  0  0  0
 44112  1  0  0  0
 45 46  2  0  0  0
 45113  1  0  0  0
 46114  1  0  0  0
 47115  1  0  0  0
 47116  1  0  0  0
 48 56  1  0  0  0
 48 65  1  0  0  0
 48117  1  0  0  0
 49 50  1  0  0  0
 49 53  1  0  0  0
 49 64  1  0  0  0
 49118  1  0  0  0
 50 51  1  0  0  0
 50119  1  0  0  0
 50120  1  0  0  0
 51 52  1  0  0  0
 51121  1  0  0  0
 51122  1  0  0  0
 52123  1  0  0  0
 52124  1  0  0  0
 53 54  1  0  0  0
 54 55  2  0  0  0
 54125  1  0  0  0
 55 57  1  0  0  0
 55126  1  0  0  0
 56 69  2  0  0  0
 57 58  2  0  0  0
 57127  1  0  0  0
 58128  1  0  0  0
 59 60  1  0  0  0
 59 61  1  0  0  0
 59 62  1  0  0  0
 60129  1  0  0  0
 60130  1  0  0  0
 60131  1  0  0  0
 61132  1  0  0  0
 61133  1  0  0  0
 61134  1  0  0  0
 62135  1  0  0  0
 62136  1  0  0  0
 62137  1  0  0  0
 63 65  1  0  0  0
 63138  1  0  0  0
 63139  1  0  0  0
 63140  1  0  0  0
 64141  1  0  0  0
 65142  1  0  0  0
 68 78  1  0  0  0
 71 72  2  0  0  0
 71 79  1  0  0  0
 71143  1  0  0  0
 72 80  1  0  0  0
 72144  1  0  0  0
 73 75  1  0  0  0
 73 79  1  0  0  0
 73 80  2  0  0  0
 74 76  1  0  0  0
 74 81  1  0  0  0
 74 83  2  0  0  0
 75 77  1  0  0  0
 75145  1  0  0  0
 75146  1  0  0  0
 76 78  1  0  0  0
 76147  1  0  0  0
 76148  1  0  0  0
 77 82  1  0  0  0
 77149  1  0  0  0
 77150  1  0  0  0
 78151  1  0  0  0
 78152  1  0  0  0
 79 81  1  0  0  0
 80153  1  0  0  0
 81154  1  0  0  0
 82155  1  0  0  0
M  CHG  1  80   1
M  ISO  4   1 100  68 101  78 101  82 100
M  END
> <chiral flag>
0

> <version>
0

> <s_m_source_file>
/data/baiqing/PycharmProjects/Reinvent-master-3.2/result/LINK_invent/BTK/process_docking_weight1_custom_product_contain_oxygen_bond_distance_aromatic_linkinvent_7_9_3/rearranged_h_0195.sdf

> <i_m_source_file_index>
73

> <r_mmod_Potential_Energy-OPLS-2005>
11093.294921875

> <r_mmod_Stretch_Energy-OPLS-2005>
6594.72412109375

> <r_mmod_Bend_Energy-OPLS-2005>
996.107360839844

> <r_mmod_Torsional_Energy-OPLS-2005>
428.026275634766

> <r_mmod_Improper_Torsional_Energy-OPLS-2005>
46.2119255065918

> <r_mmod_Van_der_Waal_Energy-OPLS-2005>
2497.21118164062

> <r_mmod_Electrostatic_Energy-OPLS-2005>
-317.85791015625

> <r_mmod_Solvation_Energy-OPLS-2005>
-441.417419433594

> <b_mmod_Minimization_Converged-OPLS-2005>
0

> <r_mmod_RMS_Derivative-OPLS-2005>
3.16941785812378

$$$$
73
                    3D
 Structure written by MMmdl.
164172  0  0  1  0            999 V2000
  -30.7472  -14.4522   20.5608 C   0  0  0  0  0  0
  -30.4012  -12.2913   19.4355 C   0  0  0  0  0  0
  -29.4906  -12.5082   18.2127 C   0  0  0  0  0  0
  -28.0120  -12.3638   18.6240 C   0  0  0  0  0  0
  -27.6539  -13.2155   19.8700 C   0  0  2  0  0  0
  -28.6956  -13.0284   20.9979 C   0  0  0  0  0  0
  -25.2515  -13.8211   20.5646 C   0  0  0  0  0  0
  -24.1787  -13.0474   20.9190 C   0  0  0  0  0  0
  -24.6352  -11.6942   20.8721 C   0  0  0  0  0  0
  -23.9040  -10.4314   21.0400 C   0  0  0  0  0  0
  -24.3609   -9.4229   21.9184 C   0  0  0  0  0  0
  -23.6285   -8.2254   22.0769 C   0  0  0  0  0  0
  -22.4260   -8.0291   21.3553 C   0  0  0  0  0  0
  -21.9887   -9.0267   20.4658 C   0  0  0  0  0  0
  -22.7219  -10.2141   20.3051 C   0  0  0  0  0  0
  -21.6852   -6.0742   22.5291 C   0  0  0  0  0  0
  -21.4030   -6.5640   23.8228 C   0  0  0  0  0  0
  -21.3662   -5.6787   24.9185 C   0  0  0  0  0  0
  -21.6037   -4.3049   24.7240 C   0  0  0  0  0  0
  -21.8798   -3.8161   23.4352 C   0  0  0  0  0  0
  -21.9176   -4.6975   22.3408 C   0  0  0  0  0  0
  -22.7819  -13.5245   21.1820 C   0  0  0  0  0  0
  -22.1641   -4.2173   21.0982 F   0  0  0  0  0  0
  -21.5631   -3.4525   25.7748 F   0  0  0  0  0  0
  -30.0281  -13.3034   20.4356 N   0  0  0  0  0  0
  -26.2952  -12.9390   20.3317 N   0  0  0  0  0  0
  -25.9265  -11.6546   20.5743 N   0  0  0  0  0  0
  -22.0421  -12.8300   22.0417 N   0  0  0  0  0  0
  -25.4209  -15.1942   20.4057 N   0  0  0  0  0  0
  -31.8901  -14.5470   20.0997 O   0  0  0  0  0  0
  -21.6636   -6.8876   21.4251 O   0  0  0  0  0  0
  -22.3502  -14.5536   20.6622 O   0  0  0  0  0  0
  -24.6123  -31.8701   23.2103 C   0  0  0  0  0  0
  -25.9030  -32.4840   23.8372 C   0  0  1  0  0  0
  -27.2210  -27.4503   20.0836 C   0  0  0  0  0  0
  -25.5895  -33.8636   24.2310 N   0  0  0  0  0  0
  -23.4005  -30.4929   21.5511 C   0  0  2  0  0  0
  -24.8459  -28.9666   20.1048 C   0  0  0  0  0  0
  -22.7406  -29.4656   22.4983 C   0  0  0  0  0  0
  -18.0265  -28.1364   22.8490 C   0  0  0  0  0  0
  -24.1489  -36.7309   23.2632 C   0  0  0  0  0  0
  -25.9283  -30.8420   21.3586 C   0  0  0  0  0  0
  -26.0061  -29.4787   20.7012 C   0  0  0  0  0  0
  -27.2022  -28.7270   20.6877 C   0  0  0  0  0  0
  -26.0541  -26.9526   19.4719 C   0  0  0  0  0  0
  -24.8635  -27.7027   19.4874 C   0  0  0  0  0  0
  -23.6058  -29.8284   20.1633 C   0  0  0  0  0  0
  -25.4115  -36.3106   24.0327 C   0  0  1  0  0  0
  -20.5856  -28.3644   23.1322 C   0  0  2  0  0  0
  -20.6754  -26.9385   22.5417 C   0  0  0  0  0  0
  -19.5738  -26.6375   21.5204 C   0  0  0  0  0  0
  -18.1915  -26.7919   22.1614 C   0  0  0  0  0  0
  -19.1524  -28.8817   23.2903 C   0  0  0  0  0  0
  -18.9457  -30.1423   23.8915 C   0  0  0  0  0  0
  -17.6466  -30.6584   24.0558 C   0  0  0  0  0  0
  -25.9042  -34.9482   23.5111 C   0  0  0  0  0  0
  -16.5342  -29.9093   23.6319 C   0  0  0  0  0  0
  -16.7258  -28.6500   23.0346 C   0  0  0  0  0  0
  -26.4447  -31.6618   25.0699 C   0  0  0  0  0  0
  -25.3714  -31.3751   26.1454 C   0  0  0  0  0  0
  -27.0259  -30.3056   24.6061 C   0  0  0  0  0  0
  -27.6027  -32.4329   25.7471 C   0  0  0  0  0  0
  -27.5585  -37.1799   24.8454 C   0  0  0  0  0  0
  -21.4126  -29.3029   22.3740 N   0  0  0  0  0  0
  -26.4290  -37.3798   23.9408 N   0  0  0  0  0  0
  -24.6662  -31.0807   22.0989 N   0  0  0  0  0  0
  -23.4202  -28.8196   23.3008 O   0  0  0  0  0  0
  -28.3232  -26.6361   20.1602 O   0  0  0  0  0  0
  -26.5607  -34.8932   22.4676 O   0  0  0  0  0  0
  -23.5318  -32.1446   23.7489 O   0  0  0  0  0  0
  -30.8302  -18.9763   20.5419 C   0  0  0  0  0  0
  -30.6664  -16.8358   21.1228 C   0  0  0  0  0  0
  -32.4106  -23.1626   22.6630 C   0  0  0  0  0  0
  -29.9571  -19.9241   18.3988 C   0  0  0  0  0  0
  -31.8454  -22.2570   21.5507 C   0  0  0  0  0  0
  -29.8984  -23.7892   20.8936 C   0  0  0  0  0  0
  -28.2295  -25.7437   21.2838 C   0  0  0  0  0  0
  -30.5493  -20.2759   19.7722 C   0  0  1  0  0  0
  -30.3034  -22.3427   21.3474 C   0  0  1  0  0  0
  -28.4078  -24.2307   20.9474 C   0  0  2  0  0  0
  -30.0048  -17.9177   20.6523 N   0  0  0  0  0  0
  -31.9071  -17.0187   21.6087 N   0  0  0  0  0  0
  -30.1016  -15.5324   21.0455 N   0  0  0  0  0  0
  -29.7002  -21.2697   20.4844 N   0  3  0  0  0  0
  -27.7221  -23.4773   21.9344 O   0  0  0  0  0  0
  -32.3921  -18.5850   21.2257 S   0  0  0  0  0  0
  -31.4524  -12.3461   19.1490 H   0  0  0  0  0  0
  -30.2661  -11.2890   19.8443 H   0  0  0  0  0  0
  -29.7381  -11.7981   17.4249 H   0  0  0  0  0  0
  -29.6585  -13.5028   17.7965 H   0  0  0  0  0  0
  -27.8268  -11.3097   18.8327 H   0  0  0  0  0  0
  -27.3625  -12.6326   17.7910 H   0  0  0  0  0  0
  -27.6893  -14.2568   19.5509 H   0  0  0  0  0  0
  -28.6636  -12.0075   21.3810 H   0  0  0  0  0  0
  -28.4676  -13.6648   21.8522 H   0  0  0  0  0  0
  -25.2746   -9.5743   22.4751 H   0  0  0  0  0  0
  -24.0028   -7.4645   22.7475 H   0  0  0  0  0  0
  -21.0829   -8.8773   19.8935 H   0  0  0  0  0  0
  -22.3689  -10.9678   19.6153 H   0  0  0  0  0  0
  -21.2048   -7.6141   23.9745 H   0  0  0  0  0  0
  -21.1494   -6.0513   25.9084 H   0  0  0  0  0  0
  -22.0573   -2.7633   23.2835 H   0  0  0  0  0  0
  -22.3994  -11.9996   22.4905 H   0  0  0  0  0  0
  -21.1023  -13.1356   22.2501 H   0  0  0  0  0  0
  -24.6495  -15.8456   20.5010 H   0  0  0  0  0  0
  -26.2646  -15.6363   20.0638 H   0  0  0  0  0  0
  -26.7101  -32.5545   23.1136 H   0  0  0  0  0  0
  -25.0039  -33.9804   25.0442 H   0  0  0  0  0  0
  -22.6856  -31.3078   21.4154 H   0  0  0  0  0  0
  -23.3758  -35.9631   23.3290 H   0  0  0  0  0  0
  -24.3577  -36.8938   22.2043 H   0  0  0  0  0  0
  -23.7236  -37.6509   23.6661 H   0  0  0  0  0  0
  -26.0349  -31.6151   20.5952 H   0  0  0  0  0  0
  -26.8168  -30.8945   21.9767 H   0  0  0  0  0  0
  -28.0950  -29.1058   21.1636 H   0  0  0  0  0  0
  -26.0583  -25.9746   19.0115 H   0  0  0  0  0  0
  -23.9684  -27.3050   19.0282 H   0  0  0  0  0  0
  -23.7034  -30.6052   19.4041 H   0  0  0  0  0  0
  -22.7321  -29.2434   19.8715 H   0  0  0  0  0  0
  -25.1291  -36.1956   25.0818 H   0  0  0  0  0  0
  -20.9937  -28.3199   24.1445 H   0  0  0  0  0  0
  -20.5635  -26.2251   23.3596 H   0  0  0  0  0  0
  -21.6628  -26.7427   22.1222 H   0  0  0  0  0  0
  -19.6895  -25.6288   21.1230 H   0  0  0  0  0  0
  -19.6675  -27.3179   20.6728 H   0  0  0  0  0  0
  -17.4182  -26.6656   21.4016 H   0  0  0  0  0  0
  -18.0317  -26.0057   22.9007 H   0  0  0  0  0  0
  -19.7931  -30.7225   24.2302 H   0  0  0  0  0  0
  -17.5026  -31.6268   24.5146 H   0  0  0  0  0  0
  -15.5349  -30.3003   23.7637 H   0  0  0  0  0  0
  -15.8652  -28.0824   22.7067 H   0  0  0  0  0  0
  -24.5851  -30.7142   25.7788 H   0  0  0  0  0  0
  -24.8946  -32.2932   26.4903 H   0  0  0  0  0  0
  -25.8045  -30.8901   27.0213 H   0  0  0  0  0  0
  -26.2784  -29.6855   24.1106 H   0  0  0  0  0  0
  -27.4020  -29.7251   25.4493 H   0  0  0  0  0  0
  -27.8622  -30.4362   23.9193 H   0  0  0  0  0  0
  -27.2649  -33.3631   26.2053 H   0  0  0  0  0  0
  -28.3844  -32.6902   25.0313 H   0  0  0  0  0  0
  -28.0693  -31.8463   26.5396 H   0  0  0  0  0  0
  -28.2588  -38.0109   24.7548 H   0  0  0  0  0  0
  -28.1097  -36.2651   24.6225 H   0  0  0  0  0  0
  -27.2307  -37.1388   25.8854 H   0  0  0  0  0  0
  -20.9269  -29.8785   21.7000 H   0  0  0  0  0  0
  -26.0178  -38.2868   24.1442 H   0  0  0  0  0  0
  -33.4317  -22.8765   22.9193 H   0  0  0  0  0  0
  -31.8177  -23.0867   23.5753 H   0  0  0  0  0  0
  -32.4470  -24.2132   22.3702 H   0  0  0  0  0  0
  -30.5855  -19.1941   17.8875 H   0  0  0  0  0  0
  -29.8788  -20.7983   17.7531 H   0  0  0  0  0  0
  -28.9643  -19.4828   18.5006 H   0  0  0  0  0  0
  -32.1161  -21.2433   21.8263 H   0  0  0  0  0  0
  -32.3677  -22.4811   20.6194 H   0  0  0  0  0  0
  -30.2945  -24.0018   19.9009 H   0  0  0  0  0  0
  -30.4286  -24.4810   21.5435 H   0  0  0  0  0  0
  -28.9459  -26.0711   22.0380 H   0  0  0  0  0  0
  -27.2590  -25.8575   21.7784 H   0  0  0  0  0  0
  -31.5175  -20.7196   19.5381 H   0  0  0  0  0  0
  -29.8725  -22.1671   22.3331 H   0  0  0  0  0  0
  -27.9137  -24.0104   19.9977 H   0  0  0  0  0  0
  -29.1126  -15.4487   21.2152 H   0  0  0  0  0  0
  -29.0122  -20.7672   21.0252 H   0  0  0  0  0  0
  -29.1849  -21.7465   19.7641 H   0  0  0  0  0  0
  -26.8171  -23.7820   21.9597 H   0  0  0  0  0  0
  1 25  1  0  0  0
  1 30  2  0  0  0
  1 83  1  0  0  0
  2  3  1  0  0  0
  2 25  1  0  0  0
  2 87  1  0  0  0
  2 88  1  0  0  0
  3  4  1  0  0  0
  3 89  1  0  0  0
  3 90  1  0  0  0
  4  5  1  0  0  0
  4 91  1  0  0  0
  4 92  1  0  0  0
  5  6  1  0  0  0
  5 26  1  0  0  0
  5 93  1  0  0  0
  6 25  1  0  0  0
  6 94  1  0  0  0
  6 95  1  0  0  0
  7  8  2  0  0  0
  7 26  1  0  0  0
  7 29  1  0  0  0
  8  9  1  0  0  0
  8 22  1  0  0  0
  9 10  1  0  0  0
  9 27  2  0  0  0
 10 11  2  0  0  0
 10 15  1  0  0  0
 11 12  1  0  0  0
 11 96  1  0  0  0
 12 13  2  0  0  0
 12 97  1  0  0  0
 13 14  1  0  0  0
 13 31  1  0  0  0
 14 15  2  0  0  0
 14 98  1  0  0  0
 15 99  1  0  0  0
 16 17  2  0  0  0
 16 21  1  0  0  0
 16 31  1  0  0  0
 17 18  1  0  0  0
 17100  1  0  0  0
 18 19  2  0  0  0
 18101  1  0  0  0
 19 20  1  0  0  0
 19 24  1  0  0  0
 20 21  2  0  0  0
 20102  1  0  0  0
 21 23  1  0  0  0
 22 28  1  0  0  0
 22 32  2  0  0  0
 26 27  1  0  0  0
 28103  1  0  0  0
 28104  1  0  0  0
 29105  1  0  0  0
 29106  1  0  0  0
 33 34  1  0  0  0
 33 66  1  0  0  0
 33 70  2  0  0  0
 34 36  1  0  0  0
 34 59  1  0  0  0
 34107  1  0  0  0
 35 44  2  0  0  0
 35 45  1  0  0  0
 35 68  1  0  0  0
 36 56  1  0  0  0
 36108  1  0  0  0
 37 39  1  0  0  0
 37 47  1  0  0  0
 37 66  1  0  0  0
 37109  1  0  0  0
 38 43  2  0  0  0
 38 46  1  0  0  0
 38 47  1  0  0  0
 39 64  1  0  0  0
 39 67  2  0  0  0
 40 52  1  0  0  0
 40 53  2  0  0  0
 40 58  1  0  0  0
 41110  1  0  0  0
 41111  1  0  0  0
 41112  1  0  0  0
 41 48  1  0  0  0
 42 43  1  0  0  0
 42 66  1  0  0  0
 42113  1  0  0  0
 42114  1  0  0  0
 43 44  1  0  0  0
 44115  1  0  0  0
 45 46  2  0  0  0
 45116  1  0  0  0
 46117  1  0  0  0
 47118  1  0  0  0
 47119  1  0  0  0
 48 56  1  0  0  0
 48 65  1  0  0  0
 48120  1  0  0  0
 49 50  1  0  0  0
 49 53  1  0  0  0
 49 64  1  0  0  0
 49121  1  0  0  0
 50 51  1  0  0  0
 50122  1  0  0  0
 50123  1  0  0  0
 51 52  1  0  0  0
 51124  1  0  0  0
 51125  1  0  0  0
 52126  1  0  0  0
 52127  1  0  0  0
 53 54  1  0  0  0
 54 55  2  0  0  0
 54128  1  0  0  0
 55 57  1  0  0  0
 55129  1  0  0  0
 56 69  2  0  0  0
 57 58  2  0  0  0
 57130  1  0  0  0
 58131  1  0  0  0
 59 60  1  0  0  0
 59 61  1  0  0  0
 59 62  1  0  0  0
 60132  1  0  0  0
 60133  1  0  0  0
 60134  1  0  0  0
 61135  1  0  0  0
 61136  1  0  0  0
 61137  1  0  0  0
 62138  1  0  0  0
 62139  1  0  0  0
 62140  1  0  0  0
 63 65  1  0  0  0
 63141  1  0  0  0
 63142  1  0  0  0
 63143  1  0  0  0
 64144  1  0  0  0
 65145  1  0  0  0
 68 77  1  0  0  0
 71 78  1  0  0  0
 71 81  2  0  0  0
 71 86  1  0  0  0
 72 81  1  0  0  0
 72 82  2  0  0  0
 72 83  1  0  0  0
 73 75  1  0  0  0
 73146  1  0  0  0
 73147  1  0  0  0
 73148  1  0  0  0
 74149  1  0  0  0
 74150  1  0  0  0
 74151  1  0  0  0
 74 78  1  0  0  0
 75152  1  0  0  0
 75153  1  0  0  0
 75 79  1  0  0  0
 76 79  1  0  0  0
 76 80  1  0  0  0
 76154  1  0  0  0
 76155  1  0  0  0
 77 80  1  0  0  0
 77156  1  0  0  0
 77157  1  0  0  0
 78 84  1  0  0  0
 78158  1  0  0  0
 79 84  1  0  0  0
 79159  1  0  0  0
 80 85  1  0  0  0
 80160  1  0  0  0
 82 86  1  0  0  0
 83161  1  0  0  0
 84162  1  0  0  0
 84163  1  0  0  0
 85164  1  0  0  0
M  CHG  1  84   1
M  ISO  4   1 100  68 101  77 101  83 100
M  END
> <chiral flag>
0

> <version>
0

> <s_m_source_file>
/data/baiqing/PycharmProjects/Reinvent-master-3.2/result/LINK_invent/BTK/process_docking_weight1_custom_product_contain_oxygen_bond_distance_aromatic_linkinvent_7_9_3/rearranged_h_0195.sdf

> <i_m_source_file_index>
74

> <r_mmod_Potential_Energy-OPLS-2005>
-233.231262207031

> <r_mmod_Stretch_Energy-OPLS-2005>
41.3191108703613

> <r_mmod_Bend_Energy-OPLS-2005>
127.144813537598

> <r_mmod_Torsional_Energy-OPLS-2005>
286.227996826172

> <r_mmod_Improper_Torsional_Energy-OPLS-2005>
5.0735068321228

> <r_mmod_Van_der_Waal_Energy-OPLS-2005>
139.477798461914

> <r_mmod_Electrostatic_Energy-OPLS-2005>
-388.893280029297

> <r_mmod_Solvation_Energy-OPLS-2005>
-461.593292236328

> <b_mmod_Minimization_Converged-OPLS-2005>
0

> <r_mmod_RMS_Derivative-OPLS-2005>
4.17321729660034

$$$$
74
                    3D
 Structure written by MMmdl.
152160  0  0  1  0            999 V2000
  -30.6113  -14.6945   20.5020 C   0  0  0  0  0  0
  -30.4458  -12.4221   19.4752 C   0  0  0  0  0  0
  -29.5196  -12.5121   18.2400 C   0  0  0  0  0  0
  -28.0412  -12.3292   18.6496 C   0  0  0  0  0  0
  -27.6571  -13.2144   19.8636 C   0  0  2  0  0  0
  -28.6994  -13.1132   20.9985 C   0  0  0  0  0  0
  -25.2599  -13.8130   20.5737 C   0  0  0  0  0  0
  -24.1829  -13.0420   20.9183 C   0  0  0  0  0  0
  -24.6406  -11.6921   20.8780 C   0  0  0  0  0  0
  -23.9040  -10.4331   21.0387 C   0  0  0  0  0  0
  -24.3614   -9.4276   21.9185 C   0  0  0  0  0  0
  -23.6364   -8.2273   22.0750 C   0  0  0  0  0  0
  -22.4302   -8.0275   21.3566 C   0  0  0  0  0  0
  -21.9912   -9.0224   20.4649 C   0  0  0  0  0  0
  -22.7196  -10.2150   20.3083 C   0  0  0  0  0  0
  -21.6858   -6.0762   22.5292 C   0  0  0  0  0  0
  -21.3998   -6.5642   23.8233 C   0  0  0  0  0  0
  -21.3702   -5.6798   24.9191 C   0  0  0  0  0  0
  -21.6023   -4.3064   24.7215 C   0  0  0  0  0  0
  -21.8843   -3.8163   23.4336 C   0  0  0  0  0  0
  -21.9209   -4.6991   22.3400 C   0  0  0  0  0  0
  -22.7862  -13.5264   21.1828 C   0  0  0  0  0  0
  -22.1675   -4.2188   21.0985 F   0  0  0  0  0  0
  -21.5636   -3.4536   25.7731 F   0  0  0  0  0  0
  -30.0077  -13.4611   20.4349 N   0  0  0  0  0  0
  -26.3029  -12.9348   20.3379 N   0  0  0  0  0  0
  -25.9317  -11.6490   20.5713 N   0  0  0  0  0  0
  -22.0488  -12.8310   22.0416 N   0  0  0  0  0  0
  -25.4282  -15.1872   20.4104 N   0  0  0  0  0  0
  -31.7795  -14.8208   20.1227 O   0  0  0  0  0  0
  -21.6640   -6.8880   21.4250 O   0  0  0  0  0  0
  -22.3588  -14.5602   20.6705 O   0  0  0  0  0  0
  -24.6263  -31.8645   23.2050 C   0  0  0  0  0  0
  -25.9112  -32.4804   23.8387 C   0  0  1  0  0  0
  -27.2013  -27.2931   20.1426 C   0  0  0  0  0  0
  -25.5983  -33.8614   24.2338 N   0  0  0  0  0  0
  -23.4212  -30.4864   21.5517 C   0  0  2  0  0  0
  -24.8645  -28.9495   20.1008 C   0  0  0  0  0  0
  -22.7462  -29.4640   22.4967 C   0  0  0  0  0  0
  -18.0282  -28.1344   22.8490 C   0  0  0  0  0  0
  -24.1484  -36.7280   23.2622 C   0  0  0  0  0  0
  -25.9652  -30.7795   21.3863 C   0  0  0  0  0  0
  -26.0284  -29.4069   20.7247 C   0  0  0  0  0  0
  -27.2004  -28.5926   20.7455 C   0  0  0  0  0  0
  -26.0362  -26.9275   19.4308 C   0  0  0  0  0  0
  -24.8837  -27.7246   19.4161 C   0  0  0  0  0  0
  -23.6277  -29.8248   20.1619 C   0  0  0  0  0  0
  -25.4142  -36.3147   24.0336 C   0  0  1  0  0  0
  -20.5854  -28.3650   23.1274 C   0  0  2  0  0  0
  -20.6777  -26.9380   22.5377 C   0  0  0  0  0  0
  -19.5750  -26.6350   21.5213 C   0  0  0  0  0  0
  -18.1945  -26.7885   22.1629 C   0  0  0  0  0  0
  -19.1529  -28.8835   23.2866 C   0  0  0  0  0  0
  -18.9446  -30.1470   23.8875 C   0  0  0  0  0  0
  -17.6454  -30.6584   24.0530 C   0  0  0  0  0  0
  -25.9051  -34.9500   23.5101 C   0  0  0  0  0  0
  -16.5336  -29.9059   23.6327 C   0  0  0  0  0  0
  -16.7297  -28.6452   23.0395 C   0  0  0  0  0  0
  -26.4479  -31.6613   25.0760 C   0  0  0  0  0  0
  -25.3702  -31.3764   26.1480 C   0  0  0  0  0  0
  -27.0277  -30.3034   24.6214 C   0  0  0  0  0  0
  -27.6079  -32.4338   25.7490 C   0  0  0  0  0  0
  -27.5605  -37.1811   24.8476 C   0  0  0  0  0  0
  -21.4170  -29.3035   22.3710 N   0  0  0  0  0  0
  -26.4334  -37.3843   23.9424 N   0  0  0  0  0  0
  -24.6913  -31.0626   22.1016 N   0  0  0  0  0  0
  -23.4218  -28.8156   23.3018 O   0  0  0  0  0  0
  -28.2808  -26.4022   20.2726 O   0  0  0  0  0  0
  -26.5630  -34.8958   22.4678 O   0  0  0  0  0  0
  -23.5422  -32.1467   23.7393 O   0  0  0  0  0  0
  -28.3794  -20.6182   21.9639 C   0  0  0  0  0  0
  -28.9502  -21.0776   20.8063 C   0  0  0  0  0  0
  -29.6101  -18.7747   20.8295 C   0  0  0  0  0  0
  -27.7506  -23.7571   22.2147 C   0  0  0  0  0  0
  -30.3947  -17.4575   20.4992 C   0  0  0  0  0  0
  -29.8019  -16.0120   20.8925 C   0  0  0  0  0  0
  -28.1010  -24.9439   19.9850 C   0  0  0  0  0  0
  -28.6428  -23.7774   20.9398 C   0  0  2  0  0  0
  -29.6324  -19.9870   20.1619 N   0  0  0  0  0  0
  -28.7609  -22.4148   20.2693 N   0  0  0  0  0  0
  -28.6522  -18.9162   22.2940 S   0  0  0  0  0  0
  -31.4886  -12.5538   19.1758 H   0  0  0  0  0  0
  -30.3929  -11.4300   19.9253 H   0  0  0  0  0  0
  -29.7971  -11.7537   17.5020 H   0  0  0  0  0  0
  -29.6546  -13.4784   17.7482 H   0  0  0  0  0  0
  -27.8913  -11.2745   18.8910 H   0  0  0  0  0  0
  -27.3887  -12.5407   17.8018 H   0  0  0  0  0  0
  -27.6501  -14.2383   19.4936 H   0  0  0  0  0  0
  -28.7206  -12.1032   21.4084 H   0  0  0  0  0  0
  -28.4400  -13.7704   21.8272 H   0  0  0  0  0  0
  -25.2763   -9.5727   22.4774 H   0  0  0  0  0  0
  -24.0091   -7.4597   22.7441 H   0  0  0  0  0  0
  -21.0873   -8.8744   19.8919 H   0  0  0  0  0  0
  -22.3677  -10.9690   19.6217 H   0  0  0  0  0  0
  -21.1995   -7.6145   23.9760 H   0  0  0  0  0  0
  -21.1486   -6.0497   25.9102 H   0  0  0  0  0  0
  -22.0604   -2.7622   23.2802 H   0  0  0  0  0  0
  -22.4064  -12.0064   22.4993 H   0  0  0  0  0  0
  -21.1090  -13.1354   22.2466 H   0  0  0  0  0  0
  -24.6651  -15.8430   20.5237 H   0  0  0  0  0  0
  -26.2835  -15.6323   20.1001 H   0  0  0  0  0  0
  -26.7182  -32.5450   23.1122 H   0  0  0  0  0  0
  -25.0228  -33.9793   25.0548 H   0  0  0  0  0  0
  -22.7159  -31.3086   21.4144 H   0  0  0  0  0  0
  -23.3807  -35.9521   23.3279 H   0  0  0  0  0  0
  -24.3551  -36.8890   22.2024 H   0  0  0  0  0  0
  -23.7112  -37.6431   23.6631 H   0  0  0  0  0  0
  -26.1094  -31.5425   20.6228 H   0  0  0  0  0  0
  -26.8372  -30.8184   22.0211 H   0  0  0  0  0  0
  -28.0768  -28.9345   21.2791 H   0  0  0  0  0  0
  -25.9866  -26.0165   18.8559 H   0  0  0  0  0  0
  -24.0107  -27.3845   18.8842 H   0  0  0  0  0  0
  -23.7294  -30.6038   19.4068 H   0  0  0  0  0  0
  -22.7487  -29.2485   19.8669 H   0  0  0  0  0  0
  -25.1286  -36.2017   25.0821 H   0  0  0  0  0  0
  -20.9987  -28.3225   24.1392 H   0  0  0  0  0  0
  -20.5732  -26.2288   23.3578 H   0  0  0  0  0  0
  -21.6637  -26.7465   22.1146 H   0  0  0  0  0  0
  -19.6907  -25.6272   21.1272 H   0  0  0  0  0  0
  -19.6638  -27.3133   20.6724 H   0  0  0  0  0  0
  -17.4197  -26.6639   21.4059 H   0  0  0  0  0  0
  -18.0325  -26.0038   22.9028 H   0  0  0  0  0  0
  -19.7950  -30.7287   24.2209 H   0  0  0  0  0  0
  -17.5023  -31.6278   24.5105 H   0  0  0  0  0  0
  -15.5357  -30.2972   23.7681 H   0  0  0  0  0  0
  -15.8664  -28.0784   22.7153 H   0  0  0  0  0  0
  -24.5848  -30.7158   25.7779 H   0  0  0  0  0  0
  -24.8934  -32.2943   26.4973 H   0  0  0  0  0  0
  -25.8027  -30.8871   27.0222 H   0  0  0  0  0  0
  -26.2823  -29.6833   24.1231 H   0  0  0  0  0  0
  -27.3911  -29.7260   25.4718 H   0  0  0  0  0  0
  -27.8749  -30.4283   23.9461 H   0  0  0  0  0  0
  -27.2736  -33.3646   26.2097 H   0  0  0  0  0  0
  -28.3868  -32.6897   25.0286 H   0  0  0  0  0  0
  -28.0778  -31.8442   26.5369 H   0  0  0  0  0  0
  -28.2655  -38.0078   24.7606 H   0  0  0  0  0  0
  -28.1081  -36.2654   24.6251 H   0  0  0  0  0  0
  -27.2330  -37.1388   25.8865 H   0  0  0  0  0  0
  -20.9390  -29.8785   21.6890 H   0  0  0  0  0  0
  -26.0225  -38.2908   24.1453 H   0  0  0  0  0  0
  -27.7317  -21.1565   22.6371 H   0  0  0  0  0  0
  -27.5582  -24.7434   22.6438 H   0  0  0  0  0  0
  -28.1953  -23.2070   23.0448 H   0  0  0  0  0  0
  -26.7715  -23.3374   21.9999 H   0  0  0  0  0  0
  -31.3609  -17.5394   21.0029 H   0  0  0  0  0  0
  -30.6284  -17.4578   19.4354 H   0  0  0  0  0  0
  -28.8204  -15.9310   20.4340 H   0  0  0  0  0  0
  -29.6284  -15.9743   21.9657 H   0  0  0  0  0  0
  -27.0487  -24.6899   19.9265 H   0  0  0  0  0  0
  -28.5042  -24.8025   18.9833 H   0  0  0  0  0  0
  -29.6371  -24.0819   21.2761 H   0  0  0  0  0  0
  -28.7006  -22.4305   19.2234 H   0  0  0  0  0  0
  1 25  1  0  0  0
  1 30  2  0  0  0
  1 76  1  0  0  0
  2  3  1  0  0  0
  2 25  1  0  0  0
  2 82  1  0  0  0
  2 83  1  0  0  0
  3  4  1  0  0  0
  3 84  1  0  0  0
  3 85  1  0  0  0
  4  5  1  0  0  0
  4 86  1  0  0  0
  4 87  1  0  0  0
  5  6  1  0  0  0
  5 26  1  0  0  0
  5 88  1  0  0  0
  6 25  1  0  0  0
  6 89  1  0  0  0
  6 90  1  0  0  0
  7  8  2  0  0  0
  7 26  1  0  0  0
  7 29  1  0  0  0
  8  9  1  0  0  0
  8 22  1  0  0  0
  9 10  1  0  0  0
  9 27  2  0  0  0
 10 11  2  0  0  0
 10 15  1  0  0  0
 11 12  1  0  0  0
 11 91  1  0  0  0
 12 13  2  0  0  0
 12 92  1  0  0  0
 13 14  1  0  0  0
 13 31  1  0  0  0
 14 15  2  0  0  0
 14 93  1  0  0  0
 15 94  1  0  0  0
 16 17  2  0  0  0
 16 21  1  0  0  0
 16 31  1  0  0  0
 17 18  1  0  0  0
 17 95  1  0  0  0
 18 19  2  0  0  0
 18 96  1  0  0  0
 19 20  1  0  0  0
 19 24  1  0  0  0
 20 21  2  0  0  0
 20 97  1  0  0  0
 21 23  1  0  0  0
 22 28  1  0  0  0
 22 32  2  0  0  0
 26 27  1  0  0  0
 28 98  1  0  0  0
 28 99  1  0  0  0
 29100  1  0  0  0
 29101  1  0  0  0
 33 34  1  0  0  0
 33 66  1  0  0  0
 33 70  2  0  0  0
 34 36  1  0  0  0
 34 59  1  0  0  0
 34102  1  0  0  0
 35 44  2  0  0  0
 35 45  1  0  0  0
 35 68  1  0  0  0
 36 56  1  0  0  0
 36103  1  0  0  0
 37 39  1  0  0  0
 37 47  1  0  0  0
 37 66  1  0  0  0
 37104  1  0  0  0
 38 43  2  0  0  0
 38 46  1  0  0  0
 38 47  1  0  0  0
 39 64  1  0  0  0
 39 67  2  0  0  0
 40 52  1  0  0  0
 40 53  2  0  0  0
 40 58  1  0  0  0
 41105  1  0  0  0
 41106  1  0  0  0
 41107  1  0  0  0
 41 48  1  0  0  0
 42 43  1  0  0  0
 42 66  1  0  0  0
 42108  1  0  0  0
 42109  1  0  0  0
 43 44  1  0  0  0
 44110  1  0  0  0
 45 46  2  0  0  0
 45111  1  0  0  0
 46112  1  0  0  0
 47113  1  0  0  0
 47114  1  0  0  0
 48 56  1  0  0  0
 48 65  1  0  0  0
 48115  1  0  0  0
 49 50  1  0  0  0
 49 53  1  0  0  0
 49 64  1  0  0  0
 49116  1  0  0  0
 50 51  1  0  0  0
 50117  1  0  0  0
 50118  1  0  0  0
 51 52  1  0  0  0
 51119  1  0  0  0
 51120  1  0  0  0
 52121  1  0  0  0
 52122  1  0  0  0
 53 54  1  0  0  0
 54 55  2  0  0  0
 54123  1  0  0  0
 55 57  1  0  0  0
 55124  1  0  0  0
 56 69  2  0  0  0
 57 58  2  0  0  0
 57125  1  0  0  0
 58126  1  0  0  0
 59 60  1  0  0  0
 59 61  1  0  0  0
 59 62  1  0  0  0
 60127  1  0  0  0
 60128  1  0  0  0
 60129  1  0  0  0
 61130  1  0  0  0
 61131  1  0  0  0
 61132  1  0  0  0
 62133  1  0  0  0
 62134  1  0  0  0
 62135  1  0  0  0
 63 65  1  0  0  0
 63136  1  0  0  0
 63137  1  0  0  0
 63138  1  0  0  0
 64139  1  0  0  0
 65140  1  0  0  0
 68 77  1  0  0  0
 71 72  2  0  0  0
 71 81  1  0  0  0
 71141  1  0  0  0
 72 79  1  0  0  0
 72 80  1  0  0  0
 73 75  1  0  0  0
 73 79  2  0  0  0
 73 81  1  0  0  0
 74142  1  0  0  0
 74143  1  0  0  0
 74144  1  0  0  0
 74 78  1  0  0  0
 75 76  1  0  0  0
 75145  1  0  0  0
 75146  1  0  0  0
 76147  1  0  0  0
 76148  1  0  0  0
 77 78  1  0  0  0
 77149  1  0  0  0
 77150  1  0  0  0
 78 80  1  0  0  0
 78151  1  0  0  0
 80152  1  0  0  0
M  ISO  4   1 100  68 101  76 100  77 101
M  END
> <chiral flag>
0

> <version>
0

> <s_m_source_file>
/data/baiqing/PycharmProjects/Reinvent-master-3.2/result/LINK_invent/BTK/process_docking_weight1_custom_product_contain_oxygen_bond_distance_aromatic_linkinvent_7_9_3/rearranged_h_0195.sdf

> <i_m_source_file_index>
75

> <r_mmod_Potential_Energy-OPLS-2005>
-20.7112922668457

> <r_mmod_Stretch_Energy-OPLS-2005>
104.157470703125

> <r_mmod_Bend_Energy-OPLS-2005>
164.90397644043

> <r_mmod_Torsional_Energy-OPLS-2005>
181.117309570312

> <r_mmod_Improper_Torsional_Energy-OPLS-2005>
4.35197782516479

> <r_mmod_Van_der_Waal_Energy-OPLS-2005>
124.558731079102

> <r_mmod_Electrostatic_Energy-OPLS-2005>
-454.148101806641

> <r_mmod_Solvation_Energy-OPLS-2005>
-217.134384155273

> <b_mmod_Minimization_Converged-OPLS-2005>
0

> <r_mmod_RMS_Derivative-OPLS-2005>
16.0688095092773

$$$$
75
                    3D
 Structure written by MMmdl.
157165  0  0  1  0            999 V2000
  -30.6437  -14.7735   20.5652 C   0  0  0  0  0  0
  -30.4224  -12.4914   19.5165 C   0  0  0  0  0  0
  -29.5155  -12.5279   18.2677 C   0  0  0  0  0  0
  -28.0430  -12.3359   18.6712 C   0  0  0  0  0  0
  -27.6384  -13.2390   19.8652 C   0  0  2  0  0  0
  -28.6716  -13.1888   21.0147 C   0  0  0  0  0  0
  -25.2312  -13.8109   20.5481 C   0  0  0  0  0  0
  -24.1696  -13.0332   20.9158 C   0  0  0  0  0  0
  -24.6380  -11.6867   20.8784 C   0  0  0  0  0  0
  -23.9069  -10.4237   21.0440 C   0  0  0  0  0  0
  -24.3607   -9.4149   21.9214 C   0  0  0  0  0  0
  -23.6274   -8.2191   22.0781 C   0  0  0  0  0  0
  -22.4267   -8.0245   21.3563 C   0  0  0  0  0  0
  -21.9903   -9.0211   20.4667 C   0  0  0  0  0  0
  -22.7247  -10.2088   20.3082 C   0  0  0  0  0  0
  -21.6850   -6.0713   22.5253 C   0  0  0  0  0  0
  -21.4032   -6.5635   23.8191 C   0  0  0  0  0  0
  -21.3659   -5.6794   24.9154 C   0  0  0  0  0  0
  -21.6047   -4.3055   24.7218 C   0  0  0  0  0  0
  -21.8825   -3.8137   23.4342 C   0  0  0  0  0  0
  -21.9194   -4.6938   22.3394 C   0  0  0  0  0  0
  -22.7724  -13.5111   21.1791 C   0  0  0  0  0  0
  -22.1656   -4.2129   21.0966 F   0  0  0  0  0  0
  -21.5629   -3.4553   25.7735 F   0  0  0  0  0  0
  -29.9804  -13.5582   20.4575 N   0  0  0  0  0  0
  -26.2865  -12.9401   20.3306 N   0  0  0  0  0  0
  -25.9343  -11.6538   20.5898 N   0  0  0  0  0  0
  -22.0416  -12.8143   22.0428 N   0  0  0  0  0  0
  -25.3639  -15.1766   20.3457 N   0  0  0  0  0  0
  -31.7509  -14.8508   20.0169 O   0  0  0  0  0  0
  -21.6646   -6.8844   21.4225 O   0  0  0  0  0  0
  -22.3409  -14.5415   20.6642 O   0  0  0  0  0  0
  -24.6225  -31.8612   23.2021 C   0  0  0  0  0  0
  -25.9063  -32.4803   23.8334 C   0  0  1  0  0  0
  -27.2168  -27.2858   20.1539 C   0  0  0  0  0  0
  -25.5878  -33.8590   24.2256 N   0  0  0  0  0  0
  -23.4133  -30.4774   21.5564 C   0  0  2  0  0  0
  -24.8588  -28.9251   20.1187 C   0  0  0  0  0  0
  -22.7493  -29.4564   22.5077 C   0  0  0  0  0  0
  -18.0303  -28.1291   22.8530 C   0  0  0  0  0  0
  -24.1489  -36.7249   23.2624 C   0  0  0  0  0  0
  -25.9533  -30.7792   21.3704 C   0  0  0  0  0  0
  -26.0306  -29.4032   20.7180 C   0  0  0  0  0  0
  -27.2154  -28.6006   20.7223 C   0  0  0  0  0  0
  -26.0283  -26.8658   19.5178 C   0  0  0  0  0  0
  -24.8635  -27.6616   19.5014 C   0  0  0  0  0  0
  -23.6233  -29.8090   20.1721 C   0  0  0  0  0  0
  -25.4125  -36.3082   24.0322 C   0  0  1  0  0  0
  -20.5902  -28.3568   23.1353 C   0  0  2  0  0  0
  -20.6800  -26.9294   22.5446 C   0  0  0  0  0  0
  -19.5771  -26.6313   21.5233 C   0  0  0  0  0  0
  -18.1937  -26.7860   22.1627 C   0  0  0  0  0  0
  -19.1555  -28.8765   23.2922 C   0  0  0  0  0  0
  -18.9470  -30.1387   23.8884 C   0  0  0  0  0  0
  -17.6470  -30.6524   24.0528 C   0  0  0  0  0  0
  -25.9055  -34.9479   23.5106 C   0  0  0  0  0  0
  -16.5361  -29.8998   23.6312 C   0  0  0  0  0  0
  -16.7299  -28.6399   23.0380 C   0  0  0  0  0  0
  -26.4437  -31.6594   25.0696 C   0  0  0  0  0  0
  -25.3654  -31.3700   26.1423 C   0  0  0  0  0  0
  -27.0193  -30.3030   24.6043 C   0  0  0  0  0  0
  -27.6021  -32.4329   25.7436 C   0  0  0  0  0  0
  -27.5602  -37.1757   24.8466 C   0  0  0  0  0  0
  -21.4215  -29.2908   22.3784 N   0  0  0  0  0  0
  -26.4286  -37.3802   23.9452 N   0  0  0  0  0  0
  -24.6824  -31.0581   22.0992 N   0  0  0  0  0  0
  -23.4241  -28.8119   23.3165 O   0  0  0  0  0  0
  -28.3154  -26.4016   20.1951 O   0  0  0  0  0  0
  -26.5663  -34.8912   22.4687 O   0  0  0  0  0  0
  -23.5406  -32.1438   23.7363 O   0  0  0  0  0  0
  -27.9682  -17.1788   20.7033 C   0  0  0  0  0  0
  -27.1550  -18.3146   20.5734 C   0  0  0  0  0  0
  -29.3433  -17.3397   20.8713 C   0  0  0  0  0  0
  -28.9560  -19.7150   20.7348 C   0  0  0  0  0  0
  -31.3922  -16.6408   22.2005 C   0  0  0  0  0  0
  -28.8194  -22.4692   22.6741 C   0  0  0  0  0  0
  -28.9493  -23.7364   20.4197 C   0  0  0  0  0  0
  -28.1124  -25.0624   20.8382 C   0  0  0  0  0  0
  -30.1857  -16.0832   21.4233 C   0  0  2  0  0  0
  -28.6439  -22.3191   21.1505 C   0  0  1  0  0  0
  -27.6495  -19.5672   20.5986 N   0  0  0  0  0  0
  -29.8180  -18.6598   20.8621 N   0  0  0  0  0  0
  -29.4041  -21.0754   20.7085 N   0  0  0  0  0  0
  -31.4670  -12.5978   19.2218 H   0  0  0  0  0  0
  -30.3601  -11.5192   20.0086 H   0  0  0  0  0  0
  -29.8184  -11.7505   17.5649 H   0  0  0  0  0  0
  -29.6401  -13.4803   17.7501 H   0  0  0  0  0  0
  -27.9164  -11.2890   18.9478 H   0  0  0  0  0  0
  -27.3843  -12.5071   17.8196 H   0  0  0  0  0  0
  -27.6313  -14.2590   19.4813 H   0  0  0  0  0  0
  -28.7111  -12.1905   21.4536 H   0  0  0  0  0  0
  -28.3626  -13.8555   21.8181 H   0  0  0  0  0  0
  -25.2749   -9.5630   22.4821 H   0  0  0  0  0  0
  -23.9982   -7.4589   22.7505 H   0  0  0  0  0  0
  -21.0846   -8.8733   19.8961 H   0  0  0  0  0  0
  -22.3704  -10.9632   19.6210 H   0  0  0  0  0  0
  -21.2054   -7.6155   23.9691 H   0  0  0  0  0  0
  -21.1467   -6.0529   25.9057 H   0  0  0  0  0  0
  -22.0610   -2.7602   23.2842 H   0  0  0  0  0  0
  -22.4067  -11.9840   22.4844 H   0  0  0  0  0  0
  -21.1094  -13.1254   22.2748 H   0  0  0  0  0  0
  -24.5374  -15.7656   20.3289 H   0  0  0  0  0  0
  -26.1336  -15.5680   19.8181 H   0  0  0  0  0  0
  -26.7118  -32.5496   23.1054 H   0  0  0  0  0  0
  -25.0072  -33.9780   25.0443 H   0  0  0  0  0  0
  -22.6977  -31.2947   21.4253 H   0  0  0  0  0  0
  -23.3807  -35.9512   23.3262 H   0  0  0  0  0  0
  -24.3597  -36.8922   22.2040 H   0  0  0  0  0  0
  -23.7147  -37.6405   23.6689 H   0  0  0  0  0  0
  -26.0803  -31.5340   20.5936 H   0  0  0  0  0  0
  -26.8312  -30.8320   22.0025 H   0  0  0  0  0  0
  -28.1138  -28.9701   21.1971 H   0  0  0  0  0  0
  -25.9871  -25.8963   19.0402 H   0  0  0  0  0  0
  -23.9663  -27.2879   19.0272 H   0  0  0  0  0  0
  -23.7330  -30.5873   19.4166 H   0  0  0  0  0  0
  -22.7351  -29.2500   19.8773 H   0  0  0  0  0  0
  -25.1291  -36.1923   25.0808 H   0  0  0  0  0  0
  -20.9977  -28.3067   24.1498 H   0  0  0  0  0  0
  -20.5729  -26.2117   23.3609 H   0  0  0  0  0  0
  -21.6657  -26.7361   22.1184 H   0  0  0  0  0  0
  -19.6908  -25.6239   21.1212 H   0  0  0  0  0  0
  -19.6694  -27.3171   20.6792 H   0  0  0  0  0  0
  -17.4237  -26.6669   21.3988 H   0  0  0  0  0  0
  -18.0282  -25.9948   22.8951 H   0  0  0  0  0  0
  -19.7932  -30.7224   24.2225 H   0  0  0  0  0  0
  -17.5007  -31.6234   24.5074 H   0  0  0  0  0  0
  -15.5348  -30.2880   23.7659 H   0  0  0  0  0  0
  -15.8700  -28.0701   22.7116 H   0  0  0  0  0  0
  -24.5946  -30.6871   25.7826 H   0  0  0  0  0  0
  -24.8618  -32.2794   26.4724 H   0  0  0  0  0  0
  -25.7962  -30.9066   27.0290 H   0  0  0  0  0  0
  -26.2648  -29.6899   24.1084 H   0  0  0  0  0  0
  -27.3972  -29.7177   25.4435 H   0  0  0  0  0  0
  -27.8528  -30.4399   23.9134 H   0  0  0  0  0  0
  -27.2715  -33.3780   26.1767 H   0  0  0  0  0  0
  -28.3904  -32.6649   25.0250 H   0  0  0  0  0  0
  -28.0543  -31.8564   26.5527 H   0  0  0  0  0  0
  -28.2566  -38.0127   24.7703 H   0  0  0  0  0  0
  -28.1170  -36.2672   24.6088 H   0  0  0  0  0  0
  -27.2356  -37.1161   25.8878 H   0  0  0  0  0  0
  -20.9431  -29.8608   21.6948 H   0  0  0  0  0  0
  -26.0168  -38.2848   24.1597 H   0  0  0  0  0  0
  -27.5335  -16.2013   20.7912 H   0  0  0  0  0  0
  -26.0805  -18.2294   20.4984 H   0  0  0  0  0  0
  -31.0590  -17.2940   23.0062 H   0  0  0  0  0  0
  -32.0229  -17.2335   21.5367 H   0  0  0  0  0  0
  -32.0086  -15.8536   22.6327 H   0  0  0  0  0  0
  -28.1147  -23.1950   23.0881 H   0  0  0  0  0  0
  -29.8324  -22.7830   22.9402 H   0  0  0  0  0  0
  -28.6300  -21.5292   23.1926 H   0  0  0  0  0  0
  -30.0074  -23.9643   20.5436 H   0  0  0  0  0  0
  -28.8061  -23.5902   19.3509 H   0  0  0  0  0  0
  -28.3225  -25.2455   21.8931 H   0  0  0  0  0  0
  -27.0552  -24.8019   20.8271 H   0  0  0  0  0  0
  -29.5474  -15.6658   22.2013 H   0  0  0  0  0  0
  -27.5831  -22.1207   20.9791 H   0  0  0  0  0  0
  -30.4121  -21.1671   20.7300 H   0  0  0  0  0  0
  1 25  1  0  0  0
  1 30  2  0  0  0
  1 79  1  0  0  0
  2  3  1  0  0  0
  2 25  1  0  0  0
  2 84  1  0  0  0
  2 85  1  0  0  0
  3  4  1  0  0  0
  3 86  1  0  0  0
  3 87  1  0  0  0
  4  5  1  0  0  0
  4 88  1  0  0  0
  4 89  1  0  0  0
  5  6  1  0  0  0
  5 26  1  0  0  0
  5 90  1  0  0  0
  6 25  1  0  0  0
  6 91  1  0  0  0
  6 92  1  0  0  0
  7  8  2  0  0  0
  7 26  1  0  0  0
  7 29  1  0  0  0
  8  9  1  0  0  0
  8 22  1  0  0  0
  9 10  1  0  0  0
  9 27  2  0  0  0
 10 11  2  0  0  0
 10 15  1  0  0  0
 11 12  1  0  0  0
 11 93  1  0  0  0
 12 13  2  0  0  0
 12 94  1  0  0  0
 13 14  1  0  0  0
 13 31  1  0  0  0
 14 15  2  0  0  0
 14 95  1  0  0  0
 15 96  1  0  0  0
 16 17  2  0  0  0
 16 21  1  0  0  0
 16 31  1  0  0  0
 17 18  1  0  0  0
 17 97  1  0  0  0
 18 19  2  0  0  0
 18 98  1  0  0  0
 19 20  1  0  0  0
 19 24  1  0  0  0
 20 21  2  0  0  0
 20 99  1  0  0  0
 21 23  1  0  0  0
 22 28  1  0  0  0
 22 32  2  0  0  0
 26 27  1  0  0  0
 28100  1  0  0  0
 28101  1  0  0  0
 29102  1  0  0  0
 29103  1  0  0  0
 33 34  1  0  0  0
 33 66  1  0  0  0
 33 70  2  0  0  0
 34 36  1  0  0  0
 34 59  1  0  0  0
 34104  1  0  0  0
 35 44  2  0  0  0
 35 45  1  0  0  0
 35 68  1  0  0  0
 36 56  1  0  0  0
 36105  1  0  0  0
 37 39  1  0  0  0
 37 47  1  0  0  0
 37 66  1  0  0  0
 37106  1  0  0  0
 38 43  2  0  0  0
 38 46  1  0  0  0
 38 47  1  0  0  0
 39 64  1  0  0  0
 39 67  2  0  0  0
 40 52  1  0  0  0
 40 53  2  0  0  0
 40 58  1  0  0  0
 41107  1  0  0  0
 41108  1  0  0  0
 41109  1  0  0  0
 41 48  1  0  0  0
 42 43  1  0  0  0
 42 66  1  0  0  0
 42110  1  0  0  0
 42111  1  0  0  0
 43 44  1  0  0  0
 44112  1  0  0  0
 45 46  2  0  0  0
 45113  1  0  0  0
 46114  1  0  0  0
 47115  1  0  0  0
 47116  1  0  0  0
 48 56  1  0  0  0
 48 65  1  0  0  0
 48117  1  0  0  0
 49 50  1  0  0  0
 49 53  1  0  0  0
 49 64  1  0  0  0
 49118  1  0  0  0
 50 51  1  0  0  0
 50119  1  0  0  0
 50120  1  0  0  0
 51 52  1  0  0  0
 51121  1  0  0  0
 51122  1  0  0  0
 52123  1  0  0  0
 52124  1  0  0  0
 53 54  1  0  0  0
 54 55  2  0  0  0
 54125  1  0  0  0
 55 57  1  0  0  0
 55126  1  0  0  0
 56 69  2  0  0  0
 57 58  2  0  0  0
 57127  1  0  0  0
 58128  1  0  0  0
 59 60  1  0  0  0
 59 61  1  0  0  0
 59 62  1  0  0  0
 60129  1  0  0  0
 60130  1  0  0  0
 60131  1  0  0  0
 61132  1  0  0  0
 61133  1  0  0  0
 61134  1  0  0  0
 62135  1  0  0  0
 62136  1  0  0  0
 62137  1  0  0  0
 63 65  1  0  0  0
 63138  1  0  0  0
 63139  1  0  0  0
 63140  1  0  0  0
 64141  1  0  0  0
 65142  1  0  0  0
 68 78  1  0  0  0
 71 72  2  0  0  0
 71 73  1  0  0  0
 71143  1  0  0  0
 72 81  1  0  0  0
 72144  1  0  0  0
 73 79  1  0  0  0
 73 82  2  0  0  0
 74 81  2  0  0  0
 74 82  1  0  0  0
 74 83  1  0  0  0
 75145  1  0  0  0
 75146  1  0  0  0
 75147  1  0  0  0
 75 79  1  0  0  0
 76148  1  0  0  0
 76149  1  0  0  0
 76150  1  0  0  0
 76 80  1  0  0  0
 77 78  1  0  0  0
 77 80  1  0  0  0
 77151  1  0  0  0
 77152  1  0  0  0
 78153  1  0  0  0
 78154  1  0  0  0
 79155  1  0  0  0
 80 83  1  0  0  0
 80156  1  0  0  0
 83157  1  0  0  0
M  ISO  4   1 100  68 101  78 101  79 100
M  END
> <chiral flag>
0

> <version>
0

> <s_m_source_file>
/data/baiqing/PycharmProjects/Reinvent-master-3.2/result/LINK_invent/BTK/process_docking_weight1_custom_product_contain_oxygen_bond_distance_aromatic_linkinvent_7_9_3/rearranged_h_0195.sdf

> <i_m_source_file_index>
76

> <r_mmod_Potential_Energy-OPLS-2005>
-206.305297851562

> <r_mmod_Stretch_Energy-OPLS-2005>
131.208511352539

> <r_mmod_Bend_Energy-OPLS-2005>
197.787216186523

> <r_mmod_Torsional_Energy-OPLS-2005>
201.584518432617

> <r_mmod_Improper_Torsional_Energy-OPLS-2005>
8.36919689178467

> <r_mmod_Van_der_Waal_Energy-OPLS-2005>
148.826110839844

> <r_mmod_Electrostatic_Energy-OPLS-2005>
-753.5927734375

> <r_mmod_Solvation_Energy-OPLS-2005>
-225.800231933594

> <b_mmod_Minimization_Converged-OPLS-2005>
0

> <r_mmod_RMS_Derivative-OPLS-2005>
5.83144617080688

$$$$
76
                    3D
 Structure written by MMmdl.
152160  0  0  1  0            999 V2000
  -30.5939  -14.7475   20.4358 C   0  0  0  0  0  0
  -30.4406  -12.4546   19.4675 C   0  0  0  0  0  0
  -29.5122  -12.5015   18.2319 C   0  0  0  0  0  0
  -28.0379  -12.3271   18.6507 C   0  0  0  0  0  0
  -27.6447  -13.2244   19.8525 C   0  0  2  0  0  0
  -28.6911  -13.1433   20.9873 C   0  0  0  0  0  0
  -25.2541  -13.8166   20.5742 C   0  0  0  0  0  0
  -24.1845  -13.0415   20.9238 C   0  0  0  0  0  0
  -24.6429  -11.6876   20.8773 C   0  0  0  0  0  0
  -23.9084  -10.4261   21.0420 C   0  0  0  0  0  0
  -24.3628   -9.4191   21.9200 C   0  0  0  0  0  0
  -23.6309   -8.2231   22.0736 C   0  0  0  0  0  0
  -22.4299   -8.0258   21.3516 C   0  0  0  0  0  0
  -21.9939   -9.0245   20.4642 C   0  0  0  0  0  0
  -22.7266  -10.2122   20.3069 C   0  0  0  0  0  0
  -21.6853   -6.0738   22.5286 C   0  0  0  0  0  0
  -21.4003   -6.5639   23.8221 C   0  0  0  0  0  0
  -21.3671   -5.6803   24.9179 C   0  0  0  0  0  0
  -21.6054   -4.3065   24.7241 C   0  0  0  0  0  0
  -21.8827   -3.8151   23.4361 C   0  0  0  0  0  0
  -21.9182   -4.6963   22.3410 C   0  0  0  0  0  0
  -22.7856  -13.5164   21.1867 C   0  0  0  0  0  0
  -22.1661   -4.2146   21.0994 F   0  0  0  0  0  0
  -21.5643   -3.4545   25.7754 F   0  0  0  0  0  0
  -29.9849  -13.5109   20.3991 N   0  0  0  0  0  0
  -26.2956  -12.9366   20.3292 N   0  0  0  0  0  0
  -25.9363  -11.6511   20.5804 N   0  0  0  0  0  0
  -22.0523  -12.8136   22.0408 N   0  0  0  0  0  0
  -25.4265  -15.1908   20.4211 N   0  0  0  0  0  0
  -31.7828  -14.8573   20.1290 O   0  0  0  0  0  0
  -21.6632   -6.8870   21.4245 O   0  0  0  0  0  0
  -22.3509  -14.5474   20.6725 O   0  0  0  0  0  0
  -24.6317  -31.8584   23.2040 C   0  0  0  0  0  0
  -25.9132  -32.4766   23.8375 C   0  0  1  0  0  0
  -27.1947  -27.2550   20.0779 C   0  0  0  0  0  0
  -25.5935  -33.8576   24.2287 N   0  0  0  0  0  0
  -23.4251  -30.4875   21.5498 C   0  0  2  0  0  0
  -24.8624  -28.9411   20.1096 C   0  0  0  0  0  0
  -22.7469  -29.4659   22.4957 C   0  0  0  0  0  0
  -18.0296  -28.1389   22.8449 C   0  0  0  0  0  0
  -24.1482  -36.7290   23.2636 C   0  0  0  0  0  0
  -25.9768  -30.7573   21.3910 C   0  0  0  0  0  0
  -26.0397  -29.3824   20.7274 C   0  0  0  0  0  0
  -27.2065  -28.5462   20.7140 C   0  0  0  0  0  0
  -25.9955  -26.9085   19.4111 C   0  0  0  0  0  0
  -24.8420  -27.7069   19.4536 C   0  0  0  0  0  0
  -23.6405  -29.8320   20.1645 C   0  0  0  0  0  0
  -25.4105  -36.3086   24.0331 C   0  0  1  0  0  0
  -20.5897  -28.3745   23.1319 C   0  0  2  0  0  0
  -20.6772  -26.9455   22.5476 C   0  0  0  0  0  0
  -19.5809  -26.6440   21.5204 C   0  0  0  0  0  0
  -18.1933  -26.7986   22.1509 C   0  0  0  0  0  0
  -19.1538  -28.8862   23.2904 C   0  0  0  0  0  0
  -18.9463  -30.1454   23.8939 C   0  0  0  0  0  0
  -17.6469  -30.6582   24.0572 C   0  0  0  0  0  0
  -25.9060  -34.9444   23.5105 C   0  0  0  0  0  0
  -16.5355  -29.9093   23.6314 C   0  0  0  0  0  0
  -16.7280  -28.6499   23.0349 C   0  0  0  0  0  0
  -26.4494  -31.6583   25.0758 C   0  0  0  0  0  0
  -25.3710  -31.3732   26.1469 C   0  0  0  0  0  0
  -27.0351  -30.3010   24.6248 C   0  0  0  0  0  0
  -27.6047  -32.4306   25.7527 C   0  0  0  0  0  0
  -27.5581  -37.1805   24.8471 C   0  0  0  0  0  0
  -21.4184  -29.3109   22.3695 N   0  0  0  0  0  0
  -26.4304  -37.3767   23.9406 N   0  0  0  0  0  0
  -24.6983  -31.0534   22.1042 N   0  0  0  0  0  0
  -23.4160  -28.8196   23.3044 O   0  0  0  0  0  0
  -28.2621  -26.3206   20.1095 O   0  0  0  0  0  0
  -26.5638  -34.8910   22.4681 O   0  0  0  0  0  0
  -23.5454  -32.1439   23.7312 O   0  0  0  0  0  0
  -28.1178  -18.3207   17.6152 C   0  0  0  0  0  0
  -28.2375  -19.5859   18.1230 C   0  0  0  0  0  0
  -29.2741  -18.1639   19.4710 C   0  0  0  0  0  0
  -28.8337  -23.6696   20.1421 C   0  0  0  0  0  0
  -30.0921  -17.3609   20.5481 C   0  0  0  0  0  0
  -28.6417  -22.2282   19.4647 C   0  0  0  0  0  0
  -27.9816  -24.9201   19.6114 C   0  0  0  0  0  0
  -29.1946  -20.8282   20.1077 C   0  0  0  0  0  0
  -28.7818  -17.4434   18.4579 N   0  0  0  0  0  0
  -28.9617  -19.5379   19.3204 N   0  0  0  0  0  0
  -29.7954  -15.8578   20.6263 N   0  0  0  0  0  0
  -29.6154  -23.8108   21.0879 O   0  0  0  0  0  0
  -31.4786  -12.5991   19.1604 H   0  0  0  0  0  0
  -30.3993  -11.4767   19.9509 H   0  0  0  0  0  0
  -29.7977  -11.7305   17.5169 H   0  0  0  0  0  0
  -29.6259  -13.4602   17.7223 H   0  0  0  0  0  0
  -27.9028  -11.2785   18.9227 H   0  0  0  0  0  0
  -27.3725  -12.5219   17.8040 H   0  0  0  0  0  0
  -27.6426  -14.2466   19.4761 H   0  0  0  0  0  0
  -28.7395  -12.1394   21.4185 H   0  0  0  0  0  0
  -28.4349  -13.8199   21.8041 H   0  0  0  0  0  0
  -25.2765   -9.5663   22.4791 H   0  0  0  0  0  0
  -24.0024   -7.4604   22.7456 H   0  0  0  0  0  0
  -21.0856   -8.8765   19.8939 H   0  0  0  0  0  0
  -22.3728  -10.9668   19.6179 H   0  0  0  0  0  0
  -21.2000   -7.6155   23.9709 H   0  0  0  0  0  0
  -21.1486   -6.0540   25.9072 H   0  0  0  0  0  0
  -22.0595   -2.7607   23.2877 H   0  0  0  0  0  0
  -22.4124  -11.9773   22.4792 H   0  0  0  0  0  0
  -21.1147  -13.1135   22.2636 H   0  0  0  0  0  0
  -24.6520  -15.8366   20.5348 H   0  0  0  0  0  0
  -26.2603  -15.6345   20.0536 H   0  0  0  0  0  0
  -26.7189  -32.5405   23.1103 H   0  0  0  0  0  0
  -25.0047  -33.9722   25.0411 H   0  0  0  0  0  0
  -22.7218  -31.3098   21.4101 H   0  0  0  0  0  0
  -23.3756  -35.9614   23.3299 H   0  0  0  0  0  0
  -24.3580  -36.8920   22.2061 H   0  0  0  0  0  0
  -23.7253  -37.6493   23.6664 H   0  0  0  0  0  0
  -26.1228  -31.5166   20.6207 H   0  0  0  0  0  0
  -26.8519  -30.8014   22.0277 H   0  0  0  0  0  0
  -28.0963  -28.8713   21.2338 H   0  0  0  0  0  0
  -25.8941  -25.9991   18.8400 H   0  0  0  0  0  0
  -23.9424  -27.3665   18.9575 H   0  0  0  0  0  0
  -23.7751  -30.6159   19.4170 H   0  0  0  0  0  0
  -22.7552  -29.2761   19.8508 H   0  0  0  0  0  0
  -25.1291  -36.1936   25.0833 H   0  0  0  0  0  0
  -20.9975  -28.3350   24.1452 H   0  0  0  0  0  0
  -20.5559  -26.2377   23.3684 H   0  0  0  0  0  0
  -21.6690  -26.7413   22.1369 H   0  0  0  0  0  0
  -19.7010  -25.6373   21.1144 H   0  0  0  0  0  0
  -19.6803  -27.3350   20.6802 H   0  0  0  0  0  0
  -17.4297  -26.6861   21.3822 H   0  0  0  0  0  0
  -18.0220  -26.0050   22.8773 H   0  0  0  0  0  0
  -19.7950  -30.7230   24.2352 H   0  0  0  0  0  0
  -17.5027  -31.6290   24.5175 H   0  0  0  0  0  0
  -15.5361  -30.3005   23.7623 H   0  0  0  0  0  0
  -15.8687  -28.0834   22.7054 H   0  0  0  0  0  0
  -24.5886  -30.7078   25.7810 H   0  0  0  0  0  0
  -24.8877  -32.2902   26.4863 H   0  0  0  0  0  0
  -25.8006  -30.8944   27.0281 H   0  0  0  0  0  0
  -26.2968  -29.6755   24.1221 H   0  0  0  0  0  0
  -27.4020  -29.7247   25.4753 H   0  0  0  0  0  0
  -27.8835  -30.4311   23.9515 H   0  0  0  0  0  0
  -27.2684  -33.3617   26.2088 H   0  0  0  0  0  0
  -28.3871  -32.6845   25.0365 H   0  0  0  0  0  0
  -28.0701  -31.8441   26.5466 H   0  0  0  0  0  0
  -28.2592  -38.0093   24.7502 H   0  0  0  0  0  0
  -28.1074  -36.2642   24.6305 H   0  0  0  0  0  0
  -27.2297  -37.1459   25.8865 H   0  0  0  0  0  0
  -20.9359  -29.8832   21.6907 H   0  0  0  0  0  0
  -26.0180  -38.2845   24.1385 H   0  0  0  0  0  0
  -27.6215  -17.9874   16.7113 H   0  0  0  0  0  0
  -27.8504  -20.5031   17.7031 H   0  0  0  0  0  0
  -29.8951  -17.7783   21.5311 H   0  0  0  0  0  0
  -31.1500  -17.5168   20.3511 H   0  0  0  0  0  0
  -29.0633  -22.3311   18.4619 H   0  0  0  0  0  0
  -27.5703  -22.1239   19.3028 H   0  0  0  0  0  0
  -28.0013  -24.9228   18.5210 H   0  0  0  0  0  0
  -26.9657  -24.6500   19.8927 H   0  0  0  0  0  0
  -30.2610  -20.9087   20.3253 H   0  0  0  0  0  0
  -28.7034  -20.6874   21.0658 H   0  0  0  0  0  0
  -28.8343  -15.6423   20.8273 H   0  0  0  0  0  0
  1 25  1  0  0  0
  1 30  2  0  0  0
  1 81  1  0  0  0
  2  3  1  0  0  0
  2 25  1  0  0  0
  2 83  1  0  0  0
  2 84  1  0  0  0
  3  4  1  0  0  0
  3 85  1  0  0  0
  3 86  1  0  0  0
  4  5  1  0  0  0
  4 87  1  0  0  0
  4 88  1  0  0  0
  5  6  1  0  0  0
  5 26  1  0  0  0
  5 89  1  0  0  0
  6 25  1  0  0  0
  6 90  1  0  0  0
  6 91  1  0  0  0
  7  8  2  0  0  0
  7 26  1  0  0  0
  7 29  1  0  0  0
  8  9  1  0  0  0
  8 22  1  0  0  0
  9 10  1  0  0  0
  9 27  2  0  0  0
 10 11  2  0  0  0
 10 15  1  0  0  0
 11 12  1  0  0  0
 11 92  1  0  0  0
 12 13  2  0  0  0
 12 93  1  0  0  0
 13 14  1  0  0  0
 13 31  1  0  0  0
 14 15  2  0  0  0
 14 94  1  0  0  0
 15 95  1  0  0  0
 16 17  2  0  0  0
 16 21  1  0  0  0
 16 31  1  0  0  0
 17 18  1  0  0  0
 17 96  1  0  0  0
 18 19  2  0  0  0
 18 97  1  0  0  0
 19 20  1  0  0  0
 19 24  1  0  0  0
 20 21  2  0  0  0
 20 98  1  0  0  0
 21 23  1  0  0  0
 22 28  1  0  0  0
 22 32  2  0  0  0
 26 27  1  0  0  0
 28 99  1  0  0  0
 28100  1  0  0  0
 29101  1  0  0  0
 29102  1  0  0  0
 33 34  1  0  0  0
 33 66  1  0  0  0
 33 70  2  0  0  0
 34 36  1  0  0  0
 34 59  1  0  0  0
 34103  1  0  0  0
 35 44  2  0  0  0
 35 45  1  0  0  0
 35 68  1  0  0  0
 36 56  1  0  0  0
 36104  1  0  0  0
 37 39  1  0  0  0
 37 47  1  0  0  0
 37 66  1  0  0  0
 37105  1  0  0  0
 38 43  2  0  0  0
 38 46  1  0  0  0
 38 47  1  0  0  0
 39 64  1  0  0  0
 39 67  2  0  0  0
 40 52  1  0  0  0
 40 53  2  0  0  0
 40 58  1  0  0  0
 41106  1  0  0  0
 41107  1  0  0  0
 41108  1  0  0  0
 41 48  1  0  0  0
 42 43  1  0  0  0
 42 66  1  0  0  0
 42109  1  0  0  0
 42110  1  0  0  0
 43 44  1  0  0  0
 44111  1  0  0  0
 45 46  2  0  0  0
 45112  1  0  0  0
 46113  1  0  0  0
 47114  1  0  0  0
 47115  1  0  0  0
 48 56  1  0  0  0
 48 65  1  0  0  0
 48116  1  0  0  0
 49 50  1  0  0  0
 49 53  1  0  0  0
 49 64  1  0  0  0
 49117  1  0  0  0
 50 51  1  0  0  0
 50118  1  0  0  0
 50119  1  0  0  0
 51 52  1  0  0  0
 51120  1  0  0  0
 51121  1  0  0  0
 52122  1  0  0  0
 52123  1  0  0  0
 53 54  1  0  0  0
 54 55  2  0  0  0
 54124  1  0  0  0
 55 57  1  0  0  0
 55125  1  0  0  0
 56 69  2  0  0  0
 57 58  2  0  0  0
 57126  1  0  0  0
 58127  1  0  0  0
 59 60  1  0  0  0
 59 61  1  0  0  0
 59 62  1  0  0  0
 60128  1  0  0  0
 60129  1  0  0  0
 60130  1  0  0  0
 61131  1  0  0  0
 61132  1  0  0  0
 61133  1  0  0  0
 62134  1  0  0  0
 62135  1  0  0  0
 62136  1  0  0  0
 63 65  1  0  0  0
 63137  1  0  0  0
 63138  1  0  0  0
 63139  1  0  0  0
 64140  1  0  0  0
 65141  1  0  0  0
 68 77  1  0  0  0
 71 72  2  0  0  0
 71 79  1  0  0  0
 71142  1  0  0  0
 72 80  1  0  0  0
 72143  1  0  0  0
 73 75  1  0  0  0
 73 79  2  0  0  0
 73 80  1  0  0  0
 74 76  1  0  0  0
 74 77  1  0  0  0
 74 82  2  0  0  0
 75 81  1  0  0  0
 75144  1  0  0  0
 75145  1  0  0  0
 76 78  1  0  0  0
 76146  1  0  0  0
 76147  1  0  0  0
 77148  1  0  0  0
 77149  1  0  0  0
 78 80  1  0  0  0
 78150  1  0  0  0
 78151  1  0  0  0
 81152  1  0  0  0
M  ISO  4   1 100  68 101  77 101  81 100
M  END
> <chiral flag>
0

> <version>
0

> <s_m_source_file>
/data/baiqing/PycharmProjects/Reinvent-master-3.2/result/LINK_invent/BTK/process_docking_weight1_custom_product_contain_oxygen_bond_distance_aromatic_linkinvent_7_9_3/rearranged_h_0195.sdf

> <i_m_source_file_index>
77

> <r_mmod_Potential_Energy-OPLS-2005>
55.5747108459473

> <r_mmod_Stretch_Energy-OPLS-2005>
134.763671875

> <r_mmod_Bend_Energy-OPLS-2005>
193.104995727539

> <r_mmod_Torsional_Energy-OPLS-2005>
205.977920532227

> <r_mmod_Improper_Torsional_Energy-OPLS-2005>
4.51661491394043

> <r_mmod_Van_der_Waal_Energy-OPLS-2005>
124.937118530273

> <r_mmod_Electrostatic_Energy-OPLS-2005>
-446.025512695312

> <r_mmod_Solvation_Energy-OPLS-2005>
-253.899337768555

> <b_mmod_Minimization_Converged-OPLS-2005>
0

> <r_mmod_RMS_Derivative-OPLS-2005>
7.69045162200928

$$$$
77
                    3D
 Structure written by MMmdl.
157165  0  0  1  0            999 V2000
  -30.6681  -14.5148   20.4470 C   0  0  0  0  0  0
  -30.4202  -12.2984   19.4330 C   0  0  0  0  0  0
  -29.4923  -12.4597   18.2106 C   0  0  0  0  0  0
  -28.0123  -12.3328   18.6263 C   0  0  0  0  0  0
  -27.6493  -13.2043   19.8592 C   0  0  2  0  0  0
  -28.6990  -13.0571   20.9840 C   0  0  0  0  0  0
  -25.2552  -13.8130   20.5687 C   0  0  0  0  0  0
  -24.1814  -13.0414   20.9199 C   0  0  0  0  0  0
  -24.6377  -11.6880   20.8766 C   0  0  0  0  0  0
  -23.9049  -10.4270   21.0434 C   0  0  0  0  0  0
  -24.3611   -9.4185   21.9208 C   0  0  0  0  0  0
  -23.6286   -8.2220   22.0772 C   0  0  0  0  0  0
  -22.4269   -8.0267   21.3557 C   0  0  0  0  0  0
  -21.9905   -9.0241   20.4663 C   0  0  0  0  0  0
  -22.7225  -10.2123   20.3080 C   0  0  0  0  0  0
  -21.6849   -6.0727   22.5281 C   0  0  0  0  0  0
  -21.3994   -6.5633   23.8209 C   0  0  0  0  0  0
  -21.3668   -5.6795   24.9183 C   0  0  0  0  0  0
  -21.6054   -4.3058   24.7242 C   0  0  0  0  0  0
  -21.8813   -3.8144   23.4362 C   0  0  0  0  0  0
  -21.9190   -4.6952   22.3415 C   0  0  0  0  0  0
  -22.7841  -13.5225   21.1852 C   0  0  0  0  0  0
  -22.1662   -4.2133   21.0994 F   0  0  0  0  0  0
  -21.5653   -3.4547   25.7762 F   0  0  0  0  0  0
  -30.0200  -13.3240   20.4029 N   0  0  0  0  0  0
  -26.2971  -12.9294   20.3335 N   0  0  0  0  0  0
  -25.9306  -11.6464   20.5800 N   0  0  0  0  0  0
  -22.0480  -12.8241   22.0431 N   0  0  0  0  0  0
  -25.4291  -15.1845   20.4088 N   0  0  0  0  0  0
  -31.8822  -14.6181   20.2649 O   0  0  0  0  0  0
  -21.6635   -6.8870   21.4244 O   0  0  0  0  0  0
  -22.3526  -14.5522   20.6680 O   0  0  0  0  0  0
  -24.6135  -31.8667   23.2093 C   0  0  0  0  0  0
  -25.9038  -32.4810   23.8375 C   0  0  1  0  0  0
  -27.2359  -27.4292   20.1119 C   0  0  0  0  0  0
  -25.5920  -33.8609   24.2324 N   0  0  0  0  0  0
  -23.4011  -30.4917   21.5458 C   0  0  2  0  0  0
  -24.8495  -28.9457   20.1224 C   0  0  0  0  0  0
  -22.7377  -29.4683   22.4947 C   0  0  0  0  0  0
  -18.0277  -28.1357   22.8500 C   0  0  0  0  0  0
  -24.1492  -36.7314   23.2636 C   0  0  0  0  0  0
  -25.9300  -30.8304   21.3628 C   0  0  0  0  0  0
  -26.0087  -29.4625   20.7145 C   0  0  0  0  0  0
  -27.2075  -28.7140   20.7018 C   0  0  0  0  0  0
  -26.0622  -26.9223   19.5193 C   0  0  0  0  0  0
  -24.8698  -27.6725   19.5241 C   0  0  0  0  0  0
  -23.6122  -29.8154   20.1649 C   0  0  0  0  0  0
  -25.4111  -36.3108   24.0342 C   0  0  1  0  0  0
  -20.5868  -28.3666   23.1295 C   0  0  2  0  0  0
  -20.6775  -26.9397   22.5399 C   0  0  0  0  0  0
  -19.5758  -26.6376   21.5201 C   0  0  0  0  0  0
  -18.1935  -26.7911   22.1617 C   0  0  0  0  0  0
  -19.1524  -28.8821   23.2912 C   0  0  0  0  0  0
  -18.9458  -30.1436   23.8914 C   0  0  0  0  0  0
  -17.6462  -30.6574   24.0565 C   0  0  0  0  0  0
  -25.9032  -34.9472   23.5121 C   0  0  0  0  0  0
  -16.5352  -29.9071   23.6336 C   0  0  0  0  0  0
  -16.7269  -28.6490   23.0347 C   0  0  0  0  0  0
  -26.4472  -31.6579   25.0692 C   0  0  0  0  0  0
  -25.3756  -31.3665   26.1454 C   0  0  0  0  0  0
  -27.0298  -30.3022   24.6063 C   0  0  0  0  0  0
  -27.6054  -32.4274   25.7457 C   0  0  0  0  0  0
  -27.5581  -37.1809   24.8469 C   0  0  0  0  0  0
  -21.4109  -29.3048   22.3684 N   0  0  0  0  0  0
  -26.4299  -37.3794   23.9406 N   0  0  0  0  0  0
  -24.6661  -31.0774   22.0981 N   0  0  0  0  0  0
  -23.4150  -28.8218   23.2989 O   0  0  0  0  0  0
  -28.4115  -26.7140   20.0636 O   0  0  0  0  0  0
  -26.5562  -34.8930   22.4663 O   0  0  0  0  0  0
  -23.5336  -32.1401   23.7507 O   0  0  0  0  0  0
  -28.7656  -18.8713   20.6758 C   0  0  0  0  0  0
  -28.3100  -18.4384   21.9127 C   0  0  0  0  0  0
  -29.4449  -16.6700   20.6304 C   0  0  0  0  0  0
  -27.5725  -20.0827   18.8398 C   0  0  0  0  0  0
  -28.8160  -22.8794   20.3690 C   0  0  0  0  0  0
  -28.0612  -24.2104   19.9902 C   0  0  0  0  0  0
  -28.3245  -21.4659   20.8703 C   0  0  0  0  0  0
  -28.4681  -25.4789   20.7985 C   0  0  0  0  0  0
  -28.6258  -20.2212   19.9601 C   0  0  1  0  0  0
  -29.3975  -17.8316   19.9683 N   0  0  0  0  0  0
  -27.5769  -19.1273   22.8740 N   0  0  0  0  0  0
  -29.9156  -15.5149   19.9611 N   0  0  0  0  0  0
  -28.7260  -16.7578   22.2274 S   0  0  0  0  0  0
  -31.4653  -12.3965   19.1304 H   0  0  0  0  0  0
  -30.3215  -11.3043   19.8729 H   0  0  0  0  0  0
  -29.7332  -11.7100   17.4557 H   0  0  0  0  0  0
  -29.6597  -13.4310   17.7423 H   0  0  0  0  0  0
  -27.8239  -11.2822   18.8473 H   0  0  0  0  0  0
  -27.3622  -12.5846   17.7873 H   0  0  0  0  0  0
  -27.6619  -14.2372   19.5156 H   0  0  0  0  0  0
  -28.6745  -12.0517   21.4077 H   0  0  0  0  0  0
  -28.4841  -13.7456   21.8021 H   0  0  0  0  0  0
  -25.2764   -9.5654   22.4773 H   0  0  0  0  0  0
  -23.9995   -7.4615   22.7491 H   0  0  0  0  0  0
  -21.0843   -8.8757   19.8967 H   0  0  0  0  0  0
  -22.3693  -10.9666   19.6185 H   0  0  0  0  0  0
  -21.1948   -7.6134   23.9696 H   0  0  0  0  0  0
  -21.1519   -6.0542   25.9085 H   0  0  0  0  0  0
  -22.0586   -2.7601   23.2874 H   0  0  0  0  0  0
  -22.4088  -11.9898   22.4823 H   0  0  0  0  0  0
  -21.1097  -13.1269   22.2636 H   0  0  0  0  0  0
  -24.6702  -15.8458   20.5307 H   0  0  0  0  0  0
  -26.2882  -15.6182   20.0982 H   0  0  0  0  0  0
  -26.7080  -32.5530   23.1108 H   0  0  0  0  0  0
  -25.0134  -33.9768   25.0514 H   0  0  0  0  0  0
  -22.6910  -31.3087   21.4004 H   0  0  0  0  0  0
  -23.3752  -35.9651   23.3308 H   0  0  0  0  0  0
  -24.3593  -36.8907   22.2049 H   0  0  0  0  0  0
  -23.7240  -37.6527   23.6632 H   0  0  0  0  0  0
  -26.0416  -31.5941   20.5921 H   0  0  0  0  0  0
  -26.8192  -30.8838   21.9794 H   0  0  0  0  0  0
  -28.1069  -29.1156   21.1478 H   0  0  0  0  0  0
  -26.0705  -25.9546   19.0398 H   0  0  0  0  0  0
  -23.9807  -27.2629   19.0638 H   0  0  0  0  0  0
  -23.7194  -30.5843   19.3992 H   0  0  0  0  0  0
  -22.7364  -29.2325   19.8749 H   0  0  0  0  0  0
  -25.1284  -36.1973   25.0837 H   0  0  0  0  0  0
  -21.0000  -28.3249   24.1401 H   0  0  0  0  0  0
  -20.5673  -26.2275   23.3589 H   0  0  0  0  0  0
  -21.6645  -26.7431   22.1190 H   0  0  0  0  0  0
  -19.6929  -25.6292   21.1223 H   0  0  0  0  0  0
  -19.6703  -27.3196   20.6737 H   0  0  0  0  0  0
  -17.4202  -26.6671   21.4016 H   0  0  0  0  0  0
  -18.0345  -26.0029   22.8987 H   0  0  0  0  0  0
  -19.7937  -30.7261   24.2264 H   0  0  0  0  0  0
  -17.5019  -31.6263   24.5148 H   0  0  0  0  0  0
  -15.5354  -30.2973   23.7662 H   0  0  0  0  0  0
  -15.8674  -28.0832   22.7021 H   0  0  0  0  0  0
  -24.5951  -30.6982   25.7798 H   0  0  0  0  0  0
  -24.8929  -32.2809   26.4914 H   0  0  0  0  0  0
  -25.8146  -30.8831   27.0192 H   0  0  0  0  0  0
  -26.2834  -29.6781   24.1134 H   0  0  0  0  0  0
  -27.4081  -29.7267   25.4520 H   0  0  0  0  0  0
  -27.8665  -30.4324   23.9195 H   0  0  0  0  0  0
  -27.2685  -33.3566   26.2061 H   0  0  0  0  0  0
  -28.3863  -32.6830   25.0282 H   0  0  0  0  0  0
  -28.0716  -31.8360   26.5346 H   0  0  0  0  0  0
  -28.2605  -38.0097   24.7510 H   0  0  0  0  0  0
  -28.1059  -36.2630   24.6300 H   0  0  0  0  0  0
  -27.2294  -37.1467   25.8868 H   0  0  0  0  0  0
  -20.9227  -29.8766   21.6927 H   0  0  0  0  0  0
  -26.0191  -38.2879   24.1394 H   0  0  0  0  0  0
  -26.5891  -19.8596   19.2550 H   0  0  0  0  0  0
  -27.8318  -19.2702   18.1607 H   0  0  0  0  0  0
  -27.4760  -20.9811   18.2310 H   0  0  0  0  0  0
  -28.3147  -22.5579   19.4615 H   0  0  0  0  0  0
  -28.4640  -23.1691   21.3604 H   0  0  0  0  0  0
  -26.9786  -24.0784   20.0610 H   0  0  0  0  0  0
  -28.2619  -24.4536   18.9425 H   0  0  0  0  0  0
  -27.2599  -21.4789   21.1197 H   0  0  0  0  0  0
  -28.8432  -21.2739   21.8139 H   0  0  0  0  0  0
  -29.5078  -25.3731   21.1104 H   0  0  0  0  0  0
  -27.8929  -25.5498   21.7234 H   0  0  0  0  0  0
  -29.5835  -20.4220   19.4763 H   0  0  0  0  0  0
  -27.1437  -20.0232   22.6752 H   0  0  0  0  0  0
  -27.1729  -18.6803   23.6914 H   0  0  0  0  0  0
  -30.1954  -15.7327   19.0185 H   0  0  0  0  0  0
  1 25  1  0  0  0
  1 30  2  0  0  0
  1 82  1  0  0  0
  2  3  1  0  0  0
  2 25  1  0  0  0
  2 84  1  0  0  0
  2 85  1  0  0  0
  3  4  1  0  0  0
  3 86  1  0  0  0
  3 87  1  0  0  0
  4  5  1  0  0  0
  4 88  1  0  0  0
  4 89  1  0  0  0
  5  6  1  0  0  0
  5 26  1  0  0  0
  5 90  1  0  0  0
  6 25  1  0  0  0
  6 91  1  0  0  0
  6 92  1  0  0  0
  7  8  2  0  0  0
  7 26  1  0  0  0
  7 29  1  0  0  0
  8  9  1  0  0  0
  8 22  1  0  0  0
  9 10  1  0  0  0
  9 27  2  0  0  0
 10 11  2  0  0  0
 10 15  1  0  0  0
 11 12  1  0  0  0
 11 93  1  0  0  0
 12 13  2  0  0  0
 12 94  1  0  0  0
 13 14  1  0  0  0
 13 31  1  0  0  0
 14 15  2  0  0  0
 14 95  1  0  0  0
 15 96  1  0  0  0
 16 17  2  0  0  0
 16 21  1  0  0  0
 16 31  1  0  0  0
 17 18  1  0  0  0
 17 97  1  0  0  0
 18 19  2  0  0  0
 18 98  1  0  0  0
 19 20  1  0  0  0
 19 24  1  0  0  0
 20 21  2  0  0  0
 20 99  1  0  0  0
 21 23  1  0  0  0
 22 28  1  0  0  0
 22 32  2  0  0  0
 26 27  1  0  0  0
 28100  1  0  0  0
 28101  1  0  0  0
 29102  1  0  0  0
 29103  1  0  0  0
 33 34  1  0  0  0
 33 66  1  0  0  0
 33 70  2  0  0  0
 34 36  1  0  0  0
 34 59  1  0  0  0
 34104  1  0  0  0
 35 44  2  0  0  0
 35 45  1  0  0  0
 35 68  1  0  0  0
 36 56  1  0  0  0
 36105  1  0  0  0
 37 39  1  0  0  0
 37 47  1  0  0  0
 37 66  1  0  0  0
 37106  1  0  0  0
 38 43  2  0  0  0
 38 46  1  0  0  0
 38 47  1  0  0  0
 39 64  1  0  0  0
 39 67  2  0  0  0
 40 52  1  0  0  0
 40 53  2  0  0  0
 40 58  1  0  0  0
 41107  1  0  0  0
 41108  1  0  0  0
 41109  1  0  0  0
 41 48  1  0  0  0
 42 43  1  0  0  0
 42 66  1  0  0  0
 42110  1  0  0  0
 42111  1  0  0  0
 43 44  1  0  0  0
 44112  1  0  0  0
 45 46  2  0  0  0
 45113  1  0  0  0
 46114  1  0  0  0
 47115  1  0  0  0
 47116  1  0  0  0
 48 56  1  0  0  0
 48 65  1  0  0  0
 48117  1  0  0  0
 49 50  1  0  0  0
 49 53  1  0  0  0
 49 64  1  0  0  0
 49118  1  0  0  0
 50 51  1  0  0  0
 50119  1  0  0  0
 50120  1  0  0  0
 51 52  1  0  0  0
 51121  1  0  0  0
 51122  1  0  0  0
 52123  1  0  0  0
 52124  1  0  0  0
 53 54  1  0  0  0
 54 55  2  0  0  0
 54125  1  0  0  0
 55 57  1  0  0  0
 55126  1  0  0  0
 56 69  2  0  0  0
 57 58  2  0  0  0
 57127  1  0  0  0
 58128  1  0  0  0
 59 60  1  0  0  0
 59 61  1  0  0  0
 59 62  1  0  0  0
 60129  1  0  0  0
 60130  1  0  0  0
 60131  1  0  0  0
 61132  1  0  0  0
 61133  1  0  0  0
 61134  1  0  0  0
 62135  1  0  0  0
 62136  1  0  0  0
 62137  1  0  0  0
 63 65  1  0  0  0
 63138  1  0  0  0
 63139  1  0  0  0
 63140  1  0  0  0
 64141  1  0  0  0
 65142  1  0  0  0
 68 78  1  0  0  0
 71 72  2  0  0  0
 71 79  1  0  0  0
 71 80  1  0  0  0
 72 81  1  0  0  0
 72 83  1  0  0  0
 73 80  2  0  0  0
 73 82  1  0  0  0
 73 83  1  0  0  0
 74143  1  0  0  0
 74144  1  0  0  0
 74145  1  0  0  0
 74 79  1  0  0  0
 75 76  1  0  0  0
 75 77  1  0  0  0
 75146  1  0  0  0
 75147  1  0  0  0
 76 78  1  0  0  0
 76148  1  0  0  0
 76149  1  0  0  0
 77 79  1  0  0  0
 77150  1  0  0  0
 77151  1  0  0  0
 78152  1  0  0  0
 78153  1  0  0  0
 79154  1  0  0  0
 81155  1  0  0  0
 81156  1  0  0  0
 82157  1  0  0  0
M  ISO  4   1 100  68 101  78 101  82 100
M  END
> <chiral flag>
0

> <version>
0

> <s_m_source_file>
/data/baiqing/PycharmProjects/Reinvent-master-3.2/result/LINK_invent/BTK/process_docking_weight1_custom_product_contain_oxygen_bond_distance_aromatic_linkinvent_7_9_3/rearranged_h_0195.sdf

> <i_m_source_file_index>
78

> <r_mmod_Potential_Energy-OPLS-2005>
305.624084472656

> <r_mmod_Stretch_Energy-OPLS-2005>
41.8349609375

> <r_mmod_Bend_Energy-OPLS-2005>
347.970489501953

> <r_mmod_Torsional_Energy-OPLS-2005>
297.738891601562

> <r_mmod_Improper_Torsional_Energy-OPLS-2005>
32.4645614624023

> <r_mmod_Van_der_Waal_Energy-OPLS-2005>
129.175247192383

> <r_mmod_Electrostatic_Energy-OPLS-2005>
-366.830535888672

> <r_mmod_Solvation_Energy-OPLS-2005>
-202.216903686523

> <b_mmod_Minimization_Converged-OPLS-2005>
0

> <r_mmod_RMS_Derivative-OPLS-2005>
1.91934132575989

$$$$
78
                    3D
 Structure written by MMmdl.
158166  0  0  1  0            999 V2000
  -30.6882  -14.5115   20.5251 C   0  0  0  0  0  0
  -30.4184  -12.3115   19.4464 C   0  0  0  0  0  0
  -29.5002  -12.5022   18.2212 C   0  0  0  0  0  0
  -28.0222  -12.3529   18.6321 C   0  0  0  0  0  0
  -27.6587  -13.2136   19.8720 C   0  0  2  0  0  0
  -28.6993  -13.0347   20.9997 C   0  0  0  0  0  0
  -25.2569  -13.8173   20.5685 C   0  0  0  0  0  0
  -24.1833  -13.0438   20.9172 C   0  0  0  0  0  0
  -24.6401  -11.6907   20.8729 C   0  0  0  0  0  0
  -23.9066  -10.4299   21.0398 C   0  0  0  0  0  0
  -24.3617   -9.4216   21.9180 C   0  0  0  0  0  0
  -23.6289   -8.2248   22.0753 C   0  0  0  0  0  0
  -22.4268   -8.0289   21.3543 C   0  0  0  0  0  0
  -21.9907   -9.0268   20.4641 C   0  0  0  0  0  0
  -22.7237  -10.2146   20.3047 C   0  0  0  0  0  0
  -21.6857   -6.0733   22.5281 C   0  0  0  0  0  0
  -21.4027   -6.5638   23.8217 C   0  0  0  0  0  0
  -21.3663   -5.6790   24.9179 C   0  0  0  0  0  0
  -21.6029   -4.3049   24.7234 C   0  0  0  0  0  0
  -21.8819   -3.8143   23.4357 C   0  0  0  0  0  0
  -21.9200   -4.6958   22.3408 C   0  0  0  0  0  0
  -22.7851  -13.5226   21.1845 C   0  0  0  0  0  0
  -22.1659   -4.2138   21.0982 F   0  0  0  0  0  0
  -21.5626   -3.4530   25.7751 F   0  0  0  0  0  0
  -30.0281  -13.3216   20.4456 N   0  0  0  0  0  0
  -26.3015  -12.9364   20.3359 N   0  0  0  0  0  0
  -25.9332  -11.6518   20.5760 N   0  0  0  0  0  0
  -22.0514  -12.8221   22.0411 N   0  0  0  0  0  0
  -25.4281  -15.1900   20.4116 N   0  0  0  0  0  0
  -31.8458  -14.6237   20.1133 O   0  0  0  0  0  0
  -21.6638   -6.8881   21.4241 O   0  0  0  0  0  0
  -22.3531  -14.5542   20.6705 O   0  0  0  0  0  0
  -24.6153  -31.8676   23.2103 C   0  0  0  0  0  0
  -25.9048  -32.4819   23.8398 C   0  0  1  0  0  0
  -27.2334  -27.4320   20.1023 C   0  0  0  0  0  0
  -25.5910  -33.8619   24.2340 N   0  0  0  0  0  0
  -23.4033  -30.4884   21.5496 C   0  0  2  0  0  0
  -24.8550  -28.9595   20.1050 C   0  0  0  0  0  0
  -22.7427  -29.4611   22.4952 C   0  0  0  0  0  0
  -18.0274  -28.1332   22.8477 C   0  0  0  0  0  0
  -24.1499  -36.7310   23.2640 C   0  0  0  0  0  0
  -25.9300  -30.8301   21.3660 C   0  0  0  0  0  0
  -26.0121  -29.4663   20.7110 C   0  0  0  0  0  0
  -27.2093  -28.7111   20.7076 C   0  0  0  0  0  0
  -26.0665  -26.9425   19.4817 C   0  0  0  0  0  0
  -24.8771  -27.6982   19.4838 C   0  0  0  0  0  0
  -23.6139  -29.8248   20.1613 C   0  0  0  0  0  0
  -25.4110  -36.3106   24.0339 C   0  0  1  0  0  0
  -20.5857  -28.3639   23.1276 C   0  0  2  0  0  0
  -20.6750  -26.9366   22.5393 C   0  0  0  0  0  0
  -19.5737  -26.6343   21.5191 C   0  0  0  0  0  0
  -18.1915  -26.7890   22.1597 C   0  0  0  0  0  0
  -19.1526  -28.8806   23.2869 C   0  0  0  0  0  0
  -18.9461  -30.1421   23.8875 C   0  0  0  0  0  0
  -17.6465  -30.6563   24.0533 C   0  0  0  0  0  0
  -25.9017  -34.9466   23.5127 C   0  0  0  0  0  0
  -16.5356  -29.9049   23.6325 C   0  0  0  0  0  0
  -16.7261  -28.6463   23.0342 C   0  0  0  0  0  0
  -26.4477  -31.6580   25.0714 C   0  0  0  0  0  0
  -25.3737  -31.3675   26.1458 C   0  0  0  0  0  0
  -27.0307  -30.3028   24.6066 C   0  0  0  0  0  0
  -27.6052  -32.4296   25.7489 C   0  0  0  0  0  0
  -27.5598  -37.1804   24.8478 C   0  0  0  0  0  0
  -21.4152  -29.3008   22.3698 N   0  0  0  0  0  0
  -26.4302  -37.3777   23.9422 N   0  0  0  0  0  0
  -24.6675  -31.0738   22.1020 N   0  0  0  0  0  0
  -23.4208  -28.8146   23.2987 O   0  0  0  0  0  0
  -28.3431  -26.6181   20.1534 O   0  0  0  0  0  0
  -26.5568  -34.8927   22.4680 O   0  0  0  0  0  0
  -23.5337  -32.1456   23.7466 O   0  0  0  0  0  0
  -28.3836  -18.8342   19.7349 C   0  0  0  0  0  0
  -28.2294  -20.2416   19.9553 C   0  0  0  0  0  0
  -29.6002  -18.3357   20.1274 C   0  0  0  0  0  0
  -29.3285  -20.8434   20.5290 C   0  0  0  0  0  0
  -28.7838  -23.2471   20.7560 C   0  0  0  0  0  0
  -31.1702  -23.6183   22.9955 C   0  0  0  0  0  0
  -30.1680  -16.9514   19.8749 C   0  0  0  0  0  0
  -29.9738  -15.8311   20.9469 C   0  0  0  0  0  0
  -29.8596  -24.4037   22.8069 C   0  0  0  0  0  0
  -28.3173  -25.7709   21.3183 C   0  0  0  0  0  0
  -29.3420  -24.5816   21.3443 C   0  0  2  0  0  0
  -29.5687  -22.1505   20.8564 N   0  0  0  0  0  0
  -27.6802  -23.2241   20.2060 O   0  0  0  0  0  0
  -30.5522  -19.6178   20.8488 S   0  0  0  0  0  0
  -31.4660  -12.3914   19.1504 H   0  0  0  0  0  0
  -30.3032  -11.3078   19.8595 H   0  0  0  0  0  0
  -29.7497  -11.7780   17.4453 H   0  0  0  0  0  0
  -29.6662  -13.4891   17.7854 H   0  0  0  0  0  0
  -27.8487  -11.2992   18.8527 H   0  0  0  0  0  0
  -27.3698  -12.5990   17.7938 H   0  0  0  0  0  0
  -27.6934  -14.2539   19.5516 H   0  0  0  0  0  0
  -28.6728  -12.0131   21.3815 H   0  0  0  0  0  0
  -28.4683  -13.6711   21.8544 H   0  0  0  0  0  0
  -25.2768   -9.5695   22.4744 H   0  0  0  0  0  0
  -23.9997   -7.4648   22.7484 H   0  0  0  0  0  0
  -21.0832   -8.8797   19.8954 H   0  0  0  0  0  0
  -22.3701  -10.9688   19.6149 H   0  0  0  0  0  0
  -21.2021   -7.6149   23.9723 H   0  0  0  0  0  0
  -21.1476   -6.0517   25.9082 H   0  0  0  0  0  0
  -22.0593   -2.7603   23.2866 H   0  0  0  0  0  0
  -22.4116  -11.9867   22.4777 H   0  0  0  0  0  0
  -21.1143  -13.1269   22.2650 H   0  0  0  0  0  0
  -24.6611  -15.8451   20.5204 H   0  0  0  0  0  0
  -26.2888  -15.6370   20.1232 H   0  0  0  0  0  0
  -26.7127  -32.5527   23.1170 H   0  0  0  0  0  0
  -25.0131  -33.9769   25.0542 H   0  0  0  0  0  0
  -22.6928  -31.3056   21.4122 H   0  0  0  0  0  0
  -23.3759  -35.9649   23.3300 H   0  0  0  0  0  0
  -24.3605  -36.8909   22.2062 H   0  0  0  0  0  0
  -23.7249  -37.6508   23.6660 H   0  0  0  0  0  0
  -26.0399  -31.5979   20.5985 H   0  0  0  0  0  0
  -26.8174  -30.8835   21.9843 H   0  0  0  0  0  0
  -28.0990  -29.0927   21.1894 H   0  0  0  0  0  0
  -26.0728  -25.9647   19.0199 H   0  0  0  0  0  0
  -23.9867  -27.3022   19.0150 H   0  0  0  0  0  0
  -23.7253  -30.6036   19.4068 H   0  0  0  0  0  0
  -22.7375  -29.2460   19.8642 H   0  0  0  0  0  0
  -25.1276  -36.1967   25.0821 H   0  0  0  0  0  0
  -20.9962  -28.3211   24.1381 H   0  0  0  0  0  0
  -20.5622  -26.2254   23.3592 H   0  0  0  0  0  0
  -21.6616  -26.7363   22.1200 H   0  0  0  0  0  0
  -19.6899  -25.6263   21.1212 H   0  0  0  0  0  0
  -19.6681  -27.3141   20.6720 H   0  0  0  0  0  0
  -17.4184  -26.6651   21.3992 H   0  0  0  0  0  0
  -18.0295  -26.0004   22.8963 H   0  0  0  0  0  0
  -19.7948  -30.7218   24.2225 H   0  0  0  0  0  0
  -17.5035  -31.6245   24.5143 H   0  0  0  0  0  0
  -15.5358  -30.2939   23.7686 H   0  0  0  0  0  0
  -15.8658  -28.0794   22.7055 H   0  0  0  0  0  0
  -24.5952  -30.6950   25.7838 H   0  0  0  0  0  0
  -24.8870  -32.2814   26.4874 H   0  0  0  0  0  0
  -25.8097  -30.8924   27.0244 H   0  0  0  0  0  0
  -26.2831  -29.6765   24.1185 H   0  0  0  0  0  0
  -27.4168  -29.7284   25.4490 H   0  0  0  0  0  0
  -27.8630  -30.4371   23.9146 H   0  0  0  0  0  0
  -27.2687  -33.3629   26.2012 H   0  0  0  0  0  0
  -28.3902  -32.6765   25.0331 H   0  0  0  0  0  0
  -28.0662  -31.8420   26.5441 H   0  0  0  0  0  0
  -28.2583  -38.0127   24.7495 H   0  0  0  0  0  0
  -28.1090  -36.2635   24.6304 H   0  0  0  0  0  0
  -27.2287  -37.1438   25.8866 H   0  0  0  0  0  0
  -20.9331  -29.8767   21.6944 H   0  0  0  0  0  0
  -26.0193  -38.2847   24.1412 H   0  0  0  0  0  0
  -27.6137  -18.2551   19.2460 H   0  0  0  0  0  0
  -27.3268  -20.7571   19.6584 H   0  0  0  0  0  0
  -31.5940  -23.8208   23.9801 H   0  0  0  0  0  0
  -31.9163  -23.9068   22.2556 H   0  0  0  0  0  0
  -31.0249  -22.5392   22.9463 H   0  0  0  0  0  0
  -31.2357  -17.0672   19.6764 H   0  0  0  0  0  0
  -29.7587  -16.5894   18.9314 H   0  0  0  0  0  0
  -28.9092  -15.6865   21.1145 H   0  0  0  0  0  0
  -30.3982  -16.1561   21.8979 H   0  0  0  0  0  0
  -30.0494  -25.3856   23.2401 H   0  0  0  0  0  0
  -29.0784  -23.9604   23.4256 H   0  0  0  0  0  0
  -28.5038  -26.4406   22.1595 H   0  0  0  0  0  0
  -27.3104  -25.3883   21.5021 H   0  0  0  0  0  0
  -30.1900  -24.8850   20.7302 H   0  0  0  0  0  0
  -30.4602  -22.3250   21.3002 H   0  0  0  0  0  0
  1 25  1  0  0  0
  1 30  2  0  0  0
  1 78  1  0  0  0
  2  3  1  0  0  0
  2 25  1  0  0  0
  2 85  1  0  0  0
  2 86  1  0  0  0
  3  4  1  0  0  0
  3 87  1  0  0  0
  3 88  1  0  0  0
  4  5  1  0  0  0
  4 89  1  0  0  0
  4 90  1  0  0  0
  5  6  1  0  0  0
  5 26  1  0  0  0
  5 91  1  0  0  0
  6 25  1  0  0  0
  6 92  1  0  0  0
  6 93  1  0  0  0
  7  8  2  0  0  0
  7 26  1  0  0  0
  7 29  1  0  0  0
  8  9  1  0  0  0
  8 22  1  0  0  0
  9 10  1  0  0  0
  9 27  2  0  0  0
 10 11  2  0  0  0
 10 15  1  0  0  0
 11 12  1  0  0  0
 11 94  1  0  0  0
 12 13  2  0  0  0
 12 95  1  0  0  0
 13 14  1  0  0  0
 13 31  1  0  0  0
 14 15  2  0  0  0
 14 96  1  0  0  0
 15 97  1  0  0  0
 16 17  2  0  0  0
 16 21  1  0  0  0
 16 31  1  0  0  0
 17 18  1  0  0  0
 17 98  1  0  0  0
 18 19  2  0  0  0
 18 99  1  0  0  0
 19 20  1  0  0  0
 19 24  1  0  0  0
 20 21  2  0  0  0
 20100  1  0  0  0
 21 23  1  0  0  0
 22 28  1  0  0  0
 22 32  2  0  0  0
 26 27  1  0  0  0
 28101  1  0  0  0
 28102  1  0  0  0
 29103  1  0  0  0
 29104  1  0  0  0
 33 34  1  0  0  0
 33 66  1  0  0  0
 33 70  2  0  0  0
 34 36  1  0  0  0
 34 59  1  0  0  0
 34105  1  0  0  0
 35 44  2  0  0  0
 35 45  1  0  0  0
 35 68  1  0  0  0
 36 56  1  0  0  0
 36106  1  0  0  0
 37 39  1  0  0  0
 37 47  1  0  0  0
 37 66  1  0  0  0
 37107  1  0  0  0
 38 43  2  0  0  0
 38 46  1  0  0  0
 38 47  1  0  0  0
 39 64  1  0  0  0
 39 67  2  0  0  0
 40 52  1  0  0  0
 40 53  2  0  0  0
 40 58  1  0  0  0
 41108  1  0  0  0
 41109  1  0  0  0
 41110  1  0  0  0
 41 48  1  0  0  0
 42 43  1  0  0  0
 42 66  1  0  0  0
 42111  1  0  0  0
 42112  1  0  0  0
 43 44  1  0  0  0
 44113  1  0  0  0
 45 46  2  0  0  0
 45114  1  0  0  0
 46115  1  0  0  0
 47116  1  0  0  0
 47117  1  0  0  0
 48 56  1  0  0  0
 48 65  1  0  0  0
 48118  1  0  0  0
 49 50  1  0  0  0
 49 53  1  0  0  0
 49 64  1  0  0  0
 49119  1  0  0  0
 50 51  1  0  0  0
 50120  1  0  0  0
 50121  1  0  0  0
 51 52  1  0  0  0
 51122  1  0  0  0
 51123  1  0  0  0
 52124  1  0  0  0
 52125  1  0  0  0
 53 54  1  0  0  0
 54 55  2  0  0  0
 54126  1  0  0  0
 55 57  1  0  0  0
 55127  1  0  0  0
 56 69  2  0  0  0
 57 58  2  0  0  0
 57128  1  0  0  0
 58129  1  0  0  0
 59 60  1  0  0  0
 59 61  1  0  0  0
 59 62  1  0  0  0
 60130  1  0  0  0
 60131  1  0  0  0
 60132  1  0  0  0
 61133  1  0  0  0
 61134  1  0  0  0
 61135  1  0  0  0
 62136  1  0  0  0
 62137  1  0  0  0
 62138  1  0  0  0
 63 65  1  0  0  0
 63139  1  0  0  0
 63140  1  0  0  0
 63141  1  0  0  0
 64142  1  0  0  0
 65143  1  0  0  0
 68 80  1  0  0  0
 71 72  1  0  0  0
 71 73  2  0  0  0
 71144  1  0  0  0
 72 74  2  0  0  0
 72145  1  0  0  0
 73 77  1  0  0  0
 73 84  1  0  0  0
 74 82  1  0  0  0
 74 84  1  0  0  0
 75 81  1  0  0  0
 75 82  1  0  0  0
 75 83  2  0  0  0
 76 79  1  0  0  0
 76146  1  0  0  0
 76147  1  0  0  0
 76148  1  0  0  0
 77 78  1  0  0  0
 77149  1  0  0  0
 77150  1  0  0  0
 78151  1  0  0  0
 78152  1  0  0  0
 79153  1  0  0  0
 79154  1  0  0  0
 79 81  1  0  0  0
 80 81  1  0  0  0
 80155  1  0  0  0
 80156  1  0  0  0
 81157  1  0  0  0
 82158  1  0  0  0
M  ISO  4   1 100  68 101  78 100  80 101
M  END
> <chiral flag>
0

> <version>
0

> <s_m_source_file>
/data/baiqing/PycharmProjects/Reinvent-master-3.2/result/LINK_invent/BTK/process_docking_weight1_custom_product_contain_oxygen_bond_distance_aromatic_linkinvent_7_9_3/rearranged_h_0195.sdf

> <i_m_source_file_index>
79

> <r_mmod_Potential_Energy-OPLS-2005>
-32.4885406494141

> <r_mmod_Stretch_Energy-OPLS-2005>
42.680362701416

> <r_mmod_Bend_Energy-OPLS-2005>
115.310119628906

> <r_mmod_Torsional_Energy-OPLS-2005>
203.207565307617

> <r_mmod_Improper_Torsional_Energy-OPLS-2005>
4.40120553970337

> <r_mmod_Van_der_Waal_Energy-OPLS-2005>
129.335418701172

> <r_mmod_Electrostatic_Energy-OPLS-2005>
-338.761627197266

> <r_mmod_Solvation_Energy-OPLS-2005>
-208.505081176758

> <b_mmod_Minimization_Converged-OPLS-2005>
0

> <r_mmod_RMS_Derivative-OPLS-2005>
3.11530947685242

$$$$
79
                    3D
 Structure written by MMmdl.
154162  0  0  1  0            999 V2000
  -30.7161  -14.5275   20.5610 C   0  0  0  0  0  0
  -30.4167  -12.3407   19.4423 C   0  0  0  0  0  0
  -29.4984  -12.5146   18.2165 C   0  0  0  0  0  0
  -28.0186  -12.3752   18.6210 C   0  0  0  0  0  0
  -27.6578  -13.2236   19.8697 C   0  0  2  0  0  0
  -28.7010  -13.0553   20.9992 C   0  0  0  0  0  0
  -25.2573  -13.8187   20.5721 C   0  0  0  0  0  0
  -24.1842  -13.0438   20.9197 C   0  0  0  0  0  0
  -24.6421  -11.6921   20.8736 C   0  0  0  0  0  0
  -23.9098  -10.4305   21.0386 C   0  0  0  0  0  0
  -24.3654   -9.4215   21.9163 C   0  0  0  0  0  0
  -23.6333   -8.2252   22.0713 C   0  0  0  0  0  0
  -22.4297   -8.0305   21.3530 C   0  0  0  0  0  0
  -21.9952   -9.0290   20.4614 C   0  0  0  0  0  0
  -22.7280  -10.2163   20.3023 C   0  0  0  0  0  0
  -21.6864   -6.0759   22.5290 C   0  0  0  0  0  0
  -21.4019   -6.5651   23.8229 C   0  0  0  0  0  0
  -21.3660   -5.6792   24.9189 C   0  0  0  0  0  0
  -21.6051   -4.3060   24.7217 C   0  0  0  0  0  0
  -21.8828   -3.8152   23.4336 C   0  0  0  0  0  0
  -21.9193   -4.6985   22.3399 C   0  0  0  0  0  0
  -22.7865  -13.5218   21.1882 C   0  0  0  0  0  0
  -22.1653   -4.2169   21.0978 F   0  0  0  0  0  0
  -21.5637   -3.4536   25.7725 F   0  0  0  0  0  0
  -30.0303  -13.3509   20.4428 N   0  0  0  0  0  0
  -26.3024  -12.9395   20.3364 N   0  0  0  0  0  0
  -25.9357  -11.6543   20.5776 N   0  0  0  0  0  0
  -22.0500  -12.8209   22.0426 N   0  0  0  0  0  0
  -25.4289  -15.1920   20.4219 N   0  0  0  0  0  0
  -31.8425  -14.6751   20.0807 O   0  0  0  0  0  0
  -21.6632   -6.8915   21.4253 O   0  0  0  0  0  0
  -22.3551  -14.5537   20.6736 O   0  0  0  0  0  0
  -24.6170  -31.8620   23.2025 C   0  0  0  0  0  0
  -25.9042  -32.4807   23.8331 C   0  0  1  0  0  0
  -27.2407  -27.3863   20.1194 C   0  0  0  0  0  0
  -25.5901  -33.8601   24.2269 N   0  0  0  0  0  0
  -23.4106  -30.4794   21.5416 C   0  0  2  0  0  0
  -24.8635  -28.9293   20.1239 C   0  0  0  0  0  0
  -22.7433  -29.4624   22.4942 C   0  0  0  0  0  0
  -18.0283  -28.1400   22.8494 C   0  0  0  0  0  0
  -24.1491  -36.7305   23.2623 C   0  0  0  0  0  0
  -25.9406  -30.8161   21.3607 C   0  0  0  0  0  0
  -26.0243  -29.4405   20.7204 C   0  0  0  0  0  0
  -27.2180  -28.6752   20.7137 C   0  0  0  0  0  0
  -26.0640  -26.8948   19.5223 C   0  0  0  0  0  0
  -24.8795  -27.6573   19.5226 C   0  0  0  0  0  0
  -23.6274  -29.8000   20.1620 C   0  0  0  0  0  0
  -25.4118  -36.3099   24.0311 C   0  0  1  0  0  0
  -20.5873  -28.3691   23.1312 C   0  0  2  0  0  0
  -20.6792  -26.9424   22.5426 C   0  0  0  0  0  0
  -19.5765  -26.6398   21.5231 C   0  0  0  0  0  0
  -18.1940  -26.7948   22.1634 C   0  0  0  0  0  0
  -19.1534  -28.8859   23.2893 C   0  0  0  0  0  0
  -18.9465  -30.1476   23.8896 C   0  0  0  0  0  0
  -17.6464  -30.6600   24.0588 C   0  0  0  0  0  0
  -25.9045  -34.9466   23.5082 C   0  0  0  0  0  0
  -16.5349  -29.9120   23.6329 C   0  0  0  0  0  0
  -16.7271  -28.6537   23.0336 C   0  0  0  0  0  0
  -26.4473  -31.6603   25.0668 C   0  0  0  0  0  0
  -25.3734  -31.3744   26.1412 C   0  0  0  0  0  0
  -27.0309  -30.3047   24.6061 C   0  0  0  0  0  0
  -27.6038  -32.4323   25.7455 C   0  0  0  0  0  0
  -27.5592  -37.1795   24.8444 C   0  0  0  0  0  0
  -21.4144  -29.3040   22.3697 N   0  0  0  0  0  0
  -26.4292  -37.3797   23.9414 N   0  0  0  0  0  0
  -24.6745  -31.0678   22.0948 N   0  0  0  0  0  0
  -23.4183  -28.8159   23.2990 O   0  0  0  0  0  0
  -28.4015  -26.6374   20.0528 O   0  0  0  0  0  0
  -26.5606  -34.8932   22.4650 O   0  0  0  0  0  0
  -23.5345  -32.1364   23.7410 O   0  0  0  0  0  0
  -28.8524  -17.7051   19.3968 C   0  0  0  0  0  0
  -29.7075  -18.0012   20.4285 C   0  0  0  0  0  0
  -28.9821  -20.1288   19.8549 C   0  0  0  0  0  0
  -30.2869  -22.7917   21.3004 C   0  0  0  0  0  0
  -30.5354  -16.9786   21.2078 C   0  0  0  0  0  0
  -28.4938  -24.0483   19.8986 C   0  0  0  0  0  0
  -28.4422  -25.3683   20.7560 C   0  0  0  0  0  0
  -28.8908  -22.7215   20.6624 C   0  0  1  0  0  0
  -29.7511  -19.4007   20.6927 N   0  0  0  0  0  0
  -28.7819  -21.5232   19.8065 N   0  0  0  0  0  0
  -30.0584  -15.5729   21.1102 N   0  0  0  0  0  0
  -28.1299  -19.1261   18.6904 S   0  0  0  0  0  0
  -31.4603  -12.4285   19.1412 H   0  0  0  0  0  0
  -30.3084  -11.3385   19.8606 H   0  0  0  0  0  0
  -29.7483  -11.7803   17.4502 H   0  0  0  0  0  0
  -29.6688  -13.4960   17.7673 H   0  0  0  0  0  0
  -27.8254  -11.3205   18.8197 H   0  0  0  0  0  0
  -27.3741  -12.6485   17.7837 H   0  0  0  0  0  0
  -27.6850  -14.2663   19.5519 H   0  0  0  0  0  0
  -28.6809  -12.0381   21.3972 H   0  0  0  0  0  0
  -28.4540  -13.7042   21.8406 H   0  0  0  0  0  0
  -25.2800   -9.5682   22.4746 H   0  0  0  0  0  0
  -24.0049   -7.4613   22.7410 H   0  0  0  0  0  0
  -21.0880   -8.8825   19.8920 H   0  0  0  0  0  0
  -22.3746  -10.9723   19.6130 H   0  0  0  0  0  0
  -21.2005   -7.6154   23.9752 H   0  0  0  0  0  0
  -21.1476   -6.0500   25.9102 H   0  0  0  0  0  0
  -22.0597   -2.7611   23.2817 H   0  0  0  0  0  0
  -22.4124  -11.9884   22.4847 H   0  0  0  0  0  0
  -21.1111  -13.1213   22.2630 H   0  0  0  0  0  0
  -24.6707  -15.8507   20.5618 H   0  0  0  0  0  0
  -26.3003  -15.6405   20.1665 H   0  0  0  0  0  0
  -26.7112  -32.5526   23.1091 H   0  0  0  0  0  0
  -25.0123  -33.9756   25.0468 H   0  0  0  0  0  0
  -22.6998  -31.2939   21.3914 H   0  0  0  0  0  0
  -23.3766  -35.9625   23.3265 H   0  0  0  0  0  0
  -24.3575  -36.8950   22.2038 H   0  0  0  0  0  0
  -23.7234  -37.6492   23.6669 H   0  0  0  0  0  0
  -26.0386  -31.5736   20.5816 H   0  0  0  0  0  0
  -26.8317  -30.8884   21.9720 H   0  0  0  0  0  0
  -28.1162  -29.0638   21.1734 H   0  0  0  0  0  0
  -26.0730  -25.9227   19.0501 H   0  0  0  0  0  0
  -23.9901  -27.2551   19.0559 H   0  0  0  0  0  0
  -23.7420  -30.5668   19.3944 H   0  0  0  0  0  0
  -22.7550  -29.2143   19.8646 H   0  0  0  0  0  0
  -25.1304  -36.1920   25.0803 H   0  0  0  0  0  0
  -20.9966  -28.3281   24.1433 H   0  0  0  0  0  0
  -20.5737  -26.2292   23.3615 H   0  0  0  0  0  0
  -21.6659  -26.7502   22.1193 H   0  0  0  0  0  0
  -19.6942  -25.6312   21.1260 H   0  0  0  0  0  0
  -19.6719  -27.3216   20.6769 H   0  0  0  0  0  0
  -17.4221  -26.6697   21.4029 H   0  0  0  0  0  0
  -18.0336  -26.0089   22.9026 H   0  0  0  0  0  0
  -19.7937  -30.7305   24.2242 H   0  0  0  0  0  0
  -17.5022  -31.6262   24.5220 H   0  0  0  0  0  0
  -15.5362  -30.3033   23.7636 H   0  0  0  0  0  0
  -15.8675  -28.0880   22.7021 H   0  0  0  0  0  0
  -24.5889  -30.7114   25.7744 H   0  0  0  0  0  0
  -24.8961  -32.2934   26.4824 H   0  0  0  0  0  0
  -25.8064  -30.8922   27.0182 H   0  0  0  0  0  0
  -26.2864  -29.6800   24.1117 H   0  0  0  0  0  0
  -27.4080  -29.7269   25.4502 H   0  0  0  0  0  0
  -27.8686  -30.4346   23.9209 H   0  0  0  0  0  0
  -27.2654  -33.3620   26.2033 H   0  0  0  0  0  0
  -28.3881  -32.6880   25.0322 H   0  0  0  0  0  0
  -28.0681  -31.8449   26.5379 H   0  0  0  0  0  0
  -28.2559  -38.0139   24.7571 H   0  0  0  0  0  0
  -28.1136  -36.2674   24.6187 H   0  0  0  0  0  0
  -27.2302  -37.1331   25.8837 H   0  0  0  0  0  0
  -20.9303  -29.8753   21.6915 H   0  0  0  0  0  0
  -26.0157  -38.2850   24.1500 H   0  0  0  0  0  0
  -28.6187  -16.7332   18.9869 H   0  0  0  0  0  0
  -30.3903  -23.6339   21.9841 H   0  0  0  0  0  0
  -31.0684  -22.8710   20.5439 H   0  0  0  0  0  0
  -30.4846  -21.8981   21.8933 H   0  0  0  0  0  0
  -30.5558  -17.2441   22.2656 H   0  0  0  0  0  0
  -31.5779  -17.0407   20.8861 H   0  0  0  0  0  0
  -29.1730  -24.1927   19.0566 H   0  0  0  0  0  0
  -27.5091  -23.9035   19.4495 H   0  0  0  0  0  0
  -29.3676  -25.4398   21.3226 H   0  0  0  0  0  0
  -27.6512  -25.2998   21.5052 H   0  0  0  0  0  0
  -28.1685  -22.5888   21.4699 H   0  0  0  0  0  0
  -28.2678  -21.7397   18.9584 H   0  0  0  0  0  0
  -29.1449  -15.3900   21.4967 H   0  0  0  0  0  0
  1 25  1  0  0  0
  1 30  2  0  0  0
  1 81  1  0  0  0
  2  3  1  0  0  0
  2 25  1  0  0  0
  2 83  1  0  0  0
  2 84  1  0  0  0
  3  4  1  0  0  0
  3 85  1  0  0  0
  3 86  1  0  0  0
  4  5  1  0  0  0
  4 87  1  0  0  0
  4 88  1  0  0  0
  5  6  1  0  0  0
  5 26  1  0  0  0
  5 89  1  0  0  0
  6 25  1  0  0  0
  6 90  1  0  0  0
  6 91  1  0  0  0
  7  8  2  0  0  0
  7 26  1  0  0  0
  7 29  1  0  0  0
  8  9  1  0  0  0
  8 22  1  0  0  0
  9 10  1  0  0  0
  9 27  2  0  0  0
 10 11  2  0  0  0
 10 15  1  0  0  0
 11 12  1  0  0  0
 11 92  1  0  0  0
 12 13  2  0  0  0
 12 93  1  0  0  0
 13 14  1  0  0  0
 13 31  1  0  0  0
 14 15  2  0  0  0
 14 94  1  0  0  0
 15 95  1  0  0  0
 16 17  2  0  0  0
 16 21  1  0  0  0
 16 31  1  0  0  0
 17 18  1  0  0  0
 17 96  1  0  0  0
 18 19  2  0  0  0
 18 97  1  0  0  0
 19 20  1  0  0  0
 19 24  1  0  0  0
 20 21  2  0  0  0
 20 98  1  0  0  0
 21 23  1  0  0  0
 22 28  1  0  0  0
 22 32  2  0  0  0
 26 27  1  0  0  0
 28 99  1  0  0  0
 28100  1  0  0  0
 29101  1  0  0  0
 29102  1  0  0  0
 33 34  1  0  0  0
 33 66  1  0  0  0
 33 70  2  0  0  0
 34 36  1  0  0  0
 34 59  1  0  0  0
 34103  1  0  0  0
 35 44  2  0  0  0
 35 45  1  0  0  0
 35 68  1  0  0  0
 36 56  1  0  0  0
 36104  1  0  0  0
 37 39  1  0  0  0
 37 47  1  0  0  0
 37 66  1  0  0  0
 37105  1  0  0  0
 38 43  2  0  0  0
 38 46  1  0  0  0
 38 47  1  0  0  0
 39 64  1  0  0  0
 39 67  2  0  0  0
 40 52  1  0  0  0
 40 53  2  0  0  0
 40 58  1  0  0  0
 41106  1  0  0  0
 41107  1  0  0  0
 41108  1  0  0  0
 41 48  1  0  0  0
 42 43  1  0  0  0
 42 66  1  0  0  0
 42109  1  0  0  0
 42110  1  0  0  0
 43 44  1  0  0  0
 44111  1  0  0  0
 45 46  2  0  0  0
 45112  1  0  0  0
 46113  1  0  0  0
 47114  1  0  0  0
 47115  1  0  0  0
 48 56  1  0  0  0
 48 65  1  0  0  0
 48116  1  0  0  0
 49 50  1  0  0  0
 49 53  1  0  0  0
 49 64  1  0  0  0
 49117  1  0  0  0
 50 51  1  0  0  0
 50118  1  0  0  0
 50119  1  0  0  0
 51 52  1  0  0  0
 51120  1  0  0  0
 51121  1  0  0  0
 52122  1  0  0  0
 52123  1  0  0  0
 53 54  1  0  0  0
 54 55  2  0  0  0
 54124  1  0  0  0
 55 57  1  0  0  0
 55125  1  0  0  0
 56 69  2  0  0  0
 57 58  2  0  0  0
 57126  1  0  0  0
 58127  1  0  0  0
 59 60  1  0  0  0
 59 61  1  0  0  0
 59 62  1  0  0  0
 60128  1  0  0  0
 60129  1  0  0  0
 60130  1  0  0  0
 61131  1  0  0  0
 61132  1  0  0  0
 61133  1  0  0  0
 62134  1  0  0  0
 62135  1  0  0  0
 62136  1  0  0  0
 63 65  1  0  0  0
 63137  1  0  0  0
 63138  1  0  0  0
 63139  1  0  0  0
 64140  1  0  0  0
 65141  1  0  0  0
 68 77  1  0  0  0
 71 72  2  0  0  0
 71 82  1  0  0  0
 71142  1  0  0  0
 72 75  1  0  0  0
 72 79  1  0  0  0
 73 79  2  0  0  0
 73 80  1  0  0  0
 73 82  1  0  0  0
 74143  1  0  0  0
 74144  1  0  0  0
 74145  1  0  0  0
 74 78  1  0  0  0
 75 81  1  0  0  0
 75146  1  0  0  0
 75147  1  0  0  0
 76 77  1  0  0  0
 76 78  1  0  0  0
 76148  1  0  0  0
 76149  1  0  0  0
 77150  1  0  0  0
 77151  1  0  0  0
 78 80  1  0  0  0
 78152  1  0  0  0
 80153  1  0  0  0
 81154  1  0  0  0
M  ISO  4   1 100  68 101  77 101  81 100
M  END
> <chiral flag>
0

> <version>
0

> <s_m_source_file>
/data/baiqing/PycharmProjects/Reinvent-master-3.2/result/LINK_invent/BTK/process_docking_weight1_custom_product_contain_oxygen_bond_distance_aromatic_linkinvent_7_9_3/rearranged_h_0195.sdf

> <i_m_source_file_index>
80

> <r_mmod_Potential_Energy-OPLS-2005>
-229.664703369141

> <r_mmod_Stretch_Energy-OPLS-2005>
48.4233322143555

> <r_mmod_Bend_Energy-OPLS-2005>
115.47469329834

> <r_mmod_Torsional_Energy-OPLS-2005>
205.761657714844

> <r_mmod_Improper_Torsional_Energy-OPLS-2005>
3.26727962493896

> <r_mmod_Van_der_Waal_Energy-OPLS-2005>
116.989936828613

> <r_mmod_Electrostatic_Energy-OPLS-2005>
-508.628356933594

> <r_mmod_Solvation_Energy-OPLS-2005>
-230.907867431641

> <b_mmod_Minimization_Converged-OPLS-2005>
0

> <r_mmod_RMS_Derivative-OPLS-2005>
4.07384014129639

$$$$
80
                    3D
 Structure written by MMmdl.
155163  0  0  1  0            999 V2000
  -30.6063  -14.7901   20.4425 C   0  0  0  0  0  0
  -30.4377  -12.4853   19.4714 C   0  0  0  0  0  0
  -29.5135  -12.5106   18.2341 C   0  0  0  0  0  0
  -28.0431  -12.3180   18.6536 C   0  0  0  0  0  0
  -27.6384  -13.2346   19.8397 C   0  0  2  0  0  0
  -28.6862  -13.1964   20.9726 C   0  0  0  0  0  0
  -25.2494  -13.8182   20.5657 C   0  0  0  0  0  0
  -24.1811  -13.0420   20.9238 C   0  0  0  0  0  0
  -24.6427  -11.6900   20.8785 C   0  0  0  0  0  0
  -23.9098  -10.4273   21.0446 C   0  0  0  0  0  0
  -24.3642   -9.4187   21.9230 C   0  0  0  0  0  0
  -23.6304   -8.2221   22.0788 C   0  0  0  0  0  0
  -22.4294   -8.0274   21.3563 C   0  0  0  0  0  0
  -21.9930   -9.0260   20.4678 C   0  0  0  0  0  0
  -22.7266  -10.2132   20.3096 C   0  0  0  0  0  0
  -21.6853   -6.0736   22.5282 C   0  0  0  0  0  0
  -21.4011   -6.5637   23.8219 C   0  0  0  0  0  0
  -21.3658   -5.6791   24.9176 C   0  0  0  0  0  0
  -21.6042   -4.3054   24.7223 C   0  0  0  0  0  0
  -21.8822   -3.8151   23.4346 C   0  0  0  0  0  0
  -21.9185   -4.6968   22.3401 C   0  0  0  0  0  0
  -22.7816  -13.5183   21.1872 C   0  0  0  0  0  0
  -22.1657   -4.2147   21.0984 F   0  0  0  0  0  0
  -21.5630   -3.4542   25.7743 F   0  0  0  0  0  0
  -29.9804  -13.5608   20.3837 N   0  0  0  0  0  0
  -26.2935  -12.9412   20.3232 N   0  0  0  0  0  0
  -25.9356  -11.6552   20.5777 N   0  0  0  0  0  0
  -22.0440  -12.8205   22.0434 N   0  0  0  0  0  0
  -25.4064  -15.1920   20.4017 N   0  0  0  0  0  0
  -31.8047  -14.8706   20.1626 O   0  0  0  0  0  0
  -21.6647   -6.8886   21.4252 O   0  0  0  0  0  0
  -22.3494  -14.5482   20.6700 O   0  0  0  0  0  0
  -24.6325  -31.8529   23.1963 C   0  0  0  0  0  0
  -25.9143  -32.4738   23.8323 C   0  0  1  0  0  0
  -27.2223  -27.2400   20.1284 C   0  0  0  0  0  0
  -25.5928  -33.8540   24.2242 N   0  0  0  0  0  0
  -23.4308  -30.4742   21.5399 C   0  0  2  0  0  0
  -24.8775  -28.9156   20.1087 C   0  0  0  0  0  0
  -22.7511  -29.4594   22.4903 C   0  0  0  0  0  0
  -18.0292  -28.1385   22.8481 C   0  0  0  0  0  0
  -24.1497  -36.7272   23.2641 C   0  0  0  0  0  0
  -25.9786  -30.7582   21.3807 C   0  0  0  0  0  0
  -26.0488  -29.3809   20.7173 C   0  0  0  0  0  0
  -27.2198  -28.5558   20.7135 C   0  0  0  0  0  0
  -26.0222  -26.8401   19.5006 C   0  0  0  0  0  0
  -24.8714  -27.6557   19.4895 C   0  0  0  0  0  0
  -23.6511  -29.8073   20.1561 C   0  0  0  0  0  0
  -25.4121  -36.3053   24.0327 C   0  0  1  0  0  0
  -20.5898  -28.3701   23.1269 C   0  0  2  0  0  0
  -20.6779  -26.9414   22.5418 C   0  0  0  0  0  0
  -19.5761  -26.6380   21.5219 C   0  0  0  0  0  0
  -18.1934  -26.7930   22.1620 C   0  0  0  0  0  0
  -19.1543  -28.8861   23.2871 C   0  0  0  0  0  0
  -18.9467  -30.1458   23.8896 C   0  0  0  0  0  0
  -17.6465  -30.6587   24.0558 C   0  0  0  0  0  0
  -25.9058  -34.9423   23.5084 C   0  0  0  0  0  0
  -16.5356  -29.9082   23.6323 C   0  0  0  0  0  0
  -16.7279  -28.6497   23.0351 C   0  0  0  0  0  0
  -26.4510  -31.6578   25.0724 C   0  0  0  0  0  0
  -25.3730  -31.3753   26.1454 C   0  0  0  0  0  0
  -27.0379  -30.2984   24.6257 C   0  0  0  0  0  0
  -27.6055  -32.4346   25.7483 C   0  0  0  0  0  0
  -27.5581  -37.1798   24.8460 C   0  0  0  0  0  0
  -21.4214  -29.3040   22.3647 N   0  0  0  0  0  0
  -26.4290  -37.3757   23.9402 N   0  0  0  0  0  0
  -24.6998  -31.0481   22.0945 N   0  0  0  0  0  0
  -23.4209  -28.8135   23.3007 O   0  0  0  0  0  0
  -28.3416  -26.3713   20.2097 O   0  0  0  0  0  0
  -26.5647  -34.8905   22.4672 O   0  0  0  0  0  0
  -23.5474  -32.1364   23.7250 O   0  0  0  0  0  0
  -27.1925  -19.5206   19.3264 C   0  0  0  0  0  0
  -27.9995  -18.3871   19.5757 C   0  0  0  0  0  0
  -29.2482  -18.6210   20.2055 C   0  0  0  0  0  0
  -28.7421  -20.9785   20.1514 C   0  0  0  0  0  0
  -26.9437  -23.3927   21.1927 C   0  0  0  0  0  0
  -30.2627  -17.4211   20.5484 C   0  0  0  0  0  0
  -28.4047  -24.9453   19.7038 C   0  0  0  0  0  0
  -28.3727  -23.6437   20.6850 C   0  0  2  0  0  0
  -27.5577  -20.7866   19.6068 N   0  0  0  0  0  0
  -29.5932  -19.9511   20.4577 N   0  0  0  0  0  0
  -27.5677  -17.1253   19.1423 N   0  0  0  0  0  0
  -29.1309  -22.3542   20.3219 N   0  0  0  0  0  0
  -29.8447  -15.9406   20.6043 N   0  0  0  0  0  0
  -31.4777  -12.6128   19.1673 H   0  0  0  0  0  0
  -30.3915  -11.5149   19.9693 H   0  0  0  0  0  0
  -29.8078  -11.7356   17.5247 H   0  0  0  0  0  0
  -29.6262  -13.4624   17.7129 H   0  0  0  0  0  0
  -27.9228  -11.2720   18.9395 H   0  0  0  0  0  0
  -27.3800  -12.4765   17.8023 H   0  0  0  0  0  0
  -27.6213  -14.2478   19.4402 H   0  0  0  0  0  0
  -28.7377  -12.2016   21.4176 H   0  0  0  0  0  0
  -28.4137  -13.8816   21.7764 H   0  0  0  0  0  0
  -25.2776   -9.5649   22.4817 H   0  0  0  0  0  0
  -24.0005   -7.4616   22.7514 H   0  0  0  0  0  0
  -21.0857   -8.8789   19.8984 H   0  0  0  0  0  0
  -22.3730  -10.9690   19.6217 H   0  0  0  0  0  0
  -21.2011   -7.6151   23.9711 H   0  0  0  0  0  0
  -21.1475   -6.0532   25.9076 H   0  0  0  0  0  0
  -22.0599   -2.7608   23.2848 H   0  0  0  0  0  0
  -22.4027  -11.9884   22.4893 H   0  0  0  0  0  0
  -21.1078  -13.1279   22.2612 H   0  0  0  0  0  0
  -24.6214  -15.8233   20.5158 H   0  0  0  0  0  0
  -26.2325  -15.6681   20.0404 H   0  0  0  0  0  0
  -26.7201  -32.5366   23.1054 H   0  0  0  0  0  0
  -25.0031  -33.9674   25.0358 H   0  0  0  0  0  0
  -22.7281  -31.2967   21.3919 H   0  0  0  0  0  0
  -23.3752  -35.9610   23.3295 H   0  0  0  0  0  0
  -24.3581  -36.8908   22.2054 H   0  0  0  0  0  0
  -23.7261  -37.6472   23.6682 H   0  0  0  0  0  0
  -26.1284  -31.5241   20.6192 H   0  0  0  0  0  0
  -26.8518  -30.7984   22.0208 H   0  0  0  0  0  0
  -28.1181  -28.9093   21.1994 H   0  0  0  0  0  0
  -25.9305  -25.8715   19.0359 H   0  0  0  0  0  0
  -23.9715  -27.2893   19.0140 H   0  0  0  0  0  0
  -23.7818  -30.5865   19.4038 H   0  0  0  0  0  0
  -22.7679  -29.2465   19.8438 H   0  0  0  0  0  0
  -25.1304  -36.1893   25.0821 H   0  0  0  0  0  0
  -20.9983  -28.3292   24.1395 H   0  0  0  0  0  0
  -20.5670  -26.2313   23.3626 H   0  0  0  0  0  0
  -21.6650  -26.7439   22.1222 H   0  0  0  0  0  0
  -19.6926  -25.6288   21.1258 H   0  0  0  0  0  0
  -19.6703  -27.3184   20.6744 H   0  0  0  0  0  0
  -17.4209  -26.6677   21.4012 H   0  0  0  0  0  0
  -18.0324  -26.0076   22.9017 H   0  0  0  0  0  0
  -19.7943  -30.7261   24.2278 H   0  0  0  0  0  0
  -17.5022  -31.6269   24.5157 H   0  0  0  0  0  0
  -15.5353  -30.2987   23.7648 H   0  0  0  0  0  0
  -15.8677  -28.0809   22.7084 H   0  0  0  0  0  0
  -24.5910  -30.7088   25.7799 H   0  0  0  0  0  0
  -24.8913  -32.2930   26.4835 H   0  0  0  0  0  0
  -25.8055  -30.8965   27.0247 H   0  0  0  0  0  0
  -26.2982  -29.6683   24.1306 H   0  0  0  0  0  0
  -27.4060  -29.7303   25.4805 H   0  0  0  0  0  0
  -27.8856  -30.4224   23.9517 H   0  0  0  0  0  0
  -27.2662  -33.3673   26.1996 H   0  0  0  0  0  0
  -28.3887  -32.6870   25.0324 H   0  0  0  0  0  0
  -28.0696  -31.8508   26.5441 H   0  0  0  0  0  0
  -28.2584  -38.0101   24.7491 H   0  0  0  0  0  0
  -28.1096  -36.2634   24.6304 H   0  0  0  0  0  0
  -27.2302  -37.1457   25.8862 H   0  0  0  0  0  0
  -20.9410  -29.8743   21.6825 H   0  0  0  0  0  0
  -26.0162  -38.2829   24.1396 H   0  0  0  0  0  0
  -26.2336  -19.4110   18.8424 H   0  0  0  0  0  0
  -26.5317  -24.3024   21.6310 H   0  0  0  0  0  0
  -26.9221  -22.6240   21.9662 H   0  0  0  0  0  0
  -26.2745  -23.0894   20.3863 H   0  0  0  0  0  0
  -30.7109  -17.6642   21.5134 H   0  0  0  0  0  0
  -31.0766  -17.5091   19.8279 H   0  0  0  0  0  0
  -27.7060  -24.7903   18.8848 H   0  0  0  0  0  0
  -29.3735  -24.9116   19.2067 H   0  0  0  0  0  0
  -28.9282  -23.9718   21.5643 H   0  0  0  0  0  0
  -26.8264  -17.1456   18.4450 H   0  0  0  0  0  0
  -28.3061  -16.5023   18.8313 H   0  0  0  0  0  0
  -30.1061  -22.4213   20.5886 H   0  0  0  0  0  0
  -28.8492  -15.8135   20.7244 H   0  0  0  0  0  0
  1 25  1  0  0  0
  1 30  2  0  0  0
  1 83  1  0  0  0
  2  3  1  0  0  0
  2 25  1  0  0  0
  2 84  1  0  0  0
  2 85  1  0  0  0
  3  4  1  0  0  0
  3 86  1  0  0  0
  3 87  1  0  0  0
  4  5  1  0  0  0
  4 88  1  0  0  0
  4 89  1  0  0  0
  5  6  1  0  0  0
  5 26  1  0  0  0
  5 90  1  0  0  0
  6 25  1  0  0  0
  6 91  1  0  0  0
  6 92  1  0  0  0
  7  8  2  0  0  0
  7 26  1  0  0  0
  7 29  1  0  0  0
  8  9  1  0  0  0
  8 22  1  0  0  0
  9 10  1  0  0  0
  9 27  2  0  0  0
 10 11  2  0  0  0
 10 15  1  0  0  0
 11 12  1  0  0  0
 11 93  1  0  0  0
 12 13  2  0  0  0
 12 94  1  0  0  0
 13 14  1  0  0  0
 13 31  1  0  0  0
 14 15  2  0  0  0
 14 95  1  0  0  0
 15 96  1  0  0  0
 16 17  2  0  0  0
 16 21  1  0  0  0
 16 31  1  0  0  0
 17 18  1  0  0  0
 17 97  1  0  0  0
 18 19  2  0  0  0
 18 98  1  0  0  0
 19 20  1  0  0  0
 19 24  1  0  0  0
 20 21  2  0  0  0
 20 99  1  0  0  0
 21 23  1  0  0  0
 22 28  1  0  0  0
 22 32  2  0  0  0
 26 27  1  0  0  0
 28100  1  0  0  0
 28101  1  0  0  0
 29102  1  0  0  0
 29103  1  0  0  0
 33 34  1  0  0  0
 33 66  1  0  0  0
 33 70  2  0  0  0
 34 36  1  0  0  0
 34 59  1  0  0  0
 34104  1  0  0  0
 35 44  2  0  0  0
 35 45  1  0  0  0
 35 68  1  0  0  0
 36 56  1  0  0  0
 36105  1  0  0  0
 37 39  1  0  0  0
 37 47  1  0  0  0
 37 66  1  0  0  0
 37106  1  0  0  0
 38 43  2  0  0  0
 38 46  1  0  0  0
 38 47  1  0  0  0
 39 64  1  0  0  0
 39 67  2  0  0  0
 40 52  1  0  0  0
 40 53  2  0  0  0
 40 58  1  0  0  0
 41107  1  0  0  0
 41108  1  0  0  0
 41109  1  0  0  0
 41 48  1  0  0  0
 42 43  1  0  0  0
 42 66  1  0  0  0
 42110  1  0  0  0
 42111  1  0  0  0
 43 44  1  0  0  0
 44112  1  0  0  0
 45 46  2  0  0  0
 45113  1  0  0  0
 46114  1  0  0  0
 47115  1  0  0  0
 47116  1  0  0  0
 48 56  1  0  0  0
 48 65  1  0  0  0
 48117  1  0  0  0
 49 50  1  0  0  0
 49 53  1  0  0  0
 49 64  1  0  0  0
 49118  1  0  0  0
 50 51  1  0  0  0
 50119  1  0  0  0
 50120  1  0  0  0
 51 52  1  0  0  0
 51121  1  0  0  0
 51122  1  0  0  0
 52123  1  0  0  0
 52124  1  0  0  0
 53 54  1  0  0  0
 54 55  2  0  0  0
 54125  1  0  0  0
 55 57  1  0  0  0
 55126  1  0  0  0
 56 69  2  0  0  0
 57 58  2  0  0  0
 57127  1  0  0  0
 58128  1  0  0  0
 59 60  1  0  0  0
 59 61  1  0  0  0
 59 62  1  0  0  0
 60129  1  0  0  0
 60130  1  0  0  0
 60131  1  0  0  0
 61132  1  0  0  0
 61133  1  0  0  0
 61134  1  0  0  0
 62135  1  0  0  0
 62136  1  0  0  0
 62137  1  0  0  0
 63 65  1  0  0  0
 63138  1  0  0  0
 63139  1  0  0  0
 63140  1  0  0  0
 64141  1  0  0  0
 65142  1  0  0  0
 68 77  1  0  0  0
 71 72  2  0  0  0
 71 79  1  0  0  0
 71143  1  0  0  0
 72 73  1  0  0  0
 72 81  1  0  0  0
 73 76  1  0  0  0
 73 80  2  0  0  0
 74 79  2  0  0  0
 74 80  1  0  0  0
 74 82  1  0  0  0
 75144  1  0  0  0
 75145  1  0  0  0
 75146  1  0  0  0
 75 78  1  0  0  0
 76 83  1  0  0  0
 76147  1  0  0  0
 76148  1  0  0  0
 77 78  1  0  0  0
 77149  1  0  0  0
 77150  1  0  0  0
 78 82  1  0  0  0
 78151  1  0  0  0
 81152  1  0  0  0
 81153  1  0  0  0
 82154  1  0  0  0
 83155  1  0  0  0
M  ISO  4   1 100  68 101  77 101  83 100
M  END
> <chiral flag>
0

> <version>
0

> <s_m_source_file>
/data/baiqing/PycharmProjects/Reinvent-master-3.2/result/LINK_invent/BTK/process_docking_weight1_custom_product_contain_oxygen_bond_distance_aromatic_linkinvent_7_9_3/rearranged_h_0195.sdf

> <i_m_source_file_index>
81

> <r_mmod_Potential_Energy-OPLS-2005>
-375.154510498047

> <r_mmod_Stretch_Energy-OPLS-2005>
135.189712524414

> <r_mmod_Bend_Energy-OPLS-2005>
208.353698730469

> <r_mmod_Torsional_Energy-OPLS-2005>
203.652252197266

> <r_mmod_Improper_Torsional_Energy-OPLS-2005>
11.8906164169312

> <r_mmod_Van_der_Waal_Energy-OPLS-2005>
140.354049682617

> <r_mmod_Electrostatic_Energy-OPLS-2005>
-935.399291992188

> <r_mmod_Solvation_Energy-OPLS-2005>
-240.691757202148

> <b_mmod_Minimization_Converged-OPLS-2005>
0

> <r_mmod_RMS_Derivative-OPLS-2005>
2.48320627212524

$$$$
81
                    3D
 Structure written by MMmdl.
151159  0  0  1  0            999 V2000
  -30.5885  -14.7757   20.4529 C   0  0  0  0  0  0
  -30.4337  -12.4726   19.4781 C   0  0  0  0  0  0
  -29.5058  -12.4943   18.2418 C   0  0  0  0  0  0
  -28.0382  -12.3046   18.6659 C   0  0  0  0  0  0
  -27.6380  -13.2266   19.8480 C   0  0  2  0  0  0
  -28.6820  -13.1801   20.9845 C   0  0  0  0  0  0
  -25.2504  -13.8193   20.5695 C   0  0  0  0  0  0
  -24.1803  -13.0440   20.9202 C   0  0  0  0  0  0
  -24.6381  -11.6910   20.8761 C   0  0  0  0  0  0
  -23.9055  -10.4294   21.0419 C   0  0  0  0  0  0
  -24.3613   -9.4214   21.9190 C   0  0  0  0  0  0
  -23.6294   -8.2244   22.0747 C   0  0  0  0  0  0
  -22.4274   -8.0279   21.3537 C   0  0  0  0  0  0
  -21.9917   -9.0255   20.4640 C   0  0  0  0  0  0
  -22.7236  -10.2136   20.3062 C   0  0  0  0  0  0
  -21.6855   -6.0736   22.5278 C   0  0  0  0  0  0
  -21.4012   -6.5642   23.8211 C   0  0  0  0  0  0
  -21.3655   -5.6794   24.9176 C   0  0  0  0  0  0
  -21.6048   -4.3058   24.7227 C   0  0  0  0  0  0
  -21.8824   -3.8149   23.4347 C   0  0  0  0  0  0
  -21.9192   -4.6965   22.3403 C   0  0  0  0  0  0
  -22.7828  -13.5221   21.1857 C   0  0  0  0  0  0
  -22.1661   -4.2151   21.0980 F   0  0  0  0  0  0
  -21.5623   -3.4544   25.7740 F   0  0  0  0  0  0
  -29.9779  -13.5411   20.3986 N   0  0  0  0  0  0
  -26.2920  -12.9385   20.3296 N   0  0  0  0  0  0
  -25.9312  -11.6532   20.5782 N   0  0  0  0  0  0
  -22.0492  -12.8211   22.0420 N   0  0  0  0  0  0
  -25.4189  -15.1923   20.4077 N   0  0  0  0  0  0
  -31.7773  -14.8827   20.1400 O   0  0  0  0  0  0
  -21.6640   -6.8875   21.4232 O   0  0  0  0  0  0
  -22.3514  -14.5524   20.6694 O   0  0  0  0  0  0
  -24.6325  -31.8520   23.1942 C   0  0  0  0  0  0
  -25.9142  -32.4736   23.8294 C   0  0  1  0  0  0
  -27.2186  -27.2358   20.1475 C   0  0  0  0  0  0
  -25.5921  -33.8537   24.2236 N   0  0  0  0  0  0
  -23.4325  -30.4708   21.5383 C   0  0  2  0  0  0
  -24.8802  -28.9062   20.1142 C   0  0  0  0  0  0
  -22.7517  -29.4580   22.4901 C   0  0  0  0  0  0
  -18.0295  -28.1381   22.8509 C   0  0  0  0  0  0
  -24.1489  -36.7274   23.2645 C   0  0  0  0  0  0
  -25.9788  -30.7576   21.3751 C   0  0  0  0  0  0
  -26.0525  -29.3752   20.7224 C   0  0  0  0  0  0
  -27.2285  -28.5554   20.7191 C   0  0  0  0  0  0
  -26.0248  -26.8282   19.5214 C   0  0  0  0  0  0
  -24.8714  -27.6409   19.5013 C   0  0  0  0  0  0
  -23.6540  -29.8008   20.1551 C   0  0  0  0  0  0
  -25.4119  -36.3066   24.0330 C   0  0  1  0  0  0
  -20.5900  -28.3715   23.1287 C   0  0  2  0  0  0
  -20.6767  -26.9428   22.5454 C   0  0  0  0  0  0
  -19.5755  -26.6435   21.5223 C   0  0  0  0  0  0
  -18.1958  -26.7908   22.1690 C   0  0  0  0  0  0
  -19.1544  -28.8868   23.2894 C   0  0  0  0  0  0
  -18.9453  -30.1468   23.8915 C   0  0  0  0  0  0
  -17.6453  -30.6585   24.0573 C   0  0  0  0  0  0
  -25.9056  -34.9432   23.5092 C   0  0  0  0  0  0
  -16.5355  -29.9075   23.6320 C   0  0  0  0  0  0
  -16.7279  -28.6489   23.0344 C   0  0  0  0  0  0
  -26.4502  -31.6566   25.0694 C   0  0  0  0  0  0
  -25.3721  -31.3702   26.1409 C   0  0  0  0  0  0
  -27.0362  -30.2987   24.6190 C   0  0  0  0  0  0
  -27.6057  -32.4303   25.7460 C   0  0  0  0  0  0
  -27.5583  -37.1799   24.8473 C   0  0  0  0  0  0
  -21.4220  -29.3032   22.3634 N   0  0  0  0  0  0
  -26.4296  -37.3769   23.9412 N   0  0  0  0  0  0
  -24.7009  -31.0458   22.0931 N   0  0  0  0  0  0
  -23.4185  -28.8152   23.3044 O   0  0  0  0  0  0
  -28.3205  -26.3485   20.1369 O   0  0  0  0  0  0
  -26.5642  -34.8923   22.4672 O   0  0  0  0  0  0
  -23.5464  -32.1349   23.7221 O   0  0  0  0  0  0
  -29.1935  -18.6595   20.4728 C   0  0  0  0  0  0
  -27.1116  -19.4151   20.3141 C   0  0  0  0  0  0
  -28.7157  -20.9352   20.3859 C   0  0  0  0  0  0
  -30.1752  -17.3906   20.5515 C   0  0  0  0  0  0
  -28.4437  -23.5682   19.8324 C   0  0  0  0  0  0
  -28.2073  -24.9422   20.6895 C   0  0  0  0  0  0
  -27.8966  -18.3569   20.3955 N   0  0  0  0  0  0
  -29.6593  -19.9543   20.4925 N   0  0  0  0  0  0
  -27.4179  -20.7032   20.2812 N   0  0  0  0  0  0
  -25.7866  -19.1249   20.2600 N   0  0  0  0  0  0
  -29.0837  -22.3263   20.4628 N   0  0  0  0  0  0
  -29.8066  -15.9042   20.6467 N   0  0  0  0  0  0
  -31.4716  -12.6090   19.1717 H   0  0  0  0  0  0
  -30.3933  -11.5028   19.9754 H   0  0  0  0  0  0
  -29.7958  -11.7102   17.5403 H   0  0  0  0  0  0
  -29.6166  -13.4403   17.7096 H   0  0  0  0  0  0
  -27.9206  -11.2613   18.9607 H   0  0  0  0  0  0
  -27.3690  -12.4545   17.8173 H   0  0  0  0  0  0
  -27.6255  -14.2396   19.4446 H   0  0  0  0  0  0
  -28.7293  -12.1873   21.4354 H   0  0  0  0  0  0
  -28.4096  -13.8679   21.7864 H   0  0  0  0  0  0
  -25.2761   -9.5696   22.4763 H   0  0  0  0  0  0
  -24.0012   -7.4639   22.7475 H   0  0  0  0  0  0
  -21.0847   -8.8772   19.8947 H   0  0  0  0  0  0
  -22.3697  -10.9673   19.6171 H   0  0  0  0  0  0
  -21.1999   -7.6154   23.9710 H   0  0  0  0  0  0
  -21.1469   -6.0526   25.9075 H   0  0  0  0  0  0
  -22.0602   -2.7611   23.2844 H   0  0  0  0  0  0
  -22.4123  -11.9869   22.4800 H   0  0  0  0  0  0
  -21.1095  -13.1203   22.2630 H   0  0  0  0  0  0
  -24.6322  -15.8267   20.4814 H   0  0  0  0  0  0
  -26.2604  -15.6403   20.0666 H   0  0  0  0  0  0
  -26.7216  -32.5373   23.1031 H   0  0  0  0  0  0
  -25.0043  -33.9645   25.0366 H   0  0  0  0  0  0
  -22.7292  -31.2922   21.3885 H   0  0  0  0  0  0
  -23.3752  -35.9601   23.3302 H   0  0  0  0  0  0
  -24.3578  -36.8897   22.2059 H   0  0  0  0  0  0
  -23.7240  -37.6476   23.6666 H   0  0  0  0  0  0
  -26.1202  -31.5136   20.6021 H   0  0  0  0  0  0
  -26.8555  -30.8087   22.0087 H   0  0  0  0  0  0
  -28.1344  -28.9155   21.1880 H   0  0  0  0  0  0
  -25.9810  -25.8567   19.0490 H   0  0  0  0  0  0
  -23.9749  -27.2736   19.0205 H   0  0  0  0  0  0
  -23.7899  -30.5785   19.4013 H   0  0  0  0  0  0
  -22.7707  -29.2392   19.8454 H   0  0  0  0  0  0
  -25.1305  -36.1909   25.0823 H   0  0  0  0  0  0
  -21.0009  -28.3304   24.1405 H   0  0  0  0  0  0
  -20.5611  -26.2344   23.3671 H   0  0  0  0  0  0
  -21.6638  -26.7401   22.1289 H   0  0  0  0  0  0
  -19.6928  -25.6375   21.1191 H   0  0  0  0  0  0
  -19.6635  -27.3324   20.6809 H   0  0  0  0  0  0
  -17.4185  -26.6526   21.4156 H   0  0  0  0  0  0
  -18.0459  -26.0091   22.9159 H   0  0  0  0  0  0
  -19.7931  -30.7284   24.2285 H   0  0  0  0  0  0
  -17.4997  -31.6257   24.5194 H   0  0  0  0  0  0
  -15.5359  -30.2990   23.7608 H   0  0  0  0  0  0
  -15.8686  -28.0794   22.7051 H   0  0  0  0  0  0
  -24.5900  -30.7058   25.7718 H   0  0  0  0  0  0
  -24.8897  -32.2864   26.4829 H   0  0  0  0  0  0
  -25.8023  -30.8869   27.0193 H   0  0  0  0  0  0
  -26.2957  -29.6710   24.1227 H   0  0  0  0  0  0
  -27.4074  -29.7270   25.4708 H   0  0  0  0  0  0
  -27.8813  -30.4266   23.9420 H   0  0  0  0  0  0
  -27.2683  -33.3613   26.2023 H   0  0  0  0  0  0
  -28.3867  -32.6849   25.0282 H   0  0  0  0  0  0
  -28.0734  -31.8441   26.5383 H   0  0  0  0  0  0
  -28.2616  -38.0084   24.7520 H   0  0  0  0  0  0
  -28.1070  -36.2620   24.6304 H   0  0  0  0  0  0
  -27.2300  -37.1459   25.8878 H   0  0  0  0  0  0
  -20.9426  -29.8681   21.6769 H   0  0  0  0  0  0
  -26.0168  -38.2844   24.1398 H   0  0  0  0  0  0
  -29.8134  -17.2079   19.5377 H   0  0  0  0  0  0
  -29.7645  -17.3220   21.5595 H   0  0  0  0  0  0
  -29.0911  -23.8264   18.9936 H   0  0  0  0  0  0
  -27.4965  -23.2819   19.3718 H   0  0  0  0  0  0
  -28.9394  -24.9265   21.4970 H   0  0  0  0  0  0
  -27.2502  -24.8506   21.2063 H   0  0  0  0  0  0
  -25.5299  -18.2084   20.6005 H   0  0  0  0  0  0
  -25.1615  -19.8691   20.5355 H   0  0  0  0  0  0
  -30.0758  -22.4445   20.6361 H   0  0  0  0  0  0
  -28.8265  -15.7480   20.8262 H   0  0  0  0  0  0
  1 25  1  0  0  0
  1 30  2  0  0  0
  1 82  1  0  0  0
  2  3  1  0  0  0
  2 25  1  0  0  0
  2 83  1  0  0  0
  2 84  1  0  0  0
  3  4  1  0  0  0
  3 85  1  0  0  0
  3 86  1  0  0  0
  4  5  1  0  0  0
  4 87  1  0  0  0
  4 88  1  0  0  0
  5  6  1  0  0  0
  5 26  1  0  0  0
  5 89  1  0  0  0
  6 25  1  0  0  0
  6 90  1  0  0  0
  6 91  1  0  0  0
  7  8  2  0  0  0
  7 26  1  0  0  0
  7 29  1  0  0  0
  8  9  1  0  0  0
  8 22  1  0  0  0
  9 10  1  0  0  0
  9 27  2  0  0  0
 10 11  2  0  0  0
 10 15  1  0  0  0
 11 12  1  0  0  0
 11 92  1  0  0  0
 12 13  2  0  0  0
 12 93  1  0  0  0
 13 14  1  0  0  0
 13 31  1  0  0  0
 14 15  2  0  0  0
 14 94  1  0  0  0
 15 95  1  0  0  0
 16 17  2  0  0  0
 16 21  1  0  0  0
 16 31  1  0  0  0
 17 18  1  0  0  0
 17 96  1  0  0  0
 18 19  2  0  0  0
 18 97  1  0  0  0
 19 20  1  0  0  0
 19 24  1  0  0  0
 20 21  2  0  0  0
 20 98  1  0  0  0
 21 23  1  0  0  0
 22 28  1  0  0  0
 22 32  2  0  0  0
 26 27  1  0  0  0
 28 99  1  0  0  0
 28100  1  0  0  0
 29101  1  0  0  0
 29102  1  0  0  0
 33 34  1  0  0  0
 33 66  1  0  0  0
 33 70  2  0  0  0
 34 36  1  0  0  0
 34 59  1  0  0  0
 34103  1  0  0  0
 35 44  2  0  0  0
 35 45  1  0  0  0
 35 68  1  0  0  0
 36 56  1  0  0  0
 36104  1  0  0  0
 37 39  1  0  0  0
 37 47  1  0  0  0
 37 66  1  0  0  0
 37105  1  0  0  0
 38 43  2  0  0  0
 38 46  1  0  0  0
 38 47  1  0  0  0
 39 64  1  0  0  0
 39 67  2  0  0  0
 40 52  1  0  0  0
 40 53  2  0  0  0
 40 58  1  0  0  0
 41106  1  0  0  0
 41107  1  0  0  0
 41108  1  0  0  0
 41 48  1  0  0  0
 42 43  1  0  0  0
 42 66  1  0  0  0
 42109  1  0  0  0
 42110  1  0  0  0
 43 44  1  0  0  0
 44111  1  0  0  0
 45 46  2  0  0  0
 45112  1  0  0  0
 46113  1  0  0  0
 47114  1  0  0  0
 47115  1  0  0  0
 48 56  1  0  0  0
 48 65  1  0  0  0
 48116  1  0  0  0
 49 50  1  0  0  0
 49 53  1  0  0  0
 49 64  1  0  0  0
 49117  1  0  0  0
 50 51  1  0  0  0
 50118  1  0  0  0
 50119  1  0  0  0
 51 52  1  0  0  0
 51120  1  0  0  0
 51121  1  0  0  0
 52122  1  0  0  0
 52123  1  0  0  0
 53 54  1  0  0  0
 54 55  2  0  0  0
 54124  1  0  0  0
 55 57  1  0  0  0
 55125  1  0  0  0
 56 69  2  0  0  0
 57 58  2  0  0  0
 57126  1  0  0  0
 58127  1  0  0  0
 59 60  1  0  0  0
 59 61  1  0  0  0
 59 62  1  0  0  0
 60128  1  0  0  0
 60129  1  0  0  0
 60130  1  0  0  0
 61131  1  0  0  0
 61132  1  0  0  0
 61133  1  0  0  0
 62134  1  0  0  0
 62135  1  0  0  0
 62136  1  0  0  0
 63 65  1  0  0  0
 63137  1  0  0  0
 63138  1  0  0  0
 63139  1  0  0  0
 64140  1  0  0  0
 65141  1  0  0  0
 68 76  1  0  0  0
 71 74  1  0  0  0
 71 77  1  0  0  0
 71 78  2  0  0  0
 72 77  2  0  0  0
 72 79  1  0  0  0
 72 80  1  0  0  0
 73 78  1  0  0  0
 73 79  2  0  0  0
 73 81  1  0  0  0
 74 82  1  0  0  0
 74142  1  0  0  0
 74143  1  0  0  0
 75 76  1  0  0  0
 75 81  1  0  0  0
 75144  1  0  0  0
 75145  1  0  0  0
 76146  1  0  0  0
 76147  1  0  0  0
 80148  1  0  0  0
 80149  1  0  0  0
 81150  1  0  0  0
 82151  1  0  0  0
M  ISO  4   1 100  68 101  76 101  82 100
M  END
> <chiral flag>
0

> <version>
0

> <s_m_source_file>
/data/baiqing/PycharmProjects/Reinvent-master-3.2/result/LINK_invent/BTK/process_docking_weight1_custom_product_contain_oxygen_bond_distance_aromatic_linkinvent_7_9_3/rearranged_h_0195.sdf

> <i_m_source_file_index>
82

> <r_mmod_Potential_Energy-OPLS-2005>
-746.105712890625

> <r_mmod_Stretch_Energy-OPLS-2005>
128.763549804688

> <r_mmod_Bend_Energy-OPLS-2005>
376.965972900391

> <r_mmod_Torsional_Energy-OPLS-2005>
226.341354370117

> <r_mmod_Improper_Torsional_Energy-OPLS-2005>
10.3795347213745

> <r_mmod_Van_der_Waal_Energy-OPLS-2005>
154.170867919922

> <r_mmod_Electrostatic_Energy-OPLS-2005>
-1491.61633300781

> <r_mmod_Solvation_Energy-OPLS-2005>
-249.5654296875

> <b_mmod_Minimization_Converged-OPLS-2005>
0

> <r_mmod_RMS_Derivative-OPLS-2005>
2.12253832817078

$$$$
82
                    3D
 Structure written by MMmdl.
165173  0  0  1  0            999 V2000
  -30.6922  -14.4686   20.5881 C   0  0  0  0  0  0
  -30.4253  -12.3063   19.4254 C   0  0  0  0  0  0
  -29.4964  -12.5016   18.2085 C   0  0  0  0  0  0
  -28.0171  -12.3577   18.6183 C   0  0  0  0  0  0
  -27.6606  -13.2000   19.8724 C   0  0  2  0  0  0
  -28.6983  -12.9751   20.9954 C   0  0  0  0  0  0
  -25.2592  -13.8146   20.5669 C   0  0  0  0  0  0
  -24.1842  -13.0436   20.9179 C   0  0  0  0  0  0
  -24.6382  -11.6896   20.8728 C   0  0  0  0  0  0
  -23.9043  -10.4288   21.0402 C   0  0  0  0  0  0
  -24.3606   -9.4206   21.9186 C   0  0  0  0  0  0
  -23.6282   -8.2247   22.0753 C   0  0  0  0  0  0
  -22.4267   -8.0280   21.3543 C   0  0  0  0  0  0
  -21.9889   -9.0257   20.4649 C   0  0  0  0  0  0
  -22.7213  -10.2140   20.3057 C   0  0  0  0  0  0
  -21.6853   -6.0734   22.5271 C   0  0  0  0  0  0
  -21.4014   -6.5638   23.8211 C   0  0  0  0  0  0
  -21.3657   -5.6788   24.9172 C   0  0  0  0  0  0
  -21.6044   -4.3050   24.7223 C   0  0  0  0  0  0
  -21.8819   -3.8143   23.4343 C   0  0  0  0  0  0
  -21.9193   -4.6958   22.3395 C   0  0  0  0  0  0
  -22.7869  -13.5253   21.1831 C   0  0  0  0  0  0
  -22.1664   -4.2146   21.0975 F   0  0  0  0  0  0
  -21.5620   -3.4533   25.7733 F   0  0  0  0  0  0
  -30.0330  -13.2848   20.4523 N   0  0  0  0  0  0
  -26.3009  -12.9298   20.3327 N   0  0  0  0  0  0
  -25.9300  -11.6468   20.5747 N   0  0  0  0  0  0
  -22.0497  -12.8267   22.0395 N   0  0  0  0  0  0
  -25.4311  -15.1864   20.4062 N   0  0  0  0  0  0
  -31.8175  -14.6592   20.1154 O   0  0  0  0  0  0
  -21.6634   -6.8875   21.4237 O   0  0  0  0  0  0
  -22.3567  -14.5569   20.6682 O   0  0  0  0  0  0
  -24.6143  -31.8668   23.2089 C   0  0  0  0  0  0
  -25.9035  -32.4815   23.8385 C   0  0  1  0  0  0
  -27.2401  -27.4309   20.0849 C   0  0  0  0  0  0
  -25.5894  -33.8615   24.2321 N   0  0  0  0  0  0
  -23.4022  -30.4897   21.5495 C   0  0  2  0  0  0
  -24.8471  -28.9513   20.1142 C   0  0  0  0  0  0
  -22.7410  -29.4646   22.4988 C   0  0  0  0  0  0
  -18.0277  -28.1377   22.8486 C   0  0  0  0  0  0
  -24.1488  -36.7318   23.2634 C   0  0  0  0  0  0
  -25.9308  -30.8281   21.3632 C   0  0  0  0  0  0
  -26.0056  -29.4611   20.7119 C   0  0  0  0  0  0
  -27.1986  -28.7046   20.7000 C   0  0  0  0  0  0
  -26.0552  -26.9259   19.5002 C   0  0  0  0  0  0
  -24.8663  -27.6821   19.5096 C   0  0  0  0  0  0
  -23.6097  -29.8200   20.1642 C   0  0  0  0  0  0
  -25.4107  -36.3111   24.0336 C   0  0  1  0  0  0
  -20.5865  -28.3661   23.1318 C   0  0  2  0  0  0
  -20.6764  -26.9394   22.5426 C   0  0  0  0  0  0
  -19.5750  -26.6383   21.5213 C   0  0  0  0  0  0
  -18.1924  -26.7924   22.1612 C   0  0  0  0  0  0
  -19.1525  -28.8836   23.2901 C   0  0  0  0  0  0
  -18.9450  -30.1443   23.8917 C   0  0  0  0  0  0
  -17.6451  -30.6575   24.0571 C   0  0  0  0  0  0
  -25.9037  -34.9471   23.5130 C   0  0  0  0  0  0
  -16.5344  -29.9083   23.6320 C   0  0  0  0  0  0
  -16.7267  -28.6500   23.0339 C   0  0  0  0  0  0
  -26.4465  -31.6600   25.0715 C   0  0  0  0  0  0
  -25.3737  -31.3745   26.1480 C   0  0  0  0  0  0
  -27.0266  -30.3029   24.6098 C   0  0  0  0  0  0
  -27.6063  -32.4311   25.7448 C   0  0  0  0  0  0
  -27.5595  -37.1792   24.8451 C   0  0  0  0  0  0
  -21.4139  -29.3023   22.3718 N   0  0  0  0  0  0
  -26.4292  -37.3797   23.9419 N   0  0  0  0  0  0
  -24.6675  -31.0765   22.0989 N   0  0  0  0  0  0
  -23.4181  -28.8193   23.3029 O   0  0  0  0  0  0
  -28.4352  -26.7349   20.1119 O   0  0  0  0  0  0
  -26.5605  -34.8922   22.4694 O   0  0  0  0  0  0
  -23.5337  -32.1419   23.7486 O   0  0  0  0  0  0
  -28.9592  -17.5442   20.4837 C   0  0  0  0  0  0
  -30.1696  -19.4990   20.2096 C   0  0  0  0  0  0
  -30.1139  -16.8470   20.9255 C   0  0  0  0  0  0
  -31.3130  -18.8344   20.7468 C   0  0  0  0  0  0
  -30.4348  -20.6118   18.0014 C   0  0  0  0  0  0
  -27.9220  -22.8453   17.9086 C   0  0  0  0  0  0
  -30.1002  -25.9455   18.6652 C   0  0  0  0  0  0
  -28.5961  -24.2656   19.9299 C   0  0  0  0  0  0
  -30.2439  -20.8712   19.5151 C   0  0  1  0  0  0
  -28.9434  -23.0198   19.0520 C   0  0  1  0  0  0
  -28.6933  -25.6501   19.2074 C   0  0  1  0  0  0
  -28.9802  -18.8516   20.1155 N   0  0  0  0  0  0
  -31.2795  -17.5269   21.0976 N   0  0  0  0  0  0
  -32.5560  -19.4374   20.9043 N   0  0  0  0  0  0
  -29.9720  -15.4506   21.1645 N   0  0  0  0  0  0
  -29.0695  -21.7448   19.8302 N   0  3  0  0  0  0
  -31.4695  -12.4104   19.1245 H   0  0  0  0  0  0
  -30.3310  -11.2943   19.8230 H   0  0  0  0  0  0
  -29.7385  -11.7744   17.4322 H   0  0  0  0  0  0
  -29.6623  -13.4864   17.7684 H   0  0  0  0  0  0
  -27.8313  -11.3016   18.8194 H   0  0  0  0  0  0
  -27.3674  -12.6256   17.7843 H   0  0  0  0  0  0
  -27.7062  -14.2470   19.5734 H   0  0  0  0  0  0
  -28.6733  -11.9359   21.3283 H   0  0  0  0  0  0
  -28.4510  -13.5640   21.8793 H   0  0  0  0  0  0
  -25.2757   -9.5681   22.4756 H   0  0  0  0  0  0
  -23.9995   -7.4633   22.7468 H   0  0  0  0  0  0
  -21.0816   -8.8774   19.8963 H   0  0  0  0  0  0
  -22.3665  -10.9686   19.6171 H   0  0  0  0  0  0
  -21.2016   -7.6144   23.9719 H   0  0  0  0  0  0
  -21.1477   -6.0515   25.9079 H   0  0  0  0  0  0
  -22.0601   -2.7600   23.2846 H   0  0  0  0  0  0
  -22.4111  -11.9940   22.4800 H   0  0  0  0  0  0
  -21.1126  -13.1321   22.2604 H   0  0  0  0  0  0
  -24.6527  -15.8305   20.4942 H   0  0  0  0  0  0
  -26.2575  -15.6166   20.0127 H   0  0  0  0  0  0
  -26.7096  -32.5527   23.1141 H   0  0  0  0  0  0
  -25.0046  -33.9769   25.0468 H   0  0  0  0  0  0
  -22.6915  -31.3067   21.4110 H   0  0  0  0  0  0
  -23.3747  -35.9653   23.3282 H   0  0  0  0  0  0
  -24.3593  -36.8947   22.2052 H   0  0  0  0  0  0
  -23.7229  -37.6513   23.6657 H   0  0  0  0  0  0
  -26.0449  -31.5921   20.5929 H   0  0  0  0  0  0
  -26.8190  -30.8817   21.9811 H   0  0  0  0  0  0
  -28.0945  -29.0963   21.1620 H   0  0  0  0  0  0
  -26.0223  -25.9459   19.0477 H   0  0  0  0  0  0
  -23.9713  -27.2793   19.0558 H   0  0  0  0  0  0
  -23.7171  -30.5947   19.4044 H   0  0  0  0  0  0
  -22.7328  -29.2411   19.8687 H   0  0  0  0  0  0
  -25.1272  -36.1977   25.0826 H   0  0  0  0  0  0
  -20.9961  -28.3234   24.1436 H   0  0  0  0  0  0
  -20.5649  -26.2272   23.3616 H   0  0  0  0  0  0
  -21.6639  -26.7416   22.1235 H   0  0  0  0  0  0
  -19.6911  -25.6299   21.1231 H   0  0  0  0  0  0
  -19.6699  -27.3204   20.6754 H   0  0  0  0  0  0
  -17.4198  -26.6677   21.4010 H   0  0  0  0  0  0
  -18.0315  -26.0062   22.9000 H   0  0  0  0  0  0
  -19.7931  -30.7254   24.2291 H   0  0  0  0  0  0
  -17.5004  -31.6252   24.5183 H   0  0  0  0  0  0
  -15.5345  -30.2989   23.7627 H   0  0  0  0  0  0
  -15.8669  -28.0829   22.7033 H   0  0  0  0  0  0
  -24.5899  -30.7088   25.7848 H   0  0  0  0  0  0
  -24.8939  -32.2920   26.4901 H   0  0  0  0  0  0
  -25.8094  -30.8946   27.0252 H   0  0  0  0  0  0
  -26.2792  -29.6806   24.1161 H   0  0  0  0  0  0
  -27.4026  -29.7258   25.4557 H   0  0  0  0  0  0
  -27.8642  -30.4330   23.9239 H   0  0  0  0  0  0
  -27.2703  -33.3599   26.2072 H   0  0  0  0  0  0
  -28.3828  -32.6892   25.0232 H   0  0  0  0  0  0
  -28.0778  -31.8406   26.5314 H   0  0  0  0  0  0
  -28.2592  -38.0111   24.7530 H   0  0  0  0  0  0
  -28.1109  -36.2645   24.6219 H   0  0  0  0  0  0
  -27.2330  -37.1373   25.8856 H   0  0  0  0  0  0
  -20.9304  -29.8749   21.6940 H   0  0  0  0  0  0
  -26.0184  -38.2868   24.1455 H   0  0  0  0  0  0
  -28.0167  -17.0300   20.3647 H   0  0  0  0  0  0
  -31.3032  -19.9731   17.8374 H   0  0  0  0  0  0
  -30.6125  -21.5165   17.4236 H   0  0  0  0  0  0
  -29.5755  -20.0952   17.5726 H   0  0  0  0  0  0
  -27.9062  -23.7105   17.2471 H   0  0  0  0  0  0
  -26.9116  -22.7075   18.2941 H   0  0  0  0  0  0
  -28.1502  -21.9876   17.2784 H   0  0  0  0  0  0
  -30.3728  -25.2776   17.8485 H   0  0  0  0  0  0
  -30.8558  -25.8535   19.4460 H   0  0  0  0  0  0
  -30.1570  -26.9612   18.2717 H   0  0  0  0  0  0
  -29.2665  -24.2909   20.7893 H   0  0  0  0  0  0
  -27.5933  -24.1508   20.3417 H   0  0  0  0  0  0
  -31.1250  -21.4000   19.8797 H   0  0  0  0  0  0
  -29.9206  -23.2226   18.6185 H   0  0  0  0  0  0
  -28.0226  -25.6848   18.3502 H   0  0  0  0  0  0
  -32.6584  -20.4450   20.8892 H   0  0  0  0  0  0
  -33.2680  -18.9597   21.4453 H   0  0  0  0  0  0
  -29.0624  -15.1529   21.4797 H   0  0  0  0  0  0
  -29.1317  -21.9636   20.8108 H   0  0  0  0  0  0
  -28.2388  -21.1858   19.7151 H   0  0  0  0  0  0
  1 25  1  0  0  0
  1 30  2  0  0  0
  1 85  1  0  0  0
  2  3  1  0  0  0
  2 25  1  0  0  0
  2 87  1  0  0  0
  2 88  1  0  0  0
  3  4  1  0  0  0
  3 89  1  0  0  0
  3 90  1  0  0  0
  4  5  1  0  0  0
  4 91  1  0  0  0
  4 92  1  0  0  0
  5  6  1  0  0  0
  5 26  1  0  0  0
  5 93  1  0  0  0
  6 25  1  0  0  0
  6 94  1  0  0  0
  6 95  1  0  0  0
  7  8  2  0  0  0
  7 26  1  0  0  0
  7 29  1  0  0  0
  8  9  1  0  0  0
  8 22  1  0  0  0
  9 10  1  0  0  0
  9 27  2  0  0  0
 10 11  2  0  0  0
 10 15  1  0  0  0
 11 12  1  0  0  0
 11 96  1  0  0  0
 12 13  2  0  0  0
 12 97  1  0  0  0
 13 14  1  0  0  0
 13 31  1  0  0  0
 14 15  2  0  0  0
 14 98  1  0  0  0
 15 99  1  0  0  0
 16 17  2  0  0  0
 16 21  1  0  0  0
 16 31  1  0  0  0
 17 18  1  0  0  0
 17100  1  0  0  0
 18 19  2  0  0  0
 18101  1  0  0  0
 19 20  1  0  0  0
 19 24  1  0  0  0
 20 21  2  0  0  0
 20102  1  0  0  0
 21 23  1  0  0  0
 22 28  1  0  0  0
 22 32  2  0  0  0
 26 27  1  0  0  0
 28103  1  0  0  0
 28104  1  0  0  0
 29105  1  0  0  0
 29106  1  0  0  0
 33 34  1  0  0  0
 33 66  1  0  0  0
 33 70  2  0  0  0
 34 36  1  0  0  0
 34 59  1  0  0  0
 34107  1  0  0  0
 35 44  2  0  0  0
 35 45  1  0  0  0
 35 68  1  0  0  0
 36 56  1  0  0  0
 36108  1  0  0  0
 37 39  1  0  0  0
 37 47  1  0  0  0
 37 66  1  0  0  0
 37109  1  0  0  0
 38 43  2  0  0  0
 38 46  1  0  0  0
 38 47  1  0  0  0
 39 64  1  0  0  0
 39 67  2  0  0  0
 40 52  1  0  0  0
 40 53  2  0  0  0
 40 58  1  0  0  0
 41110  1  0  0  0
 41111  1  0  0  0
 41112  1  0  0  0
 41 48  1  0  0  0
 42 43  1  0  0  0
 42 66  1  0  0  0
 42113  1  0  0  0
 42114  1  0  0  0
 43 44  1  0  0  0
 44115  1  0  0  0
 45 46  2  0  0  0
 45116  1  0  0  0
 46117  1  0  0  0
 47118  1  0  0  0
 47119  1  0  0  0
 48 56  1  0  0  0
 48 65  1  0  0  0
 48120  1  0  0  0
 49 50  1  0  0  0
 49 53  1  0  0  0
 49 64  1  0  0  0
 49121  1  0  0  0
 50 51  1  0  0  0
 50122  1  0  0  0
 50123  1  0  0  0
 51 52  1  0  0  0
 51124  1  0  0  0
 51125  1  0  0  0
 52126  1  0  0  0
 52127  1  0  0  0
 53 54  1  0  0  0
 54 55  2  0  0  0
 54128  1  0  0  0
 55 57  1  0  0  0
 55129  1  0  0  0
 56 69  2  0  0  0
 57 58  2  0  0  0
 57130  1  0  0  0
 58131  1  0  0  0
 59 60  1  0  0  0
 59 61  1  0  0  0
 59 62  1  0  0  0
 60132  1  0  0  0
 60133  1  0  0  0
 60134  1  0  0  0
 61135  1  0  0  0
 61136  1  0  0  0
 61137  1  0  0  0
 62138  1  0  0  0
 62139  1  0  0  0
 62140  1  0  0  0
 63 65  1  0  0  0
 63141  1  0  0  0
 63142  1  0  0  0
 63143  1  0  0  0
 64144  1  0  0  0
 65145  1  0  0  0
 68 81  1  0  0  0
 71 73  2  0  0  0
 71 82  1  0  0  0
 71146  1  0  0  0
 72 74  1  0  0  0
 72 79  1  0  0  0
 72 82  2  0  0  0
 73 83  1  0  0  0
 73 85  1  0  0  0
 74 83  2  0  0  0
 74 84  1  0  0  0
 75147  1  0  0  0
 75148  1  0  0  0
 75149  1  0  0  0
 75 79  1  0  0  0
 76150  1  0  0  0
 76151  1  0  0  0
 76152  1  0  0  0
 76 80  1  0  0  0
 77153  1  0  0  0
 77154  1  0  0  0
 77155  1  0  0  0
 77 81  1  0  0  0
 78 80  1  0  0  0
 78 81  1  0  0  0
 78156  1  0  0  0
 78157  1  0  0  0
 79 86  1  0  0  0
 79158  1  0  0  0
 80 86  1  0  0  0
 80159  1  0  0  0
 81160  1  0  0  0
 84161  1  0  0  0
 84162  1  0  0  0
 85163  1  0  0  0
 86164  1  0  0  0
 86165  1  0  0  0
M  CHG  1  86   1
M  ISO  4   1 100  68 101  81 101  85 100
M  END
> <chiral flag>
0

> <version>
0

> <s_m_source_file>
/data/baiqing/PycharmProjects/Reinvent-master-3.2/result/LINK_invent/BTK/process_docking_weight1_custom_product_contain_oxygen_bond_distance_aromatic_linkinvent_7_9_3/rearranged_h_0195.sdf

> <i_m_source_file_index>
83

> <r_mmod_Potential_Energy-OPLS-2005>
-211.900146484375

> <r_mmod_Stretch_Energy-OPLS-2005>
44.0813179016113

> <r_mmod_Bend_Energy-OPLS-2005>
118.042655944824

> <r_mmod_Torsional_Energy-OPLS-2005>
230.451889038086

> <r_mmod_Improper_Torsional_Energy-OPLS-2005>
7.65250682830811

> <r_mmod_Van_der_Waal_Energy-OPLS-2005>
157.074584960938

> <r_mmod_Electrostatic_Energy-OPLS-2005>
-297.030822753906

> <r_mmod_Solvation_Energy-OPLS-2005>
-485.043701171875

> <b_mmod_Minimization_Converged-OPLS-2005>
0

> <r_mmod_RMS_Derivative-OPLS-2005>
1.40016317367554

$$$$
83
                    3D
 Structure written by MMmdl.
159167  0  0  1  0            999 V2000
  -30.6914  -14.5613   20.4553 C   0  0  0  0  0  0
  -30.4301  -12.3224   19.4673 C   0  0  0  0  0  0
  -29.5186  -12.4536   18.2295 C   0  0  0  0  0  0
  -28.0318  -12.3622   18.6270 C   0  0  0  0  0  0
  -27.6608  -13.2268   19.8632 C   0  0  2  0  0  0
  -28.7056  -13.0806   20.9931 C   0  0  0  0  0  0
  -25.2609  -13.8230   20.5693 C   0  0  0  0  0  0
  -24.1861  -13.0479   20.9173 C   0  0  0  0  0  0
  -24.6420  -11.6939   20.8702 C   0  0  0  0  0  0
  -23.9097  -10.4318   21.0393 C   0  0  0  0  0  0
  -24.3642   -9.4235   21.9184 C   0  0  0  0  0  0
  -23.6312   -8.2265   22.0745 C   0  0  0  0  0  0
  -22.4293   -8.0297   21.3526 C   0  0  0  0  0  0
  -21.9937   -9.0291   20.4656 C   0  0  0  0  0  0
  -22.7261  -10.2166   20.3066 C   0  0  0  0  0  0
  -21.6870   -6.0751   22.5265 C   0  0  0  0  0  0
  -21.4015   -6.5648   23.8201 C   0  0  0  0  0  0
  -21.3648   -5.6791   24.9154 C   0  0  0  0  0  0
  -21.6053   -4.3058   24.7212 C   0  0  0  0  0  0
  -21.8820   -3.8154   23.4334 C   0  0  0  0  0  0
  -21.9203   -4.6971   22.3385 C   0  0  0  0  0  0
  -22.7888  -13.5270   21.1816 C   0  0  0  0  0  0
  -22.1684   -4.2153   21.0958 F   0  0  0  0  0  0
  -21.5625   -3.4532   25.7724 F   0  0  0  0  0  0
  -30.0325  -13.3661   20.4261 N   0  0  0  0  0  0
  -26.3044  -12.9418   20.3335 N   0  0  0  0  0  0
  -25.9357  -11.6552   20.5713 N   0  0  0  0  0  0
  -22.0507  -12.8300   22.0378 N   0  0  0  0  0  0
  -25.4316  -15.1962   20.4174 N   0  0  0  0  0  0
  -31.8665  -14.6761   20.0945 O   0  0  0  0  0  0
  -21.6664   -6.8898   21.4232 O   0  0  0  0  0  0
  -22.3587  -14.5576   20.6654 O   0  0  0  0  0  0
  -24.6189  -31.8647   23.2091 C   0  0  0  0  0  0
  -25.9071  -32.4807   23.8389 C   0  0  1  0  0  0
  -27.2320  -27.3933   20.0994 C   0  0  0  0  0  0
  -25.5918  -33.8606   24.2315 N   0  0  0  0  0  0
  -23.4092  -30.4907   21.5496 C   0  0  2  0  0  0
  -24.8587  -28.9594   20.1131 C   0  0  0  0  0  0
  -22.7429  -29.4641   22.4958 C   0  0  0  0  0  0
  -18.0272  -28.1390   22.8490 C   0  0  0  0  0  0
  -24.1490  -36.7313   23.2636 C   0  0  0  0  0  0
  -25.9448  -30.8190   21.3710 C   0  0  0  0  0  0
  -26.0240  -29.4518   20.7154 C   0  0  0  0  0  0
  -27.2145  -28.6782   20.7057 C   0  0  0  0  0  0
  -26.0491  -26.9423   19.4698 C   0  0  0  0  0  0
  -24.8693  -27.7057   19.4841 C   0  0  0  0  0  0
  -23.6235  -29.8304   20.1630 C   0  0  0  0  0  0
  -25.4108  -36.3097   24.0334 C   0  0  1  0  0  0
  -20.5859  -28.3674   23.1313 C   0  0  2  0  0  0
  -20.6766  -26.9406   22.5424 C   0  0  0  0  0  0
  -19.5747  -26.6393   21.5218 C   0  0  0  0  0  0
  -18.1920  -26.7939   22.1623 C   0  0  0  0  0  0
  -19.1522  -28.8845   23.2901 C   0  0  0  0  0  0
  -18.9455  -30.1451   23.8911 C   0  0  0  0  0  0
  -17.6458  -30.6592   24.0568 C   0  0  0  0  0  0
  -25.9038  -34.9462   23.5124 C   0  0  0  0  0  0
  -16.5344  -29.9098   23.6330 C   0  0  0  0  0  0
  -16.7262  -28.6518   23.0341 C   0  0  0  0  0  0
  -26.4498  -31.6591   25.0721 C   0  0  0  0  0  0
  -25.3762  -31.3730   26.1472 C   0  0  0  0  0  0
  -27.0334  -30.3017   24.6134 C   0  0  0  0  0  0
  -27.6073  -32.4307   25.7472 C   0  0  0  0  0  0
  -27.5579  -37.1804   24.8462 C   0  0  0  0  0  0
  -21.4147  -29.3036   22.3712 N   0  0  0  0  0  0
  -26.4291  -37.3783   23.9409 N   0  0  0  0  0  0
  -24.6760  -31.0712   22.1019 N   0  0  0  0  0  0
  -23.4191  -28.8162   23.2995 O   0  0  0  0  0  0
  -28.3651  -26.5848   20.1152 O   0  0  0  0  0  0
  -26.5597  -34.8915   22.4677 O   0  0  0  0  0  0
  -23.5367  -32.1415   23.7464 O   0  0  0  0  0  0
  -29.3896  -17.8583   17.5847 C   0  0  0  0  0  0
  -29.8984  -18.0720   19.8038 C   0  0  0  0  0  0
  -29.8221  -16.6702   19.7224 C   0  0  0  0  0  0
  -29.9158  -21.5862   20.8028 C   0  0  0  0  0  0
  -30.1510  -18.4225   22.3286 C   0  0  0  0  0  0
  -29.2576  -24.1440   20.3968 C   0  0  0  0  0  0
  -28.1334  -25.2219   20.5803 C   0  0  0  0  0  0
  -30.2562  -19.0467   20.9294 C   0  0  2  0  0  0
  -28.8912  -22.7384   21.0240 C   0  0  2  0  0  0
  -29.6574  -18.7026   18.5733 N   0  0  0  0  0  0
  -29.9412  -15.6713   20.6637 N   0  0  0  0  0  0
  -29.4659  -20.3096   20.8904 N   0  0  0  0  0  0
  -28.7049  -22.8535   22.4827 N   0  3  0  0  0  0
  -31.1118  -21.8507   20.6651 O   0  0  0  0  0  0
  -29.4083  -16.1914   18.0782 S   0  0  0  0  0  0
  -31.4802  -12.3949   19.1800 H   0  0  0  0  0  0
  -30.3218  -11.3384   19.9247 H   0  0  0  0  0  0
  -29.7601  -11.6677   17.5133 H   0  0  0  0  0  0
  -29.7131  -13.3947   17.7173 H   0  0  0  0  0  0
  -27.8242  -11.3142   18.8408 H   0  0  0  0  0  0
  -27.4056  -12.6352   17.7752 H   0  0  0  0  0  0
  -27.6813  -14.2642   19.5311 H   0  0  0  0  0  0
  -28.6895  -12.0711   21.4063 H   0  0  0  0  0  0
  -28.4739  -13.7510   21.8220 H   0  0  0  0  0  0
  -25.2772   -9.5730   22.4795 H   0  0  0  0  0  0
  -24.0015   -7.4669   22.7474 H   0  0  0  0  0  0
  -21.0852   -8.8840   19.8994 H   0  0  0  0  0  0
  -22.3700  -10.9737   19.6204 H   0  0  0  0  0  0
  -21.2006   -7.6148   23.9694 H   0  0  0  0  0  0
  -21.1469   -6.0523   25.9049 H   0  0  0  0  0  0
  -22.0611   -2.7626   23.2820 H   0  0  0  0  0  0
  -22.4087  -11.9994   22.4866 H   0  0  0  0  0  0
  -21.1116  -13.1341   22.2481 H   0  0  0  0  0  0
  -24.6682  -15.8508   20.5496 H   0  0  0  0  0  0
  -26.2811  -15.6450   20.0994 H   0  0  0  0  0  0
  -26.7128  -32.5516   23.1137 H   0  0  0  0  0  0
  -25.0075  -33.9761   25.0466 H   0  0  0  0  0  0
  -22.6992  -31.3088   21.4112 H   0  0  0  0  0  0
  -23.3740  -35.9660   23.3308 H   0  0  0  0  0  0
  -24.3587  -36.8919   22.2049 H   0  0  0  0  0  0
  -23.7261  -37.6526   23.6649 H   0  0  0  0  0  0
  -26.0597  -31.5854   20.6034 H   0  0  0  0  0  0
  -26.8310  -30.8718   21.9917 H   0  0  0  0  0  0
  -28.1088  -29.0520   21.1850 H   0  0  0  0  0  0
  -26.0198  -25.9968   18.9482 H   0  0  0  0  0  0
  -23.9789  -27.3265   19.0013 H   0  0  0  0  0  0
  -23.7389  -30.6104   19.4093 H   0  0  0  0  0  0
  -22.7464  -29.2570   19.8579 H   0  0  0  0  0  0
  -25.1281  -36.1956   25.0828 H   0  0  0  0  0  0
  -20.9955  -28.3250   24.1431 H   0  0  0  0  0  0
  -20.5672  -26.2277   23.3610 H   0  0  0  0  0  0
  -21.6637  -26.7454   22.1209 H   0  0  0  0  0  0
  -19.6909  -25.6307   21.1233 H   0  0  0  0  0  0
  -19.6693  -27.3216   20.6757 H   0  0  0  0  0  0
  -17.4194  -26.6685   21.4019 H   0  0  0  0  0  0
  -18.0316  -26.0077   22.9015 H   0  0  0  0  0  0
  -19.7931  -30.7263   24.2285 H   0  0  0  0  0  0
  -17.5016  -31.6271   24.5180 H   0  0  0  0  0  0
  -15.5345  -30.3010   23.7652 H   0  0  0  0  0  0
  -15.8660  -28.0857   22.7036 H   0  0  0  0  0  0
  -24.5921  -30.7085   25.7828 H   0  0  0  0  0  0
  -24.8977  -32.2908   26.4897 H   0  0  0  0  0  0
  -25.8111  -30.8916   27.0241 H   0  0  0  0  0  0
  -26.2895  -29.6750   24.1204 H   0  0  0  0  0  0
  -27.4103  -29.7277   25.4610 H   0  0  0  0  0  0
  -27.8728  -30.4304   23.9296 H   0  0  0  0  0  0
  -27.2692  -33.3580   26.2101 H   0  0  0  0  0  0
  -28.3855  -32.6910   25.0289 H   0  0  0  0  0  0
  -28.0783  -31.8411   26.5343 H   0  0  0  0  0  0
  -28.2603  -38.0091   24.7492 H   0  0  0  0  0  0
  -28.1062  -36.2623   24.6300 H   0  0  0  0  0  0
  -27.2301  -37.1475   25.8866 H   0  0  0  0  0  0
  -20.9302  -29.8791   21.6964 H   0  0  0  0  0  0
  -26.0175  -38.2858   24.1419 H   0  0  0  0  0  0
  -29.1793  -18.2054   16.5823 H   0  0  0  0  0  0
  -30.8334  -17.5790   22.4325 H   0  0  0  0  0  0
  -29.1434  -18.0631   22.5330 H   0  0  0  0  0  0
  -30.4148  -19.1420   23.1042 H   0  0  0  0  0  0
  -30.1968  -24.5060   20.8144 H   0  0  0  0  0  0
  -29.4384  -24.0123   19.3295 H   0  0  0  0  0  0
  -27.9058  -25.3081   21.6429 H   0  0  0  0  0  0
  -27.2451  -24.7896   20.1269 H   0  0  0  0  0  0
  -31.3064  -19.3116   20.7891 H   0  0  0  0  0  0
  -27.9460  -22.4125   20.5860 H   0  0  0  0  0  0
  -29.0833  -15.4712   21.1547 H   0  0  0  0  0  0
  -28.4644  -20.1780   20.8959 H   0  0  0  0  0  0
  -29.5757  -23.1146   22.9111 H   0  0  0  0  0  0
  -28.4364  -21.9638   22.8633 H   0  0  0  0  0  0
  -27.9992  -23.5254   22.7209 H   0  0  0  0  0  0
  1 25  1  0  0  0
  1 30  2  0  0  0
  1 81  1  0  0  0
  2  3  1  0  0  0
  2 25  1  0  0  0
  2 86  1  0  0  0
  2 87  1  0  0  0
  3  4  1  0  0  0
  3 88  1  0  0  0
  3 89  1  0  0  0
  4  5  1  0  0  0
  4 90  1  0  0  0
  4 91  1  0  0  0
  5  6  1  0  0  0
  5 26  1  0  0  0
  5 92  1  0  0  0
  6 25  1  0  0  0
  6 93  1  0  0  0
  6 94  1  0  0  0
  7  8  2  0  0  0
  7 26  1  0  0  0
  7 29  1  0  0  0
  8  9  1  0  0  0
  8 22  1  0  0  0
  9 10  1  0  0  0
  9 27  2  0  0  0
 10 11  2  0  0  0
 10 15  1  0  0  0
 11 12  1  0  0  0
 11 95  1  0  0  0
 12 13  2  0  0  0
 12 96  1  0  0  0
 13 14  1  0  0  0
 13 31  1  0  0  0
 14 15  2  0  0  0
 14 97  1  0  0  0
 15 98  1  0  0  0
 16 17  2  0  0  0
 16 21  1  0  0  0
 16 31  1  0  0  0
 17 18  1  0  0  0
 17 99  1  0  0  0
 18 19  2  0  0  0
 18100  1  0  0  0
 19 20  1  0  0  0
 19 24  1  0  0  0
 20 21  2  0  0  0
 20101  1  0  0  0
 21 23  1  0  0  0
 22 28  1  0  0  0
 22 32  2  0  0  0
 26 27  1  0  0  0
 28102  1  0  0  0
 28103  1  0  0  0
 29104  1  0  0  0
 29105  1  0  0  0
 33 34  1  0  0  0
 33 66  1  0  0  0
 33 70  2  0  0  0
 34 36  1  0  0  0
 34 59  1  0  0  0
 34106  1  0  0  0
 35 44  2  0  0  0
 35 45  1  0  0  0
 35 68  1  0  0  0
 36 56  1  0  0  0
 36107  1  0  0  0
 37 39  1  0  0  0
 37 47  1  0  0  0
 37 66  1  0  0  0
 37108  1  0  0  0
 38 43  2  0  0  0
 38 46  1  0  0  0
 38 47  1  0  0  0
 39 64  1  0  0  0
 39 67  2  0  0  0
 40 52  1  0  0  0
 40 53  2  0  0  0
 40 58  1  0  0  0
 41109  1  0  0  0
 41110  1  0  0  0
 41111  1  0  0  0
 41 48  1  0  0  0
 42 43  1  0  0  0
 42 66  1  0  0  0
 42112  1  0  0  0
 42113  1  0  0  0
 43 44  1  0  0  0
 44114  1  0  0  0
 45 46  2  0  0  0
 45115  1  0  0  0
 46116  1  0  0  0
 47117  1  0  0  0
 47118  1  0  0  0
 48 56  1  0  0  0
 48 65  1  0  0  0
 48119  1  0  0  0
 49 50  1  0  0  0
 49 53  1  0  0  0
 49 64  1  0  0  0
 49120  1  0  0  0
 50 51  1  0  0  0
 50121  1  0  0  0
 50122  1  0  0  0
 51 52  1  0  0  0
 51123  1  0  0  0
 51124  1  0  0  0
 52125  1  0  0  0
 52126  1  0  0  0
 53 54  1  0  0  0
 54 55  2  0  0  0
 54127  1  0  0  0
 55 57  1  0  0  0
 55128  1  0  0  0
 56 69  2  0  0  0
 57 58  2  0  0  0
 57129  1  0  0  0
 58130  1  0  0  0
 59 60  1  0  0  0
 59 61  1  0  0  0
 59 62  1  0  0  0
 60131  1  0  0  0
 60132  1  0  0  0
 60133  1  0  0  0
 61134  1  0  0  0
 61135  1  0  0  0
 61136  1  0  0  0
 62137  1  0  0  0
 62138  1  0  0  0
 62139  1  0  0  0
 63 65  1  0  0  0
 63140  1  0  0  0
 63141  1  0  0  0
 63142  1  0  0  0
 64143  1  0  0  0
 65144  1  0  0  0
 68 77  1  0  0  0
 71 80  2  0  0  0
 71 85  1  0  0  0
 71145  1  0  0  0
 72 73  2  0  0  0
 72 78  1  0  0  0
 72 80  1  0  0  0
 73 81  1  0  0  0
 73 85  1  0  0  0
 74 79  1  0  0  0
 74 82  1  0  0  0
 74 84  2  0  0  0
 75146  1  0  0  0
 75147  1  0  0  0
 75148  1  0  0  0
 75 78  1  0  0  0
 76 77  1  0  0  0
 76 79  1  0  0  0
 76149  1  0  0  0
 76150  1  0  0  0
 77151  1  0  0  0
 77152  1  0  0  0
 78 82  1  0  0  0
 78153  1  0  0  0
 79 83  1  0  0  0
 79154  1  0  0  0
 81155  1  0  0  0
 82156  1  0  0  0
 83157  1  0  0  0
 83158  1  0  0  0
 83159  1  0  0  0
M  CHG  1  83   1
M  ISO  4   1 100  68 101  77 101  81 100
M  END
> <chiral flag>
0

> <version>
0

> <s_m_source_file>
/data/baiqing/PycharmProjects/Reinvent-master-3.2/result/LINK_invent/BTK/process_docking_weight1_custom_product_contain_oxygen_bond_distance_aromatic_linkinvent_7_9_3/rearranged_h_0195.sdf

> <i_m_source_file_index>
84

> <r_mmod_Potential_Energy-OPLS-2005>
-420.563598632812

> <r_mmod_Stretch_Energy-OPLS-2005>
54.888729095459

> <r_mmod_Bend_Energy-OPLS-2005>
122.586441040039

> <r_mmod_Torsional_Energy-OPLS-2005>
268.552398681641

> <r_mmod_Improper_Torsional_Energy-OPLS-2005>
9.86827278137207

> <r_mmod_Van_der_Waal_Energy-OPLS-2005>
126.110076904297

> <r_mmod_Electrostatic_Energy-OPLS-2005>
-482.065673828125

> <r_mmod_Solvation_Energy-OPLS-2005>
-549.828186035156

> <b_mmod_Minimization_Converged-OPLS-2005>
0

> <r_mmod_RMS_Derivative-OPLS-2005>
3.34450888633728

$$$$
84
                    3D
 Structure written by MMmdl.
160168  0  0  1  0            999 V2000
  -30.7329  -14.4453   20.5857 C   0  0  0  0  0  0
  -30.4151  -12.2958   19.4250 C   0  0  0  0  0  0
  -29.4920  -12.5073   18.2085 C   0  0  0  0  0  0
  -28.0130  -12.3756   18.6186 C   0  0  0  0  0  0
  -27.6628  -13.2119   19.8795 C   0  0  2  0  0  0
  -28.7047  -12.9949   21.0016 C   0  0  0  0  0  0
  -25.2577  -13.8167   20.5673 C   0  0  0  0  0  0
  -24.1834  -13.0431   20.9161 C   0  0  0  0  0  0
  -24.6401  -11.6905   20.8724 C   0  0  0  0  0  0
  -23.9068  -10.4285   21.0388 C   0  0  0  0  0  0
  -24.3619   -9.4202   21.9167 C   0  0  0  0  0  0
  -23.6294   -8.2239   22.0748 C   0  0  0  0  0  0
  -22.4273   -8.0277   21.3542 C   0  0  0  0  0  0
  -21.9910   -9.0246   20.4640 C   0  0  0  0  0  0
  -22.7242  -10.2123   20.3042 C   0  0  0  0  0  0
  -21.6853   -6.0732   22.5274 C   0  0  0  0  0  0
  -21.4016   -6.5636   23.8208 C   0  0  0  0  0  0
  -21.3662   -5.6786   24.9168 C   0  0  0  0  0  0
  -21.6047   -4.3049   24.7219 C   0  0  0  0  0  0
  -21.8821   -3.8143   23.4340 C   0  0  0  0  0  0
  -21.9194   -4.6960   22.3397 C   0  0  0  0  0  0
  -22.7858  -13.5222   21.1830 C   0  0  0  0  0  0
  -22.1661   -4.2148   21.0974 F   0  0  0  0  0  0
  -21.5634   -3.4533   25.7733 F   0  0  0  0  0  0
  -30.0383  -13.2839   20.4488 N   0  0  0  0  0  0
  -26.3031  -12.9357   20.3392 N   0  0  0  0  0  0
  -25.9334  -11.6507   20.5780 N   0  0  0  0  0  0
  -22.0512  -12.8199   22.0388 N   0  0  0  0  0  0
  -25.4259  -15.1891   20.4081 N   0  0  0  0  0  0
  -31.8439  -14.6210   20.0785 O   0  0  0  0  0  0
  -21.6640   -6.8874   21.4237 O   0  0  0  0  0  0
  -22.3531  -14.5526   20.6688 O   0  0  0  0  0  0
  -24.6168  -31.8675   23.2098 C   0  0  0  0  0  0
  -25.9056  -32.4820   23.8398 C   0  0  1  0  0  0
  -27.2287  -27.4259   20.0928 C   0  0  0  0  0  0
  -25.5923  -33.8615   24.2326 N   0  0  0  0  0  0
  -23.4036  -30.4916   21.5522 C   0  0  2  0  0  0
  -24.8462  -28.9594   20.1140 C   0  0  0  0  0  0
  -22.7420  -29.4670   22.5011 C   0  0  0  0  0  0
  -18.0266  -28.1371   22.8494 C   0  0  0  0  0  0
  -24.1492  -36.7318   23.2637 C   0  0  0  0  0  0
  -25.9329  -30.8314   21.3616 C   0  0  0  0  0  0
  -26.0083  -29.4664   20.7079 C   0  0  0  0  0  0
  -27.2018  -28.7075   20.6914 C   0  0  0  0  0  0
  -26.0455  -26.9407   19.4867 C   0  0  0  0  0  0
  -24.8611  -27.6973   19.5004 C   0  0  0  0  0  0
  -23.6078  -29.8236   20.1668 C   0  0  0  0  0  0
  -25.4110  -36.3107   24.0336 C   0  0  1  0  0  0
  -20.5856  -28.3666   23.1318 C   0  0  2  0  0  0
  -20.6761  -26.9399   22.5415 C   0  0  0  0  0  0
  -19.5743  -26.6377   21.5213 C   0  0  0  0  0  0
  -18.1915  -26.7920   22.1616 C   0  0  0  0  0  0
  -19.1516  -28.8833   23.2903 C   0  0  0  0  0  0
  -18.9448  -30.1438   23.8919 C   0  0  0  0  0  0
  -17.6454  -30.6580   24.0557 C   0  0  0  0  0  0
  -25.9041  -34.9473   23.5126 C   0  0  0  0  0  0
  -16.5344  -29.9078   23.6326 C   0  0  0  0  0  0
  -16.7254  -28.6489   23.0362 C   0  0  0  0  0  0
  -26.4462  -31.6601   25.0731 C   0  0  0  0  0  0
  -25.3711  -31.3693   26.1470 C   0  0  0  0  0  0
  -27.0293  -30.3053   24.6093 C   0  0  0  0  0  0
  -27.6052  -32.4308   25.7486 C   0  0  0  0  0  0
  -27.5581  -37.1816   24.8464 C   0  0  0  0  0  0
  -21.4146  -29.3047   22.3743 N   0  0  0  0  0  0
  -26.4297  -37.3795   23.9405 N   0  0  0  0  0  0
  -24.6699  -31.0772   22.1002 N   0  0  0  0  0  0
  -23.4191  -28.8205   23.3044 O   0  0  0  0  0  0
  -28.4020  -26.6925   20.1223 O   0  0  0  0  0  0
  -26.5584  -34.8931   22.4675 O   0  0  0  0  0  0
  -23.5357  -32.1434   23.7493 O   0  0  0  0  0  0
  -29.3681  -19.1059   21.4051 C   0  0  0  0  0  0
  -28.4112  -19.1430   23.5443 C   0  0  0  0  0  0
  -28.6026  -19.8317   22.3758 C   0  0  0  0  0  0
  -29.7510  -17.8597   21.8587 C   0  0  0  0  0  0
  -28.1766  -22.0568   21.2625 C   0  0  0  0  0  0
  -25.1754  -21.7968   20.3144 C   0  0  0  0  0  0
  -30.6085  -16.8422   21.1564 C   0  0  0  0  0  0
  -26.0820  -23.0293   20.1520 C   0  0  0  0  0  0
  -27.7054  -24.6452   21.3410 C   0  0  0  0  0  0
  -28.3258  -25.2543   20.0544 C   0  0  0  0  0  0
  -27.1311  -23.1982   21.2771 C   0  0  2  0  0  0
  -28.0016  -21.1125   22.2076 N   0  0  0  0  0  0
  -30.0962  -15.4653   21.1875 N   0  0  0  0  0  0
  -29.0866  -22.0474   20.4305 O   0  0  0  0  0  0
  -29.1862  -17.5832   23.4906 S   0  0  0  0  0  0
  -31.4604  -12.3798   19.1217 H   0  0  0  0  0  0
  -30.3039  -11.2851   19.8220 H   0  0  0  0  0  0
  -29.7276  -11.7857   17.4251 H   0  0  0  0  0  0
  -29.6698  -13.4943   17.7785 H   0  0  0  0  0  0
  -27.8125  -11.3199   18.8058 H   0  0  0  0  0  0
  -27.3677  -12.6633   17.7878 H   0  0  0  0  0  0
  -27.7077  -14.2607   19.5869 H   0  0  0  0  0  0
  -28.6730  -11.9623   21.3521 H   0  0  0  0  0  0
  -28.4724  -13.6072   21.8736 H   0  0  0  0  0  0
  -25.2769   -9.5673   22.4731 H   0  0  0  0  0  0
  -24.0004   -7.4630   22.7465 H   0  0  0  0  0  0
  -21.0847   -8.8759   19.8941 H   0  0  0  0  0  0
  -22.3703  -10.9654   19.6142 H   0  0  0  0  0  0
  -21.2006   -7.6142   23.9709 H   0  0  0  0  0  0
  -21.1486   -6.0515   25.9070 H   0  0  0  0  0  0
  -22.0603   -2.7605   23.2839 H   0  0  0  0  0  0
  -22.4157  -11.9874   22.4774 H   0  0  0  0  0  0
  -21.1124  -13.1199   22.2597 H   0  0  0  0  0  0
  -24.6574  -15.8416   20.5197 H   0  0  0  0  0  0
  -26.2802  -15.6340   20.0970 H   0  0  0  0  0  0
  -26.7132  -32.5521   23.1170 H   0  0  0  0  0  0
  -25.0126  -33.9764   25.0508 H   0  0  0  0  0  0
  -22.6946  -31.3100   21.4137 H   0  0  0  0  0  0
  -23.3750  -35.9657   23.3309 H   0  0  0  0  0  0
  -24.3587  -36.8922   22.2050 H   0  0  0  0  0  0
  -23.7259  -37.6535   23.6641 H   0  0  0  0  0  0
  -26.0425  -31.5949   20.5894 H   0  0  0  0  0  0
  -26.8230  -30.8863   21.9777 H   0  0  0  0  0  0
  -28.0998  -29.0928   21.1536 H   0  0  0  0  0  0
  -26.0095  -25.9829   18.9915 H   0  0  0  0  0  0
  -23.9673  -27.3043   19.0346 H   0  0  0  0  0  0
  -23.7084  -30.5969   19.4042 H   0  0  0  0  0  0
  -22.7331  -29.2379   19.8779 H   0  0  0  0  0  0
  -25.1284  -36.1975   25.0829 H   0  0  0  0  0  0
  -20.9932  -28.3218   24.1446 H   0  0  0  0  0  0
  -20.5672  -26.2269   23.3598 H   0  0  0  0  0  0
  -21.6630  -26.7442   22.1211 H   0  0  0  0  0  0
  -19.6911  -25.6290   21.1243 H   0  0  0  0  0  0
  -19.6692  -27.3181   20.6739 H   0  0  0  0  0  0
  -17.4190  -26.6682   21.4003 H   0  0  0  0  0  0
  -18.0306  -26.0048   22.9000 H   0  0  0  0  0  0
  -19.7927  -30.7234   24.2312 H   0  0  0  0  0  0
  -17.5011  -31.6268   24.5142 H   0  0  0  0  0  0
  -15.5345  -30.2986   23.7640 H   0  0  0  0  0  0
  -15.8658  -28.0800   22.7095 H   0  0  0  0  0  0
  -24.5936  -30.6975   25.7811 H   0  0  0  0  0  0
  -24.8826  -32.2827   26.4877 H   0  0  0  0  0  0
  -25.8064  -30.8920   27.0259 H   0  0  0  0  0  0
  -26.2833  -29.6828   24.1142 H   0  0  0  0  0  0
  -27.4075  -29.7272   25.4536 H   0  0  0  0  0  0
  -27.8659  -30.4393   23.9232 H   0  0  0  0  0  0
  -27.2711  -33.3632   26.2053 H   0  0  0  0  0  0
  -28.3871  -32.6825   25.0307 H   0  0  0  0  0  0
  -28.0708  -31.8430   26.5410 H   0  0  0  0  0  0
  -28.2599  -38.0113   24.7507 H   0  0  0  0  0  0
  -28.1077  -36.2641   24.6295 H   0  0  0  0  0  0
  -27.2294  -37.1479   25.8868 H   0  0  0  0  0  0
  -20.9310  -29.8785   21.6980 H   0  0  0  0  0  0
  -26.0187  -38.2872   24.1411 H   0  0  0  0  0  0
  -29.6055  -19.5028   20.4276 H   0  0  0  0  0  0
  -27.8711  -19.4390   24.4363 H   0  0  0  0  0  0
  -24.4193  -21.7640   19.5300 H   0  0  0  0  0  0
  -24.6506  -21.8170   21.2703 H   0  0  0  0  0  0
  -25.7395  -20.8650   20.2634 H   0  0  0  0  0  0
  -31.6049  -16.8541   21.6036 H   0  0  0  0  0  0
  -30.7434  -17.1387   20.1145 H   0  0  0  0  0  0
  -25.4408  -23.9107   20.1237 H   0  0  0  0  0  0
  -26.5793  -22.9851   19.1825 H   0  0  0  0  0  0
  -26.8838  -25.2812   21.6700 H   0  0  0  0  0  0
  -28.4416  -24.7117   22.1421 H   0  0  0  0  0  0
  -27.8175  -24.9327   19.1482 H   0  0  0  0  0  0
  -29.3422  -24.8758   19.9446 H   0  0  0  0  0  0
  -26.5845  -23.0921   22.2160 H   0  0  0  0  0  0
  -27.2761  -21.3342   22.8745 H   0  0  0  0  0  0
  -29.1819  -15.2980   21.5791 H   0  0  0  0  0  0
  1 25  1  0  0  0
  1 30  2  0  0  0
  1 83  1  0  0  0
  2  3  1  0  0  0
  2 25  1  0  0  0
  2 86  1  0  0  0
  2 87  1  0  0  0
  3  4  1  0  0  0
  3 88  1  0  0  0
  3 89  1  0  0  0
  4  5  1  0  0  0
  4 90  1  0  0  0
  4 91  1  0  0  0
  5  6  1  0  0  0
  5 26  1  0  0  0
  5 92  1  0  0  0
  6 25  1  0  0  0
  6 93  1  0  0  0
  6 94  1  0  0  0
  7  8  2  0  0  0
  7 26  1  0  0  0
  7 29  1  0  0  0
  8  9  1  0  0  0
  8 22  1  0  0  0
  9 10  1  0  0  0
  9 27  2  0  0  0
 10 11  2  0  0  0
 10 15  1  0  0  0
 11 12  1  0  0  0
 11 95  1  0  0  0
 12 13  2  0  0  0
 12 96  1  0  0  0
 13 14  1  0  0  0
 13 31  1  0  0  0
 14 15  2  0  0  0
 14 97  1  0  0  0
 15 98  1  0  0  0
 16 17  2  0  0  0
 16 21  1  0  0  0
 16 31  1  0  0  0
 17 18  1  0  0  0
 17 99  1  0  0  0
 18 19  2  0  0  0
 18100  1  0  0  0
 19 20  1  0  0  0
 19 24  1  0  0  0
 20 21  2  0  0  0
 20101  1  0  0  0
 21 23  1  0  0  0
 22 28  1  0  0  0
 22 32  2  0  0  0
 26 27  1  0  0  0
 28102  1  0  0  0
 28103  1  0  0  0
 29104  1  0  0  0
 29105  1  0  0  0
 33 34  1  0  0  0
 33 66  1  0  0  0
 33 70  2  0  0  0
 34 36  1  0  0  0
 34 59  1  0  0  0
 34106  1  0  0  0
 35 44  2  0  0  0
 35 45  1  0  0  0
 35 68  1  0  0  0
 36 56  1  0  0  0
 36107  1  0  0  0
 37 39  1  0  0  0
 37 47  1  0  0  0
 37 66  1  0  0  0
 37108  1  0  0  0
 38 43  2  0  0  0
 38 46  1  0  0  0
 38 47  1  0  0  0
 39 64  1  0  0  0
 39 67  2  0  0  0
 40 52  1  0  0  0
 40 53  2  0  0  0
 40 58  1  0  0  0
 41109  1  0  0  0
 41110  1  0  0  0
 41111  1  0  0  0
 41 48  1  0  0  0
 42 43  1  0  0  0
 42 66  1  0  0  0
 42112  1  0  0  0
 42113  1  0  0  0
 43 44  1  0  0  0
 44114  1  0  0  0
 45 46  2  0  0  0
 45115  1  0  0  0
 46116  1  0  0  0
 47117  1  0  0  0
 47118  1  0  0  0
 48 56  1  0  0  0
 48 65  1  0  0  0
 48119  1  0  0  0
 49 50  1  0  0  0
 49 53  1  0  0  0
 49 64  1  0  0  0
 49120  1  0  0  0
 50 51  1  0  0  0
 50121  1  0  0  0
 50122  1  0  0  0
 51 52  1  0  0  0
 51123  1  0  0  0
 51124  1  0  0  0
 52125  1  0  0  0
 52126  1  0  0  0
 53 54  1  0  0  0
 54 55  2  0  0  0
 54127  1  0  0  0
 55 57  1  0  0  0
 55128  1  0  0  0
 56 69  2  0  0  0
 57 58  2  0  0  0
 57129  1  0  0  0
 58130  1  0  0  0
 59 60  1  0  0  0
 59 61  1  0  0  0
 59 62  1  0  0  0
 60131  1  0  0  0
 60132  1  0  0  0
 60133  1  0  0  0
 61134  1  0  0  0
 61135  1  0  0  0
 61136  1  0  0  0
 62137  1  0  0  0
 62138  1  0  0  0
 62139  1  0  0  0
 63 65  1  0  0  0
 63140  1  0  0  0
 63141  1  0  0  0
 63142  1  0  0  0
 64143  1  0  0  0
 65144  1  0  0  0
 68 80  1  0  0  0
 71 73  1  0  0  0
 71 74  2  0  0  0
 71145  1  0  0  0
 72 73  2  0  0  0
 72 85  1  0  0  0
 72146  1  0  0  0
 73 82  1  0  0  0
 74 77  1  0  0  0
 74 85  1  0  0  0
 75 81  1  0  0  0
 75 82  1  0  0  0
 75 84  2  0  0  0
 76 78  1  0  0  0
 76147  1  0  0  0
 76148  1  0  0  0
 76149  1  0  0  0
 77 83  1  0  0  0
 77150  1  0  0  0
 77151  1  0  0  0
 78152  1  0  0  0
 78153  1  0  0  0
 78 81  1  0  0  0
 79 80  1  0  0  0
 79 81  1  0  0  0
 79154  1  0  0  0
 79155  1  0  0  0
 80156  1  0  0  0
 80157  1  0  0  0
 81158  1  0  0  0
 82159  1  0  0  0
 83160  1  0  0  0
M  ISO  4   1 100  68 101  80 101  83 100
M  END
> <chiral flag>
0

> <version>
0

> <s_m_source_file>
/data/baiqing/PycharmProjects/Reinvent-master-3.2/result/LINK_invent/BTK/process_docking_weight1_custom_product_contain_oxygen_bond_distance_aromatic_linkinvent_7_9_3/rearranged_h_0195.sdf

> <i_m_source_file_index>
85

> <r_mmod_Potential_Energy-OPLS-2005>
-160.424850463867

> <r_mmod_Stretch_Energy-OPLS-2005>
36.7506103515625

> <r_mmod_Bend_Energy-OPLS-2005>
117.471778869629

> <r_mmod_Torsional_Energy-OPLS-2005>
204.23942565918

> <r_mmod_Improper_Torsional_Energy-OPLS-2005>
3.37508702278137

> <r_mmod_Van_der_Waal_Energy-OPLS-2005>
129.562545776367

> <r_mmod_Electrostatic_Energy-OPLS-2005>
-437.84521484375

> <r_mmod_Solvation_Energy-OPLS-2005>
-226.188262939453

> <b_mmod_Minimization_Converged-OPLS-2005>
0

> <r_mmod_RMS_Derivative-OPLS-2005>
1.46449637413025

$$$$
85
                    3D
 Structure written by MMmdl.
155163  0  0  1  0            999 V2000
  -30.6658  -14.5283   20.5475 C   0  0  0  0  0  0
  -30.4316  -12.3321   19.4322 C   0  0  0  0  0  0
  -29.5009  -12.5043   18.2124 C   0  0  0  0  0  0
  -28.0220  -12.3566   18.6233 C   0  0  0  0  0  0
  -27.6596  -13.2051   19.8708 C   0  0  2  0  0  0
  -28.7019  -13.0039   20.9949 C   0  0  0  0  0  0
  -25.2589  -13.8148   20.5677 C   0  0  0  0  0  0
  -24.1841  -13.0432   20.9187 C   0  0  0  0  0  0
  -24.6383  -11.6896   20.8732 C   0  0  0  0  0  0
  -23.9043  -10.4289   21.0404 C   0  0  0  0  0  0
  -24.3601   -9.4208   21.9182 C   0  0  0  0  0  0
  -23.6285   -8.2240   22.0753 C   0  0  0  0  0  0
  -22.4267   -8.0274   21.3544 C   0  0  0  0  0  0
  -21.9895   -9.0247   20.4649 C   0  0  0  0  0  0
  -22.7215  -10.2130   20.3055 C   0  0  0  0  0  0
  -21.6853   -6.0729   22.5279 C   0  0  0  0  0  0
  -21.4015   -6.5633   23.8211 C   0  0  0  0  0  0
  -21.3659   -5.6789   24.9175 C   0  0  0  0  0  0
  -21.6044   -4.3052   24.7226 C   0  0  0  0  0  0
  -21.8819   -3.8143   23.4347 C   0  0  0  0  0  0
  -21.9194   -4.6959   22.3403 C   0  0  0  0  0  0
  -22.7866  -13.5244   21.1849 C   0  0  0  0  0  0
  -22.1663   -4.2143   21.0981 F   0  0  0  0  0  0
  -21.5629   -3.4536   25.7737 F   0  0  0  0  0  0
  -30.0297  -13.3255   20.4427 N   0  0  0  0  0  0
  -26.3012  -12.9309   20.3332 N   0  0  0  0  0  0
  -25.9308  -11.6474   20.5747 N   0  0  0  0  0  0
  -22.0496  -12.8246   22.0404 N   0  0  0  0  0  0
  -25.4321  -15.1865   20.4069 N   0  0  0  0  0  0
  -31.8104  -14.7012   20.1163 O   0  0  0  0  0  0
  -21.6637   -6.8869   21.4238 O   0  0  0  0  0  0
  -22.3559  -14.5552   20.6691 O   0  0  0  0  0  0
  -24.6194  -31.8656   23.2083 C   0  0  0  0  0  0
  -25.9072  -32.4804   23.8389 C   0  0  1  0  0  0
  -27.2305  -27.3917   20.0800 C   0  0  0  0  0  0
  -25.5910  -33.8606   24.2311 N   0  0  0  0  0  0
  -23.4079  -30.4916   21.5507 C   0  0  2  0  0  0
  -24.8511  -28.9572   20.1129 C   0  0  0  0  0  0
  -22.7436  -29.4650   22.4978 C   0  0  0  0  0  0
  -18.0273  -28.1375   22.8487 C   0  0  0  0  0  0
  -24.1488  -36.7310   23.2640 C   0  0  0  0  0  0
  -25.9438  -30.8154   21.3701 C   0  0  0  0  0  0
  -26.0166  -29.4490   20.7116 C   0  0  0  0  0  0
  -27.2040  -28.6720   20.6968 C   0  0  0  0  0  0
  -26.0290  -26.9220   19.4953 C   0  0  0  0  0  0
  -24.8542  -27.6936   19.5059 C   0  0  0  0  0  0
  -23.6167  -29.8291   20.1644 C   0  0  0  0  0  0
  -25.4111  -36.3101   24.0335 C   0  0  1  0  0  0
  -20.5868  -28.3669   23.1308 C   0  0  2  0  0  0
  -20.6763  -26.9403   22.5414 C   0  0  0  0  0  0
  -19.5742  -26.6384   21.5210 C   0  0  0  0  0  0
  -18.1922  -26.7919   22.1622 C   0  0  0  0  0  0
  -19.1523  -28.8838   23.2890 C   0  0  0  0  0  0
  -18.9451  -30.1443   23.8903 C   0  0  0  0  0  0
  -17.6453  -30.6583   24.0560 C   0  0  0  0  0  0
  -25.9040  -34.9467   23.5120 C   0  0  0  0  0  0
  -16.5343  -29.9083   23.6326 C   0  0  0  0  0  0
  -16.7262  -28.6499   23.0348 C   0  0  0  0  0  0
  -26.4480  -31.6595   25.0734 C   0  0  0  0  0  0
  -25.3736  -31.3718   26.1479 C   0  0  0  0  0  0
  -27.0309  -30.3025   24.6147 C   0  0  0  0  0  0
  -27.6056  -32.4318   25.7493 C   0  0  0  0  0  0
  -27.5577  -37.1815   24.8469 C   0  0  0  0  0  0
  -21.4159  -29.3035   22.3718 N   0  0  0  0  0  0
  -26.4297  -37.3785   23.9400 N   0  0  0  0  0  0
  -24.6755  -31.0727   22.1003 N   0  0  0  0  0  0
  -23.4197  -28.8186   23.3025 O   0  0  0  0  0  0
  -28.3944  -26.6280   20.1235 O   0  0  0  0  0  0
  -26.5604  -34.8923   22.4683 O   0  0  0  0  0  0
  -23.5375  -32.1430   23.7452 O   0  0  0  0  0  0
  -28.8997  -17.7460   21.2270 C   0  0  0  0  0  0
  -30.0491  -19.7512   20.9085 C   0  0  0  0  0  0
  -30.0491  -16.9637   20.9352 C   0  0  0  0  0  0
  -31.2138  -18.9693   20.6032 C   0  0  0  0  0  0
  -30.0607  -21.2780   21.0391 C   0  0  0  0  0  0
  -28.7098  -23.4041   20.6950 C   0  0  0  0  0  0
  -28.6326  -25.5822   19.1462 C   0  0  0  0  0  0
  -29.4123  -24.3195   19.6453 C   0  0  1  0  0  0
  -28.8891  -19.1069   21.2103 N   0  0  0  0  0  0
  -31.2026  -17.6093   20.6094 N   0  0  0  0  0  0
  -32.4540  -19.5049   20.2655 N   0  0  0  0  0  0
  -29.8922  -15.5362   21.0170 N   0  0  0  0  0  0
  -28.9999  -21.9557   20.5509 N   0  0  0  0  0  0
  -31.0007  -21.8590   21.5881 O   0  0  0  0  0  0
  -30.6717  -24.7579   20.1216 O   0  0  0  0  0  0
  -31.4746  -12.4423   19.1306 H   0  0  0  0  0  0
  -30.3454  -11.3243   19.8415 H   0  0  0  0  0  0
  -29.7496  -11.7721   17.4430 H   0  0  0  0  0  0
  -29.6606  -13.4852   17.7618 H   0  0  0  0  0  0
  -27.8410  -11.3013   18.8304 H   0  0  0  0  0  0
  -27.3711  -12.6168   17.7880 H   0  0  0  0  0  0
  -27.6969  -14.2491   19.5596 H   0  0  0  0  0  0
  -28.6898  -11.9692   21.3412 H   0  0  0  0  0  0
  -28.4564  -13.6047   21.8716 H   0  0  0  0  0  0
  -25.2747   -9.5692   22.4750 H   0  0  0  0  0  0
  -24.0001   -7.4633   22.7467 H   0  0  0  0  0  0
  -21.0828   -8.8760   19.8957 H   0  0  0  0  0  0
  -22.3669  -10.9666   19.6162 H   0  0  0  0  0  0
  -21.2004   -7.6139   23.9710 H   0  0  0  0  0  0
  -21.1483   -6.0521   25.9079 H   0  0  0  0  0  0
  -22.0599   -2.7606   23.2849 H   0  0  0  0  0  0
  -22.4104  -11.9908   22.4803 H   0  0  0  0  0  0
  -21.1117  -13.1284   22.2597 H   0  0  0  0  0  0
  -24.6573  -15.8351   20.4967 H   0  0  0  0  0  0
  -26.2628  -15.6162   20.0220 H   0  0  0  0  0  0
  -26.7143  -32.5489   23.1145 H   0  0  0  0  0  0
  -25.0057  -33.9765   25.0453 H   0  0  0  0  0  0
  -22.6979  -31.3097   21.4134 H   0  0  0  0  0  0
  -23.3737  -35.9659   23.3335 H   0  0  0  0  0  0
  -24.3576  -36.8889   22.2048 H   0  0  0  0  0  0
  -23.7268  -37.6537   23.6633 H   0  0  0  0  0  0
  -26.0690  -31.5823   20.6045 H   0  0  0  0  0  0
  -26.8272  -30.8607   21.9953 H   0  0  0  0  0  0
  -28.1015  -29.0499   21.1664 H   0  0  0  0  0  0
  -25.9356  -25.9454   19.0507 H   0  0  0  0  0  0
  -23.9527  -27.3009   19.0557 H   0  0  0  0  0  0
  -23.7290  -30.6059   19.4071 H   0  0  0  0  0  0
  -22.7383  -29.2538   19.8662 H   0  0  0  0  0  0
  -25.1291  -36.1966   25.0830 H   0  0  0  0  0  0
  -20.9951  -28.3232   24.1431 H   0  0  0  0  0  0
  -20.5666  -26.2279   23.3604 H   0  0  0  0  0  0
  -21.6636  -26.7444   22.1208 H   0  0  0  0  0  0
  -19.6907  -25.6298   21.1232 H   0  0  0  0  0  0
  -19.6676  -27.3198   20.6743 H   0  0  0  0  0  0
  -17.4193  -26.6663   21.4022 H   0  0  0  0  0  0
  -18.0321  -26.0059   22.9017 H   0  0  0  0  0  0
  -19.7932  -30.7250   24.2279 H   0  0  0  0  0  0
  -17.5014  -31.6266   24.5158 H   0  0  0  0  0  0
  -15.5343  -30.2985   23.7652 H   0  0  0  0  0  0
  -15.8662  -28.0818   22.7061 H   0  0  0  0  0  0
  -24.5903  -30.7069   25.7820 H   0  0  0  0  0  0
  -24.8931  -32.2877   26.4929 H   0  0  0  0  0  0
  -25.8081  -30.8888   27.0239 H   0  0  0  0  0  0
  -26.2861  -29.6792   24.1184 H   0  0  0  0  0  0
  -27.4036  -29.7264   25.4627 H   0  0  0  0  0  0
  -27.8722  -30.4323   23.9334 H   0  0  0  0  0  0
  -27.2676  -33.3609   26.2093 H   0  0  0  0  0  0
  -28.3848  -32.6891   25.0307 H   0  0  0  0  0  0
  -28.0745  -31.8429   26.5386 H   0  0  0  0  0  0
  -28.2624  -38.0082   24.7475 H   0  0  0  0  0  0
  -28.1039  -36.2612   24.6339 H   0  0  0  0  0  0
  -27.2290  -37.1530   25.8873 H   0  0  0  0  0  0
  -20.9329  -29.8767   21.6944 H   0  0  0  0  0  0
  -26.0184  -38.2869   24.1368 H   0  0  0  0  0  0
  -27.9633  -17.2715   21.4857 H   0  0  0  0  0  0
  -27.6308  -23.5046   20.5689 H   0  0  0  0  0  0
  -28.9128  -23.7405   21.7132 H   0  0  0  0  0  0
  -27.7407  -25.2058   18.6581 H   0  0  0  0  0  0
  -29.2024  -26.0445   18.3392 H   0  0  0  0  0  0
  -29.5974  -23.7116   18.7579 H   0  0  0  0  0  0
  -32.6380  -20.4755   20.5022 H   0  0  0  0  0  0
  -33.2689  -18.9037   20.2988 H   0  0  0  0  0  0
  -28.9901  -15.2300   21.3455 H   0  0  0  0  0  0
  -28.2803  -21.3821   20.1316 H   0  0  0  0  0  0
  -30.5007  -25.4216   20.7835 H   0  0  0  0  0  0
  1 25  1  0  0  0
  1 30  2  0  0  0
  1 82  1  0  0  0
  2  3  1  0  0  0
  2 25  1  0  0  0
  2 86  1  0  0  0
  2 87  1  0  0  0
  3  4  1  0  0  0
  3 88  1  0  0  0
  3 89  1  0  0  0
  4  5  1  0  0  0
  4 90  1  0  0  0
  4 91  1  0  0  0
  5  6  1  0  0  0
  5 26  1  0  0  0
  5 92  1  0  0  0
  6 25  1  0  0  0
  6 93  1  0  0  0
  6 94  1  0  0  0
  7  8  2  0  0  0
  7 26  1  0  0  0
  7 29  1  0  0  0
  8  9  1  0  0  0
  8 22  1  0  0  0
  9 10  1  0  0  0
  9 27  2  0  0  0
 10 11  2  0  0  0
 10 15  1  0  0  0
 11 12  1  0  0  0
 11 95  1  0  0  0
 12 13  2  0  0  0
 12 96  1  0  0  0
 13 14  1  0  0  0
 13 31  1  0  0  0
 14 15  2  0  0  0
 14 97  1  0  0  0
 15 98  1  0  0  0
 16 17  2  0  0  0
 16 21  1  0  0  0
 16 31  1  0  0  0
 17 18  1  0  0  0
 17 99  1  0  0  0
 18 19  2  0  0  0
 18100  1  0  0  0
 19 20  1  0  0  0
 19 24  1  0  0  0
 20 21  2  0  0  0
 20101  1  0  0  0
 21 23  1  0  0  0
 22 28  1  0  0  0
 22 32  2  0  0  0
 26 27  1  0  0  0
 28102  1  0  0  0
 28103  1  0  0  0
 29104  1  0  0  0
 29105  1  0  0  0
 33 34  1  0  0  0
 33 66  1  0  0  0
 33 70  2  0  0  0
 34 36  1  0  0  0
 34 59  1  0  0  0
 34106  1  0  0  0
 35 44  2  0  0  0
 35 45  1  0  0  0
 35 68  1  0  0  0
 36 56  1  0  0  0
 36107  1  0  0  0
 37 39  1  0  0  0
 37 47  1  0  0  0
 37 66  1  0  0  0
 37108  1  0  0  0
 38 43  2  0  0  0
 38 46  1  0  0  0
 38 47  1  0  0  0
 39 64  1  0  0  0
 39 67  2  0  0  0
 40 52  1  0  0  0
 40 53  2  0  0  0
 40 58  1  0  0  0
 41109  1  0  0  0
 41110  1  0  0  0
 41111  1  0  0  0
 41 48  1  0  0  0
 42 43  1  0  0  0
 42 66  1  0  0  0
 42112  1  0  0  0
 42113  1  0  0  0
 43 44  1  0  0  0
 44114  1  0  0  0
 45 46  2  0  0  0
 45115  1  0  0  0
 46116  1  0  0  0
 47117  1  0  0  0
 47118  1  0  0  0
 48 56  1  0  0  0
 48 65  1  0  0  0
 48119  1  0  0  0
 49 50  1  0  0  0
 49 53  1  0  0  0
 49 64  1  0  0  0
 49120  1  0  0  0
 50 51  1  0  0  0
 50121  1  0  0  0
 50122  1  0  0  0
 51 52  1  0  0  0
 51123  1  0  0  0
 51124  1  0  0  0
 52125  1  0  0  0
 52126  1  0  0  0
 53 54  1  0  0  0
 54 55  2  0  0  0
 54127  1  0  0  0
 55 57  1  0  0  0
 55128  1  0  0  0
 56 69  2  0  0  0
 57 58  2  0  0  0
 57129  1  0  0  0
 58130  1  0  0  0
 59 60  1  0  0  0
 59 61  1  0  0  0
 59 62  1  0  0  0
 60131  1  0  0  0
 60132  1  0  0  0
 60133  1  0  0  0
 61134  1  0  0  0
 61135  1  0  0  0
 61136  1  0  0  0
 62137  1  0  0  0
 62138  1  0  0  0
 62139  1  0  0  0
 63 65  1  0  0  0
 63140  1  0  0  0
 63141  1  0  0  0
 63142  1  0  0  0
 64143  1  0  0  0
 65144  1  0  0  0
 68 77  1  0  0  0
 71 73  2  0  0  0
 71 79  1  0  0  0
 71145  1  0  0  0
 72 74  1  0  0  0
 72 75  1  0  0  0
 72 79  2  0  0  0
 73 80  1  0  0  0
 73 82  1  0  0  0
 74 80  2  0  0  0
 74 81  1  0  0  0
 75 83  1  0  0  0
 75 84  2  0  0  0
 76 78  1  0  0  0
 76 83  1  0  0  0
 76146  1  0  0  0
 76147  1  0  0  0
 77 78  1  0  0  0
 77148  1  0  0  0
 77149  1  0  0  0
 78 85  1  0  0  0
 78150  1  0  0  0
 81151  1  0  0  0
 81152  1  0  0  0
 82153  1  0  0  0
 83154  1  0  0  0
 85155  1  0  0  0
M  ISO  4   1 100  68 101  77 101  82 100
M  END
> <chiral flag>
0

> <version>
0

> <s_m_source_file>
/data/baiqing/PycharmProjects/Reinvent-master-3.2/result/LINK_invent/BTK/process_docking_weight1_custom_product_contain_oxygen_bond_distance_aromatic_linkinvent_7_9_3/rearranged_h_0195.sdf

> <i_m_source_file_index>
86

> <r_mmod_Potential_Energy-OPLS-2005>
31.5968017578125

> <r_mmod_Stretch_Energy-OPLS-2005>
52.9110794067383

> <r_mmod_Bend_Energy-OPLS-2005>
129.653427124023

> <r_mmod_Torsional_Energy-OPLS-2005>
246.826431274414

> <r_mmod_Improper_Torsional_Energy-OPLS-2005>
7.15958499908447

> <r_mmod_Van_der_Waal_Energy-OPLS-2005>
156.304306030273

> <r_mmod_Electrostatic_Energy-OPLS-2005>
-294.9736328125

> <r_mmod_Solvation_Energy-OPLS-2005>
-287.186676025391

> <b_mmod_Minimization_Converged-OPLS-2005>
0

> <r_mmod_RMS_Derivative-OPLS-2005>
0.652410387992859

$$$$
86
                    3D
 Structure written by MMmdl.
159167  0  0  1  0            999 V2000
  -30.6885  -14.5361   20.4980 C   0  0  0  0  0  0
  -30.4114  -12.3258   19.4424 C   0  0  0  0  0  0
  -29.4943  -12.4923   18.2128 C   0  0  0  0  0  0
  -28.0155  -12.3520   18.6239 C   0  0  0  0  0  0
  -27.6514  -13.2162   19.8622 C   0  0  2  0  0  0
  -28.6939  -13.0595   20.9925 C   0  0  0  0  0  0
  -25.2553  -13.8178   20.5687 C   0  0  0  0  0  0
  -24.1828  -13.0444   20.9190 C   0  0  0  0  0  0
  -24.6395  -11.6906   20.8741 C   0  0  0  0  0  0
  -23.9060  -10.4291   21.0411 C   0  0  0  0  0  0
  -24.3622   -9.4205   21.9182 C   0  0  0  0  0  0
  -23.6293   -8.2243   22.0758 C   0  0  0  0  0  0
  -22.4270   -8.0284   21.3553 C   0  0  0  0  0  0
  -21.9907   -9.0256   20.4651 C   0  0  0  0  0  0
  -22.7237  -10.2130   20.3054 C   0  0  0  0  0  0
  -21.6861   -6.0737   22.5277 C   0  0  0  0  0  0
  -21.4016   -6.5641   23.8213 C   0  0  0  0  0  0
  -21.3657   -5.6797   24.9176 C   0  0  0  0  0  0
  -21.6043   -4.3055   24.7229 C   0  0  0  0  0  0
  -21.8819   -3.8146   23.4349 C   0  0  0  0  0  0
  -21.9191   -4.6963   22.3405 C   0  0  0  0  0  0
  -22.7848  -13.5236   21.1848 C   0  0  0  0  0  0
  -22.1661   -4.2146   21.0981 F   0  0  0  0  0  0
  -21.5625   -3.4540   25.7740 F   0  0  0  0  0  0
  -30.0173  -13.3506   20.4254 N   0  0  0  0  0  0
  -26.2983  -12.9369   20.3329 N   0  0  0  0  0  0
  -25.9328  -11.6518   20.5764 N   0  0  0  0  0  0
  -22.0491  -12.8232   22.0399 N   0  0  0  0  0  0
  -25.4264  -15.1910   20.4113 N   0  0  0  0  0  0
  -31.8679  -14.6083   20.1436 O   0  0  0  0  0  0
  -21.6640   -6.8874   21.4237 O   0  0  0  0  0  0
  -22.3543  -14.5555   20.6693 O   0  0  0  0  0  0
  -24.6194  -31.8660   23.2072 C   0  0  0  0  0  0
  -25.9076  -32.4803   23.8375 C   0  0  1  0  0  0
  -27.2228  -27.3830   20.0948 C   0  0  0  0  0  0
  -25.5916  -33.8603   24.2306 N   0  0  0  0  0  0
  -23.4077  -30.4911   21.5500 C   0  0  2  0  0  0
  -24.8494  -28.9532   20.1151 C   0  0  0  0  0  0
  -22.7433  -29.4647   22.4964 C   0  0  0  0  0  0
  -18.0279  -28.1384   22.8481 C   0  0  0  0  0  0
  -24.1496  -36.7306   23.2636 C   0  0  0  0  0  0
  -25.9436  -30.8125   21.3690 C   0  0  0  0  0  0
  -26.0154  -29.4457   20.7116 C   0  0  0  0  0  0
  -27.2039  -28.6710   20.6936 C   0  0  0  0  0  0
  -26.0258  -26.9151   19.5005 C   0  0  0  0  0  0
  -24.8529  -27.6903   19.5073 C   0  0  0  0  0  0
  -23.6168  -29.8268   20.1645 C   0  0  0  0  0  0
  -25.4118  -36.3101   24.0328 C   0  0  1  0  0  0
  -20.5873  -28.3668   23.1303 C   0  0  2  0  0  0
  -20.6774  -26.9402   22.5410 C   0  0  0  0  0  0
  -19.5753  -26.6383   21.5214 C   0  0  0  0  0  0
  -18.1928  -26.7932   22.1624 C   0  0  0  0  0  0
  -19.1528  -28.8846   23.2886 C   0  0  0  0  0  0
  -18.9458  -30.1449   23.8903 C   0  0  0  0  0  0
  -17.6457  -30.6586   24.0561 C   0  0  0  0  0  0
  -25.9044  -34.9463   23.5117 C   0  0  0  0  0  0
  -16.5349  -29.9078   23.6326 C   0  0  0  0  0  0
  -16.7268  -28.6497   23.0346 C   0  0  0  0  0  0
  -26.4481  -31.6595   25.0715 C   0  0  0  0  0  0
  -25.3732  -31.3706   26.1448 C   0  0  0  0  0  0
  -27.0308  -30.3032   24.6117 C   0  0  0  0  0  0
  -27.6054  -32.4312   25.7477 C   0  0  0  0  0  0
  -27.5584  -37.1808   24.8464 C   0  0  0  0  0  0
  -21.4157  -29.3040   22.3706 N   0  0  0  0  0  0
  -26.4298  -37.3788   23.9404 N   0  0  0  0  0  0
  -24.6757  -31.0717   22.0998 N   0  0  0  0  0  0
  -23.4193  -28.8189   23.3012 O   0  0  0  0  0  0
  -28.3948  -26.6335   20.1200 O   0  0  0  0  0  0
  -26.5604  -34.8917   22.4676 O   0  0  0  0  0  0
  -23.5376  -32.1439   23.7434 O   0  0  0  0  0  0
  -31.3895  -17.5216   20.0144 C   0  0  0  0  0  0
  -31.5419  -18.8926   19.8102 C   0  0  0  0  0  0
  -30.1851  -17.0462   20.5837 C   0  0  0  0  0  0
  -29.4869  -19.2791   20.6702 C   0  0  0  0  0  0
  -27.9928  -21.7773   22.7841 C   0  0  0  0  0  0
  -28.3019  -22.6800   20.3695 C   0  0  0  0  0  0
  -28.4135  -25.2431   19.6849 C   0  0  0  0  0  0
  -28.7027  -21.5886   21.4328 C   0  0  1  0  0  0
  -28.2481  -24.1889   20.8300 C   0  0  1  0  0  0
  -30.5980  -19.7722   20.1483 N   0  0  0  0  0  0
  -29.2355  -17.9813   20.8946 N   0  0  0  0  0  0
  -32.6939  -19.4172   19.2453 N   0  0  0  0  0  0
  -29.9418  -15.6333   20.8082 N   0  0  0  0  0  0
  -28.4875  -20.1953   20.9756 N   0  0  0  0  0  0
  -26.9745  -24.4132   21.4103 O   0  0  0  0  0  0
  -31.4603  -12.3997   19.1484 H   0  0  0  0  0  0
  -30.2954  -11.3312   19.8750 H   0  0  0  0  0  0
  -29.7435  -11.7473   17.4563 H   0  0  0  0  0  0
  -29.6609  -13.4673   17.7497 H   0  0  0  0  0  0
  -27.8343  -11.2987   18.8416 H   0  0  0  0  0  0
  -27.3658  -12.6046   17.7852 H   0  0  0  0  0  0
  -27.6738  -14.2538   19.5294 H   0  0  0  0  0  0
  -28.6816  -12.0445   21.3939 H   0  0  0  0  0  0
  -28.4613  -13.7135   21.8348 H   0  0  0  0  0  0
  -25.2762   -9.5689   22.4761 H   0  0  0  0  0  0
  -23.9999   -7.4641   22.7481 H   0  0  0  0  0  0
  -21.0837   -8.8781   19.8959 H   0  0  0  0  0  0
  -22.3697  -10.9679   19.6169 H   0  0  0  0  0  0
  -21.2014   -7.6151   23.9718 H   0  0  0  0  0  0
  -21.1478   -6.0525   25.9082 H   0  0  0  0  0  0
  -22.0598   -2.7605   23.2854 H   0  0  0  0  0  0
  -22.4107  -11.9892   22.4786 H   0  0  0  0  0  0
  -21.1117  -13.1266   22.2614 H   0  0  0  0  0  0
  -24.6570  -15.8418   20.5240 H   0  0  0  0  0  0
  -26.2760  -15.6368   20.0895 H   0  0  0  0  0  0
  -26.7125  -32.5495   23.1109 H   0  0  0  0  0  0
  -25.0072  -33.9777   25.0452 H   0  0  0  0  0  0
  -22.6981  -31.3099   21.4112 H   0  0  0  0  0  0
  -23.3756  -35.9645   23.3313 H   0  0  0  0  0  0
  -24.3588  -36.8914   22.2049 H   0  0  0  0  0  0
  -23.7251  -37.6512   23.6647 H   0  0  0  0  0  0
  -26.0689  -31.5784   20.6026 H   0  0  0  0  0  0
  -26.8269  -30.8596   21.9940 H   0  0  0  0  0  0
  -28.1055  -29.0524   21.1520 H   0  0  0  0  0  0
  -25.9476  -25.9476   19.0307 H   0  0  0  0  0  0
  -23.9542  -27.3032   19.0481 H   0  0  0  0  0  0
  -23.7319  -30.6029   19.4070 H   0  0  0  0  0  0
  -22.7383  -29.2525   19.8648 H   0  0  0  0  0  0
  -25.1301  -36.1960   25.0821 H   0  0  0  0  0  0
  -20.9968  -28.3246   24.1422 H   0  0  0  0  0  0
  -20.5707  -26.2272   23.3596 H   0  0  0  0  0  0
  -21.6641  -26.7453   22.1192 H   0  0  0  0  0  0
  -19.6917  -25.6299   21.1231 H   0  0  0  0  0  0
  -19.6707  -27.3205   20.6758 H   0  0  0  0  0  0
  -17.4203  -26.6671   21.4019 H   0  0  0  0  0  0
  -18.0328  -26.0078   22.9027 H   0  0  0  0  0  0
  -19.7933  -30.7256   24.2284 H   0  0  0  0  0  0
  -17.5013  -31.6275   24.5159 H   0  0  0  0  0  0
  -15.5351  -30.2987   23.7651 H   0  0  0  0  0  0
  -15.8664  -28.0822   22.7059 H   0  0  0  0  0  0
  -24.5901  -30.7066   25.7766 H   0  0  0  0  0  0
  -24.8921  -32.2865   26.4897 H   0  0  0  0  0  0
  -25.8064  -30.8857   27.0207 H   0  0  0  0  0  0
  -26.2859  -29.6787   24.1166 H   0  0  0  0  0  0
  -27.4066  -29.7267   25.4582 H   0  0  0  0  0  0
  -27.8709  -30.4336   23.9285 H   0  0  0  0  0  0
  -27.2680  -33.3602   26.2082 H   0  0  0  0  0  0
  -28.3848  -32.6891   25.0294 H   0  0  0  0  0  0
  -28.0743  -31.8421   26.5367 H   0  0  0  0  0  0
  -28.2605  -38.0102   24.7509 H   0  0  0  0  0  0
  -28.1080  -36.2633   24.6303 H   0  0  0  0  0  0
  -27.2302  -37.1473   25.8867 H   0  0  0  0  0  0
  -20.9321  -29.8762   21.6925 H   0  0  0  0  0  0
  -26.0191  -38.2871   24.1393 H   0  0  0  0  0  0
  -32.1918  -16.8642   19.7198 H   0  0  0  0  0  0
  -28.2470  -22.7385   23.2302 H   0  0  0  0  0  0
  -28.2944  -21.0118   23.5008 H   0  0  0  0  0  0
  -26.9076  -21.7361   22.6785 H   0  0  0  0  0  0
  -27.3451  -22.4158   19.9174 H   0  0  0  0  0  0
  -29.0251  -22.6042   19.5562 H   0  0  0  0  0  0
  -27.7577  -25.0308   18.8431 H   0  0  0  0  0  0
  -29.4082  -25.0941   19.2628 H   0  0  0  0  0  0
  -29.7670  -21.7145   21.6385 H   0  0  0  0  0  0
  -29.0234  -24.3747   21.5750 H   0  0  0  0  0  0
  -32.6678  -20.3634   18.8866 H   0  0  0  0  0  0
  -33.3292  -18.8046   18.7486 H   0  0  0  0  0  0
  -29.0135  -15.4147   21.1267 H   0  0  0  0  0  0
  -27.6431  -19.7562   21.3191 H   0  0  0  0  0  0
  -26.9084  -25.3478   21.5807 H   0  0  0  0  0  0
  1 25  1  0  0  0
  1 30  2  0  0  0
  1 83  1  0  0  0
  2  3  1  0  0  0
  2 25  1  0  0  0
  2 86  1  0  0  0
  2 87  1  0  0  0
  3  4  1  0  0  0
  3 88  1  0  0  0
  3 89  1  0  0  0
  4  5  1  0  0  0
  4 90  1  0  0  0
  4 91  1  0  0  0
  5  6  1  0  0  0
  5 26  1  0  0  0
  5 92  1  0  0  0
  6 25  1  0  0  0
  6 93  1  0  0  0
  6 94  1  0  0  0
  7  8  2  0  0  0
  7 26  1  0  0  0
  7 29  1  0  0  0
  8  9  1  0  0  0
  8 22  1  0  0  0
  9 10  1  0  0  0
  9 27  2  0  0  0
 10 11  2  0  0  0
 10 15  1  0  0  0
 11 12  1  0  0  0
 11 95  1  0  0  0
 12 13  2  0  0  0
 12 96  1  0  0  0
 13 14  1  0  0  0
 13 31  1  0  0  0
 14 15  2  0  0  0
 14 97  1  0  0  0
 15 98  1  0  0  0
 16 17  2  0  0  0
 16 21  1  0  0  0
 16 31  1  0  0  0
 17 18  1  0  0  0
 17 99  1  0  0  0
 18 19  2  0  0  0
 18100  1  0  0  0
 19 20  1  0  0  0
 19 24  1  0  0  0
 20 21  2  0  0  0
 20101  1  0  0  0
 21 23  1  0  0  0
 22 28  1  0  0  0
 22 32  2  0  0  0
 26 27  1  0  0  0
 28102  1  0  0  0
 28103  1  0  0  0
 29104  1  0  0  0
 29105  1  0  0  0
 33 34  1  0  0  0
 33 66  1  0  0  0
 33 70  2  0  0  0
 34 36  1  0  0  0
 34 59  1  0  0  0
 34106  1  0  0  0
 35 44  2  0  0  0
 35 45  1  0  0  0
 35 68  1  0  0  0
 36 56  1  0  0  0
 36107  1  0  0  0
 37 39  1  0  0  0
 37 47  1  0  0  0
 37 66  1  0  0  0
 37108  1  0  0  0
 38 43  2  0  0  0
 38 46  1  0  0  0
 38 47  1  0  0  0
 39 64  1  0  0  0
 39 67  2  0  0  0
 40 52  1  0  0  0
 40 53  2  0  0  0
 40 58  1  0  0  0
 41109  1  0  0  0
 41110  1  0  0  0
 41111  1  0  0  0
 41 48  1  0  0  0
 42 43  1  0  0  0
 42 66  1  0  0  0
 42112  1  0  0  0
 42113  1  0  0  0
 43 44  1  0  0  0
 44114  1  0  0  0
 45 46  2  0  0  0
 45115  1  0  0  0
 46116  1  0  0  0
 47117  1  0  0  0
 47118  1  0  0  0
 48 56  1  0  0  0
 48 65  1  0  0  0
 48119  1  0  0  0
 49 50  1  0  0  0
 49 53  1  0  0  0
 49 64  1  0  0  0
 49120  1  0  0  0
 50 51  1  0  0  0
 50121  1  0  0  0
 50122  1  0  0  0
 51 52  1  0  0  0
 51123  1  0  0  0
 51124  1  0  0  0
 52125  1  0  0  0
 52126  1  0  0  0
 53 54  1  0  0  0
 54 55  2  0  0  0
 54127  1  0  0  0
 55 57  1  0  0  0
 55128  1  0  0  0
 56 69  2  0  0  0
 57 58  2  0  0  0
 57129  1  0  0  0
 58130  1  0  0  0
 59 60  1  0  0  0
 59 61  1  0  0  0
 59 62  1  0  0  0
 60131  1  0  0  0
 60132  1  0  0  0
 60133  1  0  0  0
 61134  1  0  0  0
 61135  1  0  0  0
 61136  1  0  0  0
 62137  1  0  0  0
 62138  1  0  0  0
 62139  1  0  0  0
 63 65  1  0  0  0
 63140  1  0  0  0
 63141  1  0  0  0
 63142  1  0  0  0
 64143  1  0  0  0
 65144  1  0  0  0
 68 77  1  0  0  0
 71 72  2  0  0  0
 71 73  1  0  0  0
 71145  1  0  0  0
 72 80  1  0  0  0
 72 82  1  0  0  0
 73 81  2  0  0  0
 73 83  1  0  0  0
 74 80  2  0  0  0
 74 81  1  0  0  0
 74 84  1  0  0  0
 75146  1  0  0  0
 75147  1  0  0  0
 75148  1  0  0  0
 75 78  1  0  0  0
 76 78  1  0  0  0
 76 79  1  0  0  0
 76149  1  0  0  0
 76150  1  0  0  0
 77 79  1  0  0  0
 77151  1  0  0  0
 77152  1  0  0  0
 78 84  1  0  0  0
 78153  1  0  0  0
 79 85  1  0  0  0
 79154  1  0  0  0
 82155  1  0  0  0
 82156  1  0  0  0
 83157  1  0  0  0
 84158  1  0  0  0
 85159  1  0  0  0
M  ISO  4   1 100  68 101  77 101  83 100
M  END
> <chiral flag>
0

> <version>
0

> <s_m_source_file>
/data/baiqing/PycharmProjects/Reinvent-master-3.2/result/LINK_invent/BTK/process_docking_weight1_custom_product_contain_oxygen_bond_distance_aromatic_linkinvent_7_9_3/rearranged_h_0195.sdf

> <i_m_source_file_index>
87

> <r_mmod_Potential_Energy-OPLS-2005>
-524.027893066406

> <r_mmod_Stretch_Energy-OPLS-2005>
52.2827415466309

> <r_mmod_Bend_Energy-OPLS-2005>
133.935440063477

> <r_mmod_Torsional_Energy-OPLS-2005>
225.143249511719

> <r_mmod_Improper_Torsional_Energy-OPLS-2005>
8.58297443389893

> <r_mmod_Van_der_Waal_Energy-OPLS-2005>
165.357635498047

> <r_mmod_Electrostatic_Energy-OPLS-2005>
-894.461120605469

> <r_mmod_Solvation_Energy-OPLS-2005>
-240.361404418945

> <b_mmod_Minimization_Converged-OPLS-2005>
0

> <r_mmod_RMS_Derivative-OPLS-2005>
2.15739345550537

$$$$
87
                    3D
 Structure written by MMmdl.
152160  0  0  1  0            999 V2000
  -30.5918  -14.7667   20.4480 C   0  0  0  0  0  0
  -30.4290  -12.4634   19.4871 C   0  0  0  0  0  0
  -29.5132  -12.5103   18.2435 C   0  0  0  0  0  0
  -28.0380  -12.3346   18.6504 C   0  0  0  0  0  0
  -27.6390  -13.2361   19.8494 C   0  0  2  0  0  0
  -28.6782  -13.1783   20.9902 C   0  0  0  0  0  0
  -25.2494  -13.8220   20.5674 C   0  0  0  0  0  0
  -24.1798  -13.0467   20.9237 C   0  0  0  0  0  0
  -24.6383  -11.6939   20.8765 C   0  0  0  0  0  0
  -23.9062  -10.4307   21.0419 C   0  0  0  0  0  0
  -24.3617   -9.4219   21.9193 C   0  0  0  0  0  0
  -23.6292   -8.2254   22.0764 C   0  0  0  0  0  0
  -22.4276   -8.0285   21.3550 C   0  0  0  0  0  0
  -21.9909   -9.0262   20.4657 C   0  0  0  0  0  0
  -22.7237  -10.2145   20.3064 C   0  0  0  0  0  0
  -21.6857   -6.0739   22.5279 C   0  0  0  0  0  0
  -21.4017   -6.5640   23.8212 C   0  0  0  0  0  0
  -21.3656   -5.6789   24.9174 C   0  0  0  0  0  0
  -21.6044   -4.3053   24.7226 C   0  0  0  0  0  0
  -21.8818   -3.8145   23.4344 C   0  0  0  0  0  0
  -21.9194   -4.6963   22.3401 C   0  0  0  0  0  0
  -22.7815  -13.5247   21.1872 C   0  0  0  0  0  0
  -22.1661   -4.2149   21.0980 F   0  0  0  0  0  0
  -21.5622   -3.4532   25.7738 F   0  0  0  0  0  0
  -29.9812  -13.5305   20.4152 N   0  0  0  0  0  0
  -26.2910  -12.9422   20.3248 N   0  0  0  0  0  0
  -25.9307  -11.6567   20.5745 N   0  0  0  0  0  0
  -22.0442  -12.8249   22.0422 N   0  0  0  0  0  0
  -25.4195  -15.1937   20.3971 N   0  0  0  0  0  0
  -31.7713  -14.8687   20.0983 O   0  0  0  0  0  0
  -21.6641   -6.8881   21.4241 O   0  0  0  0  0  0
  -22.3508  -14.5550   20.6701 O   0  0  0  0  0  0
  -24.6328  -31.8522   23.1938 C   0  0  0  0  0  0
  -25.9146  -32.4737   23.8296 C   0  0  1  0  0  0
  -27.2247  -27.2387   20.1301 C   0  0  0  0  0  0
  -25.5933  -33.8541   24.2231 N   0  0  0  0  0  0
  -23.4305  -30.4726   21.5379 C   0  0  2  0  0  0
  -24.8775  -28.9113   20.1088 C   0  0  0  0  0  0
  -22.7504  -29.4594   22.4902 C   0  0  0  0  0  0
  -18.0291  -28.1395   22.8487 C   0  0  0  0  0  0
  -24.1492  -36.7269   23.2642 C   0  0  0  0  0  0
  -25.9764  -30.7583   21.3750 C   0  0  0  0  0  0
  -26.0479  -29.3780   20.7178 C   0  0  0  0  0  0
  -27.2201  -28.5541   20.7153 C   0  0  0  0  0  0
  -26.0254  -26.8367   19.5010 C   0  0  0  0  0  0
  -24.8729  -27.6504   19.4906 C   0  0  0  0  0  0
  -23.6483  -29.7997   20.1560 C   0  0  0  0  0  0
  -25.4121  -36.3059   24.0325 C   0  0  1  0  0  0
  -20.5895  -28.3709   23.1268 C   0  0  2  0  0  0
  -20.6777  -26.9424   22.5411 C   0  0  0  0  0  0
  -19.5751  -26.6394   21.5217 C   0  0  0  0  0  0
  -18.1933  -26.7940   22.1627 C   0  0  0  0  0  0
  -19.1544  -28.8870   23.2872 C   0  0  0  0  0  0
  -18.9463  -30.1473   23.8889 C   0  0  0  0  0  0
  -17.6460  -30.6595   24.0566 C   0  0  0  0  0  0
  -25.9063  -34.9433   23.5087 C   0  0  0  0  0  0
  -16.5353  -29.9092   23.6334 C   0  0  0  0  0  0
  -16.7277  -28.6509   23.0357 C   0  0  0  0  0  0
  -26.4507  -31.6568   25.0692 C   0  0  0  0  0  0
  -25.3720  -31.3720   26.1402 C   0  0  0  0  0  0
  -27.0362  -30.2984   24.6188 C   0  0  0  0  0  0
  -27.6059  -32.4311   25.7466 C   0  0  0  0  0  0
  -27.5578  -37.1791   24.8469 C   0  0  0  0  0  0
  -21.4208  -29.3046   22.3647 N   0  0  0  0  0  0
  -26.4293  -37.3759   23.9411 N   0  0  0  0  0  0
  -24.6994  -31.0471   22.0920 N   0  0  0  0  0  0
  -23.4192  -28.8150   23.3024 O   0  0  0  0  0  0
  -28.3454  -26.3731   20.2153 O   0  0  0  0  0  0
  -26.5639  -34.8915   22.4658 O   0  0  0  0  0  0
  -23.5479  -32.1360   23.7224 O   0  0  0  0  0  0
  -27.3937  -19.6396   21.9222 C   0  0  0  0  0  0
  -28.0910  -18.4576   21.5779 C   0  0  0  0  0  0
  -29.2038  -18.6039   20.7111 C   0  0  0  0  0  0
  -28.7210  -20.9627   20.6213 C   0  0  0  0  0  0
  -30.1540  -17.3659   20.3278 C   0  0  0  0  0  0
  -28.4350  -23.6283   20.6513 C   0  0  0  0  0  0
  -28.4202  -24.9523   19.6971 C   0  0  0  0  0  0
  -27.7068  -20.8640   21.4567 N   0  0  0  0  0  0
  -29.4772  -19.8897   20.2376 N   0  0  0  0  0  0
  -27.6536  -17.2309   22.1009 N   0  0  0  0  0  0
  -28.9564  -22.2889   20.1206 N   0  0  0  0  0  0
  -29.8232  -15.9026   20.6528 N   0  0  0  0  0  0
  -31.4728  -12.5807   19.1911 H   0  0  0  0  0  0
  -30.3664  -11.4886   19.9729 H   0  0  0  0  0  0
  -29.7998  -11.7336   17.5329 H   0  0  0  0  0  0
  -29.6409  -13.4623   17.7260 H   0  0  0  0  0  0
  -27.8928  -11.2863   18.9129 H   0  0  0  0  0  0
  -27.3848  -12.5273   17.7985 H   0  0  0  0  0  0
  -27.6330  -14.2571   19.4665 H   0  0  0  0  0  0
  -28.7120  -12.1836   21.4361 H   0  0  0  0  0  0
  -28.4079  -13.8668   21.7925 H   0  0  0  0  0  0
  -25.2768   -9.5691   22.4767 H   0  0  0  0  0  0
  -24.0002   -7.4643   22.7484 H   0  0  0  0  0  0
  -21.0837   -8.8781   19.8963 H   0  0  0  0  0  0
  -22.3696  -10.9683   19.6168 H   0  0  0  0  0  0
  -21.2014   -7.6149   23.9716 H   0  0  0  0  0  0
  -21.1477   -6.0522   25.9079 H   0  0  0  0  0  0
  -22.0602   -2.7606   23.2847 H   0  0  0  0  0  0
  -22.4054  -11.9931   22.4842 H   0  0  0  0  0  0
  -21.1059  -13.1286   22.2617 H   0  0  0  0  0  0
  -24.6109  -15.8064   20.4075 H   0  0  0  0  0  0
  -26.1864  -15.5628   19.8506 H   0  0  0  0  0  0
  -26.7202  -32.5378   23.1026 H   0  0  0  0  0  0
  -25.0076  -33.9668   25.0373 H   0  0  0  0  0  0
  -22.7287  -31.2958   21.3880 H   0  0  0  0  0  0
  -23.3762  -35.9594   23.3304 H   0  0  0  0  0  0
  -24.3580  -36.8891   22.2056 H   0  0  0  0  0  0
  -23.7238  -37.6466   23.6666 H   0  0  0  0  0  0
  -26.1170  -31.5174   20.6046 H   0  0  0  0  0  0
  -26.8543  -30.8088   22.0077 H   0  0  0  0  0  0
  -28.1171  -28.9082   21.2041 H   0  0  0  0  0  0
  -25.9361  -25.8669   19.0385 H   0  0  0  0  0  0
  -23.9729  -27.2845   19.0157 H   0  0  0  0  0  0
  -23.7702  -30.5724   19.3965 H   0  0  0  0  0  0
  -22.7668  -29.2306   19.8546 H   0  0  0  0  0  0
  -25.1307  -36.1905   25.0817 H   0  0  0  0  0  0
  -20.9993  -28.3294   24.1387 H   0  0  0  0  0  0
  -20.5686  -26.2318   23.3618 H   0  0  0  0  0  0
  -21.6644  -26.7449   22.1199 H   0  0  0  0  0  0
  -19.6913  -25.6305   21.1248 H   0  0  0  0  0  0
  -19.6691  -27.3204   20.6749 H   0  0  0  0  0  0
  -17.4204  -26.6695   21.4027 H   0  0  0  0  0  0
  -18.0328  -26.0082   22.9022 H   0  0  0  0  0  0
  -19.7939  -30.7297   24.2249 H   0  0  0  0  0  0
  -17.5013  -31.6273   24.5169 H   0  0  0  0  0  0
  -15.5353  -30.2990   23.7662 H   0  0  0  0  0  0
  -15.8678  -28.0826   22.7072 H   0  0  0  0  0  0
  -24.5910  -30.7056   25.7718 H   0  0  0  0  0  0
  -24.8893  -32.2890   26.4793 H   0  0  0  0  0  0
  -25.8028  -30.8914   27.0196 H   0  0  0  0  0  0
  -26.2946  -29.6714   24.1221 H   0  0  0  0  0  0
  -27.4055  -29.7261   25.4709 H   0  0  0  0  0  0
  -27.8819  -30.4258   23.9426 H   0  0  0  0  0  0
  -27.2670  -33.3627   26.2012 H   0  0  0  0  0  0
  -28.3883  -32.6844   25.0297 H   0  0  0  0  0  0
  -28.0710  -31.8451   26.5404 H   0  0  0  0  0  0
  -28.2599  -38.0084   24.7511 H   0  0  0  0  0  0
  -28.1071  -36.2615   24.6309 H   0  0  0  0  0  0
  -27.2292  -37.1452   25.8870 H   0  0  0  0  0  0
  -20.9403  -29.8743   21.6820 H   0  0  0  0  0  0
  -26.0173  -38.2835   24.1405 H   0  0  0  0  0  0
  -26.5437  -19.5996   22.5884 H   0  0  0  0  0  0
  -30.3158  -17.4193   19.2516 H   0  0  0  0  0  0
  -31.1253  -17.5771   20.7749 H   0  0  0  0  0  0
  -27.4295  -23.4798   21.0457 H   0  0  0  0  0  0
  -29.0512  -23.8600   21.5202 H   0  0  0  0  0  0
  -27.7166  -24.7934   18.8835 H   0  0  0  0  0  0
  -29.3839  -24.9422   19.1880 H   0  0  0  0  0  0
  -27.1216  -17.3364   22.9622 H   0  0  0  0  0  0
  -27.0224  -16.7295   21.4782 H   0  0  0  0  0  0
  -29.7324  -22.3526   19.4729 H   0  0  0  0  0  0
  -28.8946  -15.7879   21.0389 H   0  0  0  0  0  0
  1 25  1  0  0  0
  1 30  2  0  0  0
  1 82  1  0  0  0
  2  3  1  0  0  0
  2 25  1  0  0  0
  2 83  1  0  0  0
  2 84  1  0  0  0
  3  4  1  0  0  0
  3 85  1  0  0  0
  3 86  1  0  0  0
  4  5  1  0  0  0
  4 87  1  0  0  0
  4 88  1  0  0  0
  5  6  1  0  0  0
  5 26  1  0  0  0
  5 89  1  0  0  0
  6 25  1  0  0  0
  6 90  1  0  0  0
  6 91  1  0  0  0
  7  8  2  0  0  0
  7 26  1  0  0  0
  7 29  1  0  0  0
  8  9  1  0  0  0
  8 22  1  0  0  0
  9 10  1  0  0  0
  9 27  2  0  0  0
 10 11  2  0  0  0
 10 15  1  0  0  0
 11 12  1  0  0  0
 11 92  1  0  0  0
 12 13  2  0  0  0
 12 93  1  0  0  0
 13 14  1  0  0  0
 13 31  1  0  0  0
 14 15  2  0  0  0
 14 94  1  0  0  0
 15 95  1  0  0  0
 16 17  2  0  0  0
 16 21  1  0  0  0
 16 31  1  0  0  0
 17 18  1  0  0  0
 17 96  1  0  0  0
 18 19  2  0  0  0
 18 97  1  0  0  0
 19 20  1  0  0  0
 19 24  1  0  0  0
 20 21  2  0  0  0
 20 98  1  0  0  0
 21 23  1  0  0  0
 22 28  1  0  0  0
 22 32  2  0  0  0
 26 27  1  0  0  0
 28 99  1  0  0  0
 28100  1  0  0  0
 29101  1  0  0  0
 29102  1  0  0  0
 33 34  1  0  0  0
 33 66  1  0  0  0
 33 70  2  0  0  0
 34 36  1  0  0  0
 34 59  1  0  0  0
 34103  1  0  0  0
 35 44  2  0  0  0
 35 45  1  0  0  0
 35 68  1  0  0  0
 36 56  1  0  0  0
 36104  1  0  0  0
 37 39  1  0  0  0
 37 47  1  0  0  0
 37 66  1  0  0  0
 37105  1  0  0  0
 38 43  2  0  0  0
 38 46  1  0  0  0
 38 47  1  0  0  0
 39 64  1  0  0  0
 39 67  2  0  0  0
 40 52  1  0  0  0
 40 53  2  0  0  0
 40 58  1  0  0  0
 41106  1  0  0  0
 41107  1  0  0  0
 41108  1  0  0  0
 41 48  1  0  0  0
 42 43  1  0  0  0
 42 66  1  0  0  0
 42109  1  0  0  0
 42110  1  0  0  0
 43 44  1  0  0  0
 44111  1  0  0  0
 45 46  2  0  0  0
 45112  1  0  0  0
 46113  1  0  0  0
 47114  1  0  0  0
 47115  1  0  0  0
 48 56  1  0  0  0
 48 65  1  0  0  0
 48116  1  0  0  0
 49 50  1  0  0  0
 49 53  1  0  0  0
 49 64  1  0  0  0
 49117  1  0  0  0
 50 51  1  0  0  0
 50118  1  0  0  0
 50119  1  0  0  0
 51 52  1  0  0  0
 51120  1  0  0  0
 51121  1  0  0  0
 52122  1  0  0  0
 52123  1  0  0  0
 53 54  1  0  0  0
 54 55  2  0  0  0
 54124  1  0  0  0
 55 57  1  0  0  0
 55125  1  0  0  0
 56 69  2  0  0  0
 57 58  2  0  0  0
 57126  1  0  0  0
 58127  1  0  0  0
 59 60  1  0  0  0
 59 61  1  0  0  0
 59 62  1  0  0  0
 60128  1  0  0  0
 60129  1  0  0  0
 60130  1  0  0  0
 61131  1  0  0  0
 61132  1  0  0  0
 61133  1  0  0  0
 62134  1  0  0  0
 62135  1  0  0  0
 62136  1  0  0  0
 63 65  1  0  0  0
 63137  1  0  0  0
 63138  1  0  0  0
 63139  1  0  0  0
 64140  1  0  0  0
 65141  1  0  0  0
 68 77  1  0  0  0
 71 72  2  0  0  0
 71 78  1  0  0  0
 71142  1  0  0  0
 72 73  1  0  0  0
 72 80  1  0  0  0
 73 75  1  0  0  0
 73 79  2  0  0  0
 74 78  2  0  0  0
 74 79  1  0  0  0
 74 81  1  0  0  0
 75 82  1  0  0  0
 75143  1  0  0  0
 75144  1  0  0  0
 76 77  1  0  0  0
 76 81  1  0  0  0
 76145  1  0  0  0
 76146  1  0  0  0
 77147  1  0  0  0
 77148  1  0  0  0
 80149  1  0  0  0
 80150  1  0  0  0
 81151  1  0  0  0
 82152  1  0  0  0
M  ISO  4   1 100  68 101  77 101  82 100
M  END
> <chiral flag>
0

> <version>
0

> <s_m_source_file>
/data/baiqing/PycharmProjects/Reinvent-master-3.2/result/LINK_invent/BTK/process_docking_weight1_custom_product_contain_oxygen_bond_distance_aromatic_linkinvent_7_9_3/rearranged_h_0195.sdf

> <i_m_source_file_index>
88

> <r_mmod_Potential_Energy-OPLS-2005>
-421.136749267578

> <r_mmod_Stretch_Energy-OPLS-2005>
130.467483520508

> <r_mmod_Bend_Energy-OPLS-2005>
189.622711181641

> <r_mmod_Torsional_Energy-OPLS-2005>
210.812515258789

> <r_mmod_Improper_Torsional_Energy-OPLS-2005>
14.2299947738647

> <r_mmod_Van_der_Waal_Energy-OPLS-2005>
145.3212890625

> <r_mmod_Electrostatic_Energy-OPLS-2005>
-955.867736816406

> <r_mmod_Solvation_Energy-OPLS-2005>
-250.252258300781

> <b_mmod_Minimization_Converged-OPLS-2005>
0

> <r_mmod_RMS_Derivative-OPLS-2005>
1.21152472496033

$$$$
88
                    3D
 Structure written by MMmdl.
163171  0  0  1  0            999 V2000
  -30.6133  -14.6937   20.5260 C   0  0  0  0  0  0
  -30.4381  -12.4322   19.4736 C   0  0  0  0  0  0
  -29.5086  -12.5106   18.2408 C   0  0  0  0  0  0
  -28.0346  -12.3294   18.6536 C   0  0  0  0  0  0
  -27.6463  -13.2195   19.8634 C   0  0  2  0  0  0
  -28.6864  -13.1096   20.9998 C   0  0  0  0  0  0
  -25.2525  -13.8169   20.5696 C   0  0  0  0  0  0
  -24.1786  -13.0432   20.9209 C   0  0  0  0  0  0
  -24.6350  -11.6903   20.8740 C   0  0  0  0  0  0
  -23.9021  -10.4280   21.0415 C   0  0  0  0  0  0
  -24.3579   -9.4206   21.9193 C   0  0  0  0  0  0
  -23.6266   -8.2233   22.0754 C   0  0  0  0  0  0
  -22.4252   -8.0260   21.3535 C   0  0  0  0  0  0
  -21.9888   -9.0228   20.4640 C   0  0  0  0  0  0
  -22.7199  -10.2125   20.3058 C   0  0  0  0  0  0
  -21.6854   -6.0712   22.5268 C   0  0  0  0  0  0
  -21.4016   -6.5623   23.8195 C   0  0  0  0  0  0
  -21.3660   -5.6781   24.9160 C   0  0  0  0  0  0
  -21.6045   -4.3048   24.7227 C   0  0  0  0  0  0
  -21.8816   -3.8127   23.4352 C   0  0  0  0  0  0
  -21.9190   -4.6934   22.3401 C   0  0  0  0  0  0
  -22.7811  -13.5227   21.1879 C   0  0  0  0  0  0
  -22.1661   -4.2119   21.0985 F   0  0  0  0  0  0
  -21.5630   -3.4539   25.7746 F   0  0  0  0  0  0
  -29.9982  -13.4657   20.4386 N   0  0  0  0  0  0
  -26.2935  -12.9345   20.3311 N   0  0  0  0  0  0
  -25.9282  -11.6496   20.5763 N   0  0  0  0  0  0
  -22.0461  -12.8212   22.0432 N   0  0  0  0  0  0
  -25.4250  -15.1878   20.4071 N   0  0  0  0  0  0
  -31.7853  -14.8238   20.1586 O   0  0  0  0  0  0
  -21.6631   -6.8854   21.4228 O   0  0  0  0  0  0
  -22.3500  -14.5539   20.6729 O   0  0  0  0  0  0
  -24.6263  -31.8531   23.2007 C   0  0  0  0  0  0
  -25.9076  -32.4755   23.8354 C   0  0  1  0  0  0
  -27.2159  -27.2717   20.1612 C   0  0  0  0  0  0
  -25.5877  -33.8571   24.2280 N   0  0  0  0  0  0
  -23.4272  -30.4740   21.5401 C   0  0  2  0  0  0
  -24.8815  -28.9300   20.1069 C   0  0  0  0  0  0
  -22.7498  -29.4551   22.4887 C   0  0  0  0  0  0
  -18.0274  -28.1383   22.8450 C   0  0  0  0  0  0
  -24.1485  -36.7291   23.2643 C   0  0  0  0  0  0
  -25.9702  -30.7743   21.3809 C   0  0  0  0  0  0
  -26.0469  -29.3970   20.7275 C   0  0  0  0  0  0
  -27.2202  -28.5776   20.7488 C   0  0  0  0  0  0
  -26.0498  -26.8933   19.4640 C   0  0  0  0  0  0
  -24.8858  -27.6859   19.4602 C   0  0  0  0  0  0
  -23.6487  -29.8103   20.1558 C   0  0  0  0  0  0
  -25.4107  -36.3100   24.0347 C   0  0  1  0  0  0
  -20.5880  -28.3673   23.1263 C   0  0  2  0  0  0
  -20.6765  -26.9384   22.5410 C   0  0  0  0  0  0
  -19.5748  -26.6349   21.5213 C   0  0  0  0  0  0
  -18.1918  -26.7913   22.1604 C   0  0  0  0  0  0
  -19.1533  -28.8844   23.2836 C   0  0  0  0  0  0
  -18.9464  -30.1433   23.8879 C   0  0  0  0  0  0
  -17.6463  -30.6575   24.0556 C   0  0  0  0  0  0
  -25.9043  -34.9447   23.5127 C   0  0  0  0  0  0
  -16.5349  -29.9078   23.6342 C   0  0  0  0  0  0
  -16.7265  -28.6500   23.0348 C   0  0  0  0  0  0
  -26.4487  -31.6567   25.0726 C   0  0  0  0  0  0
  -25.3727  -31.3666   26.1459 C   0  0  0  0  0  0
  -27.0365  -30.3008   24.6169 C   0  0  0  0  0  0
  -27.6065  -32.4301   25.7464 C   0  0  0  0  0  0
  -27.5593  -37.1778   24.8461 C   0  0  0  0  0  0
  -21.4203  -29.3016   22.3651 N   0  0  0  0  0  0
  -26.4291  -37.3789   23.9432 N   0  0  0  0  0  0
  -24.6929  -31.0505   22.0976 N   0  0  0  0  0  0
  -23.4208  -28.8072   23.2963 O   0  0  0  0  0  0
  -28.2942  -26.3603   20.2178 O   0  0  0  0  0  0
  -26.5622  -34.8904   22.4705 O   0  0  0  0  0  0
  -23.5402  -32.1328   23.7294 O   0  0  0  0  0  0
  -31.1184  -19.2669   20.6670 C   0  0  0  0  0  0
  -29.8440  -19.8050   20.5182 C   0  0  0  0  0  0
  -29.9984  -17.2278   20.7673 C   0  0  0  0  0  0
  -33.4011  -19.5465   19.6106 C   0  0  0  0  0  0
  -33.0308  -20.1205   22.0706 C   0  0  0  0  0  0
  -29.3716  -22.2499   22.4122 C   0  0  0  0  0  0
  -26.7230  -24.5823   21.2479 C   0  0  0  0  0  0
  -28.9383  -23.7380   20.2868 C   0  0  0  0  0  0
  -32.4064  -20.0533   20.6685 C   0  0  0  0  0  0
  -28.8593  -22.2530   20.9548 C   0  0  1  0  0  0
  -28.1656  -25.0186   20.9118 C   0  0  1  0  0  0
  -31.1837  -17.8527   20.8283 N   0  0  0  0  0  0
  -29.5136  -21.1663   20.1403 N   0  0  0  0  0  0
  -29.8096  -15.7678   20.8554 N   0  0  0  0  0  0
  -28.6822  -18.4551   20.6114 S   0  0  0  0  0  0
  -31.4777  -12.5676   19.1707 H   0  0  0  0  0  0
  -30.3864  -11.4436   19.9325 H   0  0  0  0  0  0
  -29.7866  -11.7505   17.5100 H   0  0  0  0  0  0
  -29.6327  -13.4733   17.7428 H   0  0  0  0  0  0
  -27.8923  -11.2796   18.9125 H   0  0  0  0  0  0
  -27.3740  -12.5251   17.8078 H   0  0  0  0  0  0
  -27.6540  -14.2470   19.5011 H   0  0  0  0  0  0
  -28.7081  -12.0937   21.3964 H   0  0  0  0  0  0
  -28.4146  -13.7503   21.8406 H   0  0  0  0  0  0
  -25.2721   -9.5686   22.4781 H   0  0  0  0  0  0
  -23.9964   -7.4631   22.7479 H   0  0  0  0  0  0
  -21.0823   -8.8733   19.8952 H   0  0  0  0  0  0
  -22.3637  -10.9653   19.6173 H   0  0  0  0  0  0
  -21.2008   -7.6130   23.9686 H   0  0  0  0  0  0
  -21.1497   -6.0524   25.9065 H   0  0  0  0  0  0
  -22.0600   -2.7584   23.2864 H   0  0  0  0  0  0
  -22.4071  -11.9859   22.4799 H   0  0  0  0  0  0
  -21.1081  -13.1234   22.2659 H   0  0  0  0  0  0
  -24.6551  -15.8422   20.4953 H   0  0  0  0  0  0
  -26.2602  -15.6150   20.0287 H   0  0  0  0  0  0
  -26.7153  -32.5446   23.1107 H   0  0  0  0  0  0
  -25.0068  -33.9723   25.0459 H   0  0  0  0  0  0
  -22.7226  -31.2935   21.3896 H   0  0  0  0  0  0
  -23.3772  -35.9602   23.3296 H   0  0  0  0  0  0
  -24.3580  -36.8929   22.2061 H   0  0  0  0  0  0
  -23.7192  -37.6469   23.6671 H   0  0  0  0  0  0
  -26.1039  -31.5323   20.6090 H   0  0  0  0  0  0
  -26.8507  -30.8320   22.0084 H   0  0  0  0  0  0
  -28.1087  -28.9173   21.2618 H   0  0  0  0  0  0
  -26.0219  -25.9420   18.9552 H   0  0  0  0  0  0
  -23.9982  -27.3240   18.9605 H   0  0  0  0  0  0
  -23.7721  -30.5862   19.4004 H   0  0  0  0  0  0
  -22.7725  -29.2380   19.8481 H   0  0  0  0  0  0
  -25.1274  -36.1981   25.0839 H   0  0  0  0  0  0
  -20.9950  -28.3254   24.1391 H   0  0  0  0  0  0
  -20.5680  -26.2263   23.3607 H   0  0  0  0  0  0
  -21.6631  -26.7411   22.1197 H   0  0  0  0  0  0
  -19.6938  -25.6264   21.1251 H   0  0  0  0  0  0
  -19.6735  -27.3145   20.6745 H   0  0  0  0  0  0
  -17.4196  -26.6642   21.3997 H   0  0  0  0  0  0
  -18.0318  -26.0060   22.9002 H   0  0  0  0  0  0
  -19.7944  -30.7225   24.2254 H   0  0  0  0  0  0
  -17.5034  -31.6274   24.5123 H   0  0  0  0  0  0
  -15.5353  -30.2984   23.7687 H   0  0  0  0  0  0
  -15.8645  -28.0821   22.7101 H   0  0  0  0  0  0
  -24.5926  -30.6993   25.7772 H   0  0  0  0  0  0
  -24.8870  -32.2797   26.4902 H   0  0  0  0  0  0
  -25.8051  -30.8825   27.0225 H   0  0  0  0  0  0
  -26.2950  -29.6697   24.1254 H   0  0  0  0  0  0
  -27.4179  -29.7314   25.4656 H   0  0  0  0  0  0
  -27.8764  -30.4343   23.9351 H   0  0  0  0  0  0
  -27.2733  -33.3635   26.2009 H   0  0  0  0  0  0
  -28.3867  -32.6790   25.0261 H   0  0  0  0  0  0
  -28.0747  -31.8433   26.5374 H   0  0  0  0  0  0
  -28.2574  -38.0112   24.7573 H   0  0  0  0  0  0
  -28.1130  -36.2639   24.6225 H   0  0  0  0  0  0
  -27.2309  -37.1369   25.8861 H   0  0  0  0  0  0
  -20.9370  -29.8744   21.6869 H   0  0  0  0  0  0
  -26.0193  -38.2869   24.1470 H   0  0  0  0  0  0
  -32.9519  -19.5551   18.6160 H   0  0  0  0  0  0
  -33.7237  -18.5259   19.8213 H   0  0  0  0  0  0
  -34.2897  -20.1769   19.5731 H   0  0  0  0  0  0
  -32.3445  -20.5972   22.7722 H   0  0  0  0  0  0
  -33.9494  -20.7080   22.0648 H   0  0  0  0  0  0
  -33.2627  -19.1254   22.4527 H   0  0  0  0  0  0
  -28.5555  -22.0291   23.1047 H   0  0  0  0  0  0
  -29.7734  -23.2190   22.7046 H   0  0  0  0  0  0
  -30.1536  -21.5148   22.6005 H   0  0  0  0  0  0
  -26.7194  -23.7829   21.9890 H   0  0  0  0  0  0
  -26.2170  -24.1936   20.3657 H   0  0  0  0  0  0
  -26.1179  -25.3853   21.6694 H   0  0  0  0  0  0
  -28.5960  -23.6464   19.2562 H   0  0  0  0  0  0
  -29.9941  -24.0011   20.2127 H   0  0  0  0  0  0
  -32.1786  -21.0823   20.3926 H   0  0  0  0  0  0
  -27.8048  -21.9714   20.9970 H   0  0  0  0  0  0
  -28.6361  -25.2019   21.8796 H   0  0  0  0  0  0
  -30.0550  -21.5257   19.3578 H   0  0  0  0  0  0
  -28.8690  -15.4902   21.0870 H   0  0  0  0  0  0
  1 25  1  0  0  0
  1 30  2  0  0  0
  1 84  1  0  0  0
  2  3  1  0  0  0
  2 25  1  0  0  0
  2 86  1  0  0  0
  2 87  1  0  0  0
  3  4  1  0  0  0
  3 88  1  0  0  0
  3 89  1  0  0  0
  4  5  1  0  0  0
  4 90  1  0  0  0
  4 91  1  0  0  0
  5  6  1  0  0  0
  5 26  1  0  0  0
  5 92  1  0  0  0
  6 25  1  0  0  0
  6 93  1  0  0  0
  6 94  1  0  0  0
  7  8  2  0  0  0
  7 26  1  0  0  0
  7 29  1  0  0  0
  8  9  1  0  0  0
  8 22  1  0  0  0
  9 10  1  0  0  0
  9 27  2  0  0  0
 10 11  2  0  0  0
 10 15  1  0  0  0
 11 12  1  0  0  0
 11 95  1  0  0  0
 12 13  2  0  0  0
 12 96  1  0  0  0
 13 14  1  0  0  0
 13 31  1  0  0  0
 14 15  2  0  0  0
 14 97  1  0  0  0
 15 98  1  0  0  0
 16 17  2  0  0  0
 16 21  1  0  0  0
 16 31  1  0  0  0
 17 18  1  0  0  0
 17 99  1  0  0  0
 18 19  2  0  0  0
 18100  1  0  0  0
 19 20  1  0  0  0
 19 24  1  0  0  0
 20 21  2  0  0  0
 20101  1  0  0  0
 21 23  1  0  0  0
 22 28  1  0  0  0
 22 32  2  0  0  0
 26 27  1  0  0  0
 28102  1  0  0  0
 28103  1  0  0  0
 29104  1  0  0  0
 29105  1  0  0  0
 33 34  1  0  0  0
 33 66  1  0  0  0
 33 70  2  0  0  0
 34 36  1  0  0  0
 34 59  1  0  0  0
 34106  1  0  0  0
 35 44  2  0  0  0
 35 45  1  0  0  0
 35 68  1  0  0  0
 36 56  1  0  0  0
 36107  1  0  0  0
 37 39  1  0  0  0
 37 47  1  0  0  0
 37 66  1  0  0  0
 37108  1  0  0  0
 38 43  2  0  0  0
 38 46  1  0  0  0
 38 47  1  0  0  0
 39 64  1  0  0  0
 39 67  2  0  0  0
 40 52  1  0  0  0
 40 53  2  0  0  0
 40 58  1  0  0  0
 41109  1  0  0  0
 41110  1  0  0  0
 41111  1  0  0  0
 41 48  1  0  0  0
 42 43  1  0  0  0
 42 66  1  0  0  0
 42112  1  0  0  0
 42113  1  0  0  0
 43 44  1  0  0  0
 44114  1  0  0  0
 45 46  2  0  0  0
 45115  1  0  0  0
 46116  1  0  0  0
 47117  1  0  0  0
 47118  1  0  0  0
 48 56  1  0  0  0
 48 65  1  0  0  0
 48119  1  0  0  0
 49 50  1  0  0  0
 49 53  1  0  0  0
 49 64  1  0  0  0
 49120  1  0  0  0
 50 51  1  0  0  0
 50121  1  0  0  0
 50122  1  0  0  0
 51 52  1  0  0  0
 51123  1  0  0  0
 51124  1  0  0  0
 52125  1  0  0  0
 52126  1  0  0  0
 53 54  1  0  0  0
 54 55  2  0  0  0
 54127  1  0  0  0
 55 57  1  0  0  0
 55128  1  0  0  0
 56 69  2  0  0  0
 57 58  2  0  0  0
 57129  1  0  0  0
 58130  1  0  0  0
 59 60  1  0  0  0
 59 61  1  0  0  0
 59 62  1  0  0  0
 60131  1  0  0  0
 60132  1  0  0  0
 60133  1  0  0  0
 61134  1  0  0  0
 61135  1  0  0  0
 61136  1  0  0  0
 62137  1  0  0  0
 62138  1  0  0  0
 62139  1  0  0  0
 63 65  1  0  0  0
 63140  1  0  0  0
 63141  1  0  0  0
 63142  1  0  0  0
 64143  1  0  0  0
 65144  1  0  0  0
 68 81  1  0  0  0
 71 72  2  0  0  0
 71 79  1  0  0  0
 71 82  1  0  0  0
 72 83  1  0  0  0
 72 85  1  0  0  0
 73 82  2  0  0  0
 73 84  1  0  0  0
 73 85  1  0  0  0
 74145  1  0  0  0
 74146  1  0  0  0
 74147  1  0  0  0
 74 79  1  0  0  0
 75 79  1  0  0  0
 75148  1  0  0  0
 75149  1  0  0  0
 75150  1  0  0  0
 76151  1  0  0  0
 76152  1  0  0  0
 76153  1  0  0  0
 76 80  1  0  0  0
 77154  1  0  0  0
 77155  1  0  0  0
 77156  1  0  0  0
 77 81  1  0  0  0
 78 80  1  0  0  0
 78 81  1  0  0  0
 78157  1  0  0  0
 78158  1  0  0  0
 79159  1  0  0  0
 80 83  1  0  0  0
 80160  1  0  0  0
 81161  1  0  0  0
 83162  1  0  0  0
 84163  1  0  0  0
M  ISO  4   1 100  68 101  81 101  84 100
M  END
> <chiral flag>
0

> <version>
0

> <s_m_source_file>
/data/baiqing/PycharmProjects/Reinvent-master-3.2/result/LINK_invent/BTK/process_docking_weight1_custom_product_contain_oxygen_bond_distance_aromatic_linkinvent_7_9_3/rearranged_h_0195.sdf

> <i_m_source_file_index>
89

> <r_mmod_Potential_Energy-OPLS-2005>
161.756912231445

> <r_mmod_Stretch_Energy-OPLS-2005>
109.531288146973

> <r_mmod_Bend_Energy-OPLS-2005>
172.736953735352

> <r_mmod_Torsional_Energy-OPLS-2005>
256.561828613281

> <r_mmod_Improper_Torsional_Energy-OPLS-2005>
6.50823020935059

> <r_mmod_Van_der_Waal_Energy-OPLS-2005>
116.855728149414

> <r_mmod_Electrostatic_Energy-OPLS-2005>
-353.128295898438

> <r_mmod_Solvation_Energy-OPLS-2005>
-220.651306152344

> <b_mmod_Minimization_Converged-OPLS-2005>
0

> <r_mmod_RMS_Derivative-OPLS-2005>
3.32592868804932

$$$$
89
                    3D
 Structure written by MMmdl.
159167  0  0  1  0            999 V2000
  -30.5760  -14.8098   20.3463 C   0  0  0  0  0  0
  -30.4337  -12.4744   19.4628 C   0  0  0  0  0  0
  -29.5142  -12.5159   18.2211 C   0  0  0  0  0  0
  -28.0274  -12.3761   18.6175 C   0  0  0  0  0  0
  -27.6521  -13.2322   19.8553 C   0  0  2  0  0  0
  -28.7082  -13.1681   20.9784 C   0  0  0  0  0  0
  -25.2565  -13.8112   20.5806 C   0  0  0  0  0  0
  -24.1810  -13.0383   20.9269 C   0  0  0  0  0  0
  -24.6419  -11.6900   20.8772 C   0  0  0  0  0  0
  -23.9041  -10.4295   21.0427 C   0  0  0  0  0  0
  -24.3605   -9.4238   21.9242 C   0  0  0  0  0  0
  -23.6293   -8.2254   22.0767 C   0  0  0  0  0  0
  -22.4290   -8.0306   21.3537 C   0  0  0  0  0  0
  -21.9909   -9.0271   20.4658 C   0  0  0  0  0  0
  -22.7199  -10.2172   20.3096 C   0  0  0  0  0  0
  -21.6889   -6.0798   22.5280 C   0  0  0  0  0  0
  -21.4052   -6.5694   23.8214 C   0  0  0  0  0  0
  -21.3639   -5.6828   24.9166 C   0  0  0  0  0  0
  -21.5999   -4.3066   24.7194 C   0  0  0  0  0  0
  -21.8807   -3.8189   23.4292 C   0  0  0  0  0  0
  -21.9231   -4.7042   22.3409 C   0  0  0  0  0  0
  -22.7851  -13.5258   21.1814 C   0  0  0  0  0  0
  -22.1716   -4.2257   21.0967 F   0  0  0  0  0  0
  -21.5590   -3.4530   25.7674 F   0  0  0  0  0  0
  -29.9889  -13.5572   20.3692 N   0  0  0  0  0  0
  -26.3005  -12.9368   20.3368 N   0  0  0  0  0  0
  -25.9393  -11.6511   20.5805 N   0  0  0  0  0  0
  -22.0373  -12.8374   22.0335 N   0  0  0  0  0  0
  -25.3965  -15.1850   20.4478 N   0  0  0  0  0  0
  -31.7761  -14.9018   20.0780 O   0  0  0  0  0  0
  -21.6658   -6.8920   21.4232 O   0  0  0  0  0  0
  -22.3629  -14.5568   20.6625 O   0  0  0  0  0  0
  -24.6322  -31.8513   23.1925 C   0  0  0  0  0  0
  -25.9133  -32.4739   23.8284 C   0  0  1  0  0  0
  -27.2353  -27.2532   20.1429 C   0  0  0  0  0  0
  -25.5932  -33.8532   24.2243 N   0  0  0  0  0  0
  -23.4294  -30.4729   21.5341 C   0  0  2  0  0  0
  -24.8813  -28.9051   20.1228 C   0  0  0  0  0  0
  -22.7482  -29.4603   22.4865 C   0  0  0  0  0  0
  -18.0292  -28.1460   22.8508 C   0  0  0  0  0  0
  -24.1450  -36.7227   23.2653 C   0  0  0  0  0  0
  -25.9741  -30.7688   21.3692 C   0  0  0  0  0  0
  -26.0535  -29.3865   20.7212 C   0  0  0  0  0  0
  -27.2337  -28.5718   20.7205 C   0  0  0  0  0  0
  -26.0386  -26.8412   19.5201 C   0  0  0  0  0  0
  -24.8797  -27.6388   19.5155 C   0  0  0  0  0  0
  -23.6539  -29.7931   20.1559 C   0  0  0  0  0  0
  -25.4079  -36.3063   24.0360 C   0  0  1  0  0  0
  -20.5908  -28.3741   23.1282 C   0  0  2  0  0  0
  -20.6773  -26.9445   22.5435 C   0  0  0  0  0  0
  -19.5745  -26.6444   21.5235 C   0  0  0  0  0  0
  -18.1919  -26.8001   22.1653 C   0  0  0  0  0  0
  -19.1554  -28.8904   23.2900 C   0  0  0  0  0  0
  -18.9500  -30.1513   23.8914 C   0  0  0  0  0  0
  -17.6503  -30.6651   24.0577 C   0  0  0  0  0  0
  -25.9036  -34.9436   23.5101 C   0  0  0  0  0  0
  -16.5388  -29.9157   23.6384 C   0  0  0  0  0  0
  -16.7280  -28.6579   23.0402 C   0  0  0  0  0  0
  -26.4489  -31.6602   25.0691 C   0  0  0  0  0  0
  -25.3696  -31.3812   26.1407 C   0  0  0  0  0  0
  -27.0358  -30.3038   24.6211 C   0  0  0  0  0  0
  -27.6068  -32.4325   25.7443 C   0  0  0  0  0  0
  -27.5557  -37.1758   24.8459 C   0  0  0  0  0  0
  -21.4184  -29.3061   22.3620 N   0  0  0  0  0  0
  -26.4232  -37.3785   23.9433 N   0  0  0  0  0  0
  -24.6970  -31.0493   22.0897 N   0  0  0  0  0  0
  -23.4126  -28.8177   23.3000 O   0  0  0  0  0  0
  -28.3459  -26.3694   20.1156 O   0  0  0  0  0  0
  -26.5616  -34.8910   22.4672 O   0  0  0  0  0  0
  -23.5487  -32.1348   23.7245 O   0  0  0  0  0  0
  -29.8513  -17.1224   18.2996 C   0  0  0  0  0  0
  -29.6620  -19.3964   17.9377 C   0  0  0  0  0  0
  -29.8157  -17.2664   19.7122 C   0  0  0  0  0  0
  -29.6258  -19.6902   19.3261 C   0  0  0  0  0  0
  -29.7414  -25.8733   22.5003 C   0  0  0  0  0  0
  -29.7196  -21.8968   21.9091 C   0  0  0  0  0  0
  -28.4252  -25.1446   22.1699 C   0  0  0  0  0  0
  -29.1337  -23.7241   20.0580 C   0  0  0  0  0  0
  -29.0550  -22.1383   20.5450 C   0  0  1  0  0  0
  -28.2212  -24.9546   20.6539 C   0  0  2  0  0  0
  -29.7600  -18.1488   17.4288 N   0  0  0  0  0  0
  -29.6753  -18.5956   20.2133 N   0  0  0  0  0  0
  -29.7665  -15.9534   20.4414 N   0  0  0  0  0  0
  -29.6604  -21.1352   19.5810 N   0  0  0  0  0  0
  -31.4730  -12.5819   19.1612 H   0  0  0  0  0  0
  -30.3679  -11.5117   19.9673 H   0  0  0  0  0  0
  -29.7995  -11.7460   17.5021 H   0  0  0  0  0  0
  -29.6413  -13.4649   17.6969 H   0  0  0  0  0  0
  -27.8032  -11.3209   18.7849 H   0  0  0  0  0  0
  -27.4061  -12.6762   17.7736 H   0  0  0  0  0  0
  -27.6635  -14.2624   19.4970 H   0  0  0  0  0  0
  -28.7731  -12.1634   21.4114 H   0  0  0  0  0  0
  -28.4528  -13.8400   21.7991 H   0  0  0  0  0  0
  -25.2715   -9.5775   22.4887 H   0  0  0  0  0  0
  -23.9969   -7.4648   22.7468 H   0  0  0  0  0  0
  -21.0843   -8.8766   19.8990 H   0  0  0  0  0  0
  -22.3545  -10.9756   19.6259 H   0  0  0  0  0  0
  -21.2069   -7.6224   23.9776 H   0  0  0  0  0  0
  -21.1466   -6.0526   25.9084 H   0  0  0  0  0  0
  -22.0613   -2.7686   23.2690 H   0  0  0  0  0  0
  -22.3963  -12.0131   22.4843 H   0  0  0  0  0  0
  -21.1050  -13.1509   22.2489 H   0  0  0  0  0  0
  -24.5824  -15.7734   20.5996 H   0  0  0  0  0  0
  -26.2297  -15.6976   20.1908 H   0  0  0  0  0  0
  -26.7181  -32.5403   23.0995 H   0  0  0  0  0  0
  -25.0009  -33.9639   25.0365 H   0  0  0  0  0  0
  -22.7315  -31.2987   21.3755 H   0  0  0  0  0  0
  -23.3741  -35.9527   23.3325 H   0  0  0  0  0  0
  -24.3549  -36.8830   22.2063 H   0  0  0  0  0  0
  -23.7153  -37.6422   23.6637 H   0  0  0  0  0  0
  -26.1087  -31.5250   20.5954 H   0  0  0  0  0  0
  -26.8497  -30.8286   22.0006 H   0  0  0  0  0  0
  -28.1333  -28.9364   21.1959 H   0  0  0  0  0  0
  -25.9967  -25.8732   19.0360 H   0  0  0  0  0  0
  -23.9768  -27.2648   19.0508 H   0  0  0  0  0  0
  -23.7803  -30.5544   19.3808 H   0  0  0  0  0  0
  -22.7723  -29.2189   19.8589 H   0  0  0  0  0  0
  -25.1268  -36.1885   25.0864 H   0  0  0  0  0  0
  -21.0067  -28.3344   24.1384 H   0  0  0  0  0  0
  -20.5685  -26.2340   23.3645 H   0  0  0  0  0  0
  -21.6638  -26.7500   22.1218 H   0  0  0  0  0  0
  -19.6872  -25.6345   21.1293 H   0  0  0  0  0  0
  -19.6697  -27.3232   20.6734 H   0  0  0  0  0  0
  -17.4205  -26.6785   21.4028 H   0  0  0  0  0  0
  -18.0294  -26.0145   22.9063 H   0  0  0  0  0  0
  -19.7957  -30.7314   24.2281 H   0  0  0  0  0  0
  -17.5067  -31.6317   24.5181 H   0  0  0  0  0  0
  -15.5386  -30.3074   23.7699 H   0  0  0  0  0  0
  -15.8673  -28.0880   22.7156 H   0  0  0  0  0  0
  -24.5806  -30.7246   25.7704 H   0  0  0  0  0  0
  -24.8944  -32.3019   26.4795 H   0  0  0  0  0  0
  -25.7985  -30.8965   27.0179 H   0  0  0  0  0  0
  -26.2984  -29.6747   24.1210 H   0  0  0  0  0  0
  -27.4019  -29.7353   25.4759 H   0  0  0  0  0  0
  -27.8840  -30.4309   23.9486 H   0  0  0  0  0  0
  -27.2721  -33.3625   26.2002 H   0  0  0  0  0  0
  -28.3870  -32.6869   25.0272 H   0  0  0  0  0  0
  -28.0695  -31.8429   26.5345 H   0  0  0  0  0  0
  -28.2604  -38.0049   24.7603 H   0  0  0  0  0  0
  -28.1069  -36.2609   24.6199 H   0  0  0  0  0  0
  -27.2311  -37.1315   25.8879 H   0  0  0  0  0  0
  -20.9380  -29.8691   21.6758 H   0  0  0  0  0  0
  -26.0129  -38.2841   24.1547 H   0  0  0  0  0  0
  -29.9341  -16.1458   17.8375 H   0  0  0  0  0  0
  -29.6711  -20.1971   17.2123 H   0  0  0  0  0  0
  -29.5125  -26.8151   22.9961 H   0  0  0  0  0  0
  -30.3118  -26.1234   21.6034 H   0  0  0  0  0  0
  -30.4019  -25.2885   23.1423 H   0  0  0  0  0  0
  -29.7234  -22.7567   22.5699 H   0  0  0  0  0  0
  -30.7780  -21.6553   21.8072 H   0  0  0  0  0  0
  -29.1987  -21.0721   22.4109 H   0  0  0  0  0  0
  -27.5908  -25.7047   22.5878 H   0  0  0  0  0  0
  -28.3326  -24.2053   22.7003 H   0  0  0  0  0  0
  -28.8909  -23.7223   18.9951 H   0  0  0  0  0  0
  -30.1743  -24.0493   20.0876 H   0  0  0  0  0  0
  -28.0000  -21.8808   20.6469 H   0  0  0  0  0  0
  -27.1999  -24.6095   20.5074 H   0  0  0  0  0  0
  -28.8287  -15.7020   20.7049 H   0  0  0  0  0  0
  -29.8464  -21.6287   18.7136 H   0  0  0  0  0  0
  1 25  1  0  0  0
  1 30  2  0  0  0
  1 83  1  0  0  0
  2  3  1  0  0  0
  2 25  1  0  0  0
  2 85  1  0  0  0
  2 86  1  0  0  0
  3  4  1  0  0  0
  3 87  1  0  0  0
  3 88  1  0  0  0
  4  5  1  0  0  0
  4 89  1  0  0  0
  4 90  1  0  0  0
  5  6  1  0  0  0
  5 26  1  0  0  0
  5 91  1  0  0  0
  6 25  1  0  0  0
  6 92  1  0  0  0
  6 93  1  0  0  0
  7  8  2  0  0  0
  7 26  1  0  0  0
  7 29  1  0  0  0
  8  9  1  0  0  0
  8 22  1  0  0  0
  9 10  1  0  0  0
  9 27  2  0  0  0
 10 11  2  0  0  0
 10 15  1  0  0  0
 11 12  1  0  0  0
 11 94  1  0  0  0
 12 13  2  0  0  0
 12 95  1  0  0  0
 13 14  1  0  0  0
 13 31  1  0  0  0
 14 15  2  0  0  0
 14 96  1  0  0  0
 15 97  1  0  0  0
 16 17  2  0  0  0
 16 21  1  0  0  0
 16 31  1  0  0  0
 17 18  1  0  0  0
 17 98  1  0  0  0
 18 19  2  0  0  0
 18 99  1  0  0  0
 19 20  1  0  0  0
 19 24  1  0  0  0
 20 21  2  0  0  0
 20100  1  0  0  0
 21 23  1  0  0  0
 22 28  1  0  0  0
 22 32  2  0  0  0
 26 27  1  0  0  0
 28101  1  0  0  0
 28102  1  0  0  0
 29103  1  0  0  0
 29104  1  0  0  0
 33 34  1  0  0  0
 33 66  1  0  0  0
 33 70  2  0  0  0
 34 36  1  0  0  0
 34 59  1  0  0  0
 34105  1  0  0  0
 35 44  2  0  0  0
 35 45  1  0  0  0
 35 68  1  0  0  0
 36 56  1  0  0  0
 36106  1  0  0  0
 37 39  1  0  0  0
 37 47  1  0  0  0
 37 66  1  0  0  0
 37107  1  0  0  0
 38 43  2  0  0  0
 38 46  1  0  0  0
 38 47  1  0  0  0
 39 64  1  0  0  0
 39 67  2  0  0  0
 40 52  1  0  0  0
 40 53  2  0  0  0
 40 58  1  0  0  0
 41108  1  0  0  0
 41109  1  0  0  0
 41110  1  0  0  0
 41 48  1  0  0  0
 42 43  1  0  0  0
 42 66  1  0  0  0
 42111  1  0  0  0
 42112  1  0  0  0
 43 44  1  0  0  0
 44113  1  0  0  0
 45 46  2  0  0  0
 45114  1  0  0  0
 46115  1  0  0  0
 47116  1  0  0  0
 47117  1  0  0  0
 48 56  1  0  0  0
 48 65  1  0  0  0
 48118  1  0  0  0
 49 50  1  0  0  0
 49 53  1  0  0  0
 49 64  1  0  0  0
 49119  1  0  0  0
 50 51  1  0  0  0
 50120  1  0  0  0
 50121  1  0  0  0
 51 52  1  0  0  0
 51122  1  0  0  0
 51123  1  0  0  0
 52124  1  0  0  0
 52125  1  0  0  0
 53 54  1  0  0  0
 54 55  2  0  0  0
 54126  1  0  0  0
 55 57  1  0  0  0
 55127  1  0  0  0
 56 69  2  0  0  0
 57 58  2  0  0  0
 57128  1  0  0  0
 58129  1  0  0  0
 59 60  1  0  0  0
 59 61  1  0  0  0
 59 62  1  0  0  0
 60130  1  0  0  0
 60131  1  0  0  0
 60132  1  0  0  0
 61133  1  0  0  0
 61134  1  0  0  0
 61135  1  0  0  0
 62136  1  0  0  0
 62137  1  0  0  0
 62138  1  0  0  0
 63 65  1  0  0  0
 63139  1  0  0  0
 63140  1  0  0  0
 63141  1  0  0  0
 64142  1  0  0  0
 65143  1  0  0  0
 68 80  1  0  0  0
 71 73  2  0  0  0
 71 81  1  0  0  0
 71144  1  0  0  0
 72 74  1  0  0  0
 72 81  2  0  0  0
 72145  1  0  0  0
 73 82  1  0  0  0
 73 83  1  0  0  0
 74 82  2  0  0  0
 74 84  1  0  0  0
 75 77  1  0  0  0
 75146  1  0  0  0
 75147  1  0  0  0
 75148  1  0  0  0
 76149  1  0  0  0
 76150  1  0  0  0
 76151  1  0  0  0
 76 79  1  0  0  0
 77152  1  0  0  0
 77153  1  0  0  0
 77 80  1  0  0  0
 78 79  1  0  0  0
 78 80  1  0  0  0
 78154  1  0  0  0
 78155  1  0  0  0
 79 84  1  0  0  0
 79156  1  0  0  0
 80157  1  0  0  0
 83158  1  0  0  0
 84159  1  0  0  0
M  ISO  4   1 100  68 101  80 101  83 100
M  END
> <chiral flag>
0

> <version>
0

> <s_m_source_file>
/data/baiqing/PycharmProjects/Reinvent-master-3.2/result/LINK_invent/BTK/process_docking_weight1_custom_product_contain_oxygen_bond_distance_aromatic_linkinvent_7_9_3/rearranged_h_0195.sdf

> <i_m_source_file_index>
90

> <r_mmod_Potential_Energy-OPLS-2005>
392.3154296875

> <r_mmod_Stretch_Energy-OPLS-2005>
168.432250976562

> <r_mmod_Bend_Energy-OPLS-2005>
257.121246337891

> <r_mmod_Torsional_Energy-OPLS-2005>
286.389282226562

> <r_mmod_Improper_Torsional_Energy-OPLS-2005>
9.13880920410156

> <r_mmod_Van_der_Waal_Energy-OPLS-2005>
134.745803833008

> <r_mmod_Electrostatic_Energy-OPLS-2005>
-335.907348632812

> <r_mmod_Solvation_Energy-OPLS-2005>
-229.903747558594

> <b_mmod_Minimization_Converged-OPLS-2005>
0

> <r_mmod_RMS_Derivative-OPLS-2005>
10.9768915176392

$$$$
90
                    3D
 Structure written by MMmdl.
151159  0  0  1  0            999 V2000
  -30.6008  -14.7405   20.4772 C   0  0  0  0  0  0
  -30.4372  -12.4478   19.4759 C   0  0  0  0  0  0
  -29.5161  -12.5159   18.2364 C   0  0  0  0  0  0
  -28.0382  -12.3390   18.6414 C   0  0  0  0  0  0
  -27.6438  -13.2302   19.8495 C   0  0  2  0  0  0
  -28.6875  -13.1477   20.9844 C   0  0  0  0  0  0
  -25.2512  -13.8192   20.5673 C   0  0  0  0  0  0
  -24.1795  -13.0447   20.9199 C   0  0  0  0  0  0
  -24.6386  -11.6931   20.8734 C   0  0  0  0  0  0
  -23.9068  -10.4309   21.0412 C   0  0  0  0  0  0
  -24.3625   -9.4223   21.9184 C   0  0  0  0  0  0
  -23.6299   -8.2259   22.0752 C   0  0  0  0  0  0
  -22.4282   -8.0294   21.3549 C   0  0  0  0  0  0
  -21.9917   -9.0262   20.4645 C   0  0  0  0  0  0
  -22.7242  -10.2142   20.3056 C   0  0  0  0  0  0
  -21.6857   -6.0738   22.5279 C   0  0  0  0  0  0
  -21.4014   -6.5642   23.8213 C   0  0  0  0  0  0
  -21.3655   -5.6790   24.9172 C   0  0  0  0  0  0
  -21.6053   -4.3055   24.7221 C   0  0  0  0  0  0
  -21.8818   -3.8147   23.4344 C   0  0  0  0  0  0
  -21.9197   -4.6966   22.3398 C   0  0  0  0  0  0
  -22.7822  -13.5252   21.1855 C   0  0  0  0  0  0
  -22.1664   -4.2156   21.0972 F   0  0  0  0  0  0
  -21.5635   -3.4534   25.7733 F   0  0  0  0  0  0
  -29.9945  -13.5021   20.4174 N   0  0  0  0  0  0
  -26.2939  -12.9400   20.3261 N   0  0  0  0  0  0
  -25.9317  -11.6546   20.5729 N   0  0  0  0  0  0
  -22.0448  -12.8244   22.0399 N   0  0  0  0  0  0
  -25.4201  -15.1912   20.4083 N   0  0  0  0  0  0
  -31.7834  -14.8217   20.1200 O   0  0  0  0  0  0
  -21.6652   -6.8885   21.4245 O   0  0  0  0  0  0
  -22.3511  -14.5548   20.6684 O   0  0  0  0  0  0
  -24.6299  -31.8555   23.1960 C   0  0  0  0  0  0
  -25.9115  -32.4764   23.8320 C   0  0  1  0  0  0
  -27.2351  -27.2770   20.1178 C   0  0  0  0  0  0
  -25.5908  -33.8564   24.2248 N   0  0  0  0  0  0
  -23.4269  -30.4756   21.5381 C   0  0  2  0  0  0
  -24.8741  -28.9186   20.1099 C   0  0  0  0  0  0
  -22.7506  -29.4604   22.4907 C   0  0  0  0  0  0
  -18.0290  -28.1383   22.8500 C   0  0  0  0  0  0
  -24.1483  -36.7303   23.2643 C   0  0  0  0  0  0
  -25.9686  -30.7745   21.3699 C   0  0  0  0  0  0
  -26.0431  -29.3946   20.7161 C   0  0  0  0  0  0
  -27.2197  -28.5832   20.7132 C   0  0  0  0  0  0
  -26.0360  -26.8557   19.4994 C   0  0  0  0  0  0
  -24.8742  -27.6558   19.4958 C   0  0  0  0  0  0
  -23.6438  -29.8035   20.1565 C   0  0  0  0  0  0
  -25.4103  -36.3080   24.0329 C   0  0  1  0  0  0
  -20.5897  -28.3693   23.1272 C   0  0  2  0  0  0
  -20.6774  -26.9405   22.5418 C   0  0  0  0  0  0
  -19.5741  -26.6375   21.5229 C   0  0  0  0  0  0
  -18.1918  -26.7925   22.1636 C   0  0  0  0  0  0
  -19.1547  -28.8852   23.2884 C   0  0  0  0  0  0
  -18.9473  -30.1456   23.8894 C   0  0  0  0  0  0
  -17.6473  -30.6585   24.0564 C   0  0  0  0  0  0
  -25.9046  -34.9451   23.5093 C   0  0  0  0  0  0
  -16.5364  -29.9085   23.6325 C   0  0  0  0  0  0
  -16.7281  -28.6501   23.0350 C   0  0  0  0  0  0
  -26.4480  -31.6597   25.0710 C   0  0  0  0  0  0
  -25.3702  -31.3778   26.1441 C   0  0  0  0  0  0
  -27.0336  -30.3018   24.6182 C   0  0  0  0  0  0
  -27.6019  -32.4353   25.7490 C   0  0  0  0  0  0
  -27.5571  -37.1809   24.8465 C   0  0  0  0  0  0
  -21.4209  -29.3051   22.3665 N   0  0  0  0  0  0
  -26.4283  -37.3772   23.9407 N   0  0  0  0  0  0
  -24.6940  -31.0545   22.0912 N   0  0  0  0  0  0
  -23.4216  -28.8141   23.2995 O   0  0  0  0  0  0
  -28.3703  -26.4401   20.1898 O   0  0  0  0  0  0
  -26.5629  -34.8926   22.4671 O   0  0  0  0  0  0
  -23.5449  -32.1366   23.7265 O   0  0  0  0  0  0
  -30.6603  -18.6759   18.3944 C   0  0  0  0  0  0
  -29.9727  -17.5001   20.1707 C   0  0  0  0  0  0
  -29.5959  -19.7850   19.9887 C   0  0  0  0  0  0
  -29.8139  -16.0875   20.9145 C   0  0  0  0  0  0
  -29.1694  -22.3802   19.7490 C   0  0  0  0  0  0
  -28.4729  -25.0777   19.5724 C   0  0  0  0  0  0
  -28.4954  -23.6910   20.4207 C   0  0  1  0  0  0
  -30.5705  -17.4873   18.9847 N   0  0  0  0  0  0
  -30.2057  -19.8495   18.8237 N   0  0  0  0  0  0
  -29.4470  -18.6478   20.7165 N   0  0  0  0  0  0
  -29.0825  -21.0364   20.4498 N   0  0  0  0  0  0
  -27.1556  -23.3027   20.6712 O   0  0  0  0  0  0
  -31.4797  -12.5662   19.1775 H   0  0  0  0  0  0
  -30.3766  -11.4678   19.9508 H   0  0  0  0  0  0
  -29.8018  -11.7535   17.5107 H   0  0  0  0  0  0
  -29.6472  -13.4785   17.7393 H   0  0  0  0  0  0
  -27.8885  -11.2877   18.8913 H   0  0  0  0  0  0
  -27.3864  -12.5459   17.7919 H   0  0  0  0  0  0
  -27.6423  -14.2549   19.4785 H   0  0  0  0  0  0
  -28.7192  -12.1439   21.4084 H   0  0  0  0  0  0
  -28.4189  -13.8095   21.8086 H   0  0  0  0  0  0
  -25.2774   -9.5711   22.4750 H   0  0  0  0  0  0
  -24.0017   -7.4658   22.7473 H   0  0  0  0  0  0
  -21.0846   -8.8776   19.8950 H   0  0  0  0  0  0
  -22.3695  -10.9680   19.6159 H   0  0  0  0  0  0
  -21.1999   -7.6150   23.9716 H   0  0  0  0  0  0
  -21.1478   -6.0521   25.9078 H   0  0  0  0  0  0
  -22.0601   -2.7614   23.2837 H   0  0  0  0  0  0
  -22.4069  -11.9932   22.4834 H   0  0  0  0  0  0
  -21.1051  -13.1262   22.2573 H   0  0  0  0  0  0
  -24.6495  -15.8424   20.5159 H   0  0  0  0  0  0
  -26.2658  -15.6336   20.0723 H   0  0  0  0  0  0
  -26.7187  -32.5422   23.1075 H   0  0  0  0  0  0
  -25.0047  -33.9700   25.0388 H   0  0  0  0  0  0
  -22.7224  -31.2957   21.3898 H   0  0  0  0  0  0
  -23.3741  -35.9650   23.3309 H   0  0  0  0  0  0
  -24.3580  -36.8917   22.2062 H   0  0  0  0  0  0
  -23.7236  -37.6497   23.6672 H   0  0  0  0  0  0
  -26.0956  -31.5313   20.5944 H   0  0  0  0  0  0
  -26.8502  -30.8321   21.9972 H   0  0  0  0  0  0
  -28.1138  -28.9430   21.2027 H   0  0  0  0  0  0
  -25.9558  -25.8824   19.0412 H   0  0  0  0  0  0
  -23.9749  -27.2779   19.0286 H   0  0  0  0  0  0
  -23.7668  -30.5757   19.3965 H   0  0  0  0  0  0
  -22.7637  -29.2350   19.8527 H   0  0  0  0  0  0
  -25.1285  -36.1927   25.0825 H   0  0  0  0  0  0
  -21.0000  -28.3261   24.1391 H   0  0  0  0  0  0
  -20.5667  -26.2302   23.3626 H   0  0  0  0  0  0
  -21.6633  -26.7418   22.1208 H   0  0  0  0  0  0
  -19.6891  -25.6287   21.1245 H   0  0  0  0  0  0
  -19.6660  -27.3195   20.6766 H   0  0  0  0  0  0
  -17.4194  -26.6697   21.4033 H   0  0  0  0  0  0
  -18.0298  -26.0063   22.9025 H   0  0  0  0  0  0
  -19.7956  -30.7277   24.2250 H   0  0  0  0  0  0
  -17.5028  -31.6260   24.5180 H   0  0  0  0  0  0
  -15.5358  -30.2989   23.7647 H   0  0  0  0  0  0
  -15.8683  -28.0822   22.7058 H   0  0  0  0  0  0
  -24.5864  -30.7122   25.7796 H   0  0  0  0  0  0
  -24.8926  -32.2976   26.4837 H   0  0  0  0  0  0
  -25.8020  -30.8987   27.0239 H   0  0  0  0  0  0
  -26.2925  -29.6762   24.1192 H   0  0  0  0  0  0
  -27.3998  -29.7262   25.4694 H   0  0  0  0  0  0
  -27.8797  -30.4304   23.9425 H   0  0  0  0  0  0
  -27.2597  -33.3662   26.2027 H   0  0  0  0  0  0
  -28.3848  -32.6904   25.0333 H   0  0  0  0  0  0
  -28.0660  -31.8514   26.5452 H   0  0  0  0  0  0
  -28.2592  -38.0103   24.7493 H   0  0  0  0  0  0
  -28.1047  -36.2626   24.6301 H   0  0  0  0  0  0
  -27.2294  -37.1469   25.8870 H   0  0  0  0  0  0
  -20.9382  -29.8797   21.6899 H   0  0  0  0  0  0
  -26.0160  -38.2843   24.1405 H   0  0  0  0  0  0
  -31.1622  -18.6886   17.4380 H   0  0  0  0  0  0
  -28.7475  -15.8778   20.9044 H   0  0  0  0  0  0
  -30.0625  -16.2533   21.9616 H   0  0  0  0  0  0
  -30.2297  -22.5920   19.5980 H   0  0  0  0  0  0
  -28.7640  -22.2491   18.7443 H   0  0  0  0  0  0
  -29.4610  -25.1225   19.1129 H   0  0  0  0  0  0
  -27.8183  -24.9779   18.7086 H   0  0  0  0  0  0
  -28.9897  -23.8848   21.3738 H   0  0  0  0  0  0
  -28.5772  -21.0122   21.3272 H   0  0  0  0  0  0
  -26.7756  -23.0308   19.8411 H   0  0  0  0  0  0
  1 25  1  0  0  0
  1 30  2  0  0  0
  1 74  1  0  0  0
  2  3  1  0  0  0
  2 25  1  0  0  0
  2 83  1  0  0  0
  2 84  1  0  0  0
  3  4  1  0  0  0
  3 85  1  0  0  0
  3 86  1  0  0  0
  4  5  1  0  0  0
  4 87  1  0  0  0
  4 88  1  0  0  0
  5  6  1  0  0  0
  5 26  1  0  0  0
  5 89  1  0  0  0
  6 25  1  0  0  0
  6 90  1  0  0  0
  6 91  1  0  0  0
  7  8  2  0  0  0
  7 26  1  0  0  0
  7 29  1  0  0  0
  8  9  1  0  0  0
  8 22  1  0  0  0
  9 10  1  0  0  0
  9 27  2  0  0  0
 10 11  2  0  0  0
 10 15  1  0  0  0
 11 12  1  0  0  0
 11 92  1  0  0  0
 12 13  2  0  0  0
 12 93  1  0  0  0
 13 14  1  0  0  0
 13 31  1  0  0  0
 14 15  2  0  0  0
 14 94  1  0  0  0
 15 95  1  0  0  0
 16 17  2  0  0  0
 16 21  1  0  0  0
 16 31  1  0  0  0
 17 18  1  0  0  0
 17 96  1  0  0  0
 18 19  2  0  0  0
 18 97  1  0  0  0
 19 20  1  0  0  0
 19 24  1  0  0  0
 20 21  2  0  0  0
 20 98  1  0  0  0
 21 23  1  0  0  0
 22 28  1  0  0  0
 22 32  2  0  0  0
 26 27  1  0  0  0
 28 99  1  0  0  0
 28100  1  0  0  0
 29101  1  0  0  0
 29102  1  0  0  0
 33 34  1  0  0  0
 33 66  1  0  0  0
 33 70  2  0  0  0
 34 36  1  0  0  0
 34 59  1  0  0  0
 34103  1  0  0  0
 35 44  2  0  0  0
 35 45  1  0  0  0
 35 68  1  0  0  0
 36 56  1  0  0  0
 36104  1  0  0  0
 37 39  1  0  0  0
 37 47  1  0  0  0
 37 66  1  0  0  0
 37105  1  0  0  0
 38 43  2  0  0  0
 38 46  1  0  0  0
 38 47  1  0  0  0
 39 64  1  0  0  0
 39 67  2  0  0  0
 40 52  1  0  0  0
 40 53  2  0  0  0
 40 58  1  0  0  0
 41106  1  0  0  0
 41107  1  0  0  0
 41108  1  0  0  0
 41 48  1  0  0  0
 42 43  1  0  0  0
 42 66  1  0  0  0
 42109  1  0  0  0
 42110  1  0  0  0
 43 44  1  0  0  0
 44111  1  0  0  0
 45 46  2  0  0  0
 45112  1  0  0  0
 46113  1  0  0  0
 47114  1  0  0  0
 47115  1  0  0  0
 48 56  1  0  0  0
 48 65  1  0  0  0
 48116  1  0  0  0
 49 50  1  0  0  0
 49 53  1  0  0  0
 49 64  1  0  0  0
 49117  1  0  0  0
 50 51  1  0  0  0
 50118  1  0  0  0
 50119  1  0  0  0
 51 52  1  0  0  0
 51120  1  0  0  0
 51121  1  0  0  0
 52122  1  0  0  0
 52123  1  0  0  0
 53 54  1  0  0  0
 54 55  2  0  0  0
 54124  1  0  0  0
 55 57  1  0  0  0
 55125  1  0  0  0
 56 69  2  0  0  0
 57 58  2  0  0  0
 57126  1  0  0  0
 58127  1  0  0  0
 59 60  1  0  0  0
 59 61  1  0  0  0
 59 62  1  0  0  0
 60128  1  0  0  0
 60129  1  0  0  0
 60130  1  0  0  0
 61131  1  0  0  0
 61132  1  0  0  0
 61133  1  0  0  0
 62134  1  0  0  0
 62135  1  0  0  0
 62136  1  0  0  0
 63 65  1  0  0  0
 63137  1  0  0  0
 63138  1  0  0  0
 63139  1  0  0  0
 64140  1  0  0  0
 65141  1  0  0  0
 68 76  1  0  0  0
 71 78  2  0  0  0
 71 79  1  0  0  0
 71142  1  0  0  0
 72 74  1  0  0  0
 72 78  1  0  0  0
 72 80  2  0  0  0
 73 79  2  0  0  0
 73 80  1  0  0  0
 73 81  1  0  0  0
 74143  1  0  0  0
 74144  1  0  0  0
 75 77  1  0  0  0
 75 81  1  0  0  0
 75145  1  0  0  0
 75146  1  0  0  0
 76 77  1  0  0  0
 76147  1  0  0  0
 76148  1  0  0  0
 77 82  1  0  0  0
 77149  1  0  0  0
 81150  1  0  0  0
 82151  1  0  0  0
M  ISO  4   1 100  68 101  74 100  76 101
M  END
> <chiral flag>
0

> <version>
0

> <s_m_source_file>
/data/baiqing/PycharmProjects/Reinvent-master-3.2/result/LINK_invent/BTK/process_docking_weight1_custom_product_contain_oxygen_bond_distance_aromatic_linkinvent_7_9_3/rearranged_h_0195.sdf

> <i_m_source_file_index>
91

> <r_mmod_Potential_Energy-OPLS-2005>
-594.77294921875

> <r_mmod_Stretch_Energy-OPLS-2005>
118.881523132324

> <r_mmod_Bend_Energy-OPLS-2005>
183.092758178711

> <r_mmod_Torsional_Energy-OPLS-2005>
184.755783081055

> <r_mmod_Improper_Torsional_Energy-OPLS-2005>
2.38058304786682

> <r_mmod_Van_der_Waal_Energy-OPLS-2005>
157.220962524414

> <r_mmod_Electrostatic_Energy-OPLS-2005>
-1053.87109375

> <r_mmod_Solvation_Energy-OPLS-2005>
-261.802673339844

> <b_mmod_Minimization_Converged-OPLS-2005>
0

> <r_mmod_RMS_Derivative-OPLS-2005>
1.84062850475311

$$$$
91
                    3D
 Structure written by MMmdl.
167175  0  0  1  0            999 V2000
  -30.6933  -14.4521   20.5369 C   0  0  0  0  0  0
  -30.4323  -12.2751   19.4234 C   0  0  0  0  0  0
  -29.5106  -12.5121   18.2100 C   0  0  0  0  0  0
  -28.0245  -12.3974   18.6110 C   0  0  0  0  0  0
  -27.6770  -13.2103   19.8892 C   0  0  2  0  0  0
  -28.7193  -12.9558   21.0038 C   0  0  0  0  0  0
  -25.2660  -13.8184   20.5671 C   0  0  0  0  0  0
  -24.1901  -13.0460   20.9147 C   0  0  0  0  0  0
  -24.6460  -11.6935   20.8722 C   0  0  0  0  0  0
  -23.9124  -10.4313   21.0374 C   0  0  0  0  0  0
  -24.3663   -9.4231   21.9153 C   0  0  0  0  0  0
  -23.6327   -8.2268   22.0744 C   0  0  0  0  0  0
  -22.4311   -8.0280   21.3533 C   0  0  0  0  0  0
  -21.9944   -9.0273   20.4647 C   0  0  0  0  0  0
  -22.7287  -10.2151   20.3046 C   0  0  0  0  0  0
  -21.6875   -6.0726   22.5270 C   0  0  0  0  0  0
  -21.4027   -6.5632   23.8206 C   0  0  0  0  0  0
  -21.3663   -5.6783   24.9165 C   0  0  0  0  0  0
  -21.6045   -4.3047   24.7204 C   0  0  0  0  0  0
  -21.8828   -3.8133   23.4327 C   0  0  0  0  0  0
  -21.9210   -4.6951   22.3385 C   0  0  0  0  0  0
  -22.7914  -13.5255   21.1789 C   0  0  0  0  0  0
  -22.1664   -4.2134   21.0960 F   0  0  0  0  0  0
  -21.5626   -3.4531   25.7709 F   0  0  0  0  0  0
  -30.0584  -13.2514   20.4570 N   0  0  0  0  0  0
  -26.3123  -12.9352   20.3417 N   0  0  0  0  0  0
  -25.9402  -11.6520   20.5800 N   0  0  0  0  0  0
  -22.0543  -12.8262   22.0347 N   0  0  0  0  0  0
  -25.4389  -15.1902   20.4065 N   0  0  0  0  0  0
  -31.7974  -14.6696   20.0241 O   0  0  0  0  0  0
  -21.6669   -6.8868   21.4232 O   0  0  0  0  0  0
  -22.3596  -14.5541   20.6603 O   0  0  0  0  0  0
  -24.6150  -31.8642   23.2091 C   0  0  0  0  0  0
  -25.9026  -32.4795   23.8376 C   0  0  1  0  0  0
  -27.2357  -27.4206   20.0545 C   0  0  0  0  0  0
  -25.5845  -33.8585   24.2276 N   0  0  0  0  0  0
  -23.4046  -30.4955   21.5463 C   0  0  2  0  0  0
  -24.8482  -28.9558   20.1122 C   0  0  0  0  0  0
  -22.7415  -29.4694   22.4956 C   0  0  0  0  0  0
  -18.0314  -28.1404   22.8522 C   0  0  0  0  0  0
  -24.1460  -36.7324   23.2655 C   0  0  0  0  0  0
  -25.9367  -30.8248   21.3655 C   0  0  0  0  0  0
  -26.0123  -29.4599   20.7013 C   0  0  0  0  0  0
  -27.2058  -28.6964   20.6732 C   0  0  0  0  0  0
  -26.0369  -26.9265   19.4913 C   0  0  0  0  0  0
  -24.8534  -27.6877   19.5116 C   0  0  0  0  0  0
  -23.6123  -29.8246   20.1623 C   0  0  0  0  0  0
  -25.4068  -36.3079   24.0341 C   0  0  1  0  0  0
  -20.5883  -28.3681   23.1305 C   0  0  2  0  0  0
  -20.6760  -26.9410   22.5411 C   0  0  0  0  0  0
  -19.5745  -26.6404   21.5202 C   0  0  0  0  0  0
  -18.1948  -26.7961   22.1643 C   0  0  0  0  0  0
  -19.1551  -28.8851   23.2928 C   0  0  0  0  0  0
  -18.9488  -30.1464   23.8951 C   0  0  0  0  0  0
  -17.6488  -30.6614   24.0567 C   0  0  0  0  0  0
  -25.9010  -34.9451   23.5105 C   0  0  0  0  0  0
  -16.5381  -29.9134   23.6304 C   0  0  0  0  0  0
  -16.7300  -28.6531   23.0347 C   0  0  0  0  0  0
  -26.4430  -31.6616   25.0733 C   0  0  0  0  0  0
  -25.3651  -31.3796   26.1462 C   0  0  0  0  0  0
  -27.0273  -30.3052   24.6159 C   0  0  0  0  0  0
  -27.5989  -32.4351   25.7510 C   0  0  0  0  0  0
  -27.5555  -37.1810   24.8459 C   0  0  0  0  0  0
  -21.4132  -29.3073   22.3708 N   0  0  0  0  0  0
  -26.4247  -37.3765   23.9433 N   0  0  0  0  0  0
  -24.6701  -31.0751   22.0989 N   0  0  0  0  0  0
  -23.4171  -28.8209   23.2963 O   0  0  0  0  0  0
  -28.4186  -26.6947   20.0680 O   0  0  0  0  0  0
  -26.5603  -34.8911   22.4689 O   0  0  0  0  0  0
  -23.5342  -32.1414   23.7481 O   0  0  0  0  0  0
  -29.6520  -17.7574   21.6690 C   0  0  0  0  0  0
  -29.0639  -19.3055   20.0511 C   0  0  0  0  0  0
  -29.7939  -16.7383   20.6960 C   0  0  0  0  0  0
  -29.2427  -18.2985   19.0593 C   0  0  0  0  0  0
  -30.3264  -22.8968   18.0392 C   0  0  0  0  0  0
  -31.0553  -22.1879   15.6530 C   0  0  0  0  0  0
  -29.6964  -26.2568   18.1385 C   0  0  0  0  0  0
  -28.4794  -20.6943   19.7380 C   0  0  0  0  0  0
  -29.9166  -22.6581   16.5782 C   0  0  0  0  0  0
  -29.1722  -24.3590   19.8653 C   0  0  0  0  0  0
  -29.1904  -23.0054   19.0713 C   0  0  2  0  0  0
  -28.6818  -25.6418   19.1120 C   0  0  1  0  0  0
  -29.3077  -19.0348   21.3589 N   0  0  0  0  0  0
  -29.6187  -17.0366   19.3787 N   0  0  0  0  0  0
  -29.0093  -18.5020   17.7040 N   0  0  0  0  0  0
  -30.0105  -15.4142   21.1693 N   0  0  0  0  0  0
  -29.4237  -21.8208   19.9406 N   0  3  0  0  0  0
  -31.5167  -22.9034   18.3704 O   0  0  0  0  0  0
  -31.4806  -12.3587   19.1267 H   0  0  0  0  0  0
  -30.3073  -11.2589   19.8006 H   0  0  0  0  0  0
  -29.7434  -11.7982   17.4182 H   0  0  0  0  0  0
  -29.7045  -13.5028   17.7965 H   0  0  0  0  0  0
  -27.7984  -11.3424   18.7668 H   0  0  0  0  0  0
  -27.3948  -12.7229   17.7811 H   0  0  0  0  0  0
  -27.7322  -14.2664   19.6236 H   0  0  0  0  0  0
  -28.6763  -11.9169   21.3351 H   0  0  0  0  0  0
  -28.4926  -13.5415   21.8935 H   0  0  0  0  0  0
  -25.2818   -9.5689   22.4721 H   0  0  0  0  0  0
  -24.0024   -7.4659   22.7488 H   0  0  0  0  0  0
  -21.0850   -8.8830   19.8973 H   0  0  0  0  0  0
  -22.3764  -10.9685   19.6143 H   0  0  0  0  0  0
  -21.2031   -7.6143   23.9709 H   0  0  0  0  0  0
  -21.1476   -6.0501   25.9069 H   0  0  0  0  0  0
  -22.0611   -2.7592   23.2840 H   0  0  0  0  0  0
  -22.4180  -11.9967   22.4813 H   0  0  0  0  0  0
  -21.1146  -13.1287   22.2479 H   0  0  0  0  0  0
  -24.6712  -15.8456   20.5067 H   0  0  0  0  0  0
  -26.2905  -15.6261   20.0760 H   0  0  0  0  0  0
  -26.7102  -32.5487   23.1148 H   0  0  0  0  0  0
  -24.9834  -33.9698   25.0319 H   0  0  0  0  0  0
  -22.6992  -31.3176   21.4032 H   0  0  0  0  0  0
  -23.3686  -35.9696   23.3298 H   0  0  0  0  0  0
  -24.3594  -36.8965   22.2079 H   0  0  0  0  0  0
  -23.7240  -37.6534   23.6694 H   0  0  0  0  0  0
  -26.0473  -31.5994   20.6060 H   0  0  0  0  0  0
  -26.8236  -30.8753   21.9859 H   0  0  0  0  0  0
  -28.1092  -29.0876   21.1203 H   0  0  0  0  0  0
  -25.9697  -25.9467   19.0498 H   0  0  0  0  0  0
  -23.9477  -27.2911   19.0781 H   0  0  0  0  0  0
  -23.7287  -30.5964   19.4005 H   0  0  0  0  0  0
  -22.7352  -29.2456   19.8635 H   0  0  0  0  0  0
  -25.1254  -36.1930   25.0833 H   0  0  0  0  0  0
  -20.9999  -28.3243   24.1403 H   0  0  0  0  0  0
  -20.5580  -26.2304   23.3602 H   0  0  0  0  0  0
  -21.6643  -26.7416   22.1238 H   0  0  0  0  0  0
  -19.6868  -25.6297   21.1270 H   0  0  0  0  0  0
  -19.6682  -27.3171   20.6688 H   0  0  0  0  0  0
  -17.4177  -26.6721   21.4085 H   0  0  0  0  0  0
  -18.0404  -26.0101   22.9035 H   0  0  0  0  0  0
  -19.7960  -30.7270   24.2347 H   0  0  0  0  0  0
  -17.5055  -31.6305   24.5165 H   0  0  0  0  0  0
  -15.5376  -30.3044   23.7602 H   0  0  0  0  0  0
  -15.8720  -28.0856   22.7023 H   0  0  0  0  0  0
  -24.5758  -30.7227   25.7796 H   0  0  0  0  0  0
  -24.8910  -32.2990   26.4906 H   0  0  0  0  0  0
  -25.7938  -30.8936   27.0229 H   0  0  0  0  0  0
  -26.2863  -29.6867   24.1075 H   0  0  0  0  0  0
  -27.3872  -29.7267   25.4682 H   0  0  0  0  0  0
  -27.8770  -30.4389   23.9453 H   0  0  0  0  0  0
  -27.2573  -33.3635   26.2113 H   0  0  0  0  0  0
  -28.3789  -32.6937   25.0331 H   0  0  0  0  0  0
  -28.0657  -31.8453   26.5414 H   0  0  0  0  0  0
  -28.2534  -38.0129   24.7465 H   0  0  0  0  0  0
  -28.1076  -36.2652   24.6297 H   0  0  0  0  0  0
  -27.2311  -37.1472   25.8871 H   0  0  0  0  0  0
  -20.9267  -29.8822   21.6985 H   0  0  0  0  0  0
  -26.0127  -38.2849   24.1428 H   0  0  0  0  0  0
  -29.7921  -17.5354   22.7191 H   0  0  0  0  0  0
  -30.7435  -22.2443   14.6103 H   0  0  0  0  0  0
  -31.3393  -21.1551   15.8633 H   0  0  0  0  0  0
  -31.9454  -22.8132   15.7414 H   0  0  0  0  0  0
  -29.9883  -25.5847   17.3338 H   0  0  0  0  0  0
  -30.5933  -26.5826   18.6617 H   0  0  0  0  0  0
  -29.2658  -27.1374   17.6632 H   0  0  0  0  0  0
  -27.5986  -20.8559   20.3623 H   0  0  0  0  0  0
  -28.1085  -20.6936   18.7117 H   0  0  0  0  0  0
  -29.5091  -23.5918   16.1925 H   0  0  0  0  0  0
  -29.1037  -21.9314   16.5515 H   0  0  0  0  0  0
  -30.1438  -24.5474   20.3253 H   0  0  0  0  0  0
  -28.4892  -24.2164   20.7048 H   0  0  0  0  0  0
  -28.2330  -22.8949   18.5610 H   0  0  0  0  0  0
  -27.8241  -25.3684   18.5049 H   0  0  0  0  0  0
  -28.5345  -19.3274   17.3579 H   0  0  0  0  0  0
  -28.9181  -17.6941   17.1003 H   0  0  0  0  0  0
  -29.3118  -15.0711   21.8076 H   0  0  0  0  0  0
  -30.3566  -21.5116   19.7137 H   0  0  0  0  0  0
  -29.4265  -22.0810   20.9119 H   0  0  0  0  0  0
  1 25  1  0  0  0
  1 30  2  0  0  0
  1 86  1  0  0  0
  2  3  1  0  0  0
  2 25  1  0  0  0
  2 89  1  0  0  0
  2 90  1  0  0  0
  3  4  1  0  0  0
  3 91  1  0  0  0
  3 92  1  0  0  0
  4  5  1  0  0  0
  4 93  1  0  0  0
  4 94  1  0  0  0
  5  6  1  0  0  0
  5 26  1  0  0  0
  5 95  1  0  0  0
  6 25  1  0  0  0
  6 96  1  0  0  0
  6 97  1  0  0  0
  7  8  2  0  0  0
  7 26  1  0  0  0
  7 29  1  0  0  0
  8  9  1  0  0  0
  8 22  1  0  0  0
  9 10  1  0  0  0
  9 27  2  0  0  0
 10 11  2  0  0  0
 10 15  1  0  0  0
 11 12  1  0  0  0
 11 98  1  0  0  0
 12 13  2  0  0  0
 12 99  1  0  0  0
 13 14  1  0  0  0
 13 31  1  0  0  0
 14 15  2  0  0  0
 14100  1  0  0  0
 15101  1  0  0  0
 16 17  2  0  0  0
 16 21  1  0  0  0
 16 31  1  0  0  0
 17 18  1  0  0  0
 17102  1  0  0  0
 18 19  2  0  0  0
 18103  1  0  0  0
 19 20  1  0  0  0
 19 24  1  0  0  0
 20 21  2  0  0  0
 20104  1  0  0  0
 21 23  1  0  0  0
 22 28  1  0  0  0
 22 32  2  0  0  0
 26 27  1  0  0  0
 28105  1  0  0  0
 28106  1  0  0  0
 29107  1  0  0  0
 29108  1  0  0  0
 33 34  1  0  0  0
 33 66  1  0  0  0
 33 70  2  0  0  0
 34 36  1  0  0  0
 34 59  1  0  0  0
 34109  1  0  0  0
 35 44  2  0  0  0
 35 45  1  0  0  0
 35 68  1  0  0  0
 36 56  1  0  0  0
 36110  1  0  0  0
 37 39  1  0  0  0
 37 47  1  0  0  0
 37 66  1  0  0  0
 37111  1  0  0  0
 38 43  2  0  0  0
 38 46  1  0  0  0
 38 47  1  0  0  0
 39 64  1  0  0  0
 39 67  2  0  0  0
 40 52  1  0  0  0
 40 53  2  0  0  0
 40 58  1  0  0  0
 41112  1  0  0  0
 41113  1  0  0  0
 41114  1  0  0  0
 41 48  1  0  0  0
 42 43  1  0  0  0
 42 66  1  0  0  0
 42115  1  0  0  0
 42116  1  0  0  0
 43 44  1  0  0  0
 44117  1  0  0  0
 45 46  2  0  0  0
 45118  1  0  0  0
 46119  1  0  0  0
 47120  1  0  0  0
 47121  1  0  0  0
 48 56  1  0  0  0
 48 65  1  0  0  0
 48122  1  0  0  0
 49 50  1  0  0  0
 49 53  1  0  0  0
 49 64  1  0  0  0
 49123  1  0  0  0
 50 51  1  0  0  0
 50124  1  0  0  0
 50125  1  0  0  0
 51 52  1  0  0  0
 51126  1  0  0  0
 51127  1  0  0  0
 52128  1  0  0  0
 52129  1  0  0  0
 53 54  1  0  0  0
 54 55  2  0  0  0
 54130  1  0  0  0
 55 57  1  0  0  0
 55131  1  0  0  0
 56 69  2  0  0  0
 57 58  2  0  0  0
 57132  1  0  0  0
 58133  1  0  0  0
 59 60  1  0  0  0
 59 61  1  0  0  0
 59 62  1  0  0  0
 60134  1  0  0  0
 60135  1  0  0  0
 60136  1  0  0  0
 61137  1  0  0  0
 61138  1  0  0  0
 61139  1  0  0  0
 62140  1  0  0  0
 62141  1  0  0  0
 62142  1  0  0  0
 63 65  1  0  0  0
 63143  1  0  0  0
 63144  1  0  0  0
 63145  1  0  0  0
 64146  1  0  0  0
 65147  1  0  0  0
 68 82  1  0  0  0
 71 73  2  0  0  0
 71 83  1  0  0  0
 71148  1  0  0  0
 72 74  1  0  0  0
 72 78  1  0  0  0
 72 83  2  0  0  0
 73 84  1  0  0  0
 73 86  1  0  0  0
 74 84  2  0  0  0
 74 85  1  0  0  0
 75 79  1  0  0  0
 75 81  1  0  0  0
 75 88  2  0  0  0
 76 79  1  0  0  0
 76149  1  0  0  0
 76150  1  0  0  0
 76151  1  0  0  0
 77152  1  0  0  0
 77153  1  0  0  0
 77154  1  0  0  0
 77 82  1  0  0  0
 78 87  1  0  0  0
 78155  1  0  0  0
 78156  1  0  0  0
 79157  1  0  0  0
 79158  1  0  0  0
 80 82  1  0  0  0
 80159  1  0  0  0
 80160  1  0  0  0
 80 81  1  0  0  0
 81 87  1  0  0  0
 81161  1  0  0  0
 82162  1  0  0  0
 85163  1  0  0  0
 85164  1  0  0  0
 86165  1  0  0  0
 87166  1  0  0  0
 87167  1  0  0  0
M  CHG  1  87   1
M  ISO  4   1 100  68 101  82 101  86 100
M  END
> <chiral flag>
0

> <version>
0

> <s_m_source_file>
/data/baiqing/PycharmProjects/Reinvent-master-3.2/result/LINK_invent/BTK/process_docking_weight1_custom_product_contain_oxygen_bond_distance_aromatic_linkinvent_7_9_3/rearranged_h_0195.sdf

> <i_m_source_file_index>
92

> <r_mmod_Potential_Energy-OPLS-2005>
-350.962890625

> <r_mmod_Stretch_Energy-OPLS-2005>
44.5609130859375

> <r_mmod_Bend_Energy-OPLS-2005>
123.446281433105

> <r_mmod_Torsional_Energy-OPLS-2005>
252.104034423828

> <r_mmod_Improper_Torsional_Energy-OPLS-2005>
7.32181692123413

> <r_mmod_Van_der_Waal_Energy-OPLS-2005>
151.762191772461

> <r_mmod_Electrostatic_Energy-OPLS-2005>
-433.420440673828

> <r_mmod_Solvation_Energy-OPLS-2005>
-510.031677246094

> <b_mmod_Minimization_Converged-OPLS-2005>
0

> <r_mmod_RMS_Derivative-OPLS-2005>
5.16721630096436

$$$$
92
                    3D
 Structure written by MMmdl.
150158  0  0  1  0            999 V2000
  -30.5389  -14.9540   20.4080 C   0  0  0  0  0  0
  -30.4374  -12.5770   19.5191 C   0  0  0  0  0  0
  -29.5280  -12.5291   18.2683 C   0  0  0  0  0  0
  -28.0579  -12.3188   18.6756 C   0  0  0  0  0  0
  -27.6301  -13.2534   19.8368 C   0  0  2  0  0  0
  -28.6668  -13.2888   20.9785 C   0  0  0  0  0  0
  -25.2463  -13.8229   20.5716 C   0  0  0  0  0  0
  -24.1779  -13.0444   20.9221 C   0  0  0  0  0  0
  -24.6403  -11.6933   20.8746 C   0  0  0  0  0  0
  -23.9088  -10.4298   21.0401 C   0  0  0  0  0  0
  -24.3634   -9.4212   21.9181 C   0  0  0  0  0  0
  -23.6304   -8.2248   22.0751 C   0  0  0  0  0  0
  -22.4284   -8.0287   21.3545 C   0  0  0  0  0  0
  -21.9925   -9.0261   20.4644 C   0  0  0  0  0  0
  -22.7258  -10.2138   20.3052 C   0  0  0  0  0  0
  -21.6856   -6.0743   22.5281 C   0  0  0  0  0  0
  -21.4016   -6.5645   23.8216 C   0  0  0  0  0  0
  -21.3659   -5.6796   24.9177 C   0  0  0  0  0  0
  -21.6043   -4.3058   24.7226 C   0  0  0  0  0  0
  -21.8819   -3.8152   23.4347 C   0  0  0  0  0  0
  -21.9194   -4.6970   22.3403 C   0  0  0  0  0  0
  -22.7799  -13.5208   21.1887 C   0  0  0  0  0  0
  -22.1662   -4.2158   21.0979 F   0  0  0  0  0  0
  -21.5627   -3.4540   25.7736 F   0  0  0  0  0  0
  -29.9554  -13.6844   20.3985 N   0  0  0  0  0  0
  -26.2889  -12.9472   20.3227 N   0  0  0  0  0  0
  -25.9338  -11.6595   20.5722 N   0  0  0  0  0  0
  -22.0456  -12.8186   22.0441 N   0  0  0  0  0  0
  -25.4137  -15.1957   20.4176 N   0  0  0  0  0  0
  -31.7345  -14.9655   20.0929 O   0  0  0  0  0  0
  -21.6645   -6.8887   21.4243 O   0  0  0  0  0  0
  -22.3475  -14.5513   20.6739 O   0  0  0  0  0  0
  -24.6433  -31.8427   23.1874 C   0  0  0  0  0  0
  -25.9204  -32.4683   23.8264 C   0  0  1  0  0  0
  -27.2186  -27.1293   20.1449 C   0  0  0  0  0  0
  -25.5954  -33.8490   24.2183 N   0  0  0  0  0  0
  -23.4472  -30.4615   21.5325 C   0  0  2  0  0  0
  -24.8961  -28.8874   20.1069 C   0  0  0  0  0  0
  -22.7567  -29.4536   22.4849 C   0  0  0  0  0  0
  -18.0305  -28.1390   22.8471 C   0  0  0  0  0  0
  -24.1492  -36.7255   23.2643 C   0  0  0  0  0  0
  -26.0026  -30.7134   21.3874 C   0  0  0  0  0  0
  -26.0719  -29.3246   20.7277 C   0  0  0  0  0  0
  -27.2296  -28.4601   20.7323 C   0  0  0  0  0  0
  -26.0146  -26.7939   19.4863 C   0  0  0  0  0  0
  -24.8810  -27.6362   19.4720 C   0  0  0  0  0  0
  -23.6730  -29.7902   20.1514 C   0  0  0  0  0  0
  -25.4127  -36.3027   24.0311 C   0  0  1  0  0  0
  -20.5918  -28.3716   23.1229 C   0  0  2  0  0  0
  -20.6786  -26.9417   22.5401 C   0  0  0  0  0  0
  -19.5763  -26.6377   21.5205 C   0  0  0  0  0  0
  -18.1944  -26.7930   22.1615 C   0  0  0  0  0  0
  -19.1560  -28.8873   23.2842 C   0  0  0  0  0  0
  -18.9479  -30.1470   23.8865 C   0  0  0  0  0  0
  -17.6477  -30.6585   24.0556 C   0  0  0  0  0  0
  -25.9075  -34.9398   23.5057 C   0  0  0  0  0  0
  -16.5368  -29.9078   23.6333 C   0  0  0  0  0  0
  -16.7290  -28.6498   23.0349 C   0  0  0  0  0  0
  -26.4526  -31.6557   25.0713 C   0  0  0  0  0  0
  -25.3709  -31.3741   26.1409 C   0  0  0  0  0  0
  -27.0399  -30.2952   24.6304 C   0  0  0  0  0  0
  -27.6052  -32.4333   25.7493 C   0  0  0  0  0  0
  -27.5574  -37.1793   24.8469 C   0  0  0  0  0  0
  -21.4260  -29.3041   22.3600 N   0  0  0  0  0  0
  -26.4294  -37.3735   23.9397 N   0  0  0  0  0  0
  -24.7174  -31.0275   22.0909 N   0  0  0  0  0  0
  -23.4211  -28.8085   23.3001 O   0  0  0  0  0  0
  -28.2881  -26.1648   20.2547 O   0  0  0  0  0  0
  -26.5659  -34.8894   22.4634 O   0  0  0  0  0  0
  -23.5553  -32.1305   23.7093 O   0  0  0  0  0  0
  -32.4281  -19.4188   20.8694 C   0  0  0  0  0  0
  -30.4353  -17.9109   20.6358 C   0  0  0  0  0  0
  -30.1520  -19.3602   20.5141 C   0  0  0  0  0  0
  -29.7318  -16.4215   20.5985 C   0  0  0  0  0  0
  -29.0772  -21.8087   19.7940 C   0  0  0  0  0  0
  -28.3041  -24.6945   19.7251 C   0  0  0  0  0  0
  -28.5091  -23.2151   20.5359 C   0  0  1  0  0  0
  -31.3328  -20.1049   20.5928 N   0  0  0  0  0  0
  -29.0315  -20.3389   20.3618 N   0  0  0  0  0  0
  -27.2291  -22.8367   21.0132 O   0  0  0  0  0  0
  -32.1390  -17.7292   21.0697 S   0  0  0  0  0  0
  -31.4764  -12.7094   19.2145 H   0  0  0  0  0  0
  -30.4088  -11.6262   20.0536 H   0  0  0  0  0  0
  -29.8487  -11.7310   17.5975 H   0  0  0  0  0  0
  -29.6257  -13.4600   17.7081 H   0  0  0  0  0  0
  -27.9494  -11.2779   18.9823 H   0  0  0  0  0  0
  -27.4007  -12.4526   17.8158 H   0  0  0  0  0  0
  -27.5932  -14.2546   19.4074 H   0  0  0  0  0  0
  -28.7421  -12.3187   21.4716 H   0  0  0  0  0  0
  -28.3631  -14.0019   21.7461 H   0  0  0  0  0  0
  -25.2778   -9.5691   22.4758 H   0  0  0  0  0  0
  -24.0017   -7.4640   22.7470 H   0  0  0  0  0  0
  -21.0858   -8.8781   19.8947 H   0  0  0  0  0  0
  -22.3715  -10.9679   19.6163 H   0  0  0  0  0  0
  -21.2007   -7.6154   23.9723 H   0  0  0  0  0  0
  -21.1479   -6.0524   25.9080 H   0  0  0  0  0  0
  -22.0597   -2.7615   23.2843 H   0  0  0  0  0  0
  -22.4088  -11.9852   22.4825 H   0  0  0  0  0  0
  -21.1069  -13.1193   22.2650 H   0  0  0  0  0  0
  -24.6479  -15.8498   20.5385 H   0  0  0  0  0  0
  -26.2667  -15.6400   20.1033 H   0  0  0  0  0  0
  -26.7266  -32.5278   23.0986 H   0  0  0  0  0  0
  -25.0079  -33.9599   25.0318 H   0  0  0  0  0  0
  -22.7495  -31.2872   21.3782 H   0  0  0  0  0  0
  -23.3744  -35.9599   23.3324 H   0  0  0  0  0  0
  -24.3563  -36.8873   22.2053 H   0  0  0  0  0  0
  -23.7275  -37.6468   23.6670 H   0  0  0  0  0  0
  -26.1601  -31.4681   20.6154 H   0  0  0  0  0  0
  -26.8723  -30.7620   22.0312 H   0  0  0  0  0  0
  -28.1235  -28.7885   21.2439 H   0  0  0  0  0  0
  -25.8955  -25.8377   19.0041 H   0  0  0  0  0  0
  -23.9818  -27.2951   18.9779 H   0  0  0  0  0  0
  -23.8089  -30.5643   19.3956 H   0  0  0  0  0  0
  -22.7874  -29.2326   19.8411 H   0  0  0  0  0  0
  -25.1323  -36.1854   25.0805 H   0  0  0  0  0  0
  -21.0005  -28.3307   24.1352 H   0  0  0  0  0  0
  -20.5677  -26.2328   23.3622 H   0  0  0  0  0  0
  -21.6654  -26.7419   22.1205 H   0  0  0  0  0  0
  -19.6925  -25.6282   21.1251 H   0  0  0  0  0  0
  -19.6703  -27.3166   20.6721 H   0  0  0  0  0  0
  -17.4216  -26.6666   21.4018 H   0  0  0  0  0  0
  -18.0348  -26.0077   22.9018 H   0  0  0  0  0  0
  -19.7956  -30.7294   24.2217 H   0  0  0  0  0  0
  -17.5029  -31.6259   24.5165 H   0  0  0  0  0  0
  -15.5366  -30.2970   23.7678 H   0  0  0  0  0  0
  -15.8690  -28.0811   22.7078 H   0  0  0  0  0  0
  -24.5899  -30.7076   25.7730 H   0  0  0  0  0  0
  -24.8882  -32.2917   26.4778 H   0  0  0  0  0  0
  -25.7998  -30.8956   27.0223 H   0  0  0  0  0  0
  -26.3021  -29.6664   24.1308 H   0  0  0  0  0  0
  -27.4003  -29.7263   25.4884 H   0  0  0  0  0  0
  -27.8929  -30.4185   23.9628 H   0  0  0  0  0  0
  -27.2641  -33.3651   26.2011 H   0  0  0  0  0  0
  -28.3886  -32.6871   25.0341 H   0  0  0  0  0  0
  -28.0693  -31.8506   26.5458 H   0  0  0  0  0  0
  -28.2608  -38.0072   24.7478 H   0  0  0  0  0  0
  -28.1058  -36.2600   24.6355 H   0  0  0  0  0  0
  -27.2277  -37.1514   25.8870 H   0  0  0  0  0  0
  -20.9472  -29.8761   21.6784 H   0  0  0  0  0  0
  -26.0162  -38.2809   24.1372 H   0  0  0  0  0  0
  -33.3884  -19.9034   20.9785 H   0  0  0  0  0  0
  -28.9822  -16.4397   19.8081 H   0  0  0  0  0  0
  -29.1550  -16.3179   21.5169 H   0  0  0  0  0  0
  -30.1045  -22.0175   19.4944 H   0  0  0  0  0  0
  -28.5494  -21.7420   18.8416 H   0  0  0  0  0  0
  -27.5051  -24.5536   19.0025 H   0  0  0  0  0  0
  -29.1825  -24.7335   19.0804 H   0  0  0  0  0  0
  -29.1504  -23.4062   21.3974 H   0  0  0  0  0  0
  -28.1017  -19.9279   20.3771 H   0  0  0  0  0  0
  -26.6997  -22.6037   20.2572 H   0  0  0  0  0  0
  1 25  1  0  0  0
  1 30  2  0  0  0
  1 74  1  0  0  0
  2  3  1  0  0  0
  2 25  1  0  0  0
  2 82  1  0  0  0
  2 83  1  0  0  0
  3  4  1  0  0  0
  3 84  1  0  0  0
  3 85  1  0  0  0
  4  5  1  0  0  0
  4 86  1  0  0  0
  4 87  1  0  0  0
  5  6  1  0  0  0
  5 26  1  0  0  0
  5 88  1  0  0  0
  6 25  1  0  0  0
  6 89  1  0  0  0
  6 90  1  0  0  0
  7  8  2  0  0  0
  7 26  1  0  0  0
  7 29  1  0  0  0
  8  9  1  0  0  0
  8 22  1  0  0  0
  9 10  1  0  0  0
  9 27  2  0  0  0
 10 11  2  0  0  0
 10 15  1  0  0  0
 11 12  1  0  0  0
 11 91  1  0  0  0
 12 13  2  0  0  0
 12 92  1  0  0  0
 13 14  1  0  0  0
 13 31  1  0  0  0
 14 15  2  0  0  0
 14 93  1  0  0  0
 15 94  1  0  0  0
 16 17  2  0  0  0
 16 21  1  0  0  0
 16 31  1  0  0  0
 17 18  1  0  0  0
 17 95  1  0  0  0
 18 19  2  0  0  0
 18 96  1  0  0  0
 19 20  1  0  0  0
 19 24  1  0  0  0
 20 21  2  0  0  0
 20 97  1  0  0  0
 21 23  1  0  0  0
 22 28  1  0  0  0
 22 32  2  0  0  0
 26 27  1  0  0  0
 28 98  1  0  0  0
 28 99  1  0  0  0
 29100  1  0  0  0
 29101  1  0  0  0
 33 34  1  0  0  0
 33 66  1  0  0  0
 33 70  2  0  0  0
 34 36  1  0  0  0
 34 59  1  0  0  0
 34102  1  0  0  0
 35 44  2  0  0  0
 35 45  1  0  0  0
 35 68  1  0  0  0
 36 56  1  0  0  0
 36103  1  0  0  0
 37 39  1  0  0  0
 37 47  1  0  0  0
 37 66  1  0  0  0
 37104  1  0  0  0
 38 43  2  0  0  0
 38 46  1  0  0  0
 38 47  1  0  0  0
 39 64  1  0  0  0
 39 67  2  0  0  0
 40 52  1  0  0  0
 40 53  2  0  0  0
 40 58  1  0  0  0
 41105  1  0  0  0
 41106  1  0  0  0
 41107  1  0  0  0
 41 48  1  0  0  0
 42 43  1  0  0  0
 42 66  1  0  0  0
 42108  1  0  0  0
 42109  1  0  0  0
 43 44  1  0  0  0
 44110  1  0  0  0
 45 46  2  0  0  0
 45111  1  0  0  0
 46112  1  0  0  0
 47113  1  0  0  0
 47114  1  0  0  0
 48 56  1  0  0  0
 48 65  1  0  0  0
 48115  1  0  0  0
 49 50  1  0  0  0
 49 53  1  0  0  0
 49 64  1  0  0  0
 49116  1  0  0  0
 50 51  1  0  0  0
 50117  1  0  0  0
 50118  1  0  0  0
 51 52  1  0  0  0
 51119  1  0  0  0
 51120  1  0  0  0
 52121  1  0  0  0
 52122  1  0  0  0
 53 54  1  0  0  0
 54 55  2  0  0  0
 54123  1  0  0  0
 55 57  1  0  0  0
 55124  1  0  0  0
 56 69  2  0  0  0
 57 58  2  0  0  0
 57125  1  0  0  0
 58126  1  0  0  0
 59 60  1  0  0  0
 59 61  1  0  0  0
 59 62  1  0  0  0
 60127  1  0  0  0
 60128  1  0  0  0
 60129  1  0  0  0
 61130  1  0  0  0
 61131  1  0  0  0
 61132  1  0  0  0
 62133  1  0  0  0
 62134  1  0  0  0
 62135  1  0  0  0
 63 65  1  0  0  0
 63136  1  0  0  0
 63137  1  0  0  0
 63138  1  0  0  0
 64139  1  0  0  0
 65140  1  0  0  0
 68 76  1  0  0  0
 71 78  2  0  0  0
 71 81  1  0  0  0
 71141  1  0  0  0
 72 73  2  0  0  0
 72 74  1  0  0  0
 72 81  1  0  0  0
 73 78  1  0  0  0
 73 79  1  0  0  0
 74142  1  0  0  0
 74143  1  0  0  0
 75 77  1  0  0  0
 75 79  1  0  0  0
 75144  1  0  0  0
 75145  1  0  0  0
 76 77  1  0  0  0
 76146  1  0  0  0
 76147  1  0  0  0
 77 80  1  0  0  0
 77148  1  0  0  0
 79149  1  0  0  0
 80150  1  0  0  0
M  ISO  4   1 100  68 101  74 100  76 101
M  END
> <chiral flag>
0

> <version>
0

> <s_m_source_file>
/data/baiqing/PycharmProjects/Reinvent-master-3.2/result/LINK_invent/BTK/process_docking_weight1_custom_product_contain_oxygen_bond_distance_aromatic_linkinvent_7_9_3/rearranged_h_0195.sdf

> <i_m_source_file_index>
93

> <r_mmod_Potential_Energy-OPLS-2005>
451.584381103516

> <r_mmod_Stretch_Energy-OPLS-2005>
294.098266601562

> <r_mmod_Bend_Energy-OPLS-2005>
329.383666992188

> <r_mmod_Torsional_Energy-OPLS-2005>
201.318069458008

> <r_mmod_Improper_Torsional_Energy-OPLS-2005>
4.9822301864624

> <r_mmod_Van_der_Waal_Energy-OPLS-2005>
123.13941192627

> <r_mmod_Electrostatic_Energy-OPLS-2005>
-431.948089599609

> <r_mmod_Solvation_Energy-OPLS-2005>
-261.0419921875

> <b_mmod_Minimization_Converged-OPLS-2005>
0

> <r_mmod_RMS_Derivative-OPLS-2005>
0.620196104049683

$$$$
93
                    3D
 Structure written by MMmdl.
152160  0  0  1  0            999 V2000
  -30.6712  -14.5388   20.5146 C   0  0  0  0  0  0
  -30.4183  -12.3283   19.4483 C   0  0  0  0  0  0
  -29.4973  -12.4891   18.2200 C   0  0  0  0  0  0
  -28.0188  -12.3417   18.6322 C   0  0  0  0  0  0
  -27.6519  -13.2106   19.8657 C   0  0  2  0  0  0
  -28.6935  -13.0465   20.9963 C   0  0  0  0  0  0
  -25.2549  -13.8183   20.5681 C   0  0  0  0  0  0
  -24.1810  -13.0443   20.9193 C   0  0  0  0  0  0
  -24.6370  -11.6918   20.8738 C   0  0  0  0  0  0
  -23.9044  -10.4293   21.0404 C   0  0  0  0  0  0
  -24.3604   -9.4203   21.9175 C   0  0  0  0  0  0
  -23.6282   -8.2240   22.0744 C   0  0  0  0  0  0
  -22.4262   -8.0271   21.3542 C   0  0  0  0  0  0
  -21.9893   -9.0242   20.4644 C   0  0  0  0  0  0
  -22.7222  -10.2122   20.3050 C   0  0  0  0  0  0
  -21.6847   -6.0720   22.5279 C   0  0  0  0  0  0
  -21.4019   -6.5631   23.8210 C   0  0  0  0  0  0
  -21.3662   -5.6789   24.9177 C   0  0  0  0  0  0
  -21.6041   -4.3048   24.7231 C   0  0  0  0  0  0
  -21.8828   -3.8134   23.4355 C   0  0  0  0  0  0
  -21.9197   -4.6949   22.3408 C   0  0  0  0  0  0
  -22.7835  -13.5230   21.1865 C   0  0  0  0  0  0
  -22.1659   -4.2130   21.0985 F   0  0  0  0  0  0
  -21.5632   -3.4538   25.7750 F   0  0  0  0  0  0
  -30.0156  -13.3482   20.4322 N   0  0  0  0  0  0
  -26.2961  -12.9343   20.3343 N   0  0  0  0  0  0
  -25.9291  -11.6498   20.5768 N   0  0  0  0  0  0
  -22.0490  -12.8198   22.0426 N   0  0  0  0  0  0
  -25.4270  -15.1902   20.4091 N   0  0  0  0  0  0
  -31.8343  -14.6711   20.1241 O   0  0  0  0  0  0
  -21.6639   -6.8858   21.4236 O   0  0  0  0  0  0
  -22.3513  -14.5539   20.6719 O   0  0  0  0  0  0
  -24.6169  -31.8639   23.2060 C   0  0  0  0  0  0
  -25.9053  -32.4789   23.8371 C   0  0  1  0  0  0
  -27.2338  -27.3787   20.1046 C   0  0  0  0  0  0
  -25.5894  -33.8592   24.2301 N   0  0  0  0  0  0
  -23.4083  -30.4867   21.5453 C   0  0  2  0  0  0
  -24.8570  -28.9444   20.1084 C   0  0  0  0  0  0
  -22.7411  -29.4654   22.4943 C   0  0  0  0  0  0
  -18.0277  -28.1382   22.8503 C   0  0  0  0  0  0
  -24.1487  -36.7306   23.2641 C   0  0  0  0  0  0
  -25.9422  -30.8092   21.3710 C   0  0  0  0  0  0
  -26.0172  -29.4407   20.7139 C   0  0  0  0  0  0
  -27.2036  -28.6640   20.7094 C   0  0  0  0  0  0
  -26.0510  -26.9093   19.4882 C   0  0  0  0  0  0
  -24.8731  -27.6829   19.4889 C   0  0  0  0  0  0
  -23.6195  -29.8158   20.1599 C   0  0  0  0  0  0
  -25.4110  -36.3098   24.0332 C   0  0  1  0  0  0
  -20.5865  -28.3699   23.1296 C   0  0  2  0  0  0
  -20.6769  -26.9416   22.5458 C   0  0  0  0  0  0
  -19.5745  -26.6353   21.5279 C   0  0  0  0  0  0
  -18.1919  -26.7913   22.1673 C   0  0  0  0  0  0
  -19.1525  -28.8868   23.2881 C   0  0  0  0  0  0
  -18.9443  -30.1474   23.8882 C   0  0  0  0  0  0
  -17.6438  -30.6600   24.0547 C   0  0  0  0  0  0
  -25.9043  -34.9461   23.5119 C   0  0  0  0  0  0
  -16.5336  -29.9088   23.6332 C   0  0  0  0  0  0
  -16.7266  -28.6494   23.0369 C   0  0  0  0  0  0
  -26.4471  -31.6597   25.0723 C   0  0  0  0  0  0
  -25.3720  -31.3718   26.1460 C   0  0  0  0  0  0
  -27.0313  -30.3026   24.6163 C   0  0  0  0  0  0
  -27.6041  -32.4327   25.7474 C   0  0  0  0  0  0
  -27.5580  -37.1810   24.8463 C   0  0  0  0  0  0
  -21.4134  -29.3045   22.3670 N   0  0  0  0  0  0
  -26.4299  -37.3781   23.9396 N   0  0  0  0  0  0
  -24.6733  -31.0696   22.0980 N   0  0  0  0  0  0
  -23.4162  -28.8217   23.3019 O   0  0  0  0  0  0
  -28.4027  -26.6281   20.1659 O   0  0  0  0  0  0
  -26.5611  -34.8915   22.4686 O   0  0  0  0  0  0
  -23.5347  -32.1422   23.7427 O   0  0  0  0  0  0
  -28.3063  -18.2211   21.5655 C   0  0  0  0  0  0
  -29.4662  -18.1899   20.8284 C   0  0  0  0  0  0
  -28.9551  -20.4533   20.7042 C   0  0  0  0  0  0
  -30.4024  -17.0112   20.5533 C   0  0  0  0  0  0
  -28.7286  -23.0848   21.0438 C   0  0  0  0  0  0
  -28.5191  -25.3266   19.5277 C   0  0  0  0  0  0
  -27.8391  -24.0810   20.2139 C   0  0  1  0  0  0
  -29.7918  -19.4739   20.3234 N   0  0  0  0  0  0
  -29.1098  -21.8133   20.3708 N   0  0  0  0  0  0
  -29.9286  -15.6302   20.8206 N   0  0  0  0  0  0
  -27.2618  -23.2406   19.2380 O   0  0  0  0  0  0
  -27.6474  -19.8424   21.7122 S   0  0  0  0  0  0
  -31.4653  -12.4165   19.1526 H   0  0  0  0  0  0
  -30.3118  -11.3317   19.8808 H   0  0  0  0  0  0
  -29.7486  -11.7495   17.4589 H   0  0  0  0  0  0
  -29.6586  -13.4666   17.7619 H   0  0  0  0  0  0
  -27.8461  -11.2887   18.8591 H   0  0  0  0  0  0
  -27.3655  -12.5790   17.7915 H   0  0  0  0  0  0
  -27.6792  -14.2476   19.5321 H   0  0  0  0  0  0
  -28.6803  -12.0270   21.3857 H   0  0  0  0  0  0
  -28.4592  -13.6940   21.8424 H   0  0  0  0  0  0
  -25.2752   -9.5684   22.4738 H   0  0  0  0  0  0
  -23.9993   -7.4639   22.7459 H   0  0  0  0  0  0
  -21.0827   -8.8760   19.8954 H   0  0  0  0  0  0
  -22.3677  -10.9652   19.6157 H   0  0  0  0  0  0
  -21.2009   -7.6138   23.9712 H   0  0  0  0  0  0
  -21.1476   -6.0517   25.9082 H   0  0  0  0  0  0
  -22.0604   -2.7591   23.2872 H   0  0  0  0  0  0
  -22.4101  -11.9845   22.4779 H   0  0  0  0  0  0
  -21.1120  -13.1224   22.2677 H   0  0  0  0  0  0
  -24.6553  -15.8418   20.4992 H   0  0  0  0  0  0
  -26.2719  -15.6261   20.0627 H   0  0  0  0  0  0
  -26.7108  -32.5490   23.1116 H   0  0  0  0  0  0
  -25.0023  -33.9753   25.0432 H   0  0  0  0  0  0
  -22.7008  -31.3065   21.4030 H   0  0  0  0  0  0
  -23.3748  -35.9643   23.3315 H   0  0  0  0  0  0
  -24.3585  -36.8919   22.2057 H   0  0  0  0  0  0
  -23.7251  -37.6516   23.6653 H   0  0  0  0  0  0
  -26.0705  -31.5763   20.6061 H   0  0  0  0  0  0
  -26.8241  -30.8557   21.9985 H   0  0  0  0  0  0
  -28.0979  -29.0384   21.1880 H   0  0  0  0  0  0
  -26.0136  -25.9400   19.0139 H   0  0  0  0  0  0
  -23.9819  -27.2996   19.0122 H   0  0  0  0  0  0
  -23.7221  -30.5885   19.3971 H   0  0  0  0  0  0
  -22.7430  -29.2330   19.8690 H   0  0  0  0  0  0
  -25.1298  -36.1970   25.0827 H   0  0  0  0  0  0
  -20.9970  -28.3304   24.1421 H   0  0  0  0  0  0
  -20.5696  -26.2333   23.3688 H   0  0  0  0  0  0
  -21.6631  -26.7441   22.1243 H   0  0  0  0  0  0
  -19.6913  -25.6245   21.1358 H   0  0  0  0  0  0
  -19.6698  -27.3138   20.6778 H   0  0  0  0  0  0
  -17.4184  -26.6601   21.4083 H   0  0  0  0  0  0
  -18.0337  -26.0090   22.9114 H   0  0  0  0  0  0
  -19.7918  -30.7319   24.2208 H   0  0  0  0  0  0
  -17.4971  -31.6298   24.5108 H   0  0  0  0  0  0
  -15.5323  -30.2969   23.7629 H   0  0  0  0  0  0
  -15.8673  -28.0792   22.7101 H   0  0  0  0  0  0
  -24.5895  -30.7071   25.7784 H   0  0  0  0  0  0
  -24.8905  -32.2870   26.4900 H   0  0  0  0  0  0
  -25.8052  -30.8882   27.0225 H   0  0  0  0  0  0
  -26.2874  -29.6763   24.1224 H   0  0  0  0  0  0
  -27.4058  -29.7298   25.4663 H   0  0  0  0  0  0
  -27.8718  -30.4313   23.9340 H   0  0  0  0  0  0
  -27.2662  -33.3616   26.2071 H   0  0  0  0  0  0
  -28.3821  -32.6913   25.0283 H   0  0  0  0  0  0
  -28.0740  -31.8454   26.5374 H   0  0  0  0  0  0
  -28.2611  -38.0095   24.7504 H   0  0  0  0  0  0
  -28.1068  -36.2634   24.6302 H   0  0  0  0  0  0
  -27.2296  -37.1469   25.8866 H   0  0  0  0  0  0
  -20.9301  -29.8734   21.6859 H   0  0  0  0  0  0
  -26.0195  -38.2864   24.1389 H   0  0  0  0  0  0
  -27.8097  -17.4000   22.0657 H   0  0  0  0  0  0
  -31.3212  -17.1621   21.1224 H   0  0  0  0  0  0
  -30.7072  -17.0477   19.5052 H   0  0  0  0  0  0
  -28.1819  -22.8167   21.9499 H   0  0  0  0  0  0
  -29.6274  -23.5931   21.3966 H   0  0  0  0  0  0
  -28.1680  -25.4342   18.5011 H   0  0  0  0  0  0
  -29.5831  -25.1135   19.4166 H   0  0  0  0  0  0
  -27.0337  -24.4505   20.8515 H   0  0  0  0  0  0
  -29.9292  -21.9398   19.7832 H   0  0  0  0  0  0
  -28.9662  -15.4983   21.0898 H   0  0  0  0  0  0
  -27.8104  -22.4533   19.3038 H   0  0  0  0  0  0
  1 25  1  0  0  0
  1 30  2  0  0  0
  1 80  1  0  0  0
  2  3  1  0  0  0
  2 25  1  0  0  0
  2 83  1  0  0  0
  2 84  1  0  0  0
  3  4  1  0  0  0
  3 85  1  0  0  0
  3 86  1  0  0  0
  4  5  1  0  0  0
  4 87  1  0  0  0
  4 88  1  0  0  0
  5  6  1  0  0  0
  5 26  1  0  0  0
  5 89  1  0  0  0
  6 25  1  0  0  0
  6 90  1  0  0  0
  6 91  1  0  0  0
  7  8  2  0  0  0
  7 26  1  0  0  0
  7 29  1  0  0  0
  8  9  1  0  0  0
  8 22  1  0  0  0
  9 10  1  0  0  0
  9 27  2  0  0  0
 10 11  2  0  0  0
 10 15  1  0  0  0
 11 12  1  0  0  0
 11 92  1  0  0  0
 12 13  2  0  0  0
 12 93  1  0  0  0
 13 14  1  0  0  0
 13 31  1  0  0  0
 14 15  2  0  0  0
 14 94  1  0  0  0
 15 95  1  0  0  0
 16 17  2  0  0  0
 16 21  1  0  0  0
 16 31  1  0  0  0
 17 18  1  0  0  0
 17 96  1  0  0  0
 18 19  2  0  0  0
 18 97  1  0  0  0
 19 20  1  0  0  0
 19 24  1  0  0  0
 20 21  2  0  0  0
 20 98  1  0  0  0
 21 23  1  0  0  0
 22 28  1  0  0  0
 22 32  2  0  0  0
 26 27  1  0  0  0
 28 99  1  0  0  0
 28100  1  0  0  0
 29101  1  0  0  0
 29102  1  0  0  0
 33 34  1  0  0  0
 33 66  1  0  0  0
 33 70  2  0  0  0
 34 36  1  0  0  0
 34 59  1  0  0  0
 34103  1  0  0  0
 35 44  2  0  0  0
 35 45  1  0  0  0
 35 68  1  0  0  0
 36 56  1  0  0  0
 36104  1  0  0  0
 37 39  1  0  0  0
 37 47  1  0  0  0
 37 66  1  0  0  0
 37105  1  0  0  0
 38 43  2  0  0  0
 38 46  1  0  0  0
 38 47  1  0  0  0
 39 64  1  0  0  0
 39 67  2  0  0  0
 40 52  1  0  0  0
 40 53  2  0  0  0
 40 58  1  0  0  0
 41106  1  0  0  0
 41107  1  0  0  0
 41108  1  0  0  0
 41 48  1  0  0  0
 42 43  1  0  0  0
 42 66  1  0  0  0
 42109  1  0  0  0
 42110  1  0  0  0
 43 44  1  0  0  0
 44111  1  0  0  0
 45 46  2  0  0  0
 45112  1  0  0  0
 46113  1  0  0  0
 47114  1  0  0  0
 47115  1  0  0  0
 48 56  1  0  0  0
 48 65  1  0  0  0
 48116  1  0  0  0
 49 50  1  0  0  0
 49 53  1  0  0  0
 49 64  1  0  0  0
 49117  1  0  0  0
 50 51  1  0  0  0
 50118  1  0  0  0
 50119  1  0  0  0
 51 52  1  0  0  0
 51120  1  0  0  0
 51121  1  0  0  0
 52122  1  0  0  0
 52123  1  0  0  0
 53 54  1  0  0  0
 54 55  2  0  0  0
 54124  1  0  0  0
 55 57  1  0  0  0
 55125  1  0  0  0
 56 69  2  0  0  0
 57 58  2  0  0  0
 57126  1  0  0  0
 58127  1  0  0  0
 59 60  1  0  0  0
 59 61  1  0  0  0
 59 62  1  0  0  0
 60128  1  0  0  0
 60129  1  0  0  0
 60130  1  0  0  0
 61131  1  0  0  0
 61132  1  0  0  0
 61133  1  0  0  0
 62134  1  0  0  0
 62135  1  0  0  0
 62136  1  0  0  0
 63 65  1  0  0  0
 63137  1  0  0  0
 63138  1  0  0  0
 63139  1  0  0  0
 64140  1  0  0  0
 65141  1  0  0  0
 68 76  1  0  0  0
 71 72  2  0  0  0
 71 82  1  0  0  0
 71142  1  0  0  0
 72 74  1  0  0  0
 72 78  1  0  0  0
 73 78  2  0  0  0
 73 79  1  0  0  0
 73 82  1  0  0  0
 74 80  1  0  0  0
 74143  1  0  0  0
 74144  1  0  0  0
 75 77  1  0  0  0
 75 79  1  0  0  0
 75145  1  0  0  0
 75146  1  0  0  0
 76 77  1  0  0  0
 76147  1  0  0  0
 76148  1  0  0  0
 77 81  1  0  0  0
 77149  1  0  0  0
 79150  1  0  0  0
 80151  1  0  0  0
 81152  1  0  0  0
M  ISO  4   1 100  68 101  76 101  80 100
M  END
> <chiral flag>
0

> <version>
0

> <s_m_source_file>
/data/baiqing/PycharmProjects/Reinvent-master-3.2/result/LINK_invent/BTK/process_docking_weight1_custom_product_contain_oxygen_bond_distance_aromatic_linkinvent_7_9_3/rearranged_h_0195.sdf

> <i_m_source_file_index>
94

> <r_mmod_Potential_Energy-OPLS-2005>
-256.595001220703

> <r_mmod_Stretch_Energy-OPLS-2005>
48.977783203125

> <r_mmod_Bend_Energy-OPLS-2005>
123.672454833984

> <r_mmod_Torsional_Energy-OPLS-2005>
239.216522216797

> <r_mmod_Improper_Torsional_Energy-OPLS-2005>
7.51880645751953

> <r_mmod_Van_der_Waal_Energy-OPLS-2005>
133.392349243164

> <r_mmod_Electrostatic_Energy-OPLS-2005>
-595.460571289062

> <r_mmod_Solvation_Energy-OPLS-2005>
-239.425247192383

> <b_mmod_Minimization_Converged-OPLS-2005>
0

> <r_mmod_RMS_Derivative-OPLS-2005>
2.39066386222839

$$$$
94
                    3D
 Structure written by MMmdl.
167175  0  0  1  0            999 V2000
  -30.6768  -14.5367   20.6087 C   0  0  0  0  0  0
  -30.4432  -12.3612   19.4252 C   0  0  0  0  0  0
  -29.5052  -12.5339   18.2105 C   0  0  0  0  0  0
  -28.0265  -12.3778   18.6211 C   0  0  0  0  0  0
  -27.6666  -13.2128   19.8781 C   0  0  2  0  0  0
  -28.7091  -12.9905   20.9977 C   0  0  0  0  0  0
  -25.2594  -13.8161   20.5689 C   0  0  0  0  0  0
  -24.1835  -13.0431   20.9138 C   0  0  0  0  0  0
  -24.6392  -11.6904   20.8695 C   0  0  0  0  0  0
  -23.9042  -10.4299   21.0373 C   0  0  0  0  0  0
  -24.3593   -9.4222   21.9163 C   0  0  0  0  0  0
  -23.6271   -8.2253   22.0740 C   0  0  0  0  0  0
  -22.4250   -8.0277   21.3540 C   0  0  0  0  0  0
  -21.9880   -9.0243   20.4642 C   0  0  0  0  0  0
  -22.7205  -10.2132   20.3035 C   0  0  0  0  0  0
  -21.6854   -6.0720   22.5274 C   0  0  0  0  0  0
  -21.4019   -6.5622   23.8213 C   0  0  0  0  0  0
  -21.3667   -5.6773   24.9168 C   0  0  0  0  0  0
  -21.6049   -4.3034   24.7216 C   0  0  0  0  0  0
  -21.8821   -3.8127   23.4336 C   0  0  0  0  0  0
  -21.9201   -4.6948   22.3405 C   0  0  0  0  0  0
  -22.7860  -13.5242   21.1821 C   0  0  0  0  0  0
  -22.1663   -4.2143   21.0975 F   0  0  0  0  0  0
  -21.5636   -3.4512   25.7726 F   0  0  0  0  0  0
  -30.0447  -13.3293   20.4647 N   0  0  0  0  0  0
  -26.3053  -12.9352   20.3377 N   0  0  0  0  0  0
  -25.9331  -11.6493   20.5714 N   0  0  0  0  0  0
  -22.0486  -12.8263   22.0393 N   0  0  0  0  0  0
  -25.4303  -15.1887   20.4196 N   0  0  0  0  0  0
  -31.7352  -14.7991   20.0274 O   0  0  0  0  0  0
  -21.6624   -6.8858   21.4241 O   0  0  0  0  0  0
  -22.3560  -14.5568   20.6697 O   0  0  0  0  0  0
  -24.6222  -31.8635   23.2080 C   0  0  0  0  0  0
  -25.9097  -32.4795   23.8375 C   0  0  1  0  0  0
  -27.2170  -27.3615   20.0953 C   0  0  0  0  0  0
  -25.5931  -33.8592   24.2297 N   0  0  0  0  0  0
  -23.4108  -30.4934   21.5513 C   0  0  2  0  0  0
  -24.8526  -28.9568   20.1124 C   0  0  0  0  0  0
  -22.7446  -29.4662   22.4964 C   0  0  0  0  0  0
  -18.0282  -28.1391   22.8484 C   0  0  0  0  0  0
  -24.1488  -36.7298   23.2633 C   0  0  0  0  0  0
  -25.9515  -30.8065   21.3731 C   0  0  0  0  0  0
  -26.0233  -29.4393   20.7115 C   0  0  0  0  0  0
  -27.2092  -28.6531   20.6954 C   0  0  0  0  0  0
  -26.0203  -26.9249   19.4775 C   0  0  0  0  0  0
  -24.8511  -27.7025   19.4887 C   0  0  0  0  0  0
  -23.6200  -29.8325   20.1651 C   0  0  0  0  0  0
  -25.4106  -36.3091   24.0334 C   0  0  1  0  0  0
  -20.5877  -28.3686   23.1297 C   0  0  2  0  0  0
  -20.6775  -26.9411   22.5414 C   0  0  0  0  0  0
  -19.5749  -26.6388   21.5215 C   0  0  0  0  0  0
  -18.1925  -26.7938   22.1621 C   0  0  0  0  0  0
  -19.1532  -28.8855   23.2887 C   0  0  0  0  0  0
  -18.9461  -30.1463   23.8893 C   0  0  0  0  0  0
  -17.6459  -30.6595   24.0558 C   0  0  0  0  0  0
  -25.9042  -34.9463   23.5107 C   0  0  0  0  0  0
  -16.5352  -29.9089   23.6338 C   0  0  0  0  0  0
  -16.7269  -28.6514   23.0352 C   0  0  0  0  0  0
  -26.4493  -31.6600   25.0731 C   0  0  0  0  0  0
  -25.3745  -31.3757   26.1477 C   0  0  0  0  0  0
  -27.0321  -30.3019   24.6179 C   0  0  0  0  0  0
  -27.6059  -32.4331   25.7497 C   0  0  0  0  0  0
  -27.5592  -37.1784   24.8450 C   0  0  0  0  0  0
  -21.4169  -29.3051   22.3703 N   0  0  0  0  0  0
  -26.4279  -37.3792   23.9430 N   0  0  0  0  0  0
  -24.6806  -31.0703   22.1004 N   0  0  0  0  0  0
  -23.4201  -28.8176   23.3000 O   0  0  0  0  0  0
  -28.3453  -26.5365   20.1202 O   0  0  0  0  0  0
  -26.5605  -34.8925   22.4671 O   0  0  0  0  0  0
  -23.5404  -32.1413   23.7451 O   0  0  0  0  0  0
  -29.5177  -16.6769   21.2963 C   0  0  0  0  0  0
  -29.1210  -18.7352   21.1303 C   0  0  0  0  0  0
  -32.5496  -21.6203   18.9694 C   0  0  0  0  0  0
  -33.5257  -22.3440   21.1763 C   0  0  0  0  0  0
  -26.7526  -18.6632   22.0485 C   0  0  0  0  0  0
  -31.1713  -21.4125   21.1328 C   0  0  0  0  0  0
  -28.8507  -22.6271   20.7244 C   0  0  0  0  0  0
  -28.0790  -25.0976   20.2306 C   0  0  0  0  0  0
  -32.2342  -22.2214   20.3519 C   0  0  0  0  0  0
  -29.7607  -21.3403   20.4956 C   0  0  2  0  0  0
  -29.2952  -24.1162   20.3931 C   0  0  1  0  0  0
  -30.1236  -17.8609   20.8923 N   0  0  0  0  0  0
  -28.2708  -16.7982   21.7356 N   0  0  0  0  0  0
  -28.0310  -18.1240   21.6225 N   0  0  0  0  0  0
  -30.1005  -15.3816   21.4903 N   0  0  0  0  0  0
  -29.0407  -20.1407   20.9837 N   0  0  0  0  0  0
  -30.0295  -24.6223   21.4936 O   0  0  0  0  0  0
  -31.4838  -12.4913   19.1209 H   0  0  0  0  0  0
  -30.3721  -11.3450   19.8167 H   0  0  0  0  0  0
  -29.7551  -11.8065   17.4368 H   0  0  0  0  0  0
  -29.6598  -13.5164   17.7626 H   0  0  0  0  0  0
  -27.8450  -11.3194   18.8137 H   0  0  0  0  0  0
  -27.3749  -12.6510   17.7897 H   0  0  0  0  0  0
  -27.7083  -14.2630   19.5865 H   0  0  0  0  0  0
  -28.6989  -11.9468   21.3148 H   0  0  0  0  0  0
  -28.4378  -13.5603   21.8868 H   0  0  0  0  0  0
  -25.2741   -9.5709   22.4729 H   0  0  0  0  0  0
  -23.9987   -7.4649   22.7452 H   0  0  0  0  0  0
  -21.0815   -8.8748   19.8956 H   0  0  0  0  0  0
  -22.3640  -10.9652   19.6133 H   0  0  0  0  0  0
  -21.1996   -7.6124   23.9710 H   0  0  0  0  0  0
  -21.1497   -6.0492   25.9075 H   0  0  0  0  0  0
  -22.0595   -2.7585   23.2829 H   0  0  0  0  0  0
  -22.4047  -11.9927   22.4824 H   0  0  0  0  0  0
  -21.1117  -13.1351   22.2570 H   0  0  0  0  0  0
  -24.6714  -15.8446   20.5660 H   0  0  0  0  0  0
  -26.3199  -15.6422   20.2494 H   0  0  0  0  0  0
  -26.7158  -32.5462   23.1120 H   0  0  0  0  0  0
  -25.0106  -33.9734   25.0460 H   0  0  0  0  0  0
  -22.7008  -31.3125   21.4159 H   0  0  0  0  0  0
  -23.3767  -35.9612   23.3259 H   0  0  0  0  0  0
  -24.3591  -36.8953   22.2057 H   0  0  0  0  0  0
  -23.7216  -37.6480   23.6668 H   0  0  0  0  0  0
  -26.0814  -31.5751   20.6094 H   0  0  0  0  0  0
  -26.8326  -30.8479   22.0026 H   0  0  0  0  0  0
  -28.1065  -29.0206   21.1728 H   0  0  0  0  0  0
  -25.9504  -25.9760   18.9703 H   0  0  0  0  0  0
  -23.9551  -27.3266   19.0130 H   0  0  0  0  0  0
  -23.7289  -30.6094   19.4080 H   0  0  0  0  0  0
  -22.7404  -29.2601   19.8660 H   0  0  0  0  0  0
  -25.1278  -36.1934   25.0824 H   0  0  0  0  0  0
  -20.9975  -28.3262   24.1415 H   0  0  0  0  0  0
  -20.5697  -26.2284   23.3607 H   0  0  0  0  0  0
  -21.6640  -26.7454   22.1196 H   0  0  0  0  0  0
  -19.6904  -25.6297   21.1244 H   0  0  0  0  0  0
  -19.6697  -27.3197   20.6746 H   0  0  0  0  0  0
  -17.4196  -26.6691   21.4020 H   0  0  0  0  0  0
  -18.0321  -26.0087   22.9026 H   0  0  0  0  0  0
  -19.7938  -30.7283   24.2253 H   0  0  0  0  0  0
  -17.5020  -31.6276   24.5161 H   0  0  0  0  0  0
  -15.5350  -30.2989   23.7681 H   0  0  0  0  0  0
  -15.8669  -28.0835   22.7063 H   0  0  0  0  0  0
  -24.5881  -30.7142   25.7826 H   0  0  0  0  0  0
  -24.8987  -32.2941   26.4927 H   0  0  0  0  0  0
  -25.8085  -30.8914   27.0233 H   0  0  0  0  0  0
  -26.2885  -29.6785   24.1205 H   0  0  0  0  0  0
  -27.4011  -29.7264   25.4678 H   0  0  0  0  0  0
  -27.8762  -30.4288   23.9397 H   0  0  0  0  0  0
  -27.2658  -33.3620   26.2086 H   0  0  0  0  0  0
  -28.3868  -32.6910   25.0330 H   0  0  0  0  0  0
  -28.0731  -31.8452   26.5408 H   0  0  0  0  0  0
  -28.2554  -38.0139   24.7581 H   0  0  0  0  0  0
  -28.1142  -36.2673   24.6155 H   0  0  0  0  0  0
  -27.2325  -37.1297   25.8853 H   0  0  0  0  0  0
  -20.9331  -29.8772   21.6924 H   0  0  0  0  0  0
  -26.0161  -38.2852   24.1496 H   0  0  0  0  0  0
  -33.2960  -22.2186   18.4457 H   0  0  0  0  0  0
  -31.6722  -21.5850   18.3244 H   0  0  0  0  0  0
  -32.9401  -20.6055   19.0541 H   0  0  0  0  0  0
  -34.2703  -22.9547   20.6644 H   0  0  0  0  0  0
  -33.9703  -21.3652   21.3629 H   0  0  0  0  0  0
  -33.3340  -22.8126   22.1428 H   0  0  0  0  0  0
  -26.9098  -19.3682   22.8655 H   0  0  0  0  0  0
  -26.0943  -17.8650   22.3951 H   0  0  0  0  0  0
  -26.2734  -19.1768   21.2154 H   0  0  0  0  0  0
  -31.0779  -21.8102   22.1448 H   0  0  0  0  0  0
  -31.5680  -20.4034   21.2530 H   0  0  0  0  0  0
  -28.4976  -22.6219   21.7570 H   0  0  0  0  0  0
  -27.9488  -22.4484   20.1366 H   0  0  0  0  0  0
  -27.3818  -24.9402   21.0565 H   0  0  0  0  0  0
  -27.5752  -24.7583   19.3259 H   0  0  0  0  0  0
  -31.8660  -23.2320   20.1958 H   0  0  0  0  0  0
  -29.8675  -21.1940   19.4218 H   0  0  0  0  0  0
  -29.8983  -24.1491   19.4842 H   0  0  0  0  0  0
  -29.5125  -14.8385   22.1009 H   0  0  0  0  0  0
  -28.1218  -20.4236   21.3068 H   0  0  0  0  0  0
  -30.0889  -25.5656   21.3656 H   0  0  0  0  0  0
  1 25  1  0  0  0
  1 30  2  0  0  0
  1 85  1  0  0  0
  2  3  1  0  0  0
  2 25  1  0  0  0
  2 88  1  0  0  0
  2 89  1  0  0  0
  3  4  1  0  0  0
  3 90  1  0  0  0
  3 91  1  0  0  0
  4  5  1  0  0  0
  4 92  1  0  0  0
  4 93  1  0  0  0
  5  6  1  0  0  0
  5 26  1  0  0  0
  5 94  1  0  0  0
  6 25  1  0  0  0
  6 95  1  0  0  0
  6 96  1  0  0  0
  7  8  2  0  0  0
  7 26  1  0  0  0
  7 29  1  0  0  0
  8  9  1  0  0  0
  8 22  1  0  0  0
  9 10  1  0  0  0
  9 27  2  0  0  0
 10 11  2  0  0  0
 10 15  1  0  0  0
 11 12  1  0  0  0
 11 97  1  0  0  0
 12 13  2  0  0  0
 12 98  1  0  0  0
 13 14  1  0  0  0
 13 31  1  0  0  0
 14 15  2  0  0  0
 14 99  1  0  0  0
 15100  1  0  0  0
 16 17  2  0  0  0
 16 21  1  0  0  0
 16 31  1  0  0  0
 17 18  1  0  0  0
 17101  1  0  0  0
 18 19  2  0  0  0
 18102  1  0  0  0
 19 20  1  0  0  0
 19 24  1  0  0  0
 20 21  2  0  0  0
 20103  1  0  0  0
 21 23  1  0  0  0
 22 28  1  0  0  0
 22 32  2  0  0  0
 26 27  1  0  0  0
 28104  1  0  0  0
 28105  1  0  0  0
 29106  1  0  0  0
 29107  1  0  0  0
 33 34  1  0  0  0
 33 66  1  0  0  0
 33 70  2  0  0  0
 34 36  1  0  0  0
 34 59  1  0  0  0
 34108  1  0  0  0
 35 44  2  0  0  0
 35 45  1  0  0  0
 35 68  1  0  0  0
 36 56  1  0  0  0
 36109  1  0  0  0
 37 39  1  0  0  0
 37 47  1  0  0  0
 37 66  1  0  0  0
 37110  1  0  0  0
 38 43  2  0  0  0
 38 46  1  0  0  0
 38 47  1  0  0  0
 39 64  1  0  0  0
 39 67  2  0  0  0
 40 52  1  0  0  0
 40 53  2  0  0  0
 40 58  1  0  0  0
 41111  1  0  0  0
 41112  1  0  0  0
 41113  1  0  0  0
 41 48  1  0  0  0
 42 43  1  0  0  0
 42 66  1  0  0  0
 42114  1  0  0  0
 42115  1  0  0  0
 43 44  1  0  0  0
 44116  1  0  0  0
 45 46  2  0  0  0
 45117  1  0  0  0
 46118  1  0  0  0
 47119  1  0  0  0
 47120  1  0  0  0
 48 56  1  0  0  0
 48 65  1  0  0  0
 48121  1  0  0  0
 49 50  1  0  0  0
 49 53  1  0  0  0
 49 64  1  0  0  0
 49122  1  0  0  0
 50 51  1  0  0  0
 50123  1  0  0  0
 50124  1  0  0  0
 51 52  1  0  0  0
 51125  1  0  0  0
 51126  1  0  0  0
 52127  1  0  0  0
 52128  1  0  0  0
 53 54  1  0  0  0
 54 55  2  0  0  0
 54129  1  0  0  0
 55 57  1  0  0  0
 55130  1  0  0  0
 56 69  2  0  0  0
 57 58  2  0  0  0
 57131  1  0  0  0
 58132  1  0  0  0
 59 60  1  0  0  0
 59 61  1  0  0  0
 59 62  1  0  0  0
 60133  1  0  0  0
 60134  1  0  0  0
 60135  1  0  0  0
 61136  1  0  0  0
 61137  1  0  0  0
 61138  1  0  0  0
 62139  1  0  0  0
 62140  1  0  0  0
 62141  1  0  0  0
 63 65  1  0  0  0
 63142  1  0  0  0
 63143  1  0  0  0
 63144  1  0  0  0
 64145  1  0  0  0
 65146  1  0  0  0
 68 78  1  0  0  0
 71 82  1  0  0  0
 71 83  2  0  0  0
 71 85  1  0  0  0
 72 82  2  0  0  0
 72 84  1  0  0  0
 72 86  1  0  0  0
 73147  1  0  0  0
 73148  1  0  0  0
 73149  1  0  0  0
 73 79  1  0  0  0
 74 79  1  0  0  0
 74150  1  0  0  0
 74151  1  0  0  0
 74152  1  0  0  0
 75 84  1  0  0  0
 75153  1  0  0  0
 75154  1  0  0  0
 75155  1  0  0  0
 76 79  1  0  0  0
 76156  1  0  0  0
 76157  1  0  0  0
 76 80  1  0  0  0
 77 80  1  0  0  0
 77 81  1  0  0  0
 77158  1  0  0  0
 77159  1  0  0  0
 78 81  1  0  0  0
 78160  1  0  0  0
 78161  1  0  0  0
 79162  1  0  0  0
 80 86  1  0  0  0
 80163  1  0  0  0
 81 87  1  0  0  0
 81164  1  0  0  0
 83 84  1  0  0  0
 85165  1  0  0  0
 86166  1  0  0  0
 87167  1  0  0  0
M  ISO  4   1 100  68 101  78 101  85 100
M  END
> <chiral flag>
0

> <version>
0

> <s_m_source_file>
/data/baiqing/PycharmProjects/Reinvent-master-3.2/result/LINK_invent/BTK/process_docking_weight1_custom_product_contain_oxygen_bond_distance_aromatic_linkinvent_7_9_3/rearranged_h_0195.sdf

> <i_m_source_file_index>
95

> <r_mmod_Potential_Energy-OPLS-2005>
-32.8638648986816

> <r_mmod_Stretch_Energy-OPLS-2005>
59.4788360595703

> <r_mmod_Bend_Energy-OPLS-2005>
168.982437133789

> <r_mmod_Torsional_Energy-OPLS-2005>
251.559600830078

> <r_mmod_Improper_Torsional_Energy-OPLS-2005>
7.358482837677

> <r_mmod_Van_der_Waal_Energy-OPLS-2005>
118.233154296875

> <r_mmod_Electrostatic_Energy-OPLS-2005>
-421.922546386719

> <r_mmod_Solvation_Energy-OPLS-2005>
-243.438568115234

> <b_mmod_Minimization_Converged-OPLS-2005>
0

> <r_mmod_RMS_Derivative-OPLS-2005>
1.96159625053406

$$$$
95
                    3D
 Structure written by MMmdl.
156165  0  0  1  0            999 V2000
  -30.7072  -14.4699   20.4823 C   0  0  0  0  0  0
  -30.3955  -12.2649   19.4494 C   0  0  0  0  0  0
  -29.4897  -12.4780   18.2174 C   0  0  0  0  0  0
  -28.0084  -12.3497   18.6217 C   0  0  0  0  0  0
  -27.6476  -13.2105   19.8608 C   0  0  2  0  0  0
  -28.6896  -13.0420   20.9886 C   0  0  0  0  0  0
  -25.2531  -13.8163   20.5678 C   0  0  0  0  0  0
  -24.1771  -13.0428   20.9169 C   0  0  0  0  0  0
  -24.6328  -11.6902   20.8727 C   0  0  0  0  0  0
  -23.8998  -10.4273   21.0383 C   0  0  0  0  0  0
  -24.3558   -9.4208   21.9168 C   0  0  0  0  0  0
  -23.6249   -8.2230   22.0745 C   0  0  0  0  0  0
  -22.4237   -8.0249   21.3525 C   0  0  0  0  0  0
  -21.9866   -9.0220   20.4626 C   0  0  0  0  0  0
  -22.7175  -10.2110   20.3036 C   0  0  0  0  0  0
  -21.6860   -6.0686   22.5264 C   0  0  0  0  0  0
  -21.4022   -6.5612   23.8194 C   0  0  0  0  0  0
  -21.3670   -5.6781   24.9164 C   0  0  0  0  0  0
  -21.6064   -4.3044   24.7237 C   0  0  0  0  0  0
  -21.8826   -3.8108   23.4370 C   0  0  0  0  0  0
  -21.9192   -4.6906   22.3402 C   0  0  0  0  0  0
  -22.7811  -13.5221   21.1864 C   0  0  0  0  0  0
  -22.1653   -4.2082   21.0985 F   0  0  0  0  0  0
  -21.5641   -3.4547   25.7765 F   0  0  0  0  0  0
  -30.0249  -13.2929   20.4313 N   0  0  0  0  0  0
  -26.2936  -12.9330   20.3325 N   0  0  0  0  0  0
  -25.9257  -11.6490   20.5754 N   0  0  0  0  0  0
  -22.0486  -12.8149   22.0418 N   0  0  0  0  0  0
  -25.4334  -15.1854   20.4117 N   0  0  0  0  0  0
  -31.8945  -14.5363   20.1604 O   0  0  0  0  0  0
  -21.6647   -6.8815   21.4213 O   0  0  0  0  0  0
  -22.3484  -14.5529   20.6731 O   0  0  0  0  0  0
  -24.6197  -31.8631   23.2100 C   0  0  0  0  0  0
  -25.9071  -32.4796   23.8424 C   0  0  1  0  0  0
  -27.2378  -27.4303   20.1067 C   0  0  0  0  0  0
  -25.5892  -33.8604   24.2331 N   0  0  0  0  0  0
  -23.4099  -30.4905   21.5448 C   0  0  2  0  0  0
  -24.8586  -28.9526   20.1134 C   0  0  0  0  0  0
  -22.7436  -29.4687   22.4958 C   0  0  0  0  0  0
  -18.0282  -28.1407   22.8472 C   0  0  0  0  0  0
  -24.1481  -36.7322   23.2630 C   0  0  0  0  0  0
  -25.9378  -30.8285   21.3653 C   0  0  0  0  0  0
  -26.0170  -29.4627   20.7145 C   0  0  0  0  0  0
  -27.2140  -28.7086   20.7078 C   0  0  0  0  0  0
  -26.0643  -26.9314   19.5041 C   0  0  0  0  0  0
  -24.8738  -27.6846   19.5073 C   0  0  0  0  0  0
  -23.6204  -29.8200   20.1609 C   0  0  0  0  0  0
  -25.4103  -36.3119   24.0325 C   0  0  1  0  0  0
  -20.5876  -28.3737   23.1269 C   0  0  2  0  0  0
  -20.6808  -26.9467   22.5409 C   0  0  0  0  0  0
  -19.5790  -26.6411   21.5219 C   0  0  0  0  0  0
  -18.1938  -26.7946   22.1590 C   0  0  0  0  0  0
  -19.1531  -28.8877   23.2859 C   0  0  0  0  0  0
  -18.9470  -30.1457   23.8928 C   0  0  0  0  0  0
  -17.6489  -30.6615   24.0595 C   0  0  0  0  0  0
  -25.9031  -34.9472   23.5134 C   0  0  0  0  0  0
  -16.5376  -29.9125   23.6336 C   0  0  0  0  0  0
  -16.7277  -28.6535   23.0372 C   0  0  0  0  0  0
  -26.4517  -31.6607   25.0767 C   0  0  0  0  0  0
  -25.3774  -31.3634   26.1504 C   0  0  0  0  0  0
  -27.0394  -30.3077   24.6141 C   0  0  0  0  0  0
  -27.6114  -32.4327   25.7500 C   0  0  0  0  0  0
  -27.5582  -37.1800   24.8437 C   0  0  0  0  0  0
  -21.4170  -29.3067   22.3649 N   0  0  0  0  0  0
  -26.4288  -37.3800   23.9389 N   0  0  0  0  0  0
  -24.6745  -31.0749   22.0982 N   0  0  0  0  0  0
  -23.4192  -28.8255   23.3038 O   0  0  0  0  0  0
  -28.3795  -26.6633   20.0975 O   0  0  0  0  0  0
  -26.5633  -34.8938   22.4722 O   0  0  0  0  0  0
  -23.5373  -32.1388   23.7460 O   0  0  0  0  0  0
  -29.2290  -19.8017   18.2905 C   0  0  0  0  0  0
  -29.4966  -18.3765   18.0900 C   0  0  0  0  0  0
  -29.4845  -17.6859   19.2974 C   0  0  0  0  0  0
  -29.1656  -20.9221   17.4179 C   0  0  0  0  0  0
  -28.9926  -20.1318   19.6625 C   0  0  0  0  0  0
  -28.6617  -22.3026   19.1944 C   0  0  0  0  0  0
  -29.8333  -16.2730   19.5131 C   0  0  0  0  0  0
  -29.7743  -17.7824   16.7258 C   0  0  0  0  0  0
  -29.0893  -24.3149   20.5721 C   0  0  0  0  0  0
  -28.3696  -25.5965   21.0632 C   0  0  0  0  0  0
  -28.8597  -22.1433   17.8930 N   0  0  0  0  0  0
  -28.7160  -21.3835   20.1574 N   0  0  0  0  0  0
  -29.9448  -15.6284   20.6226 N   0  0  0  0  0  0
  -29.4012  -20.8626   16.0473 N   0  0  0  0  0  0
  -28.3343  -23.5930   19.5488 N   0  0  0  0  0  0
  -29.0965  -18.6925   20.6753 S   0  0  0  0  0  0
  -31.4505  -12.3002   19.1739 H   0  0  0  0  0  0
  -30.2313  -11.2722   19.8697 H   0  0  0  0  0  0
  -29.7250  -11.7517   17.4396 H   0  0  0  0  0  0
  -29.6713  -13.4631   17.7875 H   0  0  0  0  0  0
  -27.8179  -11.2965   18.8375 H   0  0  0  0  0  0
  -27.3587  -12.6026   17.7815 H   0  0  0  0  0  0
  -27.6747  -14.2487   19.5356 H   0  0  0  0  0  0
  -28.6478  -12.0326   21.3975 H   0  0  0  0  0  0
  -28.4780  -13.7189   21.8191 H   0  0  0  0  0  0
  -25.2692   -9.5716   22.4754 H   0  0  0  0  0  0
  -23.9978   -7.4636   22.7468 H   0  0  0  0  0  0
  -21.0812   -8.8701   19.8930 H   0  0  0  0  0  0
  -22.3595  -10.9632   19.6150 H   0  0  0  0  0  0
  -21.2022   -7.6128   23.9664 H   0  0  0  0  0  0
  -21.1493   -6.0530   25.9062 H   0  0  0  0  0  0
  -22.0593   -2.7565   23.2907 H   0  0  0  0  0  0
  -22.4133  -11.9788   22.4729 H   0  0  0  0  0  0
  -21.1112  -13.1131   22.2691 H   0  0  0  0  0  0
  -24.6863  -15.8605   20.5331 H   0  0  0  0  0  0
  -26.3129  -15.6067   20.1430 H   0  0  0  0  0  0
  -26.7125  -32.5528   23.1186 H   0  0  0  0  0  0
  -25.0068  -33.9754   25.0495 H   0  0  0  0  0  0
  -22.7044  -31.3111   21.4024 H   0  0  0  0  0  0
  -23.3765  -35.9624   23.3275 H   0  0  0  0  0  0
  -24.3554  -36.8986   22.2042 H   0  0  0  0  0  0
  -23.7229  -37.6498   23.6715 H   0  0  0  0  0  0
  -26.0455  -31.5912   20.5947 H   0  0  0  0  0  0
  -26.8249  -30.8855   21.9808 H   0  0  0  0  0  0
  -28.1148  -29.0877   21.1735 H   0  0  0  0  0  0
  -26.0704  -25.9525   19.0447 H   0  0  0  0  0  0
  -23.9792  -27.2883   19.0451 H   0  0  0  0  0  0
  -23.7274  -30.5917   19.3971 H   0  0  0  0  0  0
  -22.7458  -29.2323   19.8721 H   0  0  0  0  0  0
  -25.1286  -36.1982   25.0813 H   0  0  0  0  0  0
  -20.9957  -28.3378   24.1396 H   0  0  0  0  0  0
  -20.5769  -26.2364   23.3623 H   0  0  0  0  0  0
  -21.6692  -26.7567   22.1189 H   0  0  0  0  0  0
  -19.7027  -25.6326   21.1250 H   0  0  0  0  0  0
  -19.6763  -27.3237   20.6767 H   0  0  0  0  0  0
  -17.4244  -26.6712   21.3954 H   0  0  0  0  0  0
  -18.0317  -26.0089   22.8978 H   0  0  0  0  0  0
  -19.7961  -30.7202   24.2377 H   0  0  0  0  0  0
  -17.5072  -31.6310   24.5171 H   0  0  0  0  0  0
  -15.5382  -30.3074   23.7650 H   0  0  0  0  0  0
  -15.8650  -28.0866   22.7119 H   0  0  0  0  0  0
  -24.6048  -30.6890   25.7802 H   0  0  0  0  0  0
  -24.8849  -32.2719   26.4985 H   0  0  0  0  0  0
  -25.8148  -30.8818   27.0258 H   0  0  0  0  0  0
  -26.2943  -29.6727   24.1345 H   0  0  0  0  0  0
  -27.4349  -29.7446   25.4596 H   0  0  0  0  0  0
  -27.8696  -30.4433   23.9199 H   0  0  0  0  0  0
  -27.2834  -33.3664   26.2095 H   0  0  0  0  0  0
  -28.3930  -32.6799   25.0294 H   0  0  0  0  0  0
  -28.0805  -31.8422   26.5381 H   0  0  0  0  0  0
  -28.2584  -38.0124   24.7587 H   0  0  0  0  0  0
  -28.1125  -36.2679   24.6199 H   0  0  0  0  0  0
  -27.2289  -37.1342   25.8830 H   0  0  0  0  0  0
  -20.9386  -29.8682   21.6740 H   0  0  0  0  0  0
  -26.0200  -38.2856   24.1493 H   0  0  0  0  0  0
  -30.0662  -15.7543   18.5773 H   0  0  0  0  0  0
  -30.4980  -18.3783   16.1707 H   0  0  0  0  0  0
  -28.8658  -17.7388   16.1249 H   0  0  0  0  0  0
  -30.1914  -16.7771   16.7463 H   0  0  0  0  0  0
  -29.2559  -23.6522   21.4235 H   0  0  0  0  0  0
  -30.0797  -24.5596   20.1842 H   0  0  0  0  0  0
  -28.8895  -25.9747   21.9449 H   0  0  0  0  0  0
  -27.3654  -25.3347   21.4023 H   0  0  0  0  0  0
  -29.9071  -20.0632   15.6868 H   0  0  0  0  0  0
  -29.5883  -21.7234   15.5474 H   0  0  0  0  0  0
  -28.1780  -24.1759   18.7345 H   0  0  0  0  0  0
  1 25  1  0  0  0
  1 30  2  0  0  0
  1 83  1  0  0  0
  2  3  1  0  0  0
  2 25  1  0  0  0
  2 87  1  0  0  0
  2 88  1  0  0  0
  3  4  1  0  0  0
  3 89  1  0  0  0
  3 90  1  0  0  0
  4  5  1  0  0  0
  4 91  1  0  0  0
  4 92  1  0  0  0
  5  6  1  0  0  0
  5 26  1  0  0  0
  5 93  1  0  0  0
  6 25  1  0  0  0
  6 94  1  0  0  0
  6 95  1  0  0  0
  7  8  2  0  0  0
  7 26  1  0  0  0
  7 29  1  0  0  0
  8  9  1  0  0  0
  8 22  1  0  0  0
  9 10  1  0  0  0
  9 27  2  0  0  0
 10 11  2  0  0  0
 10 15  1  0  0  0
 11 12  1  0  0  0
 11 96  1  0  0  0
 12 13  2  0  0  0
 12 97  1  0  0  0
 13 14  1  0  0  0
 13 31  1  0  0  0
 14 15  2  0  0  0
 14 98  1  0  0  0
 15 99  1  0  0  0
 16 17  2  0  0  0
 16 21  1  0  0  0
 16 31  1  0  0  0
 17 18  1  0  0  0
 17100  1  0  0  0
 18 19  2  0  0  0
 18101  1  0  0  0
 19 20  1  0  0  0
 19 24  1  0  0  0
 20 21  2  0  0  0
 20102  1  0  0  0
 21 23  1  0  0  0
 22 28  1  0  0  0
 22 32  2  0  0  0
 26 27  1  0  0  0
 28103  1  0  0  0
 28104  1  0  0  0
 29105  1  0  0  0
 29106  1  0  0  0
 33 34  1  0  0  0
 33 66  1  0  0  0
 33 70  2  0  0  0
 34 36  1  0  0  0
 34 59  1  0  0  0
 34107  1  0  0  0
 35 44  2  0  0  0
 35 45  1  0  0  0
 35 68  1  0  0  0
 36 56  1  0  0  0
 36108  1  0  0  0
 37 39  1  0  0  0
 37 47  1  0  0  0
 37 66  1  0  0  0
 37109  1  0  0  0
 38 43  2  0  0  0
 38 46  1  0  0  0
 38 47  1  0  0  0
 39 64  1  0  0  0
 39 67  2  0  0  0
 40 52  1  0  0  0
 40 53  2  0  0  0
 40 58  1  0  0  0
 41110  1  0  0  0
 41111  1  0  0  0
 41112  1  0  0  0
 41 48  1  0  0  0
 42 43  1  0  0  0
 42 66  1  0  0  0
 42113  1  0  0  0
 42114  1  0  0  0
 43 44  1  0  0  0
 44115  1  0  0  0
 45 46  2  0  0  0
 45116  1  0  0  0
 46117  1  0  0  0
 47118  1  0  0  0
 47119  1  0  0  0
 48 56  1  0  0  0
 48 65  1  0  0  0
 48120  1  0  0  0
 49 50  1  0  0  0
 49 53  1  0  0  0
 49 64  1  0  0  0
 49121  1  0  0  0
 50 51  1  0  0  0
 50122  1  0  0  0
 50123  1  0  0  0
 51 52  1  0  0  0
 51124  1  0  0  0
 51125  1  0  0  0
 52126  1  0  0  0
 52127  1  0  0  0
 53 54  1  0  0  0
 54 55  2  0  0  0
 54128  1  0  0  0
 55 57  1  0  0  0
 55129  1  0  0  0
 56 69  2  0  0  0
 57 58  2  0  0  0
 57130  1  0  0  0
 58131  1  0  0  0
 59 60  1  0  0  0
 59 61  1  0  0  0
 59 62  1  0  0  0
 60132  1  0  0  0
 60133  1  0  0  0
 60134  1  0  0  0
 61135  1  0  0  0
 61136  1  0  0  0
 61137  1  0  0  0
 62138  1  0  0  0
 62139  1  0  0  0
 62140  1  0  0  0
 63 65  1  0  0  0
 63141  1  0  0  0
 63142  1  0  0  0
 63143  1  0  0  0
 64144  1  0  0  0
 65145  1  0  0  0
 68 80  1  0  0  0
 71 72  1  0  0  0
 71 74  2  0  0  0
 71 75  1  0  0  0
 72 73  2  0  0  0
 72 78  1  0  0  0
 73 77  1  0  0  0
 73 86  1  0  0  0
 74 81  1  0  0  0
 74 84  1  0  0  0
 75 82  2  0  0  0
 75 86  1  0  0  0
 76 81  2  0  0  0
 76 82  1  0  0  0
 76 85  1  0  0  0
 77 83  2  0  0  0
 77146  1  0  0  0
 78147  1  0  0  0
 78148  1  0  0  0
 78149  1  0  0  0
 79 80  1  0  0  0
 79 85  1  0  0  0
 79150  1  0  0  0
 79151  1  0  0  0
 80152  1  0  0  0
 80153  1  0  0  0
 84154  1  0  0  0
 84155  1  0  0  0
 85156  1  0  0  0
M  ISO  4   1 100  68 101  80 101  83 100
M  END
> <chiral flag>
0

> <version>
0

> <s_m_source_file>
/data/baiqing/PycharmProjects/Reinvent-master-3.2/result/LINK_invent/BTK/process_docking_weight1_custom_product_contain_oxygen_bond_distance_aromatic_linkinvent_7_9_3/rearranged_h_0195.sdf

> <i_m_source_file_index>
96

> <r_mmod_Potential_Energy-OPLS-2005>
-341.021270751953

> <r_mmod_Stretch_Energy-OPLS-2005>
38.8087844848633

> <r_mmod_Bend_Energy-OPLS-2005>
108.519538879395

> <r_mmod_Torsional_Energy-OPLS-2005>
229.480407714844

> <r_mmod_Improper_Torsional_Energy-OPLS-2005>
14.4588241577148

> <r_mmod_Van_der_Waal_Energy-OPLS-2005>
160.469985961914

> <r_mmod_Electrostatic_Energy-OPLS-2005>
-694.090698242188

> <r_mmod_Solvation_Energy-OPLS-2005>
-219.205047607422

> <b_mmod_Minimization_Converged-OPLS-2005>
0

> <r_mmod_RMS_Derivative-OPLS-2005>
4.55331659317017

$$$$
96
                    3D
 Structure written by MMmdl.
152160  0  0  1  0            999 V2000
  -30.6351  -14.5164   20.5335 C   0  0  0  0  0  0
  -30.4525  -12.3165   19.4299 C   0  0  0  0  0  0
  -29.5186  -12.4817   18.2104 C   0  0  0  0  0  0
  -28.0342  -12.3488   18.6209 C   0  0  0  0  0  0
  -27.6695  -13.1907   19.8718 C   0  0  2  0  0  0
  -28.7100  -12.9566   20.9907 C   0  0  0  0  0  0
  -25.2678  -13.8113   20.5637 C   0  0  0  0  0  0
  -24.1868  -13.0439   20.9156 C   0  0  0  0  0  0
  -24.6397  -11.6896   20.8702 C   0  0  0  0  0  0
  -23.9077  -10.4296   21.0406 C   0  0  0  0  0  0
  -24.3633   -9.4208   21.9185 C   0  0  0  0  0  0
  -23.6297   -8.2245   22.0766 C   0  0  0  0  0  0
  -22.4254   -8.0292   21.3573 C   0  0  0  0  0  0
  -21.9901   -9.0265   20.4670 C   0  0  0  0  0  0
  -22.7243  -10.2142   20.3059 C   0  0  0  0  0  0
  -21.6854   -6.0728   22.5301 C   0  0  0  0  0  0
  -21.4013   -6.5642   23.8218 C   0  0  0  0  0  0
  -21.3655   -5.6807   24.9187 C   0  0  0  0  0  0
  -21.6055   -4.3065   24.7255 C   0  0  0  0  0  0
  -21.8817   -3.8154   23.4356 C   0  0  0  0  0  0
  -21.9194   -4.6959   22.3405 C   0  0  0  0  0  0
  -22.7900  -13.5282   21.1826 C   0  0  0  0  0  0
  -22.1657   -4.2175   21.0965 F   0  0  0  0  0  0
  -21.5635   -3.4515   25.7740 F   0  0  0  0  0  0
  -30.0374  -13.2942   20.4441 N   0  0  0  0  0  0
  -26.3092  -12.9256   20.3346 N   0  0  0  0  0  0
  -25.9325  -11.6442   20.5740 N   0  0  0  0  0  0
  -22.0569  -12.8323   22.0433 N   0  0  0  0  0  0
  -25.4438  -15.1836   20.4032 N   0  0  0  0  0  0
  -31.7744  -14.7391   20.1167 O   0  0  0  0  0  0
  -21.6620   -6.8874   21.4264 O   0  0  0  0  0  0
  -22.3602  -14.5580   20.6681 O   0  0  0  0  0  0
  -24.6162  -31.8627   23.2042 C   0  0  0  0  0  0
  -25.9056  -32.4800   23.8341 C   0  0  1  0  0  0
  -27.2595  -27.4123   20.0882 C   0  0  0  0  0  0
  -25.5915  -33.8615   24.2300 N   0  0  0  0  0  0
  -23.4042  -30.4854   21.5399 C   0  0  2  0  0  0
  -24.8588  -28.9421   20.1090 C   0  0  0  0  0  0
  -22.7419  -29.4624   22.4903 C   0  0  0  0  0  0
  -18.0281  -28.1419   22.8498 C   0  0  0  0  0  0
  -24.1494  -36.7321   23.2622 C   0  0  0  0  0  0
  -25.9328  -30.8204   21.3542 C   0  0  0  0  0  0
  -26.0134  -29.4473   20.7160 C   0  0  0  0  0  0
  -27.2087  -28.6848   20.7121 C   0  0  0  0  0  0
  -26.0816  -26.9209   19.4816 C   0  0  0  0  0  0
  -24.8906  -27.6799   19.4912 C   0  0  0  0  0  0
  -23.6171  -29.8118   20.1547 C   0  0  0  0  0  0
  -25.4099  -36.3088   24.0313 C   0  0  1  0  0  0
  -20.5890  -28.3675   23.1314 C   0  0  2  0  0  0
  -20.6776  -26.9400   22.5414 C   0  0  0  0  0  0
  -19.5726  -26.6397   21.5244 C   0  0  0  0  0  0
  -18.1912  -26.7965   22.1653 C   0  0  0  0  0  0
  -19.1532  -28.8863   23.2922 C   0  0  0  0  0  0
  -18.9477  -30.1484   23.8901 C   0  0  0  0  0  0
  -17.6467  -30.6614   24.0591 C   0  0  0  0  0  0
  -25.9033  -34.9451   23.5094 C   0  0  0  0  0  0
  -16.5356  -29.9102   23.6346 C   0  0  0  0  0  0
  -16.7272  -28.6549   23.0313 C   0  0  0  0  0  0
  -26.4477  -31.6576   25.0694 C   0  0  0  0  0  0
  -25.3725  -31.3728   26.1441 C   0  0  0  0  0  0
  -27.0254  -30.2988   24.6060 C   0  0  0  0  0  0
  -27.6024  -32.4297   25.7504 C   0  0  0  0  0  0
  -27.5569  -37.1805   24.8467 C   0  0  0  0  0  0
  -21.4160  -29.3043   22.3711 N   0  0  0  0  0  0
  -26.4279  -37.3781   23.9430 N   0  0  0  0  0  0
  -24.6687  -31.0710   22.0931 N   0  0  0  0  0  0
  -23.4178  -28.8146   23.2937 O   0  0  0  0  0  0
  -28.4563  -26.7119   20.1105 O   0  0  0  0  0  0
  -26.5589  -34.8902   22.4649 O   0  0  0  0  0  0
  -23.5341  -32.1347   23.7449 O   0  0  0  0  0  0
  -28.5939  -18.8220   20.3577 C   0  0  0  0  0  0
  -29.8748  -19.3424   20.3168 C   0  0  0  0  0  0
  -29.7465  -16.8748   20.6771 C   0  0  0  0  0  0
  -28.5368  -24.1889   20.0429 C   0  0  0  0  0  0
  -29.3980  -21.7945   20.5716 C   0  0  0  0  0  0
  -28.7030  -25.5474   19.2943 C   0  0  0  0  0  0
  -29.6067  -23.0912   19.7408 C   0  0  1  0  0  0
  -28.5327  -17.4352   20.5736 N   0  0  0  0  0  0
  -30.2728  -20.6866   20.1500 N   0  0  0  0  0  0
  -29.7981  -15.4813   20.9724 N   0  0  0  0  0  0
  -29.5880  -22.7208   18.3701 O   0  0  0  0  0  0
  -31.0658  -18.0465   20.4780 S   0  0  0  0  0  0
  -31.4975  -12.4513   19.1395 H   0  0  0  0  0  0
  -30.3863  -11.3080   19.8425 H   0  0  0  0  0  0
  -29.7621  -11.7224   17.4653 H   0  0  0  0  0  0
  -29.6900  -13.4503   17.7446 H   0  0  0  0  0  0
  -27.8483  -11.2941   18.8221 H   0  0  0  0  0  0
  -27.3821  -12.6065   17.7839 H   0  0  0  0  0  0
  -27.7109  -14.2399   19.5744 H   0  0  0  0  0  0
  -28.7024  -11.9074   21.2935 H   0  0  0  0  0  0
  -28.4616  -13.5227   21.8940 H   0  0  0  0  0  0
  -25.2766   -9.5679   22.4779 H   0  0  0  0  0  0
  -23.9992   -7.4622   22.7478 H   0  0  0  0  0  0
  -21.0839   -8.8760   19.8979 H   0  0  0  0  0  0
  -22.3663  -10.9672   19.6159 H   0  0  0  0  0  0
  -21.1977   -7.6146   23.9738 H   0  0  0  0  0  0
  -21.1487   -6.0522   25.9101 H   0  0  0  0  0  0
  -22.0601   -2.7634   23.2827 H   0  0  0  0  0  0
  -22.4060  -11.9907   22.4748 H   0  0  0  0  0  0
  -21.1220  -13.1422   22.2611 H   0  0  0  0  0  0
  -24.6852  -15.8422   20.5507 H   0  0  0  0  0  0
  -26.2991  -15.6282   20.0826 H   0  0  0  0  0  0
  -26.7129  -32.5490   23.1099 H   0  0  0  0  0  0
  -25.0233  -33.9819   25.0552 H   0  0  0  0  0  0
  -22.6902  -31.3012   21.3934 H   0  0  0  0  0  0
  -23.3751  -35.9674   23.3302 H   0  0  0  0  0  0
  -24.3611  -36.8931   22.2044 H   0  0  0  0  0  0
  -23.7234  -37.6516   23.6641 H   0  0  0  0  0  0
  -26.0281  -31.5666   20.5619 H   0  0  0  0  0  0
  -26.8303  -30.8982   21.9593 H   0  0  0  0  0  0
  -28.0968  -29.0765   21.1928 H   0  0  0  0  0  0
  -26.0623  -25.9533   19.0037 H   0  0  0  0  0  0
  -24.0048  -27.2865   19.0151 H   0  0  0  0  0  0
  -23.7284  -30.5836   19.3907 H   0  0  0  0  0  0
  -22.7404  -29.2326   19.8600 H   0  0  0  0  0  0
  -25.1268  -36.1943   25.0799 H   0  0  0  0  0  0
  -21.0016  -28.3293   24.1421 H   0  0  0  0  0  0
  -20.5766  -26.2275   23.3623 H   0  0  0  0  0  0
  -21.6638  -26.7502   22.1148 H   0  0  0  0  0  0
  -19.6897  -25.6327   21.1235 H   0  0  0  0  0  0
  -19.6672  -27.3275   20.6835 H   0  0  0  0  0  0
  -17.4196  -26.6761   21.4045 H   0  0  0  0  0  0
  -18.0275  -26.0123   22.9050 H   0  0  0  0  0  0
  -19.7946  -30.7341   24.2216 H   0  0  0  0  0  0
  -17.5013  -31.6274   24.5231 H   0  0  0  0  0  0
  -15.5367  -30.3008   23.7649 H   0  0  0  0  0  0
  -15.8689  -28.0911   22.6921 H   0  0  0  0  0  0
  -24.5907  -30.7050   25.7814 H   0  0  0  0  0  0
  -24.8920  -32.2916   26.4830 H   0  0  0  0  0  0
  -25.8066  -30.8943   27.0229 H   0  0  0  0  0  0
  -26.2764  -29.6832   24.1054 H   0  0  0  0  0  0
  -27.3934  -29.7163   25.4532 H   0  0  0  0  0  0
  -27.8656  -30.4319   23.9228 H   0  0  0  0  0  0
  -27.2601  -33.3582   26.2091 H   0  0  0  0  0  0
  -28.3837  -32.6874   25.0345 H   0  0  0  0  0  0
  -28.0658  -31.8381   26.5423 H   0  0  0  0  0  0
  -28.2553  -38.0132   24.7527 H   0  0  0  0  0  0
  -28.1038  -36.2649   24.6218 H   0  0  0  0  0  0
  -27.2296  -37.1388   25.8866 H   0  0  0  0  0  0
  -20.9294  -29.8778   21.6984 H   0  0  0  0  0  0
  -26.0146  -38.2828   24.1501 H   0  0  0  0  0  0
  -27.6587  -19.3552   20.2289 H   0  0  0  0  0  0
  -27.5357  -23.7995   19.8599 H   0  0  0  0  0  0
  -28.5672  -24.3875   21.1134 H   0  0  0  0  0  0
  -28.3490  -21.4988   20.5458 H   0  0  0  0  0  0
  -29.6095  -22.0182   21.6213 H   0  0  0  0  0  0
  -29.7465  -25.6370   18.9847 H   0  0  0  0  0  0
  -28.1388  -25.5690   18.3587 H   0  0  0  0  0  0
  -30.5947  -23.4987   19.9690 H   0  0  0  0  0  0
  -30.8635  -20.9205   19.3554 H   0  0  0  0  0  0
  -28.9189  -15.1020   21.2779 H   0  0  0  0  0  0
  -29.0085  -21.9685   18.2801 H   0  0  0  0  0  0
  1 25  1  0  0  0
  1 30  2  0  0  0
  1 80  1  0  0  0
  2  3  1  0  0  0
  2 25  1  0  0  0
  2 83  1  0  0  0
  2 84  1  0  0  0
  3  4  1  0  0  0
  3 85  1  0  0  0
  3 86  1  0  0  0
  4  5  1  0  0  0
  4 87  1  0  0  0
  4 88  1  0  0  0
  5  6  1  0  0  0
  5 26  1  0  0  0
  5 89  1  0  0  0
  6 25  1  0  0  0
  6 90  1  0  0  0
  6 91  1  0  0  0
  7  8  2  0  0  0
  7 26  1  0  0  0
  7 29  1  0  0  0
  8  9  1  0  0  0
  8 22  1  0  0  0
  9 10  1  0  0  0
  9 27  2  0  0  0
 10 11  2  0  0  0
 10 15  1  0  0  0
 11 12  1  0  0  0
 11 92  1  0  0  0
 12 13  2  0  0  0
 12 93  1  0  0  0
 13 14  1  0  0  0
 13 31  1  0  0  0
 14 15  2  0  0  0
 14 94  1  0  0  0
 15 95  1  0  0  0
 16 17  2  0  0  0
 16 21  1  0  0  0
 16 31  1  0  0  0
 17 18  1  0  0  0
 17 96  1  0  0  0
 18 19  2  0  0  0
 18 97  1  0  0  0
 19 20  1  0  0  0
 19 24  1  0  0  0
 20 21  2  0  0  0
 20 98  1  0  0  0
 21 23  1  0  0  0
 22 28  1  0  0  0
 22 32  2  0  0  0
 26 27  1  0  0  0
 28 99  1  0  0  0
 28100  1  0  0  0
 29101  1  0  0  0
 29102  1  0  0  0
 33 34  1  0  0  0
 33 66  1  0  0  0
 33 70  2  0  0  0
 34 36  1  0  0  0
 34 59  1  0  0  0
 34103  1  0  0  0
 35 44  2  0  0  0
 35 45  1  0  0  0
 35 68  1  0  0  0
 36 56  1  0  0  0
 36104  1  0  0  0
 37 39  1  0  0  0
 37 47  1  0  0  0
 37 66  1  0  0  0
 37105  1  0  0  0
 38 43  2  0  0  0
 38 46  1  0  0  0
 38 47  1  0  0  0
 39 64  1  0  0  0
 39 67  2  0  0  0
 40 52  1  0  0  0
 40 53  2  0  0  0
 40 58  1  0  0  0
 41106  1  0  0  0
 41107  1  0  0  0
 41108  1  0  0  0
 41 48  1  0  0  0
 42 43  1  0  0  0
 42 66  1  0  0  0
 42109  1  0  0  0
 42110  1  0  0  0
 43 44  1  0  0  0
 44111  1  0  0  0
 45 46  2  0  0  0
 45112  1  0  0  0
 46113  1  0  0  0
 47114  1  0  0  0
 47115  1  0  0  0
 48 56  1  0  0  0
 48 65  1  0  0  0
 48116  1  0  0  0
 49 50  1  0  0  0
 49 53  1  0  0  0
 49 64  1  0  0  0
 49117  1  0  0  0
 50 51  1  0  0  0
 50118  1  0  0  0
 50119  1  0  0  0
 51 52  1  0  0  0
 51120  1  0  0  0
 51121  1  0  0  0
 52122  1  0  0  0
 52123  1  0  0  0
 53 54  1  0  0  0
 54 55  2  0  0  0
 54124  1  0  0  0
 55 57  1  0  0  0
 55125  1  0  0  0
 56 69  2  0  0  0
 57 58  2  0  0  0
 57126  1  0  0  0
 58127  1  0  0  0
 59 60  1  0  0  0
 59 61  1  0  0  0
 59 62  1  0  0  0
 60128  1  0  0  0
 60129  1  0  0  0
 60130  1  0  0  0
 61131  1  0  0  0
 61132  1  0  0  0
 61133  1  0  0  0
 62134  1  0  0  0
 62135  1  0  0  0
 62136  1  0  0  0
 63 65  1  0  0  0
 63137  1  0  0  0
 63138  1  0  0  0
 63139  1  0  0  0
 64140  1  0  0  0
 65141  1  0  0  0
 68 76  1  0  0  0
 71 72  2  0  0  0
 71 78  1  0  0  0
 71142  1  0  0  0
 72 79  1  0  0  0
 72 82  1  0  0  0
 73 78  2  0  0  0
 73 80  1  0  0  0
 73 82  1  0  0  0
 74 76  1  0  0  0
 74 77  1  0  0  0
 74143  1  0  0  0
 74144  1  0  0  0
 75 77  1  0  0  0
 75 79  1  0  0  0
 75145  1  0  0  0
 75146  1  0  0  0
 76147  1  0  0  0
 76148  1  0  0  0
 77 81  1  0  0  0
 77149  1  0  0  0
 79150  1  0  0  0
 80151  1  0  0  0
 81152  1  0  0  0
M  ISO  4   1 100  68 101  76 101  80 100
M  END
> <chiral flag>
0

> <version>
0

> <s_m_source_file>
/data/baiqing/PycharmProjects/Reinvent-master-3.2/result/LINK_invent/BTK/process_docking_weight1_custom_product_contain_oxygen_bond_distance_aromatic_linkinvent_7_9_3/rearranged_h_0195.sdf

> <i_m_source_file_index>
97

> <r_mmod_Potential_Energy-OPLS-2005>
-70.0363006591797

> <r_mmod_Stretch_Energy-OPLS-2005>
42.7158164978027

> <r_mmod_Bend_Energy-OPLS-2005>
120.25479888916

> <r_mmod_Torsional_Energy-OPLS-2005>
255.085159301758

> <r_mmod_Improper_Torsional_Energy-OPLS-2005>
7.44205713272095

> <r_mmod_Van_der_Waal_Energy-OPLS-2005>
125.825500488281

> <r_mmod_Electrostatic_Energy-OPLS-2005>
-406.999237060547

> <r_mmod_Solvation_Energy-OPLS-2005>
-233.367401123047

> <b_mmod_Minimization_Converged-OPLS-2005>
0

> <r_mmod_RMS_Derivative-OPLS-2005>
7.36890268325806

$$$$
97
                    3D
 Structure written by MMmdl.
168176  0  0  1  0            999 V2000
  -30.6147  -14.5985   20.5410 C   0  0  0  0  0  0
  -30.4516  -12.3784   19.4274 C   0  0  0  0  0  0
  -29.5059  -12.5082   18.2111 C   0  0  0  0  0  0
  -28.0282  -12.3510   18.6274 C   0  0  0  0  0  0
  -27.6618  -13.2028   19.8717 C   0  0  2  0  0  0
  -28.7096  -13.0004   20.9909 C   0  0  0  0  0  0
  -25.2605  -13.8138   20.5666 C   0  0  0  0  0  0
  -24.1853  -13.0427   20.9181 C   0  0  0  0  0  0
  -24.6408  -11.6889   20.8747 C   0  0  0  0  0  0
  -23.9078  -10.4283   21.0420 C   0  0  0  0  0  0
  -24.3624   -9.4193   21.9194 C   0  0  0  0  0  0
  -23.6294   -8.2232   22.0756 C   0  0  0  0  0  0
  -22.4273   -8.0281   21.3550 C   0  0  0  0  0  0
  -21.9915   -9.0257   20.4650 C   0  0  0  0  0  0
  -22.7252  -10.2135   20.3065 C   0  0  0  0  0  0
  -21.6846   -6.0742   22.5287 C   0  0  0  0  0  0
  -21.4008   -6.5641   23.8221 C   0  0  0  0  0  0
  -21.3652   -5.6791   24.9177 C   0  0  0  0  0  0
  -21.6043   -4.3055   24.7225 C   0  0  0  0  0  0
  -21.8821   -3.8151   23.4344 C   0  0  0  0  0  0
  -21.9191   -4.6972   22.3404 C   0  0  0  0  0  0
  -22.7878  -13.5238   21.1841 C   0  0  0  0  0  0
  -22.1659   -4.2160   21.0982 F   0  0  0  0  0  0
  -21.5627   -3.4538   25.7735 F   0  0  0  0  0  0
  -30.0285  -13.3649   20.4391 N   0  0  0  0  0  0
  -26.3034  -12.9295   20.3349 N   0  0  0  0  0  0
  -25.9337  -11.6472   20.5778 N   0  0  0  0  0  0
  -22.0513  -12.8235   22.0396 N   0  0  0  0  0  0
  -25.4327  -15.1857   20.4032 N   0  0  0  0  0  0
  -31.7391  -14.8345   20.0863 O   0  0  0  0  0  0
  -21.6630   -6.8883   21.4246 O   0  0  0  0  0  0
  -22.3571  -14.5552   20.6697 O   0  0  0  0  0  0
  -24.6228  -31.8621   23.2045 C   0  0  0  0  0  0
  -25.9086  -32.4800   23.8357 C   0  0  1  0  0  0
  -27.2265  -27.3468   20.1084 C   0  0  0  0  0  0
  -25.5914  -33.8598   24.2286 N   0  0  0  0  0  0
  -23.4150  -30.4857   21.5464 C   0  0  2  0  0  0
  -24.8630  -28.9422   20.1171 C   0  0  0  0  0  0
  -22.7457  -29.4626   22.4944 C   0  0  0  0  0  0
  -18.0280  -28.1362   22.8493 C   0  0  0  0  0  0
  -24.1494  -36.7290   23.2648 C   0  0  0  0  0  0
  -25.9551  -30.8018   21.3719 C   0  0  0  0  0  0
  -26.0324  -29.4301   20.7163 C   0  0  0  0  0  0
  -27.2202  -28.6442   20.7012 C   0  0  0  0  0  0
  -26.0339  -26.8996   19.5021 C   0  0  0  0  0  0
  -24.8637  -27.6796   19.5053 C   0  0  0  0  0  0
  -23.6303  -29.8200   20.1622 C   0  0  0  0  0  0
  -25.4117  -36.3093   24.0335 C   0  0  1  0  0  0
  -20.5881  -28.3668   23.1301 C   0  0  2  0  0  0
  -20.6779  -26.9398   22.5413 C   0  0  0  0  0  0
  -19.5760  -26.6369   21.5219 C   0  0  0  0  0  0
  -18.1930  -26.7909   22.1621 C   0  0  0  0  0  0
  -19.1531  -28.8831   23.2895 C   0  0  0  0  0  0
  -18.9465  -30.1436   23.8910 C   0  0  0  0  0  0
  -17.6468  -30.6578   24.0565 C   0  0  0  0  0  0
  -25.9057  -34.9464   23.5110 C   0  0  0  0  0  0
  -16.5359  -29.9080   23.6330 C   0  0  0  0  0  0
  -16.7270  -28.6494   23.0355 C   0  0  0  0  0  0
  -26.4472  -31.6606   25.0717 C   0  0  0  0  0  0
  -25.3715  -31.3750   26.1459 C   0  0  0  0  0  0
  -27.0301  -30.3036   24.6151 C   0  0  0  0  0  0
  -27.6052  -32.4322   25.7470 C   0  0  0  0  0  0
  -27.5584  -37.1795   24.8462 C   0  0  0  0  0  0
  -21.4172  -29.3038   22.3704 N   0  0  0  0  0  0
  -26.4289  -37.3787   23.9424 N   0  0  0  0  0  0
  -24.6830  -31.0648   22.0990 N   0  0  0  0  0  0
  -23.4194  -28.8159   23.3007 O   0  0  0  0  0  0
  -28.3470  -26.5123   20.0868 O   0  0  0  0  0  0
  -26.5620  -34.8929   22.4676 O   0  0  0  0  0  0
  -23.5398  -32.1399   23.7386 O   0  0  0  0  0  0
  -29.3463  -18.9976   22.0528 C   0  0  0  0  0  0
  -29.7848  -19.2137   20.7681 C   0  0  0  0  0  0
  -29.8497  -17.0053   21.1717 C   0  0  0  0  0  0
  -31.3397  -21.4235   23.7650 C   0  0  0  0  0  0
  -32.5285  -21.8191   20.0647 C   0  0  0  0  0  0
  -31.9918  -21.0603   22.4228 C   0  0  0  0  0  0
  -29.6675  -23.0797   19.9271 C   0  0  0  0  0  0
  -28.2540  -25.2527   20.8451 C   0  0  0  0  0  0
  -31.5435  -21.9524   21.2451 C   0  0  2  0  0  0
  -30.0553  -21.7888   20.7889 C   0  0  2  0  0  0
  -28.2830  -23.8135   20.1473 C   0  0  1  0  0  0
  -30.0914  -17.9568   20.2332 N   0  0  0  0  0  0
  -29.4003  -17.6405   22.2632 N   0  3  0  0  0  0
  -29.8612  -20.4769   20.0903 N   0  0  0  0  0  0
  -29.8108  -15.5538   21.0831 N   0  0  0  0  0  0
  -27.4915  -23.7968   18.8968 N   0  3  0  0  0  0
  -31.4876  -12.5284   19.1173 H   0  0  0  0  0  0
  -30.4106  -11.3694   19.8407 H   0  0  0  0  0  0
  -29.7593  -11.7617   17.4574 H   0  0  0  0  0  0
  -29.6496  -13.4803   17.7375 H   0  0  0  0  0  0
  -27.8562  -11.2950   18.8397 H   0  0  0  0  0  0
  -27.3721  -12.6006   17.7920 H   0  0  0  0  0  0
  -27.6958  -14.2461   19.5592 H   0  0  0  0  0  0
  -28.7192  -11.9587   21.3154 H   0  0  0  0  0  0
  -28.4520  -13.5713   21.8840 H   0  0  0  0  0  0
  -25.2773   -9.5656   22.4766 H   0  0  0  0  0  0
  -23.9998   -7.4618   22.7468 H   0  0  0  0  0  0
  -21.0848   -8.8787   19.8951 H   0  0  0  0  0  0
  -22.3728  -10.9676   19.6167 H   0  0  0  0  0  0
  -21.1998   -7.6151   23.9732 H   0  0  0  0  0  0
  -21.1468   -6.0515   25.9082 H   0  0  0  0  0  0
  -22.0608   -2.7617   23.2842 H   0  0  0  0  0  0
  -22.4106  -11.9881   22.4774 H   0  0  0  0  0  0
  -21.1137  -13.1271   22.2603 H   0  0  0  0  0  0
  -24.6597  -15.8356   20.4984 H   0  0  0  0  0  0
  -26.2688  -15.6196   20.0326 H   0  0  0  0  0  0
  -26.7150  -32.5477   23.1100 H   0  0  0  0  0  0
  -25.0062  -33.9765   25.0433 H   0  0  0  0  0  0
  -22.7092  -31.3070   21.4036 H   0  0  0  0  0  0
  -23.3774  -35.9606   23.3295 H   0  0  0  0  0  0
  -24.3595  -36.8912   22.2066 H   0  0  0  0  0  0
  -23.7222  -37.6484   23.6666 H   0  0  0  0  0  0
  -26.0802  -31.5680   20.6047 H   0  0  0  0  0  0
  -26.8375  -30.8509   21.9985 H   0  0  0  0  0  0
  -28.1220  -29.0197   21.1658 H   0  0  0  0  0  0
  -25.9895  -25.9386   19.0191 H   0  0  0  0  0  0
  -23.9655  -27.3011   19.0374 H   0  0  0  0  0  0
  -23.7486  -30.5980   19.4071 H   0  0  0  0  0  0
  -22.7503  -29.2496   19.8579 H   0  0  0  0  0  0
  -25.1287  -36.1951   25.0823 H   0  0  0  0  0  0
  -20.9969  -28.3230   24.1424 H   0  0  0  0  0  0
  -20.5698  -26.2270   23.3600 H   0  0  0  0  0  0
  -21.6642  -26.7433   22.1205 H   0  0  0  0  0  0
  -19.6940  -25.6288   21.1234 H   0  0  0  0  0  0
  -19.6709  -27.3201   20.6775 H   0  0  0  0  0  0
  -17.4206  -26.6666   21.4013 H   0  0  0  0  0  0
  -18.0325  -26.0023   22.8992 H   0  0  0  0  0  0
  -19.7951  -30.7238   24.2275 H   0  0  0  0  0  0
  -17.5041  -31.6274   24.5146 H   0  0  0  0  0  0
  -15.5373  -30.3005   23.7653 H   0  0  0  0  0  0
  -15.8657  -28.0837   22.7068 H   0  0  0  0  0  0
  -24.5877  -30.7103   25.7802 H   0  0  0  0  0  0
  -24.8920  -32.2924   26.4900 H   0  0  0  0  0  0
  -25.8038  -30.8921   27.0234 H   0  0  0  0  0  0
  -26.2860  -29.6805   24.1176 H   0  0  0  0  0  0
  -27.4022  -29.7276   25.4641 H   0  0  0  0  0  0
  -27.8716  -30.4341   23.9336 H   0  0  0  0  0  0
  -27.2694  -33.3645   26.2026 H   0  0  0  0  0  0
  -28.3861  -32.6846   25.0280 H   0  0  0  0  0  0
  -28.0710  -31.8448   26.5394 H   0  0  0  0  0  0
  -28.2578  -38.0124   24.7540 H   0  0  0  0  0  0
  -28.1086  -36.2647   24.6213 H   0  0  0  0  0  0
  -27.2294  -37.1345   25.8863 H   0  0  0  0  0  0
  -20.9337  -29.8772   21.6939 H   0  0  0  0  0  0
  -26.0168  -38.2850   24.1468 H   0  0  0  0  0  0
  -28.9935  -19.6771   22.8135 H   0  0  0  0  0  0
  -31.6819  -20.7517   24.5520 H   0  0  0  0  0  0
  -30.2532  -21.3643   23.7340 H   0  0  0  0  0  0
  -31.6014  -22.4384   24.0643 H   0  0  0  0  0  0
  -33.5443  -22.0722   20.3703 H   0  0  0  0  0  0
  -32.2716  -22.4858   19.2419 H   0  0  0  0  0  0
  -32.5521  -20.8033   19.6702 H   0  0  0  0  0  0
  -31.8504  -20.0065   22.1958 H   0  0  0  0  0  0
  -33.0697  -21.1670   22.5523 H   0  0  0  0  0  0
  -29.8060  -22.8378   18.8726 H   0  0  0  0  0  0
  -30.4138  -23.8586   20.0858 H   0  0  0  0  0  0
  -29.0510  -25.2764   21.5896 H   0  0  0  0  0  0
  -27.3409  -25.2924   21.4432 H   0  0  0  0  0  0
  -31.6588  -22.9709   21.6200 H   0  0  0  0  0  0
  -29.4264  -21.7989   21.6785 H   0  0  0  0  0  0
  -27.7362  -23.1606   20.8303 H   0  0  0  0  0  0
  -30.3969  -17.7694   19.2869 H   0  0  0  0  0  0
  -29.1217  -17.1917   23.1262 H   0  0  0  0  0  0
  -30.1926  -20.4532   19.1313 H   0  0  0  0  0  0
  -28.9986  -15.1376   21.5102 H   0  0  0  0  0  0
  -27.8617  -24.4478   18.2238 H   0  0  0  0  0  0
  -26.5272  -24.0255   19.0699 H   0  0  0  0  0  0
  -27.5090  -22.8782   18.4867 H   0  0  0  0  0  0
  1 25  1  0  0  0
  1 30  2  0  0  0
  1 85  1  0  0  0
  2  3  1  0  0  0
  2 25  1  0  0  0
  2 87  1  0  0  0
  2 88  1  0  0  0
  3  4  1  0  0  0
  3 89  1  0  0  0
  3 90  1  0  0  0
  4  5  1  0  0  0
  4 91  1  0  0  0
  4 92  1  0  0  0
  5  6  1  0  0  0
  5 26  1  0  0  0
  5 93  1  0  0  0
  6 25  1  0  0  0
  6 94  1  0  0  0
  6 95  1  0  0  0
  7  8  2  0  0  0
  7 26  1  0  0  0
  7 29  1  0  0  0
  8  9  1  0  0  0
  8 22  1  0  0  0
  9 10  1  0  0  0
  9 27  2  0  0  0
 10 11  2  0  0  0
 10 15  1  0  0  0
 11 12  1  0  0  0
 11 96  1  0  0  0
 12 13  2  0  0  0
 12 97  1  0  0  0
 13 14  1  0  0  0
 13 31  1  0  0  0
 14 15  2  0  0  0
 14 98  1  0  0  0
 15 99  1  0  0  0
 16 17  2  0  0  0
 16 21  1  0  0  0
 16 31  1  0  0  0
 17 18  1  0  0  0
 17100  1  0  0  0
 18 19  2  0  0  0
 18101  1  0  0  0
 19 20  1  0  0  0
 19 24  1  0  0  0
 20 21  2  0  0  0
 20102  1  0  0  0
 21 23  1  0  0  0
 22 28  1  0  0  0
 22 32  2  0  0  0
 26 27  1  0  0  0
 28103  1  0  0  0
 28104  1  0  0  0
 29105  1  0  0  0
 29106  1  0  0  0
 33 34  1  0  0  0
 33 66  1  0  0  0
 33 70  2  0  0  0
 34 36  1  0  0  0
 34 59  1  0  0  0
 34107  1  0  0  0
 35 44  2  0  0  0
 35 45  1  0  0  0
 35 68  1  0  0  0
 36 56  1  0  0  0
 36108  1  0  0  0
 37 39  1  0  0  0
 37 47  1  0  0  0
 37 66  1  0  0  0
 37109  1  0  0  0
 38 43  2  0  0  0
 38 46  1  0  0  0
 38 47  1  0  0  0
 39 64  1  0  0  0
 39 67  2  0  0  0
 40 52  1  0  0  0
 40 53  2  0  0  0
 40 58  1  0  0  0
 41110  1  0  0  0
 41111  1  0  0  0
 41112  1  0  0  0
 41 48  1  0  0  0
 42 43  1  0  0  0
 42 66  1  0  0  0
 42113  1  0  0  0
 42114  1  0  0  0
 43 44  1  0  0  0
 44115  1  0  0  0
 45 46  2  0  0  0
 45116  1  0  0  0
 46117  1  0  0  0
 47118  1  0  0  0
 47119  1  0  0  0
 48 56  1  0  0  0
 48 65  1  0  0  0
 48120  1  0  0  0
 49 50  1  0  0  0
 49 53  1  0  0  0
 49 64  1  0  0  0
 49121  1  0  0  0
 50 51  1  0  0  0
 50122  1  0  0  0
 50123  1  0  0  0
 51 52  1  0  0  0
 51124  1  0  0  0
 51125  1  0  0  0
 52126  1  0  0  0
 52127  1  0  0  0
 53 54  1  0  0  0
 54 55  2  0  0  0
 54128  1  0  0  0
 55 57  1  0  0  0
 55129  1  0  0  0
 56 69  2  0  0  0
 57 58  2  0  0  0
 57130  1  0  0  0
 58131  1  0  0  0
 59 60  1  0  0  0
 59 61  1  0  0  0
 59 62  1  0  0  0
 60132  1  0  0  0
 60133  1  0  0  0
 60134  1  0  0  0
 61135  1  0  0  0
 61136  1  0  0  0
 61137  1  0  0  0
 62138  1  0  0  0
 62139  1  0  0  0
 62140  1  0  0  0
 63 65  1  0  0  0
 63141  1  0  0  0
 63142  1  0  0  0
 63143  1  0  0  0
 64144  1  0  0  0
 65145  1  0  0  0
 68 78  1  0  0  0
 71 72  2  0  0  0
 71 83  1  0  0  0
 71146  1  0  0  0
 72 82  1  0  0  0
 72 84  1  0  0  0
 73 82  1  0  0  0
 73 83  2  0  0  0
 73 85  1  0  0  0
 74 76  1  0  0  0
 74147  1  0  0  0
 74148  1  0  0  0
 74149  1  0  0  0
 75150  1  0  0  0
 75151  1  0  0  0
 75152  1  0  0  0
 75 79  1  0  0  0
 76 79  1  0  0  0
 76153  1  0  0  0
 76154  1  0  0  0
 77 81  1  0  0  0
 77155  1  0  0  0
 77156  1  0  0  0
 77 80  1  0  0  0
 78 81  1  0  0  0
 78157  1  0  0  0
 78158  1  0  0  0
 79 80  1  0  0  0
 79159  1  0  0  0
 80 84  1  0  0  0
 80160  1  0  0  0
 81 86  1  0  0  0
 81161  1  0  0  0
 82162  1  0  0  0
 83163  1  0  0  0
 84164  1  0  0  0
 85165  1  0  0  0
 86166  1  0  0  0
 86167  1  0  0  0
 86168  1  0  0  0
M  CHG  2  83   1  86   1
M  ISO  4   1 100  68 101  78 101  85 100
M  END
> <chiral flag>
0

> <version>
0

> <s_m_source_file>
/data/baiqing/PycharmProjects/Reinvent-master-3.2/result/LINK_invent/BTK/process_docking_weight1_custom_product_contain_oxygen_bond_distance_aromatic_linkinvent_7_9_3/rearranged_h_0195.sdf

> <i_m_source_file_index>
98

> <r_mmod_Potential_Energy-OPLS-2005>
-203.455078125

> <r_mmod_Stretch_Energy-OPLS-2005>
73.4556884765625

> <r_mmod_Bend_Energy-OPLS-2005>
186.276992797852

> <r_mmod_Torsional_Energy-OPLS-2005>
305.775604248047

> <r_mmod_Improper_Torsional_Energy-OPLS-2005>
6.13032913208008

> <r_mmod_Van_der_Waal_Energy-OPLS-2005>
122.714851379395

> <r_mmod_Electrostatic_Energy-OPLS-2005>
-27.3368549346924

> <r_mmod_Solvation_Energy-OPLS-2005>
-906.580993652344

> <b_mmod_Minimization_Converged-OPLS-2005>
0

> <r_mmod_RMS_Derivative-OPLS-2005>
1.82748770713806

$$$$
98
                    3D
 Structure written by MMmdl.
156164  0  0  1  0            999 V2000
  -30.7155  -14.4330   20.5706 C   0  0  0  0  0  0
  -30.4249  -12.2819   19.4052 C   0  0  0  0  0  0
  -29.4977  -12.5108   18.1935 C   0  0  0  0  0  0
  -28.0173  -12.3737   18.6045 C   0  0  0  0  0  0
  -27.6670  -13.2034   19.8677 C   0  0  2  0  0  0
  -28.7077  -12.9633   20.9861 C   0  0  0  0  0  0
  -25.2614  -13.8150   20.5658 C   0  0  0  0  0  0
  -24.1853  -13.0446   20.9163 C   0  0  0  0  0  0
  -24.6398  -11.6915   20.8702 C   0  0  0  0  0  0
  -23.9056  -10.4303   21.0379 C   0  0  0  0  0  0
  -24.3615   -9.4223   21.9163 C   0  0  0  0  0  0
  -23.6293   -8.2262   22.0754 C   0  0  0  0  0  0
  -22.4264   -8.0295   21.3559 C   0  0  0  0  0  0
  -21.9889   -9.0260   20.4651 C   0  0  0  0  0  0
  -22.7218  -10.2140   20.3043 C   0  0  0  0  0  0
  -21.6850   -6.0742   22.5282 C   0  0  0  0  0  0
  -21.4019   -6.5640   23.8210 C   0  0  0  0  0  0
  -21.3657   -5.6784   24.9175 C   0  0  0  0  0  0
  -21.6035   -4.3046   24.7206 C   0  0  0  0  0  0
  -21.8817   -3.8148   23.4328 C   0  0  0  0  0  0
  -21.9193   -4.6979   22.3395 C   0  0  0  0  0  0
  -22.7872  -13.5267   21.1808 C   0  0  0  0  0  0
  -22.1666   -4.2170   21.0966 F   0  0  0  0  0  0
  -21.5628   -3.4526   25.7721 F   0  0  0  0  0  0
  -30.0477  -13.2556   20.4404 N   0  0  0  0  0  0
  -26.3046  -12.9325   20.3287 N   0  0  0  0  0  0
  -25.9316  -11.6491   20.5678 N   0  0  0  0  0  0
  -22.0490  -12.8289   22.0368 N   0  0  0  0  0  0
  -25.4311  -15.1866   20.4098 N   0  0  0  0  0  0
  -31.8335  -14.6273   20.0848 O   0  0  0  0  0  0
  -21.6640   -6.8887   21.4240 O   0  0  0  0  0  0
  -22.3566  -14.5560   20.6622 O   0  0  0  0  0  0
  -24.6120  -31.8681   23.2083 C   0  0  0  0  0  0
  -25.9023  -32.4805   23.8389 C   0  0  1  0  0  0
  -27.2450  -27.4607   20.0936 C   0  0  0  0  0  0
  -25.5888  -33.8608   24.2317 N   0  0  0  0  0  0
  -23.3993  -30.4886   21.5475 C   0  0  2  0  0  0
  -24.8486  -28.9475   20.1215 C   0  0  0  0  0  0
  -22.7381  -29.4665   22.4980 C   0  0  0  0  0  0
  -18.0273  -28.1402   22.8499 C   0  0  0  0  0  0
  -24.1491  -36.7324   23.2641 C   0  0  0  0  0  0
  -25.9236  -30.8403   21.3579 C   0  0  0  0  0  0
  -26.0049  -29.4724   20.7132 C   0  0  0  0  0  0
  -27.2068  -28.7335   20.7001 C   0  0  0  0  0  0
  -26.0758  -26.9354   19.5101 C   0  0  0  0  0  0
  -24.8758  -27.6726   19.5240 C   0  0  0  0  0  0
  -23.6085  -29.8118   20.1659 C   0  0  0  0  0  0
  -25.4104  -36.3096   24.0331 C   0  0  1  0  0  0
  -20.5859  -28.3687   23.1329 C   0  0  2  0  0  0
  -20.6779  -26.9425   22.5441 C   0  0  0  0  0  0
  -19.5758  -26.6405   21.5237 C   0  0  0  0  0  0
  -18.1924  -26.7952   22.1627 C   0  0  0  0  0  0
  -19.1519  -28.8856   23.2916 C   0  0  0  0  0  0
  -18.9447  -30.1466   23.8926 C   0  0  0  0  0  0
  -17.6447  -30.6598   24.0586 C   0  0  0  0  0  0
  -25.9025  -34.9461   23.5115 C   0  0  0  0  0  0
  -16.5341  -29.9103   23.6333 C   0  0  0  0  0  0
  -16.7264  -28.6525   23.0339 C   0  0  0  0  0  0
  -26.4483  -31.6577   25.0705 C   0  0  0  0  0  0
  -25.3768  -31.3705   26.1477 C   0  0  0  0  0  0
  -27.0331  -30.3015   24.6087 C   0  0  0  0  0  0
  -27.6050  -32.4322   25.7465 C   0  0  0  0  0  0
  -27.5567  -37.1814   24.8456 C   0  0  0  0  0  0
  -21.4109  -29.3031   22.3705 N   0  0  0  0  0  0
  -26.4288  -37.3773   23.9389 N   0  0  0  0  0  0
  -24.6627  -31.0800   22.0973 N   0  0  0  0  0  0
  -23.4149  -28.8222   23.3038 O   0  0  0  0  0  0
  -28.4273  -26.7699   20.0196 O   0  0  0  0  0  0
  -26.5585  -34.8907   22.4674 O   0  0  0  0  0  0
  -23.5313  -32.1441   23.7475 O   0  0  0  0  0  0
  -28.9162  -17.5233   20.9032 C   0  0  0  0  0  0
  -31.2844  -18.7921   20.7693 C   0  0  0  0  0  0
  -30.1308  -16.7986   20.9965 C   0  0  0  0  0  0
  -30.0653  -19.5028   20.6597 C   0  0  0  0  0  0
  -28.3363  -21.5603   18.8664 C   0  0  0  0  0  0
  -28.3215  -24.2960   20.1549 C   0  0  0  0  0  0
  -29.3069  -23.1956   20.6105 C   0  0  0  0  0  0
  -28.5514  -25.6413   20.8808 C   0  0  0  0  0  0
  -28.9200  -21.7323   20.2786 C   0  0  2  0  0  0
  -31.3220  -17.4489   20.9416 N   0  0  0  0  0  0
  -28.8727  -18.8688   20.7351 N   0  0  0  0  0  0
  -30.0023  -15.3993   21.1670 N   0  0  0  0  0  0
  -30.0969  -20.8900   20.4661 N   0  0  0  0  0  0
  -31.4735  -12.3632   19.1095 H   0  0  0  0  0  0
  -30.3102  -11.2676   19.7894 H   0  0  0  0  0  0
  -29.7310  -11.8014   17.3988 H   0  0  0  0  0  0
  -29.6719  -13.5026   17.7712 H   0  0  0  0  0  0
  -27.8208  -11.3177   18.7895 H   0  0  0  0  0  0
  -27.3701  -12.6594   17.7752 H   0  0  0  0  0  0
  -27.7184  -14.2527   19.5746 H   0  0  0  0  0  0
  -28.6711  -11.9255   21.3192 H   0  0  0  0  0  0
  -28.4691  -13.5521   21.8723 H   0  0  0  0  0  0
  -25.2780   -9.5713   22.4713 H   0  0  0  0  0  0
  -24.0028   -7.4646   22.7448 H   0  0  0  0  0  0
  -21.0840   -8.8747   19.8945 H   0  0  0  0  0  0
  -22.3669  -10.9664   19.6135 H   0  0  0  0  0  0
  -21.2015   -7.6148   23.9730 H   0  0  0  0  0  0
  -21.1481   -6.0505   25.9073 H   0  0  0  0  0  0
  -22.0601   -2.7617   23.2799 H   0  0  0  0  0  0
  -22.4120  -11.9999   22.4831 H   0  0  0  0  0  0
  -21.1091  -13.1310   22.2516 H   0  0  0  0  0  0
  -24.6521  -15.8277   20.5094 H   0  0  0  0  0  0
  -26.2592  -15.6263   20.0308 H   0  0  0  0  0  0
  -26.7101  -32.5541   23.1169 H   0  0  0  0  0  0
  -25.0059  -33.9780   25.0475 H   0  0  0  0  0  0
  -22.6865  -31.3030   21.4025 H   0  0  0  0  0  0
  -23.3710  -35.9705   23.3346 H   0  0  0  0  0  0
  -24.3574  -36.8901   22.2044 H   0  0  0  0  0  0
  -23.7313  -37.6563   23.6646 H   0  0  0  0  0  0
  -26.0254  -31.6038   20.5855 H   0  0  0  0  0  0
  -26.8145  -30.9035   21.9712 H   0  0  0  0  0  0
  -28.1028  -29.1343   21.1523 H   0  0  0  0  0  0
  -26.1014  -25.9649   19.0369 H   0  0  0  0  0  0
  -23.9879  -27.2508   19.0733 H   0  0  0  0  0  0
  -23.7139  -30.5828   19.4019 H   0  0  0  0  0  0
  -22.7354  -29.2269   19.8720 H   0  0  0  0  0  0
  -25.1286  -36.1958   25.0828 H   0  0  0  0  0  0
  -20.9963  -28.3288   24.1444 H   0  0  0  0  0  0
  -20.5741  -26.2287   23.3627 H   0  0  0  0  0  0
  -21.6652  -26.7524   22.1206 H   0  0  0  0  0  0
  -19.6936  -25.6323   21.1255 H   0  0  0  0  0  0
  -19.6701  -27.3232   20.6777 H   0  0  0  0  0  0
  -17.4215  -26.6729   21.4003 H   0  0  0  0  0  0
  -18.0290  -26.0099   22.9020 H   0  0  0  0  0  0
  -19.7922  -30.7288   24.2290 H   0  0  0  0  0  0
  -17.5002  -31.6273   24.5203 H   0  0  0  0  0  0
  -15.5342  -30.3010   23.7651 H   0  0  0  0  0  0
  -15.8667  -28.0864   22.7015 H   0  0  0  0  0  0
  -24.5882  -30.7117   25.7821 H   0  0  0  0  0  0
  -24.9042  -32.2893   26.4967 H   0  0  0  0  0  0
  -25.8130  -30.8826   27.0207 H   0  0  0  0  0  0
  -26.2884  -29.6728   24.1193 H   0  0  0  0  0  0
  -27.4159  -29.7285   25.4542 H   0  0  0  0  0  0
  -27.8681  -30.4310   23.9198 H   0  0  0  0  0  0
  -27.2635  -33.3588   26.2094 H   0  0  0  0  0  0
  -28.3827  -32.6950   25.0281 H   0  0  0  0  0  0
  -28.0778  -31.8443   26.5344 H   0  0  0  0  0  0
  -28.2610  -38.0080   24.7438 H   0  0  0  0  0  0
  -28.1031  -36.2604   24.6358 H   0  0  0  0  0  0
  -27.2283  -37.1570   25.8861 H   0  0  0  0  0  0
  -20.9259  -29.8661   21.6857 H   0  0  0  0  0  0
  -26.0168  -38.2855   24.1349 H   0  0  0  0  0  0
  -27.9651  -17.0129   20.9378 H   0  0  0  0  0  0
  -32.2333  -19.3062   20.7122 H   0  0  0  0  0  0
  -27.3650  -22.0492   18.7962 H   0  0  0  0  0  0
  -28.1678  -20.5097   18.6274 H   0  0  0  0  0  0
  -28.9812  -21.9785   18.0930 H   0  0  0  0  0  0
  -27.2926  -23.9768   20.3190 H   0  0  0  0  0  0
  -28.4328  -24.4317   19.0775 H   0  0  0  0  0  0
  -29.4512  -23.2689   21.6899 H   0  0  0  0  0  0
  -30.2814  -23.4271   20.1774 H   0  0  0  0  0  0
  -29.5702  -25.6821   21.2665 H   0  0  0  0  0  0
  -27.8975  -25.7259   21.7519 H   0  0  0  0  0  0
  -28.1523  -21.4155   20.9885 H   0  0  0  0  0  0
  -29.1088  -15.0877   21.5115 H   0  0  0  0  0  0
  -31.0120  -21.3296   20.4158 H   0  0  0  0  0  0
  1 25  1  0  0  0
  1 30  2  0  0  0
  1 82  1  0  0  0
  2  3  1  0  0  0
  2 25  1  0  0  0
  2 84  1  0  0  0
  2 85  1  0  0  0
  3  4  1  0  0  0
  3 86  1  0  0  0
  3 87  1  0  0  0
  4  5  1  0  0  0
  4 88  1  0  0  0
  4 89  1  0  0  0
  5  6  1  0  0  0
  5 26  1  0  0  0
  5 90  1  0  0  0
  6 25  1  0  0  0
  6 91  1  0  0  0
  6 92  1  0  0  0
  7  8  2  0  0  0
  7 26  1  0  0  0
  7 29  1  0  0  0
  8  9  1  0  0  0
  8 22  1  0  0  0
  9 10  1  0  0  0
  9 27  2  0  0  0
 10 11  2  0  0  0
 10 15  1  0  0  0
 11 12  1  0  0  0
 11 93  1  0  0  0
 12 13  2  0  0  0
 12 94  1  0  0  0
 13 14  1  0  0  0
 13 31  1  0  0  0
 14 15  2  0  0  0
 14 95  1  0  0  0
 15 96  1  0  0  0
 16 17  2  0  0  0
 16 21  1  0  0  0
 16 31  1  0  0  0
 17 18  1  0  0  0
 17 97  1  0  0  0
 18 19  2  0  0  0
 18 98  1  0  0  0
 19 20  1  0  0  0
 19 24  1  0  0  0
 20 21  2  0  0  0
 20 99  1  0  0  0
 21 23  1  0  0  0
 22 28  1  0  0  0
 22 32  2  0  0  0
 26 27  1  0  0  0
 28100  1  0  0  0
 28101  1  0  0  0
 29102  1  0  0  0
 29103  1  0  0  0
 33 34  1  0  0  0
 33 66  1  0  0  0
 33 70  2  0  0  0
 34 36  1  0  0  0
 34 59  1  0  0  0
 34104  1  0  0  0
 35 44  2  0  0  0
 35 45  1  0  0  0
 35 68  1  0  0  0
 36 56  1  0  0  0
 36105  1  0  0  0
 37 39  1  0  0  0
 37 47  1  0  0  0
 37 66  1  0  0  0
 37106  1  0  0  0
 38 43  2  0  0  0
 38 46  1  0  0  0
 38 47  1  0  0  0
 39 64  1  0  0  0
 39 67  2  0  0  0
 40 52  1  0  0  0
 40 53  2  0  0  0
 40 58  1  0  0  0
 41107  1  0  0  0
 41108  1  0  0  0
 41109  1  0  0  0
 41 48  1  0  0  0
 42 43  1  0  0  0
 42 66  1  0  0  0
 42110  1  0  0  0
 42111  1  0  0  0
 43 44  1  0  0  0
 44112  1  0  0  0
 45 46  2  0  0  0
 45113  1  0  0  0
 46114  1  0  0  0
 47115  1  0  0  0
 47116  1  0  0  0
 48 56  1  0  0  0
 48 65  1  0  0  0
 48117  1  0  0  0
 49 50  1  0  0  0
 49 53  1  0  0  0
 49 64  1  0  0  0
 49118  1  0  0  0
 50 51  1  0  0  0
 50119  1  0  0  0
 50120  1  0  0  0
 51 52  1  0  0  0
 51121  1  0  0  0
 51122  1  0  0  0
 52123  1  0  0  0
 52124  1  0  0  0
 53 54  1  0  0  0
 54 55  2  0  0  0
 54125  1  0  0  0
 55 57  1  0  0  0
 55126  1  0  0  0
 56 69  2  0  0  0
 57 58  2  0  0  0
 57127  1  0  0  0
 58128  1  0  0  0
 59 60  1  0  0  0
 59 61  1  0  0  0
 59 62  1  0  0  0
 60129  1  0  0  0
 60130  1  0  0  0
 60131  1  0  0  0
 61132  1  0  0  0
 61133  1  0  0  0
 61134  1  0  0  0
 62135  1  0  0  0
 62136  1  0  0  0
 62137  1  0  0  0
 63 65  1  0  0  0
 63138  1  0  0  0
 63139  1  0  0  0
 63140  1  0  0  0
 64141  1  0  0  0
 65142  1  0  0  0
 68 78  1  0  0  0
 71 73  2  0  0  0
 71 81  1  0  0  0
 71143  1  0  0  0
 72 74  1  0  0  0
 72 80  2  0  0  0
 72144  1  0  0  0
 73 80  1  0  0  0
 73 82  1  0  0  0
 74 81  2  0  0  0
 74 83  1  0  0  0
 75145  1  0  0  0
 75146  1  0  0  0
 75147  1  0  0  0
 75 79  1  0  0  0
 76 77  1  0  0  0
 76 78  1  0  0  0
 76148  1  0  0  0
 76149  1  0  0  0
 77 79  1  0  0  0
 77150  1  0  0  0
 77151  1  0  0  0
 78152  1  0  0  0
 78153  1  0  0  0
 79 83  1  0  0  0
 79154  1  0  0  0
 82155  1  0  0  0
 83156  1  0  0  0
M  ISO  4   1 100  68 101  78 101  82 100
M  END
> <chiral flag>
0

> <version>
0

> <s_m_source_file>
/data/baiqing/PycharmProjects/Reinvent-master-3.2/result/LINK_invent/BTK/process_docking_weight1_custom_product_contain_oxygen_bond_distance_aromatic_linkinvent_7_9_3/rearranged_h_0195.sdf

> <i_m_source_file_index>
99

> <r_mmod_Potential_Energy-OPLS-2005>
-72.0956573486328

> <r_mmod_Stretch_Energy-OPLS-2005>
34.4936981201172

> <r_mmod_Bend_Energy-OPLS-2005>
109.619606018066

> <r_mmod_Torsional_Energy-OPLS-2005>
236.431854248047

> <r_mmod_Improper_Torsional_Energy-OPLS-2005>
4.46356964111328

> <r_mmod_Van_der_Waal_Energy-OPLS-2005>
157.103607177734

> <r_mmod_Electrostatic_Energy-OPLS-2005>
-385.691558837891

> <r_mmod_Solvation_Energy-OPLS-2005>
-237.639587402344

> <b_mmod_Minimization_Converged-OPLS-2005>
0

> <r_mmod_RMS_Derivative-OPLS-2005>
3.28757548332214

$$$$
