0
                    3D
 Structure written by MMmdl.
158167  0  0  1  0            999 V2000
  -30.6074  -14.7626   20.4061 C   0  0  0  0  0  0
  -30.4296  -12.4461   19.4886 C   0  0  0  0  0  0
  -29.5138  -12.4707   18.2436 C   0  0  0  0  0  0
  -28.0304  -12.3366   18.6419 C   0  0  0  0  0  0
  -27.6380  -13.2391   19.8444 C   0  0  2  0  0  0
  -28.6828  -13.1885   20.9794 C   0  0  0  0  0  0
  -25.2485  -13.8235   20.5701 C   0  0  0  0  0  0
  -24.1782  -13.0467   20.9217 C   0  0  0  0  0  0
  -24.6384  -11.6943   20.8750 C   0  0  0  0  0  0
  -23.9067  -10.4304   21.0398 C   0  0  0  0  0  0
  -24.3616   -9.4227   21.9187 C   0  0  0  0  0  0
  -23.6291   -8.2264   22.0766 C   0  0  0  0  0  0
  -22.4277   -8.0283   21.3562 C   0  0  0  0  0  0
  -21.9907   -9.0256   20.4662 C   0  0  0  0  0  0
  -22.7233  -10.2142   20.3057 C   0  0  0  0  0  0
  -21.6862   -6.0733   22.5284 C   0  0  0  0  0  0
  -21.4009   -6.5641   23.8218 C   0  0  0  0  0  0
  -21.3670   -5.6801   24.9184 C   0  0  0  0  0  0
  -21.6042   -4.3059   24.7241 C   0  0  0  0  0  0
  -21.8812   -3.8150   23.4360 C   0  0  0  0  0  0
  -21.9196   -4.6958   22.3411 C   0  0  0  0  0  0
  -22.7804  -13.5239   21.1867 C   0  0  0  0  0  0
  -22.1657   -4.2148   21.0987 F   0  0  0  0  0  0
  -21.5648   -3.4536   25.7751 F   0  0  0  0  0  0
  -29.9867  -13.5305   20.3962 N   0  0  0  0  0  0
  -26.2913  -12.9451   20.3260 N   0  0  0  0  0  0
  -25.9309  -11.6585   20.5744 N   0  0  0  0  0  0
  -22.0451  -12.8226   22.0424 N   0  0  0  0  0  0
  -25.4168  -15.1961   20.4128 N   0  0  0  0  0  0
  -31.8072  -14.8377   20.1266 O   0  0  0  0  0  0
  -21.6661   -6.8862   21.4240 O   0  0  0  0  0  0
  -22.3482  -14.5544   20.6720 O   0  0  0  0  0  0
  -24.6379  -31.8544   23.1957 C   0  0  0  0  0  0
  -25.9195  -32.4741   23.8317 C   0  0  1  0  0  0
  -27.2131  -27.2247   20.1177 C   0  0  0  0  0  0
  -25.5978  -33.8541   24.2242 N   0  0  0  0  0  0
  -23.4339  -30.4790   21.5419 C   0  0  2  0  0  0
  -24.8784  -28.9302   20.1061 C   0  0  0  0  0  0
  -22.7531  -29.4609   22.4906 C   0  0  0  0  0  0
  -18.0302  -28.1392   22.8483 C   0  0  0  0  0  0
  -24.1487  -36.7266   23.2637 C   0  0  0  0  0  0
  -25.9852  -30.7558   21.3807 C   0  0  0  0  0  0
  -26.0560  -29.3770   20.7188 C   0  0  0  0  0  0
  -27.2258  -28.5386   20.7145 C   0  0  0  0  0  0
  -26.0073  -26.8736   19.4609 C   0  0  0  0  0  0
  -24.8634  -27.6880   19.4643 C   0  0  0  0  0  0
  -23.6505  -29.8188   20.1574 C   0  0  0  0  0  0
  -25.4117  -36.3048   24.0318 C   0  0  1  0  0  0
  -20.5909  -28.3712   23.1251 C   0  0  2  0  0  0
  -20.6792  -26.9424   22.5400 C   0  0  0  0  0  0
  -19.5760  -26.6382   21.5207 C   0  0  0  0  0  0
  -18.1939  -26.7933   22.1615 C   0  0  0  0  0  0
  -19.1557  -28.8872   23.2857 C   0  0  0  0  0  0
  -18.9478  -30.1474   23.8881 C   0  0  0  0  0  0
  -17.6471  -30.6590   24.0563 C   0  0  0  0  0  0
  -25.9077  -34.9428   23.5078 C   0  0  0  0  0  0
  -16.5359  -29.9081   23.6340 C   0  0  0  0  0  0
  -16.7286  -28.6495   23.0366 C   0  0  0  0  0  0
  -26.4537  -31.6573   25.0723 C   0  0  0  0  0  0
  -25.3740  -31.3737   26.1425 C   0  0  0  0  0  0
  -27.0406  -30.2984   24.6250 C   0  0  0  0  0  0
  -27.6071  -32.4324   25.7523 C   0  0  0  0  0  0
  -27.5585  -37.1782   24.8459 C   0  0  0  0  0  0
  -21.4233  -29.3059   22.3643 N   0  0  0  0  0  0
  -26.4282  -37.3758   23.9422 N   0  0  0  0  0  0
  -24.7051  -31.0483   22.0950 N   0  0  0  0  0  0
  -23.4213  -28.8157   23.3020 O   0  0  0  0  0  0
  -28.2697  -26.2642   20.1938 O   0  0  0  0  0  0
  -26.5630  -34.8911   22.4639 O   0  0  0  0  0  0
  -23.5522  -32.1388   23.7232 O   0  0  0  0  0  0
  -29.9028  -19.6727   18.2998 C   0  0  0  0  0  0
  -30.1077  -18.4235   17.6940 C   0  0  0  0  0  0
  -29.8125  -23.2386   21.1195 C   0  0  0  0  0  0
  -29.6511  -18.5488   20.4413 C   0  0  0  0  0  0
  -28.7630  -23.4884   20.1767 C   0  0  0  0  0  0
  -29.6337  -19.8002   19.6759 C   0  0  0  0  0  0
  -30.0737  -17.2254   18.4305 C   0  0  0  0  0  0
  -29.8935  -17.2283   19.8438 C   0  0  0  0  0  0
  -28.5572  -22.2156   19.6080 C   0  0  0  0  0  0
  -30.1759  -21.9067   21.0707 C   0  0  0  0  0  0
  -27.5587  -21.8501   18.5498 C   0  0  0  0  0  0
  -27.9161  -24.8231   19.8683 C   0  0  0  0  0  0
  -29.4268  -21.2060   20.1347 N   0  0  0  0  0  0
  -30.1565  -16.0480   17.6911 N   0  0  0  0  0  0
  -29.8309  -15.9103   20.5563 N   0  0  0  0  0  0
  -31.1570  -21.2688   21.7657 O   0  0  0  0  0  0
  -31.4728  -12.5588   19.1874 H   0  0  0  0  0  0
  -30.3696  -11.4801   19.9922 H   0  0  0  0  0  0
  -29.7858  -11.6616   17.5638 H   0  0  0  0  0  0
  -29.6670  -13.3914   17.6848 H   0  0  0  0  0  0
  -27.8537  -11.2898   18.8883 H   0  0  0  0  0  0
  -27.3919  -12.5554   17.7855 H   0  0  0  0  0  0
  -27.6256  -14.2591   19.4599 H   0  0  0  0  0  0
  -28.7106  -12.1979   21.4353 H   0  0  0  0  0  0
  -28.4192  -13.8858   21.7763 H   0  0  0  0  0  0
  -25.2751   -9.5729   22.4776 H   0  0  0  0  0  0
  -24.0018   -7.4658   22.7477 H   0  0  0  0  0  0
  -21.0855   -8.8742   19.8954 H   0  0  0  0  0  0
  -22.3668  -10.9671   19.6170 H   0  0  0  0  0  0
  -21.1972   -7.6144   23.9708 H   0  0  0  0  0  0
  -21.1513   -6.0546   25.9091 H   0  0  0  0  0  0
  -22.0577   -2.7610   23.2878 H   0  0  0  0  0  0
  -22.4057  -11.9885   22.4813 H   0  0  0  0  0  0
  -21.1051  -13.1233   22.2599 H   0  0  0  0  0  0
  -24.6461  -15.8470   20.5189 H   0  0  0  0  0  0
  -26.2590  -15.6357   20.0637 H   0  0  0  0  0  0
  -26.7273  -32.5374   23.1067 H   0  0  0  0  0  0
  -25.0156  -33.9681   25.0407 H   0  0  0  0  0  0
  -22.7314  -31.3018   21.3975 H   0  0  0  0  0  0
  -23.3759  -35.9588   23.3264 H   0  0  0  0  0  0
  -24.3587  -36.8933   22.2062 H   0  0  0  0  0  0
  -23.7228  -37.6448   23.6691 H   0  0  0  0  0  0
  -26.1312  -31.5169   20.6119 H   0  0  0  0  0  0
  -26.8593  -30.8020   22.0185 H   0  0  0  0  0  0
  -28.1220  -28.8775   21.2149 H   0  0  0  0  0  0
  -25.8885  -25.9334   18.9460 H   0  0  0  0  0  0
  -23.9661  -27.3420   18.9693 H   0  0  0  0  0  0
  -23.7703  -30.5960   19.4016 H   0  0  0  0  0  0
  -22.7677  -29.2525   19.8547 H   0  0  0  0  0  0
  -25.1294  -36.1880   25.0808 H   0  0  0  0  0  0
  -21.0003  -28.3303   24.1368 H   0  0  0  0  0  0
  -20.5695  -26.2335   23.3621 H   0  0  0  0  0  0
  -21.6665  -26.7453   22.1191 H   0  0  0  0  0  0
  -19.6924  -25.6285   21.1257 H   0  0  0  0  0  0
  -19.6696  -27.3185   20.6726 H   0  0  0  0  0  0
  -17.4217  -26.6708   21.4000 H   0  0  0  0  0  0
  -18.0317  -26.0068   22.9003 H   0  0  0  0  0  0
  -19.7952  -30.7297   24.2239 H   0  0  0  0  0  0
  -17.5020  -31.6272   24.5163 H   0  0  0  0  0  0
  -15.5360  -30.2975   23.7672 H   0  0  0  0  0  0
  -15.8694  -28.0801   22.7100 H   0  0  0  0  0  0
  -24.5952  -30.7044   25.7750 H   0  0  0  0  0  0
  -24.8896  -32.2911   26.4776 H   0  0  0  0  0  0
  -25.8045  -30.8980   27.0246 H   0  0  0  0  0  0
  -26.3021  -29.6705   24.1251 H   0  0  0  0  0  0
  -27.4051  -29.7268   25.4796 H   0  0  0  0  0  0
  -27.8901  -30.4241   23.9533 H   0  0  0  0  0  0
  -27.2664  -33.3635   26.2057 H   0  0  0  0  0  0
  -28.3921  -32.6866   25.0389 H   0  0  0  0  0  0
  -28.0692  -31.8477   26.5488 H   0  0  0  0  0  0
  -28.2555  -38.0122   24.7557 H   0  0  0  0  0  0
  -28.1129  -36.2659   24.6211 H   0  0  0  0  0  0
  -27.2318  -37.1341   25.8862 H   0  0  0  0  0  0
  -20.9431  -29.8793   21.6850 H   0  0  0  0  0  0
  -26.0147  -38.2820   24.1446 H   0  0  0  0  0  0
  -29.9475  -20.5551   17.6799 H   0  0  0  0  0  0
  -30.2683  -18.3985   16.6255 H   0  0  0  0  0  0
  -30.2600  -23.9758   21.7721 H   0  0  0  0  0  0
  -29.4782  -18.6105   21.5046 H   0  0  0  0  0  0
  -26.7232  -22.5498   18.5316 H   0  0  0  0  0  0
  -27.1435  -20.8557   18.7184 H   0  0  0  0  0  0
  -28.0151  -21.8621   17.5599 H   0  0  0  0  0  0
  -26.9621  -24.6085   20.3534 H   0  0  0  0  0  0
  -27.7351  -24.7880   18.7937 H   0  0  0  0  0  0
  -30.0183  -16.1098   16.6879 H   0  0  0  0  0  0
  -29.7413  -15.2167   18.0884 H   0  0  0  0  0  0
  -28.9520  -15.7396   21.0201 H   0  0  0  0  0  0
  -31.6220  -21.9212   22.2802 H   0  0  0  0  0  0
  1 25  1  0  0  0
  1 30  2  0  0  0
  1 85  1  0  0  0
  2  3  1  0  0  0
  2 25  1  0  0  0
  2 87  1  0  0  0
  2 88  1  0  0  0
  3  4  1  0  0  0
  3 89  1  0  0  0
  3 90  1  0  0  0
  4  5  1  0  0  0
  4 91  1  0  0  0
  4 92  1  0  0  0
  5  6  1  0  0  0
  5 26  1  0  0  0
  5 93  1  0  0  0
  6 25  1  0  0  0
  6 94  1  0  0  0
  6 95  1  0  0  0
  7  8  2  0  0  0
  7 26  1  0  0  0
  7 29  1  0  0  0
  8  9  1  0  0  0
  8 22  1  0  0  0
  9 10  1  0  0  0
  9 27  2  0  0  0
 10 11  2  0  0  0
 10 15  1  0  0  0
 11 12  1  0  0  0
 11 96  1  0  0  0
 12 13  2  0  0  0
 12 97  1  0  0  0
 13 14  1  0  0  0
 13 31  1  0  0  0
 14 15  2  0  0  0
 14 98  1  0  0  0
 15 99  1  0  0  0
 16 17  2  0  0  0
 16 21  1  0  0  0
 16 31  1  0  0  0
 17 18  1  0  0  0
 17100  1  0  0  0
 18 19  2  0  0  0
 18101  1  0  0  0
 19 20  1  0  0  0
 19 24  1  0  0  0
 20 21  2  0  0  0
 20102  1  0  0  0
 21 23  1  0  0  0
 22 28  1  0  0  0
 22 32  2  0  0  0
 26 27  1  0  0  0
 28103  1  0  0  0
 28104  1  0  0  0
 29105  1  0  0  0
 29106  1  0  0  0
 33 34  1  0  0  0
 33 66  1  0  0  0
 33 70  2  0  0  0
 34 36  1  0  0  0
 34 59  1  0  0  0
 34107  1  0  0  0
 35 44  2  0  0  0
 35 45  1  0  0  0
 35 68  1  0  0  0
 36 56  1  0  0  0
 36108  1  0  0  0
 37 39  1  0  0  0
 37 47  1  0  0  0
 37 66  1  0  0  0
 37109  1  0  0  0
 38 43  2  0  0  0
 38 46  1  0  0  0
 38 47  1  0  0  0
 39 64  1  0  0  0
 39 67  2  0  0  0
 40 52  1  0  0  0
 40 53  2  0  0  0
 40 58  1  0  0  0
 41110  1  0  0  0
 41111  1  0  0  0
 41112  1  0  0  0
 41 48  1  0  0  0
 42 43  1  0  0  0
 42 66  1  0  0  0
 42113  1  0  0  0
 42114  1  0  0  0
 43 44  1  0  0  0
 44115  1  0  0  0
 45 46  2  0  0  0
 45116  1  0  0  0
 46117  1  0  0  0
 47118  1  0  0  0
 47119  1  0  0  0
 48 56  1  0  0  0
 48 65  1  0  0  0
 48120  1  0  0  0
 49 50  1  0  0  0
 49 53  1  0  0  0
 49 64  1  0  0  0
 49121  1  0  0  0
 50 51  1  0  0  0
 50122  1  0  0  0
 50123  1  0  0  0
 51 52  1  0  0  0
 51124  1  0  0  0
 51125  1  0  0  0
 52126  1  0  0  0
 52127  1  0  0  0
 53 54  1  0  0  0
 54 55  2  0  0  0
 54128  1  0  0  0
 55 57  1  0  0  0
 55129  1  0  0  0
 56 69  2  0  0  0
 57 58  2  0  0  0
 57130  1  0  0  0
 58131  1  0  0  0
 59 60  1  0  0  0
 59 61  1  0  0  0
 59 62  1  0  0  0
 60132  1  0  0  0
 60133  1  0  0  0
 60134  1  0  0  0
 61135  1  0  0  0
 61136  1  0  0  0
 61137  1  0  0  0
 62138  1  0  0  0
 62139  1  0  0  0
 62140  1  0  0  0
 63 65  1  0  0  0
 63141  1  0  0  0
 63142  1  0  0  0
 63143  1  0  0  0
 64144  1  0  0  0
 65145  1  0  0  0
 68 82  1  0  0  0
 71 72  2  0  0  0
 71 76  1  0  0  0
 71146  1  0  0  0
 72 77  1  0  0  0
 72147  1  0  0  0
 73 75  1  0  0  0
 73 80  2  0  0  0
 73148  1  0  0  0
 74 76  2  0  0  0
 74 78  1  0  0  0
 74149  1  0  0  0
 75 79  2  0  0  0
 75 82  1  0  0  0
 76 83  1  0  0  0
 77 78  2  0  0  0
 77 84  1  0  0  0
 78 85  1  0  0  0
 79 81  1  0  0  0
 79 83  1  0  0  0
 80 83  1  0  0  0
 80 86  1  0  0  0
 81150  1  0  0  0
 81151  1  0  0  0
 81152  1  0  0  0
 82153  1  0  0  0
 82154  1  0  0  0
 84155  1  0  0  0
 84156  1  0  0  0
 85157  1  0  0  0
 86158  1  0  0  0
M  ISO  4   1 100  68 101  82 101  85 100
M  END
> <chiral flag>
0

> <version>
0

> <s_m_source_file>
/data/baiqing/PycharmProjects/Reinvent-master-3.2/result/LINK_invent/BTK/process_docking_weight1_custom_product_contain_oxygen_bond_distance_aromatic_linkinvent_7_9_3/rearranged_h_0091.sdf

> <i_m_source_file_index>
1

> <r_mmod_Potential_Energy-OPLS-2005>
139.713134765625

> <r_mmod_Stretch_Energy-OPLS-2005>
143.12614440918

> <r_mmod_Bend_Energy-OPLS-2005>
184.299270629883

> <r_mmod_Torsional_Energy-OPLS-2005>
267.012176513672

> <r_mmod_Improper_Torsional_Energy-OPLS-2005>
9.93040752410889

> <r_mmod_Van_der_Waal_Energy-OPLS-2005>
145.555130004883

> <r_mmod_Electrostatic_Energy-OPLS-2005>
-472.892181396484

> <r_mmod_Solvation_Energy-OPLS-2005>
-243.880706787109

> <b_mmod_Minimization_Converged-OPLS-2005>
0

> <r_mmod_RMS_Derivative-OPLS-2005>
2.02646279335022

$$$$
1
                    3D
 Structure written by MMmdl.
154162  0  0  1  0            999 V2000
  -30.6533  -14.6730   20.5559 C   0  0  0  0  0  0
  -30.4278  -12.4303   19.4819 C   0  0  0  0  0  0
  -29.5142  -12.5084   18.2426 C   0  0  0  0  0  0
  -28.0322  -12.3580   18.6375 C   0  0  0  0  0  0
  -27.6425  -13.2335   19.8575 C   0  0  2  0  0  0
  -28.6785  -13.1349   20.9964 C   0  0  0  0  0  0
  -25.2499  -13.8219   20.5722 C   0  0  0  0  0  0
  -24.1802  -13.0448   20.9242 C   0  0  0  0  0  0
  -24.6394  -11.6935   20.8744 C   0  0  0  0  0  0
  -23.9074  -10.4319   21.0406 C   0  0  0  0  0  0
  -24.3643   -9.4222   21.9153 C   0  0  0  0  0  0
  -23.6304   -8.2275   22.0731 C   0  0  0  0  0  0
  -22.4288   -8.0311   21.3543 C   0  0  0  0  0  0
  -21.9903   -9.0304   20.4683 C   0  0  0  0  0  0
  -22.7248  -10.2160   20.3052 C   0  0  0  0  0  0
  -21.6858   -6.0739   22.5286 C   0  0  0  0  0  0
  -21.4028   -6.5650   23.8218 C   0  0  0  0  0  0
  -21.3646   -5.6805   24.9177 C   0  0  0  0  0  0
  -21.6031   -4.3069   24.7243 C   0  0  0  0  0  0
  -21.8808   -3.8154   23.4371 C   0  0  0  0  0  0
  -21.9200   -4.6958   22.3420 C   0  0  0  0  0  0
  -22.7826  -13.5199   21.1933 C   0  0  0  0  0  0
  -22.1670   -4.2147   21.0995 F   0  0  0  0  0  0
  -21.5607   -3.4550   25.7757 F   0  0  0  0  0  0
  -29.9895  -13.4749   20.4300 N   0  0  0  0  0  0
  -26.2932  -12.9425   20.3268 N   0  0  0  0  0  0
  -25.9308  -11.6571   20.5707 N   0  0  0  0  0  0
  -22.0552  -12.8237   22.0591 N   0  0  0  0  0  0
  -25.4163  -15.1940   20.4145 N   0  0  0  0  0  0
  -31.8358  -14.7496   20.2114 O   0  0  0  0  0  0
  -21.6643   -6.8898   21.4254 O   0  0  0  0  0  0
  -22.3445  -14.5434   20.6692 O   0  0  0  0  0  0
  -24.6238  -31.8635   23.2049 C   0  0  0  0  0  0
  -25.9107  -32.4794   23.8360 C   0  0  1  0  0  0
  -27.2220  -27.3305   20.1355 C   0  0  0  0  0  0
  -25.5962  -33.8587   24.2304 N   0  0  0  0  0  0
  -23.4188  -30.4801   21.5480 C   0  0  2  0  0  0
  -24.8687  -28.9341   20.1223 C   0  0  0  0  0  0
  -22.7474  -29.4609   22.4970 C   0  0  0  0  0  0
  -18.0287  -28.1385   22.8506 C   0  0  0  0  0  0
  -24.1495  -36.7284   23.2633 C   0  0  0  0  0  0
  -25.9542  -30.7968   21.3736 C   0  0  0  0  0  0
  -26.0345  -29.4176   20.7321 C   0  0  0  0  0  0
  -27.2204  -28.6247   20.7377 C   0  0  0  0  0  0
  -26.0382  -26.8896   19.5170 C   0  0  0  0  0  0
  -24.8694  -27.6716   19.5101 C   0  0  0  0  0  0
  -23.6368  -29.8137   20.1637 C   0  0  0  0  0  0
  -25.4117  -36.3075   24.0334 C   0  0  1  0  0  0
  -20.5878  -28.3679   23.1311 C   0  0  2  0  0  0
  -20.6764  -26.9406   22.5414 C   0  0  0  0  0  0
  -19.5746  -26.6406   21.5206 C   0  0  0  0  0  0
  -18.1946  -26.7930   22.1631 C   0  0  0  0  0  0
  -19.1538  -28.8851   23.2900 C   0  0  0  0  0  0
  -18.9452  -30.1449   23.8909 C   0  0  0  0  0  0
  -17.6452  -30.6586   24.0570 C   0  0  0  0  0  0
  -25.9067  -34.9460   23.5117 C   0  0  0  0  0  0
  -16.5345  -29.9093   23.6322 C   0  0  0  0  0  0
  -16.7269  -28.6507   23.0355 C   0  0  0  0  0  0
  -26.4519  -31.6553   25.0684 C   0  0  0  0  0  0
  -25.3770  -31.3670   26.1418 C   0  0  0  0  0  0
  -27.0325  -30.2985   24.6054 C   0  0  0  0  0  0
  -27.6096  -32.4228   25.7464 C   0  0  0  0  0  0
  -27.5582  -37.1794   24.8470 C   0  0  0  0  0  0
  -21.4199  -29.3040   22.3710 N   0  0  0  0  0  0
  -26.4284  -37.3770   23.9431 N   0  0  0  0  0  0
  -24.6838  -31.0631   22.1002 N   0  0  0  0  0  0
  -23.4183  -28.8165   23.3058 O   0  0  0  0  0  0
  -28.3038  -26.4587   20.0371 O   0  0  0  0  0  0
  -26.5605  -34.8912   22.4664 O   0  0  0  0  0  0
  -23.5399  -32.1450   23.7371 O   0  0  0  0  0  0
  -27.9357  -18.0150   21.2405 C   0  0  0  0  0  0
  -29.7357  -19.6366   20.9897 C   0  0  0  0  0  0
  -27.4355  -20.4207   21.1076 C   0  0  0  0  0  0
  -29.3184  -18.2549   21.0784 C   0  0  0  0  0  0
  -27.0098  -19.0828   21.2619 C   0  0  0  0  0  0
  -28.8070  -20.7403   21.0038 C   0  0  0  0  0  0
  -28.8328  -25.8410   21.1602 C   0  0  0  0  0  0
  -30.3239  -17.0834   21.0907 C   0  0  0  0  0  0
  -29.0565  -24.5082   21.4380 C   0  0  0  0  0  0
  -28.6339  -23.3046   20.6600 C   0  0  0  0  0  0
  -25.6562  -18.8200   21.4704 N   0  0  0  0  0  0
  -29.2297  -22.1389   21.0881 N   0  0  0  0  0  0
  -29.9016  -15.7894   20.8678 N   0  0  0  0  0  0
  -31.5069  -17.3670   21.3073 O   0  0  0  0  0  0
  -27.8341  -23.3203   19.7226 O   0  0  0  0  0  0
  -29.7229  -24.2595   22.5796 O   0  0  0  0  0  0
  -31.4693  -12.5473   19.1847 H   0  0  0  0  0  0
  -30.3593  -11.4531   19.9602 H   0  0  0  0  0  0
  -29.7900  -11.7379   17.5219 H   0  0  0  0  0  0
  -29.6592  -13.4656   17.7387 H   0  0  0  0  0  0
  -27.8507  -11.3048   18.8637 H   0  0  0  0  0  0
  -27.3969  -12.5957   17.7836 H   0  0  0  0  0  0
  -27.6455  -14.2639   19.5017 H   0  0  0  0  0  0
  -28.6960  -12.1307   21.4225 H   0  0  0  0  0  0
  -28.4105  -13.8025   21.8168 H   0  0  0  0  0  0
  -25.2798   -9.5703   22.4719 H   0  0  0  0  0  0
  -24.0021   -7.4653   22.7446 H   0  0  0  0  0  0
  -21.0798   -8.8862   19.9037 H   0  0  0  0  0  0
  -22.3701  -10.9703   19.6181 H   0  0  0  0  0  0
  -21.2026   -7.6156   23.9714 H   0  0  0  0  0  0
  -21.1452   -6.0543   25.9072 H   0  0  0  0  0  0
  -22.0579   -2.7621   23.2884 H   0  0  0  0  0  0
  -22.4265  -12.0017   22.5140 H   0  0  0  0  0  0
  -21.1228  -13.1339   22.2920 H   0  0  0  0  0  0
  -24.6466  -15.8449   20.5365 H   0  0  0  0  0  0
  -26.2351  -15.6407   20.0228 H   0  0  0  0  0  0
  -26.7153  -32.5490   23.1082 H   0  0  0  0  0  0
  -25.0139  -33.9744   25.0469 H   0  0  0  0  0  0
  -22.7092  -31.2970   21.4044 H   0  0  0  0  0  0
  -23.3758  -35.9615   23.3308 H   0  0  0  0  0  0
  -24.3581  -36.8882   22.2042 H   0  0  0  0  0  0
  -23.7233  -37.6497   23.6617 H   0  0  0  0  0  0
  -26.0678  -31.5535   20.5949 H   0  0  0  0  0  0
  -26.8412  -30.8648   21.9901 H   0  0  0  0  0  0
  -28.1234  -28.9980   21.1983 H   0  0  0  0  0  0
  -26.0208  -25.9132   19.0509 H   0  0  0  0  0  0
  -23.9760  -27.2924   19.0360 H   0  0  0  0  0  0
  -23.7573  -30.5911   19.4075 H   0  0  0  0  0  0
  -22.7574  -29.2410   19.8608 H   0  0  0  0  0  0
  -25.1271  -36.1946   25.0816 H   0  0  0  0  0  0
  -20.9953  -28.3241   24.1431 H   0  0  0  0  0  0
  -20.5693  -26.2276   23.3606 H   0  0  0  0  0  0
  -21.6646  -26.7468   22.1190 H   0  0  0  0  0  0
  -19.6941  -25.6335   21.1228 H   0  0  0  0  0  0
  -19.6689  -27.3225   20.6753 H   0  0  0  0  0  0
  -17.4200  -26.6677   21.4040 H   0  0  0  0  0  0
  -18.0351  -26.0044   22.9007 H   0  0  0  0  0  0
  -19.7919  -30.7272   24.2286 H   0  0  0  0  0  0
  -17.5002  -31.6267   24.5173 H   0  0  0  0  0  0
  -15.5350  -30.3003   23.7629 H   0  0  0  0  0  0
  -15.8667  -28.0834   22.7056 H   0  0  0  0  0  0
  -24.5972  -30.6975   25.7755 H   0  0  0  0  0  0
  -24.8934  -32.2829   26.4823 H   0  0  0  0  0  0
  -25.8146  -30.8885   27.0199 H   0  0  0  0  0  0
  -26.2869  -29.6770   24.1078 H   0  0  0  0  0  0
  -27.4066  -29.7166   25.4493 H   0  0  0  0  0  0
  -27.8718  -30.4287   23.9212 H   0  0  0  0  0  0
  -27.2755  -33.3528   26.2081 H   0  0  0  0  0  0
  -28.3925  -32.6796   25.0304 H   0  0  0  0  0  0
  -28.0752  -31.8310   26.5359 H   0  0  0  0  0  0
  -28.2588  -38.0101   24.7518 H   0  0  0  0  0  0
  -28.1087  -36.2636   24.6282 H   0  0  0  0  0  0
  -27.2309  -37.1416   25.8872 H   0  0  0  0  0  0
  -20.9373  -29.8719   21.6898 H   0  0  0  0  0  0
  -26.0187  -38.2849   24.1438 H   0  0  0  0  0  0
  -27.5812  -17.0024   21.3724 H   0  0  0  0  0  0
  -30.7935  -19.8515   20.9212 H   0  0  0  0  0  0
  -26.7030  -21.2162   21.1482 H   0  0  0  0  0  0
  -29.1421  -26.6029   21.8631 H   0  0  0  0  0  0
  -25.3958  -18.0031   22.0189 H   0  0  0  0  0  0
  -25.0299  -19.6054   21.6287 H   0  0  0  0  0  0
  -29.9890  -22.3256   21.7294 H   0  0  0  0  0  0
  -28.9074  -15.6495   20.8835 H   0  0  0  0  0  0
  -29.9327  -25.0951   22.9759 H   0  0  0  0  0  0
  1 25  1  0  0  0
  1 30  2  0  0  0
  1 83  1  0  0  0
  2  3  1  0  0  0
  2 25  1  0  0  0
  2 87  1  0  0  0
  2 88  1  0  0  0
  3  4  1  0  0  0
  3 89  1  0  0  0
  3 90  1  0  0  0
  4  5  1  0  0  0
  4 91  1  0  0  0
  4 92  1  0  0  0
  5  6  1  0  0  0
  5 26  1  0  0  0
  5 93  1  0  0  0
  6 25  1  0  0  0
  6 94  1  0  0  0
  6 95  1  0  0  0
  7  8  2  0  0  0
  7 26  1  0  0  0
  7 29  1  0  0  0
  8  9  1  0  0  0
  8 22  1  0  0  0
  9 10  1  0  0  0
  9 27  2  0  0  0
 10 11  2  0  0  0
 10 15  1  0  0  0
 11 12  1  0  0  0
 11 96  1  0  0  0
 12 13  2  0  0  0
 12 97  1  0  0  0
 13 14  1  0  0  0
 13 31  1  0  0  0
 14 15  2  0  0  0
 14 98  1  0  0  0
 15 99  1  0  0  0
 16 17  2  0  0  0
 16 21  1  0  0  0
 16 31  1  0  0  0
 17 18  1  0  0  0
 17100  1  0  0  0
 18 19  2  0  0  0
 18101  1  0  0  0
 19 20  1  0  0  0
 19 24  1  0  0  0
 20 21  2  0  0  0
 20102  1  0  0  0
 21 23  1  0  0  0
 22 28  1  0  0  0
 22 32  2  0  0  0
 26 27  1  0  0  0
 28103  1  0  0  0
 28104  1  0  0  0
 29105  1  0  0  0
 29106  1  0  0  0
 33 34  1  0  0  0
 33 66  1  0  0  0
 33 70  2  0  0  0
 34 36  1  0  0  0
 34 59  1  0  0  0
 34107  1  0  0  0
 35 44  2  0  0  0
 35 45  1  0  0  0
 35 68  1  0  0  0
 36 56  1  0  0  0
 36108  1  0  0  0
 37 39  1  0  0  0
 37 47  1  0  0  0
 37 66  1  0  0  0
 37109  1  0  0  0
 38 43  2  0  0  0
 38 46  1  0  0  0
 38 47  1  0  0  0
 39 64  1  0  0  0
 39 67  2  0  0  0
 40 52  1  0  0  0
 40 53  2  0  0  0
 40 58  1  0  0  0
 41110  1  0  0  0
 41111  1  0  0  0
 41112  1  0  0  0
 41 48  1  0  0  0
 42 43  1  0  0  0
 42 66  1  0  0  0
 42113  1  0  0  0
 42114  1  0  0  0
 43 44  1  0  0  0
 44115  1  0  0  0
 45 46  2  0  0  0
 45116  1  0  0  0
 46117  1  0  0  0
 47118  1  0  0  0
 47119  1  0  0  0
 48 56  1  0  0  0
 48 65  1  0  0  0
 48120  1  0  0  0
 49 50  1  0  0  0
 49 53  1  0  0  0
 49 64  1  0  0  0
 49121  1  0  0  0
 50 51  1  0  0  0
 50122  1  0  0  0
 50123  1  0  0  0
 51 52  1  0  0  0
 51124  1  0  0  0
 51125  1  0  0  0
 52126  1  0  0  0
 52127  1  0  0  0
 53 54  1  0  0  0
 54 55  2  0  0  0
 54128  1  0  0  0
 55 57  1  0  0  0
 55129  1  0  0  0
 56 69  2  0  0  0
 57 58  2  0  0  0
 57130  1  0  0  0
 58131  1  0  0  0
 59 60  1  0  0  0
 59 61  1  0  0  0
 59 62  1  0  0  0
 60132  1  0  0  0
 60133  1  0  0  0
 60134  1  0  0  0
 61135  1  0  0  0
 61136  1  0  0  0
 61137  1  0  0  0
 62138  1  0  0  0
 62139  1  0  0  0
 62140  1  0  0  0
 63 65  1  0  0  0
 63141  1  0  0  0
 63142  1  0  0  0
 63143  1  0  0  0
 64144  1  0  0  0
 65145  1  0  0  0
 68 77  1  0  0  0
 71 74  2  0  0  0
 71 75  1  0  0  0
 71146  1  0  0  0
 72 74  1  0  0  0
 72 76  2  0  0  0
 72147  1  0  0  0
 73 75  2  0  0  0
 73 76  1  0  0  0
 73148  1  0  0  0
 74 78  1  0  0  0
 75 81  1  0  0  0
 76 82  1  0  0  0
 77 79  2  0  0  0
 77149  1  0  0  0
 78 83  1  0  0  0
 78 84  2  0  0  0
 79 80  1  0  0  0
 79 86  1  0  0  0
 80 82  1  0  0  0
 80 85  2  0  0  0
 81150  1  0  0  0
 81151  1  0  0  0
 82152  1  0  0  0
 83153  1  0  0  0
 86154  1  0  0  0
M  ISO  4   1 100  68 101  77 101  83 100
M  END
> <chiral flag>
0

> <version>
0

> <s_m_source_file>
/data/baiqing/PycharmProjects/Reinvent-master-3.2/result/LINK_invent/BTK/process_docking_weight1_custom_product_contain_oxygen_bond_distance_aromatic_linkinvent_7_9_3/rearranged_h_0091.sdf

> <i_m_source_file_index>
2

> <r_mmod_Potential_Energy-OPLS-2005>
-71.8231201171875

> <r_mmod_Stretch_Energy-OPLS-2005>
76.087028503418

> <r_mmod_Bend_Energy-OPLS-2005>
150.742416381836

> <r_mmod_Torsional_Energy-OPLS-2005>
257.508666992188

> <r_mmod_Improper_Torsional_Energy-OPLS-2005>
9.68522644042969

> <r_mmod_Van_der_Waal_Energy-OPLS-2005>
143.248306274414

> <r_mmod_Electrostatic_Energy-OPLS-2005>
-506.509368896484

> <r_mmod_Solvation_Energy-OPLS-2005>
-256.962280273438

> <b_mmod_Minimization_Converged-OPLS-2005>
0

> <r_mmod_RMS_Derivative-OPLS-2005>
4.70310497283936

$$$$
2
                    3D
 Structure written by MMmdl.
154163  0  0  1  0            999 V2000
  -30.6493  -14.6734   20.4669 C   0  0  0  0  0  0
  -30.4254  -12.4069   19.4673 C   0  0  0  0  0  0
  -29.5060  -12.4992   18.2307 C   0  0  0  0  0  0
  -28.0301  -12.3385   18.6428 C   0  0  0  0  0  0
  -27.6456  -13.2295   19.8549 C   0  0  2  0  0  0
  -28.6911  -13.1376   20.9886 C   0  0  0  0  0  0
  -25.2518  -13.8192   20.5698 C   0  0  0  0  0  0
  -24.1809  -13.0435   20.9209 C   0  0  0  0  0  0
  -24.6402  -11.6915   20.8752 C   0  0  0  0  0  0
  -23.9079  -10.4291   21.0409 C   0  0  0  0  0  0
  -24.3627   -9.4202   21.9183 C   0  0  0  0  0  0
  -23.6298   -8.2241   22.0754 C   0  0  0  0  0  0
  -22.4278   -8.0282   21.3546 C   0  0  0  0  0  0
  -21.9917   -9.0258   20.4648 C   0  0  0  0  0  0
  -22.7252  -10.2133   20.3056 C   0  0  0  0  0  0
  -21.6852   -6.0736   22.5281 C   0  0  0  0  0  0
  -21.4016   -6.5641   23.8215 C   0  0  0  0  0  0
  -21.3660   -5.6794   24.9177 C   0  0  0  0  0  0
  -21.6044   -4.3056   24.7227 C   0  0  0  0  0  0
  -21.8818   -3.8146   23.4349 C   0  0  0  0  0  0
  -21.9192   -4.6963   22.3403 C   0  0  0  0  0  0
  -22.7828  -13.5213   21.1868 C   0  0  0  0  0  0
  -22.1656   -4.2149   21.0980 F   0  0  0  0  0  0
  -21.5633   -3.4540   25.7739 F   0  0  0  0  0  0
  -30.0006  -13.4646   20.4104 N   0  0  0  0  0  0
  -26.2958  -12.9404   20.3305 N   0  0  0  0  0  0
  -25.9335  -11.6545   20.5767 N   0  0  0  0  0  0
  -22.0476  -12.8201   22.0424 N   0  0  0  0  0  0
  -25.4181  -15.1920   20.4096 N   0  0  0  0  0  0
  -31.8377  -14.7376   20.1438 O   0  0  0  0  0  0
  -21.6640   -6.8881   21.4244 O   0  0  0  0  0  0
  -22.3511  -14.5514   20.6712 O   0  0  0  0  0  0
  -24.6272  -31.8593   23.2026 C   0  0  0  0  0  0
  -25.9114  -32.4779   23.8356 C   0  0  1  0  0  0
  -27.2173  -27.3114   20.1200 C   0  0  0  0  0  0
  -25.5925  -33.8579   24.2279 N   0  0  0  0  0  0
  -23.4226  -30.4831   21.5451 C   0  0  2  0  0  0
  -24.8713  -28.9414   20.1069 C   0  0  0  0  0  0
  -22.7485  -29.4618   22.4925 C   0  0  0  0  0  0
  -18.0289  -28.1391   22.8487 C   0  0  0  0  0  0
  -24.1490  -36.7292   23.2640 C   0  0  0  0  0  0
  -25.9655  -30.7866   21.3780 C   0  0  0  0  0  0
  -26.0411  -29.4145   20.7179 C   0  0  0  0  0  0
  -27.2212  -28.6091   20.7196 C   0  0  0  0  0  0
  -26.0321  -26.8995   19.4733 C   0  0  0  0  0  0
  -24.8686  -27.6891   19.4742 C   0  0  0  0  0  0
  -23.6390  -29.8213   20.1590 C   0  0  0  0  0  0
  -25.4115  -36.3084   24.0329 C   0  0  1  0  0  0
  -20.5890  -28.3695   23.1278 C   0  0  2  0  0  0
  -20.6780  -26.9416   22.5411 C   0  0  0  0  0  0
  -19.5756  -26.6388   21.5215 C   0  0  0  0  0  0
  -18.1934  -26.7935   22.1624 C   0  0  0  0  0  0
  -19.1542  -28.8860   23.2880 C   0  0  0  0  0  0
  -18.9464  -30.1462   23.8897 C   0  0  0  0  0  0
  -17.6463  -30.6594   24.0563 C   0  0  0  0  0  0
  -25.9050  -34.9453   23.5104 C   0  0  0  0  0  0
  -16.5354  -29.9091   23.6335 C   0  0  0  0  0  0
  -16.7275  -28.6509   23.0353 C   0  0  0  0  0  0
  -26.4494  -31.6593   25.0730 C   0  0  0  0  0  0
  -25.3722  -31.3735   26.1451 C   0  0  0  0  0  0
  -27.0340  -30.3015   24.6197 C   0  0  0  0  0  0
  -27.6052  -32.4328   25.7501 C   0  0  0  0  0  0
  -27.5580  -37.1804   24.8464 C   0  0  0  0  0  0
  -21.4196  -29.3045   22.3668 N   0  0  0  0  0  0
  -26.4293  -37.3778   23.9407 N   0  0  0  0  0  0
  -24.6904  -31.0595   22.0986 N   0  0  0  0  0  0
  -23.4202  -28.8152   23.3005 O   0  0  0  0  0  0
  -28.2710  -26.3860   20.1804 O   0  0  0  0  0  0
  -26.5616  -34.8920   22.4670 O   0  0  0  0  0  0
  -23.5431  -32.1392   23.7346 O   0  0  0  0  0  0
  -29.3748  -18.3075   20.5833 C   0  0  0  0  0  0
  -31.3490  -19.4087   20.0805 C   0  0  0  0  0  0
  -30.0135  -19.6061   20.3172 C   0  0  0  0  0  0
  -30.2028  -17.1678   20.5225 C   0  0  0  0  0  0
  -28.3304  -23.8393   20.4212 C   0  0  0  0  0  0
  -27.9234  -25.1254   20.7179 C   0  0  0  0  0  0
  -27.6104  -22.6169   21.0225 C   0  0  0  0  0  0
  -29.3585  -23.3839   19.3880 C   0  0  0  0  0  0
  -28.4769  -21.3505   21.3512 C   0  0  0  0  0  0
  -30.1676  -22.0869   19.7740 C   0  0  0  0  0  0
  -29.3831  -20.9279   20.2740 N   0  0  0  0  0  0
  -29.8893  -15.8095   20.6861 N   0  0  0  0  0  0
  -31.8284  -17.7338   20.1745 S   0  0  0  0  0  0
  -31.4702  -12.5062   19.1678 H   0  0  0  0  0  0
  -30.3436  -11.4253   19.9368 H   0  0  0  0  0  0
  -29.7747  -11.7344   17.5008 H   0  0  0  0  0  0
  -29.6483  -13.4607   17.7346 H   0  0  0  0  0  0
  -27.8735  -11.2885   18.8926 H   0  0  0  0  0  0
  -27.3762  -12.5493   17.7957 H   0  0  0  0  0  0
  -27.6473  -14.2559   19.4876 H   0  0  0  0  0  0
  -28.7075  -12.1350   21.4185 H   0  0  0  0  0  0
  -28.4403  -13.8150   21.8063 H   0  0  0  0  0  0
  -25.2771   -9.5674   22.4756 H   0  0  0  0  0  0
  -24.0005   -7.4631   22.7475 H   0  0  0  0  0  0
  -21.0846   -8.8787   19.8951 H   0  0  0  0  0  0
  -22.3718  -10.9678   19.6165 H   0  0  0  0  0  0
  -21.2010   -7.6150   23.9720 H   0  0  0  0  0  0
  -21.1481   -6.0523   25.9081 H   0  0  0  0  0  0
  -22.0595   -2.7607   23.2853 H   0  0  0  0  0  0
  -22.4103  -11.9868   22.4813 H   0  0  0  0  0  0
  -21.1092  -13.1221   22.2632 H   0  0  0  0  0  0
  -24.6432  -15.8386   20.5103 H   0  0  0  0  0  0
  -26.2558  -15.6339   20.0538 H   0  0  0  0  0  0
  -26.7179  -32.5451   23.1102 H   0  0  0  0  0  0
  -25.0072  -33.9725   25.0423 H   0  0  0  0  0  0
  -22.7171  -31.3041   21.4023 H   0  0  0  0  0  0
  -23.3753  -35.9625   23.3310 H   0  0  0  0  0  0
  -24.3576  -36.8905   22.2051 H   0  0  0  0  0  0
  -23.7243  -37.6498   23.6654 H   0  0  0  0  0  0
  -26.0996  -31.5507   20.6112 H   0  0  0  0  0  0
  -26.8445  -30.8339   22.0090 H   0  0  0  0  0  0
  -28.1145  -28.9559   21.2201 H   0  0  0  0  0  0
  -25.9953  -25.9316   18.9931 H   0  0  0  0  0  0
  -23.9732  -27.3213   18.9922 H   0  0  0  0  0  0
  -23.7582  -30.5998   19.4044 H   0  0  0  0  0  0
  -22.7592  -29.2514   19.8550 H   0  0  0  0  0  0
  -25.1298  -36.1939   25.0820 H   0  0  0  0  0  0
  -20.9982  -28.3277   24.1399 H   0  0  0  0  0  0
  -20.5693  -26.2301   23.3613 H   0  0  0  0  0  0
  -21.6649  -26.7452   22.1198 H   0  0  0  0  0  0
  -19.6918  -25.6299   21.1247 H   0  0  0  0  0  0
  -19.6697  -27.3197   20.6746 H   0  0  0  0  0  0
  -17.4204  -26.6684   21.4027 H   0  0  0  0  0  0
  -18.0330  -26.0080   22.9023 H   0  0  0  0  0  0
  -19.7937  -30.7280   24.2269 H   0  0  0  0  0  0
  -17.5016  -31.6273   24.5163 H   0  0  0  0  0  0
  -15.5354  -30.2990   23.7665 H   0  0  0  0  0  0
  -15.8674  -28.0829   22.7069 H   0  0  0  0  0  0
  -24.5895  -30.7088   25.7777 H   0  0  0  0  0  0
  -24.8914  -32.2903   26.4873 H   0  0  0  0  0  0
  -25.8039  -30.8912   27.0230 H   0  0  0  0  0  0
  -26.2923  -29.6766   24.1210 H   0  0  0  0  0  0
  -27.4020  -29.7273   25.4711 H   0  0  0  0  0  0
  -27.8799  -30.4301   23.9439 H   0  0  0  0  0  0
  -27.2662  -33.3626   26.2081 H   0  0  0  0  0  0
  -28.3861  -32.6893   25.0330 H   0  0  0  0  0  0
  -28.0720  -31.8452   26.5416 H   0  0  0  0  0  0
  -28.2601  -38.0098   24.7507 H   0  0  0  0  0  0
  -28.1074  -36.2629   24.6298 H   0  0  0  0  0  0
  -27.2294  -37.1462   25.8866 H   0  0  0  0  0  0
  -20.9373  -29.8764   21.6875 H   0  0  0  0  0  0
  -26.0178  -38.2854   24.1407 H   0  0  0  0  0  0
  -28.3147  -18.2546   20.7862 H   0  0  0  0  0  0
  -32.1106  -20.1443   19.8581 H   0  0  0  0  0  0
  -27.1368  -25.2519   21.4511 H   0  0  0  0  0  0
  -26.8517  -22.3225   20.2956 H   0  0  0  0  0  0
  -27.0588  -22.9194   21.9135 H   0  0  0  0  0  0
  -30.0402  -24.2062   19.1678 H   0  0  0  0  0  0
  -28.8134  -23.1861   18.4645 H   0  0  0  0  0  0
  -27.8147  -20.5241   21.6136 H   0  0  0  0  0  0
  -29.0762  -21.5498   22.2411 H   0  0  0  0  0  0
  -30.9012  -22.3486   20.5385 H   0  0  0  0  0  0
  -30.7427  -21.7797   18.8991 H   0  0  0  0  0  0
  -28.9269  -15.6122   20.9143 H   0  0  0  0  0  0
  1 25  1  0  0  0
  1 30  2  0  0  0
  1 82  1  0  0  0
  2  3  1  0  0  0
  2 25  1  0  0  0
  2 84  1  0  0  0
  2 85  1  0  0  0
  3  4  1  0  0  0
  3 86  1  0  0  0
  3 87  1  0  0  0
  4  5  1  0  0  0
  4 88  1  0  0  0
  4 89  1  0  0  0
  5  6  1  0  0  0
  5 26  1  0  0  0
  5 90  1  0  0  0
  6 25  1  0  0  0
  6 91  1  0  0  0
  6 92  1  0  0  0
  7  8  2  0  0  0
  7 26  1  0  0  0
  7 29  1  0  0  0
  8  9  1  0  0  0
  8 22  1  0  0  0
  9 10  1  0  0  0
  9 27  2  0  0  0
 10 11  2  0  0  0
 10 15  1  0  0  0
 11 12  1  0  0  0
 11 93  1  0  0  0
 12 13  2  0  0  0
 12 94  1  0  0  0
 13 14  1  0  0  0
 13 31  1  0  0  0
 14 15  2  0  0  0
 14 95  1  0  0  0
 15 96  1  0  0  0
 16 17  2  0  0  0
 16 21  1  0  0  0
 16 31  1  0  0  0
 17 18  1  0  0  0
 17 97  1  0  0  0
 18 19  2  0  0  0
 18 98  1  0  0  0
 19 20  1  0  0  0
 19 24  1  0  0  0
 20 21  2  0  0  0
 20 99  1  0  0  0
 21 23  1  0  0  0
 22 28  1  0  0  0
 22 32  2  0  0  0
 26 27  1  0  0  0
 28100  1  0  0  0
 28101  1  0  0  0
 29102  1  0  0  0
 29103  1  0  0  0
 33 34  1  0  0  0
 33 66  1  0  0  0
 33 70  2  0  0  0
 34 36  1  0  0  0
 34 59  1  0  0  0
 34104  1  0  0  0
 35 44  2  0  0  0
 35 45  1  0  0  0
 35 68  1  0  0  0
 36 56  1  0  0  0
 36105  1  0  0  0
 37 39  1  0  0  0
 37 47  1  0  0  0
 37 66  1  0  0  0
 37106  1  0  0  0
 38 43  2  0  0  0
 38 46  1  0  0  0
 38 47  1  0  0  0
 39 64  1  0  0  0
 39 67  2  0  0  0
 40 52  1  0  0  0
 40 53  2  0  0  0
 40 58  1  0  0  0
 41107  1  0  0  0
 41108  1  0  0  0
 41109  1  0  0  0
 41 48  1  0  0  0
 42 43  1  0  0  0
 42 66  1  0  0  0
 42110  1  0  0  0
 42111  1  0  0  0
 43 44  1  0  0  0
 44112  1  0  0  0
 45 46  2  0  0  0
 45113  1  0  0  0
 46114  1  0  0  0
 47115  1  0  0  0
 47116  1  0  0  0
 48 56  1  0  0  0
 48 65  1  0  0  0
 48117  1  0  0  0
 49 50  1  0  0  0
 49 53  1  0  0  0
 49 64  1  0  0  0
 49118  1  0  0  0
 50 51  1  0  0  0
 50119  1  0  0  0
 50120  1  0  0  0
 51 52  1  0  0  0
 51121  1  0  0  0
 51122  1  0  0  0
 52123  1  0  0  0
 52124  1  0  0  0
 53 54  1  0  0  0
 54 55  2  0  0  0
 54125  1  0  0  0
 55 57  1  0  0  0
 55126  1  0  0  0
 56 69  2  0  0  0
 57 58  2  0  0  0
 57127  1  0  0  0
 58128  1  0  0  0
 59 60  1  0  0  0
 59 61  1  0  0  0
 59 62  1  0  0  0
 60129  1  0  0  0
 60130  1  0  0  0
 60131  1  0  0  0
 61132  1  0  0  0
 61133  1  0  0  0
 61134  1  0  0  0
 62135  1  0  0  0
 62136  1  0  0  0
 62137  1  0  0  0
 63 65  1  0  0  0
 63138  1  0  0  0
 63139  1  0  0  0
 63140  1  0  0  0
 64141  1  0  0  0
 65142  1  0  0  0
 68 76  1  0  0  0
 71 73  1  0  0  0
 71 74  2  0  0  0
 71143  1  0  0  0
 72 73  2  0  0  0
 72 83  1  0  0  0
 72144  1  0  0  0
 73 81  1  0  0  0
 74 82  1  0  0  0
 74 83  1  0  0  0
 75 76  2  0  0  0
 75 77  1  0  0  0
 75 78  1  0  0  0
 76145  1  0  0  0
 77 79  1  0  0  0
 77146  1  0  0  0
 77147  1  0  0  0
 78 80  1  0  0  0
 78148  1  0  0  0
 78149  1  0  0  0
 79 81  1  0  0  0
 79150  1  0  0  0
 79151  1  0  0  0
 80 81  1  0  0  0
 80152  1  0  0  0
 80153  1  0  0  0
 82154  1  0  0  0
M  ISO  4   1 100  68 101  76 101  82 100
M  END
> <chiral flag>
0

> <version>
0

> <s_m_source_file>
/data/baiqing/PycharmProjects/Reinvent-master-3.2/result/LINK_invent/BTK/process_docking_weight1_custom_product_contain_oxygen_bond_distance_aromatic_linkinvent_7_9_3/rearranged_h_0091.sdf

> <i_m_source_file_index>
3

> <r_mmod_Potential_Energy-OPLS-2005>
70.2422943115234

> <r_mmod_Stretch_Energy-OPLS-2005>
82.3319244384766

> <r_mmod_Bend_Energy-OPLS-2005>
148.309356689453

> <r_mmod_Torsional_Energy-OPLS-2005>
243.74235534668

> <r_mmod_Improper_Torsional_Energy-OPLS-2005>
8.2690544128418

> <r_mmod_Van_der_Waal_Energy-OPLS-2005>
135.057769775391

> <r_mmod_Electrostatic_Energy-OPLS-2005>
-384.112121582031

> <r_mmod_Solvation_Energy-OPLS-2005>
-227.565277099609

> <b_mmod_Minimization_Converged-OPLS-2005>
0

> <r_mmod_RMS_Derivative-OPLS-2005>
0.544025123119354

$$$$
3
                    3D
 Structure written by MMmdl.
158167  0  0  1  0            999 V2000
  -30.6236  -14.7670   20.4516 C   0  0  0  0  0  0
  -30.4302  -12.4686   19.4782 C   0  0  0  0  0  0
  -29.5114  -12.5113   18.2390 C   0  0  0  0  0  0
  -28.0373  -12.3362   18.6519 C   0  0  0  0  0  0
  -27.6399  -13.2378   19.8512 C   0  0  2  0  0  0
  -28.6857  -13.1890   20.9858 C   0  0  0  0  0  0
  -25.2501  -13.8201   20.5689 C   0  0  0  0  0  0
  -24.1804  -13.0443   20.9201 C   0  0  0  0  0  0
  -24.6404  -11.6928   20.8734 C   0  0  0  0  0  0
  -23.9082  -10.4302   21.0407 C   0  0  0  0  0  0
  -24.3629   -9.4209   21.9181 C   0  0  0  0  0  0
  -23.6300   -8.2243   22.0751 C   0  0  0  0  0  0
  -22.4284   -8.0279   21.3536 C   0  0  0  0  0  0
  -21.9920   -9.0257   20.4637 C   0  0  0  0  0  0
  -22.7257  -10.2140   20.3048 C   0  0  0  0  0  0
  -21.6859   -6.0728   22.5286 C   0  0  0  0  0  0
  -21.4015   -6.5631   23.8212 C   0  0  0  0  0  0
  -21.3657   -5.6785   24.9172 C   0  0  0  0  0  0
  -21.6050   -4.3052   24.7227 C   0  0  0  0  0  0
  -21.8818   -3.8145   23.4348 C   0  0  0  0  0  0
  -21.9194   -4.6953   22.3402 C   0  0  0  0  0  0
  -22.7825  -13.5219   21.1868 C   0  0  0  0  0  0
  -22.1667   -4.2136   21.0980 F   0  0  0  0  0  0
  -21.5627   -3.4542   25.7745 F   0  0  0  0  0  0
  -29.9844  -13.5443   20.3985 N   0  0  0  0  0  0
  -26.2935  -12.9425   20.3292 N   0  0  0  0  0  0
  -25.9334  -11.6562   20.5739 N   0  0  0  0  0  0
  -22.0477  -12.8196   22.0420 N   0  0  0  0  0  0
  -25.4180  -15.1918   20.4133 N   0  0  0  0  0  0
  -31.8168  -14.8157   20.1487 O   0  0  0  0  0  0
  -21.6642   -6.8874   21.4249 O   0  0  0  0  0  0
  -22.3500  -14.5523   20.6724 O   0  0  0  0  0  0
  -24.6328  -31.8552   23.1978 C   0  0  0  0  0  0
  -25.9157  -32.4768   23.8319 C   0  0  1  0  0  0
  -27.2121  -27.2433   20.1454 C   0  0  0  0  0  0
  -25.5938  -33.8554   24.2249 N   0  0  0  0  0  0
  -23.4326  -30.4791   21.5398 C   0  0  2  0  0  0
  -24.8845  -28.9268   20.1076 C   0  0  0  0  0  0
  -22.7517  -29.4610   22.4885 C   0  0  0  0  0  0
  -18.0326  -28.1445   22.8521 C   0  0  0  0  0  0
  -24.1480  -36.7275   23.2634 C   0  0  0  0  0  0
  -25.9798  -30.7638   21.3822 C   0  0  0  0  0  0
  -26.0546  -29.3848   20.7264 C   0  0  0  0  0  0
  -27.2246  -28.5526   20.7431 C   0  0  0  0  0  0
  -26.0267  -26.8679   19.4830 C   0  0  0  0  0  0
  -24.8755  -27.6779   19.4708 C   0  0  0  0  0  0
  -23.6548  -29.8155   20.1534 C   0  0  0  0  0  0
  -25.4099  -36.3069   24.0336 C   0  0  1  0  0  0
  -20.5925  -28.3748   23.1282 C   0  0  2  0  0  0
  -20.6806  -26.9475   22.5418 C   0  0  0  0  0  0
  -19.5736  -26.6435   21.5254 C   0  0  0  0  0  0
  -18.1946  -26.7995   22.1667 C   0  0  0  0  0  0
  -19.1569  -28.8920   23.2899 C   0  0  0  0  0  0
  -18.9475  -30.1525   23.8912 C   0  0  0  0  0  0
  -17.6468  -30.6632   24.0601 C   0  0  0  0  0  0
  -25.9036  -34.9447   23.5089 C   0  0  0  0  0  0
  -16.5364  -29.9129   23.6356 C   0  0  0  0  0  0
  -16.7312  -28.6550   23.0374 C   0  0  0  0  0  0
  -26.4501  -31.6593   25.0714 C   0  0  0  0  0  0
  -25.3712  -31.3764   26.1428 C   0  0  0  0  0  0
  -27.0343  -30.3005   24.6221 C   0  0  0  0  0  0
  -27.6045  -32.4337   25.7497 C   0  0  0  0  0  0
  -27.5574  -37.1791   24.8456 C   0  0  0  0  0  0
  -21.4207  -29.3072   22.3631 N   0  0  0  0  0  0
  -26.4262  -37.3787   23.9419 N   0  0  0  0  0  0
  -24.7010  -31.0517   22.0959 N   0  0  0  0  0  0
  -23.4218  -28.8163   23.3007 O   0  0  0  0  0  0
  -28.2067  -26.2362   20.2518 O   0  0  0  0  0  0
  -26.5616  -34.8928   22.4663 O   0  0  0  0  0  0
  -23.5467  -32.1359   23.7285 O   0  0  0  0  0  0
  -30.8270  -20.1981   20.0887 C   0  0  0  0  0  0
  -31.4818  -17.8199   20.0660 C   0  0  0  0  0  0
  -29.5092  -19.9149   20.5241 C   0  0  0  0  0  0
  -31.7889  -19.1848   19.8792 C   0  0  0  0  0  0
  -30.1945  -17.3912   20.4727 C   0  0  0  0  0  0
  -29.2297  -18.4672   20.6935 C   0  0  0  0  0  0
  -28.0410  -23.7336   21.1852 C   0  0  0  0  0  0
  -27.2509  -23.1679   22.2968 C   0  0  0  0  0  0
  -27.8164  -25.1221   21.0598 C   0  0  0  0  0  0
  -28.9001  -22.5647   20.4824 C   0  0  0  0  0  0
  -26.5565  -21.8522   22.0194 C   0  0  0  0  0  0
  -27.5817  -20.7473   21.7838 C   0  0  0  0  0  0
  -28.6134  -21.0632   20.7822 N   0  0  0  0  0  0
  -33.0781  -19.5393   19.4740 N   0  0  0  0  0  0
  -29.8699  -15.9295   20.6419 N   0  0  0  0  0  0
  -27.1090  -23.7041   23.4033 O   0  0  0  0  0  0
  -27.9971  -18.0481   21.0675 F   0  0  0  0  0  0
  -31.4716  -12.5808   19.1735 H   0  0  0  0  0  0
  -30.3695  -11.4964   19.9681 H   0  0  0  0  0  0
  -29.7939  -11.7332   17.5295 H   0  0  0  0  0  0
  -29.6399  -13.4602   17.7162 H   0  0  0  0  0  0
  -27.8921  -11.2878   18.9150 H   0  0  0  0  0  0
  -27.3818  -12.5253   17.8012 H   0  0  0  0  0  0
  -27.6293  -14.2571   19.4684 H   0  0  0  0  0  0
  -28.7240  -12.1940   21.4317 H   0  0  0  0  0  0
  -28.4169  -13.8735   21.7932 H   0  0  0  0  0  0
  -25.2772   -9.5682   22.4758 H   0  0  0  0  0  0
  -24.0006   -7.4626   22.7470 H   0  0  0  0  0  0
  -21.0842   -8.8772   19.8942 H   0  0  0  0  0  0
  -22.3705  -10.9672   19.6145 H   0  0  0  0  0  0
  -21.2014   -7.6139   23.9708 H   0  0  0  0  0  0
  -21.1480   -6.0517   25.9066 H   0  0  0  0  0  0
  -22.0601   -2.7608   23.2858 H   0  0  0  0  0  0
  -22.4107  -11.9849   22.4788 H   0  0  0  0  0  0
  -21.1081  -13.1196   22.2630 H   0  0  0  0  0  0
  -24.6531  -15.8469   20.5329 H   0  0  0  0  0  0
  -26.2709  -15.6383   20.1040 H   0  0  0  0  0  0
  -26.7218  -32.5427   23.1055 H   0  0  0  0  0  0
  -25.0070  -33.9673   25.0386 H   0  0  0  0  0  0
  -22.7300  -31.3024   21.3941 H   0  0  0  0  0  0
  -23.3731  -35.9614   23.3295 H   0  0  0  0  0  0
  -24.3549  -36.8890   22.2039 H   0  0  0  0  0  0
  -23.7225  -37.6471   23.6659 H   0  0  0  0  0  0
  -26.1146  -31.5202   20.6089 H   0  0  0  0  0  0
  -26.8547  -30.8167   22.0166 H   0  0  0  0  0  0
  -28.1053  -28.8828   21.2724 H   0  0  0  0  0  0
  -25.9741  -25.8974   19.0137 H   0  0  0  0  0  0
  -23.9841  -27.3193   18.9746 H   0  0  0  0  0  0
  -23.7811  -30.5897   19.3962 H   0  0  0  0  0  0
  -22.7752  -29.2502   19.8430 H   0  0  0  0  0  0
  -25.1288  -36.1893   25.0830 H   0  0  0  0  0  0
  -21.0058  -28.3355   24.1396 H   0  0  0  0  0  0
  -20.5766  -26.2373   23.3626 H   0  0  0  0  0  0
  -21.6667  -26.7514   22.1188 H   0  0  0  0  0  0
  -19.6861  -25.6343   21.1307 H   0  0  0  0  0  0
  -19.6675  -27.3235   20.6777 H   0  0  0  0  0  0
  -17.4225  -26.6805   21.4063 H   0  0  0  0  0  0
  -18.0281  -26.0124   22.9035 H   0  0  0  0  0  0
  -19.7927  -30.7371   24.2262 H   0  0  0  0  0  0
  -17.5009  -31.6313   24.5209 H   0  0  0  0  0  0
  -15.5360  -30.3046   23.7665 H   0  0  0  0  0  0
  -15.8706  -28.0885   22.7076 H   0  0  0  0  0  0
  -24.5900  -30.7098   25.7769 H   0  0  0  0  0  0
  -24.8890  -32.2947   26.4791 H   0  0  0  0  0  0
  -25.8033  -30.8983   27.0227 H   0  0  0  0  0  0
  -26.2931  -29.6758   24.1233 H   0  0  0  0  0  0
  -27.3954  -29.7271   25.4763 H   0  0  0  0  0  0
  -27.8857  -30.4238   23.9517 H   0  0  0  0  0  0
  -27.2640  -33.3634   26.2052 H   0  0  0  0  0  0
  -28.3891  -32.6882   25.0372 H   0  0  0  0  0  0
  -28.0674  -31.8456   26.5426 H   0  0  0  0  0  0
  -28.2590  -38.0094   24.7574 H   0  0  0  0  0  0
  -28.1083  -36.2647   24.6225 H   0  0  0  0  0  0
  -27.2320  -37.1395   25.8862 H   0  0  0  0  0  0
  -20.9393  -29.8794   21.6823 H   0  0  0  0  0  0
  -26.0125  -38.2838   24.1476 H   0  0  0  0  0  0
  -31.1304  -21.2202   19.9254 H   0  0  0  0  0  0
  -32.2668  -17.1058   19.8754 H   0  0  0  0  0  0
  -27.1207  -25.5374   21.7822 H   0  0  0  0  0  0
  -29.9344  -22.7786   20.7516 H   0  0  0  0  0  0
  -28.8334  -22.7188   19.4051 H   0  0  0  0  0  0
  -25.9174  -21.9708   21.1427 H   0  0  0  0  0  0
  -25.8941  -21.5979   22.8488 H   0  0  0  0  0  0
  -26.9817  -19.8962   21.4709 H   0  0  0  0  0  0
  -28.0610  -20.4805   22.7289 H   0  0  0  0  0  0
  -33.3823  -20.5043   19.5650 H   0  0  0  0  0  0
  -33.8368  -18.8751   19.5998 H   0  0  0  0  0  0
  -28.9044  -15.7510   20.8773 H   0  0  0  0  0  0
  1 25  1  0  0  0
  1 30  2  0  0  0
  1 85  1  0  0  0
  2  3  1  0  0  0
  2 25  1  0  0  0
  2 88  1  0  0  0
  2 89  1  0  0  0
  3  4  1  0  0  0
  3 90  1  0  0  0
  3 91  1  0  0  0
  4  5  1  0  0  0
  4 92  1  0  0  0
  4 93  1  0  0  0
  5  6  1  0  0  0
  5 26  1  0  0  0
  5 94  1  0  0  0
  6 25  1  0  0  0
  6 95  1  0  0  0
  6 96  1  0  0  0
  7  8  2  0  0  0
  7 26  1  0  0  0
  7 29  1  0  0  0
  8  9  1  0  0  0
  8 22  1  0  0  0
  9 10  1  0  0  0
  9 27  2  0  0  0
 10 11  2  0  0  0
 10 15  1  0  0  0
 11 12  1  0  0  0
 11 97  1  0  0  0
 12 13  2  0  0  0
 12 98  1  0  0  0
 13 14  1  0  0  0
 13 31  1  0  0  0
 14 15  2  0  0  0
 14 99  1  0  0  0
 15100  1  0  0  0
 16 17  2  0  0  0
 16 21  1  0  0  0
 16 31  1  0  0  0
 17 18  1  0  0  0
 17101  1  0  0  0
 18 19  2  0  0  0
 18102  1  0  0  0
 19 20  1  0  0  0
 19 24  1  0  0  0
 20 21  2  0  0  0
 20103  1  0  0  0
 21 23  1  0  0  0
 22 28  1  0  0  0
 22 32  2  0  0  0
 26 27  1  0  0  0
 28104  1  0  0  0
 28105  1  0  0  0
 29106  1  0  0  0
 29107  1  0  0  0
 33 34  1  0  0  0
 33 66  1  0  0  0
 33 70  2  0  0  0
 34 36  1  0  0  0
 34 59  1  0  0  0
 34108  1  0  0  0
 35 44  2  0  0  0
 35 45  1  0  0  0
 35 68  1  0  0  0
 36 56  1  0  0  0
 36109  1  0  0  0
 37 39  1  0  0  0
 37 47  1  0  0  0
 37 66  1  0  0  0
 37110  1  0  0  0
 38 43  2  0  0  0
 38 46  1  0  0  0
 38 47  1  0  0  0
 39 64  1  0  0  0
 39 67  2  0  0  0
 40 52  1  0  0  0
 40 53  2  0  0  0
 40 58  1  0  0  0
 41111  1  0  0  0
 41112  1  0  0  0
 41113  1  0  0  0
 41 48  1  0  0  0
 42 43  1  0  0  0
 42 66  1  0  0  0
 42114  1  0  0  0
 42115  1  0  0  0
 43 44  1  0  0  0
 44116  1  0  0  0
 45 46  2  0  0  0
 45117  1  0  0  0
 46118  1  0  0  0
 47119  1  0  0  0
 47120  1  0  0  0
 48 56  1  0  0  0
 48 65  1  0  0  0
 48121  1  0  0  0
 49 50  1  0  0  0
 49 53  1  0  0  0
 49 64  1  0  0  0
 49122  1  0  0  0
 50 51  1  0  0  0
 50123  1  0  0  0
 50124  1  0  0  0
 51 52  1  0  0  0
 51125  1  0  0  0
 51126  1  0  0  0
 52127  1  0  0  0
 52128  1  0  0  0
 53 54  1  0  0  0
 54 55  2  0  0  0
 54129  1  0  0  0
 55 57  1  0  0  0
 55130  1  0  0  0
 56 69  2  0  0  0
 57 58  2  0  0  0
 57131  1  0  0  0
 58132  1  0  0  0
 59 60  1  0  0  0
 59 61  1  0  0  0
 59 62  1  0  0  0
 60133  1  0  0  0
 60134  1  0  0  0
 60135  1  0  0  0
 61136  1  0  0  0
 61137  1  0  0  0
 61138  1  0  0  0
 62139  1  0  0  0
 62140  1  0  0  0
 62141  1  0  0  0
 63 65  1  0  0  0
 63142  1  0  0  0
 63143  1  0  0  0
 63144  1  0  0  0
 64145  1  0  0  0
 65146  1  0  0  0
 68 79  1  0  0  0
 71 73  2  0  0  0
 71 74  1  0  0  0
 71147  1  0  0  0
 72 74  2  0  0  0
 72 75  1  0  0  0
 72148  1  0  0  0
 73 76  1  0  0  0
 73 83  1  0  0  0
 74 84  1  0  0  0
 75 76  2  0  0  0
 75 85  1  0  0  0
 76 87  1  0  0  0
 77 78  1  0  0  0
 77 79  2  0  0  0
 77 80  1  0  0  0
 78 81  1  0  0  0
 78 86  2  0  0  0
 79149  1  0  0  0
 80 83  1  0  0  0
 80150  1  0  0  0
 80151  1  0  0  0
 81 82  1  0  0  0
 81152  1  0  0  0
 81153  1  0  0  0
 82 83  1  0  0  0
 82154  1  0  0  0
 82155  1  0  0  0
 84156  1  0  0  0
 84157  1  0  0  0
 85158  1  0  0  0
M  ISO  4   1 100  68 101  79 101  85 100
M  END
> <chiral flag>
0

> <version>
0

> <s_m_source_file>
/data/baiqing/PycharmProjects/Reinvent-master-3.2/result/LINK_invent/BTK/process_docking_weight1_custom_product_contain_oxygen_bond_distance_aromatic_linkinvent_7_9_3/rearranged_h_0091.sdf

> <i_m_source_file_index>
4

> <r_mmod_Potential_Energy-OPLS-2005>
366.556640625

> <r_mmod_Stretch_Energy-OPLS-2005>
163.44401550293

> <r_mmod_Bend_Energy-OPLS-2005>
240.97380065918

> <r_mmod_Torsional_Energy-OPLS-2005>
219.655334472656

> <r_mmod_Improper_Torsional_Energy-OPLS-2005>
8.55528736114502

> <r_mmod_Van_der_Waal_Energy-OPLS-2005>
166.519927978516

> <r_mmod_Electrostatic_Energy-OPLS-2005>
-308.772186279297

> <r_mmod_Solvation_Energy-OPLS-2005>
-233.682235717773

> <b_mmod_Minimization_Converged-OPLS-2005>
0

> <r_mmod_RMS_Derivative-OPLS-2005>
3.82791066169739

$$$$
4
                    3D
 Structure written by MMmdl.
163172  0  0  1  0            999 V2000
  -30.6695  -14.6627   20.5789 C   0  0  0  0  0  0
  -30.4297  -12.4294   19.4660 C   0  0  0  0  0  0
  -29.5095  -12.5331   18.2305 C   0  0  0  0  0  0
  -28.0367  -12.3449   18.6364 C   0  0  0  0  0  0
  -27.6505  -13.2217   19.8550 C   0  0  2  0  0  0
  -28.6853  -13.1013   20.9910 C   0  0  0  0  0  0
  -25.2564  -13.8192   20.5645 C   0  0  0  0  0  0
  -24.1826  -13.0448   20.9133 C   0  0  0  0  0  0
  -24.6402  -11.6919   20.8694 C   0  0  0  0  0  0
  -23.9070  -10.4298   21.0384 C   0  0  0  0  0  0
  -24.3622   -9.4219   21.9167 C   0  0  0  0  0  0
  -23.6298   -8.2254   22.0756 C   0  0  0  0  0  0
  -22.4281   -8.0285   21.3546 C   0  0  0  0  0  0
  -21.9912   -9.0255   20.4645 C   0  0  0  0  0  0
  -22.7234  -10.2134   20.3045 C   0  0  0  0  0  0
  -21.6855   -6.0735   22.5271 C   0  0  0  0  0  0
  -21.4012   -6.5641   23.8206 C   0  0  0  0  0  0
  -21.3661   -5.6796   24.9167 C   0  0  0  0  0  0
  -21.6046   -4.3059   24.7221 C   0  0  0  0  0  0
  -21.8818   -3.8151   23.4342 C   0  0  0  0  0  0
  -21.9190   -4.6965   22.3397 C   0  0  0  0  0  0
  -22.7854  -13.5242   21.1812 C   0  0  0  0  0  0
  -22.1656   -4.2143   21.0975 F   0  0  0  0  0  0
  -21.5641   -3.4548   25.7741 F   0  0  0  0  0  0
  -30.0063  -13.4579   20.4466 N   0  0  0  0  0  0
  -26.2973  -12.9366   20.3247 N   0  0  0  0  0  0
  -25.9327  -11.6516   20.5709 N   0  0  0  0  0  0
  -22.0518  -12.8219   22.0373 N   0  0  0  0  0  0
  -25.4333  -15.1909   20.4113 N   0  0  0  0  0  0
  -31.7641  -14.8268   20.0299 O   0  0  0  0  0  0
  -21.6650   -6.8878   21.4235 O   0  0  0  0  0  0
  -22.3518  -14.5544   20.6671 O   0  0  0  0  0  0
  -24.6301  -31.8569   23.2016 C   0  0  0  0  0  0
  -25.9134  -32.4766   23.8348 C   0  0  1  0  0  0
  -27.2180  -27.2855   20.1246 C   0  0  0  0  0  0
  -25.5933  -33.8566   24.2269 N   0  0  0  0  0  0
  -23.4259  -30.4815   21.5451 C   0  0  2  0  0  0
  -24.8734  -28.9359   20.1105 C   0  0  0  0  0  0
  -22.7493  -29.4610   22.4922 C   0  0  0  0  0  0
  -18.0288  -28.1384   22.8482 C   0  0  0  0  0  0
  -24.1485  -36.7287   23.2637 C   0  0  0  0  0  0
  -25.9712  -30.7771   21.3803 C   0  0  0  0  0  0
  -26.0450  -29.4023   20.7218 C   0  0  0  0  0  0
  -27.2230  -28.5893   20.7201 C   0  0  0  0  0  0
  -26.0319  -26.8972   19.4626 C   0  0  0  0  0  0
  -24.8707  -27.6897   19.4690 C   0  0  0  0  0  0
  -23.6429  -29.8188   20.1602 C   0  0  0  0  0  0
  -25.4113  -36.3075   24.0323 C   0  0  1  0  0  0
  -20.5891  -28.3693   23.1268 C   0  0  2  0  0  0
  -20.6774  -26.9413   22.5407 C   0  0  0  0  0  0
  -19.5750  -26.6382   21.5206 C   0  0  0  0  0  0
  -18.1929  -26.7929   22.1618 C   0  0  0  0  0  0
  -19.1540  -28.8856   23.2870 C   0  0  0  0  0  0
  -18.9465  -30.1458   23.8888 C   0  0  0  0  0  0
  -17.6463  -30.6589   24.0565 C   0  0  0  0  0  0
  -25.9052  -34.9443   23.5097 C   0  0  0  0  0  0
  -16.5356  -29.9087   23.6338 C   0  0  0  0  0  0
  -16.7273  -28.6505   23.0358 C   0  0  0  0  0  0
  -26.4504  -31.6585   25.0730 C   0  0  0  0  0  0
  -25.3727  -31.3736   26.1451 C   0  0  0  0  0  0
  -27.0356  -30.3000   24.6219 C   0  0  0  0  0  0
  -27.6047  -32.4331   25.7512 C   0  0  0  0  0  0
  -27.5577  -37.1801   24.8462 C   0  0  0  0  0  0
  -21.4203  -29.3045   22.3662 N   0  0  0  0  0  0
  -26.4287  -37.3776   23.9408 N   0  0  0  0  0  0
  -24.6947  -31.0554   22.0986 N   0  0  0  0  0  0
  -23.4196  -28.8144   23.3012 O   0  0  0  0  0  0
  -28.2910  -26.3701   20.1694 O   0  0  0  0  0  0
  -26.5634  -34.8913   22.4670 O   0  0  0  0  0  0
  -23.5457  -32.1381   23.7323 O   0  0  0  0  0  0
  -30.6643  -19.4942   21.4587 C   0  0  0  0  0  0
  -30.8289  -18.0910   21.6557 C   0  0  0  0  0  0
  -30.1926  -23.6582   19.9571 C   0  0  0  0  0  0
  -28.9484  -19.0627   19.8443 C   0  0  0  0  0  0
  -28.8411  -23.7192   20.4106 C   0  0  0  0  0  0
  -29.7084  -20.0351   20.5600 C   0  0  0  0  0  0
  -30.0532  -17.1114   20.9683 C   0  0  0  0  0  0
  -29.1133  -17.6465   20.0385 C   0  0  0  0  0  0
  -28.5022  -22.3756   20.6442 C   0  0  0  0  0  0
  -30.6028  -22.3468   19.9591 C   0  0  0  0  0  0
  -29.0826  -16.9018   24.5322 C   0  0  0  0  0  0
  -28.9797  -16.0214   23.5253 C   0  0  0  0  0  0
  -27.2063  -21.8112   21.1406 C   0  0  0  0  0  0
  -27.9376  -24.9978   20.6514 C   0  0  0  0  0  0
  -30.1652  -15.4133   22.7965 C   0  0  0  0  0  0
  -29.5874  -21.4972   20.3837 N   0  0  0  0  0  0
  -30.1132  -15.6745   21.3438 N   0  0  0  0  0  0
  -31.8216  -21.8455   19.6194 O   0  0  0  0  0  0
  -28.3156  -16.7916   19.3524 F   0  0  0  0  0  0
  -31.4731  -12.5414   19.1679 H   0  0  0  0  0  0
  -30.3592  -11.4360   19.9107 H   0  0  0  0  0  0
  -29.7925  -11.7929   17.4810 H   0  0  0  0  0  0
  -29.6385  -13.5100   17.7612 H   0  0  0  0  0  0
  -27.8902  -11.2905   18.8740 H   0  0  0  0  0  0
  -27.3812  -12.5603   17.7918 H   0  0  0  0  0  0
  -27.6651  -14.2544   19.5069 H   0  0  0  0  0  0
  -28.7049  -12.0874   21.3934 H   0  0  0  0  0  0
  -28.3788  -13.7405   21.8155 H   0  0  0  0  0  0
  -25.2770   -9.5705   22.4737 H   0  0  0  0  0  0
  -23.9998   -7.4659   22.7492 H   0  0  0  0  0  0
  -21.0839   -8.8779   19.8958 H   0  0  0  0  0  0
  -22.3689  -10.9674   19.6162 H   0  0  0  0  0  0
  -21.2002   -7.6150   23.9702 H   0  0  0  0  0  0
  -21.1484   -6.0532   25.9067 H   0  0  0  0  0  0
  -22.0593   -2.7613   23.2849 H   0  0  0  0  0  0
  -22.4160  -11.9874   22.4724 H   0  0  0  0  0  0
  -21.1154  -13.1252   22.2640 H   0  0  0  0  0  0
  -24.6777  -15.8558   20.5320 H   0  0  0  0  0  0
  -26.3004  -15.6236   20.1145 H   0  0  0  0  0  0
  -26.7202  -32.5431   23.1092 H   0  0  0  0  0  0
  -25.0079  -33.9696   25.0415 H   0  0  0  0  0  0
  -22.7218  -31.3040   21.4013 H   0  0  0  0  0  0
  -23.3746  -35.9619   23.3293 H   0  0  0  0  0  0
  -24.3574  -36.8922   22.2053 H   0  0  0  0  0  0
  -23.7234  -37.6480   23.6672 H   0  0  0  0  0  0
  -26.1075  -31.5386   20.6114 H   0  0  0  0  0  0
  -26.8499  -30.8253   22.0123 H   0  0  0  0  0  0
  -28.1177  -28.9382   21.2165 H   0  0  0  0  0  0
  -25.9822  -25.9553   18.9365 H   0  0  0  0  0  0
  -23.9794  -27.3323   18.9719 H   0  0  0  0  0  0
  -23.7643  -30.5961   19.4049 H   0  0  0  0  0  0
  -22.7625  -29.2500   19.8556 H   0  0  0  0  0  0
  -25.1292  -36.1924   25.0816 H   0  0  0  0  0  0
  -20.9975  -28.3274   24.1390 H   0  0  0  0  0  0
  -20.5669  -26.2303   23.3611 H   0  0  0  0  0  0
  -21.6647  -26.7439   22.1210 H   0  0  0  0  0  0
  -19.6915  -25.6291   21.1239 H   0  0  0  0  0  0
  -19.6686  -27.3191   20.6736 H   0  0  0  0  0  0
  -17.4198  -26.6676   21.4022 H   0  0  0  0  0  0
  -18.0329  -26.0070   22.9015 H   0  0  0  0  0  0
  -19.7937  -30.7283   24.2253 H   0  0  0  0  0  0
  -17.5017  -31.6266   24.5168 H   0  0  0  0  0  0
  -15.5359  -30.2993   23.7663 H   0  0  0  0  0  0
  -15.8669  -28.0829   22.7079 H   0  0  0  0  0  0
  -24.5904  -30.7078   25.7785 H   0  0  0  0  0  0
  -24.8916  -32.2909   26.4857 H   0  0  0  0  0  0
  -25.8045  -30.8931   27.0240 H   0  0  0  0  0  0
  -26.2950  -29.6744   24.1226 H   0  0  0  0  0  0
  -27.4012  -29.7266   25.4747 H   0  0  0  0  0  0
  -27.8833  -30.4270   23.9484 H   0  0  0  0  0  0
  -27.2641  -33.3632   26.2076 H   0  0  0  0  0  0
  -28.3871  -32.6894   25.0356 H   0  0  0  0  0  0
  -28.0699  -31.8470   26.5447 H   0  0  0  0  0  0
  -28.2591  -38.0104   24.7522 H   0  0  0  0  0  0
  -28.1080  -36.2635   24.6276 H   0  0  0  0  0  0
  -27.2297  -37.1439   25.8866 H   0  0  0  0  0  0
  -20.9380  -29.8778   21.6881 H   0  0  0  0  0  0
  -26.0162  -38.2844   24.1423 H   0  0  0  0  0  0
  -31.2894  -20.1738   22.0209 H   0  0  0  0  0  0
  -31.5643  -17.7773   22.3802 H   0  0  0  0  0  0
  -30.8077  -24.5024   19.6765 H   0  0  0  0  0  0
  -28.2140  -19.4035   19.1306 H   0  0  0  0  0  0
  -28.2033  -17.3003   25.0187 H   0  0  0  0  0  0
  -30.0452  -17.2406   24.8886 H   0  0  0  0  0  0
  -27.9973  -15.7067   23.1988 H   0  0  0  0  0  0
  -26.5528  -22.5907   21.5328 H   0  0  0  0  0  0
  -27.3685  -21.0883   21.9404 H   0  0  0  0  0  0
  -26.6706  -21.3048   20.3376 H   0  0  0  0  0  0
  -27.8321  -25.0852   21.7330 H   0  0  0  0  0  0
  -26.9515  -24.6937   20.3092 H   0  0  0  0  0  0
  -31.1003  -15.7942   23.2074 H   0  0  0  0  0  0
  -30.1774  -14.3469   23.0310 H   0  0  0  0  0  0
  -32.3824  -22.5791   19.3866 H   0  0  0  0  0  0
  1 25  1  0  0  0
  1 30  2  0  0  0
  1 87  1  0  0  0
  2  3  1  0  0  0
  2 25  1  0  0  0
  2 90  1  0  0  0
  2 91  1  0  0  0
  3  4  1  0  0  0
  3 92  1  0  0  0
  3 93  1  0  0  0
  4  5  1  0  0  0
  4 94  1  0  0  0
  4 95  1  0  0  0
  5  6  1  0  0  0
  5 26  1  0  0  0
  5 96  1  0  0  0
  6 25  1  0  0  0
  6 97  1  0  0  0
  6 98  1  0  0  0
  7  8  2  0  0  0
  7 26  1  0  0  0
  7 29  1  0  0  0
  8  9  1  0  0  0
  8 22  1  0  0  0
  9 10  1  0  0  0
  9 27  2  0  0  0
 10 11  2  0  0  0
 10 15  1  0  0  0
 11 12  1  0  0  0
 11 99  1  0  0  0
 12 13  2  0  0  0
 12100  1  0  0  0
 13 14  1  0  0  0
 13 31  1  0  0  0
 14 15  2  0  0  0
 14101  1  0  0  0
 15102  1  0  0  0
 16 17  2  0  0  0
 16 21  1  0  0  0
 16 31  1  0  0  0
 17 18  1  0  0  0
 17103  1  0  0  0
 18 19  2  0  0  0
 18104  1  0  0  0
 19 20  1  0  0  0
 19 24  1  0  0  0
 20 21  2  0  0  0
 20105  1  0  0  0
 21 23  1  0  0  0
 22 28  1  0  0  0
 22 32  2  0  0  0
 26 27  1  0  0  0
 28106  1  0  0  0
 28107  1  0  0  0
 29108  1  0  0  0
 29109  1  0  0  0
 33 34  1  0  0  0
 33 66  1  0  0  0
 33 70  2  0  0  0
 34 36  1  0  0  0
 34 59  1  0  0  0
 34110  1  0  0  0
 35 44  2  0  0  0
 35 45  1  0  0  0
 35 68  1  0  0  0
 36 56  1  0  0  0
 36111  1  0  0  0
 37 39  1  0  0  0
 37 47  1  0  0  0
 37 66  1  0  0  0
 37112  1  0  0  0
 38 43  2  0  0  0
 38 46  1  0  0  0
 38 47  1  0  0  0
 39 64  1  0  0  0
 39 67  2  0  0  0
 40 52  1  0  0  0
 40 53  2  0  0  0
 40 58  1  0  0  0
 41113  1  0  0  0
 41114  1  0  0  0
 41115  1  0  0  0
 41 48  1  0  0  0
 42 43  1  0  0  0
 42 66  1  0  0  0
 42116  1  0  0  0
 42117  1  0  0  0
 43 44  1  0  0  0
 44118  1  0  0  0
 45 46  2  0  0  0
 45119  1  0  0  0
 46120  1  0  0  0
 47121  1  0  0  0
 47122  1  0  0  0
 48 56  1  0  0  0
 48 65  1  0  0  0
 48123  1  0  0  0
 49 50  1  0  0  0
 49 53  1  0  0  0
 49 64  1  0  0  0
 49124  1  0  0  0
 50 51  1  0  0  0
 50125  1  0  0  0
 50126  1  0  0  0
 51 52  1  0  0  0
 51127  1  0  0  0
 51128  1  0  0  0
 52129  1  0  0  0
 52130  1  0  0  0
 53 54  1  0  0  0
 54 55  2  0  0  0
 54131  1  0  0  0
 55 57  1  0  0  0
 55132  1  0  0  0
 56 69  2  0  0  0
 57 58  2  0  0  0
 57133  1  0  0  0
 58134  1  0  0  0
 59 60  1  0  0  0
 59 61  1  0  0  0
 59 62  1  0  0  0
 60135  1  0  0  0
 60136  1  0  0  0
 60137  1  0  0  0
 61138  1  0  0  0
 61139  1  0  0  0
 61140  1  0  0  0
 62141  1  0  0  0
 62142  1  0  0  0
 62143  1  0  0  0
 63 65  1  0  0  0
 63144  1  0  0  0
 63145  1  0  0  0
 63146  1  0  0  0
 64147  1  0  0  0
 65148  1  0  0  0
 68 84  1  0  0  0
 71 72  2  0  0  0
 71 76  1  0  0  0
 71149  1  0  0  0
 72 77  1  0  0  0
 72150  1  0  0  0
 73 75  1  0  0  0
 73 80  2  0  0  0
 73151  1  0  0  0
 74 76  2  0  0  0
 74 78  1  0  0  0
 74152  1  0  0  0
 75 79  2  0  0  0
 75 84  1  0  0  0
 76 86  1  0  0  0
 77 78  2  0  0  0
 77 87  1  0  0  0
 78 89  1  0  0  0
 79 83  1  0  0  0
 79 86  1  0  0  0
 80 86  1  0  0  0
 80 88  1  0  0  0
 81 82  2  0  0  0
 81153  1  0  0  0
 81154  1  0  0  0
 82 85  1  0  0  0
 82155  1  0  0  0
 83156  1  0  0  0
 83157  1  0  0  0
 83158  1  0  0  0
 84159  1  0  0  0
 84160  1  0  0  0
 85 87  1  0  0  0
 85161  1  0  0  0
 85162  1  0  0  0
 88163  1  0  0  0
M  ISO  4   1 100  68 101  84 101  87 100
M  END
> <chiral flag>
0

> <version>
0

> <s_m_source_file>
/data/baiqing/PycharmProjects/Reinvent-master-3.2/result/LINK_invent/BTK/process_docking_weight1_custom_product_contain_oxygen_bond_distance_aromatic_linkinvent_7_9_3/rearranged_h_0091.sdf

> <i_m_source_file_index>
5

> <r_mmod_Potential_Energy-OPLS-2005>
246.173645019531

> <r_mmod_Stretch_Energy-OPLS-2005>
101.483726501465

> <r_mmod_Bend_Energy-OPLS-2005>
148.049087524414

> <r_mmod_Torsional_Energy-OPLS-2005>
329.34130859375

> <r_mmod_Improper_Torsional_Energy-OPLS-2005>
4.51255798339844

> <r_mmod_Van_der_Waal_Energy-OPLS-2005>
135.930557250977

> <r_mmod_Electrostatic_Energy-OPLS-2005>
-338.271697998047

> <r_mmod_Solvation_Energy-OPLS-2005>
-197.613723754883

> <b_mmod_Minimization_Converged-OPLS-2005>
0

> <r_mmod_RMS_Derivative-OPLS-2005>
1.22921597957611

$$$$
5
                    3D
 Structure written by MMmdl.
154162  0  0  1  0            999 V2000
  -30.7009  -14.4897   20.6111 C   0  0  0  0  0  0
  -30.4344  -12.3353   19.4158 C   0  0  0  0  0  0
  -29.4890  -12.5205   18.2098 C   0  0  0  0  0  0
  -28.0198  -12.3505   18.6340 C   0  0  0  0  0  0
  -27.6682  -13.1900   19.8888 C   0  0  2  0  0  0
  -28.7145  -12.9761   21.0058 C   0  0  0  0  0  0
  -25.2677  -13.8119   20.5709 C   0  0  0  0  0  0
  -24.1887  -13.0413   20.9178 C   0  0  0  0  0  0
  -24.6425  -11.6887   20.8766 C   0  0  0  0  0  0
  -23.9074  -10.4281   21.0433 C   0  0  0  0  0  0
  -24.3626   -9.4191   21.9201 C   0  0  0  0  0  0
  -23.6302   -8.2233   22.0782 C   0  0  0  0  0  0
  -22.4283   -8.0295   21.3574 C   0  0  0  0  0  0
  -21.9931   -9.0262   20.4659 C   0  0  0  0  0  0
  -22.7267  -10.2138   20.3062 C   0  0  0  0  0  0
  -21.6840   -6.0747   22.5293 C   0  0  0  0  0  0
  -21.3998   -6.5644   23.8223 C   0  0  0  0  0  0
  -21.3650   -5.6802   24.9186 C   0  0  0  0  0  0
  -21.6043   -4.3057   24.7233 C   0  0  0  0  0  0
  -21.8818   -3.8160   23.4342 C   0  0  0  0  0  0
  -21.9187   -4.6977   22.3406 C   0  0  0  0  0  0
  -22.7916  -13.5236   21.1818 C   0  0  0  0  0  0
  -22.1656   -4.2156   21.0978 F   0  0  0  0  0  0
  -21.5641   -3.4535   25.7748 F   0  0  0  0  0  0
  -30.0479  -13.3013   20.4619 N   0  0  0  0  0  0
  -26.3081  -12.9245   20.3473 N   0  0  0  0  0  0
  -25.9346  -11.6424   20.5848 N   0  0  0  0  0  0
  -22.0551  -12.8226   22.0370 N   0  0  0  0  0  0
  -25.4431  -15.1827   20.4099 N   0  0  0  0  0  0
  -31.7686  -14.7413   20.0423 O   0  0  0  0  0  0
  -21.6642   -6.8896   21.4264 O   0  0  0  0  0  0
  -22.3585  -14.5526   20.6662 O   0  0  0  0  0  0
  -24.6114  -31.8659   23.2083 C   0  0  0  0  0  0
  -25.8982  -32.4827   23.8392 C   0  0  1  0  0  0
  -27.2506  -27.4169   20.0977 C   0  0  0  0  0  0
  -25.5826  -33.8619   24.2340 N   0  0  0  0  0  0
  -23.4038  -30.4900   21.5459 C   0  0  2  0  0  0
  -24.8596  -28.9551   20.1078 C   0  0  0  0  0  0
  -22.7406  -29.4668   22.4953 C   0  0  0  0  0  0
  -18.0261  -28.1394   22.8511 C   0  0  0  0  0  0
  -24.1471  -36.7271   23.2653 C   0  0  0  0  0  0
  -25.9350  -30.8244   21.3662 C   0  0  0  0  0  0
  -26.0173  -29.4560   20.7148 C   0  0  0  0  0  0
  -27.2126  -28.6953   20.7069 C   0  0  0  0  0  0
  -26.0714  -26.9443   19.4729 C   0  0  0  0  0  0
  -24.8853  -27.7018   19.4774 C   0  0  0  0  0  0
  -23.6149  -29.8156   20.1617 C   0  0  0  0  0  0
  -25.4113  -36.3127   24.0355 C   0  0  1  0  0  0
  -20.5856  -28.3680   23.1313 C   0  0  2  0  0  0
  -20.6750  -26.9403   22.5438 C   0  0  0  0  0  0
  -19.5738  -26.6399   21.5235 C   0  0  0  0  0  0
  -18.1906  -26.7940   22.1635 C   0  0  0  0  0  0
  -19.1513  -28.8853   23.2913 C   0  0  0  0  0  0
  -18.9440  -30.1449   23.8946 C   0  0  0  0  0  0
  -17.6447  -30.6614   24.0569 C   0  0  0  0  0  0
  -25.9034  -34.9480   23.5174 C   0  0  0  0  0  0
  -16.5343  -29.9124   23.6311 C   0  0  0  0  0  0
  -16.7250  -28.6514   23.0384 C   0  0  0  0  0  0
  -26.4442  -31.6576   25.0677 C   0  0  0  0  0  0
  -25.3745  -31.3550   26.1420 C   0  0  0  0  0  0
  -27.0262  -30.3050   24.5966 C   0  0  0  0  0  0
  -27.6051  -32.4269   25.7414 C   0  0  0  0  0  0
  -27.5594  -37.1768   24.8471 C   0  0  0  0  0  0
  -21.4130  -29.3025   22.3679 N   0  0  0  0  0  0
  -26.4298  -37.3818   23.9442 N   0  0  0  0  0  0
  -24.6683  -31.0757   22.0986 N   0  0  0  0  0  0
  -23.4167  -28.8199   23.2997 O   0  0  0  0  0  0
  -28.4202  -26.6673   20.1324 O   0  0  0  0  0  0
  -26.5622  -34.8933   22.4741 O   0  0  0  0  0  0
  -23.5297  -32.1389   23.7480 O   0  0  0  0  0  0
  -30.1964  -19.0871   22.0849 C   0  0  0  0  0  0
  -30.5462  -17.7143   22.1474 C   0  0  0  0  0  0
  -29.2638  -19.5721   21.1313 C   0  0  0  0  0  0
  -29.9847  -16.7864   21.2394 C   0  0  0  0  0  0
  -28.7429  -18.6443   20.1861 C   0  0  0  0  0  0
  -29.1049  -17.2733   20.2453 C   0  0  0  0  0  0
  -28.6844  -20.9992   21.2796 C   0  0  0  0  0  0
  -29.5781  -24.4086   20.2878 C   0  0  0  0  0  0
  -28.2929  -25.2350   19.9810 C   0  0  0  0  0  0
  -29.5928  -22.1649   21.0275 N   0  0  0  0  0  0
  -29.2032  -22.9604   20.1381 N   0  0  0  0  0  0
  -27.8020  -19.0195   19.2220 N   0  0  0  0  0  0
  -30.1219  -15.3746   21.4470 N   0  0  0  0  0  0
  -28.5227  -16.4045   19.3841 F   0  0  0  0  0  0
  -31.4718  -12.4545   19.1018 H   0  0  0  0  0  0
  -30.3611  -11.3175   19.8031 H   0  0  0  0  0  0
  -29.7296  -11.8034   17.4233 H   0  0  0  0  0  0
  -29.6314  -13.5099   17.7742 H   0  0  0  0  0  0
  -27.8531  -11.2911   18.8353 H   0  0  0  0  0  0
  -27.3541  -12.6077   17.8104 H   0  0  0  0  0  0
  -27.7055  -14.2334   19.5913 H   0  0  0  0  0  0
  -28.7121  -11.9355   21.3330 H   0  0  0  0  0  0
  -28.4543  -13.5485   21.8970 H   0  0  0  0  0  0
  -25.2776   -9.5634   22.4776 H   0  0  0  0  0  0
  -23.9996   -7.4614   22.7505 H   0  0  0  0  0  0
  -21.0865   -8.8781   19.8953 H   0  0  0  0  0  0
  -22.3747  -10.9682   19.6163 H   0  0  0  0  0  0
  -21.1976   -7.6155   23.9712 H   0  0  0  0  0  0
  -21.1476   -6.0550   25.9092 H   0  0  0  0  0  0
  -22.0598   -2.7622   23.2860 H   0  0  0  0  0  0
  -22.4204  -11.9891   22.4745 H   0  0  0  0  0  0
  -21.1145  -13.1218   22.2534 H   0  0  0  0  0  0
  -24.6847  -15.8469   20.5231 H   0  0  0  0  0  0
  -26.3045  -15.6120   20.0918 H   0  0  0  0  0  0
  -26.7008  -32.5586   23.1121 H   0  0  0  0  0  0
  -24.9946  -33.9767   25.0466 H   0  0  0  0  0  0
  -22.6943  -31.3068   21.4021 H   0  0  0  0  0  0
  -23.3809  -35.9520   23.3293 H   0  0  0  0  0  0
  -24.3582  -36.8919   22.2078 H   0  0  0  0  0  0
  -23.7104  -37.6409   23.6686 H   0  0  0  0  0  0
  -26.0490  -31.5872   20.5937 H   0  0  0  0  0  0
  -26.8231  -30.8863   21.9839 H   0  0  0  0  0  0
  -28.1028  -29.0777   21.1872 H   0  0  0  0  0  0
  -26.0437  -25.9926   18.9649 H   0  0  0  0  0  0
  -24.0043  -27.3168   18.9846 H   0  0  0  0  0  0
  -23.7038  -30.5835   19.3926 H   0  0  0  0  0  0
  -22.7420  -29.2224   19.8796 H   0  0  0  0  0  0
  -25.1278  -36.2023   25.0836 H   0  0  0  0  0  0
  -20.9986  -28.3289   24.1431 H   0  0  0  0  0  0
  -20.5684  -26.2279   23.3631 H   0  0  0  0  0  0
  -21.6624  -26.7446   22.1241 H   0  0  0  0  0  0
  -19.6918  -25.6333   21.1207 H   0  0  0  0  0  0
  -19.6697  -27.3256   20.6804 H   0  0  0  0  0  0
  -17.4186  -26.6717   21.4024 H   0  0  0  0  0  0
  -18.0282  -26.0072   22.9018 H   0  0  0  0  0  0
  -19.7912  -30.7224   24.2389 H   0  0  0  0  0  0
  -17.5006  -31.6299   24.5154 H   0  0  0  0  0  0
  -15.5346  -30.3065   23.7592 H   0  0  0  0  0  0
  -15.8642  -28.0833   22.7151 H   0  0  0  0  0  0
  -24.6011  -30.6797   25.7715 H   0  0  0  0  0  0
  -24.8801  -32.2618   26.4907 H   0  0  0  0  0  0
  -25.8163  -30.8705   27.0137 H   0  0  0  0  0  0
  -26.2729  -29.6793   24.1151 H   0  0  0  0  0  0
  -27.4213  -29.7286   25.4335 H   0  0  0  0  0  0
  -27.8495  -30.4407   23.8957 H   0  0  0  0  0  0
  -27.2738  -33.3609   26.1959 H   0  0  0  0  0  0
  -28.3862  -32.6747   25.0216 H   0  0  0  0  0  0
  -28.0686  -31.8371   26.5327 H   0  0  0  0  0  0
  -28.2587  -38.0099   24.7659 H   0  0  0  0  0  0
  -28.1127  -36.2642   24.6189 H   0  0  0  0  0  0
  -27.2295  -37.1286   25.8861 H   0  0  0  0  0  0
  -20.9295  -29.8681   21.6839 H   0  0  0  0  0  0
  -26.0206  -38.2867   24.1589 H   0  0  0  0  0  0
  -30.5974  -19.7606   22.8302 H   0  0  0  0  0  0
  -31.1991  -17.3689   22.9385 H   0  0  0  0  0  0
  -28.3525  -21.0741   22.3155 H   0  0  0  0  0  0
  -27.7683  -21.1012   20.6985 H   0  0  0  0  0  0
  -29.9647  -24.6110   21.2876 H   0  0  0  0  0  0
  -30.3601  -24.6747   19.5748 H   0  0  0  0  0  0
  -27.4894  -24.8856   20.6315 H   0  0  0  0  0  0
  -28.0020  -25.0259   18.9500 H   0  0  0  0  0  0
  -27.2298  -19.8420   19.3753 H   0  0  0  0  0  0
  -27.2881  -18.2555   18.7903 H   0  0  0  0  0  0
  -29.3644  -14.9687   21.9712 H   0  0  0  0  0  0
  1 25  1  0  0  0
  1 30  2  0  0  0
  1 83  1  0  0  0
  2  3  1  0  0  0
  2 25  1  0  0  0
  2 85  1  0  0  0
  2 86  1  0  0  0
  3  4  1  0  0  0
  3 87  1  0  0  0
  3 88  1  0  0  0
  4  5  1  0  0  0
  4 89  1  0  0  0
  4 90  1  0  0  0
  5  6  1  0  0  0
  5 26  1  0  0  0
  5 91  1  0  0  0
  6 25  1  0  0  0
  6 92  1  0  0  0
  6 93  1  0  0  0
  7  8  2  0  0  0
  7 26  1  0  0  0
  7 29  1  0  0  0
  8  9  1  0  0  0
  8 22  1  0  0  0
  9 10  1  0  0  0
  9 27  2  0  0  0
 10 11  2  0  0  0
 10 15  1  0  0  0
 11 12  1  0  0  0
 11 94  1  0  0  0
 12 13  2  0  0  0
 12 95  1  0  0  0
 13 14  1  0  0  0
 13 31  1  0  0  0
 14 15  2  0  0  0
 14 96  1  0  0  0
 15 97  1  0  0  0
 16 17  2  0  0  0
 16 21  1  0  0  0
 16 31  1  0  0  0
 17 18  1  0  0  0
 17 98  1  0  0  0
 18 19  2  0  0  0
 18 99  1  0  0  0
 19 20  1  0  0  0
 19 24  1  0  0  0
 20 21  2  0  0  0
 20100  1  0  0  0
 21 23  1  0  0  0
 22 28  1  0  0  0
 22 32  2  0  0  0
 26 27  1  0  0  0
 28101  1  0  0  0
 28102  1  0  0  0
 29103  1  0  0  0
 29104  1  0  0  0
 33 34  1  0  0  0
 33 66  1  0  0  0
 33 70  2  0  0  0
 34 36  1  0  0  0
 34 59  1  0  0  0
 34105  1  0  0  0
 35 44  2  0  0  0
 35 45  1  0  0  0
 35 68  1  0  0  0
 36 56  1  0  0  0
 36106  1  0  0  0
 37 39  1  0  0  0
 37 47  1  0  0  0
 37 66  1  0  0  0
 37107  1  0  0  0
 38 43  2  0  0  0
 38 46  1  0  0  0
 38 47  1  0  0  0
 39 64  1  0  0  0
 39 67  2  0  0  0
 40 52  1  0  0  0
 40 53  2  0  0  0
 40 58  1  0  0  0
 41108  1  0  0  0
 41109  1  0  0  0
 41110  1  0  0  0
 41 48  1  0  0  0
 42 43  1  0  0  0
 42 66  1  0  0  0
 42111  1  0  0  0
 42112  1  0  0  0
 43 44  1  0  0  0
 44113  1  0  0  0
 45 46  2  0  0  0
 45114  1  0  0  0
 46115  1  0  0  0
 47116  1  0  0  0
 47117  1  0  0  0
 48 56  1  0  0  0
 48 65  1  0  0  0
 48118  1  0  0  0
 49 50  1  0  0  0
 49 53  1  0  0  0
 49 64  1  0  0  0
 49119  1  0  0  0
 50 51  1  0  0  0
 50120  1  0  0  0
 50121  1  0  0  0
 51 52  1  0  0  0
 51122  1  0  0  0
 51123  1  0  0  0
 52124  1  0  0  0
 52125  1  0  0  0
 53 54  1  0  0  0
 54 55  2  0  0  0
 54126  1  0  0  0
 55 57  1  0  0  0
 55127  1  0  0  0
 56 69  2  0  0  0
 57 58  2  0  0  0
 57128  1  0  0  0
 58129  1  0  0  0
 59 60  1  0  0  0
 59 61  1  0  0  0
 59 62  1  0  0  0
 60130  1  0  0  0
 60131  1  0  0  0
 60132  1  0  0  0
 61133  1  0  0  0
 61134  1  0  0  0
 61135  1  0  0  0
 62136  1  0  0  0
 62137  1  0  0  0
 62138  1  0  0  0
 63 65  1  0  0  0
 63139  1  0  0  0
 63140  1  0  0  0
 63141  1  0  0  0
 64142  1  0  0  0
 65143  1  0  0  0
 68 79  1  0  0  0
 71 72  2  0  0  0
 71 73  1  0  0  0
 71144  1  0  0  0
 72 74  1  0  0  0
 72145  1  0  0  0
 73 75  2  0  0  0
 73 77  1  0  0  0
 74 76  2  0  0  0
 74 83  1  0  0  0
 75 76  1  0  0  0
 75 82  1  0  0  0
 76 84  1  0  0  0
 77 80  1  0  0  0
 77146  1  0  0  0
 77147  1  0  0  0
 78 79  1  0  0  0
 78 81  1  0  0  0
 78148  1  0  0  0
 78149  1  0  0  0
 79150  1  0  0  0
 79151  1  0  0  0
 80 81  2  0  0  0
 82152  1  0  0  0
 82153  1  0  0  0
 83154  1  0  0  0
M  ISO  4   1 100  68 101  79 101  83 100
M  END
> <chiral flag>
0

> <version>
0

> <s_m_source_file>
/data/baiqing/PycharmProjects/Reinvent-master-3.2/result/LINK_invent/BTK/process_docking_weight1_custom_product_contain_oxygen_bond_distance_aromatic_linkinvent_7_9_3/rearranged_h_0091.sdf

> <i_m_source_file_index>
6

> <r_mmod_Potential_Energy-OPLS-2005>
-30.9901866912842

> <r_mmod_Stretch_Energy-OPLS-2005>
45.2013168334961

> <r_mmod_Bend_Energy-OPLS-2005>
106.879447937012

> <r_mmod_Torsional_Energy-OPLS-2005>
209.949661254883

> <r_mmod_Improper_Torsional_Energy-OPLS-2005>
10.2582635879517

> <r_mmod_Van_der_Waal_Energy-OPLS-2005>
153.29557800293

> <r_mmod_Electrostatic_Energy-OPLS-2005>
-357.119140625

> <r_mmod_Solvation_Energy-OPLS-2005>
-214.217575073242

> <b_mmod_Minimization_Converged-OPLS-2005>
0

> <r_mmod_RMS_Derivative-OPLS-2005>
3.6282844543457

$$$$
6
                    3D
 Structure written by MMmdl.
156165  0  0  1  0            999 V2000
  -30.3875  -15.4284   20.3639 C   0  0  0  0  0  0
  -30.4516  -12.9406   19.5181 C   0  0  0  0  0  0
  -29.5487  -12.5962   18.3039 C   0  0  0  0  0  0
  -28.1118  -12.2780   18.7529 C   0  0  0  0  0  0
  -27.6091  -13.2842   19.8152 C   0  0  2  0  0  0
  -28.6399  -13.5351   20.9415 C   0  0  0  0  0  0
  -25.2383  -13.8263   20.5792 C   0  0  0  0  0  0
  -24.1743  -13.0441   20.9300 C   0  0  0  0  0  0
  -24.6384  -11.6939   20.8734 C   0  0  0  0  0  0
  -23.9078  -10.4312   21.0402 C   0  0  0  0  0  0
  -24.3616   -9.4218   21.9177 C   0  0  0  0  0  0
  -23.6293   -8.2246   22.0740 C   0  0  0  0  0  0
  -22.4270   -8.0278   21.3532 C   0  0  0  0  0  0
  -21.9920   -9.0254   20.4632 C   0  0  0  0  0  0
  -22.7250  -10.2142   20.3053 C   0  0  0  0  0  0
  -21.6871   -6.0735   22.5279 C   0  0  0  0  0  0
  -21.3999   -6.5626   23.8209 C   0  0  0  0  0  0
  -21.3655   -5.6778   24.9169 C   0  0  0  0  0  0
  -21.6061   -4.3042   24.7220 C   0  0  0  0  0  0
  -21.8832   -3.8138   23.4334 C   0  0  0  0  0  0
  -21.9188   -4.6962   22.3390 C   0  0  0  0  0  0
  -22.7764  -13.5202   21.1901 C   0  0  0  0  0  0
  -22.1680   -4.2154   21.0969 F   0  0  0  0  0  0
  -21.5629   -3.4512   25.7725 F   0  0  0  0  0  0
  -29.8459  -14.0955   20.2969 N   0  0  0  0  0  0
  -26.2817  -12.9558   20.3233 N   0  0  0  0  0  0
  -25.9332  -11.6635   20.5720 N   0  0  0  0  0  0
  -22.0380  -12.8205   22.0443 N   0  0  0  0  0  0
  -25.4034  -15.1992   20.4234 N   0  0  0  0  0  0
  -31.6178  -15.4110   20.1914 O   0  0  0  0  0  0
  -21.6644   -6.8867   21.4236 O   0  0  0  0  0  0
  -22.3454  -14.5498   20.6735 O   0  0  0  0  0  0
  -24.6668  -31.8183   23.1644 C   0  0  0  0  0  0
  -25.9338  -32.4543   23.8128 C   0  0  1  0  0  0
  -27.2293  -26.8418   20.1924 C   0  0  0  0  0  0
  -25.6004  -33.8367   24.2036 N   0  0  0  0  0  0
  -23.4838  -30.4265   21.5147 C   0  0  2  0  0  0
  -24.9441  -28.7982   20.1156 C   0  0  0  0  0  0
  -22.7666  -29.4421   22.4721 C   0  0  0  0  0  0
  -18.0329  -28.1388   22.8481 C   0  0  0  0  0  0
  -24.1503  -36.7165   23.2644 C   0  0  0  0  0  0
  -26.0596  -30.5975   21.4145 C   0  0  0  0  0  0
  -26.1272  -29.1759   20.7625 C   0  0  0  0  0  0
  -27.2515  -28.2173   20.7824 C   0  0  0  0  0  0
  -26.0141  -26.6536   19.4812 C   0  0  0  0  0  0
  -24.9144  -27.5553   19.4652 C   0  0  0  0  0  0
  -23.7335  -29.7396   20.1440 C   0  0  0  0  0  0
  -25.4153  -36.2917   24.0281 C   0  0  1  0  0  0
  -20.5951  -28.3707   23.1133 C   0  0  2  0  0  0
  -20.6742  -26.9398   22.5311 C   0  0  0  0  0  0
  -19.5656  -26.6293   21.5196 C   0  0  0  0  0  0
  -18.1910  -26.7877   22.1708 C   0  0  0  0  0  0
  -19.1609  -28.8880   23.2786 C   0  0  0  0  0  0
  -18.9557  -30.1470   23.8855 C   0  0  0  0  0  0
  -17.6580  -30.6607   24.0581 C   0  0  0  0  0  0
  -25.9135  -34.9305   23.4968 C   0  0  0  0  0  0
  -16.5454  -29.9119   23.6361 C   0  0  0  0  0  0
  -16.7335  -28.6530   23.0373 C   0  0  0  0  0  0
  -26.4597  -31.6517   25.0686 C   0  0  0  0  0  0
  -25.3711  -31.3791   26.1317 C   0  0  0  0  0  0
  -27.0544  -30.2860   24.6548 C   0  0  0  0  0  0
  -27.6024  -32.4376   25.7543 C   0  0  0  0  0  0
  -27.5568  -37.1748   24.8472 C   0  0  0  0  0  0
  -21.4322  -29.3028   22.3460 N   0  0  0  0  0  0
  -26.4285  -37.3665   23.9393 N   0  0  0  0  0  0
  -24.7564  -30.9770   22.0825 N   0  0  0  0  0  0
  -23.4203  -28.8024   23.2994 O   0  0  0  0  0  0
  -28.2201  -25.6911   20.3489 O   0  0  0  0  0  0
  -26.5742  -34.8869   22.4564 O   0  0  0  0  0  0
  -23.5737  -32.1189   23.6757 O   0  0  0  0  0  0
  -31.3733  -20.2613   20.8628 C   0  0  0  0  0  0
  -31.0773  -18.8702   20.7319 C   0  0  0  0  0  0
  -30.4584  -21.3499   20.7102 C   0  0  0  0  0  0
  -29.0890  -21.1701   20.3606 C   0  0  0  0  0  0
  -29.7907  -18.3732   20.4354 C   0  0  0  0  0  0
  -28.8339  -19.6005   20.2595 C   0  0  0  0  0  0
  -28.1304  -23.1220   17.4522 C   0  0  0  0  0  0
  -28.6552  -24.1301   18.2379 C   0  0  0  0  0  0
  -27.2407  -22.0582   17.9636 C   0  0  0  0  0  0
  -26.9999  -22.0054   19.4964 C   0  0  0  0  0  0
  -28.2163  -24.1506   19.7172 C   0  0  1  0  0  0
  -30.9908  -22.7475   21.0026 C   0  0  0  0  0  0
  -28.1768  -22.4821   20.2463 N   0  0  0  0  0  0
  -29.5971  -16.7224   20.3951 N   0  0  0  0  0  0
  -29.4579  -25.0525   17.9613 O   0  5  0  0  0  0
  -26.6937  -21.2536   17.2128 O   0  0  0  0  0  0
  -27.5705  -19.1941   19.9855 F   0  0  0  0  0  0
  -31.4416  -13.1986   19.1419 H   0  0  0  0  0  0
  -30.6050  -12.0726   20.1602 H   0  0  0  0  0  0
  -29.9628  -11.7546   17.7462 H   0  0  0  0  0  0
  -29.5387  -13.4425   17.6161 H   0  0  0  0  0  0
  -28.1150  -11.2754   19.1827 H   0  0  0  0  0  0
  -27.4407  -12.2407   17.8959 H   0  0  0  0  0  0
  -27.5005  -14.2264   19.2721 H   0  0  0  0  0  0
  -28.8614  -12.6272   21.5058 H   0  0  0  0  0  0
  -28.2481  -14.2616   21.6542 H   0  0  0  0  0  0
  -25.2734   -9.5720   22.4778 H   0  0  0  0  0  0
  -24.0011   -7.4649   22.7443 H   0  0  0  0  0  0
  -21.0872   -8.8750   19.8942 H   0  0  0  0  0  0
  -22.3663  -10.9674   19.6178 H   0  0  0  0  0  0
  -21.1978   -7.6127   23.9714 H   0  0  0  0  0  0
  -21.1480   -6.0493   25.9076 H   0  0  0  0  0  0
  -22.0614   -2.7596   23.2821 H   0  0  0  0  0  0
  -22.3970  -11.9904   22.4904 H   0  0  0  0  0  0
  -21.0972  -13.1219   22.2552 H   0  0  0  0  0  0
  -24.6325  -15.8469   20.5438 H   0  0  0  0  0  0
  -26.2369  -15.6413   20.0606 H   0  0  0  0  0  0
  -26.7393  -32.5088   23.0830 H   0  0  0  0  0  0
  -25.0088  -33.9438   25.0148 H   0  0  0  0  0  0
  -22.8007  -31.2596   21.3432 H   0  0  0  0  0  0
  -23.3789  -35.9474   23.3294 H   0  0  0  0  0  0
  -24.3538  -36.8858   22.2057 H   0  0  0  0  0  0
  -23.7294  -37.6350   23.6749 H   0  0  0  0  0  0
  -26.2617  -31.3420   20.6431 H   0  0  0  0  0  0
  -26.9055  -30.6505   22.0876 H   0  0  0  0  0  0
  -28.1306  -28.5051   21.3402 H   0  0  0  0  0  0
  -25.8386  -25.7240   18.9662 H   0  0  0  0  0  0
  -24.0159  -27.2502   18.9484 H   0  0  0  0  0  0
  -23.9003  -30.5122   19.3936 H   0  0  0  0  0  0
  -22.8421  -29.2103   19.8045 H   0  0  0  0  0  0
  -25.1379  -36.1658   25.0780 H   0  0  0  0  0  0
  -21.0106  -28.3256   24.1227 H   0  0  0  0  0  0
  -20.5711  -26.2286   23.3523 H   0  0  0  0  0  0
  -21.6594  -26.7398   22.1085 H   0  0  0  0  0  0
  -19.6435  -27.3102   20.6700 H   0  0  0  0  0  0
  -19.6753  -25.6209   21.1178 H   0  0  0  0  0  0
  -17.4131  -26.6675   21.4157 H   0  0  0  0  0  0
  -18.0331  -26.0026   22.9121 H   0  0  0  0  0  0
  -19.8059  -30.7289   24.2201 H   0  0  0  0  0  0
  -17.5158  -31.6266   24.5211 H   0  0  0  0  0  0
  -15.5491  -30.3042   23.7740 H   0  0  0  0  0  0
  -15.8727  -28.0831   22.7154 H   0  0  0  0  0  0
  -24.5888  -30.7149   25.7627 H   0  0  0  0  0  0
  -24.8917  -32.3013   26.4595 H   0  0  0  0  0  0
  -25.7918  -30.9047   27.0189 H   0  0  0  0  0  0
  -26.3254  -29.6472   24.1567 H   0  0  0  0  0  0
  -27.4014  -29.7277   25.5261 H   0  0  0  0  0  0
  -27.9202  -30.3974   24.0021 H   0  0  0  0  0  0
  -27.2500  -33.3707   26.1941 H   0  0  0  0  0  0
  -28.3946  -32.6914   25.0488 H   0  0  0  0  0  0
  -28.0560  -31.8653   26.5653 H   0  0  0  0  0  0
  -28.2574  -38.0052   24.7471 H   0  0  0  0  0  0
  -28.1076  -36.2577   24.6358 H   0  0  0  0  0  0
  -27.2248  -37.1421   25.8864 H   0  0  0  0  0  0
  -20.9607  -29.8542   21.6433 H   0  0  0  0  0  0
  -26.0122  -38.2710   24.1424 H   0  0  0  0  0  0
  -32.3913  -20.5023   21.1356 H   0  0  0  0  0  0
  -31.8779  -18.1630   20.8973 H   0  0  0  0  0  0
  -28.4041  -23.0548   16.4083 H   0  0  0  0  0  0
  -26.6563  -21.0288   19.7968 H   0  0  0  0  0  0
  -26.1262  -22.6137   19.7307 H   0  0  0  0  0  0
  -27.1527  -24.2985   19.6182 H   0  0  0  0  0  0
  -31.9432  -22.7151   21.5344 H   0  0  0  0  0  0
  -30.3037  -23.2967   21.6489 H   0  0  0  0  0  0
  -31.1310  -23.3190   20.0843 H   0  0  0  0  0  0
  -28.6135  -16.4934   20.4076 H   0  0  0  0  0  0
  1 25  1  0  0  0
  1 30  2  0  0  0
  1 84  1  0  0  0
  2  3  1  0  0  0
  2 25  1  0  0  0
  2 88  1  0  0  0
  2 89  1  0  0  0
  3  4  1  0  0  0
  3 90  1  0  0  0
  3 91  1  0  0  0
  4  5  1  0  0  0
  4 92  1  0  0  0
  4 93  1  0  0  0
  5  6  1  0  0  0
  5 26  1  0  0  0
  5 94  1  0  0  0
  6 25  1  0  0  0
  6 95  1  0  0  0
  6 96  1  0  0  0
  7  8  2  0  0  0
  7 26  1  0  0  0
  7 29  1  0  0  0
  8  9  1  0  0  0
  8 22  1  0  0  0
  9 10  1  0  0  0
  9 27  2  0  0  0
 10 11  2  0  0  0
 10 15  1  0  0  0
 11 12  1  0  0  0
 11 97  1  0  0  0
 12 13  2  0  0  0
 12 98  1  0  0  0
 13 14  1  0  0  0
 13 31  1  0  0  0
 14 15  2  0  0  0
 14 99  1  0  0  0
 15100  1  0  0  0
 16 17  2  0  0  0
 16 21  1  0  0  0
 16 31  1  0  0  0
 17 18  1  0  0  0
 17101  1  0  0  0
 18 19  2  0  0  0
 18102  1  0  0  0
 19 20  1  0  0  0
 19 24  1  0  0  0
 20 21  2  0  0  0
 20103  1  0  0  0
 21 23  1  0  0  0
 22 28  1  0  0  0
 22 32  2  0  0  0
 26 27  1  0  0  0
 28104  1  0  0  0
 28105  1  0  0  0
 29106  1  0  0  0
 29107  1  0  0  0
 33 34  1  0  0  0
 33 66  1  0  0  0
 33 70  2  0  0  0
 34 36  1  0  0  0
 34 59  1  0  0  0
 34108  1  0  0  0
 35 44  2  0  0  0
 35 45  1  0  0  0
 35 68  1  0  0  0
 36 56  1  0  0  0
 36109  1  0  0  0
 37 39  1  0  0  0
 37 47  1  0  0  0
 37 66  1  0  0  0
 37110  1  0  0  0
 38 43  2  0  0  0
 38 46  1  0  0  0
 38 47  1  0  0  0
 39 64  1  0  0  0
 39 67  2  0  0  0
 40 52  1  0  0  0
 40 53  2  0  0  0
 40 58  1  0  0  0
 41111  1  0  0  0
 41112  1  0  0  0
 41113  1  0  0  0
 41 48  1  0  0  0
 42 43  1  0  0  0
 42 66  1  0  0  0
 42114  1  0  0  0
 42115  1  0  0  0
 43 44  1  0  0  0
 44116  1  0  0  0
 45 46  2  0  0  0
 45117  1  0  0  0
 46118  1  0  0  0
 47119  1  0  0  0
 47120  1  0  0  0
 48 56  1  0  0  0
 48 65  1  0  0  0
 48121  1  0  0  0
 49 50  1  0  0  0
 49 53  1  0  0  0
 49 64  1  0  0  0
 49122  1  0  0  0
 50 51  1  0  0  0
 50123  1  0  0  0
 50124  1  0  0  0
 51 52  1  0  0  0
 51125  1  0  0  0
 51126  1  0  0  0
 52127  1  0  0  0
 52128  1  0  0  0
 53 54  1  0  0  0
 54 55  2  0  0  0
 54129  1  0  0  0
 55 57  1  0  0  0
 55130  1  0  0  0
 56 69  2  0  0  0
 57 58  2  0  0  0
 57131  1  0  0  0
 58132  1  0  0  0
 59 60  1  0  0  0
 59 61  1  0  0  0
 59 62  1  0  0  0
 60133  1  0  0  0
 60134  1  0  0  0
 60135  1  0  0  0
 61136  1  0  0  0
 61137  1  0  0  0
 61138  1  0  0  0
 62139  1  0  0  0
 62140  1  0  0  0
 62141  1  0  0  0
 63 65  1  0  0  0
 63142  1  0  0  0
 63143  1  0  0  0
 63144  1  0  0  0
 64145  1  0  0  0
 65146  1  0  0  0
 68 81  1  0  0  0
 71 72  2  0  0  0
 71 73  1  0  0  0
 71147  1  0  0  0
 72 75  1  0  0  0
 72148  1  0  0  0
 73 74  2  0  0  0
 73 82  1  0  0  0
 74 76  1  0  0  0
 74 83  1  0  0  0
 75 76  2  0  0  0
 75 84  1  0  0  0
 76 87  1  0  0  0
 77 78  2  0  0  0
 77 79  1  0  0  0
 77149  1  0  0  0
 78 81  1  0  0  0
 78 85  1  0  0  0
 79 80  1  0  0  0
 79 86  2  0  0  0
 80 83  1  0  0  0
 80150  1  0  0  0
 80151  1  0  0  0
 81 83  1  0  0  0
 81152  1  0  0  0
 82153  1  0  0  0
 82154  1  0  0  0
 82155  1  0  0  0
 84156  1  0  0  0
M  CHG  1  85  -1
M  ISO  4   1 100  68 101  81 101  84 100
M  END
> <chiral flag>
0

> <version>
0

> <s_m_source_file>
/data/baiqing/PycharmProjects/Reinvent-master-3.2/result/LINK_invent/BTK/process_docking_weight1_custom_product_contain_oxygen_bond_distance_aromatic_linkinvent_7_9_3/rearranged_h_0091.sdf

> <i_m_source_file_index>
7

> <r_mmod_Potential_Energy-OPLS-2005>
1520.73950195312

> <r_mmod_Stretch_Energy-OPLS-2005>
779.767822265625

> <r_mmod_Bend_Energy-OPLS-2005>
564.663940429688

> <r_mmod_Torsional_Energy-OPLS-2005>
200.592651367188

> <r_mmod_Improper_Torsional_Energy-OPLS-2005>
11.0502805709839

> <r_mmod_Van_der_Waal_Energy-OPLS-2005>
157.126174926758

> <r_mmod_Electrostatic_Energy-OPLS-2005>
-316.745727539062

> <r_mmod_Solvation_Energy-OPLS-2005>
-505.125091552734

> <b_mmod_Minimization_Converged-OPLS-2005>
0

> <r_mmod_RMS_Derivative-OPLS-2005>
5.4835901260376

$$$$
7
                    3D
 Structure written by MMmdl.
156164  0  0  1  0            999 V2000
  -30.6715  -14.6612   20.5801 C   0  0  0  0  0  0
  -30.4369  -12.4310   19.4671 C   0  0  0  0  0  0
  -29.5097  -12.5130   18.2362 C   0  0  0  0  0  0
  -28.0369  -12.3375   18.6498 C   0  0  0  0  0  0
  -27.6542  -13.2215   19.8656 C   0  0  2  0  0  0
  -28.6940  -13.1058   21.0013 C   0  0  0  0  0  0
  -25.2532  -13.8188   20.5665 C   0  0  0  0  0  0
  -24.1814  -13.0454   20.9205 C   0  0  0  0  0  0
  -24.6400  -11.6925   20.8770 C   0  0  0  0  0  0
  -23.9075  -10.4301   21.0426 C   0  0  0  0  0  0
  -24.3635   -9.4208   21.9191 C   0  0  0  0  0  0
  -23.6315   -8.2235   22.0750 C   0  0  0  0  0  0
  -22.4292   -8.0282   21.3540 C   0  0  0  0  0  0
  -21.9939   -9.0253   20.4628 C   0  0  0  0  0  0
  -22.7266  -10.2139   20.3036 C   0  0  0  0  0  0
  -21.6854   -6.0736   22.5273 C   0  0  0  0  0  0
  -21.4021   -6.5645   23.8210 C   0  0  0  0  0  0
  -21.3671   -5.6804   24.9169 C   0  0  0  0  0  0
  -21.6058   -4.3069   24.7224 C   0  0  0  0  0  0
  -21.8828   -3.8152   23.4350 C   0  0  0  0  0  0
  -21.9194   -4.6963   22.3398 C   0  0  0  0  0  0
  -22.7830  -13.5246   21.1865 C   0  0  0  0  0  0
  -22.1650   -4.2140   21.0981 F   0  0  0  0  0  0
  -21.5640   -3.4556   25.7744 F   0  0  0  0  0  0
  -30.0109  -13.4597   20.4460 N   0  0  0  0  0  0
  -26.2993  -12.9388   20.3321 N   0  0  0  0  0  0
  -25.9340  -11.6536   20.5793 N   0  0  0  0  0  0
  -22.0450  -12.8252   22.0424 N   0  0  0  0  0  0
  -25.4199  -15.1903   20.4037 N   0  0  0  0  0  0
  -31.7750  -14.8243   20.0488 O   0  0  0  0  0  0
  -21.6636   -6.8891   21.4237 O   0  0  0  0  0  0
  -22.3531  -14.5536   20.6687 O   0  0  0  0  0  0
  -24.6312  -31.8592   23.2005 C   0  0  0  0  0  0
  -25.9160  -32.4775   23.8340 C   0  0  1  0  0  0
  -27.2167  -27.2786   20.1190 C   0  0  0  0  0  0
  -25.5971  -33.8577   24.2278 N   0  0  0  0  0  0
  -23.4258  -30.4871   21.5431 C   0  0  2  0  0  0
  -24.8745  -28.9423   20.1082 C   0  0  0  0  0  0
  -22.7498  -29.4633   22.4878 C   0  0  0  0  0  0
  -18.0300  -28.1395   22.8491 C   0  0  0  0  0  0
  -24.1487  -36.7268   23.2633 C   0  0  0  0  0  0
  -25.9736  -30.7740   21.3840 C   0  0  0  0  0  0
  -26.0456  -29.3989   20.7259 C   0  0  0  0  0  0
  -27.2191  -28.5766   20.7302 C   0  0  0  0  0  0
  -26.0239  -26.9030   19.4537 C   0  0  0  0  0  0
  -24.8667  -27.7004   19.4629 C   0  0  0  0  0  0
  -23.6459  -29.8289   20.1568 C   0  0  0  0  0  0
  -25.4115  -36.3070   24.0329 C   0  0  1  0  0  0
  -20.5904  -28.3713   23.1257 C   0  0  2  0  0  0
  -20.6787  -26.9429   22.5397 C   0  0  0  0  0  0
  -19.5757  -26.6396   21.5204 C   0  0  0  0  0  0
  -18.1943  -26.7942   22.1622 C   0  0  0  0  0  0
  -19.1551  -28.8869   23.2881 C   0  0  0  0  0  0
  -18.9462  -30.1470   23.8900 C   0  0  0  0  0  0
  -17.6458  -30.6598   24.0569 C   0  0  0  0  0  0
  -25.9060  -34.9447   23.5093 C   0  0  0  0  0  0
  -16.5353  -29.9094   23.6335 C   0  0  0  0  0  0
  -16.7284  -28.6510   23.0365 C   0  0  0  0  0  0
  -26.4524  -31.6586   25.0720 C   0  0  0  0  0  0
  -25.3737  -31.3746   26.1425 C   0  0  0  0  0  0
  -27.0368  -30.3001   24.6204 C   0  0  0  0  0  0
  -27.6078  -32.4312   25.7506 C   0  0  0  0  0  0
  -27.5571  -37.1795   24.8466 C   0  0  0  0  0  0
  -21.4208  -29.3060   22.3620 N   0  0  0  0  0  0
  -26.4279  -37.3775   23.9416 N   0  0  0  0  0  0
  -24.6954  -31.0569   22.0986 N   0  0  0  0  0  0
  -23.4208  -28.8166   23.2970 O   0  0  0  0  0  0
  -28.2758  -26.3411   20.1864 O   0  0  0  0  0  0
  -26.5594  -34.8919   22.4641 O   0  0  0  0  0  0
  -23.5473  -32.1407   23.7311 O   0  0  0  0  0  0
  -30.7822  -18.1377   21.1157 C   0  0  0  0  0  0
  -30.4515  -19.5195   20.8960 C   0  0  0  0  0  0
  -28.6040  -17.4707   20.3603 C   0  0  0  0  0  0
  -29.8668  -17.0678   20.8630 C   0  0  0  0  0  0
  -29.1687  -19.9103   20.4210 C   0  0  0  0  0  0
  -28.2697  -18.8420   20.1500 C   0  0  0  0  0  0
  -27.8744  -24.9807   20.1536 C   0  0  0  0  0  0
  -27.9556  -23.5854   20.2097 C   0  0  0  0  0  0
  -29.0494  -22.5670   20.4793 C   0  0  0  0  0  0
  -29.1735  -16.2208   23.6101 C   0  0  0  0  0  0
  -30.2901  -15.5489   22.7807 C   0  0  0  0  0  0
  -28.6647  -21.2733   20.1828 N   0  0  0  0  0  0
  -30.0954  -15.6809   21.3229 N   0  0  0  0  0  0
  -30.1677  -22.8301   20.9258 O   0  0  0  0  0  0
  -26.7435  -23.0387   20.0116 O   0  0  0  0  0  0
  -27.0237  -19.1453   19.7102 F   0  0  0  0  0  0
  -31.4755  -12.5542   19.1569 H   0  0  0  0  0  0
  -30.3865  -11.4413   19.9220 H   0  0  0  0  0  0
  -29.7867  -11.7511   17.5058 H   0  0  0  0  0  0
  -29.6382  -13.4739   17.7366 H   0  0  0  0  0  0
  -27.8850  -11.2866   18.8980 H   0  0  0  0  0  0
  -27.3810  -12.5489   17.8056 H   0  0  0  0  0  0
  -27.6705  -14.2514   19.5142 H   0  0  0  0  0  0
  -28.7197  -12.0914   21.4023 H   0  0  0  0  0  0
  -28.4089  -13.7474   21.8353 H   0  0  0  0  0  0
  -25.2780   -9.5686   22.4780 H   0  0  0  0  0  0
  -24.0037   -7.4614   22.7445 H   0  0  0  0  0  0
  -21.0884   -8.8758   19.8917 H   0  0  0  0  0  0
  -22.3723  -10.9677   19.6138 H   0  0  0  0  0  0
  -21.2001   -7.6158   23.9691 H   0  0  0  0  0  0
  -21.1500   -6.0545   25.9065 H   0  0  0  0  0  0
  -22.0609   -2.7611   23.2855 H   0  0  0  0  0  0
  -22.4021  -11.9890   22.4803 H   0  0  0  0  0  0
  -21.1115  -13.1373   22.2702 H   0  0  0  0  0  0
  -24.6488  -15.8432   20.4985 H   0  0  0  0  0  0
  -26.2588  -15.6167   20.0367 H   0  0  0  0  0  0
  -26.7233  -32.5441   23.1086 H   0  0  0  0  0  0
  -25.0187  -33.9729   25.0468 H   0  0  0  0  0  0
  -22.7201  -31.3091   21.4024 H   0  0  0  0  0  0
  -23.3756  -35.9590   23.3298 H   0  0  0  0  0  0
  -24.3562  -36.8874   22.2039 H   0  0  0  0  0  0
  -23.7233  -37.6477   23.6642 H   0  0  0  0  0  0
  -26.1152  -31.5350   20.6159 H   0  0  0  0  0  0
  -26.8489  -30.8199   22.0194 H   0  0  0  0  0  0
  -28.1099  -28.9168   21.2396 H   0  0  0  0  0  0
  -25.9489  -25.9569   18.9373 H   0  0  0  0  0  0
  -23.9724  -27.3506   18.9668 H   0  0  0  0  0  0
  -23.7715  -30.6084   19.4041 H   0  0  0  0  0  0
  -22.7637  -29.2649   19.8479 H   0  0  0  0  0  0
  -25.1301  -36.1905   25.0821 H   0  0  0  0  0  0
  -21.0021  -28.3298   24.1367 H   0  0  0  0  0  0
  -20.5677  -26.2329   23.3609 H   0  0  0  0  0  0
  -21.6662  -26.7454   22.1194 H   0  0  0  0  0  0
  -19.6913  -25.6300   21.1253 H   0  0  0  0  0  0
  -19.6693  -27.3185   20.6718 H   0  0  0  0  0  0
  -17.4214  -26.6699   21.4022 H   0  0  0  0  0  0
  -18.0348  -26.0071   22.9008 H   0  0  0  0  0  0
  -19.7931  -30.7302   24.2261 H   0  0  0  0  0  0
  -17.5010  -31.6276   24.5171 H   0  0  0  0  0  0
  -15.5353  -30.3006   23.7650 H   0  0  0  0  0  0
  -15.8685  -28.0835   22.7083 H   0  0  0  0  0  0
  -24.5928  -30.7082   25.7740 H   0  0  0  0  0  0
  -24.8910  -32.2927   26.4789 H   0  0  0  0  0  0
  -25.8037  -30.8962   27.0233 H   0  0  0  0  0  0
  -26.2963  -29.6758   24.1189 H   0  0  0  0  0  0
  -27.4013  -29.7250   25.4726 H   0  0  0  0  0  0
  -27.8861  -30.4268   23.9483 H   0  0  0  0  0  0
  -27.2694  -33.3615   26.2078 H   0  0  0  0  0  0
  -28.3906  -32.6861   25.0349 H   0  0  0  0  0  0
  -28.0734  -31.8438   26.5427 H   0  0  0  0  0  0
  -28.2603  -38.0083   24.7523 H   0  0  0  0  0  0
  -28.1063  -36.2619   24.6292 H   0  0  0  0  0  0
  -27.2287  -37.1442   25.8869 H   0  0  0  0  0  0
  -20.9371  -29.8784   21.6835 H   0  0  0  0  0  0
  -26.0154  -38.2846   24.1427 H   0  0  0  0  0  0
  -31.7562  -17.9031   21.5228 H   0  0  0  0  0  0
  -31.1882  -20.2770   21.1182 H   0  0  0  0  0  0
  -27.8386  -16.7282   20.1988 H   0  0  0  0  0  0
  -28.9260  -24.8937   20.3728 H   0  0  0  0  0  0
  -29.3849  -16.1309   24.6763 H   0  0  0  0  0  0
  -28.2027  -15.7580   23.4263 H   0  0  0  0  0  0
  -29.0788  -17.2876   23.3987 H   0  0  0  0  0  0
  -30.3571  -14.4999   23.0813 H   0  0  0  0  0  0
  -31.2555  -15.9876   23.0445 H   0  0  0  0  0  0
  -27.7765  -21.2473   19.7020 H   0  0  0  0  0  0
  -26.7404  -22.1933   20.4406 H   0  0  0  0  0  0
  1 25  1  0  0  0
  1 30  2  0  0  0
  1 83  1  0  0  0
  2  3  1  0  0  0
  2 25  1  0  0  0
  2 87  1  0  0  0
  2 88  1  0  0  0
  3  4  1  0  0  0
  3 89  1  0  0  0
  3 90  1  0  0  0
  4  5  1  0  0  0
  4 91  1  0  0  0
  4 92  1  0  0  0
  5  6  1  0  0  0
  5 26  1  0  0  0
  5 93  1  0  0  0
  6 25  1  0  0  0
  6 94  1  0  0  0
  6 95  1  0  0  0
  7  8  2  0  0  0
  7 26  1  0  0  0
  7 29  1  0  0  0
  8  9  1  0  0  0
  8 22  1  0  0  0
  9 10  1  0  0  0
  9 27  2  0  0  0
 10 11  2  0  0  0
 10 15  1  0  0  0
 11 12  1  0  0  0
 11 96  1  0  0  0
 12 13  2  0  0  0
 12 97  1  0  0  0
 13 14  1  0  0  0
 13 31  1  0  0  0
 14 15  2  0  0  0
 14 98  1  0  0  0
 15 99  1  0  0  0
 16 17  2  0  0  0
 16 21  1  0  0  0
 16 31  1  0  0  0
 17 18  1  0  0  0
 17100  1  0  0  0
 18 19  2  0  0  0
 18101  1  0  0  0
 19 20  1  0  0  0
 19 24  1  0  0  0
 20 21  2  0  0  0
 20102  1  0  0  0
 21 23  1  0  0  0
 22 28  1  0  0  0
 22 32  2  0  0  0
 26 27  1  0  0  0
 28103  1  0  0  0
 28104  1  0  0  0
 29105  1  0  0  0
 29106  1  0  0  0
 33 34  1  0  0  0
 33 66  1  0  0  0
 33 70  2  0  0  0
 34 36  1  0  0  0
 34 59  1  0  0  0
 34107  1  0  0  0
 35 44  2  0  0  0
 35 45  1  0  0  0
 35 68  1  0  0  0
 36 56  1  0  0  0
 36108  1  0  0  0
 37 39  1  0  0  0
 37 47  1  0  0  0
 37 66  1  0  0  0
 37109  1  0  0  0
 38 43  2  0  0  0
 38 46  1  0  0  0
 38 47  1  0  0  0
 39 64  1  0  0  0
 39 67  2  0  0  0
 40 52  1  0  0  0
 40 53  2  0  0  0
 40 58  1  0  0  0
 41110  1  0  0  0
 41111  1  0  0  0
 41112  1  0  0  0
 41 48  1  0  0  0
 42 43  1  0  0  0
 42 66  1  0  0  0
 42113  1  0  0  0
 42114  1  0  0  0
 43 44  1  0  0  0
 44115  1  0  0  0
 45 46  2  0  0  0
 45116  1  0  0  0
 46117  1  0  0  0
 47118  1  0  0  0
 47119  1  0  0  0
 48 56  1  0  0  0
 48 65  1  0  0  0
 48120  1  0  0  0
 49 50  1  0  0  0
 49 53  1  0  0  0
 49 64  1  0  0  0
 49121  1  0  0  0
 50 51  1  0  0  0
 50122  1  0  0  0
 50123  1  0  0  0
 51 52  1  0  0  0
 51124  1  0  0  0
 51125  1  0  0  0
 52126  1  0  0  0
 52127  1  0  0  0
 53 54  1  0  0  0
 54 55  2  0  0  0
 54128  1  0  0  0
 55 57  1  0  0  0
 55129  1  0  0  0
 56 69  2  0  0  0
 57 58  2  0  0  0
 57130  1  0  0  0
 58131  1  0  0  0
 59 60  1  0  0  0
 59 61  1  0  0  0
 59 62  1  0  0  0
 60132  1  0  0  0
 60133  1  0  0  0
 60134  1  0  0  0
 61135  1  0  0  0
 61136  1  0  0  0
 61137  1  0  0  0
 62138  1  0  0  0
 62139  1  0  0  0
 62140  1  0  0  0
 63 65  1  0  0  0
 63141  1  0  0  0
 63142  1  0  0  0
 63143  1  0  0  0
 64144  1  0  0  0
 65145  1  0  0  0
 68 77  1  0  0  0
 71 72  2  0  0  0
 71 74  1  0  0  0
 71146  1  0  0  0
 72 75  1  0  0  0
 72147  1  0  0  0
 73 74  2  0  0  0
 73 76  1  0  0  0
 73148  1  0  0  0
 74 83  1  0  0  0
 75 76  2  0  0  0
 75 82  1  0  0  0
 76 86  1  0  0  0
 77 78  2  0  0  0
 77149  1  0  0  0
 78 79  1  0  0  0
 78 85  1  0  0  0
 79 82  1  0  0  0
 79 84  2  0  0  0
 80 81  1  0  0  0
 80150  1  0  0  0
 80151  1  0  0  0
 80152  1  0  0  0
 81 83  1  0  0  0
 81153  1  0  0  0
 81154  1  0  0  0
 82155  1  0  0  0
 85156  1  0  0  0
M  ISO  4   1 100  68 101  77 101  83 100
M  END
> <chiral flag>
0

> <version>
0

> <s_m_source_file>
/data/baiqing/PycharmProjects/Reinvent-master-3.2/result/LINK_invent/BTK/process_docking_weight1_custom_product_contain_oxygen_bond_distance_aromatic_linkinvent_7_9_3/rearranged_h_0091.sdf

> <i_m_source_file_index>
8

> <r_mmod_Potential_Energy-OPLS-2005>
580.603576660156

> <r_mmod_Stretch_Energy-OPLS-2005>
102.640724182129

> <r_mmod_Bend_Energy-OPLS-2005>
480.870758056641

> <r_mmod_Torsional_Energy-OPLS-2005>
320.090698242188

> <r_mmod_Improper_Torsional_Energy-OPLS-2005>
5.50644254684448

> <r_mmod_Van_der_Waal_Energy-OPLS-2005>
155.41374206543

> <r_mmod_Electrostatic_Energy-OPLS-2005>
-337.301177978516

> <r_mmod_Solvation_Energy-OPLS-2005>
-213.93620300293

> <b_mmod_Minimization_Converged-OPLS-2005>
0

> <r_mmod_RMS_Derivative-OPLS-2005>
2.93356108665466

$$$$
8
                    3D
 Structure written by MMmdl.
151159  0  0  1  0            999 V2000
  -30.6094  -14.7063   20.5062 C   0  0  0  0  0  0
  -30.4424  -12.4385   19.4731 C   0  0  0  0  0  0
  -29.5153  -12.5341   18.2376 C   0  0  0  0  0  0
  -28.0349  -12.3609   18.6358 C   0  0  0  0  0  0
  -27.6534  -13.2163   19.8731 C   0  0  2  0  0  0
  -28.6959  -13.0385   20.9950 C   0  0  0  0  0  0
  -25.2552  -13.8156   20.5695 C   0  0  0  0  0  0
  -24.1804  -13.0421   20.9150 C   0  0  0  0  0  0
  -24.6377  -11.6899   20.8709 C   0  0  0  0  0  0
  -23.9052  -10.4286   21.0391 C   0  0  0  0  0  0
  -24.3602   -9.4206   21.9180 C   0  0  0  0  0  0
  -23.6277   -8.2238   22.0759 C   0  0  0  0  0  0
  -22.4258   -8.0273   21.3544 C   0  0  0  0  0  0
  -21.9886   -9.0245   20.4642 C   0  0  0  0  0  0
  -22.7217  -10.2128   20.3047 C   0  0  0  0  0  0
  -21.6854   -6.0725   22.5271 C   0  0  0  0  0  0
  -21.4018   -6.5635   23.8206 C   0  0  0  0  0  0
  -21.3663   -5.6793   24.9173 C   0  0  0  0  0  0
  -21.6040   -4.3050   24.7226 C   0  0  0  0  0  0
  -21.8820   -3.8139   23.4350 C   0  0  0  0  0  0
  -21.9192   -4.6955   22.3400 C   0  0  0  0  0  0
  -22.7842  -13.5228   21.1826 C   0  0  0  0  0  0
  -22.1658   -4.2135   21.0976 F   0  0  0  0  0  0
  -21.5631   -3.4534   25.7740 F   0  0  0  0  0  0
  -30.0010  -13.4609   20.4551 N   0  0  0  0  0  0
  -26.2982  -12.9335   20.3357 N   0  0  0  0  0  0
  -25.9305  -11.6486   20.5738 N   0  0  0  0  0  0
  -22.0493  -12.8222   22.0397 N   0  0  0  0  0  0
  -25.4294  -15.1880   20.4180 N   0  0  0  0  0  0
  -31.7574  -14.8382   20.0659 O   0  0  0  0  0  0
  -21.6632   -6.8863   21.4231 O   0  0  0  0  0  0
  -22.3522  -14.5541   20.6696 O   0  0  0  0  0  0
  -24.6279  -31.8576   23.2000 C   0  0  0  0  0  0
  -25.9116  -32.4767   23.8339 C   0  0  1  0  0  0
  -27.2256  -27.3019   20.1211 C   0  0  0  0  0  0
  -25.5926  -33.8561   24.2264 N   0  0  0  0  0  0
  -23.4232  -30.4818   21.5440 C   0  0  2  0  0  0
  -24.8721  -28.9335   20.1109 C   0  0  0  0  0  0
  -22.7496  -29.4608   22.4931 C   0  0  0  0  0  0
  -18.0285  -28.1369   22.8483 C   0  0  0  0  0  0
  -24.1497  -36.7296   23.2635 C   0  0  0  0  0  0
  -25.9649  -30.7849   21.3753 C   0  0  0  0  0  0
  -26.0418  -29.4105   20.7164 C   0  0  0  0  0  0
  -27.2248  -28.6075   20.7095 C   0  0  0  0  0  0
  -26.0357  -26.8881   19.4823 C   0  0  0  0  0  0
  -24.8715  -27.6781   19.4836 C   0  0  0  0  0  0
  -23.6395  -29.8141   20.1599 C   0  0  0  0  0  0
  -25.4117  -36.3069   24.0317 C   0  0  1  0  0  0
  -20.5886  -28.3675   23.1270 C   0  0  2  0  0  0
  -20.6774  -26.9396   22.5399 C   0  0  0  0  0  0
  -19.5757  -26.6371   21.5200 C   0  0  0  0  0  0
  -18.1937  -26.7910   22.1605 C   0  0  0  0  0  0
  -19.1544  -28.8839   23.2870 C   0  0  0  0  0  0
  -18.9466  -30.1438   23.8893 C   0  0  0  0  0  0
  -17.6470  -30.6576   24.0552 C   0  0  0  0  0  0
  -25.9043  -34.9440   23.5090 C   0  0  0  0  0  0
  -16.5355  -29.9080   23.6321 C   0  0  0  0  0  0
  -16.7275  -28.6482   23.0361 C   0  0  0  0  0  0
  -26.4502  -31.6581   25.0719 C   0  0  0  0  0  0
  -25.3726  -31.3718   26.1443 C   0  0  0  0  0  0
  -27.0359  -30.3006   24.6188 C   0  0  0  0  0  0
  -27.6051  -32.4329   25.7503 C   0  0  0  0  0  0
  -27.5588  -37.1804   24.8458 C   0  0  0  0  0  0
  -21.4204  -29.3038   22.3678 N   0  0  0  0  0  0
  -26.4292  -37.3773   23.9402 N   0  0  0  0  0  0
  -24.6909  -31.0581   22.0965 N   0  0  0  0  0  0
  -23.4217  -28.8136   23.3007 O   0  0  0  0  0  0
  -28.3315  -26.4327   20.1419 O   0  0  0  0  0  0
  -26.5633  -34.8924   22.4667 O   0  0  0  0  0  0
  -23.5446  -32.1374   23.7336 O   0  0  0  0  0  0
  -30.8252  -17.7791   19.3610 C   0  0  0  0  0  0
  -30.7877  -19.1952   19.0720 C   0  0  0  0  0  0
  -30.0678  -17.3852   20.4413 C   0  0  0  0  0  0
  -30.0190  -19.9712   19.9155 C   0  0  0  0  0  0
  -29.8056  -16.0004   21.0164 C   0  0  0  0  0  0
  -29.1033  -23.9068   20.0163 C   0  0  0  0  0  0
  -28.9345  -22.3703   20.4227 C   0  0  0  0  0  0
  -28.0675  -25.0059   20.5058 C   0  0  0  0  0  0
  -28.9317  -15.9161   21.9293 N   0  0  0  0  0  0
  -31.4993  -19.7206   17.9839 N   0  0  0  0  0  0
  -29.9058  -21.4078   19.7957 N   0  0  0  0  0  0
  -30.0545  -24.2311   19.2951 O   0  0  0  0  0  0
  -29.2899  -18.8714   21.1073 S   0  0  0  0  0  0
  -31.4831  -12.5706   19.1737 H   0  0  0  0  0  0
  -30.3949  -11.4407   19.9109 H   0  0  0  0  0  0
  -29.7955  -11.7832   17.4970 H   0  0  0  0  0  0
  -29.6511  -13.5046   17.7572 H   0  0  0  0  0  0
  -27.8734  -11.3049   18.8549 H   0  0  0  0  0  0
  -27.3852  -12.5998   17.7931 H   0  0  0  0  0  0
  -27.6770  -14.2593   19.5567 H   0  0  0  0  0  0
  -28.7358  -11.9916   21.2991 H   0  0  0  0  0  0
  -28.4063  -13.5561   21.9055 H   0  0  0  0  0  0
  -25.2746   -9.5694   22.4754 H   0  0  0  0  0  0
  -23.9986   -7.4642   22.7497 H   0  0  0  0  0  0
  -21.0811   -8.8765   19.8954 H   0  0  0  0  0  0
  -22.3668  -10.9668   19.6153 H   0  0  0  0  0  0
  -21.2010   -7.6145   23.9707 H   0  0  0  0  0  0
  -21.1488   -6.0524   25.9080 H   0  0  0  0  0  0
  -22.0596   -2.7594   23.2853 H   0  0  0  0  0  0
  -22.4104  -11.9856   22.4739 H   0  0  0  0  0  0
  -21.1133  -13.1283   22.2663 H   0  0  0  0  0  0
  -24.6797  -15.8556   20.5629 H   0  0  0  0  0  0
  -26.3199  -15.6261   20.2140 H   0  0  0  0  0  0
  -26.7188  -32.5449   23.1100 H   0  0  0  0  0  0
  -25.0067  -33.9678   25.0405 H   0  0  0  0  0  0
  -22.7158  -31.3019   21.4003 H   0  0  0  0  0  0
  -23.3744  -35.9645   23.3289 H   0  0  0  0  0  0
  -24.3579  -36.8920   22.2049 H   0  0  0  0  0  0
  -23.7260  -37.6491   23.6683 H   0  0  0  0  0  0
  -26.0990  -31.5500   20.6083 H   0  0  0  0  0  0
  -26.8413  -30.8329   22.0075 H   0  0  0  0  0  0
  -28.1247  -28.9688   21.1891 H   0  0  0  0  0  0
  -25.9895  -25.9397   18.9676 H   0  0  0  0  0  0
  -23.9789  -27.3086   18.9978 H   0  0  0  0  0  0
  -23.7559  -30.5893   19.4011 H   0  0  0  0  0  0
  -22.7597  -29.2406   19.8605 H   0  0  0  0  0  0
  -25.1306  -36.1920   25.0809 H   0  0  0  0  0  0
  -20.9971  -28.3270   24.1397 H   0  0  0  0  0  0
  -20.5667  -26.2296   23.3614 H   0  0  0  0  0  0
  -21.6659  -26.7437   22.1216 H   0  0  0  0  0  0
  -19.6923  -25.6281   21.1245 H   0  0  0  0  0  0
  -19.6693  -27.3170   20.6727 H   0  0  0  0  0  0
  -17.4213  -26.6640   21.4009 H   0  0  0  0  0  0
  -18.0323  -26.0046   22.8996 H   0  0  0  0  0  0
  -19.7949  -30.7230   24.2283 H   0  0  0  0  0  0
  -17.5034  -31.6266   24.5150 H   0  0  0  0  0  0
  -15.5359  -30.2988   23.7642 H   0  0  0  0  0  0
  -15.8664  -28.0800   22.7101 H   0  0  0  0  0  0
  -24.5934  -30.7029   25.7779 H   0  0  0  0  0  0
  -24.8883  -32.2874   26.4848 H   0  0  0  0  0  0
  -25.8043  -30.8935   27.0240 H   0  0  0  0  0  0
  -26.2946  -29.6729   24.1227 H   0  0  0  0  0  0
  -27.4051  -29.7293   25.4709 H   0  0  0  0  0  0
  -27.8821  -30.4263   23.9420 H   0  0  0  0  0  0
  -27.2661  -33.3645   26.2049 H   0  0  0  0  0  0
  -28.3895  -32.6841   25.0351 H   0  0  0  0  0  0
  -28.0690  -31.8463   26.5437 H   0  0  0  0  0  0
  -28.2593  -38.0118   24.7537 H   0  0  0  0  0  0
  -28.1090  -36.2641   24.6258 H   0  0  0  0  0  0
  -27.2305  -37.1439   25.8859 H   0  0  0  0  0  0
  -20.9378  -29.8785   21.6908 H   0  0  0  0  0  0
  -26.0164  -38.2844   24.1403 H   0  0  0  0  0  0
  -31.4014  -17.0966   18.7528 H   0  0  0  0  0  0
  -27.9201  -22.0662   20.1633 H   0  0  0  0  0  0
  -29.0110  -22.3002   21.5084 H   0  0  0  0  0  0
  -28.0226  -24.9472   21.5935 H   0  0  0  0  0  0
  -27.0914  -24.6775   20.1561 H   0  0  0  0  0  0
  -28.5254  -16.8196   22.1354 H   0  0  0  0  0  0
  -32.2513  -19.1678   17.5884 H   0  0  0  0  0  0
  -31.6942  -20.7144   17.9757 H   0  0  0  0  0  0
  -30.4407  -21.8323   19.0435 H   0  0  0  0  0  0
  1 25  1  0  0  0
  1 30  2  0  0  0
  1 75  1  0  0  0
  2  3  1  0  0  0
  2 25  1  0  0  0
  2 84  1  0  0  0
  2 85  1  0  0  0
  3  4  1  0  0  0
  3 86  1  0  0  0
  3 87  1  0  0  0
  4  5  1  0  0  0
  4 88  1  0  0  0
  4 89  1  0  0  0
  5  6  1  0  0  0
  5 26  1  0  0  0
  5 90  1  0  0  0
  6 25  1  0  0  0
  6 91  1  0  0  0
  6 92  1  0  0  0
  7  8  2  0  0  0
  7 26  1  0  0  0
  7 29  1  0  0  0
  8  9  1  0  0  0
  8 22  1  0  0  0
  9 10  1  0  0  0
  9 27  2  0  0  0
 10 11  2  0  0  0
 10 15  1  0  0  0
 11 12  1  0  0  0
 11 93  1  0  0  0
 12 13  2  0  0  0
 12 94  1  0  0  0
 13 14  1  0  0  0
 13 31  1  0  0  0
 14 15  2  0  0  0
 14 95  1  0  0  0
 15 96  1  0  0  0
 16 17  2  0  0  0
 16 21  1  0  0  0
 16 31  1  0  0  0
 17 18  1  0  0  0
 17 97  1  0  0  0
 18 19  2  0  0  0
 18 98  1  0  0  0
 19 20  1  0  0  0
 19 24  1  0  0  0
 20 21  2  0  0  0
 20 99  1  0  0  0
 21 23  1  0  0  0
 22 28  1  0  0  0
 22 32  2  0  0  0
 26 27  1  0  0  0
 28100  1  0  0  0
 28101  1  0  0  0
 29102  1  0  0  0
 29103  1  0  0  0
 33 34  1  0  0  0
 33 66  1  0  0  0
 33 70  2  0  0  0
 34 36  1  0  0  0
 34 59  1  0  0  0
 34104  1  0  0  0
 35 44  2  0  0  0
 35 45  1  0  0  0
 35 68  1  0  0  0
 36 56  1  0  0  0
 36105  1  0  0  0
 37 39  1  0  0  0
 37 47  1  0  0  0
 37 66  1  0  0  0
 37106  1  0  0  0
 38 43  2  0  0  0
 38 46  1  0  0  0
 38 47  1  0  0  0
 39 64  1  0  0  0
 39 67  2  0  0  0
 40 52  1  0  0  0
 40 53  2  0  0  0
 40 58  1  0  0  0
 41107  1  0  0  0
 41108  1  0  0  0
 41109  1  0  0  0
 41 48  1  0  0  0
 42 43  1  0  0  0
 42 66  1  0  0  0
 42110  1  0  0  0
 42111  1  0  0  0
 43 44  1  0  0  0
 44112  1  0  0  0
 45 46  2  0  0  0
 45113  1  0  0  0
 46114  1  0  0  0
 47115  1  0  0  0
 47116  1  0  0  0
 48 56  1  0  0  0
 48 65  1  0  0  0
 48117  1  0  0  0
 49 50  1  0  0  0
 49 53  1  0  0  0
 49 64  1  0  0  0
 49118  1  0  0  0
 50 51  1  0  0  0
 50119  1  0  0  0
 50120  1  0  0  0
 51 52  1  0  0  0
 51121  1  0  0  0
 51122  1  0  0  0
 52123  1  0  0  0
 52124  1  0  0  0
 53 54  1  0  0  0
 54 55  2  0  0  0
 54125  1  0  0  0
 55 57  1  0  0  0
 55126  1  0  0  0
 56 69  2  0  0  0
 57 58  2  0  0  0
 57127  1  0  0  0
 58128  1  0  0  0
 59 60  1  0  0  0
 59 61  1  0  0  0
 59 62  1  0  0  0
 60129  1  0  0  0
 60130  1  0  0  0
 60131  1  0  0  0
 61132  1  0  0  0
 61133  1  0  0  0
 61134  1  0  0  0
 62135  1  0  0  0
 62136  1  0  0  0
 62137  1  0  0  0
 63 65  1  0  0  0
 63138  1  0  0  0
 63139  1  0  0  0
 63140  1  0  0  0
 64141  1  0  0  0
 65142  1  0  0  0
 68 78  1  0  0  0
 71 72  1  0  0  0
 71 73  2  0  0  0
 71143  1  0  0  0
 72 74  2  0  0  0
 72 80  1  0  0  0
 73 75  1  0  0  0
 73 83  1  0  0  0
 74 81  1  0  0  0
 74 83  1  0  0  0
 75 79  2  0  0  0
 76 77  1  0  0  0
 76 78  1  0  0  0
 76 82  2  0  0  0
 77 81  1  0  0  0
 77144  1  0  0  0
 77145  1  0  0  0
 78146  1  0  0  0
 78147  1  0  0  0
 79148  1  0  0  0
 80149  1  0  0  0
 80150  1  0  0  0
 81151  1  0  0  0
M  ISO  4   1 100  68 101  75 100  78 101
M  END
> <chiral flag>
0

> <version>
0

> <s_m_source_file>
/data/baiqing/PycharmProjects/Reinvent-master-3.2/result/LINK_invent/BTK/process_docking_weight1_custom_product_contain_oxygen_bond_distance_aromatic_linkinvent_7_9_3/rearranged_h_0091.sdf

> <i_m_source_file_index>
9

> <r_mmod_Potential_Energy-OPLS-2005>
147.502288818359

> <r_mmod_Stretch_Energy-OPLS-2005>
108.402404785156

> <r_mmod_Bend_Energy-OPLS-2005>
175.9677734375

> <r_mmod_Torsional_Energy-OPLS-2005>
190.689895629883

> <r_mmod_Improper_Torsional_Energy-OPLS-2005>
6.27708292007446

> <r_mmod_Van_der_Waal_Energy-OPLS-2005>
130.461273193359

> <r_mmod_Electrostatic_Energy-OPLS-2005>
-286.700744628906

> <r_mmod_Solvation_Energy-OPLS-2005>
-238.089874267578

> <b_mmod_Minimization_Converged-OPLS-2005>
0

> <r_mmod_RMS_Derivative-OPLS-2005>
2.34168529510498

$$$$
9
                    3D
 Structure written by MMmdl.
148156  0  0  1  0            999 V2000
  -30.6013  -14.7255   20.4716 C   0  0  0  0  0  0
  -30.4301  -12.4488   19.4594 C   0  0  0  0  0  0
  -29.5033  -12.5006   18.2252 C   0  0  0  0  0  0
  -28.0277  -12.3341   18.6393 C   0  0  0  0  0  0
  -27.6395  -13.2275   19.8480 C   0  0  2  0  0  0
  -28.6845  -13.1457   20.9805 C   0  0  0  0  0  0
  -25.2510  -13.8193   20.5682 C   0  0  0  0  0  0
  -24.1799  -13.0439   20.9203 C   0  0  0  0  0  0
  -24.6388  -11.6919   20.8762 C   0  0  0  0  0  0
  -23.9074  -10.4295   21.0427 C   0  0  0  0  0  0
  -24.3630   -9.4204   21.9204 C   0  0  0  0  0  0
  -23.6298   -8.2235   22.0759 C   0  0  0  0  0  0
  -22.4286   -8.0280   21.3544 C   0  0  0  0  0  0
  -21.9924   -9.0260   20.4649 C   0  0  0  0  0  0
  -22.7250  -10.2137   20.3067 C   0  0  0  0  0  0
  -21.6854   -6.0742   22.5286 C   0  0  0  0  0  0
  -21.4003   -6.5645   23.8217 C   0  0  0  0  0  0
  -21.3645   -5.6796   24.9181 C   0  0  0  0  0  0
  -21.6049   -4.3061   24.7230 C   0  0  0  0  0  0
  -21.8818   -3.8156   23.4343 C   0  0  0  0  0  0
  -21.9188   -4.6972   22.3404 C   0  0  0  0  0  0
  -22.7823  -13.5230   21.1878 C   0  0  0  0  0  0
  -22.1663   -4.2159   21.0982 F   0  0  0  0  0  0
  -21.5627   -3.4548   25.7741 F   0  0  0  0  0  0
  -29.9797  -13.5044   20.3933 N   0  0  0  0  0  0
  -26.2927  -12.9385   20.3274 N   0  0  0  0  0  0
  -25.9321  -11.6535   20.5765 N   0  0  0  0  0  0
  -22.0462  -12.8211   22.0419 N   0  0  0  0  0  0
  -25.4212  -15.1908   20.4061 N   0  0  0  0  0  0
  -31.7981  -14.8232   20.1838 O   0  0  0  0  0  0
  -21.6632   -6.8883   21.4246 O   0  0  0  0  0  0
  -22.3499  -14.5535   20.6724 O   0  0  0  0  0  0
  -24.6313  -31.8550   23.1972 C   0  0  0  0  0  0
  -25.9129  -32.4756   23.8337 C   0  0  1  0  0  0
  -27.2188  -27.2688   20.1328 C   0  0  0  0  0  0
  -25.5927  -33.8558   24.2276 N   0  0  0  0  0  0
  -23.4284  -30.4764   21.5404 C   0  0  2  0  0  0
  -24.8752  -28.9152   20.1213 C   0  0  0  0  0  0
  -22.7495  -29.4621   22.4911 C   0  0  0  0  0  0
  -18.0286  -28.1382   22.8494 C   0  0  0  0  0  0
  -24.1482  -36.7265   23.2671 C   0  0  0  0  0  0
  -25.9736  -30.7714   21.3738 C   0  0  0  0  0  0
  -26.0492  -29.3932   20.7188 C   0  0  0  0  0  0
  -27.2300  -28.5833   20.7084 C   0  0  0  0  0  0
  -26.0219  -26.8467   19.5221 C   0  0  0  0  0  0
  -24.8631  -27.6464   19.5192 C   0  0  0  0  0  0
  -23.6460  -29.8032   20.1604 C   0  0  0  0  0  0
  -25.4126  -36.3069   24.0337 C   0  0  1  0  0  0
  -20.5896  -28.3701   23.1255 C   0  0  2  0  0  0
  -20.6774  -26.9411   22.5403 C   0  0  0  0  0  0
  -19.5741  -26.6376   21.5214 C   0  0  0  0  0  0
  -18.1924  -26.7929   22.1631 C   0  0  0  0  0  0
  -19.1545  -28.8862   23.2869 C   0  0  0  0  0  0
  -18.9473  -30.1466   23.8880 C   0  0  0  0  0  0
  -17.6479  -30.6598   24.0567 C   0  0  0  0  0  0
  -25.9035  -34.9434   23.5107 C   0  0  0  0  0  0
  -16.5374  -29.9085   23.6348 C   0  0  0  0  0  0
  -16.7281  -28.6503   23.0364 C   0  0  0  0  0  0
  -26.4489  -31.6589   25.0728 C   0  0  0  0  0  0
  -25.3711  -31.3749   26.1456 C   0  0  0  0  0  0
  -27.0355  -30.3007   24.6226 C   0  0  0  0  0  0
  -27.6042  -32.4345   25.7486 C   0  0  0  0  0  0
  -27.5512  -37.1890   24.8540 C   0  0  0  0  0  0
  -21.4203  -29.3052   22.3646 N   0  0  0  0  0  0
  -26.4345  -37.3719   23.9300 N   0  0  0  0  0  0
  -24.6971  -31.0524   22.0942 N   0  0  0  0  0  0
  -23.4177  -28.8160   23.3034 O   0  0  0  0  0  0
  -28.3012  -26.3709   20.1291 O   0  0  0  0  0  0
  -26.5581  -34.8905   22.4661 O   0  0  0  0  0  0
  -23.5454  -32.1354   23.7275 O   0  0  0  0  0  0
  -28.7899  -18.9760   19.4775 C   0  0  0  0  0  0
  -28.3912  -20.3801   19.4312 C   0  0  0  0  0  0
  -29.5333  -18.6011   20.5788 C   0  0  0  0  0  0
  -28.7928  -21.1636   20.4989 C   0  0  0  0  0  0
  -28.4110  -23.6721   20.0671 C   0  0  0  0  0  0
  -30.3280  -17.2797   20.9270 C   0  0  0  0  0  0
  -28.1189  -25.0558   20.8297 C   0  0  0  0  0  0
  -28.5601  -22.5129   20.8154 N   0  0  0  0  0  0
  -29.8306  -15.8592   20.6912 N   0  0  0  0  0  0
  -28.4995  -23.6621   18.8358 O   0  0  0  0  0  0
  -29.6601  -20.0597   21.6016 S   0  0  0  0  0  0
  -31.4702  -12.5796   19.1556 H   0  0  0  0  0  0
  -30.3788  -11.4697   19.9389 H   0  0  0  0  0  0
  -29.7799  -11.7220   17.5136 H   0  0  0  0  0  0
  -29.6338  -13.4505   17.7037 H   0  0  0  0  0  0
  -27.8751  -11.2843   18.8922 H   0  0  0  0  0  0
  -27.3716  -12.5401   17.7928 H   0  0  0  0  0  0
  -27.6374  -14.2527   19.4769 H   0  0  0  0  0  0
  -28.7218  -12.1400   21.4018 H   0  0  0  0  0  0
  -28.4244  -13.8137   21.8039 H   0  0  0  0  0  0
  -25.2781   -9.5671   22.4777 H   0  0  0  0  0  0
  -24.0014   -7.4619   22.7475 H   0  0  0  0  0  0
  -21.0856   -8.8786   19.8949 H   0  0  0  0  0  0
  -22.3730  -10.9685   19.6168 H   0  0  0  0  0  0
  -21.1986   -7.6147   23.9725 H   0  0  0  0  0  0
  -21.1467   -6.0527   25.9084 H   0  0  0  0  0  0
  -22.0604   -2.7623   23.2853 H   0  0  0  0  0  0
  -22.4085  -11.9864   22.4796 H   0  0  0  0  0  0
  -21.1083  -13.1235   22.2641 H   0  0  0  0  0  0
  -24.6522  -15.8451   20.5021 H   0  0  0  0  0  0
  -26.2652  -15.6271   20.0595 H   0  0  0  0  0  0
  -26.7204  -32.5390   23.1082 H   0  0  0  0  0  0
  -25.0144  -33.9695   25.0475 H   0  0  0  0  0  0
  -22.7279  -31.3001   21.3894 H   0  0  0  0  0  0
  -23.3636  -35.9743   23.3676 H   0  0  0  0  0  0
  -24.3465  -36.8493   22.2013 H   0  0  0  0  0  0
  -23.7421  -37.6663   23.6434 H   0  0  0  0  0  0
  -26.1116  -31.5323   20.6045 H   0  0  0  0  0  0
  -26.8512  -30.8213   22.0058 H   0  0  0  0  0  0
  -28.1350  -28.9472   21.1742 H   0  0  0  0  0  0
  -25.9782  -25.8682   19.0641 H   0  0  0  0  0  0
  -23.9594  -27.2639   19.0645 H   0  0  0  0  0  0
  -23.7742  -30.5750   19.4008 H   0  0  0  0  0  0
  -22.7631  -29.2371   19.8557 H   0  0  0  0  0  0
  -25.1349  -36.1991   25.0842 H   0  0  0  0  0  0
  -21.0011  -28.3287   24.1370 H   0  0  0  0  0  0
  -20.5671  -26.2312   23.3618 H   0  0  0  0  0  0
  -21.6639  -26.7417   22.1201 H   0  0  0  0  0  0
  -19.6899  -25.6284   21.1248 H   0  0  0  0  0  0
  -19.6675  -27.3187   20.6751 H   0  0  0  0  0  0
  -17.4192  -26.6693   21.4031 H   0  0  0  0  0  0
  -18.0318  -26.0059   22.9010 H   0  0  0  0  0  0
  -19.7957  -30.7295   24.2218 H   0  0  0  0  0  0
  -17.5032  -31.6276   24.5170 H   0  0  0  0  0  0
  -15.5373  -30.2986   23.7683 H   0  0  0  0  0  0
  -15.8669  -28.0818   22.7099 H   0  0  0  0  0  0
  -24.5908  -30.7053   25.7811 H   0  0  0  0  0  0
  -24.8870  -32.2920   26.4830 H   0  0  0  0  0  0
  -25.8032  -30.8991   27.0267 H   0  0  0  0  0  0
  -26.2967  -29.6748   24.1207 H   0  0  0  0  0  0
  -27.4000  -29.7270   25.4761 H   0  0  0  0  0  0
  -27.8840  -30.4289   23.9498 H   0  0  0  0  0  0
  -27.2652  -33.3653   26.2046 H   0  0  0  0  0  0
  -28.3850  -32.6906   25.0307 H   0  0  0  0  0  0
  -28.0713  -31.8486   26.5408 H   0  0  0  0  0  0
  -28.2883  -37.9811   24.7093 H   0  0  0  0  0  0
  -28.0638  -36.2368   24.7069 H   0  0  0  0  0  0
  -27.2147  -37.2394   25.8917 H   0  0  0  0  0  0
  -20.9392  -29.8750   21.6820 H   0  0  0  0  0  0
  -26.0259  -38.2870   24.0987 H   0  0  0  0  0  0
  -28.5464  -18.2997   18.6703 H   0  0  0  0  0  0
  -27.8109  -20.7574   18.6011 H   0  0  0  0  0  0
  -30.5667  -17.3183   21.9915 H   0  0  0  0  0  0
  -31.2990  -17.3659   20.4367 H   0  0  0  0  0  0
  -28.8085  -25.0767   21.6722 H   0  0  0  0  0  0
  -27.1266  -24.9943   21.2803 H   0  0  0  0  0  0
  -28.5284  -22.6968   21.8107 H   0  0  0  0  0  0
  -28.8445  -15.7037   20.8323 H   0  0  0  0  0  0
  1 25  1  0  0  0
  1 30  2  0  0  0
  1 79  1  0  0  0
  2  3  1  0  0  0
  2 25  1  0  0  0
  2 82  1  0  0  0
  2 83  1  0  0  0
  3  4  1  0  0  0
  3 84  1  0  0  0
  3 85  1  0  0  0
  4  5  1  0  0  0
  4 86  1  0  0  0
  4 87  1  0  0  0
  5  6  1  0  0  0
  5 26  1  0  0  0
  5 88  1  0  0  0
  6 25  1  0  0  0
  6 89  1  0  0  0
  6 90  1  0  0  0
  7  8  2  0  0  0
  7 26  1  0  0  0
  7 29  1  0  0  0
  8  9  1  0  0  0
  8 22  1  0  0  0
  9 10  1  0  0  0
  9 27  2  0  0  0
 10 11  2  0  0  0
 10 15  1  0  0  0
 11 12  1  0  0  0
 11 91  1  0  0  0
 12 13  2  0  0  0
 12 92  1  0  0  0
 13 14  1  0  0  0
 13 31  1  0  0  0
 14 15  2  0  0  0
 14 93  1  0  0  0
 15 94  1  0  0  0
 16 17  2  0  0  0
 16 21  1  0  0  0
 16 31  1  0  0  0
 17 18  1  0  0  0
 17 95  1  0  0  0
 18 19  2  0  0  0
 18 96  1  0  0  0
 19 20  1  0  0  0
 19 24  1  0  0  0
 20 21  2  0  0  0
 20 97  1  0  0  0
 21 23  1  0  0  0
 22 28  1  0  0  0
 22 32  2  0  0  0
 26 27  1  0  0  0
 28 98  1  0  0  0
 28 99  1  0  0  0
 29100  1  0  0  0
 29101  1  0  0  0
 33 34  1  0  0  0
 33 66  1  0  0  0
 33 70  2  0  0  0
 34 36  1  0  0  0
 34 59  1  0  0  0
 34102  1  0  0  0
 35 44  2  0  0  0
 35 45  1  0  0  0
 35 68  1  0  0  0
 36 56  1  0  0  0
 36103  1  0  0  0
 37 39  1  0  0  0
 37 47  1  0  0  0
 37 66  1  0  0  0
 37104  1  0  0  0
 38 43  2  0  0  0
 38 46  1  0  0  0
 38 47  1  0  0  0
 39 64  1  0  0  0
 39 67  2  0  0  0
 40 52  1  0  0  0
 40 53  2  0  0  0
 40 58  1  0  0  0
 41105  1  0  0  0
 41106  1  0  0  0
 41107  1  0  0  0
 41 48  1  0  0  0
 42 43  1  0  0  0
 42 66  1  0  0  0
 42108  1  0  0  0
 42109  1  0  0  0
 43 44  1  0  0  0
 44110  1  0  0  0
 45 46  2  0  0  0
 45111  1  0  0  0
 46112  1  0  0  0
 47113  1  0  0  0
 47114  1  0  0  0
 48 56  1  0  0  0
 48 65  1  0  0  0
 48115  1  0  0  0
 49 50  1  0  0  0
 49 53  1  0  0  0
 49 64  1  0  0  0
 49116  1  0  0  0
 50 51  1  0  0  0
 50117  1  0  0  0
 50118  1  0  0  0
 51 52  1  0  0  0
 51119  1  0  0  0
 51120  1  0  0  0
 52121  1  0  0  0
 52122  1  0  0  0
 53 54  1  0  0  0
 54 55  2  0  0  0
 54123  1  0  0  0
 55 57  1  0  0  0
 55124  1  0  0  0
 56 69  2  0  0  0
 57 58  2  0  0  0
 57125  1  0  0  0
 58126  1  0  0  0
 59 60  1  0  0  0
 59 61  1  0  0  0
 59 62  1  0  0  0
 60127  1  0  0  0
 60128  1  0  0  0
 60129  1  0  0  0
 61130  1  0  0  0
 61131  1  0  0  0
 61132  1  0  0  0
 62133  1  0  0  0
 62134  1  0  0  0
 62135  1  0  0  0
 63 65  1  0  0  0
 63136  1  0  0  0
 63137  1  0  0  0
 63138  1  0  0  0
 64139  1  0  0  0
 65140  1  0  0  0
 68 77  1  0  0  0
 71 72  1  0  0  0
 71 73  2  0  0  0
 71141  1  0  0  0
 72 74  2  0  0  0
 72142  1  0  0  0
 73 76  1  0  0  0
 73 81  1  0  0  0
 74 78  1  0  0  0
 74 81  1  0  0  0
 75 77  1  0  0  0
 75 78  1  0  0  0
 75 80  2  0  0  0
 76 79  1  0  0  0
 76143  1  0  0  0
 76144  1  0  0  0
 77145  1  0  0  0
 77146  1  0  0  0
 78147  1  0  0  0
 79148  1  0  0  0
M  ISO  4   1 100  68 101  77 101  79 100
M  END
> <chiral flag>
0

> <version>
0

> <s_m_source_file>
/data/baiqing/PycharmProjects/Reinvent-master-3.2/result/LINK_invent/BTK/process_docking_weight1_custom_product_contain_oxygen_bond_distance_aromatic_linkinvent_7_9_3/rearranged_h_0091.sdf

> <i_m_source_file_index>
10

> <r_mmod_Potential_Energy-OPLS-2005>
65.9956207275391

> <r_mmod_Stretch_Energy-OPLS-2005>
103.956047058105

> <r_mmod_Bend_Energy-OPLS-2005>
173.040939331055

> <r_mmod_Torsional_Energy-OPLS-2005>
238.459716796875

> <r_mmod_Improper_Torsional_Energy-OPLS-2005>
4.65559244155884

> <r_mmod_Van_der_Waal_Energy-OPLS-2005>
112.999862670898

> <r_mmod_Electrostatic_Energy-OPLS-2005>
-405.581939697266

> <r_mmod_Solvation_Energy-OPLS-2005>
-241.360015869141

> <b_mmod_Minimization_Converged-OPLS-2005>
0

> <r_mmod_RMS_Derivative-OPLS-2005>
2.90943837165833

$$$$
10
                    3D
 Structure written by MMmdl.
154162  0  0  1  0            999 V2000
  -30.5054  -14.7601   20.5315 C   0  0  0  0  0  0
  -30.4458  -12.4888   19.4956 C   0  0  0  0  0  0
  -29.5163  -12.5581   18.2592 C   0  0  0  0  0  0
  -28.0397  -12.3571   18.6548 C   0  0  0  0  0  0
  -27.6397  -13.2272   19.8745 C   0  0  2  0  0  0
  -28.6693  -13.1029   21.0185 C   0  0  0  0  0  0
  -25.2439  -13.8179   20.5713 C   0  0  0  0  0  0
  -24.1726  -13.0467   20.9100 C   0  0  0  0  0  0
  -24.6303  -11.6914   20.8648 C   0  0  0  0  0  0
  -23.8993  -10.4316   21.0357 C   0  0  0  0  0  0
  -24.3569   -9.4256   21.9147 C   0  0  0  0  0  0
  -23.6279   -8.2266   22.0744 C   0  0  0  0  0  0
  -22.4258   -8.0246   21.3544 C   0  0  0  0  0  0
  -21.9873   -9.0202   20.4636 C   0  0  0  0  0  0
  -22.7165  -10.2111   20.3027 C   0  0  0  0  0  0
  -21.6868   -6.0722   22.5268 C   0  0  0  0  0  0
  -21.4032   -6.5640   23.8201 C   0  0  0  0  0  0
  -21.3656   -5.6795   24.9159 C   0  0  0  0  0  0
  -21.6048   -4.3060   24.7220 C   0  0  0  0  0  0
  -21.8822   -3.8136   23.4351 C   0  0  0  0  0  0
  -21.9211   -4.6951   22.3398 C   0  0  0  0  0  0
  -22.7766  -13.5239   21.1804 C   0  0  0  0  0  0
  -22.1673   -4.2137   21.0982 F   0  0  0  0  0  0
  -21.5622   -3.4541   25.7734 F   0  0  0  0  0  0
  -29.9780  -13.4933   20.4742 N   0  0  0  0  0  0
  -26.2878  -12.9391   20.3379 N   0  0  0  0  0  0
  -25.9238  -11.6537   20.5749 N   0  0  0  0  0  0
  -22.0457  -12.8205   22.0376 N   0  0  0  0  0  0
  -25.4161  -15.1946   20.4279 N   0  0  0  0  0  0
  -31.6357  -14.9902   20.0797 O   0  0  0  0  0  0
  -21.6654   -6.8835   21.4219 O   0  0  0  0  0  0
  -22.3470  -14.5592   20.6701 O   0  0  0  0  0  0
  -24.6461  -31.8485   23.1887 C   0  0  0  0  0  0
  -25.9245  -32.4735   23.8221 C   0  0  1  0  0  0
  -27.2092  -27.2350   20.1150 C   0  0  0  0  0  0
  -25.5999  -33.8484   24.2191 N   0  0  0  0  0  0
  -23.4389  -30.4807   21.5320 C   0  0  2  0  0  0
  -24.8831  -28.9324   20.0927 C   0  0  0  0  0  0
  -22.7534  -29.4617   22.4798 C   0  0  0  0  0  0
  -18.0322  -28.1458   22.8494 C   0  0  0  0  0  0
  -24.1527  -36.7299   23.2644 C   0  0  0  0  0  0
  -25.9900  -30.7629   21.3634 C   0  0  0  0  0  0
  -26.0582  -29.3812   20.7133 C   0  0  0  0  0  0
  -27.2261  -28.5456   20.7184 C   0  0  0  0  0  0
  -25.9987  -26.8597   19.4865 C   0  0  0  0  0  0
  -24.8660  -27.6855   19.4573 C   0  0  0  0  0  0
  -23.6565  -29.8177   20.1444 C   0  0  0  0  0  0
  -25.4128  -36.3029   24.0344 C   0  0  1  0  0  0
  -20.5960  -28.3771   23.1261 C   0  0  2  0  0  0
  -20.6840  -26.9483   22.5396 C   0  0  0  0  0  0
  -19.5790  -26.6439   21.5232 C   0  0  0  0  0  0
  -18.1959  -26.7993   22.1625 C   0  0  0  0  0  0
  -19.1601  -28.8916   23.2894 C   0  0  0  0  0  0
  -18.9483  -30.1519   23.8903 C   0  0  0  0  0  0
  -17.6459  -30.6631   24.0580 C   0  0  0  0  0  0
  -25.9059  -34.9421   23.5058 C   0  0  0  0  0  0
  -16.5361  -29.9140   23.6346 C   0  0  0  0  0  0
  -16.7293  -28.6586   23.0288 C   0  0  0  0  0  0
  -26.4536  -31.6532   25.0632 C   0  0  0  0  0  0
  -25.3731  -31.3651   26.1352 C   0  0  0  0  0  0
  -27.0357  -30.2938   24.6107 C   0  0  0  0  0  0
  -27.6073  -32.4258   25.7382 C   0  0  0  0  0  0
  -27.5591  -37.1811   24.8469 C   0  0  0  0  0  0
  -21.4229  -29.3091   22.3584 N   0  0  0  0  0  0
  -26.4306  -37.3736   23.9427 N   0  0  0  0  0  0
  -24.7115  -31.0480   22.0831 N   0  0  0  0  0  0
  -23.4241  -28.8153   23.2897 O   0  0  0  0  0  0
  -28.2500  -26.2664   20.1737 O   0  0  0  0  0  0
  -26.5635  -34.8904   22.4631 O   0  0  0  0  0  0
  -23.5618  -32.1164   23.7228 O   0  0  0  0  0  0
  -27.8264  -19.0890   20.8043 C   0  0  0  0  0  0
  -30.3508  -18.0888   20.1599 C   0  0  0  0  0  0
  -28.7205  -20.0093   20.1822 C   0  0  0  0  0  0
  -30.0330  -19.4760   19.9283 C   0  0  0  0  0  0
  -29.4359  -17.1699   20.7545 C   0  0  0  0  0  0
  -28.1849  -17.7375   21.1152 C   0  0  0  0  0  0
  -28.3073  -23.8179   19.1664 C   0  0  0  0  0  0
  -28.2425  -25.2157   19.2166 C   0  0  0  0  0  0
  -28.1772  -21.3605   19.5977 C   0  0  0  0  0  0
  -29.3398  -22.8238   21.2175 C   0  0  0  0  0  0
  -31.0491  -20.2839   19.4113 N   0  0  0  0  0  0
  -29.6704  -15.7348   21.0383 N   0  0  0  0  0  0
  -28.5448  -22.6488   20.0134 N   0  0  0  0  0  0
  -27.3832  -21.2211   18.6573 O   0  0  0  0  0  0
  -27.2751  -16.9526   21.7390 F   0  0  0  0  0  0
  -31.4801  -12.6702   19.1994 H   0  0  0  0  0  0
  -30.4334  -11.5009   19.9559 H   0  0  0  0  0  0
  -29.8173  -11.8215   17.5148 H   0  0  0  0  0  0
  -29.6179  -13.5360   17.7822 H   0  0  0  0  0  0
  -27.8935  -11.3015   18.8871 H   0  0  0  0  0  0
  -27.3857  -12.5817   17.8091 H   0  0  0  0  0  0
  -27.6436  -14.2620   19.5239 H   0  0  0  0  0  0
  -28.7085  -12.0846   21.4052 H   0  0  0  0  0  0
  -28.3751  -13.7257   21.8643 H   0  0  0  0  0  0
  -25.2718   -9.5800   22.4715 H   0  0  0  0  0  0
  -24.0022   -7.4705   22.7498 H   0  0  0  0  0  0
  -21.0793   -8.8673   19.8949 H   0  0  0  0  0  0
  -22.3567  -10.9616   19.6124 H   0  0  0  0  0  0
  -21.2017   -7.6151   23.9694 H   0  0  0  0  0  0
  -21.1477   -6.0531   25.9070 H   0  0  0  0  0  0
  -22.0601   -2.7589   23.2848 H   0  0  0  0  0  0
  -22.4089  -11.9798   22.4616 H   0  0  0  0  0  0
  -21.1129  -13.1250   22.2706 H   0  0  0  0  0  0
  -24.6568  -15.8521   20.5670 H   0  0  0  0  0  0
  -26.3198  -15.6484   20.3934 H   0  0  0  0  0  0
  -26.7340  -32.5318   23.0961 H   0  0  0  0  0  0
  -25.0123  -33.9537   25.0325 H   0  0  0  0  0  0
  -22.7435  -31.3058   21.3802 H   0  0  0  0  0  0
  -23.3757  -35.9671   23.3274 H   0  0  0  0  0  0
  -24.3630  -36.8903   22.2067 H   0  0  0  0  0  0
  -23.7318  -37.6518   23.6652 H   0  0  0  0  0  0
  -26.1276  -31.5181   20.5883 H   0  0  0  0  0  0
  -26.8792  -30.8208   21.9803 H   0  0  0  0  0  0
  -28.1275  -28.8844   21.2130 H   0  0  0  0  0  0
  -25.8842  -25.8902   19.0282 H   0  0  0  0  0  0
  -23.9796  -27.3439   18.9392 H   0  0  0  0  0  0
  -23.7682  -30.5895   19.3812 H   0  0  0  0  0  0
  -22.7776  -29.2439   19.8472 H   0  0  0  0  0  0
  -25.1322  -36.1844   25.0849 H   0  0  0  0  0  0
  -21.0060  -28.3378   24.1384 H   0  0  0  0  0  0
  -20.5802  -26.2328   23.3572 H   0  0  0  0  0  0
  -21.6677  -26.7521   22.1111 H   0  0  0  0  0  0
  -19.6912  -25.6342   21.1269 H   0  0  0  0  0  0
  -19.6762  -27.3257   20.6779 H   0  0  0  0  0  0
  -17.4202  -26.6754   21.4047 H   0  0  0  0  0  0
  -18.0348  -26.0165   22.9059 H   0  0  0  0  0  0
  -19.7936  -30.7414   24.2184 H   0  0  0  0  0  0
  -17.4989  -31.6284   24.5255 H   0  0  0  0  0  0
  -15.5346  -30.3016   23.7706 H   0  0  0  0  0  0
  -15.8687  -28.0968   22.6880 H   0  0  0  0  0  0
  -24.6009  -30.6892   25.7689 H   0  0  0  0  0  0
  -24.8823  -32.2788   26.4723 H   0  0  0  0  0  0
  -25.8123  -30.8889   27.0131 H   0  0  0  0  0  0
  -26.2911  -29.6660   24.1226 H   0  0  0  0  0  0
  -27.4126  -29.7271   25.4628 H   0  0  0  0  0  0
  -27.8753  -30.4197   23.9252 H   0  0  0  0  0  0
  -27.2734  -33.3613   26.1864 H   0  0  0  0  0  0
  -28.3940  -32.6692   25.0232 H   0  0  0  0  0  0
  -28.0658  -31.8377   26.5338 H   0  0  0  0  0  0
  -28.2597  -38.0102   24.7511 H   0  0  0  0  0  0
  -28.1090  -36.2661   24.6307 H   0  0  0  0  0  0
  -27.2318  -37.1464   25.8853 H   0  0  0  0  0  0
  -20.9378  -29.8759   21.6782 H   0  0  0  0  0  0
  -26.0178  -38.2824   24.1329 H   0  0  0  0  0  0
  -26.8184  -19.4026   21.0492 H   0  0  0  0  0  0
  -31.3167  -17.6996   19.8776 H   0  0  0  0  0  0
  -28.1887  -23.4586   18.1521 H   0  0  0  0  0  0
  -28.1222  -25.6943   18.2536 H   0  0  0  0  0  0
  -30.3884  -22.6859   20.9340 H   0  0  0  0  0  0
  -29.0987  -22.1004   21.9993 H   0  0  0  0  0  0
  -29.1937  -23.8228   21.6271 H   0  0  0  0  0  0
  -31.9422  -19.8886   19.1300 H   0  0  0  0  0  0
  -30.8750  -21.2061   19.0255 H   0  0  0  0  0  0
  -28.9103  -15.3250   21.5622 H   0  0  0  0  0  0
  1 25  1  0  0  0
  1 30  2  0  0  0
  1 82  1  0  0  0
  2  3  1  0  0  0
  2 25  1  0  0  0
  2 86  1  0  0  0
  2 87  1  0  0  0
  3  4  1  0  0  0
  3 88  1  0  0  0
  3 89  1  0  0  0
  4  5  1  0  0  0
  4 90  1  0  0  0
  4 91  1  0  0  0
  5  6  1  0  0  0
  5 26  1  0  0  0
  5 92  1  0  0  0
  6 25  1  0  0  0
  6 93  1  0  0  0
  6 94  1  0  0  0
  7  8  2  0  0  0
  7 26  1  0  0  0
  7 29  1  0  0  0
  8  9  1  0  0  0
  8 22  1  0  0  0
  9 10  1  0  0  0
  9 27  2  0  0  0
 10 11  2  0  0  0
 10 15  1  0  0  0
 11 12  1  0  0  0
 11 95  1  0  0  0
 12 13  2  0  0  0
 12 96  1  0  0  0
 13 14  1  0  0  0
 13 31  1  0  0  0
 14 15  2  0  0  0
 14 97  1  0  0  0
 15 98  1  0  0  0
 16 17  2  0  0  0
 16 21  1  0  0  0
 16 31  1  0  0  0
 17 18  1  0  0  0
 17 99  1  0  0  0
 18 19  2  0  0  0
 18100  1  0  0  0
 19 20  1  0  0  0
 19 24  1  0  0  0
 20 21  2  0  0  0
 20101  1  0  0  0
 21 23  1  0  0  0
 22 28  1  0  0  0
 22 32  2  0  0  0
 26 27  1  0  0  0
 28102  1  0  0  0
 28103  1  0  0  0
 29104  1  0  0  0
 29105  1  0  0  0
 33 34  1  0  0  0
 33 66  1  0  0  0
 33 70  2  0  0  0
 34 36  1  0  0  0
 34 59  1  0  0  0
 34106  1  0  0  0
 35 44  2  0  0  0
 35 45  1  0  0  0
 35 68  1  0  0  0
 36 56  1  0  0  0
 36107  1  0  0  0
 37 39  1  0  0  0
 37 47  1  0  0  0
 37 66  1  0  0  0
 37108  1  0  0  0
 38 43  2  0  0  0
 38 46  1  0  0  0
 38 47  1  0  0  0
 39 64  1  0  0  0
 39 67  2  0  0  0
 40 52  1  0  0  0
 40 53  2  0  0  0
 40 58  1  0  0  0
 41109  1  0  0  0
 41110  1  0  0  0
 41111  1  0  0  0
 41 48  1  0  0  0
 42 43  1  0  0  0
 42 66  1  0  0  0
 42112  1  0  0  0
 42113  1  0  0  0
 43 44  1  0  0  0
 44114  1  0  0  0
 45 46  2  0  0  0
 45115  1  0  0  0
 46116  1  0  0  0
 47117  1  0  0  0
 47118  1  0  0  0
 48 56  1  0  0  0
 48 65  1  0  0  0
 48119  1  0  0  0
 49 50  1  0  0  0
 49 53  1  0  0  0
 49 64  1  0  0  0
 49120  1  0  0  0
 50 51  1  0  0  0
 50121  1  0  0  0
 50122  1  0  0  0
 51 52  1  0  0  0
 51123  1  0  0  0
 51124  1  0  0  0
 52125  1  0  0  0
 52126  1  0  0  0
 53 54  1  0  0  0
 54 55  2  0  0  0
 54127  1  0  0  0
 55 57  1  0  0  0
 55128  1  0  0  0
 56 69  2  0  0  0
 57 58  2  0  0  0
 57129  1  0  0  0
 58130  1  0  0  0
 59 60  1  0  0  0
 59 61  1  0  0  0
 59 62  1  0  0  0
 60131  1  0  0  0
 60132  1  0  0  0
 60133  1  0  0  0
 61134  1  0  0  0
 61135  1  0  0  0
 61136  1  0  0  0
 62137  1  0  0  0
 62138  1  0  0  0
 62139  1  0  0  0
 63 65  1  0  0  0
 63140  1  0  0  0
 63141  1  0  0  0
 63142  1  0  0  0
 64143  1  0  0  0
 65144  1  0  0  0
 68 78  1  0  0  0
 71 73  2  0  0  0
 71 76  1  0  0  0
 71145  1  0  0  0
 72 74  2  0  0  0
 72 75  1  0  0  0
 72146  1  0  0  0
 73 74  1  0  0  0
 73 79  1  0  0  0
 74 81  1  0  0  0
 75 76  2  0  0  0
 75 82  1  0  0  0
 76 85  1  0  0  0
 77 78  2  0  0  0
 77 83  1  0  0  0
 77147  1  0  0  0
 78148  1  0  0  0
 79 83  1  0  0  0
 79 84  2  0  0  0
 80 83  1  0  0  0
 80149  1  0  0  0
 80150  1  0  0  0
 80151  1  0  0  0
 81152  1  0  0  0
 81153  1  0  0  0
 82154  1  0  0  0
M  ISO  4   1 100  68 101  78 101  82 100
M  END
> <chiral flag>
0

> <version>
0

> <s_m_source_file>
/data/baiqing/PycharmProjects/Reinvent-master-3.2/result/LINK_invent/BTK/process_docking_weight1_custom_product_contain_oxygen_bond_distance_aromatic_linkinvent_7_9_3/rearranged_h_0091.sdf

> <i_m_source_file_index>
11

> <r_mmod_Potential_Energy-OPLS-2005>
358.878051757812

> <r_mmod_Stretch_Energy-OPLS-2005>
117.198486328125

> <r_mmod_Bend_Energy-OPLS-2005>
239.910949707031

> <r_mmod_Torsional_Energy-OPLS-2005>
288.670593261719

> <r_mmod_Improper_Torsional_Energy-OPLS-2005>
7.20374870300293

> <r_mmod_Van_der_Waal_Energy-OPLS-2005>
151.626968383789

> <r_mmod_Electrostatic_Energy-OPLS-2005>
-340.2666015625

> <r_mmod_Solvation_Energy-OPLS-2005>
-215.659454345703

> <b_mmod_Minimization_Converged-OPLS-2005>
0

> <r_mmod_RMS_Derivative-OPLS-2005>
9.372314453125

$$$$
11
                    3D
 Structure written by MMmdl.
155164  0  0  1  0            999 V2000
  -30.4702  -15.0907   20.3964 C   0  0  0  0  0  0
  -30.4431  -12.6893   19.5227 C   0  0  0  0  0  0
  -29.5336  -12.5724   18.2747 C   0  0  0  0  0  0
  -28.0675  -12.3345   18.6801 C   0  0  0  0  0  0
  -27.6204  -13.2708   19.8332 C   0  0  2  0  0  0
  -28.6537  -13.3418   20.9772 C   0  0  0  0  0  0
  -25.2393  -13.8257   20.5681 C   0  0  0  0  0  0
  -24.1735  -13.0460   20.9224 C   0  0  0  0  0  0
  -24.6377  -11.6950   20.8743 C   0  0  0  0  0  0
  -23.9070  -10.4310   21.0421 C   0  0  0  0  0  0
  -24.3635   -9.4203   21.9176 C   0  0  0  0  0  0
  -23.6292   -8.2245   22.0748 C   0  0  0  0  0  0
  -22.4271   -8.0297   21.3538 C   0  0  0  0  0  0
  -21.9903   -9.0282   20.4645 C   0  0  0  0  0  0
  -22.7250  -10.2153   20.3051 C   0  0  0  0  0  0
  -21.6864   -6.0733   22.5274 C   0  0  0  0  0  0
  -21.4019   -6.5639   23.8207 C   0  0  0  0  0  0
  -21.3645   -5.6788   24.9173 C   0  0  0  0  0  0
  -21.6041   -4.3052   24.7214 C   0  0  0  0  0  0
  -21.8811   -3.8138   23.4333 C   0  0  0  0  0  0
  -21.9189   -4.6954   22.3387 C   0  0  0  0  0  0
  -22.7749  -13.5217   21.1890 C   0  0  0  0  0  0
  -22.1653   -4.2139   21.0966 F   0  0  0  0  0  0
  -21.5617   -3.4530   25.7717 F   0  0  0  0  0  0
  -29.9203  -13.7982   20.3837 N   0  0  0  0  0  0
  -26.2833  -12.9526   20.3208 N   0  0  0  0  0  0
  -25.9324  -11.6635   20.5721 N   0  0  0  0  0  0
  -22.0394  -12.8238   22.0477 N   0  0  0  0  0  0
  -25.4066  -15.1989   20.4082 N   0  0  0  0  0  0
  -31.6718  -15.1554   20.0977 O   0  0  0  0  0  0
  -21.6633   -6.8893   21.4249 O   0  0  0  0  0  0
  -22.3428  -14.5501   20.6698 O   0  0  0  0  0  0
  -24.6527  -31.8366   23.1819 C   0  0  0  0  0  0
  -25.9256  -32.4650   23.8252 C   0  0  1  0  0  0
  -27.2003  -27.0367   20.1604 C   0  0  0  0  0  0
  -25.5950  -33.8451   24.2130 N   0  0  0  0  0  0
  -23.4614  -30.4568   21.5289 C   0  0  2  0  0  0
  -24.9084  -28.8707   20.1094 C   0  0  0  0  0  0
  -22.7610  -29.4526   22.4804 C   0  0  0  0  0  0
  -18.0316  -28.1411   22.8476 C   0  0  0  0  0  0
  -24.1485  -36.7228   23.2645 C   0  0  0  0  0  0
  -26.0257  -30.6760   21.4001 C   0  0  0  0  0  0
  -26.0914  -29.2799   20.7389 C   0  0  0  0  0  0
  -27.2375  -28.3809   20.7462 C   0  0  0  0  0  0
  -25.9954  -26.7653   19.4762 C   0  0  0  0  0  0
  -24.8779  -27.6280   19.4632 C   0  0  0  0  0  0
  -23.6930  -29.7881   20.1491 C   0  0  0  0  0  0
  -25.4116  -36.2988   24.0306 C   0  0  1  0  0  0
  -20.5933  -28.3745   23.1205 C   0  0  2  0  0  0
  -20.6799  -26.9437   22.5397 C   0  0  0  0  0  0
  -19.5769  -26.6383   21.5218 C   0  0  0  0  0  0
  -18.1951  -26.7944   22.1629 C   0  0  0  0  0  0
  -19.1571  -28.8896   23.2834 C   0  0  0  0  0  0
  -18.9486  -30.1486   23.8869 C   0  0  0  0  0  0
  -17.6483  -30.6603   24.0571 C   0  0  0  0  0  0
  -25.9087  -34.9377   23.5035 C   0  0  0  0  0  0
  -16.5375  -29.9098   23.6335 C   0  0  0  0  0  0
  -16.7305  -28.6516   23.0360 C   0  0  0  0  0  0
  -26.4519  -31.6562   25.0750 C   0  0  0  0  0  0
  -25.3653  -31.3811   26.1410 C   0  0  0  0  0  0
  -27.0415  -30.2940   24.6452 C   0  0  0  0  0  0
  -27.6016  -32.4360   25.7540 C   0  0  0  0  0  0
  -27.5581  -37.1743   24.8441 C   0  0  0  0  0  0
  -21.4291  -29.3061   22.3554 N   0  0  0  0  0  0
  -26.4265  -37.3722   23.9437 N   0  0  0  0  0  0
  -24.7341  -31.0132   22.0910 N   0  0  0  0  0  0
  -23.4205  -28.8092   23.3004 O   0  0  0  0  0  0
  -28.2080  -25.9710   20.2013 O   0  0  0  0  0  0
  -26.5701  -34.8901   22.4631 O   0  0  0  0  0  0
  -23.5622  -32.1282   23.6973 O   0  0  0  0  0  0
  -30.3097  -20.1538   19.4854 C   0  0  0  0  0  0
  -28.8684  -18.8325   20.7401 C   0  0  0  0  0  0
  -29.1990  -20.2817   20.2880 C   0  0  0  0  0  0
  -29.7289  -17.7221   20.3598 C   0  0  0  0  0  0
  -28.7456  -23.0417   20.0329 C   0  0  0  0  0  0
  -26.6988  -22.8702   22.0089 C   0  0  0  0  0  0
  -27.3073  -24.2636   21.8304 C   0  0  0  0  0  0
  -27.7201  -21.7252   21.8264 C   0  0  0  0  0  0
  -27.8195  -24.4272   20.3986 C   0  0  1  0  0  0
  -27.6551  -18.4582   21.5427 C   0  0  0  0  0  0
  -28.5461  -21.7063   20.5978 N   0  0  0  0  0  0
  -29.6611  -16.2721   20.6050 N   0  0  0  0  0  0
  -29.6076  -23.1999   19.1638 O   0  0  0  0  0  0
  -30.9610  -18.4910   19.3679 S   0  0  0  0  0  0
  -31.4704  -12.8758   19.2013 H   0  0  0  0  0  0
  -30.4739  -11.7552   20.0834 H   0  0  0  0  0  0
  -29.8796  -11.7702   17.6223 H   0  0  0  0  0  0
  -29.6046  -13.4938   17.6926 H   0  0  0  0  0  0
  -27.9733  -11.2939   18.9901 H   0  0  0  0  0  0
  -27.4176  -12.4619   17.8135 H   0  0  0  0  0  0
  -27.5627  -14.2666   19.3900 H   0  0  0  0  0  0
  -28.7640  -12.3718   21.4625 H   0  0  0  0  0  0
  -28.3201  -14.0394   21.7494 H   0  0  0  0  0  0
  -25.2792   -9.5643   22.4756 H   0  0  0  0  0  0
  -23.9976   -7.4621   22.7478 H   0  0  0  0  0  0
  -21.0804   -8.8827   19.8967 H   0  0  0  0  0  0
  -22.3724  -10.9701   19.6148 H   0  0  0  0  0  0
  -21.2037   -7.6151   23.9720 H   0  0  0  0  0  0
  -21.1472   -6.0518   25.9083 H   0  0  0  0  0  0
  -22.0603   -2.7598   23.2846 H   0  0  0  0  0  0
  -22.4010  -11.9928   22.4909 H   0  0  0  0  0  0
  -21.1008  -13.1280   22.2670 H   0  0  0  0  0  0
  -24.6309  -15.8487   20.4782 H   0  0  0  0  0  0
  -26.2385  -15.6243   20.0200 H   0  0  0  0  0  0
  -26.7345  -32.5208   23.0993 H   0  0  0  0  0  0
  -25.0009  -33.9544   25.0222 H   0  0  0  0  0  0
  -22.7686  -31.2856   21.3705 H   0  0  0  0  0  0
  -23.3748  -35.9558   23.3246 H   0  0  0  0  0  0
  -24.3582  -36.8928   22.2073 H   0  0  0  0  0  0
  -23.7233  -37.6401   23.6726 H   0  0  0  0  0  0
  -26.2009  -31.4284   20.6293 H   0  0  0  0  0  0
  -26.8871  -30.7185   22.0558 H   0  0  0  0  0  0
  -28.1328  -28.6890   21.2675 H   0  0  0  0  0  0
  -25.8802  -25.8375   18.9385 H   0  0  0  0  0  0
  -23.9804  -27.3110   18.9492 H   0  0  0  0  0  0
  -23.8421  -30.5639   19.3967 H   0  0  0  0  0  0
  -22.8024  -29.2439   19.8299 H   0  0  0  0  0  0
  -25.1295  -36.1790   25.0797 H   0  0  0  0  0  0
  -21.0031  -28.3355   24.1328 H   0  0  0  0  0  0
  -20.5677  -26.2378   23.3637 H   0  0  0  0  0  0
  -21.6668  -26.7428   22.1204 H   0  0  0  0  0  0
  -19.6926  -25.6284   21.1280 H   0  0  0  0  0  0
  -19.6703  -27.3176   20.6736 H   0  0  0  0  0  0
  -17.4212  -26.6676   21.4047 H   0  0  0  0  0  0
  -18.0356  -26.0110   22.9047 H   0  0  0  0  0  0
  -19.7954  -30.7311   24.2235 H   0  0  0  0  0  0
  -17.5032  -31.6274   24.5187 H   0  0  0  0  0  0
  -15.5380  -30.3000   23.7672 H   0  0  0  0  0  0
  -15.8700  -28.0847   22.7084 H   0  0  0  0  0  0
  -24.5821  -30.7185   25.7714 H   0  0  0  0  0  0
  -24.8869  -32.3028   26.4731 H   0  0  0  0  0  0
  -25.7875  -30.9028   27.0254 H   0  0  0  0  0  0
  -26.3099  -29.6623   24.1412 H   0  0  0  0  0  0
  -27.3911  -29.7294   25.5101 H   0  0  0  0  0  0
  -27.9039  -30.4139   23.9895 H   0  0  0  0  0  0
  -27.2572  -33.3661   26.2069 H   0  0  0  0  0  0
  -28.3843  -32.6924   25.0389 H   0  0  0  0  0  0
  -28.0671  -31.8538   26.5498 H   0  0  0  0  0  0
  -28.2497  -38.0137   24.7586 H   0  0  0  0  0  0
  -28.1167  -36.2659   24.6107 H   0  0  0  0  0  0
  -27.2324  -37.1199   25.8848 H   0  0  0  0  0  0
  -20.9516  -29.8766   21.6715 H   0  0  0  0  0  0
  -26.0093  -38.2769   24.1503 H   0  0  0  0  0  0
  -30.8284  -20.9458   18.9575 H   0  0  0  0  0  0
  -25.8699  -22.7447   21.3090 H   0  0  0  0  0  0
  -26.2591  -22.7937   23.0049 H   0  0  0  0  0  0
  -28.1162  -24.4233   22.5456 H   0  0  0  0  0  0
  -26.5488  -25.0156   22.0447 H   0  0  0  0  0  0
  -27.1272  -20.8276   21.8951 H   0  0  0  0  0  0
  -28.4088  -21.7162   22.6734 H   0  0  0  0  0  0
  -26.9696  -24.2645   19.7409 H   0  0  0  0  0  0
  -26.7441  -18.8630   21.1045 H   0  0  0  0  0  0
  -27.7321  -18.7918   22.5767 H   0  0  0  0  0  0
  -27.5026  -17.3805   21.5756 H   0  0  0  0  0  0
  -28.7679  -15.9946   20.9822 H   0  0  0  0  0  0
  1 25  1  0  0  0
  1 30  2  0  0  0
  1 82  1  0  0  0
  2  3  1  0  0  0
  2 25  1  0  0  0
  2 85  1  0  0  0
  2 86  1  0  0  0
  3  4  1  0  0  0
  3 87  1  0  0  0
  3 88  1  0  0  0
  4  5  1  0  0  0
  4 89  1  0  0  0
  4 90  1  0  0  0
  5  6  1  0  0  0
  5 26  1  0  0  0
  5 91  1  0  0  0
  6 25  1  0  0  0
  6 92  1  0  0  0
  6 93  1  0  0  0
  7  8  2  0  0  0
  7 26  1  0  0  0
  7 29  1  0  0  0
  8  9  1  0  0  0
  8 22  1  0  0  0
  9 10  1  0  0  0
  9 27  2  0  0  0
 10 11  2  0  0  0
 10 15  1  0  0  0
 11 12  1  0  0  0
 11 94  1  0  0  0
 12 13  2  0  0  0
 12 95  1  0  0  0
 13 14  1  0  0  0
 13 31  1  0  0  0
 14 15  2  0  0  0
 14 96  1  0  0  0
 15 97  1  0  0  0
 16 17  2  0  0  0
 16 21  1  0  0  0
 16 31  1  0  0  0
 17 18  1  0  0  0
 17 98  1  0  0  0
 18 19  2  0  0  0
 18 99  1  0  0  0
 19 20  1  0  0  0
 19 24  1  0  0  0
 20 21  2  0  0  0
 20100  1  0  0  0
 21 23  1  0  0  0
 22 28  1  0  0  0
 22 32  2  0  0  0
 26 27  1  0  0  0
 28101  1  0  0  0
 28102  1  0  0  0
 29103  1  0  0  0
 29104  1  0  0  0
 33 34  1  0  0  0
 33 66  1  0  0  0
 33 70  2  0  0  0
 34 36  1  0  0  0
 34 59  1  0  0  0
 34105  1  0  0  0
 35 44  2  0  0  0
 35 45  1  0  0  0
 35 68  1  0  0  0
 36 56  1  0  0  0
 36106  1  0  0  0
 37 39  1  0  0  0
 37 47  1  0  0  0
 37 66  1  0  0  0
 37107  1  0  0  0
 38 43  2  0  0  0
 38 46  1  0  0  0
 38 47  1  0  0  0
 39 64  1  0  0  0
 39 67  2  0  0  0
 40 52  1  0  0  0
 40 53  2  0  0  0
 40 58  1  0  0  0
 41108  1  0  0  0
 41109  1  0  0  0
 41110  1  0  0  0
 41 48  1  0  0  0
 42 43  1  0  0  0
 42 66  1  0  0  0
 42111  1  0  0  0
 42112  1  0  0  0
 43 44  1  0  0  0
 44113  1  0  0  0
 45 46  2  0  0  0
 45114  1  0  0  0
 46115  1  0  0  0
 47116  1  0  0  0
 47117  1  0  0  0
 48 56  1  0  0  0
 48 65  1  0  0  0
 48118  1  0  0  0
 49 50  1  0  0  0
 49 53  1  0  0  0
 49 64  1  0  0  0
 49119  1  0  0  0
 50 51  1  0  0  0
 50120  1  0  0  0
 50121  1  0  0  0
 51 52  1  0  0  0
 51122  1  0  0  0
 51123  1  0  0  0
 52124  1  0  0  0
 52125  1  0  0  0
 53 54  1  0  0  0
 54 55  2  0  0  0
 54126  1  0  0  0
 55 57  1  0  0  0
 55127  1  0  0  0
 56 69  2  0  0  0
 57 58  2  0  0  0
 57128  1  0  0  0
 58129  1  0  0  0
 59 60  1  0  0  0
 59 61  1  0  0  0
 59 62  1  0  0  0
 60130  1  0  0  0
 60131  1  0  0  0
 60132  1  0  0  0
 61133  1  0  0  0
 61134  1  0  0  0
 61135  1  0  0  0
 62136  1  0  0  0
 62137  1  0  0  0
 62138  1  0  0  0
 63 65  1  0  0  0
 63139  1  0  0  0
 63140  1  0  0  0
 63141  1  0  0  0
 64142  1  0  0  0
 65143  1  0  0  0
 68 79  1  0  0  0
 71 73  2  0  0  0
 71 84  1  0  0  0
 71144  1  0  0  0
 72 73  1  0  0  0
 72 74  2  0  0  0
 72 80  1  0  0  0
 73 81  1  0  0  0
 74 82  1  0  0  0
 74 84  1  0  0  0
 75 79  1  0  0  0
 75 81  1  0  0  0
 75 83  2  0  0  0
 76 77  1  0  0  0
 76 78  1  0  0  0
 76145  1  0  0  0
 76146  1  0  0  0
 77 79  1  0  0  0
 77147  1  0  0  0
 77148  1  0  0  0
 78 81  1  0  0  0
 78149  1  0  0  0
 78150  1  0  0  0
 79151  1  0  0  0
 80152  1  0  0  0
 80153  1  0  0  0
 80154  1  0  0  0
 82155  1  0  0  0
M  ISO  4   1 100  68 101  79 101  82 100
M  END
> <chiral flag>
0

> <version>
0

> <s_m_source_file>
/data/baiqing/PycharmProjects/Reinvent-master-3.2/result/LINK_invent/BTK/process_docking_weight1_custom_product_contain_oxygen_bond_distance_aromatic_linkinvent_7_9_3/rearranged_h_0091.sdf

> <i_m_source_file_index>
12

> <r_mmod_Potential_Energy-OPLS-2005>
806.837463378906

> <r_mmod_Stretch_Energy-OPLS-2005>
373.344085693359

> <r_mmod_Bend_Energy-OPLS-2005>
316.665649414062

> <r_mmod_Torsional_Energy-OPLS-2005>
253.893417358398

> <r_mmod_Improper_Torsional_Energy-OPLS-2005>
4.0254487991333

> <r_mmod_Van_der_Waal_Energy-OPLS-2005>
123.159149169922

> <r_mmod_Electrostatic_Energy-OPLS-2005>
-338.007934570312

> <r_mmod_Solvation_Energy-OPLS-2005>
-230.409194946289

> <b_mmod_Minimization_Converged-OPLS-2005>
0

> <r_mmod_RMS_Derivative-OPLS-2005>
4.24892568588257

$$$$
12
                    3D
 Structure written by MMmdl.
154162  0  0  1  0            999 V2000
  -30.6033  -14.6187   20.5669 C   0  0  0  0  0  0
  -30.4531  -12.3985   19.4372 C   0  0  0  0  0  0
  -29.5116  -12.5279   18.2166 C   0  0  0  0  0  0
  -28.0331  -12.3594   18.6251 C   0  0  0  0  0  0
  -27.6606  -13.2071   19.8700 C   0  0  2  0  0  0
  -28.7053  -13.0098   20.9931 C   0  0  0  0  0  0
  -25.2594  -13.8136   20.5667 C   0  0  0  0  0  0
  -24.1849  -13.0424   20.9183 C   0  0  0  0  0  0
  -24.6397  -11.6889   20.8733 C   0  0  0  0  0  0
  -23.9049  -10.4287   21.0402 C   0  0  0  0  0  0
  -24.3606   -9.4209   21.9177 C   0  0  0  0  0  0
  -23.6290   -8.2243   22.0744 C   0  0  0  0  0  0
  -22.4273   -8.0276   21.3539 C   0  0  0  0  0  0
  -21.9902   -9.0248   20.4641 C   0  0  0  0  0  0
  -22.7221  -10.2128   20.3052 C   0  0  0  0  0  0
  -21.6847   -6.0736   22.5281 C   0  0  0  0  0  0
  -21.4014   -6.5638   23.8219 C   0  0  0  0  0  0
  -21.3660   -5.6789   24.9177 C   0  0  0  0  0  0
  -21.6050   -4.3053   24.7228 C   0  0  0  0  0  0
  -21.8820   -3.8141   23.4348 C   0  0  0  0  0  0
  -21.9194   -4.6964   22.3403 C   0  0  0  0  0  0
  -22.7874  -13.5229   21.1842 C   0  0  0  0  0  0
  -22.1661   -4.2152   21.0983 F   0  0  0  0  0  0
  -21.5633   -3.4542   25.7737 F   0  0  0  0  0  0
  -30.0245  -13.3812   20.4501 N   0  0  0  0  0  0
  -26.3023  -12.9303   20.3319 N   0  0  0  0  0  0
  -25.9326  -11.6469   20.5740 N   0  0  0  0  0  0
  -22.0505  -12.8231   22.0394 N   0  0  0  0  0  0
  -25.4317  -15.1864   20.4081 N   0  0  0  0  0  0
  -31.7076  -14.8809   20.0776 O   0  0  0  0  0  0
  -21.6635   -6.8875   21.4239 O   0  0  0  0  0  0
  -22.3562  -14.5543   20.6694 O   0  0  0  0  0  0
  -24.6234  -31.8612   23.2037 C   0  0  0  0  0  0
  -25.9088  -32.4788   23.8357 C   0  0  1  0  0  0
  -27.2301  -27.3392   20.1161 C   0  0  0  0  0  0
  -25.5919  -33.8591   24.2282 N   0  0  0  0  0  0
  -23.4169  -30.4832   21.5457 C   0  0  2  0  0  0
  -24.8653  -28.9351   20.1154 C   0  0  0  0  0  0
  -22.7461  -29.4629   22.4953 C   0  0  0  0  0  0
  -18.0283  -28.1380   22.8494 C   0  0  0  0  0  0
  -24.1489  -36.7297   23.2635 C   0  0  0  0  0  0
  -25.9557  -30.7961   21.3736 C   0  0  0  0  0  0
  -26.0316  -29.4231   20.7196 C   0  0  0  0  0  0
  -27.2177  -28.6344   20.7129 C   0  0  0  0  0  0
  -26.0447  -26.8947   19.4921 C   0  0  0  0  0  0
  -24.8714  -27.6747   19.4951 C   0  0  0  0  0  0
  -23.6315  -29.8137   20.1622 C   0  0  0  0  0  0
  -25.4112  -36.3092   24.0333 C   0  0  1  0  0  0
  -20.5880  -28.3684   23.1297 C   0  0  2  0  0  0
  -20.6773  -26.9410   22.5418 C   0  0  0  0  0  0
  -19.5748  -26.6383   21.5220 C   0  0  0  0  0  0
  -18.1929  -26.7928   22.1631 C   0  0  0  0  0  0
  -19.1535  -28.8848   23.2892 C   0  0  0  0  0  0
  -18.9457  -30.1453   23.8906 C   0  0  0  0  0  0
  -17.6458  -30.6588   24.0561 C   0  0  0  0  0  0
  -25.9050  -34.9461   23.5106 C   0  0  0  0  0  0
  -16.5352  -29.9087   23.6330 C   0  0  0  0  0  0
  -16.7269  -28.6503   23.0356 C   0  0  0  0  0  0
  -26.4479  -31.6600   25.0725 C   0  0  0  0  0  0
  -25.3721  -31.3752   26.1461 C   0  0  0  0  0  0
  -27.0307  -30.3020   24.6176 C   0  0  0  0  0  0
  -27.6053  -32.4329   25.7479 C   0  0  0  0  0  0
  -27.5591  -37.1787   24.8453 C   0  0  0  0  0  0
  -21.4177  -29.3040   22.3693 N   0  0  0  0  0  0
  -26.4287  -37.3793   23.9423 N   0  0  0  0  0  0
  -24.6837  -31.0631   22.0983 N   0  0  0  0  0  0
  -23.4192  -28.8175   23.3030 O   0  0  0  0  0  0
  -28.3601  -26.5171   20.1035 O   0  0  0  0  0  0
  -26.5622  -34.8929   22.4675 O   0  0  0  0  0  0
  -23.5400  -32.1404   23.7376 O   0  0  0  0  0  0
  -32.4708  -19.1637   19.8766 C   0  0  0  0  0  0
  -31.7737  -18.0511   20.3836 C   0  0  0  0  0  0
  -31.8357  -20.4113   19.7283 C   0  0  0  0  0  0
  -29.7706  -19.4471   20.5599 C   0  0  0  0  0  0
  -30.4098  -18.1526   20.7229 C   0  0  0  0  0  0
  -30.4833  -20.6021   20.0847 C   0  0  0  0  0  0
  -28.2299  -25.1460   20.3978 C   0  0  0  0  0  0
  -29.6976  -16.9910   21.3755 C   0  0  0  0  0  0
  -29.1201  -24.1758   20.0186 C   0  0  0  0  0  0
  -28.9855  -22.7279   20.3837 C   0  0  0  0  0  0
  -30.0068  -21.9711   19.8976 N   0  0  0  0  0  0
  -29.7668  -15.6189   21.2340 N   0  0  0  0  0  0
  -28.8031  -17.3875   22.2907 N   0  3  0  0  0  0
  -28.0649  -22.2435   21.0447 O   0  0  0  0  0  0
  -30.1794  -24.5531   19.2843 O   0  0  0  0  0  0
  -31.4901  -12.5525   19.1336 H   0  0  0  0  0  0
  -30.4101  -11.3896   19.8512 H   0  0  0  0  0  0
  -29.7779  -11.7928   17.4560 H   0  0  0  0  0  0
  -29.6500  -13.5062   17.7531 H   0  0  0  0  0  0
  -27.8637  -11.3020   18.8348 H   0  0  0  0  0  0
  -27.3798  -12.6107   17.7890 H   0  0  0  0  0  0
  -27.6923  -14.2517   19.5586 H   0  0  0  0  0  0
  -28.7205  -11.9668   21.3146 H   0  0  0  0  0  0
  -28.4364  -13.5752   21.8859 H   0  0  0  0  0  0
  -25.2758   -9.5705   22.4740 H   0  0  0  0  0  0
  -24.0018   -7.4637   22.7462 H   0  0  0  0  0  0
  -21.0831   -8.8759   19.8949 H   0  0  0  0  0  0
  -22.3674  -10.9666   19.6164 H   0  0  0  0  0  0
  -21.1999   -7.6143   23.9726 H   0  0  0  0  0  0
  -21.1480   -6.0514   25.9083 H   0  0  0  0  0  0
  -22.0594   -2.7608   23.2845 H   0  0  0  0  0  0
  -22.4094  -11.9889   22.4809 H   0  0  0  0  0  0
  -21.1122  -13.1274   22.2558 H   0  0  0  0  0  0
  -24.6523  -15.8289   20.4982 H   0  0  0  0  0  0
  -26.2568  -15.6232   20.0187 H   0  0  0  0  0  0
  -26.7157  -32.5461   23.1112 H   0  0  0  0  0  0
  -25.0061  -33.9738   25.0421 H   0  0  0  0  0  0
  -22.7106  -31.3038   21.4020 H   0  0  0  0  0  0
  -23.3766  -35.9611   23.3270 H   0  0  0  0  0  0
  -24.3589  -36.8942   22.2055 H   0  0  0  0  0  0
  -23.7218  -37.6483   23.6670 H   0  0  0  0  0  0
  -26.0854  -31.5591   20.6050 H   0  0  0  0  0  0
  -26.8366  -30.8458   22.0020 H   0  0  0  0  0  0
  -28.1171  -29.0062   21.1836 H   0  0  0  0  0  0
  -26.0223  -25.9304   19.0047 H   0  0  0  0  0  0
  -23.9770  -27.2963   19.0189 H   0  0  0  0  0  0
  -23.7488  -30.5883   19.4033 H   0  0  0  0  0  0
  -22.7524  -29.2406   19.8619 H   0  0  0  0  0  0
  -25.1287  -36.1941   25.0824 H   0  0  0  0  0  0
  -20.9974  -28.3250   24.1417 H   0  0  0  0  0  0
  -20.5683  -26.2290   23.3612 H   0  0  0  0  0  0
  -21.6640  -26.7450   22.1200 H   0  0  0  0  0  0
  -19.6910  -25.6295   21.1247 H   0  0  0  0  0  0
  -19.6685  -27.3197   20.6752 H   0  0  0  0  0  0
  -17.4199  -26.6680   21.4031 H   0  0  0  0  0  0
  -18.0327  -26.0067   22.9023 H   0  0  0  0  0  0
  -19.7931  -30.7269   24.2282 H   0  0  0  0  0  0
  -17.5011  -31.6270   24.5158 H   0  0  0  0  0  0
  -15.5350  -30.2992   23.7651 H   0  0  0  0  0  0
  -15.8667  -28.0823   22.7074 H   0  0  0  0  0  0
  -24.5859  -30.7149   25.7782 H   0  0  0  0  0  0
  -24.8960  -32.2932   26.4919 H   0  0  0  0  0  0
  -25.8038  -30.8884   27.0215 H   0  0  0  0  0  0
  -26.2871  -29.6785   24.1200 H   0  0  0  0  0  0
  -27.3996  -29.7269   25.4678 H   0  0  0  0  0  0
  -27.8748  -30.4295   23.9397 H   0  0  0  0  0  0
  -27.2674  -33.3627   26.2068 H   0  0  0  0  0  0
  -28.3848  -32.6896   25.0294 H   0  0  0  0  0  0
  -28.0740  -31.8451   26.5381 H   0  0  0  0  0  0
  -28.2567  -38.0127   24.7574 H   0  0  0  0  0  0
  -28.1131  -36.2668   24.6178 H   0  0  0  0  0  0
  -27.2326  -37.1310   25.8855 H   0  0  0  0  0  0
  -20.9358  -29.8751   21.6893 H   0  0  0  0  0  0
  -26.0168  -38.2858   24.1471 H   0  0  0  0  0  0
  -33.5171  -19.0692   19.6212 H   0  0  0  0  0  0
  -32.3198  -17.1351   20.5409 H   0  0  0  0  0  0
  -32.4198  -21.2403   19.3543 H   0  0  0  0  0  0
  -28.7292  -19.5656   20.8242 H   0  0  0  0  0  0
  -27.3439  -24.9293   20.9826 H   0  0  0  0  0  0
  -30.6378  -22.5684   19.3779 H   0  0  0  0  0  0
  -28.9568  -15.2268   21.6692 H   0  0  0  0  0  0
  -28.7482  -18.3764   22.4824 H   0  0  0  0  0  0
  -28.2935  -16.7737   22.9060 H   0  0  0  0  0  0
  -30.0987  -25.4901   19.1544 H   0  0  0  0  0  0
  1 25  1  0  0  0
  1 30  2  0  0  0
  1 82  1  0  0  0
  2  3  1  0  0  0
  2 25  1  0  0  0
  2 86  1  0  0  0
  2 87  1  0  0  0
  3  4  1  0  0  0
  3 88  1  0  0  0
  3 89  1  0  0  0
  4  5  1  0  0  0
  4 90  1  0  0  0
  4 91  1  0  0  0
  5  6  1  0  0  0
  5 26  1  0  0  0
  5 92  1  0  0  0
  6 25  1  0  0  0
  6 93  1  0  0  0
  6 94  1  0  0  0
  7  8  2  0  0  0
  7 26  1  0  0  0
  7 29  1  0  0  0
  8  9  1  0  0  0
  8 22  1  0  0  0
  9 10  1  0  0  0
  9 27  2  0  0  0
 10 11  2  0  0  0
 10 15  1  0  0  0
 11 12  1  0  0  0
 11 95  1  0  0  0
 12 13  2  0  0  0
 12 96  1  0  0  0
 13 14  1  0  0  0
 13 31  1  0  0  0
 14 15  2  0  0  0
 14 97  1  0  0  0
 15 98  1  0  0  0
 16 17  2  0  0  0
 16 21  1  0  0  0
 16 31  1  0  0  0
 17 18  1  0  0  0
 17 99  1  0  0  0
 18 19  2  0  0  0
 18100  1  0  0  0
 19 20  1  0  0  0
 19 24  1  0  0  0
 20 21  2  0  0  0
 20101  1  0  0  0
 21 23  1  0  0  0
 22 28  1  0  0  0
 22 32  2  0  0  0
 26 27  1  0  0  0
 28102  1  0  0  0
 28103  1  0  0  0
 29104  1  0  0  0
 29105  1  0  0  0
 33 34  1  0  0  0
 33 66  1  0  0  0
 33 70  2  0  0  0
 34 36  1  0  0  0
 34 59  1  0  0  0
 34106  1  0  0  0
 35 44  2  0  0  0
 35 45  1  0  0  0
 35 68  1  0  0  0
 36 56  1  0  0  0
 36107  1  0  0  0
 37 39  1  0  0  0
 37 47  1  0  0  0
 37 66  1  0  0  0
 37108  1  0  0  0
 38 43  2  0  0  0
 38 46  1  0  0  0
 38 47  1  0  0  0
 39 64  1  0  0  0
 39 67  2  0  0  0
 40 52  1  0  0  0
 40 53  2  0  0  0
 40 58  1  0  0  0
 41109  1  0  0  0
 41110  1  0  0  0
 41111  1  0  0  0
 41 48  1  0  0  0
 42 43  1  0  0  0
 42 66  1  0  0  0
 42112  1  0  0  0
 42113  1  0  0  0
 43 44  1  0  0  0
 44114  1  0  0  0
 45 46  2  0  0  0
 45115  1  0  0  0
 46116  1  0  0  0
 47117  1  0  0  0
 47118  1  0  0  0
 48 56  1  0  0  0
 48 65  1  0  0  0
 48119  1  0  0  0
 49 50  1  0  0  0
 49 53  1  0  0  0
 49 64  1  0  0  0
 49120  1  0  0  0
 50 51  1  0  0  0
 50121  1  0  0  0
 50122  1  0  0  0
 51 52  1  0  0  0
 51123  1  0  0  0
 51124  1  0  0  0
 52125  1  0  0  0
 52126  1  0  0  0
 53 54  1  0  0  0
 54 55  2  0  0  0
 54127  1  0  0  0
 55 57  1  0  0  0
 55128  1  0  0  0
 56 69  2  0  0  0
 57 58  2  0  0  0
 57129  1  0  0  0
 58130  1  0  0  0
 59 60  1  0  0  0
 59 61  1  0  0  0
 59 62  1  0  0  0
 60131  1  0  0  0
 60132  1  0  0  0
 60133  1  0  0  0
 61134  1  0  0  0
 61135  1  0  0  0
 61136  1  0  0  0
 62137  1  0  0  0
 62138  1  0  0  0
 62139  1  0  0  0
 63 65  1  0  0  0
 63140  1  0  0  0
 63141  1  0  0  0
 63142  1  0  0  0
 64143  1  0  0  0
 65144  1  0  0  0
 68 77  1  0  0  0
 71 72  2  0  0  0
 71 73  1  0  0  0
 71145  1  0  0  0
 72 75  1  0  0  0
 72146  1  0  0  0
 73 76  2  0  0  0
 73147  1  0  0  0
 74 75  2  0  0  0
 74 76  1  0  0  0
 74148  1  0  0  0
 75 78  1  0  0  0
 76 81  1  0  0  0
 77 79  2  0  0  0
 77149  1  0  0  0
 78 82  1  0  0  0
 78 83  2  0  0  0
 79 80  1  0  0  0
 79 85  1  0  0  0
 80 81  1  0  0  0
 80 84  2  0  0  0
 81150  1  0  0  0
 82151  1  0  0  0
 83152  1  0  0  0
 83153  1  0  0  0
 85154  1  0  0  0
M  CHG  1  83   1
M  ISO  4   1 100  68 101  77 101  82 100
M  END
> <chiral flag>
0

> <version>
0

> <s_m_source_file>
/data/baiqing/PycharmProjects/Reinvent-master-3.2/result/LINK_invent/BTK/process_docking_weight1_custom_product_contain_oxygen_bond_distance_aromatic_linkinvent_7_9_3/rearranged_h_0091.sdf

> <i_m_source_file_index>
13

> <r_mmod_Potential_Energy-OPLS-2005>
-258.068023681641

> <r_mmod_Stretch_Energy-OPLS-2005>
74.1367111206055

> <r_mmod_Bend_Energy-OPLS-2005>
198.607330322266

> <r_mmod_Torsional_Energy-OPLS-2005>
201.480560302734

> <r_mmod_Improper_Torsional_Energy-OPLS-2005>
4.0322585105896

> <r_mmod_Van_der_Waal_Energy-OPLS-2005>
148.894104003906

> <r_mmod_Electrostatic_Energy-OPLS-2005>
-482.795166015625

> <r_mmod_Solvation_Energy-OPLS-2005>
-443.319061279297

> <b_mmod_Minimization_Converged-OPLS-2005>
0

> <r_mmod_RMS_Derivative-OPLS-2005>
1.24373888969421

$$$$
13
                    3D
 Structure written by MMmdl.
154162  0  0  1  0            999 V2000
  -30.6793  -14.6388   20.4804 C   0  0  0  0  0  0
  -30.4144  -12.3976   19.4456 C   0  0  0  0  0  0
  -29.4944  -12.4889   18.2121 C   0  0  0  0  0  0
  -28.0217  -12.3252   18.6361 C   0  0  0  0  0  0
  -27.6368  -13.2247   19.8415 C   0  0  2  0  0  0
  -28.6850  -13.1483   20.9730 C   0  0  0  0  0  0
  -25.2482  -13.8174   20.5672 C   0  0  0  0  0  0
  -24.1778  -13.0428   20.9218 C   0  0  0  0  0  0
  -24.6365  -11.6905   20.8757 C   0  0  0  0  0  0
  -23.9033  -10.4292   21.0423 C   0  0  0  0  0  0
  -24.3599   -9.4209   21.9191 C   0  0  0  0  0  0
  -23.6288   -8.2238   22.0754 C   0  0  0  0  0  0
  -22.4267   -8.0274   21.3550 C   0  0  0  0  0  0
  -21.9894   -9.0239   20.4647 C   0  0  0  0  0  0
  -22.7212  -10.2125   20.3060 C   0  0  0  0  0  0
  -21.6853   -6.0729   22.5276 C   0  0  0  0  0  0
  -21.4013   -6.5637   23.8210 C   0  0  0  0  0  0
  -21.3663   -5.6789   24.9171 C   0  0  0  0  0  0
  -21.6049   -4.3050   24.7223 C   0  0  0  0  0  0
  -21.8816   -3.8137   23.4343 C   0  0  0  0  0  0
  -21.9191   -4.6954   22.3398 C   0  0  0  0  0  0
  -22.7811  -13.5223   21.1873 C   0  0  0  0  0  0
  -22.1659   -4.2143   21.0977 F   0  0  0  0  0  0
  -21.5636   -3.4534   25.7737 F   0  0  0  0  0  0
  -29.9885  -13.4609   20.3776 N   0  0  0  0  0  0
  -26.2896  -12.9374   20.3229 N   0  0  0  0  0  0
  -25.9285  -11.6527   20.5731 N   0  0  0  0  0  0
  -22.0433  -12.8231   22.0429 N   0  0  0  0  0  0
  -25.4133  -15.1905   20.4079 N   0  0  0  0  0  0
  -31.8885  -14.6876   20.2350 O   0  0  0  0  0  0
  -21.6638   -6.8866   21.4243 O   0  0  0  0  0  0
  -22.3510  -14.5533   20.6705 O   0  0  0  0  0  0
  -24.6270  -31.8588   23.2038 C   0  0  0  0  0  0
  -25.9123  -32.4767   23.8357 C   0  0  1  0  0  0
  -27.2206  -27.3121   20.1023 C   0  0  0  0  0  0
  -25.5941  -33.8568   24.2286 N   0  0  0  0  0  0
  -23.4192  -30.4844   21.5468 C   0  0  2  0  0  0
  -24.8608  -28.9386   20.1119 C   0  0  0  0  0  0
  -22.7480  -29.4622   22.4950 C   0  0  0  0  0  0
  -18.0287  -28.1380   22.8474 C   0  0  0  0  0  0
  -24.1487  -36.7289   23.2640 C   0  0  0  0  0  0
  -25.9606  -30.7866   21.3756 C   0  0  0  0  0  0
  -26.0305  -29.4140   20.7153 C   0  0  0  0  0  0
  -27.2081  -28.6098   20.7043 C   0  0  0  0  0  0
  -26.0167  -26.8829   19.4961 C   0  0  0  0  0  0
  -24.8551  -27.6779   19.4987 C   0  0  0  0  0  0
  -23.6321  -29.8214   20.1612 C   0  0  0  0  0  0
  -25.4111  -36.3079   24.0328 C   0  0  1  0  0  0
  -20.5883  -28.3689   23.1282 C   0  0  2  0  0  0
  -20.6774  -26.9415   22.5423 C   0  0  0  0  0  0
  -19.5760  -26.6382   21.5213 C   0  0  0  0  0  0
  -18.1931  -26.7927   22.1608 C   0  0  0  0  0  0
  -19.1541  -28.8853   23.2865 C   0  0  0  0  0  0
  -18.9461  -30.1453   23.8889 C   0  0  0  0  0  0
  -17.6462  -30.6576   24.0571 C   0  0  0  0  0  0
  -25.9049  -34.9447   23.5106 C   0  0  0  0  0  0
  -16.5357  -29.9082   23.6325 C   0  0  0  0  0  0
  -16.7275  -28.6505   23.0337 C   0  0  0  0  0  0
  -26.4500  -31.6575   25.0728 C   0  0  0  0  0  0
  -25.3732  -31.3716   26.1459 C   0  0  0  0  0  0
  -27.0341  -30.2999   24.6185 C   0  0  0  0  0  0
  -27.6054  -32.4305   25.7499 C   0  0  0  0  0  0
  -27.5575  -37.1798   24.8459 C   0  0  0  0  0  0
  -21.4198  -29.3040   22.3688 N   0  0  0  0  0  0
  -26.4289  -37.3777   23.9407 N   0  0  0  0  0  0
  -24.6879  -31.0597   22.0992 N   0  0  0  0  0  0
  -23.4202  -28.8158   23.3028 O   0  0  0  0  0  0
  -28.3623  -26.4944   20.1622 O   0  0  0  0  0  0
  -26.5623  -34.8914   22.4675 O   0  0  0  0  0  0
  -23.5434  -32.1397   23.7367 O   0  0  0  0  0  0
  -29.7760  -19.5132   21.6399 C   0  0  0  0  0  0
  -29.4085  -20.8711   21.3794 C   0  0  0  0  0  0
  -29.4648  -18.9585   19.3184 C   0  0  0  0  0  0
  -29.8314  -18.5228   20.6166 C   0  0  0  0  0  0
  -29.1041  -21.3205   20.0669 C   0  0  0  0  0  0
  -29.1383  -20.3237   19.0454 C   0  0  0  0  0  0
  -30.4757  -17.1711   20.8546 C   0  0  0  0  0  0
  -28.7110  -23.8965   20.3276 C   0  0  0  0  0  0
  -28.4667  -25.1956   19.4521 C   0  0  0  0  0  0
  -28.8956  -20.6979   17.7202 N   0  0  0  0  0  0
  -28.7870  -22.6955   19.6714 N   0  0  0  0  0  0
  -29.9438  -15.9209   20.5929 N   0  0  0  0  0  0
  -31.7112  -17.2618   21.3633 N   0  3  0  0  0  0
  -28.8302  -23.9921   21.5525 O   0  0  0  0  0  0
  -31.4590  -12.4948   19.1463 H   0  0  0  0  0  0
  -30.3263  -11.4173   19.9165 H   0  0  0  0  0  0
  -29.7619  -11.7238   17.4819 H   0  0  0  0  0  0
  -29.6351  -13.4489   17.7127 H   0  0  0  0  0  0
  -27.8736  -11.2767   18.8989 H   0  0  0  0  0  0
  -27.3600  -12.5186   17.7923 H   0  0  0  0  0  0
  -27.6339  -14.2464   19.4632 H   0  0  0  0  0  0
  -28.6990  -12.1549   21.4245 H   0  0  0  0  0  0
  -28.4391  -13.8461   21.7752 H   0  0  0  0  0  0
  -25.2740   -9.5717   22.4767 H   0  0  0  0  0  0
  -24.0008   -7.4637   22.7477 H   0  0  0  0  0  0
  -21.0826   -8.8752   19.8955 H   0  0  0  0  0  0
  -22.3658  -10.9662   19.6174 H   0  0  0  0  0  0
  -21.2006   -7.6137   23.9711 H   0  0  0  0  0  0
  -21.1494   -6.0514   25.9077 H   0  0  0  0  0  0
  -22.0593   -2.7596   23.2836 H   0  0  0  0  0  0
  -22.4021  -11.9904   22.4861 H   0  0  0  0  0  0
  -21.1050  -13.1285   22.2613 H   0  0  0  0  0  0
  -24.6298  -15.8278   20.5041 H   0  0  0  0  0  0
  -26.2320  -15.6321   20.0114 H   0  0  0  0  0  0
  -26.7191  -32.5427   23.1096 H   0  0  0  0  0  0
  -25.0092  -33.9709   25.0439 H   0  0  0  0  0  0
  -22.7120  -31.3047   21.4072 H   0  0  0  0  0  0
  -23.3746  -35.9622   23.3303 H   0  0  0  0  0  0
  -24.3573  -36.8919   22.2053 H   0  0  0  0  0  0
  -23.7245  -37.6491   23.6666 H   0  0  0  0  0  0
  -26.0931  -31.5499   20.6077 H   0  0  0  0  0  0
  -26.8407  -30.8306   22.0056 H   0  0  0  0  0  0
  -28.1060  -28.9717   21.1848 H   0  0  0  0  0  0
  -25.9106  -25.9148   19.0371 H   0  0  0  0  0  0
  -23.9528  -27.3010   19.0360 H   0  0  0  0  0  0
  -23.7591  -30.5989   19.4077 H   0  0  0  0  0  0
  -22.7491  -29.2576   19.8548 H   0  0  0  0  0  0
  -25.1291  -36.1922   25.0821 H   0  0  0  0  0  0
  -20.9960  -28.3275   24.1409 H   0  0  0  0  0  0
  -20.5665  -26.2314   23.3629 H   0  0  0  0  0  0
  -21.6649  -26.7443   22.1235 H   0  0  0  0  0  0
  -19.6932  -25.6292   21.1246 H   0  0  0  0  0  0
  -19.6697  -27.3192   20.6738 H   0  0  0  0  0  0
  -17.4216  -26.6688   21.3992 H   0  0  0  0  0  0
  -18.0316  -26.0058   22.8989 H   0  0  0  0  0  0
  -19.7944  -30.7272   24.2248 H   0  0  0  0  0  0
  -17.5021  -31.6245   24.5204 H   0  0  0  0  0  0
  -15.5355  -30.2982   23.7649 H   0  0  0  0  0  0
  -15.8678  -28.0826   22.7039 H   0  0  0  0  0  0
  -24.5903  -30.7068   25.7799 H   0  0  0  0  0  0
  -24.8928  -32.2888   26.4875 H   0  0  0  0  0  0
  -25.8063  -30.8904   27.0241 H   0  0  0  0  0  0
  -26.2922  -29.6739   24.1225 H   0  0  0  0  0  0
  -27.4056  -29.7254   25.4679 H   0  0  0  0  0  0
  -27.8780  -30.4272   23.9403 H   0  0  0  0  0  0
  -27.2657  -33.3585   26.2105 H   0  0  0  0  0  0
  -28.3851  -32.6903   25.0327 H   0  0  0  0  0  0
  -28.0747  -31.8424   26.5394 H   0  0  0  0  0  0
  -28.2596  -38.0093   24.7507 H   0  0  0  0  0  0
  -28.1069  -36.2625   24.6275 H   0  0  0  0  0  0
  -27.2301  -37.1451   25.8867 H   0  0  0  0  0  0
  -20.9390  -29.8763   21.6892 H   0  0  0  0  0  0
  -26.0162  -38.2850   24.1413 H   0  0  0  0  0  0
  -30.0609  -19.2427   22.6484 H   0  0  0  0  0  0
  -29.4036  -21.5718   22.2013 H   0  0  0  0  0  0
  -29.5325  -18.2543   18.5005 H   0  0  0  0  0  0
  -27.6726  -24.9960   18.7415 H   0  0  0  0  0  0
  -29.3500  -25.2918   18.8212 H   0  0  0  0  0  0
  -29.0774  -19.9828   17.0228 H   0  0  0  0  0  0
  -29.3109  -21.5749   17.4255 H   0  0  0  0  0  0
  -28.6007  -22.7624   18.6811 H   0  0  0  0  0  0
  -28.9416  -15.9537   20.5289 H   0  0  0  0  0  0
  -32.1198  -18.1675   21.5365 H   0  0  0  0  0  0
  -32.3047  -16.4430   21.3647 H   0  0  0  0  0  0
  1 25  1  0  0  0
  1 30  2  0  0  0
  1 82  1  0  0  0
  2  3  1  0  0  0
  2 25  1  0  0  0
  2 85  1  0  0  0
  2 86  1  0  0  0
  3  4  1  0  0  0
  3 87  1  0  0  0
  3 88  1  0  0  0
  4  5  1  0  0  0
  4 89  1  0  0  0
  4 90  1  0  0  0
  5  6  1  0  0  0
  5 26  1  0  0  0
  5 91  1  0  0  0
  6 25  1  0  0  0
  6 92  1  0  0  0
  6 93  1  0  0  0
  7  8  2  0  0  0
  7 26  1  0  0  0
  7 29  1  0  0  0
  8  9  1  0  0  0
  8 22  1  0  0  0
  9 10  1  0  0  0
  9 27  2  0  0  0
 10 11  2  0  0  0
 10 15  1  0  0  0
 11 12  1  0  0  0
 11 94  1  0  0  0
 12 13  2  0  0  0
 12 95  1  0  0  0
 13 14  1  0  0  0
 13 31  1  0  0  0
 14 15  2  0  0  0
 14 96  1  0  0  0
 15 97  1  0  0  0
 16 17  2  0  0  0
 16 21  1  0  0  0
 16 31  1  0  0  0
 17 18  1  0  0  0
 17 98  1  0  0  0
 18 19  2  0  0  0
 18 99  1  0  0  0
 19 20  1  0  0  0
 19 24  1  0  0  0
 20 21  2  0  0  0
 20100  1  0  0  0
 21 23  1  0  0  0
 22 28  1  0  0  0
 22 32  2  0  0  0
 26 27  1  0  0  0
 28101  1  0  0  0
 28102  1  0  0  0
 29103  1  0  0  0
 29104  1  0  0  0
 33 34  1  0  0  0
 33 66  1  0  0  0
 33 70  2  0  0  0
 34 36  1  0  0  0
 34 59  1  0  0  0
 34105  1  0  0  0
 35 44  2  0  0  0
 35 45  1  0  0  0
 35 68  1  0  0  0
 36 56  1  0  0  0
 36106  1  0  0  0
 37 39  1  0  0  0
 37 47  1  0  0  0
 37 66  1  0  0  0
 37107  1  0  0  0
 38 43  2  0  0  0
 38 46  1  0  0  0
 38 47  1  0  0  0
 39 64  1  0  0  0
 39 67  2  0  0  0
 40 52  1  0  0  0
 40 53  2  0  0  0
 40 58  1  0  0  0
 41108  1  0  0  0
 41109  1  0  0  0
 41110  1  0  0  0
 41 48  1  0  0  0
 42 43  1  0  0  0
 42 66  1  0  0  0
 42111  1  0  0  0
 42112  1  0  0  0
 43 44  1  0  0  0
 44113  1  0  0  0
 45 46  2  0  0  0
 45114  1  0  0  0
 46115  1  0  0  0
 47116  1  0  0  0
 47117  1  0  0  0
 48 56  1  0  0  0
 48 65  1  0  0  0
 48118  1  0  0  0
 49 50  1  0  0  0
 49 53  1  0  0  0
 49 64  1  0  0  0
 49119  1  0  0  0
 50 51  1  0  0  0
 50120  1  0  0  0
 50121  1  0  0  0
 51 52  1  0  0  0
 51122  1  0  0  0
 51123  1  0  0  0
 52124  1  0  0  0
 52125  1  0  0  0
 53 54  1  0  0  0
 54 55  2  0  0  0
 54126  1  0  0  0
 55 57  1  0  0  0
 55127  1  0  0  0
 56 69  2  0  0  0
 57 58  2  0  0  0
 57128  1  0  0  0
 58129  1  0  0  0
 59 60  1  0  0  0
 59 61  1  0  0  0
 59 62  1  0  0  0
 60130  1  0  0  0
 60131  1  0  0  0
 60132  1  0  0  0
 61133  1  0  0  0
 61134  1  0  0  0
 61135  1  0  0  0
 62136  1  0  0  0
 62137  1  0  0  0
 62138  1  0  0  0
 63 65  1  0  0  0
 63139  1  0  0  0
 63140  1  0  0  0
 63141  1  0  0  0
 64142  1  0  0  0
 65143  1  0  0  0
 68 79  1  0  0  0
 71 72  2  0  0  0
 71 74  1  0  0  0
 71144  1  0  0  0
 72 75  1  0  0  0
 72145  1  0  0  0
 73 74  2  0  0  0
 73 76  1  0  0  0
 73146  1  0  0  0
 74 77  1  0  0  0
 75 76  2  0  0  0
 75 81  1  0  0  0
 76 80  1  0  0  0
 77 82  1  0  0  0
 77 83  2  0  0  0
 78 79  1  0  0  0
 78 81  1  0  0  0
 78 84  2  0  0  0
 79147  1  0  0  0
 79148  1  0  0  0
 80149  1  0  0  0
 80150  1  0  0  0
 81151  1  0  0  0
 82152  1  0  0  0
 83153  1  0  0  0
 83154  1  0  0  0
M  CHG  1  83   1
M  ISO  4   1 100  68 101  79 101  82 100
M  END
> <chiral flag>
0

> <version>
0

> <s_m_source_file>
/data/baiqing/PycharmProjects/Reinvent-master-3.2/result/LINK_invent/BTK/process_docking_weight1_custom_product_contain_oxygen_bond_distance_aromatic_linkinvent_7_9_3/rearranged_h_0091.sdf

> <i_m_source_file_index>
14

> <r_mmod_Potential_Energy-OPLS-2005>
-277.815948486328

> <r_mmod_Stretch_Energy-OPLS-2005>
80.8000106811523

> <r_mmod_Bend_Energy-OPLS-2005>
162.599197387695

> <r_mmod_Torsional_Energy-OPLS-2005>
238.647125244141

> <r_mmod_Improper_Torsional_Energy-OPLS-2005>
13.3492975234985

> <r_mmod_Van_der_Waal_Energy-OPLS-2005>
155.42121887207

> <r_mmod_Electrostatic_Energy-OPLS-2005>
-507.015747070312

> <r_mmod_Solvation_Energy-OPLS-2005>
-477.428894042969

> <b_mmod_Minimization_Converged-OPLS-2005>
0

> <r_mmod_RMS_Derivative-OPLS-2005>
1.95873296260834

$$$$
14
                    3D
 Structure written by MMmdl.
152160  0  0  1  0            999 V2000
  -30.6107  -14.6836   20.4624 C   0  0  0  0  0  0
  -30.4413  -12.4136   19.4542 C   0  0  0  0  0  0
  -29.5085  -12.5022   18.2254 C   0  0  0  0  0  0
  -28.0322  -12.3380   18.6409 C   0  0  0  0  0  0
  -27.6485  -13.2217   19.8587 C   0  0  2  0  0  0
  -28.6989  -13.1073   20.9861 C   0  0  0  0  0  0
  -25.2520  -13.8160   20.5736 C   0  0  0  0  0  0
  -24.1791  -13.0396   20.9155 C   0  0  0  0  0  0
  -24.6393  -11.6885   20.8717 C   0  0  0  0  0  0
  -23.9070  -10.4271   21.0387 C   0  0  0  0  0  0
  -24.3619   -9.4193   21.9176 C   0  0  0  0  0  0
  -23.6287   -8.2235   22.0753 C   0  0  0  0  0  0
  -22.4271   -8.0276   21.3541 C   0  0  0  0  0  0
  -21.9902   -9.0247   20.4643 C   0  0  0  0  0  0
  -22.7235  -10.2119   20.3043 C   0  0  0  0  0  0
  -21.6851   -6.0732   22.5281 C   0  0  0  0  0  0
  -21.4015   -6.5638   23.8213 C   0  0  0  0  0  0
  -21.3658   -5.6788   24.9172 C   0  0  0  0  0  0
  -21.6041   -4.3050   24.7225 C   0  0  0  0  0  0
  -21.8821   -3.8143   23.4346 C   0  0  0  0  0  0
  -21.9192   -4.6960   22.3402 C   0  0  0  0  0  0
  -22.7815  -13.5188   21.1836 C   0  0  0  0  0  0
  -22.1660   -4.2148   21.0979 F   0  0  0  0  0  0
  -21.5626   -3.4535   25.7737 F   0  0  0  0  0  0
  -30.0077  -13.4517   20.4095 N   0  0  0  0  0  0
  -26.2977  -12.9374   20.3348 N   0  0  0  0  0  0
  -25.9331  -11.6516   20.5761 N   0  0  0  0  0  0
  -22.0469  -12.8195   22.0412 N   0  0  0  0  0  0
  -25.4089  -15.1905   20.4360 N   0  0  0  0  0  0
  -31.7970  -14.8248   20.1514 O   0  0  0  0  0  0
  -21.6635   -6.8874   21.4241 O   0  0  0  0  0  0
  -22.3497  -14.5498   20.6694 O   0  0  0  0  0  0
  -24.6279  -31.8578   23.2014 C   0  0  0  0  0  0
  -25.9120  -32.4766   23.8347 C   0  0  1  0  0  0
  -27.2245  -27.3006   20.1184 C   0  0  0  0  0  0
  -25.5926  -33.8567   24.2273 N   0  0  0  0  0  0
  -23.4225  -30.4817   21.5437 C   0  0  2  0  0  0
  -24.8698  -28.9349   20.1096 C   0  0  0  0  0  0
  -22.7482  -29.4615   22.4921 C   0  0  0  0  0  0
  -18.0290  -28.1384   22.8483 C   0  0  0  0  0  0
  -24.1488  -36.7290   23.2637 C   0  0  0  0  0  0
  -25.9657  -30.7826   21.3762 C   0  0  0  0  0  0
  -26.0394  -29.4091   20.7167 C   0  0  0  0  0  0
  -27.2189  -28.6037   20.7115 C   0  0  0  0  0  0
  -26.0314  -26.8858   19.4824 C   0  0  0  0  0  0
  -24.8690  -27.6796   19.4829 C   0  0  0  0  0  0
  -23.6384  -29.8168   20.1589 C   0  0  0  0  0  0
  -25.4110  -36.3074   24.0329 C   0  0  1  0  0  0
  -20.5890  -28.3690   23.1272 C   0  0  2  0  0  0
  -20.6777  -26.9410   22.5402 C   0  0  0  0  0  0
  -19.5751  -26.6381   21.5207 C   0  0  0  0  0  0
  -18.1934  -26.7926   22.1624 C   0  0  0  0  0  0
  -19.1541  -28.8855   23.2875 C   0  0  0  0  0  0
  -18.9464  -30.1456   23.8894 C   0  0  0  0  0  0
  -17.6464  -30.6585   24.0563 C   0  0  0  0  0  0
  -25.9049  -34.9444   23.5102 C   0  0  0  0  0  0
  -16.5354  -29.9084   23.6329 C   0  0  0  0  0  0
  -16.7276  -28.6499   23.0352 C   0  0  0  0  0  0
  -26.4498  -31.6585   25.0727 C   0  0  0  0  0  0
  -25.3729  -31.3738   26.1456 C   0  0  0  0  0  0
  -27.0343  -30.3003   24.6203 C   0  0  0  0  0  0
  -27.6056  -32.4326   25.7492 C   0  0  0  0  0  0
  -27.5583  -37.1791   24.8458 C   0  0  0  0  0  0
  -21.4193  -29.3044   22.3664 N   0  0  0  0  0  0
  -26.4285  -37.3773   23.9414 N   0  0  0  0  0  0
  -24.6908  -31.0578   22.0971 N   0  0  0  0  0  0
  -23.4197  -28.8152   23.3005 O   0  0  0  0  0  0
  -28.3367  -26.4394   20.1782 O   0  0  0  0  0  0
  -26.5619  -34.8913   22.4669 O   0  0  0  0  0  0
  -23.5439  -32.1382   23.7333 O   0  0  0  0  0  0
  -31.1465  -19.3521   20.8021 C   0  0  0  0  0  0
  -31.1284  -17.9242   20.7586 C   0  0  0  0  0  0
  -28.7737  -19.4455   20.4535 C   0  0  0  0  0  0
  -29.9775  -20.1665   20.6769 C   0  0  0  0  0  0
  -29.9202  -17.2100   20.5731 C   0  0  0  0  0  0
  -28.7568  -18.0130   20.3838 C   0  0  0  0  0  0
  -30.0756  -21.6984   20.9322 C   0  0  0  0  0  0
  -29.2641  -24.0252   20.5478 C   0  0  0  0  0  0
  -28.1270  -24.9712   19.9814 C   0  0  0  0  0  0
  -27.5581  -17.3619   20.0996 N   0  0  0  0  0  0
  -29.7658  -15.7510   20.6407 N   0  0  0  0  0  0
  -29.2071  -22.6406   20.4137 N   0  0  0  0  0  0
  -31.0351  -22.0342   21.6370 O   0  0  0  0  0  0
  -30.1970  -24.6041   21.1192 O   0  0  0  0  0  0
  -31.4811  -12.5447   19.1491 H   0  0  0  0  0  0
  -30.3847  -11.4265   19.9157 H   0  0  0  0  0  0
  -29.7772  -11.7396   17.4932 H   0  0  0  0  0  0
  -29.6442  -13.4644   17.7289 H   0  0  0  0  0  0
  -27.8761  -11.2867   18.8853 H   0  0  0  0  0  0
  -27.3762  -12.5530   17.7966 H   0  0  0  0  0  0
  -27.6503  -14.2507   19.4999 H   0  0  0  0  0  0
  -28.7198  -12.0952   21.3936 H   0  0  0  0  0  0
  -28.4468  -13.7632   21.8212 H   0  0  0  0  0  0
  -25.2767   -9.5670   22.4745 H   0  0  0  0  0  0
  -23.9991   -7.4631   22.7478 H   0  0  0  0  0  0
  -21.0828   -8.8772   19.8956 H   0  0  0  0  0  0
  -22.3703  -10.9656   19.6149 H   0  0  0  0  0  0
  -21.2015   -7.6149   23.9717 H   0  0  0  0  0  0
  -21.1473   -6.0518   25.9074 H   0  0  0  0  0  0
  -22.0602   -2.7604   23.2849 H   0  0  0  0  0  0
  -22.4085  -11.9855   22.4799 H   0  0  0  0  0  0
  -21.1090  -13.1233   22.2623 H   0  0  0  0  0  0
  -24.6325  -15.8199   20.6043 H   0  0  0  0  0  0
  -26.2863  -15.6937   20.3319 H   0  0  0  0  0  0
  -26.7188  -32.5431   23.1094 H   0  0  0  0  0  0
  -25.0068  -33.9703   25.0415 H   0  0  0  0  0  0
  -22.7170  -31.3029   21.4002 H   0  0  0  0  0  0
  -23.3750  -35.9622   23.3285 H   0  0  0  0  0  0
  -24.3589  -36.8928   22.2056 H   0  0  0  0  0  0
  -23.7236  -37.6485   23.6669 H   0  0  0  0  0  0
  -26.1021  -31.5460   20.6091 H   0  0  0  0  0  0
  -26.8444  -30.8292   22.0079 H   0  0  0  0  0  0
  -28.1148  -28.9610   21.1998 H   0  0  0  0  0  0
  -25.9675  -25.9292   18.9858 H   0  0  0  0  0  0
  -23.9736  -27.3127   19.0002 H   0  0  0  0  0  0
  -23.7579  -30.5937   19.4028 H   0  0  0  0  0  0
  -22.7577  -29.2472   19.8561 H   0  0  0  0  0  0
  -25.1286  -36.1924   25.0820 H   0  0  0  0  0  0
  -20.9987  -28.3271   24.1391 H   0  0  0  0  0  0
  -20.5677  -26.2298   23.3603 H   0  0  0  0  0  0
  -21.6646  -26.7433   22.1198 H   0  0  0  0  0  0
  -19.6911  -25.6292   21.1237 H   0  0  0  0  0  0
  -19.6688  -27.3188   20.6736 H   0  0  0  0  0  0
  -17.4197  -26.6664   21.4036 H   0  0  0  0  0  0
  -18.0345  -26.0073   22.9026 H   0  0  0  0  0  0
  -19.7940  -30.7274   24.2263 H   0  0  0  0  0  0
  -17.5016  -31.6266   24.5162 H   0  0  0  0  0  0
  -15.5355  -30.2984   23.7654 H   0  0  0  0  0  0
  -15.8677  -28.0816   22.7072 H   0  0  0  0  0  0
  -24.5876  -30.7121   25.7782 H   0  0  0  0  0  0
  -24.8958  -32.2916   26.4907 H   0  0  0  0  0  0
  -25.8044  -30.8881   27.0217 H   0  0  0  0  0  0
  -26.2925  -29.6747   24.1225 H   0  0  0  0  0  0
  -27.4027  -29.7270   25.4720 H   0  0  0  0  0  0
  -27.8801  -30.4281   23.9444 H   0  0  0  0  0  0
  -27.2663  -33.3622   26.2075 H   0  0  0  0  0  0
  -28.3860  -32.6895   25.0316 H   0  0  0  0  0  0
  -28.0733  -31.8453   26.5404 H   0  0  0  0  0  0
  -28.2575  -38.0114   24.7538 H   0  0  0  0  0  0
  -28.1105  -36.2648   24.6235 H   0  0  0  0  0  0
  -27.2308  -37.1381   25.8862 H   0  0  0  0  0  0
  -20.9370  -29.8768   21.6876 H   0  0  0  0  0  0
  -26.0165  -38.2840   24.1439 H   0  0  0  0  0  0
  -32.0984  -19.8322   20.9837 H   0  0  0  0  0  0
  -32.0533  -17.3853   20.9060 H   0  0  0  0  0  0
  -27.8490  -19.9959   20.3536 H   0  0  0  0  0  0
  -27.2042  -24.6621   20.4734 H   0  0  0  0  0  0
  -28.0124  -24.7650   18.9170 H   0  0  0  0  0  0
  -26.7827  -17.9883   19.9114 H   0  0  0  0  0  0
  -27.6530  -16.7208   19.3198 H   0  0  0  0  0  0
  -28.8024  -15.4814   20.7686 H   0  0  0  0  0  0
  -28.4355  -22.2762   19.8779 H   0  0  0  0  0  0
  1 25  1  0  0  0
  1 30  2  0  0  0
  1 81  1  0  0  0
  2  3  1  0  0  0
  2 25  1  0  0  0
  2 85  1  0  0  0
  2 86  1  0  0  0
  3  4  1  0  0  0
  3 87  1  0  0  0
  3 88  1  0  0  0
  4  5  1  0  0  0
  4 89  1  0  0  0
  4 90  1  0  0  0
  5  6  1  0  0  0
  5 26  1  0  0  0
  5 91  1  0  0  0
  6 25  1  0  0  0
  6 92  1  0  0  0
  6 93  1  0  0  0
  7  8  2  0  0  0
  7 26  1  0  0  0
  7 29  1  0  0  0
  8  9  1  0  0  0
  8 22  1  0  0  0
  9 10  1  0  0  0
  9 27  2  0  0  0
 10 11  2  0  0  0
 10 15  1  0  0  0
 11 12  1  0  0  0
 11 94  1  0  0  0
 12 13  2  0  0  0
 12 95  1  0  0  0
 13 14  1  0  0  0
 13 31  1  0  0  0
 14 15  2  0  0  0
 14 96  1  0  0  0
 15 97  1  0  0  0
 16 17  2  0  0  0
 16 21  1  0  0  0
 16 31  1  0  0  0
 17 18  1  0  0  0
 17 98  1  0  0  0
 18 19  2  0  0  0
 18 99  1  0  0  0
 19 20  1  0  0  0
 19 24  1  0  0  0
 20 21  2  0  0  0
 20100  1  0  0  0
 21 23  1  0  0  0
 22 28  1  0  0  0
 22 32  2  0  0  0
 26 27  1  0  0  0
 28101  1  0  0  0
 28102  1  0  0  0
 29103  1  0  0  0
 29104  1  0  0  0
 33 34  1  0  0  0
 33 66  1  0  0  0
 33 70  2  0  0  0
 34 36  1  0  0  0
 34 59  1  0  0  0
 34105  1  0  0  0
 35 44  2  0  0  0
 35 45  1  0  0  0
 35 68  1  0  0  0
 36 56  1  0  0  0
 36106  1  0  0  0
 37 39  1  0  0  0
 37 47  1  0  0  0
 37 66  1  0  0  0
 37107  1  0  0  0
 38 43  2  0  0  0
 38 46  1  0  0  0
 38 47  1  0  0  0
 39 64  1  0  0  0
 39 67  2  0  0  0
 40 52  1  0  0  0
 40 53  2  0  0  0
 40 58  1  0  0  0
 41108  1  0  0  0
 41109  1  0  0  0
 41110  1  0  0  0
 41 48  1  0  0  0
 42 43  1  0  0  0
 42 66  1  0  0  0
 42111  1  0  0  0
 42112  1  0  0  0
 43 44  1  0  0  0
 44113  1  0  0  0
 45 46  2  0  0  0
 45114  1  0  0  0
 46115  1  0  0  0
 47116  1  0  0  0
 47117  1  0  0  0
 48 56  1  0  0  0
 48 65  1  0  0  0
 48118  1  0  0  0
 49 50  1  0  0  0
 49 53  1  0  0  0
 49 64  1  0  0  0
 49119  1  0  0  0
 50 51  1  0  0  0
 50120  1  0  0  0
 50121  1  0  0  0
 51 52  1  0  0  0
 51122  1  0  0  0
 51123  1  0  0  0
 52124  1  0  0  0
 52125  1  0  0  0
 53 54  1  0  0  0
 54 55  2  0  0  0
 54126  1  0  0  0
 55 57  1  0  0  0
 55127  1  0  0  0
 56 69  2  0  0  0
 57 58  2  0  0  0
 57128  1  0  0  0
 58129  1  0  0  0
 59 60  1  0  0  0
 59 61  1  0  0  0
 59 62  1  0  0  0
 60130  1  0  0  0
 60131  1  0  0  0
 60132  1  0  0  0
 61133  1  0  0  0
 61134  1  0  0  0
 61135  1  0  0  0
 62136  1  0  0  0
 62137  1  0  0  0
 62138  1  0  0  0
 63 65  1  0  0  0
 63139  1  0  0  0
 63140  1  0  0  0
 63141  1  0  0  0
 64142  1  0  0  0
 65143  1  0  0  0
 68 79  1  0  0  0
 71 72  2  0  0  0
 71 74  1  0  0  0
 71144  1  0  0  0
 72 75  1  0  0  0
 72145  1  0  0  0
 73 74  2  0  0  0
 73 76  1  0  0  0
 73146  1  0  0  0
 74 77  1  0  0  0
 75 76  2  0  0  0
 75 81  1  0  0  0
 76 80  1  0  0  0
 77 82  1  0  0  0
 77 83  2  0  0  0
 78 79  1  0  0  0
 78 82  1  0  0  0
 78 84  2  0  0  0
 79147  1  0  0  0
 79148  1  0  0  0
 80149  1  0  0  0
 80150  1  0  0  0
 81151  1  0  0  0
 82152  1  0  0  0
M  ISO  4   1 100  68 101  79 101  81 100
M  END
> <chiral flag>
0

> <version>
0

> <s_m_source_file>
/data/baiqing/PycharmProjects/Reinvent-master-3.2/result/LINK_invent/BTK/process_docking_weight1_custom_product_contain_oxygen_bond_distance_aromatic_linkinvent_7_9_3/rearranged_h_0091.sdf

> <i_m_source_file_index>
15

> <r_mmod_Potential_Energy-OPLS-2005>
-185.148498535156

> <r_mmod_Stretch_Energy-OPLS-2005>
90.6885147094727

> <r_mmod_Bend_Energy-OPLS-2005>
151.077346801758

> <r_mmod_Torsional_Energy-OPLS-2005>
235.584320068359

> <r_mmod_Improper_Torsional_Energy-OPLS-2005>
12.1906251907349

> <r_mmod_Van_der_Waal_Energy-OPLS-2005>
156.367919921875

> <r_mmod_Electrostatic_Energy-OPLS-2005>
-597.161804199219

> <r_mmod_Solvation_Energy-OPLS-2005>
-296.261444091797

> <b_mmod_Minimization_Converged-OPLS-2005>
0

> <r_mmod_RMS_Derivative-OPLS-2005>
0.697434604167938

$$$$
15
                    3D
 Structure written by MMmdl.
146154  0  0  1  0            999 V2000
  -30.3287  -15.6617   20.3074 C   0  0  0  0  0  0
  -30.4205  -13.0869   19.5063 C   0  0  0  0  0  0
  -29.5267  -12.6386   18.3042 C   0  0  0  0  0  0
  -28.1150  -12.2629   18.7769 C   0  0  0  0  0  0
  -27.5835  -13.2972   19.7819 C   0  0  2  0  0  0
  -28.6147  -13.6697   20.8770 C   0  0  0  0  0  0
  -25.2336  -13.8309   20.5964 C   0  0  0  0  0  0
  -24.1686  -13.0488   20.9348 C   0  0  0  0  0  0
  -24.6301  -11.6969   20.8721 C   0  0  0  0  0  0
  -23.9017  -10.4304   21.0407 C   0  0  0  0  0  0
  -24.3576   -9.4195   21.9177 C   0  0  0  0  0  0
  -23.6233   -8.2223   22.0783 C   0  0  0  0  0  0
  -22.4236   -8.0238   21.3569 C   0  0  0  0  0  0
  -21.9888   -9.0214   20.4678 C   0  0  0  0  0  0
  -22.7213  -10.2076   20.3030 C   0  0  0  0  0  0
  -21.6843   -6.0681   22.5288 C   0  0  0  0  0  0
  -21.3993   -6.5587   23.8238 C   0  0  0  0  0  0
  -21.3712   -5.6778   24.9192 C   0  0  0  0  0  0
  -21.6016   -4.3043   24.7283 C   0  0  0  0  0  0
  -21.8801   -3.8095   23.4397 C   0  0  0  0  0  0
  -21.9135   -4.6890   22.3428 C   0  0  0  0  0  0
  -22.7650  -13.5205   21.1998 C   0  0  0  0  0  0
  -22.1595   -4.2058   21.1023 F   0  0  0  0  0  0
  -21.5665   -3.4537   25.7807 F   0  0  0  0  0  0
  -29.8006  -14.2885   20.2334 N   0  0  0  0  0  0
  -26.2690  -12.9530   20.3153 N   0  0  0  0  0  0
  -25.9212  -11.6602   20.5572 N   0  0  0  0  0  0
  -22.0271  -12.8169   22.0474 N   0  0  0  0  0  0
  -25.4297  -15.2050   20.4778 N   0  0  0  0  0  0
  -31.5719  -15.5752   20.2048 O   0  0  0  0  0  0
  -21.6620   -6.8823   21.4263 O   0  0  0  0  0  0
  -22.3356  -14.5536   20.6889 O   0  0  0  0  0  0
  -24.7008  -31.7892   23.1325 C   0  0  0  0  0  0
  -25.9521  -32.4419   23.7884 C   0  0  1  0  0  0
  -27.2685  -26.6010   20.2701 C   0  0  0  0  0  0
  -25.6093  -33.8254   24.1770 N   0  0  0  0  0  0
  -23.5347  -30.3753   21.4815 C   0  0  2  0  0  0
  -25.0056  -28.6888   20.1245 C   0  0  0  0  0  0
  -22.7860  -29.4204   22.4582 C   0  0  0  0  0  0
  -18.0379  -28.1506   22.8420 C   0  0  0  0  0  0
  -24.1485  -36.7138   23.2584 C   0  0  0  0  0  0
  -26.1187  -30.4882   21.4129 C   0  0  0  0  0  0
  -26.1911  -29.0331   20.7893 C   0  0  0  0  0  0
  -27.2917  -28.0167   20.8322 C   0  0  0  0  0  0
  -26.0548  -26.4874   19.5329 C   0  0  0  0  0  0
  -24.9799  -27.4391   19.4768 C   0  0  0  0  0  0
  -23.8081  -29.6555   20.1238 C   0  0  0  0  0  0
  -25.4078  -36.2824   24.0221 C   0  0  1  0  0  0
  -20.6050  -28.3871   23.1097 C   0  0  2  0  0  0
  -20.6850  -26.9491   22.5357 C   0  0  0  0  0  0
  -19.5837  -26.6396   21.5219 C   0  0  0  0  0  0
  -18.2030  -26.8020   22.1604 C   0  0  0  0  0  0
  -19.1671  -28.9002   23.2777 C   0  0  0  0  0  0
  -18.9562  -30.1579   23.8820 C   0  0  0  0  0  0
  -17.6547  -30.6668   24.0565 C   0  0  0  0  0  0
  -25.9169  -34.9263   23.4818 C   0  0  0  0  0  0
  -16.5430  -29.9143   23.6389 C   0  0  0  0  0  0
  -16.7365  -28.6619   23.0331 C   0  0  0  0  0  0
  -26.4646  -31.6508   25.0571 C   0  0  0  0  0  0
  -25.3565  -31.3924   26.1099 C   0  0  0  0  0  0
  -27.0514  -30.2786   24.6484 C   0  0  0  0  0  0
  -27.6172  -32.4314   25.7337 C   0  0  0  0  0  0
  -27.5616  -37.1566   24.8352 C   0  0  0  0  0  0
  -21.4494  -29.3113   22.3389 N   0  0  0  0  0  0
  -26.4155  -37.3678   23.9560 N   0  0  0  0  0  0
  -24.8047  -30.9199   22.0611 N   0  0  0  0  0  0
  -23.4251  -28.7757   23.2968 O   0  0  0  0  0  0
  -28.2731  -25.3815   20.3324 O   0  0  0  0  0  0
  -26.5812  -34.8950   22.4448 O   0  0  0  0  0  0
  -23.5995  -32.0972   23.6209 O   0  0  0  0  0  0
  -30.2696  -22.2506   20.9595 C   0  0  0  0  0  0
  -31.1817  -21.1402   21.0938 C   0  0  0  0  0  0
  -28.7368  -20.5588   20.2588 C   0  0  0  0  0  0
  -29.6523  -19.2165   20.4326 C   0  0  0  0  0  0
  -28.9421  -22.1635   20.4613 C   0  0  0  0  0  0
  -30.9404  -19.7400   20.8320 C   0  0  0  0  0  0
  -29.3994  -17.3618   20.2484 C   0  0  0  0  0  0
  -28.1919  -17.1154   19.9321 N   0  0  0  0  0  0
  -32.0639  -18.9068   20.9972 N   0  0  0  0  0  0
  -28.0467  -23.5528   20.2891 N   0  0  0  0  0  0
  -31.4082  -13.3379   19.1218 H   0  0  0  0  0  0
  -30.5843  -12.2481   20.1919 H   0  0  0  0  0  0
  -29.9785  -11.7947   17.7713 H   0  0  0  0  0  0
  -29.4471  -13.4486   17.5731 H   0  0  0  0  0  0
  -28.1772  -11.2944   19.2685 H   0  0  0  0  0  0
  -27.4370  -12.1366   17.9325 H   0  0  0  0  0  0
  -27.4309  -14.1845   19.1678 H   0  0  0  0  0  0
  -28.8775  -12.8062   21.4863 H   0  0  0  0  0  0
  -28.1688  -14.4035   21.5435 H   0  0  0  0  0  0
  -25.2710   -9.5644   22.4810 H   0  0  0  0  0  0
  -23.9922   -7.4609   22.7535 H   0  0  0  0  0  0
  -21.0794   -8.8698   19.8999 H   0  0  0  0  0  0
  -22.3657  -10.9576   19.6126 H   0  0  0  0  0  0
  -21.1996   -7.6107   23.9716 H   0  0  0  0  0  0
  -21.1582   -6.0518   25.9115 H   0  0  0  0  0  0
  -22.0526   -2.7550   23.2932 H   0  0  0  0  0  0
  -22.3808  -11.9740   22.4771 H   0  0  0  0  0  0
  -21.0923  -13.1241   22.2802 H   0  0  0  0  0  0
  -24.7495  -15.8950   20.7760 H   0  0  0  0  0  0
  -26.3340  -15.6193   20.2700 H   0  0  0  0  0  0
  -26.7593  -32.4861   23.0634 H   0  0  0  0  0  0
  -25.0241  -33.9237   24.9930 H   0  0  0  0  0  0
  -22.8771  -31.2143   21.2696 H   0  0  0  0  0  0
  -23.3911  -35.9344   23.2844 H   0  0  0  0  0  0
  -24.3688  -36.9229   22.2118 H   0  0  0  0  0  0
  -23.7052  -37.6060   23.6975 H   0  0  0  0  0  0
  -26.3196  -31.1977   20.6101 H   0  0  0  0  0  0
  -26.9681  -30.5780   22.0716 H   0  0  0  0  0  0
  -28.1731  -28.2967   21.3906 H   0  0  0  0  0  0
  -25.8964  -25.5479   19.0175 H   0  0  0  0  0  0
  -24.0979  -27.1656   18.9145 H   0  0  0  0  0  0
  -24.0017  -30.3999   19.3544 H   0  0  0  0  0  0
  -22.9195  -29.1157   19.7969 H   0  0  0  0  0  0
  -25.1259  -36.1408   25.0684 H   0  0  0  0  0  0
  -21.0188  -28.3529   24.1223 H   0  0  0  0  0  0
  -20.5805  -26.2466   23.3641 H   0  0  0  0  0  0
  -21.6708  -26.7473   22.1137 H   0  0  0  0  0  0
  -19.7004  -25.6307   21.1316 H   0  0  0  0  0  0
  -19.6814  -27.3197   20.6773 H   0  0  0  0  0  0
  -17.4263  -26.6804   21.4011 H   0  0  0  0  0  0
  -18.0408  -26.0175   22.9019 H   0  0  0  0  0  0
  -19.8028  -30.7422   24.2149 H   0  0  0  0  0  0
  -17.5103  -31.6323   24.5232 H   0  0  0  0  0  0
  -15.5458  -30.3033   23.7767 H   0  0  0  0  0  0
  -15.8759  -28.0938   22.7050 H   0  0  0  0  0  0
  -24.5779  -30.7373   25.7203 H   0  0  0  0  0  0
  -24.8812  -32.3242   26.4169 H   0  0  0  0  0  0
  -25.7572  -30.9102   27.0037 H   0  0  0  0  0  0
  -26.3193  -29.6418   24.1539 H   0  0  0  0  0  0
  -27.4009  -29.7237   25.5209 H   0  0  0  0  0  0
  -27.9181  -30.3855   23.9959 H   0  0  0  0  0  0
  -27.2873  -33.3805   26.1549 H   0  0  0  0  0  0
  -28.4150  -32.6486   25.0228 H   0  0  0  0  0  0
  -28.0661  -31.8570   26.5451 H   0  0  0  0  0  0
  -28.2068  -38.0334   24.8153 H   0  0  0  0  0  0
  -28.1584  -36.3033   24.5200 H   0  0  0  0  0  0
  -27.2516  -36.9990   25.8679 H   0  0  0  0  0  0
  -20.9837  -29.8743   21.6419 H   0  0  0  0  0  0
  -25.9876  -38.2562   24.2109 H   0  0  0  0  0  0
  -30.6342  -23.2260   21.2678 H   0  0  0  0  0  0
  -32.1770  -21.4156   21.4357 H   0  0  0  0  0  0
  -27.7308  -20.3069   19.9395 H   0  0  0  0  0  0
  -27.6466  -17.9481   19.7704 H   0  0  0  0  0  0
  -32.9981  -19.3103   21.0062 H   0  0  0  0  0  0
  -32.0780  -17.8896   20.9488 H   0  0  0  0  0  0
  -27.0637  -23.3723   20.0913 H   0  0  0  0  0  0
  1 25  1  0  0  0
  1 30  2  0  0  0
  1 77  1  0  0  0
  2  3  1  0  0  0
  2 25  1  0  0  0
  2 81  1  0  0  0
  2 82  1  0  0  0
  3  4  1  0  0  0
  3 83  1  0  0  0
  3 84  1  0  0  0
  4  5  1  0  0  0
  4 85  1  0  0  0
  4 86  1  0  0  0
  5  6  1  0  0  0
  5 26  1  0  0  0
  5 87  1  0  0  0
  6 25  1  0  0  0
  6 88  1  0  0  0
  6 89  1  0  0  0
  7  8  2  0  0  0
  7 26  1  0  0  0
  7 29  1  0  0  0
  8  9  1  0  0  0
  8 22  1  0  0  0
  9 10  1  0  0  0
  9 27  2  0  0  0
 10 11  2  0  0  0
 10 15  1  0  0  0
 11 12  1  0  0  0
 11 90  1  0  0  0
 12 13  2  0  0  0
 12 91  1  0  0  0
 13 14  1  0  0  0
 13 31  1  0  0  0
 14 15  2  0  0  0
 14 92  1  0  0  0
 15 93  1  0  0  0
 16 17  2  0  0  0
 16 21  1  0  0  0
 16 31  1  0  0  0
 17 18  1  0  0  0
 17 94  1  0  0  0
 18 19  2  0  0  0
 18 95  1  0  0  0
 19 20  1  0  0  0
 19 24  1  0  0  0
 20 21  2  0  0  0
 20 96  1  0  0  0
 21 23  1  0  0  0
 22 28  1  0  0  0
 22 32  2  0  0  0
 26 27  1  0  0  0
 28 97  1  0  0  0
 28 98  1  0  0  0
 29 99  1  0  0  0
 29100  1  0  0  0
 33 34  1  0  0  0
 33 66  1  0  0  0
 33 70  2  0  0  0
 34 36  1  0  0  0
 34 59  1  0  0  0
 34101  1  0  0  0
 35 44  2  0  0  0
 35 45  1  0  0  0
 35 68  1  0  0  0
 36 56  1  0  0  0
 36102  1  0  0  0
 37 39  1  0  0  0
 37 47  1  0  0  0
 37 66  1  0  0  0
 37103  1  0  0  0
 38 43  2  0  0  0
 38 46  1  0  0  0
 38 47  1  0  0  0
 39 64  1  0  0  0
 39 67  2  0  0  0
 40 52  1  0  0  0
 40 53  2  0  0  0
 40 58  1  0  0  0
 41104  1  0  0  0
 41105  1  0  0  0
 41106  1  0  0  0
 41 48  1  0  0  0
 42 43  1  0  0  0
 42 66  1  0  0  0
 42107  1  0  0  0
 42108  1  0  0  0
 43 44  1  0  0  0
 44109  1  0  0  0
 45 46  2  0  0  0
 45110  1  0  0  0
 46111  1  0  0  0
 47112  1  0  0  0
 47113  1  0  0  0
 48 56  1  0  0  0
 48 65  1  0  0  0
 48114  1  0  0  0
 49 50  1  0  0  0
 49 53  1  0  0  0
 49 64  1  0  0  0
 49115  1  0  0  0
 50 51  1  0  0  0
 50116  1  0  0  0
 50117  1  0  0  0
 51 52  1  0  0  0
 51118  1  0  0  0
 51119  1  0  0  0
 52120  1  0  0  0
 52121  1  0  0  0
 53 54  1  0  0  0
 54 55  2  0  0  0
 54122  1  0  0  0
 55 57  1  0  0  0
 55123  1  0  0  0
 56 69  2  0  0  0
 57 58  2  0  0  0
 57124  1  0  0  0
 58125  1  0  0  0
 59 60  1  0  0  0
 59 61  1  0  0  0
 59 62  1  0  0  0
 60126  1  0  0  0
 60127  1  0  0  0
 60128  1  0  0  0
 61129  1  0  0  0
 61130  1  0  0  0
 61131  1  0  0  0
 62132  1  0  0  0
 62133  1  0  0  0
 62134  1  0  0  0
 63 65  1  0  0  0
 63135  1  0  0  0
 63136  1  0  0  0
 63137  1  0  0  0
 64138  1  0  0  0
 65139  1  0  0  0
 68 80  1  0  0  0
 71 72  2  0  0  0
 71 75  1  0  0  0
 71140  1  0  0  0
 72 76  1  0  0  0
 72141  1  0  0  0
 73 74  1  0  0  0
 73 75  2  0  0  0
 73142  1  0  0  0
 74 76  2  0  0  0
 74 77  1  0  0  0
 75 80  1  0  0  0
 76 79  1  0  0  0
 77 78  2  0  0  0
 78143  1  0  0  0
 79144  1  0  0  0
 79145  1  0  0  0
 80146  1  0  0  0
M  ISO  4   1 100  68 101  77 100  80 101
M  END
> <chiral flag>
0

> <version>
0

> <s_m_source_file>
/data/baiqing/PycharmProjects/Reinvent-master-3.2/result/LINK_invent/BTK/process_docking_weight1_custom_product_contain_oxygen_bond_distance_aromatic_linkinvent_7_9_3/rearranged_h_0091.sdf

> <i_m_source_file_index>
16

> <r_mmod_Potential_Energy-OPLS-2005>
2796.65576171875

> <r_mmod_Stretch_Energy-OPLS-2005>
1290.81884765625

> <r_mmod_Bend_Energy-OPLS-2005>
668.248107910156

> <r_mmod_Torsional_Energy-OPLS-2005>
186.164016723633

> <r_mmod_Improper_Torsional_Energy-OPLS-2005>
6.1249475479126

> <r_mmod_Van_der_Waal_Energy-OPLS-2005>
121.156387329102

> <r_mmod_Electrostatic_Energy-OPLS-2005>
-267.679107666016

> <r_mmod_Solvation_Energy-OPLS-2005>
-220.161727905273

> <b_mmod_Minimization_Converged-OPLS-2005>
0

> <r_mmod_RMS_Derivative-OPLS-2005>
12.1454057693481

$$$$
16
                    3D
 Structure written by MMmdl.
147156  0  0  1  0            999 V2000
  -30.2697  -15.7034   20.3332 C   0  0  0  0  0  0
  -30.4291  -13.1374   19.5225 C   0  0  0  0  0  0
  -29.5498  -12.6731   18.3223 C   0  0  0  0  0  0
  -28.1308  -12.2935   18.7751 C   0  0  0  0  0  0
  -27.5974  -13.2981   19.8184 C   0  0  2  0  0  0
  -28.6258  -13.6288   20.9293 C   0  0  0  0  0  0
  -25.2263  -13.8183   20.5774 C   0  0  0  0  0  0
  -24.1679  -13.0347   20.9299 C   0  0  0  0  0  0
  -24.6413  -11.6880   20.8788 C   0  0  0  0  0  0
  -23.9117  -10.4245   21.0408 C   0  0  0  0  0  0
  -24.3651   -9.4165   21.9190 C   0  0  0  0  0  0
  -23.6304   -8.2215   22.0759 C   0  0  0  0  0  0
  -22.4286   -8.0268   21.3544 C   0  0  0  0  0  0
  -21.9935   -9.0244   20.4643 C   0  0  0  0  0  0
  -22.7287  -10.2107   20.3051 C   0  0  0  0  0  0
  -21.6848   -6.0733   22.5280 C   0  0  0  0  0  0
  -21.4011   -6.5638   23.8213 C   0  0  0  0  0  0
  -21.3657   -5.6791   24.9175 C   0  0  0  0  0  0
  -21.6044   -4.3054   24.7224 C   0  0  0  0  0  0
  -21.8820   -3.8146   23.4345 C   0  0  0  0  0  0
  -21.9192   -4.6962   22.3402 C   0  0  0  0  0  0
  -22.7696  -13.5099   21.1926 C   0  0  0  0  0  0
  -22.1664   -4.2151   21.0979 F   0  0  0  0  0  0
  -21.5628   -3.4536   25.7736 F   0  0  0  0  0  0
  -29.7727  -14.3126   20.2671 N   0  0  0  0  0  0
  -26.2777  -12.9548   20.3290 N   0  0  0  0  0  0
  -25.9370  -11.6626   20.5757 N   0  0  0  0  0  0
  -22.0364  -12.8091   22.0490 N   0  0  0  0  0  0
  -25.3643  -15.1902   20.4131 N   0  0  0  0  0  0
  -31.5090  -15.6398   20.1872 O   0  0  0  0  0  0
  -21.6634   -6.8877   21.4243 O   0  0  0  0  0  0
  -22.3377  -14.5404   20.6764 O   0  0  0  0  0  0
  -24.6863  -31.7957   23.1493 C   0  0  0  0  0  0
  -25.9428  -32.4445   23.8050 C   0  0  1  0  0  0
  -27.2370  -26.6674   20.2229 C   0  0  0  0  0  0
  -25.5993  -33.8274   24.1929 N   0  0  0  0  0  0
  -23.5152  -30.3947   21.5033 C   0  0  2  0  0  0
  -24.9753  -28.7252   20.1233 C   0  0  0  0  0  0
  -22.7779  -29.4289   22.4704 C   0  0  0  0  0  0
  -18.0340  -28.1425   22.8452 C   0  0  0  0  0  0
  -24.1497  -36.7146   23.2653 C   0  0  0  0  0  0
  -26.0964  -30.5144   21.4227 C   0  0  0  0  0  0
  -26.1616  -29.0730   20.7799 C   0  0  0  0  0  0
  -27.2717  -28.0707   20.8018 C   0  0  0  0  0  0
  -26.0210  -26.5417   19.5001 C   0  0  0  0  0  0
  -24.9449  -27.4843   19.4619 C   0  0  0  0  0  0
  -23.7734  -29.6859   20.1412 C   0  0  0  0  0  0
  -25.4149  -36.2884   24.0278 C   0  0  1  0  0  0
  -20.5976  -28.3786   23.1136 C   0  0  2  0  0  0
  -20.6804  -26.9442   22.5406 C   0  0  0  0  0  0
  -19.5781  -26.6370   21.5217 C   0  0  0  0  0  0
  -18.1964  -26.7951   22.1619 C   0  0  0  0  0  0
  -19.1607  -28.8931   23.2774 C   0  0  0  0  0  0
  -18.9512  -30.1512   23.8823 C   0  0  0  0  0  0
  -17.6502  -30.6606   24.0551 C   0  0  0  0  0  0
  -25.9129  -34.9274   23.4944 C   0  0  0  0  0  0
  -16.5391  -29.9088   23.6350 C   0  0  0  0  0  0
  -16.7320  -28.6512   23.0365 C   0  0  0  0  0  0
  -26.4599  -31.6497   25.0688 C   0  0  0  0  0  0
  -25.3656  -31.3827   26.1296 C   0  0  0  0  0  0
  -27.0537  -30.2828   24.6620 C   0  0  0  0  0  0
  -27.6041  -32.4368   25.7507 C   0  0  0  0  0  0
  -27.5563  -37.1733   24.8468 C   0  0  0  0  0  0
  -21.4423  -29.3024   22.3451 N   0  0  0  0  0  0
  -26.4274  -37.3646   23.9403 N   0  0  0  0  0  0
  -24.7895  -30.9361   22.0773 N   0  0  0  0  0  0
  -23.4202  -28.7897   23.3068 O   0  0  0  0  0  0
  -28.2286  -25.4563   20.2413 O   0  0  0  0  0  0
  -26.5778  -34.8857   22.4567 O   0  0  0  0  0  0
  -23.5873  -32.1053   23.6417 O   0  0  0  0  0  0
  -30.2934  -20.0257   20.2439 C   0  0  0  0  0  0
  -29.8789  -21.5218   20.2305 C   0  0  0  0  0  0
  -27.7472  -20.9090   20.3752 C   0  0  0  0  0  0
  -28.1613  -19.4338   20.3883 C   0  0  0  0  0  0
  -29.4548  -18.7838   20.3261 C   0  0  0  0  0  0
  -28.5307  -22.1894   20.2939 C   0  0  0  0  0  0
  -27.1986  -18.2702   20.4827 C   0  0  0  0  0  0
  -27.9985  -16.9000   20.4354 C   0  0  0  0  0  0
  -29.4641  -17.0721   20.3633 N   0  0  0  0  0  0
  -27.8611  -23.6944   20.2879 N   0  0  0  0  0  0
  -31.4041  -13.4317   19.1325 H   0  0  0  0  0  0
  -30.6397  -12.3049   20.1959 H   0  0  0  0  0  0
  -30.0183  -11.8346   17.8053 H   0  0  0  0  0  0
  -29.4879  -13.4840   17.5951 H   0  0  0  0  0  0
  -28.1746  -11.2987   19.2202 H   0  0  0  0  0  0
  -27.4575  -12.2218   17.9202 H   0  0  0  0  0  0
  -27.4497  -14.2067   19.2386 H   0  0  0  0  0  0
  -28.9227  -12.7299   21.4720 H   0  0  0  0  0  0
  -28.1885  -14.2777   21.6847 H   0  0  0  0  0  0
  -25.2791   -9.5636   22.4775 H   0  0  0  0  0  0
  -24.0000   -7.4603   22.7483 H   0  0  0  0  0  0
  -21.0865   -8.8778   19.8947 H   0  0  0  0  0  0
  -22.3759  -10.9654   19.6163 H   0  0  0  0  0  0
  -21.2005   -7.6146   23.9717 H   0  0  0  0  0  0
  -21.1478   -6.0521   25.9078 H   0  0  0  0  0  0
  -22.0601   -2.7608   23.2846 H   0  0  0  0  0  0
  -22.4006  -11.9770   22.4888 H   0  0  0  0  0  0
  -21.0975  -13.1094   22.2695 H   0  0  0  0  0  0
  -24.5765  -15.8199   20.5181 H   0  0  0  0  0  0
  -26.1949  -15.6448   20.0633 H   0  0  0  0  0  0
  -26.7513  -32.4910   23.0764 H   0  0  0  0  0  0
  -25.0039  -33.9309   25.0014 H   0  0  0  0  0  0
  -22.8428  -31.2328   21.3085 H   0  0  0  0  0  0
  -23.3775  -35.9459   23.3270 H   0  0  0  0  0  0
  -24.3561  -36.8855   22.2076 H   0  0  0  0  0  0
  -23.7245  -37.6306   23.6764 H   0  0  0  0  0  0
  -26.3029  -31.2339   20.6292 H   0  0  0  0  0  0
  -26.9461  -30.5868   22.0890 H   0  0  0  0  0  0
  -28.1668  -28.3472   21.3407 H   0  0  0  0  0  0
  -25.8641  -25.6106   18.9747 H   0  0  0  0  0  0
  -24.0535  -27.2108   18.9142 H   0  0  0  0  0  0
  -23.9537  -30.4434   19.3777 H   0  0  0  0  0  0
  -22.8778  -29.1545   19.8148 H   0  0  0  0  0  0
  -25.1362  -36.1644   25.0769 H   0  0  0  0  0  0
  -21.0057  -28.3415   24.1264 H   0  0  0  0  0  0
  -20.5663  -26.2411   23.3671 H   0  0  0  0  0  0
  -21.6665  -26.7378   22.1227 H   0  0  0  0  0  0
  -19.6937  -25.6260   21.1296 H   0  0  0  0  0  0
  -19.6726  -27.3139   20.6715 H   0  0  0  0  0  0
  -17.4232  -26.6691   21.4024 H   0  0  0  0  0  0
  -18.0354  -26.0114   22.9036 H   0  0  0  0  0  0
  -19.7988  -30.7347   24.2161 H   0  0  0  0  0  0
  -17.5052  -31.6277   24.5171 H   0  0  0  0  0  0
  -15.5388  -30.2968   23.7716 H   0  0  0  0  0  0
  -15.8720  -28.0806   22.7120 H   0  0  0  0  0  0
  -24.5871  -30.7144   25.7597 H   0  0  0  0  0  0
  -24.8812  -32.3051   26.4506 H   0  0  0  0  0  0
  -25.7824  -30.9132   27.0215 H   0  0  0  0  0  0
  -26.3260  -29.6428   24.1620 H   0  0  0  0  0  0
  -27.3951  -29.7294   25.5379 H   0  0  0  0  0  0
  -27.9248  -30.3939   24.0162 H   0  0  0  0  0  0
  -27.2575  -33.3743   26.1868 H   0  0  0  0  0  0
  -28.3962  -32.6810   25.0417 H   0  0  0  0  0  0
  -28.0589  -31.8644   26.5602 H   0  0  0  0  0  0
  -28.2554  -38.0051   24.7501 H   0  0  0  0  0  0
  -28.1084  -36.2571   24.6316 H   0  0  0  0  0  0
  -27.2272  -37.1394   25.8868 H   0  0  0  0  0  0
  -20.9738  -29.8671   21.6502 H   0  0  0  0  0  0
  -26.0098  -38.2694   24.1407 H   0  0  0  0  0  0
  -31.3578  -19.8499   20.1827 H   0  0  0  0  0  0
  -30.7084  -22.2107   20.1611 H   0  0  0  0  0  0
  -26.6787  -21.0565   20.4368 H   0  0  0  0  0  0
  -26.4767  -18.3260   19.6670 H   0  0  0  0  0  0
  -26.6357  -18.3503   21.4137 H   0  0  0  0  0  0
  -27.6894  -16.3509   19.5483 H   0  0  0  0  0  0
  -27.7360  -16.3222   21.3186 H   0  0  0  0  0  0
  -26.8465  -23.6353   20.3374 H   0  0  0  0  0  0
  1 25  1  0  0  0
  1 30  2  0  0  0
  1 79  1  0  0  0
  2  3  1  0  0  0
  2 25  1  0  0  0
  2 81  1  0  0  0
  2 82  1  0  0  0
  3  4  1  0  0  0
  3 83  1  0  0  0
  3 84  1  0  0  0
  4  5  1  0  0  0
  4 85  1  0  0  0
  4 86  1  0  0  0
  5  6  1  0  0  0
  5 26  1  0  0  0
  5 87  1  0  0  0
  6 25  1  0  0  0
  6 88  1  0  0  0
  6 89  1  0  0  0
  7  8  2  0  0  0
  7 26  1  0  0  0
  7 29  1  0  0  0
  8  9  1  0  0  0
  8 22  1  0  0  0
  9 10  1  0  0  0
  9 27  2  0  0  0
 10 11  2  0  0  0
 10 15  1  0  0  0
 11 12  1  0  0  0
 11 90  1  0  0  0
 12 13  2  0  0  0
 12 91  1  0  0  0
 13 14  1  0  0  0
 13 31  1  0  0  0
 14 15  2  0  0  0
 14 92  1  0  0  0
 15 93  1  0  0  0
 16 17  2  0  0  0
 16 21  1  0  0  0
 16 31  1  0  0  0
 17 18  1  0  0  0
 17 94  1  0  0  0
 18 19  2  0  0  0
 18 95  1  0  0  0
 19 20  1  0  0  0
 19 24  1  0  0  0
 20 21  2  0  0  0
 20 96  1  0  0  0
 21 23  1  0  0  0
 22 28  1  0  0  0
 22 32  2  0  0  0
 26 27  1  0  0  0
 28 97  1  0  0  0
 28 98  1  0  0  0
 29 99  1  0  0  0
 29100  1  0  0  0
 33 34  1  0  0  0
 33 66  1  0  0  0
 33 70  2  0  0  0
 34 36  1  0  0  0
 34 59  1  0  0  0
 34101  1  0  0  0
 35 44  2  0  0  0
 35 45  1  0  0  0
 35 68  1  0  0  0
 36 56  1  0  0  0
 36102  1  0  0  0
 37 39  1  0  0  0
 37 47  1  0  0  0
 37 66  1  0  0  0
 37103  1  0  0  0
 38 43  2  0  0  0
 38 46  1  0  0  0
 38 47  1  0  0  0
 39 64  1  0  0  0
 39 67  2  0  0  0
 40 52  1  0  0  0
 40 53  2  0  0  0
 40 58  1  0  0  0
 41104  1  0  0  0
 41105  1  0  0  0
 41106  1  0  0  0
 41 48  1  0  0  0
 42 43  1  0  0  0
 42 66  1  0  0  0
 42107  1  0  0  0
 42108  1  0  0  0
 43 44  1  0  0  0
 44109  1  0  0  0
 45 46  2  0  0  0
 45110  1  0  0  0
 46111  1  0  0  0
 47112  1  0  0  0
 47113  1  0  0  0
 48 56  1  0  0  0
 48 65  1  0  0  0
 48114  1  0  0  0
 49 50  1  0  0  0
 49 53  1  0  0  0
 49 64  1  0  0  0
 49115  1  0  0  0
 50 51  1  0  0  0
 50116  1  0  0  0
 50117  1  0  0  0
 51 52  1  0  0  0
 51118  1  0  0  0
 51119  1  0  0  0
 52120  1  0  0  0
 52121  1  0  0  0
 53 54  1  0  0  0
 54 55  2  0  0  0
 54122  1  0  0  0
 55 57  1  0  0  0
 55123  1  0  0  0
 56 69  2  0  0  0
 57 58  2  0  0  0
 57124  1  0  0  0
 58125  1  0  0  0
 59 60  1  0  0  0
 59 61  1  0  0  0
 59 62  1  0  0  0
 60126  1  0  0  0
 60127  1  0  0  0
 60128  1  0  0  0
 61129  1  0  0  0
 61130  1  0  0  0
 61131  1  0  0  0
 62132  1  0  0  0
 62133  1  0  0  0
 62134  1  0  0  0
 63 65  1  0  0  0
 63135  1  0  0  0
 63136  1  0  0  0
 63137  1  0  0  0
 64138  1  0  0  0
 65139  1  0  0  0
 68 80  1  0  0  0
 71 72  2  0  0  0
 71 75  1  0  0  0
 71140  1  0  0  0
 72 76  1  0  0  0
 72141  1  0  0  0
 73 74  1  0  0  0
 73 76  2  0  0  0
 73142  1  0  0  0
 74 75  2  0  0  0
 74 77  1  0  0  0
 75 79  1  0  0  0
 76 80  1  0  0  0
 77 78  1  0  0  0
 77143  1  0  0  0
 77144  1  0  0  0
 78 79  1  0  0  0
 78145  1  0  0  0
 78146  1  0  0  0
 80147  1  0  0  0
M  ISO  4   1 100  68 101  79 100  80 101
M  END
> <chiral flag>
0

> <version>
0

> <s_m_source_file>
/data/baiqing/PycharmProjects/Reinvent-master-3.2/result/LINK_invent/BTK/process_docking_weight1_custom_product_contain_oxygen_bond_distance_aromatic_linkinvent_7_9_3/rearranged_h_0091.sdf

> <i_m_source_file_index>
17

> <r_mmod_Potential_Energy-OPLS-2005>
2628.951171875

> <r_mmod_Stretch_Energy-OPLS-2005>
964.447448730469

> <r_mmod_Bend_Energy-OPLS-2005>
811.538452148438

> <r_mmod_Torsional_Energy-OPLS-2005>
258.754333496094

> <r_mmod_Improper_Torsional_Energy-OPLS-2005>
4.09638786315918

> <r_mmod_Van_der_Waal_Energy-OPLS-2005>
132.27278137207

> <r_mmod_Electrostatic_Energy-OPLS-2005>
-306.792358398438

> <r_mmod_Solvation_Energy-OPLS-2005>
-213.702850341797

> <b_mmod_Minimization_Converged-OPLS-2005>
0

> <r_mmod_RMS_Derivative-OPLS-2005>
0.285407662391663

$$$$
17
                    3D
 Structure written by MMmdl.
151159  0  0  1  0            999 V2000
  -30.6088  -14.8278   20.4357 C   0  0  0  0  0  0
  -30.4290  -12.5125   19.4727 C   0  0  0  0  0  0
  -29.5104  -12.5047   18.2337 C   0  0  0  0  0  0
  -28.0425  -12.3090   18.6583 C   0  0  0  0  0  0
  -27.6321  -13.2358   19.8332 C   0  0  2  0  0  0
  -28.6769  -13.2345   20.9668 C   0  0  0  0  0  0
  -25.2499  -13.8204   20.5705 C   0  0  0  0  0  0
  -24.1801  -13.0445   20.9234 C   0  0  0  0  0  0
  -24.6395  -11.6925   20.8770 C   0  0  0  0  0  0
  -23.9074  -10.4299   21.0424 C   0  0  0  0  0  0
  -24.3629   -9.4207   21.9182 C   0  0  0  0  0  0
  -23.6312   -8.2237   22.0749 C   0  0  0  0  0  0
  -22.4286   -8.0284   21.3548 C   0  0  0  0  0  0
  -21.9926   -9.0256   20.4649 C   0  0  0  0  0  0
  -22.7253  -10.2135   20.3064 C   0  0  0  0  0  0
  -21.6854   -6.0746   22.5285 C   0  0  0  0  0  0
  -21.4008   -6.5646   23.8219 C   0  0  0  0  0  0
  -21.3655   -5.6792   24.9177 C   0  0  0  0  0  0
  -21.6047   -4.3061   24.7227 C   0  0  0  0  0  0
  -21.8820   -3.8157   23.4352 C   0  0  0  0  0  0
  -21.9195   -4.6974   22.3408 C   0  0  0  0  0  0
  -22.7820  -13.5230   21.1899 C   0  0  0  0  0  0
  -22.1661   -4.2161   21.0984 F   0  0  0  0  0  0
  -21.5627   -3.4539   25.7740 F   0  0  0  0  0  0
  -29.9596  -13.6077   20.3614 N   0  0  0  0  0  0
  -26.2899  -12.9407   20.3227 N   0  0  0  0  0  0
  -25.9320  -11.6552   20.5735 N   0  0  0  0  0  0
  -22.0457  -12.8216   22.0438 N   0  0  0  0  0  0
  -25.4221  -15.1927   20.4139 N   0  0  0  0  0  0
  -31.8239  -14.8276   20.2155 O   0  0  0  0  0  0
  -21.6641   -6.8888   21.4250 O   0  0  0  0  0  0
  -22.3517  -14.5535   20.6732 O   0  0  0  0  0  0
  -24.6348  -31.8522   23.1934 C   0  0  0  0  0  0
  -25.9151  -32.4738   23.8299 C   0  0  1  0  0  0
  -27.2133  -27.2146   20.1492 C   0  0  0  0  0  0
  -25.5948  -33.8534   24.2224 N   0  0  0  0  0  0
  -23.4347  -30.4719   21.5367 C   0  0  2  0  0  0
  -24.8830  -28.9051   20.1166 C   0  0  0  0  0  0
  -22.7530  -29.4578   22.4885 C   0  0  0  0  0  0
  -18.0294  -28.1413   22.8465 C   0  0  0  0  0  0
  -24.1496  -36.7260   23.2636 C   0  0  0  0  0  0
  -25.9845  -30.7510   21.3791 C   0  0  0  0  0  0
  -26.0571  -29.3665   20.7264 C   0  0  0  0  0  0
  -27.2294  -28.5352   20.7255 C   0  0  0  0  0  0
  -26.0190  -26.8290   19.5094 C   0  0  0  0  0  0
  -24.8700  -27.6468   19.4957 C   0  0  0  0  0  0
  -23.6591  -29.8013   20.1561 C   0  0  0  0  0  0
  -25.4115  -36.3040   24.0323 C   0  0  1  0  0  0
  -20.5904  -28.3721   23.1264 C   0  0  2  0  0  0
  -20.6793  -26.9433   22.5422 C   0  0  0  0  0  0
  -19.5777  -26.6401   21.5215 C   0  0  0  0  0  0
  -18.1942  -26.7955   22.1600 C   0  0  0  0  0  0
  -19.1552  -28.8878   23.2860 C   0  0  0  0  0  0
  -18.9459  -30.1473   23.8888 C   0  0  0  0  0  0
  -17.6463  -30.6610   24.0552 C   0  0  0  0  0  0
  -25.9056  -34.9423   23.5068 C   0  0  0  0  0  0
  -16.5352  -29.9100   23.6339 C   0  0  0  0  0  0
  -16.7280  -28.6521   23.0348 C   0  0  0  0  0  0
  -26.4504  -31.6577   25.0708 C   0  0  0  0  0  0
  -25.3717  -31.3815   26.1439 C   0  0  0  0  0  0
  -27.0286  -30.2946   24.6258 C   0  0  0  0  0  0
  -27.6095  -32.4293   25.7452 C   0  0  0  0  0  0
  -27.5576  -37.1781   24.8454 C   0  0  0  0  0  0
  -21.4231  -29.3046   22.3634 N   0  0  0  0  0  0
  -26.4282  -37.3744   23.9402 N   0  0  0  0  0  0
  -24.7036  -31.0460   22.0921 N   0  0  0  0  0  0
  -23.4212  -28.8133   23.3005 O   0  0  0  0  0  0
  -28.2862  -26.2839   20.1513 O   0  0  0  0  0  0
  -26.5620  -34.8909   22.4634 O   0  0  0  0  0  0
  -23.5491  -32.1348   23.7215 O   0  0  0  0  0  0
  -28.4834  -18.9222   19.4406 C   0  0  0  0  0  0
  -28.1447  -20.3281   19.4210 C   0  0  0  0  0  0
  -29.4987  -18.6668   20.3393 C   0  0  0  0  0  0
  -28.9371  -20.9912   20.3213 C   0  0  0  0  0  0
  -30.3416  -17.3492   20.6064 C   0  0  0  0  0  0
  -28.4481  -23.5313   20.0027 C   0  0  0  0  0  0
  -30.7844  -20.2568   21.9054 C   0  0  0  0  0  0
  -28.0884  -24.9129   20.7880 C   0  0  0  0  0  0
  -29.7736  -19.9772   20.8947 N   0  0  0  0  0  0
  -28.8531  -22.3684   20.6794 N   0  0  0  0  0  0
  -29.8727  -16.0295   20.4992 N   0  0  0  0  0  0
  -31.5094  -17.5459   20.9554 O   0  0  0  0  0  0
  -28.3393  -23.5303   18.7726 O   0  0  0  0  0  0
  -31.4682  -12.6399   19.1639 H   0  0  0  0  0  0
  -30.3849  -11.5524   19.9884 H   0  0  0  0  0  0
  -29.8102  -11.7124   17.5462 H   0  0  0  0  0  0
  -29.6210  -13.4432   17.6886 H   0  0  0  0  0  0
  -27.9324  -11.2669   18.9607 H   0  0  0  0  0  0
  -27.3751  -12.4467   17.8068 H   0  0  0  0  0  0
  -27.6066  -14.2433   19.4172 H   0  0  0  0  0  0
  -28.7396  -12.2540   21.4422 H   0  0  0  0  0  0
  -28.3958  -13.9426   21.7483 H   0  0  0  0  0  0
  -25.2777   -9.5688   22.4744 H   0  0  0  0  0  0
  -24.0032   -7.4626   22.7457 H   0  0  0  0  0  0
  -21.0853   -8.8785   19.8955 H   0  0  0  0  0  0
  -22.3716  -10.9675   19.6174 H   0  0  0  0  0  0
  -21.1987   -7.6150   23.9731 H   0  0  0  0  0  0
  -21.1475   -6.0515   25.9082 H   0  0  0  0  0  0
  -22.0597   -2.7620   23.2843 H   0  0  0  0  0  0
  -22.4073  -11.9880   22.4843 H   0  0  0  0  0  0
  -21.1067  -13.1237   22.2629 H   0  0  0  0  0  0
  -24.6579  -15.8498   20.5275 H   0  0  0  0  0  0
  -26.2680  -15.6281   20.0717 H   0  0  0  0  0  0
  -26.7205  -32.5368   23.1023 H   0  0  0  0  0  0
  -25.0144  -33.9690   25.0407 H   0  0  0  0  0  0
  -22.7287  -31.2916   21.3859 H   0  0  0  0  0  0
  -23.3769  -35.9584   23.3274 H   0  0  0  0  0  0
  -24.3601  -36.8905   22.2059 H   0  0  0  0  0  0
  -23.7248  -37.6449   23.6677 H   0  0  0  0  0  0
  -26.1279  -31.5058   20.6053 H   0  0  0  0  0  0
  -26.8583  -30.8052   22.0164 H   0  0  0  0  0  0
  -28.1294  -28.8833   21.2114 H   0  0  0  0  0  0
  -25.9642  -25.8639   19.0257 H   0  0  0  0  0  0
  -23.9709  -27.2890   19.0127 H   0  0  0  0  0  0
  -23.7912  -30.5719   19.3956 H   0  0  0  0  0  0
  -22.7766  -29.2382   19.8488 H   0  0  0  0  0  0
  -25.1304  -36.1864   25.0816 H   0  0  0  0  0  0
  -20.9985  -28.3318   24.1391 H   0  0  0  0  0  0
  -20.5699  -26.2330   23.3631 H   0  0  0  0  0  0
  -21.6663  -26.7473   22.1220 H   0  0  0  0  0  0
  -19.6947  -25.6304   21.1267 H   0  0  0  0  0  0
  -19.6743  -27.3187   20.6727 H   0  0  0  0  0  0
  -17.4232  -26.6706   21.3982 H   0  0  0  0  0  0
  -18.0321  -26.0116   22.9012 H   0  0  0  0  0  0
  -19.7927  -30.7285   24.2276 H   0  0  0  0  0  0
  -17.5016  -31.6290   24.5153 H   0  0  0  0  0  0
  -15.5350  -30.2990   23.7701 H   0  0  0  0  0  0
  -15.8677  -28.0847   22.7068 H   0  0  0  0  0  0
  -24.5923  -30.7097   25.7822 H   0  0  0  0  0  0
  -24.8873  -32.3014   26.4718 H   0  0  0  0  0  0
  -25.8041  -30.9135   27.0290 H   0  0  0  0  0  0
  -26.2852  -29.6731   24.1251 H   0  0  0  0  0  0
  -27.3832  -29.7203   25.4824 H   0  0  0  0  0  0
  -27.8815  -30.4111   23.9571 H   0  0  0  0  0  0
  -27.2743  -33.3618   26.1993 H   0  0  0  0  0  0
  -28.3920  -32.6790   25.0277 H   0  0  0  0  0  0
  -28.0734  -31.8422   26.5384 H   0  0  0  0  0  0
  -28.2595  -38.0074   24.7460 H   0  0  0  0  0  0
  -28.1067  -36.2597   24.6301 H   0  0  0  0  0  0
  -27.2308  -37.1462   25.8866 H   0  0  0  0  0  0
  -20.9438  -29.8721   21.6786 H   0  0  0  0  0  0
  -26.0151  -38.2815   24.1402 H   0  0  0  0  0  0
  -28.0357  -18.1644   18.8133 H   0  0  0  0  0  0
  -27.3825  -20.7943   18.8111 H   0  0  0  0  0  0
  -30.7760  -19.4844   22.6744 H   0  0  0  0  0  0
  -30.5983  -21.2153   22.3888 H   0  0  0  0  0  0
  -31.7699  -20.2857   21.4396 H   0  0  0  0  0  0
  -28.6617  -24.9191   21.7149 H   0  0  0  0  0  0
  -27.0496  -24.8191   21.1078 H   0  0  0  0  0  0
  -29.0785  -22.5548   21.6470 H   0  0  0  0  0  0
  -28.8757  -15.9397   20.4117 H   0  0  0  0  0  0
  1 25  1  0  0  0
  1 30  2  0  0  0
  1 81  1  0  0  0
  2  3  1  0  0  0
  2 25  1  0  0  0
  2 84  1  0  0  0
  2 85  1  0  0  0
  3  4  1  0  0  0
  3 86  1  0  0  0
  3 87  1  0  0  0
  4  5  1  0  0  0
  4 88  1  0  0  0
  4 89  1  0  0  0
  5  6  1  0  0  0
  5 26  1  0  0  0
  5 90  1  0  0  0
  6 25  1  0  0  0
  6 91  1  0  0  0
  6 92  1  0  0  0
  7  8  2  0  0  0
  7 26  1  0  0  0
  7 29  1  0  0  0
  8  9  1  0  0  0
  8 22  1  0  0  0
  9 10  1  0  0  0
  9 27  2  0  0  0
 10 11  2  0  0  0
 10 15  1  0  0  0
 11 12  1  0  0  0
 11 93  1  0  0  0
 12 13  2  0  0  0
 12 94  1  0  0  0
 13 14  1  0  0  0
 13 31  1  0  0  0
 14 15  2  0  0  0
 14 95  1  0  0  0
 15 96  1  0  0  0
 16 17  2  0  0  0
 16 21  1  0  0  0
 16 31  1  0  0  0
 17 18  1  0  0  0
 17 97  1  0  0  0
 18 19  2  0  0  0
 18 98  1  0  0  0
 19 20  1  0  0  0
 19 24  1  0  0  0
 20 21  2  0  0  0
 20 99  1  0  0  0
 21 23  1  0  0  0
 22 28  1  0  0  0
 22 32  2  0  0  0
 26 27  1  0  0  0
 28100  1  0  0  0
 28101  1  0  0  0
 29102  1  0  0  0
 29103  1  0  0  0
 33 34  1  0  0  0
 33 66  1  0  0  0
 33 70  2  0  0  0
 34 36  1  0  0  0
 34 59  1  0  0  0
 34104  1  0  0  0
 35 44  2  0  0  0
 35 45  1  0  0  0
 35 68  1  0  0  0
 36 56  1  0  0  0
 36105  1  0  0  0
 37 39  1  0  0  0
 37 47  1  0  0  0
 37 66  1  0  0  0
 37106  1  0  0  0
 38 43  2  0  0  0
 38 46  1  0  0  0
 38 47  1  0  0  0
 39 64  1  0  0  0
 39 67  2  0  0  0
 40 52  1  0  0  0
 40 53  2  0  0  0
 40 58  1  0  0  0
 41107  1  0  0  0
 41108  1  0  0  0
 41109  1  0  0  0
 41 48  1  0  0  0
 42 43  1  0  0  0
 42 66  1  0  0  0
 42110  1  0  0  0
 42111  1  0  0  0
 43 44  1  0  0  0
 44112  1  0  0  0
 45 46  2  0  0  0
 45113  1  0  0  0
 46114  1  0  0  0
 47115  1  0  0  0
 47116  1  0  0  0
 48 56  1  0  0  0
 48 65  1  0  0  0
 48117  1  0  0  0
 49 50  1  0  0  0
 49 53  1  0  0  0
 49 64  1  0  0  0
 49118  1  0  0  0
 50 51  1  0  0  0
 50119  1  0  0  0
 50120  1  0  0  0
 51 52  1  0  0  0
 51121  1  0  0  0
 51122  1  0  0  0
 52123  1  0  0  0
 52124  1  0  0  0
 53 54  1  0  0  0
 54 55  2  0  0  0
 54125  1  0  0  0
 55 57  1  0  0  0
 55126  1  0  0  0
 56 69  2  0  0  0
 57 58  2  0  0  0
 57127  1  0  0  0
 58128  1  0  0  0
 59 60  1  0  0  0
 59 61  1  0  0  0
 59 62  1  0  0  0
 60129  1  0  0  0
 60130  1  0  0  0
 60131  1  0  0  0
 61132  1  0  0  0
 61133  1  0  0  0
 61134  1  0  0  0
 62135  1  0  0  0
 62136  1  0  0  0
 62137  1  0  0  0
 63 65  1  0  0  0
 63138  1  0  0  0
 63139  1  0  0  0
 63140  1  0  0  0
 64141  1  0  0  0
 65142  1  0  0  0
 68 78  1  0  0  0
 71 72  1  0  0  0
 71 73  2  0  0  0
 71143  1  0  0  0
 72 74  2  0  0  0
 72144  1  0  0  0
 73 75  1  0  0  0
 73 79  1  0  0  0
 74 79  1  0  0  0
 74 80  1  0  0  0
 75 81  1  0  0  0
 75 82  2  0  0  0
 76 78  1  0  0  0
 76 80  1  0  0  0
 76 83  2  0  0  0
 77 79  1  0  0  0
 77145  1  0  0  0
 77146  1  0  0  0
 77147  1  0  0  0
 78148  1  0  0  0
 78149  1  0  0  0
 80150  1  0  0  0
 81151  1  0  0  0
M  ISO  4   1 100  68 101  78 101  81 100
M  END
> <chiral flag>
0

> <version>
0

> <s_m_source_file>
/data/baiqing/PycharmProjects/Reinvent-master-3.2/result/LINK_invent/BTK/process_docking_weight1_custom_product_contain_oxygen_bond_distance_aromatic_linkinvent_7_9_3/rearranged_h_0091.sdf

> <i_m_source_file_index>
18

> <r_mmod_Potential_Energy-OPLS-2005>
168.477798461914

> <r_mmod_Stretch_Energy-OPLS-2005>
160.038314819336

> <r_mmod_Bend_Energy-OPLS-2005>
199.192962646484

> <r_mmod_Torsional_Energy-OPLS-2005>
262.170379638672

> <r_mmod_Improper_Torsional_Energy-OPLS-2005>
6.60019731521606

> <r_mmod_Van_der_Waal_Energy-OPLS-2005>
118.857864379883

> <r_mmod_Electrostatic_Energy-OPLS-2005>
-442.819458007812

> <r_mmod_Solvation_Energy-OPLS-2005>
-258.919128417969

> <b_mmod_Minimization_Converged-OPLS-2005>
0

> <r_mmod_RMS_Derivative-OPLS-2005>
2.23260951042175

$$$$
18
                    3D
 Structure written by MMmdl.
156164  0  0  1  0            999 V2000
  -30.6896  -14.5025   20.5615 C   0  0  0  0  0  0
  -30.4278  -12.3251   19.4256 C   0  0  0  0  0  0
  -29.4971  -12.5055   18.2082 C   0  0  0  0  0  0
  -28.0189  -12.3614   18.6222 C   0  0  0  0  0  0
  -27.6608  -13.2092   19.8724 C   0  0  2  0  0  0
  -28.7039  -13.0059   20.9946 C   0  0  0  0  0  0
  -25.2594  -13.8171   20.5686 C   0  0  0  0  0  0
  -24.1842  -13.0445   20.9172 C   0  0  0  0  0  0
  -24.6396  -11.6910   20.8730 C   0  0  0  0  0  0
  -23.9060  -10.4296   21.0403 C   0  0  0  0  0  0
  -24.3613   -9.4213   21.9181 C   0  0  0  0  0  0
  -23.6291   -8.2247   22.0752 C   0  0  0  0  0  0
  -22.4274   -8.0283   21.3543 C   0  0  0  0  0  0
  -21.9907   -9.0256   20.4646 C   0  0  0  0  0  0
  -22.7232  -10.2137   20.3052 C   0  0  0  0  0  0
  -21.6853   -6.0735   22.5280 C   0  0  0  0  0  0
  -21.4014   -6.5639   23.8213 C   0  0  0  0  0  0
  -21.3659   -5.6792   24.9175 C   0  0  0  0  0  0
  -21.6045   -4.3055   24.7225 C   0  0  0  0  0  0
  -21.8819   -3.8146   23.4346 C   0  0  0  0  0  0
  -21.9194   -4.6963   22.3403 C   0  0  0  0  0  0
  -22.7864  -13.5243   21.1840 C   0  0  0  0  0  0
  -22.1662   -4.2148   21.0980 F   0  0  0  0  0  0
  -21.5629   -3.4538   25.7737 F   0  0  0  0  0  0
  -30.0312  -13.3166   20.4379 N   0  0  0  0  0  0
  -26.3026  -12.9341   20.3359 N   0  0  0  0  0  0
  -25.9324  -11.6498   20.5761 N   0  0  0  0  0  0
  -22.0504  -12.8237   22.0398 N   0  0  0  0  0  0
  -25.4328  -15.1892   20.4120 N   0  0  0  0  0  0
  -31.8262  -14.6916   20.1169 O   0  0  0  0  0  0
  -21.6639   -6.8878   21.4241 O   0  0  0  0  0  0
  -22.3549  -14.5550   20.6691 O   0  0  0  0  0  0
  -24.6195  -31.8669   23.2102 C   0  0  0  0  0  0
  -25.9075  -32.4817   23.8401 C   0  0  1  0  0  0
  -27.2238  -27.3936   20.0920 C   0  0  0  0  0  0
  -25.5919  -33.8616   24.2327 N   0  0  0  0  0  0
  -23.4080  -30.4944   21.5528 C   0  0  2  0  0  0
  -24.8510  -28.9637   20.1134 C   0  0  0  0  0  0
  -22.7434  -29.4662   22.4978 C   0  0  0  0  0  0
  -18.0278  -28.1377   22.8492 C   0  0  0  0  0  0
  -24.1488  -36.7310   23.2638 C   0  0  0  0  0  0
  -25.9443  -30.8197   21.3710 C   0  0  0  0  0  0
  -26.0184  -29.4545   20.7113 C   0  0  0  0  0  0
  -27.2078  -28.6794   20.6953 C   0  0  0  0  0  0
  -26.0288  -26.9393   19.4796 C   0  0  0  0  0  0
  -24.8538  -27.7070   19.4939 C   0  0  0  0  0  0
  -23.6169  -29.8354   20.1657 C   0  0  0  0  0  0
  -25.4110  -36.3108   24.0337 C   0  0  1  0  0  0
  -20.5873  -28.3672   23.1304 C   0  0  2  0  0  0
  -20.6771  -26.9405   22.5411 C   0  0  0  0  0  0
  -19.5747  -26.6384   21.5211 C   0  0  0  0  0  0
  -18.1926  -26.7923   22.1625 C   0  0  0  0  0  0
  -19.1529  -28.8840   23.2895 C   0  0  0  0  0  0
  -18.9454  -30.1446   23.8906 C   0  0  0  0  0  0
  -17.6456  -30.6583   24.0564 C   0  0  0  0  0  0
  -25.9041  -34.9474   23.5127 C   0  0  0  0  0  0
  -16.5347  -29.9084   23.6327 C   0  0  0  0  0  0
  -16.7267  -28.6501   23.0350 C   0  0  0  0  0  0
  -26.4482  -31.6599   25.0740 C   0  0  0  0  0  0
  -25.3734  -31.3716   26.1479 C   0  0  0  0  0  0
  -27.0311  -30.3034   24.6141 C   0  0  0  0  0  0
  -27.6058  -32.4316   25.7501 C   0  0  0  0  0  0
  -27.5582  -37.1811   24.8465 C   0  0  0  0  0  0
  -21.4158  -29.3041   22.3712 N   0  0  0  0  0  0
  -26.4296  -37.3793   23.9408 N   0  0  0  0  0  0
  -24.6760  -31.0744   22.1022 N   0  0  0  0  0  0
  -23.4193  -28.8193   23.3022 O   0  0  0  0  0  0
  -28.3688  -26.6012   20.1221 O   0  0  0  0  0  0
  -26.5600  -34.8926   22.4686 O   0  0  0  0  0  0
  -23.5377  -32.1436   23.7474 O   0  0  0  0  0  0
  -31.6154  -19.4649   20.4964 C   0  0  0  0  0  0
  -31.4153  -21.8946   20.3661 C   0  0  0  0  0  0
  -30.2090  -19.3036   20.5000 C   0  0  0  0  0  0
  -32.2109  -20.7369   20.4323 C   0  0  0  0  0  0
  -30.0056  -21.7951   20.3508 C   0  0  0  0  0  0
  -29.4066  -20.4985   20.4071 C   0  0  0  0  0  0
  -29.6403  -17.8804   20.5414 C   0  0  0  0  0  0
  -29.3862  -24.2787   20.1994 C   0  0  0  0  0  0
  -28.1594  -25.1767   19.9060 C   0  0  0  0  0  0
  -33.5999  -20.8465   20.4304 N   0  0  0  0  0  0
  -28.0073  -20.4514   20.3537 N   0  0  0  0  0  0
  -29.1391  -22.9443   20.2581 N   0  0  0  0  0  0
  -30.4318  -16.8850   20.9989 N   0  0  0  0  0  0
  -29.9707  -15.5259   21.0625 N   0  0  0  0  0  0
  -28.4787  -17.6392   20.1945 O   0  0  0  0  0  0
  -30.4976  -24.7898   20.3630 O   0  0  0  0  0  0
  -31.4713  -12.4318   19.1237 H   0  0  0  0  0  0
  -30.3370  -11.3169   19.8331 H   0  0  0  0  0  0
  -29.7410  -11.7749   17.4357 H   0  0  0  0  0  0
  -29.6595  -13.4876   17.7614 H   0  0  0  0  0  0
  -27.8354  -11.3060   18.8272 H   0  0  0  0  0  0
  -27.3667  -12.6256   17.7891 H   0  0  0  0  0  0
  -27.6993  -14.2548   19.5651 H   0  0  0  0  0  0
  -28.6874  -11.9739   21.3483 H   0  0  0  0  0  0
  -28.4644  -13.6169   21.8662 H   0  0  0  0  0  0
  -25.2760   -9.5692   22.4753 H   0  0  0  0  0  0
  -24.0004   -7.4640   22.7471 H   0  0  0  0  0  0
  -21.0838   -8.8774   19.8953 H   0  0  0  0  0  0
  -22.3691  -10.9674   19.6159 H   0  0  0  0  0  0
  -21.2006   -7.6148   23.9715 H   0  0  0  0  0  0
  -21.1480   -6.0522   25.9078 H   0  0  0  0  0  0
  -22.0598   -2.7608   23.2846 H   0  0  0  0  0  0
  -22.4110  -11.9895   22.4786 H   0  0  0  0  0  0
  -21.1124  -13.1269   22.2604 H   0  0  0  0  0  0
  -24.6694  -15.8464   20.5295 H   0  0  0  0  0  0
  -26.2923  -15.6354   20.1133 H   0  0  0  0  0  0
  -26.7145  -32.5511   23.1160 H   0  0  0  0  0  0
  -25.0075  -33.9773   25.0477 H   0  0  0  0  0  0
  -22.6984  -31.3132   21.4172 H   0  0  0  0  0  0
  -23.3750  -35.9644   23.3308 H   0  0  0  0  0  0
  -24.3583  -36.8916   22.2051 H   0  0  0  0  0  0
  -23.7240  -37.6518   23.6644 H   0  0  0  0  0  0
  -26.0672  -31.5877   20.6060 H   0  0  0  0  0  0
  -26.8284  -30.8660   21.9952 H   0  0  0  0  0  0
  -28.1058  -29.0540   21.1666 H   0  0  0  0  0  0
  -25.9645  -25.9841   18.9815 H   0  0  0  0  0  0
  -23.9574  -27.3245   19.0250 H   0  0  0  0  0  0
  -23.7300  -30.6146   19.4110 H   0  0  0  0  0  0
  -22.7382  -29.2616   19.8654 H   0  0  0  0  0  0
  -25.1285  -36.1976   25.0830 H   0  0  0  0  0  0
  -20.9966  -28.3239   24.1424 H   0  0  0  0  0  0
  -20.5683  -26.2277   23.3600 H   0  0  0  0  0  0
  -21.6640  -26.7452   22.1197 H   0  0  0  0  0  0
  -19.6910  -25.6298   21.1233 H   0  0  0  0  0  0
  -19.6684  -27.3201   20.6747 H   0  0  0  0  0  0
  -17.4196  -26.6673   21.4025 H   0  0  0  0  0  0
  -18.0328  -26.0061   22.9018 H   0  0  0  0  0  0
  -19.7931  -30.7259   24.2279 H   0  0  0  0  0  0
  -17.5012  -31.6265   24.5162 H   0  0  0  0  0  0
  -15.5347  -30.2988   23.7646 H   0  0  0  0  0  0
  -15.8667  -28.0822   22.7059 H   0  0  0  0  0  0
  -24.5901  -30.7073   25.7808 H   0  0  0  0  0  0
  -24.8932  -32.2875   26.4933 H   0  0  0  0  0  0
  -25.8073  -30.8873   27.0236 H   0  0  0  0  0  0
  -26.2864  -29.6800   24.1177 H   0  0  0  0  0  0
  -27.4046  -29.7269   25.4615 H   0  0  0  0  0  0
  -27.8720  -30.4340   23.9325 H   0  0  0  0  0  0
  -27.2684  -33.3607   26.2105 H   0  0  0  0  0  0
  -28.3854  -32.6887   25.0317 H   0  0  0  0  0  0
  -28.0743  -31.8421   26.5393 H   0  0  0  0  0  0
  -28.2606  -38.0103   24.7512 H   0  0  0  0  0  0
  -28.1070  -36.2635   24.6289 H   0  0  0  0  0  0
  -27.2300  -37.1465   25.8869 H   0  0  0  0  0  0
  -20.9320  -29.8770   21.6939 H   0  0  0  0  0  0
  -26.0185  -38.2873   24.1401 H   0  0  0  0  0  0
  -32.2604  -18.5988   20.5323 H   0  0  0  0  0  0
  -31.9051  -22.8541   20.3148 H   0  0  0  0  0  0
  -27.3360  -24.8226   20.5295 H   0  0  0  0  0  0
  -27.8940  -25.0013   18.8627 H   0  0  0  0  0  0
  -34.1638  -20.0319   20.2051 H   0  0  0  0  0  0
  -34.0276  -21.7185   20.1314 H   0  0  0  0  0  0
  -27.6408  -19.5042   20.2732 H   0  0  0  0  0  0
  -27.5751  -21.0364   19.6485 H   0  0  0  0  0  0
  -28.1617  -22.6921   20.2166 H   0  0  0  0  0  0
  -31.4035  -16.9769   21.2635 H   0  0  0  0  0  0
  -29.0001  -15.4663   21.3349 H   0  0  0  0  0  0
  1 25  1  0  0  0
  1 30  2  0  0  0
  1 84  1  0  0  0
  2  3  1  0  0  0
  2 25  1  0  0  0
  2 87  1  0  0  0
  2 88  1  0  0  0
  3  4  1  0  0  0
  3 89  1  0  0  0
  3 90  1  0  0  0
  4  5  1  0  0  0
  4 91  1  0  0  0
  4 92  1  0  0  0
  5  6  1  0  0  0
  5 26  1  0  0  0
  5 93  1  0  0  0
  6 25  1  0  0  0
  6 94  1  0  0  0
  6 95  1  0  0  0
  7  8  2  0  0  0
  7 26  1  0  0  0
  7 29  1  0  0  0
  8  9  1  0  0  0
  8 22  1  0  0  0
  9 10  1  0  0  0
  9 27  2  0  0  0
 10 11  2  0  0  0
 10 15  1  0  0  0
 11 12  1  0  0  0
 11 96  1  0  0  0
 12 13  2  0  0  0
 12 97  1  0  0  0
 13 14  1  0  0  0
 13 31  1  0  0  0
 14 15  2  0  0  0
 14 98  1  0  0  0
 15 99  1  0  0  0
 16 17  2  0  0  0
 16 21  1  0  0  0
 16 31  1  0  0  0
 17 18  1  0  0  0
 17100  1  0  0  0
 18 19  2  0  0  0
 18101  1  0  0  0
 19 20  1  0  0  0
 19 24  1  0  0  0
 20 21  2  0  0  0
 20102  1  0  0  0
 21 23  1  0  0  0
 22 28  1  0  0  0
 22 32  2  0  0  0
 26 27  1  0  0  0
 28103  1  0  0  0
 28104  1  0  0  0
 29105  1  0  0  0
 29106  1  0  0  0
 33 34  1  0  0  0
 33 66  1  0  0  0
 33 70  2  0  0  0
 34 36  1  0  0  0
 34 59  1  0  0  0
 34107  1  0  0  0
 35 44  2  0  0  0
 35 45  1  0  0  0
 35 68  1  0  0  0
 36 56  1  0  0  0
 36108  1  0  0  0
 37 39  1  0  0  0
 37 47  1  0  0  0
 37 66  1  0  0  0
 37109  1  0  0  0
 38 43  2  0  0  0
 38 46  1  0  0  0
 38 47  1  0  0  0
 39 64  1  0  0  0
 39 67  2  0  0  0
 40 52  1  0  0  0
 40 53  2  0  0  0
 40 58  1  0  0  0
 41110  1  0  0  0
 41111  1  0  0  0
 41112  1  0  0  0
 41 48  1  0  0  0
 42 43  1  0  0  0
 42 66  1  0  0  0
 42113  1  0  0  0
 42114  1  0  0  0
 43 44  1  0  0  0
 44115  1  0  0  0
 45 46  2  0  0  0
 45116  1  0  0  0
 46117  1  0  0  0
 47118  1  0  0  0
 47119  1  0  0  0
 48 56  1  0  0  0
 48 65  1  0  0  0
 48120  1  0  0  0
 49 50  1  0  0  0
 49 53  1  0  0  0
 49 64  1  0  0  0
 49121  1  0  0  0
 50 51  1  0  0  0
 50122  1  0  0  0
 50123  1  0  0  0
 51 52  1  0  0  0
 51124  1  0  0  0
 51125  1  0  0  0
 52126  1  0  0  0
 52127  1  0  0  0
 53 54  1  0  0  0
 54 55  2  0  0  0
 54128  1  0  0  0
 55 57  1  0  0  0
 55129  1  0  0  0
 56 69  2  0  0  0
 57 58  2  0  0  0
 57130  1  0  0  0
 58131  1  0  0  0
 59 60  1  0  0  0
 59 61  1  0  0  0
 59 62  1  0  0  0
 60132  1  0  0  0
 60133  1  0  0  0
 60134  1  0  0  0
 61135  1  0  0  0
 61136  1  0  0  0
 61137  1  0  0  0
 62138  1  0  0  0
 62139  1  0  0  0
 62140  1  0  0  0
 63 65  1  0  0  0
 63141  1  0  0  0
 63142  1  0  0  0
 63143  1  0  0  0
 64144  1  0  0  0
 65145  1  0  0  0
 68 79  1  0  0  0
 71 73  2  0  0  0
 71 74  1  0  0  0
 71146  1  0  0  0
 72 74  2  0  0  0
 72 75  1  0  0  0
 72147  1  0  0  0
 73 76  1  0  0  0
 73 77  1  0  0  0
 74 80  1  0  0  0
 75 76  2  0  0  0
 75 82  1  0  0  0
 76 81  1  0  0  0
 77 83  1  0  0  0
 77 85  2  0  0  0
 78 79  1  0  0  0
 78 82  1  0  0  0
 78 86  2  0  0  0
 79148  1  0  0  0
 79149  1  0  0  0
 80150  1  0  0  0
 80151  1  0  0  0
 81152  1  0  0  0
 81153  1  0  0  0
 82154  1  0  0  0
 83 84  1  0  0  0
 83155  1  0  0  0
 84156  1  0  0  0
M  ISO  4   1 100  68 101  79 101  84 100
M  END
> <chiral flag>
0

> <version>
0

> <s_m_source_file>
/data/baiqing/PycharmProjects/Reinvent-master-3.2/result/LINK_invent/BTK/process_docking_weight1_custom_product_contain_oxygen_bond_distance_aromatic_linkinvent_7_9_3/rearranged_h_0091.sdf

> <i_m_source_file_index>
19

> <r_mmod_Potential_Energy-OPLS-2005>
-196.045379638672

> <r_mmod_Stretch_Energy-OPLS-2005>
52.1872329711914

> <r_mmod_Bend_Energy-OPLS-2005>
122.859375

> <r_mmod_Torsional_Energy-OPLS-2005>
221.997421264648

> <r_mmod_Improper_Torsional_Energy-OPLS-2005>
11.919319152832

> <r_mmod_Van_der_Waal_Energy-OPLS-2005>
175.365859985352

> <r_mmod_Electrostatic_Energy-OPLS-2005>
-538.280456542969

> <r_mmod_Solvation_Energy-OPLS-2005>
-261.528198242188

> <b_mmod_Minimization_Converged-OPLS-2005>
0

> <r_mmod_RMS_Derivative-OPLS-2005>
0.316806048154831

$$$$
19
                    3D
 Structure written by MMmdl.
156165  0  0  1  0            999 V2000
  -30.6084  -14.6721   20.4818 C   0  0  0  0  0  0
  -30.4438  -12.4111   19.4503 C   0  0  0  0  0  0
  -29.5087  -12.5124   18.2238 C   0  0  0  0  0  0
  -28.0318  -12.3474   18.6376 C   0  0  0  0  0  0
  -27.6515  -13.2204   19.8630 C   0  0  2  0  0  0
  -28.7017  -13.0846   20.9895 C   0  0  0  0  0  0
  -25.2527  -13.8140   20.5689 C   0  0  0  0  0  0
  -24.1803  -13.0399   20.9162 C   0  0  0  0  0  0
  -24.6398  -11.6886   20.8728 C   0  0  0  0  0  0
  -23.9071  -10.4273   21.0397 C   0  0  0  0  0  0
  -24.3619   -9.4194   21.9178 C   0  0  0  0  0  0
  -23.6284   -8.2237   22.0755 C   0  0  0  0  0  0
  -22.4264   -8.0279   21.3550 C   0  0  0  0  0  0
  -21.9899   -9.0257   20.4652 C   0  0  0  0  0  0
  -22.7239  -10.2123   20.3052 C   0  0  0  0  0  0
  -21.6857   -6.0726   22.5276 C   0  0  0  0  0  0
  -21.4017   -6.5630   23.8211 C   0  0  0  0  0  0
  -21.3657   -5.6785   24.9174 C   0  0  0  0  0  0
  -21.6040   -4.3046   24.7226 C   0  0  0  0  0  0
  -21.8823   -3.8140   23.4349 C   0  0  0  0  0  0
  -21.9193   -4.6953   22.3399 C   0  0  0  0  0  0
  -22.7831  -13.5207   21.1829 C   0  0  0  0  0  0
  -22.1664   -4.2139   21.0977 F   0  0  0  0  0  0
  -21.5623   -3.4532   25.7741 F   0  0  0  0  0  0
  -30.0138  -13.4361   20.4213 N   0  0  0  0  0  0
  -26.2989  -12.9352   20.3343 N   0  0  0  0  0  0
  -25.9335  -11.6497   20.5766 N   0  0  0  0  0  0
  -22.0475  -12.8224   22.0403 N   0  0  0  0  0  0
  -25.4120  -15.1865   20.4176 N   0  0  0  0  0  0
  -31.7792  -14.8393   20.1291 O   0  0  0  0  0  0
  -21.6636   -6.8873   21.4242 O   0  0  0  0  0  0
  -22.3516  -14.5518   20.6683 O   0  0  0  0  0  0
  -24.6269  -31.8590   23.2016 C   0  0  0  0  0  0
  -25.9111  -32.4776   23.8352 C   0  0  1  0  0  0
  -27.2270  -27.3125   20.1226 C   0  0  0  0  0  0
  -25.5926  -33.8575   24.2281 N   0  0  0  0  0  0
  -23.4223  -30.4808   21.5443 C   0  0  2  0  0  0
  -24.8728  -28.9359   20.1108 C   0  0  0  0  0  0
  -22.7481  -29.4604   22.4930 C   0  0  0  0  0  0
  -18.0289  -28.1381   22.8483 C   0  0  0  0  0  0
  -24.1492  -36.7292   23.2635 C   0  0  0  0  0  0
  -25.9646  -30.7877   21.3753 C   0  0  0  0  0  0
  -26.0419  -29.4140   20.7183 C   0  0  0  0  0  0
  -27.2256  -28.6146   20.7133 C   0  0  0  0  0  0
  -26.0409  -26.8939   19.4822 C   0  0  0  0  0  0
  -24.8742  -27.6811   19.4825 C   0  0  0  0  0  0
  -23.6391  -29.8150   20.1602 C   0  0  0  0  0  0
  -25.4114  -36.3080   24.0327 C   0  0  1  0  0  0
  -20.5888  -28.3684   23.1279 C   0  0  2  0  0  0
  -20.6777  -26.9407   22.5408 C   0  0  0  0  0  0
  -19.5754  -26.6379   21.5207 C   0  0  0  0  0  0
  -18.1934  -26.7922   22.1620 C   0  0  0  0  0  0
  -19.1541  -28.8851   23.2875 C   0  0  0  0  0  0
  -18.9464  -30.1452   23.8895 C   0  0  0  0  0  0
  -17.6463  -30.6584   24.0557 C   0  0  0  0  0  0
  -25.9049  -34.9450   23.5105 C   0  0  0  0  0  0
  -16.5354  -29.9080   23.6325 C   0  0  0  0  0  0
  -16.7274  -28.6493   23.0352 C   0  0  0  0  0  0
  -26.4495  -31.6581   25.0720 C   0  0  0  0  0  0
  -25.3733  -31.3738   26.1454 C   0  0  0  0  0  0
  -27.0314  -30.2992   24.6177 C   0  0  0  0  0  0
  -27.6071  -32.4302   25.7479 C   0  0  0  0  0  0
  -27.5583  -37.1795   24.8456 C   0  0  0  0  0  0
  -21.4193  -29.3033   22.3672 N   0  0  0  0  0  0
  -26.4290  -37.3775   23.9407 N   0  0  0  0  0  0
  -24.6899  -31.0590   22.0972 N   0  0  0  0  0  0
  -23.4198  -28.8142   23.3013 O   0  0  0  0  0  0
  -28.3187  -26.4287   20.1452 O   0  0  0  0  0  0
  -26.5615  -34.8917   22.4669 O   0  0  0  0  0  0
  -23.5426  -32.1392   23.7332 O   0  0  0  0  0  0
  -30.8586  -19.4259   20.4786 C   0  0  0  0  0  0
  -30.9633  -17.9996   20.6017 C   0  0  0  0  0  0
  -29.8815  -23.6755   19.3726 C   0  0  0  0  0  0
  -28.4711  -19.2584   20.3053 C   0  0  0  0  0  0
  -28.8267  -23.8016   20.3236 C   0  0  0  0  0  0
  -29.6098  -20.1044   20.3281 C   0  0  0  0  0  0
  -29.8107  -17.1672   20.5866 C   0  0  0  0  0  0
  -28.5712  -17.8425   20.4363 C   0  0  0  0  0  0
  -28.6262  -22.4956   20.7875 C   0  0  0  0  0  0
  -30.2535  -22.3562   19.2964 C   0  0  0  0  0  0
  -27.6401  -22.0338   21.8164 C   0  0  0  0  0  0
  -28.0527  -25.1037   20.7626 C   0  0  0  0  0  0
  -29.5007  -21.5670   20.1611 N   0  0  0  0  0  0
  -29.7632  -15.7115   20.7719 N   0  0  0  0  0  0
  -31.2024  -21.8003   18.4949 O   0  0  0  0  0  0
  -27.4387  -17.1013   20.4090 F   0  0  0  0  0  0
  -31.4827  -12.5455   19.1450 H   0  0  0  0  0  0
  -30.3884  -11.4176   19.8983 H   0  0  0  0  0  0
  -29.7745  -11.7581   17.4822 H   0  0  0  0  0  0
  -29.6461  -13.4791   17.7374 H   0  0  0  0  0  0
  -27.8721  -11.2945   18.8718 H   0  0  0  0  0  0
  -27.3769  -12.5734   17.7952 H   0  0  0  0  0  0
  -27.6602  -14.2539   19.5167 H   0  0  0  0  0  0
  -28.7193  -12.0638   21.3748 H   0  0  0  0  0  0
  -28.4477  -13.7180   21.8410 H   0  0  0  0  0  0
  -25.2765   -9.5661   22.4754 H   0  0  0  0  0  0
  -23.9988   -7.4625   22.7478 H   0  0  0  0  0  0
  -21.0824   -8.8790   19.8965 H   0  0  0  0  0  0
  -22.3710  -10.9669   19.6163 H   0  0  0  0  0  0
  -21.2022   -7.6141   23.9713 H   0  0  0  0  0  0
  -21.1467   -6.0514   25.9073 H   0  0  0  0  0  0
  -22.0603   -2.7603   23.2857 H   0  0  0  0  0  0
  -22.4082  -11.9896   22.4815 H   0  0  0  0  0  0
  -21.1106  -13.1281   22.2611 H   0  0  0  0  0  0
  -24.6405  -15.8278   20.5580 H   0  0  0  0  0  0
  -26.2787  -15.6709   20.2054 H   0  0  0  0  0  0
  -26.7182  -32.5444   23.1102 H   0  0  0  0  0  0
  -25.0068  -33.9722   25.0421 H   0  0  0  0  0  0
  -22.7158  -31.3010   21.3999 H   0  0  0  0  0  0
  -23.3751  -35.9627   23.3300 H   0  0  0  0  0  0
  -24.3590  -36.8906   22.2050 H   0  0  0  0  0  0
  -23.7252  -37.6498   23.6654 H   0  0  0  0  0  0
  -26.0967  -31.5516   20.6078 H   0  0  0  0  0  0
  -26.8440  -30.8377   22.0054 H   0  0  0  0  0  0
  -28.1228  -28.9755   21.1963 H   0  0  0  0  0  0
  -26.0067  -25.9329   18.9882 H   0  0  0  0  0  0
  -23.9806  -27.3119   18.9979 H   0  0  0  0  0  0
  -23.7551  -30.5912   19.4031 H   0  0  0  0  0  0
  -22.7605  -29.2418   19.8585 H   0  0  0  0  0  0
  -25.1293  -36.1932   25.0820 H   0  0  0  0  0  0
  -20.9977  -28.3266   24.1400 H   0  0  0  0  0  0
  -20.5671  -26.2295   23.3608 H   0  0  0  0  0  0
  -21.6649  -26.7435   22.1208 H   0  0  0  0  0  0
  -19.6918  -25.6290   21.1237 H   0  0  0  0  0  0
  -19.6691  -27.3184   20.6734 H   0  0  0  0  0  0
  -17.4201  -26.6663   21.4025 H   0  0  0  0  0  0
  -18.0342  -26.0065   22.9021 H   0  0  0  0  0  0
  -19.7940  -30.7266   24.2269 H   0  0  0  0  0  0
  -17.5016  -31.6266   24.5155 H   0  0  0  0  0  0
  -15.5354  -30.2980   23.7646 H   0  0  0  0  0  0
  -15.8674  -28.0802   22.7077 H   0  0  0  0  0  0
  -24.5878  -30.7122   25.7784 H   0  0  0  0  0  0
  -24.8962  -32.2915   26.4901 H   0  0  0  0  0  0
  -25.8051  -30.8886   27.0216 H   0  0  0  0  0  0
  -26.2873  -29.6758   24.1203 H   0  0  0  0  0  0
  -27.3997  -29.7238   25.4683 H   0  0  0  0  0  0
  -27.8760  -30.4258   23.9400 H   0  0  0  0  0  0
  -27.2701  -33.3606   26.2060 H   0  0  0  0  0  0
  -28.3873  -32.6851   25.0295 H   0  0  0  0  0  0
  -28.0743  -31.8418   26.5386 H   0  0  0  0  0  0
  -28.2592  -38.0102   24.7522 H   0  0  0  0  0  0
  -28.1089  -36.2637   24.6254 H   0  0  0  0  0  0
  -27.2309  -37.1415   25.8861 H   0  0  0  0  0  0
  -20.9374  -29.8754   21.6878 H   0  0  0  0  0  0
  -26.0171  -38.2846   24.1417 H   0  0  0  0  0  0
  -31.7665  -20.0120   20.4952 H   0  0  0  0  0  0
  -31.9410  -17.5549   20.7236 H   0  0  0  0  0  0
  -30.3145  -24.4815   18.7961 H   0  0  0  0  0  0
  -27.4921  -19.6929   20.1726 H   0  0  0  0  0  0
  -27.3494  -22.8491   22.4784 H   0  0  0  0  0  0
  -28.0543  -21.2435   22.4428 H   0  0  0  0  0  0
  -26.7331  -21.6554   21.3449 H   0  0  0  0  0  0
  -28.2494  -25.2280   21.8281 H   0  0  0  0  0  0
  -26.9950  -24.8472   20.7094 H   0  0  0  0  0  0
  -28.8331  -15.3842   20.9833 H   0  0  0  0  0  0
  -31.5594  -22.4922   17.9466 H   0  0  0  0  0  0
  1 25  1  0  0  0
  1 30  2  0  0  0
  1 84  1  0  0  0
  2  3  1  0  0  0
  2 25  1  0  0  0
  2 87  1  0  0  0
  2 88  1  0  0  0
  3  4  1  0  0  0
  3 89  1  0  0  0
  3 90  1  0  0  0
  4  5  1  0  0  0
  4 91  1  0  0  0
  4 92  1  0  0  0
  5  6  1  0  0  0
  5 26  1  0  0  0
  5 93  1  0  0  0
  6 25  1  0  0  0
  6 94  1  0  0  0
  6 95  1  0  0  0
  7  8  2  0  0  0
  7 26  1  0  0  0
  7 29  1  0  0  0
  8  9  1  0  0  0
  8 22  1  0  0  0
  9 10  1  0  0  0
  9 27  2  0  0  0
 10 11  2  0  0  0
 10 15  1  0  0  0
 11 12  1  0  0  0
 11 96  1  0  0  0
 12 13  2  0  0  0
 12 97  1  0  0  0
 13 14  1  0  0  0
 13 31  1  0  0  0
 14 15  2  0  0  0
 14 98  1  0  0  0
 15 99  1  0  0  0
 16 17  2  0  0  0
 16 21  1  0  0  0
 16 31  1  0  0  0
 17 18  1  0  0  0
 17100  1  0  0  0
 18 19  2  0  0  0
 18101  1  0  0  0
 19 20  1  0  0  0
 19 24  1  0  0  0
 20 21  2  0  0  0
 20102  1  0  0  0
 21 23  1  0  0  0
 22 28  1  0  0  0
 22 32  2  0  0  0
 26 27  1  0  0  0
 28103  1  0  0  0
 28104  1  0  0  0
 29105  1  0  0  0
 29106  1  0  0  0
 33 34  1  0  0  0
 33 66  1  0  0  0
 33 70  2  0  0  0
 34 36  1  0  0  0
 34 59  1  0  0  0
 34107  1  0  0  0
 35 44  2  0  0  0
 35 45  1  0  0  0
 35 68  1  0  0  0
 36 56  1  0  0  0
 36108  1  0  0  0
 37 39  1  0  0  0
 37 47  1  0  0  0
 37 66  1  0  0  0
 37109  1  0  0  0
 38 43  2  0  0  0
 38 46  1  0  0  0
 38 47  1  0  0  0
 39 64  1  0  0  0
 39 67  2  0  0  0
 40 52  1  0  0  0
 40 53  2  0  0  0
 40 58  1  0  0  0
 41110  1  0  0  0
 41111  1  0  0  0
 41112  1  0  0  0
 41 48  1  0  0  0
 42 43  1  0  0  0
 42 66  1  0  0  0
 42113  1  0  0  0
 42114  1  0  0  0
 43 44  1  0  0  0
 44115  1  0  0  0
 45 46  2  0  0  0
 45116  1  0  0  0
 46117  1  0  0  0
 47118  1  0  0  0
 47119  1  0  0  0
 48 56  1  0  0  0
 48 65  1  0  0  0
 48120  1  0  0  0
 49 50  1  0  0  0
 49 53  1  0  0  0
 49 64  1  0  0  0
 49121  1  0  0  0
 50 51  1  0  0  0
 50122  1  0  0  0
 50123  1  0  0  0
 51 52  1  0  0  0
 51124  1  0  0  0
 51125  1  0  0  0
 52126  1  0  0  0
 52127  1  0  0  0
 53 54  1  0  0  0
 54 55  2  0  0  0
 54128  1  0  0  0
 55 57  1  0  0  0
 55129  1  0  0  0
 56 69  2  0  0  0
 57 58  2  0  0  0
 57130  1  0  0  0
 58131  1  0  0  0
 59 60  1  0  0  0
 59 61  1  0  0  0
 59 62  1  0  0  0
 60132  1  0  0  0
 60133  1  0  0  0
 60134  1  0  0  0
 61135  1  0  0  0
 61136  1  0  0  0
 61137  1  0  0  0
 62138  1  0  0  0
 62139  1  0  0  0
 62140  1  0  0  0
 63 65  1  0  0  0
 63141  1  0  0  0
 63142  1  0  0  0
 63143  1  0  0  0
 64144  1  0  0  0
 65145  1  0  0  0
 68 82  1  0  0  0
 71 72  2  0  0  0
 71 76  1  0  0  0
 71146  1  0  0  0
 72 77  1  0  0  0
 72147  1  0  0  0
 73 75  1  0  0  0
 73 80  2  0  0  0
 73148  1  0  0  0
 74 76  2  0  0  0
 74 78  1  0  0  0
 74149  1  0  0  0
 75 79  2  0  0  0
 75 82  1  0  0  0
 76 83  1  0  0  0
 77 78  2  0  0  0
 77 84  1  0  0  0
 78 86  1  0  0  0
 79 81  1  0  0  0
 79 83  1  0  0  0
 80 83  1  0  0  0
 80 85  1  0  0  0
 81150  1  0  0  0
 81151  1  0  0  0
 81152  1  0  0  0
 82153  1  0  0  0
 82154  1  0  0  0
 84155  1  0  0  0
 85156  1  0  0  0
M  ISO  4   1 100  68 101  82 101  84 100
M  END
> <chiral flag>
0

> <version>
0

> <s_m_source_file>
/data/baiqing/PycharmProjects/Reinvent-master-3.2/result/LINK_invent/BTK/process_docking_weight1_custom_product_contain_oxygen_bond_distance_aromatic_linkinvent_7_9_3/rearranged_h_0091.sdf

> <i_m_source_file_index>
20

> <r_mmod_Potential_Energy-OPLS-2005>
30.9284782409668

> <r_mmod_Stretch_Energy-OPLS-2005>
83.8478851318359

> <r_mmod_Bend_Energy-OPLS-2005>
143.038665771484

> <r_mmod_Torsional_Energy-OPLS-2005>
249.523849487305

> <r_mmod_Improper_Torsional_Energy-OPLS-2005>
4.81372833251953

> <r_mmod_Van_der_Waal_Energy-OPLS-2005>
136.794296264648

> <r_mmod_Electrostatic_Energy-OPLS-2005>
-435.528564453125

> <r_mmod_Solvation_Energy-OPLS-2005>
-209.213790893555

> <b_mmod_Minimization_Converged-OPLS-2005>
0

> <r_mmod_RMS_Derivative-OPLS-2005>
1.00794637203217

$$$$
20
                    3D
 Structure written by MMmdl.
154162  0  0  1  0            999 V2000
  -30.5573  -14.9369   20.5072 C   0  0  0  0  0  0
  -30.4423  -12.5949   19.5046 C   0  0  0  0  0  0
  -29.5244  -12.5502   18.2591 C   0  0  0  0  0  0
  -28.0552  -12.3300   18.6648 C   0  0  0  0  0  0
  -27.6334  -13.2435   19.8418 C   0  0  2  0  0  0
  -28.6677  -13.2215   20.9816 C   0  0  0  0  0  0
  -25.2476  -13.8207   20.5694 C   0  0  0  0  0  0
  -24.1780  -13.0439   20.9197 C   0  0  0  0  0  0
  -24.6385  -11.6919   20.8723 C   0  0  0  0  0  0
  -23.9065  -10.4296   21.0398 C   0  0  0  0  0  0
  -24.3618   -9.4215   21.9177 C   0  0  0  0  0  0
  -23.6295   -8.2250   22.0754 C   0  0  0  0  0  0
  -22.4276   -8.0284   21.3546 C   0  0  0  0  0  0
  -21.9908   -9.0253   20.4645 C   0  0  0  0  0  0
  -22.7237  -10.2133   20.3049 C   0  0  0  0  0  0
  -21.6853   -6.0735   22.5281 C   0  0  0  0  0  0
  -21.4013   -6.5639   23.8214 C   0  0  0  0  0  0
  -21.3660   -5.6792   24.9174 C   0  0  0  0  0  0
  -21.6046   -4.3055   24.7226 C   0  0  0  0  0  0
  -21.8819   -3.8145   23.4346 C   0  0  0  0  0  0
  -21.9192   -4.6962   22.3401 C   0  0  0  0  0  0
  -22.7803  -13.5217   21.1874 C   0  0  0  0  0  0
  -22.1660   -4.2149   21.0978 F   0  0  0  0  0  0
  -21.5631   -3.4536   25.7737 F   0  0  0  0  0  0
  -29.9561  -13.6709   20.4231 N   0  0  0  0  0  0
  -26.2888  -12.9424   20.3209 N   0  0  0  0  0  0
  -25.9311  -11.6556   20.5689 N   0  0  0  0  0  0
  -22.0456  -12.8204   22.0435 N   0  0  0  0  0  0
  -25.4179  -15.1934   20.4178 N   0  0  0  0  0  0
  -31.6933  -15.0411   20.0280 O   0  0  0  0  0  0
  -21.6642   -6.8878   21.4243 O   0  0  0  0  0  0
  -22.3478  -14.5522   20.6723 O   0  0  0  0  0  0
  -24.6440  -31.8435   23.1890 C   0  0  0  0  0  0
  -25.9207  -32.4695   23.8278 C   0  0  1  0  0  0
  -27.2169  -27.1289   20.1483 C   0  0  0  0  0  0
  -25.5957  -33.8500   24.2197 N   0  0  0  0  0  0
  -23.4487  -30.4635   21.5343 C   0  0  2  0  0  0
  -24.8991  -28.8929   20.1080 C   0  0  0  0  0  0
  -22.7577  -29.4545   22.4860 C   0  0  0  0  0  0
  -18.0305  -28.1399   22.8482 C   0  0  0  0  0  0
  -24.1488  -36.7249   23.2642 C   0  0  0  0  0  0
  -26.0058  -30.7141   21.3909 C   0  0  0  0  0  0
  -26.0761  -29.3251   20.7322 C   0  0  0  0  0  0
  -27.2342  -28.4576   20.7398 C   0  0  0  0  0  0
  -26.0178  -26.8109   19.4699 C   0  0  0  0  0  0
  -24.8836  -27.6496   19.4616 C   0  0  0  0  0  0
  -23.6753  -29.7947   20.1527 C   0  0  0  0  0  0
  -25.4122  -36.3031   24.0317 C   0  0  1  0  0  0
  -20.5920  -28.3722   23.1239 C   0  0  2  0  0  0
  -20.6794  -26.9425   22.5410 C   0  0  0  0  0  0
  -19.5766  -26.6381   21.5219 C   0  0  0  0  0  0
  -18.1943  -26.7940   22.1622 C   0  0  0  0  0  0
  -19.1563  -28.8879   23.2853 C   0  0  0  0  0  0
  -18.9476  -30.1475   23.8876 C   0  0  0  0  0  0
  -17.6473  -30.6596   24.0558 C   0  0  0  0  0  0
  -25.9073  -34.9406   23.5068 C   0  0  0  0  0  0
  -16.5364  -29.9087   23.6339 C   0  0  0  0  0  0
  -16.7287  -28.6506   23.0361 C   0  0  0  0  0  0
  -26.4525  -31.6565   25.0721 C   0  0  0  0  0  0
  -25.3707  -31.3759   26.1415 C   0  0  0  0  0  0
  -27.0391  -30.2961   24.6306 C   0  0  0  0  0  0
  -27.6062  -32.4328   25.7500 C   0  0  0  0  0  0
  -27.5574  -37.1784   24.8466 C   0  0  0  0  0  0
  -21.4266  -29.3045   22.3609 N   0  0  0  0  0  0
  -26.4285  -37.3746   23.9408 N   0  0  0  0  0  0
  -24.7192  -31.0286   22.0929 N   0  0  0  0  0  0
  -23.4217  -28.8092   23.3014 O   0  0  0  0  0  0
  -28.2535  -26.1235   20.2393 O   0  0  0  0  0  0
  -26.5655  -34.8904   22.4642 O   0  0  0  0  0  0
  -23.5553  -32.1305   23.7106 O   0  0  0  0  0  0
  -30.0981  -18.6536   21.6060 C   0  0  0  0  0  0
  -29.7980  -20.0631   21.3930 C   0  0  0  0  0  0
  -29.1522  -18.0868   19.5298 C   0  0  0  0  0  0
  -29.7788  -17.5592   20.7104 C   0  0  0  0  0  0
  -29.1244  -20.5726   20.2381 C   0  0  0  0  0  0
  -28.8452  -19.5006   19.3107 C   0  0  0  0  0  0
  -30.1099  -15.0678   23.3878 C   0  0  0  0  0  0
  -29.6021  -15.9403   22.4926 C   0  0  0  0  0  0
  -28.8476  -23.3266   20.4443 C   0  0  0  0  0  0
  -27.9532  -24.6250   19.9161 C   0  0  0  0  0  0
  -28.2148  -19.8532   18.1163 N   0  0  0  0  0  0
  -28.6346  -22.0051   19.9665 N   0  0  0  0  0  0
  -29.9162  -16.0664   21.1180 N   0  0  0  0  0  0
  -29.7185  -23.5354   21.2929 O   0  0  0  0  0  0
  -31.4752  -12.7565   19.1930 H   0  0  0  0  0  0
  -30.4435  -11.6305   20.0149 H   0  0  0  0  0  0
  -29.8472  -11.7602   17.5799 H   0  0  0  0  0  0
  -29.6148  -13.4858   17.7057 H   0  0  0  0  0  0
  -27.9457  -11.2841   18.9538 H   0  0  0  0  0  0
  -27.3956  -12.4803   17.8091 H   0  0  0  0  0  0
  -27.6124  -14.2583   19.4433 H   0  0  0  0  0  0
  -28.7558  -12.2228   21.4119 H   0  0  0  0  0  0
  -28.3129  -13.8565   21.7884 H   0  0  0  0  0  0
  -25.2761   -9.5696   22.4749 H   0  0  0  0  0  0
  -24.0006   -7.4640   22.7472 H   0  0  0  0  0  0
  -21.0840   -8.8760   19.8951 H   0  0  0  0  0  0
  -22.3686  -10.9663   19.6154 H   0  0  0  0  0  0
  -21.2005   -7.6147   23.9717 H   0  0  0  0  0  0
  -21.1483   -6.0521   25.9078 H   0  0  0  0  0  0
  -22.0597   -2.7608   23.2841 H   0  0  0  0  0  0
  -22.4077  -11.9869   22.4821 H   0  0  0  0  0  0
  -21.1072  -13.1223   22.2648 H   0  0  0  0  0  0
  -24.6573  -15.8520   20.5438 H   0  0  0  0  0  0
  -26.2820  -15.6361   20.1310 H   0  0  0  0  0  0
  -26.7272  -32.5295   23.1004 H   0  0  0  0  0  0
  -25.0100  -33.9616   25.0342 H   0  0  0  0  0  0
  -22.7521  -31.2901   21.3802 H   0  0  0  0  0  0
  -23.3763  -35.9569   23.3289 H   0  0  0  0  0  0
  -24.3578  -36.8892   22.2061 H   0  0  0  0  0  0
  -23.7226  -37.6435   23.6683 H   0  0  0  0  0  0
  -26.1645  -31.4688   20.6193 H   0  0  0  0  0  0
  -26.8758  -30.7640   22.0342 H   0  0  0  0  0  0
  -28.1264  -28.7787   21.2585 H   0  0  0  0  0  0
  -25.9137  -25.8685   18.9544 H   0  0  0  0  0  0
  -23.9877  -27.3175   18.9549 H   0  0  0  0  0  0
  -23.8123  -30.5694   19.3972 H   0  0  0  0  0  0
  -22.7898  -29.2372   19.8415 H   0  0  0  0  0  0
  -25.1312  -36.1861   25.0810 H   0  0  0  0  0  0
  -21.0011  -28.3303   24.1361 H   0  0  0  0  0  0
  -20.5697  -26.2329   23.3625 H   0  0  0  0  0  0
  -21.6657  -26.7437   22.1198 H   0  0  0  0  0  0
  -19.6926  -25.6288   21.1256 H   0  0  0  0  0  0
  -19.6703  -27.3186   20.6744 H   0  0  0  0  0  0
  -17.4217  -26.6689   21.4018 H   0  0  0  0  0  0
  -18.0332  -26.0090   22.9023 H   0  0  0  0  0  0
  -19.7951  -30.7299   24.2236 H   0  0  0  0  0  0
  -17.5024  -31.6276   24.5163 H   0  0  0  0  0  0
  -15.5362  -30.2981   23.7686 H   0  0  0  0  0  0
  -15.8684  -28.0817   22.7093 H   0  0  0  0  0  0
  -24.5890  -30.7103   25.7731 H   0  0  0  0  0  0
  -24.8889  -32.2946   26.4776 H   0  0  0  0  0  0
  -25.7985  -30.8968   27.0232 H   0  0  0  0  0  0
  -26.3013  -29.6685   24.1298 H   0  0  0  0  0  0
  -27.3991  -29.7258   25.4879 H   0  0  0  0  0  0
  -27.8926  -30.4200   23.9638 H   0  0  0  0  0  0
  -27.2668  -33.3659   26.2010 H   0  0  0  0  0  0
  -28.3908  -32.6838   25.0348 H   0  0  0  0  0  0
  -28.0692  -31.8493   26.5470 H   0  0  0  0  0  0
  -28.2587  -38.0084   24.7516 H   0  0  0  0  0  0
  -28.1073  -36.2618   24.6290 H   0  0  0  0  0  0
  -27.2294  -37.1426   25.8868 H   0  0  0  0  0  0
  -20.9478  -29.8751   21.6778 H   0  0  0  0  0  0
  -26.0150  -38.2811   24.1418 H   0  0  0  0  0  0
  -30.5745  -18.4133   22.5463 H   0  0  0  0  0  0
  -30.0647  -20.7613   22.1733 H   0  0  0  0  0  0
  -28.8434  -17.3749   18.7785 H   0  0  0  0  0  0
  -29.7654  -15.0836   24.4123 H   0  0  0  0  0  0
  -30.8644  -14.3336   23.1428 H   0  0  0  0  0  0
  -28.8493  -16.6473   22.8164 H   0  0  0  0  0  0
  -26.9512  -24.4109   20.2881 H   0  0  0  0  0  0
  -27.8956  -24.5400   18.8307 H   0  0  0  0  0  0
  -28.2067  -19.1522   17.3824 H   0  0  0  0  0  0
  -28.4481  -20.7646   17.7384 H   0  0  0  0  0  0
  -27.9380  -22.0029   19.2339 H   0  0  0  0  0  0
  1 25  1  0  0  0
  1 30  2  0  0  0
  1 83  1  0  0  0
  2  3  1  0  0  0
  2 25  1  0  0  0
  2 85  1  0  0  0
  2 86  1  0  0  0
  3  4  1  0  0  0
  3 87  1  0  0  0
  3 88  1  0  0  0
  4  5  1  0  0  0
  4 89  1  0  0  0
  4 90  1  0  0  0
  5  6  1  0  0  0
  5 26  1  0  0  0
  5 91  1  0  0  0
  6 25  1  0  0  0
  6 92  1  0  0  0
  6 93  1  0  0  0
  7  8  2  0  0  0
  7 26  1  0  0  0
  7 29  1  0  0  0
  8  9  1  0  0  0
  8 22  1  0  0  0
  9 10  1  0  0  0
  9 27  2  0  0  0
 10 11  2  0  0  0
 10 15  1  0  0  0
 11 12  1  0  0  0
 11 94  1  0  0  0
 12 13  2  0  0  0
 12 95  1  0  0  0
 13 14  1  0  0  0
 13 31  1  0  0  0
 14 15  2  0  0  0
 14 96  1  0  0  0
 15 97  1  0  0  0
 16 17  2  0  0  0
 16 21  1  0  0  0
 16 31  1  0  0  0
 17 18  1  0  0  0
 17 98  1  0  0  0
 18 19  2  0  0  0
 18 99  1  0  0  0
 19 20  1  0  0  0
 19 24  1  0  0  0
 20 21  2  0  0  0
 20100  1  0  0  0
 21 23  1  0  0  0
 22 28  1  0  0  0
 22 32  2  0  0  0
 26 27  1  0  0  0
 28101  1  0  0  0
 28102  1  0  0  0
 29103  1  0  0  0
 29104  1  0  0  0
 33 34  1  0  0  0
 33 66  1  0  0  0
 33 70  2  0  0  0
 34 36  1  0  0  0
 34 59  1  0  0  0
 34105  1  0  0  0
 35 44  2  0  0  0
 35 45  1  0  0  0
 35 68  1  0  0  0
 36 56  1  0  0  0
 36106  1  0  0  0
 37 39  1  0  0  0
 37 47  1  0  0  0
 37 66  1  0  0  0
 37107  1  0  0  0
 38 43  2  0  0  0
 38 46  1  0  0  0
 38 47  1  0  0  0
 39 64  1  0  0  0
 39 67  2  0  0  0
 40 52  1  0  0  0
 40 53  2  0  0  0
 40 58  1  0  0  0
 41108  1  0  0  0
 41109  1  0  0  0
 41110  1  0  0  0
 41 48  1  0  0  0
 42 43  1  0  0  0
 42 66  1  0  0  0
 42111  1  0  0  0
 42112  1  0  0  0
 43 44  1  0  0  0
 44113  1  0  0  0
 45 46  2  0  0  0
 45114  1  0  0  0
 46115  1  0  0  0
 47116  1  0  0  0
 47117  1  0  0  0
 48 56  1  0  0  0
 48 65  1  0  0  0
 48118  1  0  0  0
 49 50  1  0  0  0
 49 53  1  0  0  0
 49 64  1  0  0  0
 49119  1  0  0  0
 50 51  1  0  0  0
 50120  1  0  0  0
 50121  1  0  0  0
 51 52  1  0  0  0
 51122  1  0  0  0
 51123  1  0  0  0
 52124  1  0  0  0
 52125  1  0  0  0
 53 54  1  0  0  0
 54 55  2  0  0  0
 54126  1  0  0  0
 55 57  1  0  0  0
 55127  1  0  0  0
 56 69  2  0  0  0
 57 58  2  0  0  0
 57128  1  0  0  0
 58129  1  0  0  0
 59 60  1  0  0  0
 59 61  1  0  0  0
 59 62  1  0  0  0
 60130  1  0  0  0
 60131  1  0  0  0
 60132  1  0  0  0
 61133  1  0  0  0
 61134  1  0  0  0
 61135  1  0  0  0
 62136  1  0  0  0
 62137  1  0  0  0
 62138  1  0  0  0
 63 65  1  0  0  0
 63139  1  0  0  0
 63140  1  0  0  0
 63141  1  0  0  0
 64142  1  0  0  0
 65143  1  0  0  0
 68 80  1  0  0  0
 71 72  2  0  0  0
 71 74  1  0  0  0
 71144  1  0  0  0
 72 75  1  0  0  0
 72145  1  0  0  0
 73 74  2  0  0  0
 73 76  1  0  0  0
 73146  1  0  0  0
 74 83  1  0  0  0
 75 76  2  0  0  0
 75 82  1  0  0  0
 76 81  1  0  0  0
 77 78  2  0  0  0
 77147  1  0  0  0
 77148  1  0  0  0
 78 83  1  0  0  0
 78149  1  0  0  0
 79 80  1  0  0  0
 79 82  1  0  0  0
 79 84  2  0  0  0
 80150  1  0  0  0
 80151  1  0  0  0
 81152  1  0  0  0
 81153  1  0  0  0
 82154  1  0  0  0
M  ISO  4   1 100  68 101  80 101  83 100
M  END
> <chiral flag>
0

> <version>
0

> <s_m_source_file>
/data/baiqing/PycharmProjects/Reinvent-master-3.2/result/LINK_invent/BTK/process_docking_weight1_custom_product_contain_oxygen_bond_distance_aromatic_linkinvent_7_9_3/rearranged_h_0091.sdf

> <i_m_source_file_index>
21

> <r_mmod_Potential_Energy-OPLS-2005>
582.51123046875

> <r_mmod_Stretch_Energy-OPLS-2005>
250.121215820312

> <r_mmod_Bend_Energy-OPLS-2005>
270.101806640625

> <r_mmod_Torsional_Energy-OPLS-2005>
311.078643798828

> <r_mmod_Improper_Torsional_Energy-OPLS-2005>
8.09576511383057

> <r_mmod_Van_der_Waal_Energy-OPLS-2005>
150.187377929688

> <r_mmod_Electrostatic_Energy-OPLS-2005>
-357.281280517578

> <r_mmod_Solvation_Energy-OPLS-2005>
-239.590179443359

> <b_mmod_Minimization_Converged-OPLS-2005>
0

> <r_mmod_RMS_Derivative-OPLS-2005>
0.799776673316956

$$$$
21
                    3D
 Structure written by MMmdl.
152160  0  0  1  0            999 V2000
  -30.7142  -14.6511   20.5016 C   0  0  0  0  0  0
  -30.4116  -12.4109   19.4561 C   0  0  0  0  0  0
  -29.4946  -12.4959   18.2213 C   0  0  0  0  0  0
  -28.0237  -12.3316   18.6436 C   0  0  0  0  0  0
  -27.6410  -13.2339   19.8481 C   0  0  2  0  0  0
  -28.6911  -13.1735   20.9797 C   0  0  0  0  0  0
  -25.2514  -13.8205   20.5706 C   0  0  0  0  0  0
  -24.1809  -13.0447   20.9218 C   0  0  0  0  0  0
  -24.6401  -11.6925   20.8757 C   0  0  0  0  0  0
  -23.9081  -10.4298   21.0414 C   0  0  0  0  0  0
  -24.3627   -9.4210   21.9190 C   0  0  0  0  0  0
  -23.6296   -8.2246   22.0757 C   0  0  0  0  0  0
  -22.4281   -8.0287   21.3544 C   0  0  0  0  0  0
  -21.9923   -9.0264   20.4647 C   0  0  0  0  0  0
  -22.7256  -10.2140   20.3060 C   0  0  0  0  0  0
  -21.6853   -6.0741   22.5277 C   0  0  0  0  0  0
  -21.4014   -6.5643   23.8212 C   0  0  0  0  0  0
  -21.3658   -5.6796   24.9173 C   0  0  0  0  0  0
  -21.6044   -4.3057   24.7223 C   0  0  0  0  0  0
  -21.8819   -3.8152   23.4343 C   0  0  0  0  0  0
  -21.9193   -4.6970   22.3399 C   0  0  0  0  0  0
  -22.7829  -13.5227   21.1869 C   0  0  0  0  0  0
  -22.1662   -4.2154   21.0977 F   0  0  0  0  0  0
  -21.5628   -3.4542   25.7736 F   0  0  0  0  0  0
  -29.9945  -13.4868   20.3835 N   0  0  0  0  0  0
  -26.2946  -12.9422   20.3304 N   0  0  0  0  0  0
  -25.9334  -11.6560   20.5775 N   0  0  0  0  0  0
  -22.0469  -12.8211   22.0412 N   0  0  0  0  0  0
  -25.4198  -15.1928   20.4099 N   0  0  0  0  0  0
  -31.9045  -14.6400   20.1776 O   0  0  0  0  0  0
  -21.6642   -6.8888   21.4241 O   0  0  0  0  0  0
  -22.3516  -14.5532   20.6714 O   0  0  0  0  0  0
  -24.6283  -31.8604   23.2053 C   0  0  0  0  0  0
  -25.9131  -32.4781   23.8367 C   0  0  1  0  0  0
  -27.2084  -27.3028   20.1118 C   0  0  0  0  0  0
  -25.5947  -33.8581   24.2291 N   0  0  0  0  0  0
  -23.4202  -30.4882   21.5497 C   0  0  2  0  0  0
  -24.8641  -28.9526   20.1082 C   0  0  0  0  0  0
  -22.7478  -29.4633   22.4947 C   0  0  0  0  0  0
  -18.0282  -28.1388   22.8488 C   0  0  0  0  0  0
  -24.1488  -36.7288   23.2635 C   0  0  0  0  0  0
  -25.9652  -30.7871   21.3793 C   0  0  0  0  0  0
  -26.0370  -29.4154   20.7184 C   0  0  0  0  0  0
  -27.2129  -28.6018   20.7148 C   0  0  0  0  0  0
  -26.0123  -26.9165   19.4568 C   0  0  0  0  0  0
  -24.8554  -27.7094   19.4677 C   0  0  0  0  0  0
  -23.6332  -29.8318   20.1624 C   0  0  0  0  0  0
  -25.4112  -36.3081   24.0327 C   0  0  1  0  0  0
  -20.5884  -28.3692   23.1285 C   0  0  2  0  0  0
  -20.6776  -26.9416   22.5405 C   0  0  0  0  0  0
  -19.5748  -26.6387   21.5210 C   0  0  0  0  0  0
  -18.1927  -26.7933   22.1621 C   0  0  0  0  0  0
  -19.1535  -28.8857   23.2880 C   0  0  0  0  0  0
  -18.9458  -30.1461   23.8895 C   0  0  0  0  0  0
  -17.6459  -30.6591   24.0561 C   0  0  0  0  0  0
  -25.9054  -34.9452   23.5104 C   0  0  0  0  0  0
  -16.5350  -29.9087   23.6338 C   0  0  0  0  0  0
  -16.7269  -28.6504   23.0360 C   0  0  0  0  0  0
  -26.4515  -31.6587   25.0734 C   0  0  0  0  0  0
  -25.3743  -31.3709   26.1452 C   0  0  0  0  0  0
  -27.0367  -30.3017   24.6185 C   0  0  0  0  0  0
  -27.6072  -32.4321   25.7506 C   0  0  0  0  0  0
  -27.5580  -37.1795   24.8460 C   0  0  0  0  0  0
  -21.4189  -29.3049   22.3687 N   0  0  0  0  0  0
  -26.4284  -37.3781   23.9416 N   0  0  0  0  0  0
  -24.6905  -31.0612   22.1015 N   0  0  0  0  0  0
  -23.4199  -28.8156   23.3013 O   0  0  0  0  0  0
  -28.2907  -26.4001   20.1841 O   0  0  0  0  0  0
  -26.5611  -34.8918   22.4663 O   0  0  0  0  0  0
  -23.5447  -32.1407   23.7380 O   0  0  0  0  0  0
  -30.9119  -19.5777   20.6341 C   0  0  0  0  0  0
  -30.4384  -20.9156   20.5055 C   0  0  0  0  0  0
  -28.6667  -18.7416   20.8252 C   0  0  0  0  0  0
  -30.0539  -18.4467   20.7953 C   0  0  0  0  0  0
  -29.0547  -21.2072   20.5316 C   0  0  0  0  0  0
  -28.1858  -20.0856   20.6992 C   0  0  0  0  0  0
  -30.6802  -17.0480   21.0287 C   0  0  0  0  0  0
  -28.9592  -23.8224   20.3598 C   0  0  0  0  0  0
  -27.9494  -24.9671   19.9492 C   0  0  0  0  0  0
  -26.8108  -20.3108   20.7607 N   0  0  0  0  0  0
  -28.4730  -22.5365   20.3312 N   0  0  0  0  0  0
  -30.0624  -15.8482   20.7382 N   0  0  0  0  0  0
  -31.8309  -17.0718   21.4844 O   0  0  0  0  0  0
  -30.1178  -24.0989   20.6824 O   0  0  0  0  0  0
  -31.4556  -12.4883   19.1473 H   0  0  0  0  0  0
  -30.3200  -11.4362   19.9386 H   0  0  0  0  0  0
  -29.7637  -11.7279   17.4946 H   0  0  0  0  0  0
  -29.6328  -13.4553   17.7204 H   0  0  0  0  0  0
  -27.8764  -11.2837   18.9075 H   0  0  0  0  0  0
  -27.3626  -12.5269   17.7986 H   0  0  0  0  0  0
  -27.6355  -14.2551   19.4666 H   0  0  0  0  0  0
  -28.7114  -12.1848   21.4402 H   0  0  0  0  0  0
  -28.4441  -13.8788   21.7747 H   0  0  0  0  0  0
  -25.2769   -9.5681   22.4772 H   0  0  0  0  0  0
  -24.0002   -7.4638   22.7480 H   0  0  0  0  0  0
  -21.0856   -8.8789   19.8950 H   0  0  0  0  0  0
  -22.3722  -10.9683   19.6171 H   0  0  0  0  0  0
  -21.2005   -7.6151   23.9715 H   0  0  0  0  0  0
  -21.1481   -6.0526   25.9075 H   0  0  0  0  0  0
  -22.0599   -2.7615   23.2841 H   0  0  0  0  0  0
  -22.4082  -11.9866   22.4790 H   0  0  0  0  0  0
  -21.1083  -13.1233   22.2608 H   0  0  0  0  0  0
  -24.6484  -15.8437   20.5107 H   0  0  0  0  0  0
  -26.2586  -15.6284   20.0494 H   0  0  0  0  0  0
  -26.7196  -32.5447   23.1111 H   0  0  0  0  0  0
  -25.0109  -33.9727   25.0449 H   0  0  0  0  0  0
  -22.7141  -31.3097   21.4114 H   0  0  0  0  0  0
  -23.3757  -35.9611   23.3279 H   0  0  0  0  0  0
  -24.3584  -36.8930   22.2053 H   0  0  0  0  0  0
  -23.7233  -37.6481   23.6670 H   0  0  0  0  0  0
  -26.0972  -31.5512   20.6117 H   0  0  0  0  0  0
  -26.8462  -30.8354   22.0074 H   0  0  0  0  0  0
  -28.1074  -28.9480   21.2138 H   0  0  0  0  0  0
  -25.9197  -25.9770   18.9347 H   0  0  0  0  0  0
  -23.9602  -27.3534   18.9768 H   0  0  0  0  0  0
  -23.7496  -30.6116   19.4091 H   0  0  0  0  0  0
  -22.7527  -29.2619   19.8596 H   0  0  0  0  0  0
  -25.1292  -36.1924   25.0818 H   0  0  0  0  0  0
  -20.9969  -28.3258   24.1409 H   0  0  0  0  0  0
  -20.5690  -26.2293   23.3599 H   0  0  0  0  0  0
  -21.6646  -26.7457   22.1190 H   0  0  0  0  0  0
  -19.6912  -25.6297   21.1240 H   0  0  0  0  0  0
  -19.6689  -27.3197   20.6740 H   0  0  0  0  0  0
  -17.4198  -26.6684   21.4021 H   0  0  0  0  0  0
  -18.0327  -26.0070   22.9014 H   0  0  0  0  0  0
  -19.7932  -30.7280   24.2263 H   0  0  0  0  0  0
  -17.5011  -31.6276   24.5156 H   0  0  0  0  0  0
  -15.5352  -30.2988   23.7670 H   0  0  0  0  0  0
  -15.8664  -28.0821   22.7090 H   0  0  0  0  0  0
  -24.5939  -30.7035   25.7774 H   0  0  0  0  0  0
  -24.8906  -32.2862   26.4870 H   0  0  0  0  0  0
  -25.8071  -30.8896   27.0229 H   0  0  0  0  0  0
  -26.2948  -29.6753   24.1217 H   0  0  0  0  0  0
  -27.4087  -29.7285   25.4687 H   0  0  0  0  0  0
  -27.8805  -30.4315   23.9401 H   0  0  0  0  0  0
  -27.2699  -33.3638   26.2055 H   0  0  0  0  0  0
  -28.3904  -32.6845   25.0345 H   0  0  0  0  0  0
  -28.0709  -31.8452   26.5445 H   0  0  0  0  0  0
  -28.2573  -38.0118   24.7552 H   0  0  0  0  0  0
  -28.1106  -36.2654   24.6233 H   0  0  0  0  0  0
  -27.2301  -37.1377   25.8861 H   0  0  0  0  0  0
  -20.9363  -29.8782   21.6910 H   0  0  0  0  0  0
  -26.0159  -38.2846   24.1444 H   0  0  0  0  0  0
  -31.9827  -19.4263   20.6157 H   0  0  0  0  0  0
  -31.1562  -21.7129   20.3747 H   0  0  0  0  0  0
  -27.9677  -17.9303   20.9697 H   0  0  0  0  0  0
  -27.0230  -24.7285   20.4750 H   0  0  0  0  0  0
  -27.7672  -24.8304   18.8825 H   0  0  0  0  0  0
  -26.2478  -19.5366   21.0966 H   0  0  0  0  0  0
  -26.5211  -21.1767   21.2007 H   0  0  0  0  0  0
  -27.4907  -22.4852   20.0995 H   0  0  0  0  0  0
  -29.0631  -15.8588   20.6316 H   0  0  0  0  0  0
  1 25  1  0  0  0
  1 30  2  0  0  0
  1 82  1  0  0  0
  2  3  1  0  0  0
  2 25  1  0  0  0
  2 85  1  0  0  0
  2 86  1  0  0  0
  3  4  1  0  0  0
  3 87  1  0  0  0
  3 88  1  0  0  0
  4  5  1  0  0  0
  4 89  1  0  0  0
  4 90  1  0  0  0
  5  6  1  0  0  0
  5 26  1  0  0  0
  5 91  1  0  0  0
  6 25  1  0  0  0
  6 92  1  0  0  0
  6 93  1  0  0  0
  7  8  2  0  0  0
  7 26  1  0  0  0
  7 29  1  0  0  0
  8  9  1  0  0  0
  8 22  1  0  0  0
  9 10  1  0  0  0
  9 27  2  0  0  0
 10 11  2  0  0  0
 10 15  1  0  0  0
 11 12  1  0  0  0
 11 94  1  0  0  0
 12 13  2  0  0  0
 12 95  1  0  0  0
 13 14  1  0  0  0
 13 31  1  0  0  0
 14 15  2  0  0  0
 14 96  1  0  0  0
 15 97  1  0  0  0
 16 17  2  0  0  0
 16 21  1  0  0  0
 16 31  1  0  0  0
 17 18  1  0  0  0
 17 98  1  0  0  0
 18 19  2  0  0  0
 18 99  1  0  0  0
 19 20  1  0  0  0
 19 24  1  0  0  0
 20 21  2  0  0  0
 20100  1  0  0  0
 21 23  1  0  0  0
 22 28  1  0  0  0
 22 32  2  0  0  0
 26 27  1  0  0  0
 28101  1  0  0  0
 28102  1  0  0  0
 29103  1  0  0  0
 29104  1  0  0  0
 33 34  1  0  0  0
 33 66  1  0  0  0
 33 70  2  0  0  0
 34 36  1  0  0  0
 34 59  1  0  0  0
 34105  1  0  0  0
 35 44  2  0  0  0
 35 45  1  0  0  0
 35 68  1  0  0  0
 36 56  1  0  0  0
 36106  1  0  0  0
 37 39  1  0  0  0
 37 47  1  0  0  0
 37 66  1  0  0  0
 37107  1  0  0  0
 38 43  2  0  0  0
 38 46  1  0  0  0
 38 47  1  0  0  0
 39 64  1  0  0  0
 39 67  2  0  0  0
 40 52  1  0  0  0
 40 53  2  0  0  0
 40 58  1  0  0  0
 41108  1  0  0  0
 41109  1  0  0  0
 41110  1  0  0  0
 41 48  1  0  0  0
 42 43  1  0  0  0
 42 66  1  0  0  0
 42111  1  0  0  0
 42112  1  0  0  0
 43 44  1  0  0  0
 44113  1  0  0  0
 45 46  2  0  0  0
 45114  1  0  0  0
 46115  1  0  0  0
 47116  1  0  0  0
 47117  1  0  0  0
 48 56  1  0  0  0
 48 65  1  0  0  0
 48118  1  0  0  0
 49 50  1  0  0  0
 49 53  1  0  0  0
 49 64  1  0  0  0
 49119  1  0  0  0
 50 51  1  0  0  0
 50120  1  0  0  0
 50121  1  0  0  0
 51 52  1  0  0  0
 51122  1  0  0  0
 51123  1  0  0  0
 52124  1  0  0  0
 52125  1  0  0  0
 53 54  1  0  0  0
 54 55  2  0  0  0
 54126  1  0  0  0
 55 57  1  0  0  0
 55127  1  0  0  0
 56 69  2  0  0  0
 57 58  2  0  0  0
 57128  1  0  0  0
 58129  1  0  0  0
 59 60  1  0  0  0
 59 61  1  0  0  0
 59 62  1  0  0  0
 60130  1  0  0  0
 60131  1  0  0  0
 60132  1  0  0  0
 61133  1  0  0  0
 61134  1  0  0  0
 61135  1  0  0  0
 62136  1  0  0  0
 62137  1  0  0  0
 62138  1  0  0  0
 63 65  1  0  0  0
 63139  1  0  0  0
 63140  1  0  0  0
 63141  1  0  0  0
 64142  1  0  0  0
 65143  1  0  0  0
 68 79  1  0  0  0
 71 72  2  0  0  0
 71 74  1  0  0  0
 71144  1  0  0  0
 72 75  1  0  0  0
 72145  1  0  0  0
 73 74  2  0  0  0
 73 76  1  0  0  0
 73146  1  0  0  0
 74 77  1  0  0  0
 75 76  2  0  0  0
 75 81  1  0  0  0
 76 80  1  0  0  0
 77 82  1  0  0  0
 77 83  2  0  0  0
 78 79  1  0  0  0
 78 81  1  0  0  0
 78 84  2  0  0  0
 79147  1  0  0  0
 79148  1  0  0  0
 80149  1  0  0  0
 80150  1  0  0  0
 81151  1  0  0  0
 82152  1  0  0  0
M  ISO  4   1 100  68 101  79 101  82 100
M  END
> <chiral flag>
0

> <version>
0

> <s_m_source_file>
/data/baiqing/PycharmProjects/Reinvent-master-3.2/result/LINK_invent/BTK/process_docking_weight1_custom_product_contain_oxygen_bond_distance_aromatic_linkinvent_7_9_3/rearranged_h_0091.sdf

> <i_m_source_file_index>
22

> <r_mmod_Potential_Energy-OPLS-2005>
-94.3634033203125

> <r_mmod_Stretch_Energy-OPLS-2005>
85.0827026367188

> <r_mmod_Bend_Energy-OPLS-2005>
160.320205688477

> <r_mmod_Torsional_Energy-OPLS-2005>
240.028686523438

> <r_mmod_Improper_Torsional_Energy-OPLS-2005>
10.4859418869019

> <r_mmod_Van_der_Waal_Energy-OPLS-2005>
165.871932983398

> <r_mmod_Electrostatic_Energy-OPLS-2005>
-550.525451660156

> <r_mmod_Solvation_Energy-OPLS-2005>
-270.326599121094

> <b_mmod_Minimization_Converged-OPLS-2005>
0

> <r_mmod_RMS_Derivative-OPLS-2005>
0.7093545794487

$$$$
22
                    3D
 Structure written by MMmdl.
155164  0  0  1  0            999 V2000
  -30.6037  -14.6933   20.4730 C   0  0  0  0  0  0
  -30.4452  -12.4214   19.4556 C   0  0  0  0  0  0
  -29.5101  -12.5100   18.2272 C   0  0  0  0  0  0
  -28.0346  -12.3427   18.6432 C   0  0  0  0  0  0
  -27.6527  -13.2221   19.8637 C   0  0  2  0  0  0
  -28.7026  -13.0963   20.9908 C   0  0  0  0  0  0
  -25.2551  -13.8179   20.5690 C   0  0  0  0  0  0
  -24.1812  -13.0423   20.9141 C   0  0  0  0  0  0
  -24.6401  -11.6905   20.8717 C   0  0  0  0  0  0
  -23.9076  -10.4286   21.0392 C   0  0  0  0  0  0
  -24.3624   -9.4210   21.9179 C   0  0  0  0  0  0
  -23.6298   -8.2248   22.0754 C   0  0  0  0  0  0
  -22.4281   -8.0278   21.3547 C   0  0  0  0  0  0
  -21.9913   -9.0253   20.4646 C   0  0  0  0  0  0
  -22.7245  -10.2132   20.3047 C   0  0  0  0  0  0
  -21.6855   -6.0739   22.5283 C   0  0  0  0  0  0
  -21.4013   -6.5641   23.8217 C   0  0  0  0  0  0
  -21.3660   -5.6793   24.9178 C   0  0  0  0  0  0
  -21.6045   -4.3055   24.7227 C   0  0  0  0  0  0
  -21.8820   -3.8150   23.4345 C   0  0  0  0  0  0
  -21.9194   -4.6968   22.3404 C   0  0  0  0  0  0
  -22.7835  -13.5213   21.1840 C   0  0  0  0  0  0
  -22.1666   -4.2151   21.0984 F   0  0  0  0  0  0
  -21.5624   -3.4539   25.7741 F   0  0  0  0  0  0
  -30.0123  -13.4523   20.4212 N   0  0  0  0  0  0
  -26.3003  -12.9379   20.3363 N   0  0  0  0  0  0
  -25.9344  -11.6522   20.5774 N   0  0  0  0  0  0
  -22.0492  -12.8197   22.0402 N   0  0  0  0  0  0
  -25.4202  -15.1910   20.4215 N   0  0  0  0  0  0
  -31.7714  -14.8583   20.1092 O   0  0  0  0  0  0
  -21.6640   -6.8880   21.4245 O   0  0  0  0  0  0
  -22.3510  -14.5532   20.6717 O   0  0  0  0  0  0
  -24.6289  -31.8574   23.2004 C   0  0  0  0  0  0
  -25.9125  -32.4769   23.8342 C   0  0  1  0  0  0
  -27.2288  -27.2891   20.1215 C   0  0  0  0  0  0
  -25.5932  -33.8575   24.2270 N   0  0  0  0  0  0
  -23.4234  -30.4815   21.5433 C   0  0  2  0  0  0
  -24.8721  -28.9323   20.1105 C   0  0  0  0  0  0
  -22.7487  -29.4631   22.4934 C   0  0  0  0  0  0
  -18.0296  -28.1381   22.8497 C   0  0  0  0  0  0
  -24.1485  -36.7287   23.2636 C   0  0  0  0  0  0
  -25.9679  -30.7785   21.3773 C   0  0  0  0  0  0
  -26.0420  -29.4041   20.7181 C   0  0  0  0  0  0
  -27.2201  -28.5940   20.7156 C   0  0  0  0  0  0
  -26.0359  -26.8871   19.4752 C   0  0  0  0  0  0
  -24.8737  -27.6800   19.4808 C   0  0  0  0  0  0
  -23.6401  -29.8137   20.1595 C   0  0  0  0  0  0
  -25.4114  -36.3084   24.0331 C   0  0  1  0  0  0
  -20.5900  -28.3706   23.1269 C   0  0  2  0  0  0
  -20.6779  -26.9423   22.5409 C   0  0  0  0  0  0
  -19.5757  -26.6387   21.5212 C   0  0  0  0  0  0
  -18.1943  -26.7925   22.1627 C   0  0  0  0  0  0
  -19.1550  -28.8864   23.2874 C   0  0  0  0  0  0
  -18.9466  -30.1461   23.8896 C   0  0  0  0  0  0
  -17.6467  -30.6586   24.0571 C   0  0  0  0  0  0
  -25.9066  -34.9452   23.5108 C   0  0  0  0  0  0
  -16.5364  -29.9089   23.6326 C   0  0  0  0  0  0
  -16.7281  -28.6500   23.0358 C   0  0  0  0  0  0
  -26.4491  -31.6584   25.0720 C   0  0  0  0  0  0
  -25.3724  -31.3733   26.1448 C   0  0  0  0  0  0
  -27.0354  -30.3008   24.6198 C   0  0  0  0  0  0
  -27.6053  -32.4323   25.7497 C   0  0  0  0  0  0
  -27.5583  -37.1801   24.8471 C   0  0  0  0  0  0
  -21.4200  -29.3041   22.3651 N   0  0  0  0  0  0
  -26.4294  -37.3776   23.9413 N   0  0  0  0  0  0
  -24.6912  -31.0572   22.0961 N   0  0  0  0  0  0
  -23.4199  -28.8179   23.3031 O   0  0  0  0  0  0
  -28.3358  -26.4123   20.1908 O   0  0  0  0  0  0
  -26.5624  -34.8913   22.4672 O   0  0  0  0  0  0
  -23.5450  -32.1401   23.7296 O   0  0  0  0  0  0
  -28.5397  -19.3278   21.0579 C   0  0  0  0  0  0
  -30.7816  -18.0281   20.0663 C   0  0  0  0  0  0
  -29.5061  -20.1998   20.4704 C   0  0  0  0  0  0
  -28.6618  -17.9075   21.1545 C   0  0  0  0  0  0
  -30.6384  -19.4611   19.9718 C   0  0  0  0  0  0
  -29.7903  -17.2031   20.6662 C   0  0  0  0  0  0
  -29.6976  -22.7273   19.5626 C   0  0  0  0  0  0
  -28.5023  -22.5624   21.1847 C   0  0  0  0  0  0
  -29.1420  -23.8326   20.5292 C   0  0  0  0  0  0
  -28.1224  -24.9417   19.9687 C   0  0  0  0  0  0
  -29.3173  -21.6778   20.4382 N   0  0  0  0  0  0
  -27.6350  -17.1776   21.7569 N   0  0  0  0  0  0
  -31.6825  -20.1654   19.3713 N   0  0  0  0  0  0
  -29.7671  -15.7345   20.7943 N   0  0  0  0  0  0
  -30.2627  -22.7034   18.4866 O   0  0  0  0  0  0
  -27.6493  -22.3476   22.0239 O   0  0  0  0  0  0
  -31.4841  -12.5574   19.1489 H   0  0  0  0  0  0
  -30.3945  -11.4308   19.9104 H   0  0  0  0  0  0
  -29.7801  -11.7490   17.4934 H   0  0  0  0  0  0
  -29.6434  -13.4727   17.7317 H   0  0  0  0  0  0
  -27.8785  -11.2911   18.8839 H   0  0  0  0  0  0
  -27.3775  -12.5617   17.7998 H   0  0  0  0  0  0
  -27.6616  -14.2550   19.5121 H   0  0  0  0  0  0
  -28.7251  -12.0787   21.3825 H   0  0  0  0  0  0
  -28.4431  -13.7340   21.8374 H   0  0  0  0  0  0
  -25.2766   -9.5687   22.4751 H   0  0  0  0  0  0
  -24.0008   -7.4639   22.7466 H   0  0  0  0  0  0
  -21.0844   -8.8775   19.8944 H   0  0  0  0  0  0
  -22.3708  -10.9670   19.6151 H   0  0  0  0  0  0
  -21.2008   -7.6147   23.9723 H   0  0  0  0  0  0
  -21.1479   -6.0521   25.9083 H   0  0  0  0  0  0
  -22.0598   -2.7609   23.2850 H   0  0  0  0  0  0
  -22.4114  -11.9859   22.4775 H   0  0  0  0  0  0
  -21.1117  -13.1223   22.2627 H   0  0  0  0  0  0
  -24.6596  -15.8346   20.6047 H   0  0  0  0  0  0
  -26.3147  -15.6667   20.3557 H   0  0  0  0  0  0
  -26.7202  -32.5425   23.1080 H   0  0  0  0  0  0
  -25.0077  -33.9719   25.0417 H   0  0  0  0  0  0
  -22.7168  -31.3015   21.3971 H   0  0  0  0  0  0
  -23.3754  -35.9619   23.3308 H   0  0  0  0  0  0
  -24.3571  -36.8899   22.2052 H   0  0  0  0  0  0
  -23.7237  -37.6483   23.6656 H   0  0  0  0  0  0
  -26.1080  -31.5399   20.6088 H   0  0  0  0  0  0
  -26.8449  -30.8260   22.0127 H   0  0  0  0  0  0
  -28.1137  -28.9500   21.2081 H   0  0  0  0  0  0
  -25.9716  -25.9364   18.9668 H   0  0  0  0  0  0
  -23.9813  -27.3124   18.9940 H   0  0  0  0  0  0
  -23.7615  -30.5893   19.4026 H   0  0  0  0  0  0
  -22.7608  -29.2452   19.8560 H   0  0  0  0  0  0
  -25.1291  -36.1933   25.0827 H   0  0  0  0  0  0
  -21.0007  -28.3289   24.1382 H   0  0  0  0  0  0
  -20.5679  -26.2320   23.3609 H   0  0  0  0  0  0
  -21.6643  -26.7436   22.1208 H   0  0  0  0  0  0
  -19.6911  -25.6300   21.1241 H   0  0  0  0  0  0
  -19.6684  -27.3186   20.6738 H   0  0  0  0  0  0
  -17.4207  -26.6679   21.4033 H   0  0  0  0  0  0
  -18.0336  -26.0056   22.9007 H   0  0  0  0  0  0
  -19.7948  -30.7276   24.2257 H   0  0  0  0  0  0
  -17.5027  -31.6260   24.5173 H   0  0  0  0  0  0
  -15.5368  -30.2993   23.7642 H   0  0  0  0  0  0
  -15.8676  -28.0811   22.7086 H   0  0  0  0  0  0
  -24.5886  -30.7091   25.7776 H   0  0  0  0  0  0
  -24.8928  -32.2914   26.4865 H   0  0  0  0  0  0
  -25.8049  -30.8910   27.0229 H   0  0  0  0  0  0
  -26.2949  -29.6736   24.1210 H   0  0  0  0  0  0
  -27.4033  -29.7271   25.4712 H   0  0  0  0  0  0
  -27.8819  -30.4278   23.9450 H   0  0  0  0  0  0
  -27.2651  -33.3618   26.2067 H   0  0  0  0  0  0
  -28.3862  -32.6887   25.0333 H   0  0  0  0  0  0
  -28.0709  -31.8450   26.5414 H   0  0  0  0  0  0
  -28.2605  -38.0087   24.7515 H   0  0  0  0  0  0
  -28.1070  -36.2627   24.6305 H   0  0  0  0  0  0
  -27.2304  -37.1463   25.8869 H   0  0  0  0  0  0
  -20.9377  -29.8779   21.6865 H   0  0  0  0  0  0
  -26.0175  -38.2857   24.1393 H   0  0  0  0  0  0
  -27.6436  -19.7752   21.4598 H   0  0  0  0  0  0
  -31.6679  -17.5565   19.6654 H   0  0  0  0  0  0
  -29.9193  -24.2717   21.1539 H   0  0  0  0  0  0
  -27.1437  -24.6981   20.3832 H   0  0  0  0  0  0
  -28.0156  -24.8085   18.8916 H   0  0  0  0  0  0
  -26.9029  -17.7275   22.1934 H   0  0  0  0  0  0
  -27.9348  -16.4458   22.3896 H   0  0  0  0  0  0
  -32.3318  -19.6391   18.7945 H   0  0  0  0  0  0
  -31.4457  -21.0609   18.9489 H   0  0  0  0  0  0
  -28.8591  -15.4131   21.0913 H   0  0  0  0  0  0
  1 25  1  0  0  0
  1 30  2  0  0  0
  1 84  1  0  0  0
  2  3  1  0  0  0
  2 25  1  0  0  0
  2 87  1  0  0  0
  2 88  1  0  0  0
  3  4  1  0  0  0
  3 89  1  0  0  0
  3 90  1  0  0  0
  4  5  1  0  0  0
  4 91  1  0  0  0
  4 92  1  0  0  0
  5  6  1  0  0  0
  5 26  1  0  0  0
  5 93  1  0  0  0
  6 25  1  0  0  0
  6 94  1  0  0  0
  6 95  1  0  0  0
  7  8  2  0  0  0
  7 26  1  0  0  0
  7 29  1  0  0  0
  8  9  1  0  0  0
  8 22  1  0  0  0
  9 10  1  0  0  0
  9 27  2  0  0  0
 10 11  2  0  0  0
 10 15  1  0  0  0
 11 12  1  0  0  0
 11 96  1  0  0  0
 12 13  2  0  0  0
 12 97  1  0  0  0
 13 14  1  0  0  0
 13 31  1  0  0  0
 14 15  2  0  0  0
 14 98  1  0  0  0
 15 99  1  0  0  0
 16 17  2  0  0  0
 16 21  1  0  0  0
 16 31  1  0  0  0
 17 18  1  0  0  0
 17100  1  0  0  0
 18 19  2  0  0  0
 18101  1  0  0  0
 19 20  1  0  0  0
 19 24  1  0  0  0
 20 21  2  0  0  0
 20102  1  0  0  0
 21 23  1  0  0  0
 22 28  1  0  0  0
 22 32  2  0  0  0
 26 27  1  0  0  0
 28103  1  0  0  0
 28104  1  0  0  0
 29105  1  0  0  0
 29106  1  0  0  0
 33 34  1  0  0  0
 33 66  1  0  0  0
 33 70  2  0  0  0
 34 36  1  0  0  0
 34 59  1  0  0  0
 34107  1  0  0  0
 35 44  2  0  0  0
 35 45  1  0  0  0
 35 68  1  0  0  0
 36 56  1  0  0  0
 36108  1  0  0  0
 37 39  1  0  0  0
 37 47  1  0  0  0
 37 66  1  0  0  0
 37109  1  0  0  0
 38 43  2  0  0  0
 38 46  1  0  0  0
 38 47  1  0  0  0
 39 64  1  0  0  0
 39 67  2  0  0  0
 40 52  1  0  0  0
 40 53  2  0  0  0
 40 58  1  0  0  0
 41110  1  0  0  0
 41111  1  0  0  0
 41112  1  0  0  0
 41 48  1  0  0  0
 42 43  1  0  0  0
 42 66  1  0  0  0
 42113  1  0  0  0
 42114  1  0  0  0
 43 44  1  0  0  0
 44115  1  0  0  0
 45 46  2  0  0  0
 45116  1  0  0  0
 46117  1  0  0  0
 47118  1  0  0  0
 47119  1  0  0  0
 48 56  1  0  0  0
 48 65  1  0  0  0
 48120  1  0  0  0
 49 50  1  0  0  0
 49 53  1  0  0  0
 49 64  1  0  0  0
 49121  1  0  0  0
 50 51  1  0  0  0
 50122  1  0  0  0
 50123  1  0  0  0
 51 52  1  0  0  0
 51124  1  0  0  0
 51125  1  0  0  0
 52126  1  0  0  0
 52127  1  0  0  0
 53 54  1  0  0  0
 54 55  2  0  0  0
 54128  1  0  0  0
 55 57  1  0  0  0
 55129  1  0  0  0
 56 69  2  0  0  0
 57 58  2  0  0  0
 57130  1  0  0  0
 58131  1  0  0  0
 59 60  1  0  0  0
 59 61  1  0  0  0
 59 62  1  0  0  0
 60132  1  0  0  0
 60133  1  0  0  0
 60134  1  0  0  0
 61135  1  0  0  0
 61136  1  0  0  0
 61137  1  0  0  0
 62138  1  0  0  0
 62139  1  0  0  0
 62140  1  0  0  0
 63 65  1  0  0  0
 63141  1  0  0  0
 63142  1  0  0  0
 63143  1  0  0  0
 64144  1  0  0  0
 65145  1  0  0  0
 68 80  1  0  0  0
 71 73  2  0  0  0
 71 74  1  0  0  0
 71146  1  0  0  0
 72 75  2  0  0  0
 72 76  1  0  0  0
 72147  1  0  0  0
 73 75  1  0  0  0
 73 81  1  0  0  0
 74 76  2  0  0  0
 74 82  1  0  0  0
 75 83  1  0  0  0
 76 84  1  0  0  0
 77 79  1  0  0  0
 77 81  1  0  0  0
 77 85  2  0  0  0
 78 79  1  0  0  0
 78 81  1  0  0  0
 78 86  2  0  0  0
 79 80  1  0  0  0
 79148  1  0  0  0
 80149  1  0  0  0
 80150  1  0  0  0
 82151  1  0  0  0
 82152  1  0  0  0
 83153  1  0  0  0
 83154  1  0  0  0
 84155  1  0  0  0
M  ISO  4   1 100  68 101  80 101  84 100
M  END
> <chiral flag>
0

> <version>
0

> <s_m_source_file>
/data/baiqing/PycharmProjects/Reinvent-master-3.2/result/LINK_invent/BTK/process_docking_weight1_custom_product_contain_oxygen_bond_distance_aromatic_linkinvent_7_9_3/rearranged_h_0091.sdf

> <i_m_source_file_index>
23

> <r_mmod_Potential_Energy-OPLS-2005>
-151.942611694336

> <r_mmod_Stretch_Energy-OPLS-2005>
99.7694320678711

> <r_mmod_Bend_Energy-OPLS-2005>
180.021759033203

> <r_mmod_Torsional_Energy-OPLS-2005>
220.541168212891

> <r_mmod_Improper_Torsional_Energy-OPLS-2005>
13.4941997528076

> <r_mmod_Van_der_Waal_Energy-OPLS-2005>
146.427795410156

> <r_mmod_Electrostatic_Energy-OPLS-2005>
-641.409851074219

> <r_mmod_Solvation_Energy-OPLS-2005>
-236.982086181641

> <b_mmod_Minimization_Converged-OPLS-2005>
0

> <r_mmod_RMS_Derivative-OPLS-2005>
2.69255018234253

$$$$
23
                    3D
 Structure written by MMmdl.
156165  0  0  1  0            999 V2000
  -30.6322  -14.7100   20.4806 C   0  0  0  0  0  0
  -30.4552  -12.4357   19.4714 C   0  0  0  0  0  0
  -29.5210  -12.5099   18.2400 C   0  0  0  0  0  0
  -28.0461  -12.3308   18.6544 C   0  0  0  0  0  0
  -27.6594  -13.2142   19.8714 C   0  0  2  0  0  0
  -28.7099  -13.0483   20.9902 C   0  0  0  0  0  0
  -25.2584  -13.8144   20.5687 C   0  0  0  0  0  0
  -24.1833  -13.0420   20.9163 C   0  0  0  0  0  0
  -24.6399  -11.6903   20.8721 C   0  0  0  0  0  0
  -23.9054  -10.4297   21.0389 C   0  0  0  0  0  0
  -24.3607   -9.4219   21.9179 C   0  0  0  0  0  0
  -23.6268   -8.2254   22.0754 C   0  0  0  0  0  0
  -22.4266   -8.0272   21.3546 C   0  0  0  0  0  0
  -21.9906   -9.0245   20.4647 C   0  0  0  0  0  0
  -22.7222  -10.2125   20.3044 C   0  0  0  0  0  0
  -21.6841   -6.0715   22.5278 C   0  0  0  0  0  0
  -21.4002   -6.5626   23.8208 C   0  0  0  0  0  0
  -21.3655   -5.6797   24.9181 C   0  0  0  0  0  0
  -21.6063   -4.3067   24.7226 C   0  0  0  0  0  0
  -21.8819   -3.8139   23.4345 C   0  0  0  0  0  0
  -21.9189   -4.6959   22.3399 C   0  0  0  0  0  0
  -22.7872  -13.5228   21.1806 C   0  0  0  0  0  0
  -22.1664   -4.2133   21.0980 F   0  0  0  0  0  0
  -21.5635   -3.4537   25.7743 F   0  0  0  0  0  0
  -30.0150  -13.4678   20.4395 N   0  0  0  0  0  0
  -26.3033  -12.9317   20.3375 N   0  0  0  0  0  0
  -25.9338  -11.6496   20.5781 N   0  0  0  0  0  0
  -22.0513  -12.8211   22.0373 N   0  0  0  0  0  0
  -25.4286  -15.1841   20.4099 N   0  0  0  0  0  0
  -31.7802  -14.8454   20.0386 O   0  0  0  0  0  0
  -21.6632   -6.8849   21.4244 O   0  0  0  0  0  0
  -22.3579  -14.5541   20.6666 O   0  0  0  0  0  0
  -24.6253  -31.8610   23.2040 C   0  0  0  0  0  0
  -25.9109  -32.4791   23.8350 C   0  0  1  0  0  0
  -27.2303  -27.3531   20.0781 C   0  0  0  0  0  0
  -25.5927  -33.8558   24.2299 N   0  0  0  0  0  0
  -23.4146  -30.4844   21.5495 C   0  0  2  0  0  0
  -24.8548  -28.9334   20.1195 C   0  0  0  0  0  0
  -22.7434  -29.4638   22.5007 C   0  0  0  0  0  0
  -18.0285  -28.1387   22.8497 C   0  0  0  0  0  0
  -24.1451  -36.7276   23.2644 C   0  0  0  0  0  0
  -25.9495  -30.7956   21.3655 C   0  0  0  0  0  0
  -26.0286  -29.4203   20.7129 C   0  0  0  0  0  0
  -27.2219  -28.6456   20.6832 C   0  0  0  0  0  0
  -26.0348  -26.8983   19.4846 C   0  0  0  0  0  0
  -24.8534  -27.6687   19.5092 C   0  0  0  0  0  0
  -23.6206  -29.8150   20.1675 C   0  0  0  0  0  0
  -25.4082  -36.3079   24.0333 C   0  0  1  0  0  0
  -20.5836  -28.3666   23.1305 C   0  0  2  0  0  0
  -20.6746  -26.9409   22.5422 C   0  0  0  0  0  0
  -19.5741  -26.6400   21.5212 C   0  0  0  0  0  0
  -18.1910  -26.7960   22.1600 C   0  0  0  0  0  0
  -19.1526  -28.8862   23.2890 C   0  0  0  0  0  0
  -18.9457  -30.1456   23.8897 C   0  0  0  0  0  0
  -17.6454  -30.6606   24.0565 C   0  0  0  0  0  0
  -25.9048  -34.9441   23.5132 C   0  0  0  0  0  0
  -16.5344  -29.9092   23.6340 C   0  0  0  0  0  0
  -16.7264  -28.6510   23.0382 C   0  0  0  0  0  0
  -26.4516  -31.6585   25.0686 C   0  0  0  0  0  0
  -25.3795  -31.3620   26.1438 C   0  0  0  0  0  0
  -27.0431  -30.3076   24.6101 C   0  0  0  0  0  0
  -27.6097  -32.4341   25.7424 C   0  0  0  0  0  0
  -27.5572  -37.1743   24.8460 C   0  0  0  0  0  0
  -21.4156  -29.3040   22.3721 N   0  0  0  0  0  0
  -26.4254  -37.3807   23.9459 N   0  0  0  0  0  0
  -24.6829  -31.0611   22.0994 N   0  0  0  0  0  0
  -23.4184  -28.8210   23.3117 O   0  0  0  0  0  0
  -28.3538  -26.5214   20.0306 O   0  0  0  0  0  0
  -26.5613  -34.8934   22.4695 O   0  0  0  0  0  0
  -23.5427  -32.1408   23.7403 O   0  0  0  0  0  0
  -29.6449  -17.9304   19.2346 C   0  0  0  0  0  0
  -29.5090  -19.3340   18.9711 C   0  0  0  0  0  0
  -30.4416  -18.4416   21.4411 C   0  0  0  0  0  0
  -29.9933  -23.8985   19.0640 C   0  0  0  0  0  0
  -28.7223  -22.6085   20.3542 C   0  0  0  0  0  0
  -30.0792  -17.4337   20.4999 C   0  0  0  0  0  0
  -28.9275  -23.9433   20.0161 C   0  0  0  0  0  0
  -29.8239  -20.3220   19.9442 C   0  0  0  0  0  0
  -30.3253  -19.8389   21.1813 C   0  0  0  0  0  0
  -30.3895  -22.5902   18.9082 C   0  0  0  0  0  0
  -29.8260  -15.9901   20.9829 C   0  0  0  0  0  0
  -28.1898  -25.1835   20.6177 C   0  0  0  0  0  0
  -28.9089  -15.9242   21.8508 N   0  0  0  0  0  0
  -29.6391  -21.7523   19.7209 N   0  0  0  0  0  0
  -30.6692  -20.7411   22.1962 N   0  0  0  0  0  0
  -31.3897  -22.0863   18.1341 O   0  0  0  0  0  0
  -31.4926  -12.5664   19.1606 H   0  0  0  0  0  0
  -30.4220  -11.4464   19.9281 H   0  0  0  0  0  0
  -29.8021  -11.7446   17.5143 H   0  0  0  0  0  0
  -29.6477  -13.4684   17.7387 H   0  0  0  0  0  0
  -27.9088  -11.2799   18.9092 H   0  0  0  0  0  0
  -27.3836  -12.5237   17.8114 H   0  0  0  0  0  0
  -27.6828  -14.2490   19.5344 H   0  0  0  0  0  0
  -28.7579  -12.0063   21.3108 H   0  0  0  0  0  0
  -28.4215  -13.5717   21.8964 H   0  0  0  0  0  0
  -25.2747   -9.5691   22.4760 H   0  0  0  0  0  0
  -23.9975   -7.4660   22.7495 H   0  0  0  0  0  0
  -21.0837   -8.8766   19.8951 H   0  0  0  0  0  0
  -22.3686  -10.9659   19.6154 H   0  0  0  0  0  0
  -21.1990   -7.6139   23.9692 H   0  0  0  0  0  0
  -21.1482   -6.0529   25.9075 H   0  0  0  0  0  0
  -22.0597   -2.7584   23.2861 H   0  0  0  0  0  0
  -22.4144  -11.9868   22.4723 H   0  0  0  0  0  0
  -21.1147  -13.1260   22.2588 H   0  0  0  0  0  0
  -24.6726  -15.8461   20.5465 H   0  0  0  0  0  0
  -26.3097  -15.6277   20.1844 H   0  0  0  0  0  0
  -26.7154  -32.5463   23.1075 H   0  0  0  0  0  0
  -25.0044  -33.9699   25.0421 H   0  0  0  0  0  0
  -22.7064  -31.3050   21.4149 H   0  0  0  0  0  0
  -23.3747  -35.9574   23.3270 H   0  0  0  0  0  0
  -24.3556  -36.8961   22.2069 H   0  0  0  0  0  0
  -23.7149  -37.6431   23.6713 H   0  0  0  0  0  0
  -26.0711  -31.5493   20.5861 H   0  0  0  0  0  0
  -26.8322  -30.8508   21.9876 H   0  0  0  0  0  0
  -28.1198  -29.0263   21.1510 H   0  0  0  0  0  0
  -26.0060  -25.9324   19.0006 H   0  0  0  0  0  0
  -23.9505  -27.2803   19.0590 H   0  0  0  0  0  0
  -23.7302  -30.5897   19.4086 H   0  0  0  0  0  0
  -22.7374  -29.2402   19.8821 H   0  0  0  0  0  0
  -25.1246  -36.1906   25.0821 H   0  0  0  0  0  0
  -20.9923  -28.3259   24.1422 H   0  0  0  0  0  0
  -20.5638  -26.2281   23.3622 H   0  0  0  0  0  0
  -21.6630  -26.7442   22.1234 H   0  0  0  0  0  0
  -19.6886  -25.6314   21.1240 H   0  0  0  0  0  0
  -19.6687  -27.3207   20.6735 H   0  0  0  0  0  0
  -17.4188  -26.6735   21.3979 H   0  0  0  0  0  0
  -18.0261  -26.0088   22.8973 H   0  0  0  0  0  0
  -19.7947  -30.7283   24.2261 H   0  0  0  0  0  0
  -17.5032  -31.6281   24.5182 H   0  0  0  0  0  0
  -15.5354  -30.2999   23.7702 H   0  0  0  0  0  0
  -15.8645  -28.0833   22.7094 H   0  0  0  0  0  0
  -24.6049  -30.6908   25.7743 H   0  0  0  0  0  0
  -24.8869  -32.2696   26.4900 H   0  0  0  0  0  0
  -25.8163  -30.8786   27.0187 H   0  0  0  0  0  0
  -26.3022  -29.6742   24.1232 H   0  0  0  0  0  0
  -27.4340  -29.7401   25.4545 H   0  0  0  0  0  0
  -27.8766  -30.4462   23.9228 H   0  0  0  0  0  0
  -27.2817  -33.3747   26.1870 H   0  0  0  0  0  0
  -28.3939  -32.6740   25.0223 H   0  0  0  0  0  0
  -28.0761  -31.8543   26.5413 H   0  0  0  0  0  0
  -28.2511  -38.0128   24.7690 H   0  0  0  0  0  0
  -28.1149  -36.2650   24.6074 H   0  0  0  0  0  0
  -27.2311  -37.1161   25.8871 H   0  0  0  0  0  0
  -20.9340  -29.8723   21.6865 H   0  0  0  0  0  0
  -26.0110  -38.2842   24.1620 H   0  0  0  0  0  0
  -29.3126  -17.2288   18.4808 H   0  0  0  0  0  0
  -29.0986  -19.6505   18.0215 H   0  0  0  0  0  0
  -30.7329  -18.1357   22.4336 H   0  0  0  0  0  0
  -30.4231  -24.7628   18.5794 H   0  0  0  0  0  0
  -28.0106  -22.1837   21.0493 H   0  0  0  0  0  0
  -28.5593  -25.2885   21.6376 H   0  0  0  0  0  0
  -27.1389  -24.9105   20.7182 H   0  0  0  0  0  0
  -28.5261  -16.8485   22.0110 H   0  0  0  0  0  0
  -31.2098  -20.4591   23.0056 H   0  0  0  0  0  0
  -30.6441  -21.7458   22.0233 H   0  0  0  0  0  0
  -31.9337  -22.8144   17.8513 H   0  0  0  0  0  0
  1 25  1  0  0  0
  1 30  2  0  0  0
  1 81  1  0  0  0
  2  3  1  0  0  0
  2 25  1  0  0  0
  2 87  1  0  0  0
  2 88  1  0  0  0
  3  4  1  0  0  0
  3 89  1  0  0  0
  3 90  1  0  0  0
  4  5  1  0  0  0
  4 91  1  0  0  0
  4 92  1  0  0  0
  5  6  1  0  0  0
  5 26  1  0  0  0
  5 93  1  0  0  0
  6 25  1  0  0  0
  6 94  1  0  0  0
  6 95  1  0  0  0
  7  8  2  0  0  0
  7 26  1  0  0  0
  7 29  1  0  0  0
  8  9  1  0  0  0
  8 22  1  0  0  0
  9 10  1  0  0  0
  9 27  2  0  0  0
 10 11  2  0  0  0
 10 15  1  0  0  0
 11 12  1  0  0  0
 11 96  1  0  0  0
 12 13  2  0  0  0
 12 97  1  0  0  0
 13 14  1  0  0  0
 13 31  1  0  0  0
 14 15  2  0  0  0
 14 98  1  0  0  0
 15 99  1  0  0  0
 16 17  2  0  0  0
 16 21  1  0  0  0
 16 31  1  0  0  0
 17 18  1  0  0  0
 17100  1  0  0  0
 18 19  2  0  0  0
 18101  1  0  0  0
 19 20  1  0  0  0
 19 24  1  0  0  0
 20 21  2  0  0  0
 20102  1  0  0  0
 21 23  1  0  0  0
 22 28  1  0  0  0
 22 32  2  0  0  0
 26 27  1  0  0  0
 28103  1  0  0  0
 28104  1  0  0  0
 29105  1  0  0  0
 29106  1  0  0  0
 33 34  1  0  0  0
 33 66  1  0  0  0
 33 70  2  0  0  0
 34 36  1  0  0  0
 34 59  1  0  0  0
 34107  1  0  0  0
 35 44  2  0  0  0
 35 45  1  0  0  0
 35 68  1  0  0  0
 36 56  1  0  0  0
 36108  1  0  0  0
 37 39  1  0  0  0
 37 47  1  0  0  0
 37 66  1  0  0  0
 37109  1  0  0  0
 38 43  2  0  0  0
 38 46  1  0  0  0
 38 47  1  0  0  0
 39 64  1  0  0  0
 39 67  2  0  0  0
 40 52  1  0  0  0
 40 53  2  0  0  0
 40 58  1  0  0  0
 41110  1  0  0  0
 41111  1  0  0  0
 41112  1  0  0  0
 41 48  1  0  0  0
 42 43  1  0  0  0
 42 66  1  0  0  0
 42113  1  0  0  0
 42114  1  0  0  0
 43 44  1  0  0  0
 44115  1  0  0  0
 45 46  2  0  0  0
 45116  1  0  0  0
 46117  1  0  0  0
 47118  1  0  0  0
 47119  1  0  0  0
 48 56  1  0  0  0
 48 65  1  0  0  0
 48120  1  0  0  0
 49 50  1  0  0  0
 49 53  1  0  0  0
 49 64  1  0  0  0
 49121  1  0  0  0
 50 51  1  0  0  0
 50122  1  0  0  0
 50123  1  0  0  0
 51 52  1  0  0  0
 51124  1  0  0  0
 51125  1  0  0  0
 52126  1  0  0  0
 52127  1  0  0  0
 53 54  1  0  0  0
 54 55  2  0  0  0
 54128  1  0  0  0
 55 57  1  0  0  0
 55129  1  0  0  0
 56 69  2  0  0  0
 57 58  2  0  0  0
 57130  1  0  0  0
 58131  1  0  0  0
 59 60  1  0  0  0
 59 61  1  0  0  0
 59 62  1  0  0  0
 60132  1  0  0  0
 60133  1  0  0  0
 60134  1  0  0  0
 61135  1  0  0  0
 61136  1  0  0  0
 61137  1  0  0  0
 62138  1  0  0  0
 62139  1  0  0  0
 62140  1  0  0  0
 63 65  1  0  0  0
 63141  1  0  0  0
 63142  1  0  0  0
 63143  1  0  0  0
 64144  1  0  0  0
 65145  1  0  0  0
 68 82  1  0  0  0
 71 72  2  0  0  0
 71 76  1  0  0  0
 71146  1  0  0  0
 72 78  1  0  0  0
 72147  1  0  0  0
 73 76  2  0  0  0
 73 79  1  0  0  0
 73148  1  0  0  0
 74 77  1  0  0  0
 74 80  2  0  0  0
 74149  1  0  0  0
 75 77  2  0  0  0
 75 84  1  0  0  0
 75150  1  0  0  0
 76 81  1  0  0  0
 77 82  1  0  0  0
 78 79  2  0  0  0
 78 84  1  0  0  0
 79 85  1  0  0  0
 80 84  1  0  0  0
 80 86  1  0  0  0
 81 83  2  0  0  0
 82151  1  0  0  0
 82152  1  0  0  0
 83153  1  0  0  0
 85154  1  0  0  0
 85155  1  0  0  0
 86156  1  0  0  0
M  ISO  4   1 100  68 101  81 100  82 101
M  END
> <chiral flag>
0

> <version>
0

> <s_m_source_file>
/data/baiqing/PycharmProjects/Reinvent-master-3.2/result/LINK_invent/BTK/process_docking_weight1_custom_product_contain_oxygen_bond_distance_aromatic_linkinvent_7_9_3/rearranged_h_0091.sdf

> <i_m_source_file_index>
24

> <r_mmod_Potential_Energy-OPLS-2005>
241.929397583008

> <r_mmod_Stretch_Energy-OPLS-2005>
86.4103851318359

> <r_mmod_Bend_Energy-OPLS-2005>
159.144378662109

> <r_mmod_Torsional_Energy-OPLS-2005>
256.081604003906

> <r_mmod_Improper_Torsional_Energy-OPLS-2005>
7.05134963989258

> <r_mmod_Van_der_Waal_Energy-OPLS-2005>
144.941543579102

> <r_mmod_Electrostatic_Energy-OPLS-2005>
-247.866241455078

> <r_mmod_Solvation_Energy-OPLS-2005>
-215.64274597168

> <b_mmod_Minimization_Converged-OPLS-2005>
0

> <r_mmod_RMS_Derivative-OPLS-2005>
7.24234294891357

$$$$
24
                    3D
 Structure written by MMmdl.
156165  0  0  1  0            999 V2000
  -30.6496  -14.7443   20.5402 C   0  0  0  0  0  0
  -30.4064  -12.4690   19.4880 C   0  0  0  0  0  0
  -29.5024  -12.5453   18.2382 C   0  0  0  0  0  0
  -28.0226  -12.3672   18.6322 C   0  0  0  0  0  0
  -27.6305  -13.2420   19.8579 C   0  0  2  0  0  0
  -28.6685  -13.1207   20.9898 C   0  0  0  0  0  0
  -25.2409  -13.8224   20.5855 C   0  0  0  0  0  0
  -24.1720  -13.0440   20.9329 C   0  0  0  0  0  0
  -24.6363  -11.6944   20.8865 C   0  0  0  0  0  0
  -23.9090  -10.4282   21.0523 C   0  0  0  0  0  0
  -24.3634   -9.4141   21.9265 C   0  0  0  0  0  0
  -23.6314   -8.2167   22.0742 C   0  0  0  0  0  0
  -22.4288   -8.0257   21.3550 C   0  0  0  0  0  0
  -21.9950   -9.0244   20.4661 C   0  0  0  0  0  0
  -22.7295  -10.2126   20.3118 C   0  0  0  0  0  0
  -21.6844   -6.0738   22.5294 C   0  0  0  0  0  0
  -21.4029   -6.5635   23.8241 C   0  0  0  0  0  0
  -21.3633   -5.6776   24.9178 C   0  0  0  0  0  0
  -21.6021   -4.3046   24.7237 C   0  0  0  0  0  0
  -21.8807   -3.8150   23.4361 C   0  0  0  0  0  0
  -21.9176   -4.6956   22.3410 C   0  0  0  0  0  0
  -22.7714  -13.5205   21.1960 C   0  0  0  0  0  0
  -22.1631   -4.2147   21.0988 F   0  0  0  0  0  0
  -21.5610   -3.4505   25.7738 F   0  0  0  0  0  0
  -29.9663  -13.5353   20.4347 N   0  0  0  0  0  0
  -26.2835  -12.9484   20.3346 N   0  0  0  0  0  0
  -25.9273  -11.6599   20.5831 N   0  0  0  0  0  0
  -22.0347  -12.8203   22.0537 N   0  0  0  0  0  0
  -25.4080  -15.1967   20.4431 N   0  0  0  0  0  0
  -31.8110  -14.7419   20.1254 O   0  0  0  0  0  0
  -21.6617   -6.8875   21.4257 O   0  0  0  0  0  0
  -22.3375  -14.5499   20.6780 O   0  0  0  0  0  0
  -24.6394  -31.8510   23.1947 C   0  0  0  0  0  0
  -25.9210  -32.4724   23.8311 C   0  0  1  0  0  0
  -27.2220  -27.2404   20.1148 C   0  0  0  0  0  0
  -25.5982  -33.8526   24.2211 N   0  0  0  0  0  0
  -23.4371  -30.4757   21.5353 C   0  0  2  0  0  0
  -24.8812  -28.9149   20.1112 C   0  0  0  0  0  0
  -22.7547  -29.4596   22.4851 C   0  0  0  0  0  0
  -18.0298  -28.1421   22.8469 C   0  0  0  0  0  0
  -24.1491  -36.7290   23.2634 C   0  0  0  0  0  0
  -25.9880  -30.7574   21.3786 C   0  0  0  0  0  0
  -26.0579  -29.3820   20.7126 C   0  0  0  0  0  0
  -27.2297  -28.5585   20.6974 C   0  0  0  0  0  0
  -26.0140  -26.8359   19.5053 C   0  0  0  0  0  0
  -24.8651  -27.6519   19.5009 C   0  0  0  0  0  0
  -23.6616  -29.8127   20.1513 C   0  0  0  0  0  0
  -25.4122  -36.3052   24.0305 C   0  0  1  0  0  0
  -20.5911  -28.3762   23.1233 C   0  0  2  0  0  0
  -20.6803  -26.9474   22.5407 C   0  0  0  0  0  0
  -19.5771  -26.6394   21.5225 C   0  0  0  0  0  0
  -18.1944  -26.7961   22.1619 C   0  0  0  0  0  0
  -19.1559  -28.8906   23.2842 C   0  0  0  0  0  0
  -18.9478  -30.1501   23.8883 C   0  0  0  0  0  0
  -17.6473  -30.6619   24.0573 C   0  0  0  0  0  0
  -25.9075  -34.9428   23.5050 C   0  0  0  0  0  0
  -16.5365  -29.9131   23.6331 C   0  0  0  0  0  0
  -16.7278  -28.6550   23.0348 C   0  0  0  0  0  0
  -26.4534  -31.6601   25.0766 C   0  0  0  0  0  0
  -25.3731  -31.3829   26.1474 C   0  0  0  0  0  0
  -27.0385  -30.2980   24.6363 C   0  0  0  0  0  0
  -27.6046  -32.4389   25.7561 C   0  0  0  0  0  0
  -27.5574  -37.1804   24.8451 C   0  0  0  0  0  0
  -21.4252  -29.3082   22.3606 N   0  0  0  0  0  0
  -26.4275  -37.3762   23.9403 N   0  0  0  0  0  0
  -24.7068  -31.0479   22.0911 N   0  0  0  0  0  0
  -23.4235  -28.8157   23.2969 O   0  0  0  0  0  0
  -28.3199  -26.3473   20.2147 O   0  0  0  0  0  0
  -26.5648  -34.8909   22.4616 O   0  0  0  0  0  0
  -23.5542  -32.1339   23.7236 O   0  0  0  0  0  0
  -31.8857  -18.9395   19.4239 C   0  0  0  0  0  0
  -31.0289  -20.0335   19.6083 C   0  0  0  0  0  0
  -31.5267  -17.6449   19.8248 C   0  0  0  0  0  0
  -27.4072  -22.8856   20.6942 C   0  0  0  0  0  0
  -29.3676  -22.5306   19.7829 C   0  0  0  0  0  0
  -28.4482  -23.5694   19.9955 C   0  0  0  0  0  0
  -29.7385  -19.9194   20.1743 C   0  0  0  0  0  0
  -30.2746  -17.3602   20.4222 C   0  0  0  0  0  0
  -29.3811  -18.5321   20.5639 C   0  0  0  0  0  0
  -27.7226  -21.5480   20.8369 C   0  0  0  0  0  0
  -29.3981  -15.9381   22.2689 C   0  0  0  0  0  0
  -28.4630  -25.0757   19.4149 C   0  0  0  0  0  0
  -28.9706  -21.2328   20.2762 N   0  0  0  0  0  0
  -30.0188  -15.9495   20.9361 N   0  0  0  0  0  0
  -26.9456  -20.5968   21.4193 O   0  0  0  0  0  0
  -28.1526  -18.2788   21.0709 F   0  0  0  0  0  0
  -31.4587  -12.5425   19.2059 H   0  0  0  0  0  0
  -30.3169  -11.4873   19.9567 H   0  0  0  0  0  0
  -29.8026  -11.7926   17.5077 H   0  0  0  0  0  0
  -29.6354  -13.5151   17.7564 H   0  0  0  0  0  0
  -27.8658  -11.3158   18.8756 H   0  0  0  0  0  0
  -27.3705  -12.5744   17.7829 H   0  0  0  0  0  0
  -27.6395  -14.2818   19.5218 H   0  0  0  0  0  0
  -28.7163  -12.0858   21.3460 H   0  0  0  0  0  0
  -28.3573  -13.6798   21.8646 H   0  0  0  0  0  0
  -25.2757   -9.5540   22.4873 H   0  0  0  0  0  0
  -23.9979   -7.4511   22.7432 H   0  0  0  0  0  0
  -21.0877   -8.8844   19.8966 H   0  0  0  0  0  0
  -22.3855  -10.9678   19.6207 H   0  0  0  0  0  0
  -21.2079   -7.6148   23.9772 H   0  0  0  0  0  0
  -21.1453   -6.0491   25.9106 H   0  0  0  0  0  0
  -22.0637   -2.7609   23.2862 H   0  0  0  0  0  0
  -22.3960  -11.9877   22.4916 H   0  0  0  0  0  0
  -21.0929  -13.1203   22.2745 H   0  0  0  0  0  0
  -24.6725  -15.8557   20.6745 H   0  0  0  0  0  0
  -26.2825  -15.6493   20.2082 H   0  0  0  0  0  0
  -26.7296  -32.5342   23.1076 H   0  0  0  0  0  0
  -25.0157  -33.9632   25.0373 H   0  0  0  0  0  0
  -22.7385  -31.3019   21.3835 H   0  0  0  0  0  0
  -23.3730  -35.9646   23.3298 H   0  0  0  0  0  0
  -24.3578  -36.8928   22.2047 H   0  0  0  0  0  0
  -23.7276  -37.6493   23.6687 H   0  0  0  0  0  0
  -26.1495  -31.5189   20.6145 H   0  0  0  0  0  0
  -26.8573  -30.7893   22.0241 H   0  0  0  0  0  0
  -28.1354  -28.9174   21.1679 H   0  0  0  0  0  0
  -25.9122  -25.8515   19.0754 H   0  0  0  0  0  0
  -23.9563  -27.2788   19.0478 H   0  0  0  0  0  0
  -23.8196  -30.5902   19.4018 H   0  0  0  0  0  0
  -22.7751  -29.2668   19.8234 H   0  0  0  0  0  0
  -25.1308  -36.1866   25.0797 H   0  0  0  0  0  0
  -21.0014  -28.3355   24.1347 H   0  0  0  0  0  0
  -20.5724  -26.2386   23.3642 H   0  0  0  0  0  0
  -21.6663  -26.7500   22.1184 H   0  0  0  0  0  0
  -19.6942  -25.6287   21.1305 H   0  0  0  0  0  0
  -19.6705  -27.3159   20.6718 H   0  0  0  0  0  0
  -17.4232  -26.6703   21.4012 H   0  0  0  0  0  0
  -18.0333  -26.0123   22.9027 H   0  0  0  0  0  0
  -19.7954  -30.7306   24.2261 H   0  0  0  0  0  0
  -17.5039  -31.6282   24.5186 H   0  0  0  0  0  0
  -15.5380  -30.3030   23.7662 H   0  0  0  0  0  0
  -15.8681  -28.0870   22.7073 H   0  0  0  0  0  0
  -24.5841  -30.7251   25.7810 H   0  0  0  0  0  0
  -24.9025  -32.3056   26.4888 H   0  0  0  0  0  0
  -25.8011  -30.8991   27.0268 H   0  0  0  0  0  0
  -26.3004  -29.6708   24.1353 H   0  0  0  0  0  0
  -27.3930  -29.7273   25.4959 H   0  0  0  0  0  0
  -27.8949  -30.4147   23.9721 H   0  0  0  0  0  0
  -27.2577  -33.3668   26.2121 H   0  0  0  0  0  0
  -28.3883  -32.6997   25.0442 H   0  0  0  0  0  0
  -28.0716  -31.8571   26.5520 H   0  0  0  0  0  0
  -28.2567  -38.0120   24.7498 H   0  0  0  0  0  0
  -28.1085  -36.2642   24.6259 H   0  0  0  0  0  0
  -27.2310  -37.1449   25.8858 H   0  0  0  0  0  0
  -20.9505  -29.8784   21.6763 H   0  0  0  0  0  0
  -26.0136  -38.2824   24.1404 H   0  0  0  0  0  0
  -32.8637  -19.0864   18.9852 H   0  0  0  0  0  0
  -31.4238  -20.9814   19.3065 H   0  0  0  0  0  0
  -32.2991  -16.9045   19.6948 H   0  0  0  0  0  0
  -26.4819  -23.3378   21.0220 H   0  0  0  0  0  0
  -30.2969  -22.6362   19.2430 H   0  0  0  0  0  0
  -28.3106  -15.9311   22.1816 H   0  0  0  0  0  0
  -29.6740  -16.8226   22.8487 H   0  0  0  0  0  0
  -29.7132  -15.0950   22.8856 H   0  0  0  0  0  0
  -27.8083  -25.0928   18.5459 H   0  0  0  0  0  0
  -29.4495  -25.1803   18.9676 H   0  0  0  0  0  0
  -26.1027  -20.9877   21.6240 H   0  0  0  0  0  0
  1 25  1  0  0  0
  1 30  2  0  0  0
  1 84  1  0  0  0
  2  3  1  0  0  0
  2 25  1  0  0  0
  2 87  1  0  0  0
  2 88  1  0  0  0
  3  4  1  0  0  0
  3 89  1  0  0  0
  3 90  1  0  0  0
  4  5  1  0  0  0
  4 91  1  0  0  0
  4 92  1  0  0  0
  5  6  1  0  0  0
  5 26  1  0  0  0
  5 93  1  0  0  0
  6 25  1  0  0  0
  6 94  1  0  0  0
  6 95  1  0  0  0
  7  8  2  0  0  0
  7 26  1  0  0  0
  7 29  1  0  0  0
  8  9  1  0  0  0
  8 22  1  0  0  0
  9 10  1  0  0  0
  9 27  2  0  0  0
 10 11  2  0  0  0
 10 15  1  0  0  0
 11 12  1  0  0  0
 11 96  1  0  0  0
 12 13  2  0  0  0
 12 97  1  0  0  0
 13 14  1  0  0  0
 13 31  1  0  0  0
 14 15  2  0  0  0
 14 98  1  0  0  0
 15 99  1  0  0  0
 16 17  2  0  0  0
 16 21  1  0  0  0
 16 31  1  0  0  0
 17 18  1  0  0  0
 17100  1  0  0  0
 18 19  2  0  0  0
 18101  1  0  0  0
 19 20  1  0  0  0
 19 24  1  0  0  0
 20 21  2  0  0  0
 20102  1  0  0  0
 21 23  1  0  0  0
 22 28  1  0  0  0
 22 32  2  0  0  0
 26 27  1  0  0  0
 28103  1  0  0  0
 28104  1  0  0  0
 29105  1  0  0  0
 29106  1  0  0  0
 33 34  1  0  0  0
 33 66  1  0  0  0
 33 70  2  0  0  0
 34 36  1  0  0  0
 34 59  1  0  0  0
 34107  1  0  0  0
 35 44  2  0  0  0
 35 45  1  0  0  0
 35 68  1  0  0  0
 36 56  1  0  0  0
 36108  1  0  0  0
 37 39  1  0  0  0
 37 47  1  0  0  0
 37 66  1  0  0  0
 37109  1  0  0  0
 38 43  2  0  0  0
 38 46  1  0  0  0
 38 47  1  0  0  0
 39 64  1  0  0  0
 39 67  2  0  0  0
 40 52  1  0  0  0
 40 53  2  0  0  0
 40 58  1  0  0  0
 41110  1  0  0  0
 41111  1  0  0  0
 41112  1  0  0  0
 41 48  1  0  0  0
 42 43  1  0  0  0
 42 66  1  0  0  0
 42113  1  0  0  0
 42114  1  0  0  0
 43 44  1  0  0  0
 44115  1  0  0  0
 45 46  2  0  0  0
 45116  1  0  0  0
 46117  1  0  0  0
 47118  1  0  0  0
 47119  1  0  0  0
 48 56  1  0  0  0
 48 65  1  0  0  0
 48120  1  0  0  0
 49 50  1  0  0  0
 49 53  1  0  0  0
 49 64  1  0  0  0
 49121  1  0  0  0
 50 51  1  0  0  0
 50122  1  0  0  0
 50123  1  0  0  0
 51 52  1  0  0  0
 51124  1  0  0  0
 51125  1  0  0  0
 52126  1  0  0  0
 52127  1  0  0  0
 53 54  1  0  0  0
 54 55  2  0  0  0
 54128  1  0  0  0
 55 57  1  0  0  0
 55129  1  0  0  0
 56 69  2  0  0  0
 57 58  2  0  0  0
 57130  1  0  0  0
 58131  1  0  0  0
 59 60  1  0  0  0
 59 61  1  0  0  0
 59 62  1  0  0  0
 60132  1  0  0  0
 60133  1  0  0  0
 60134  1  0  0  0
 61135  1  0  0  0
 61136  1  0  0  0
 61137  1  0  0  0
 62138  1  0  0  0
 62139  1  0  0  0
 62140  1  0  0  0
 63 65  1  0  0  0
 63141  1  0  0  0
 63142  1  0  0  0
 63143  1  0  0  0
 64144  1  0  0  0
 65145  1  0  0  0
 68 82  1  0  0  0
 71 72  2  0  0  0
 71 73  1  0  0  0
 71146  1  0  0  0
 72 77  1  0  0  0
 72147  1  0  0  0
 73 78  2  0  0  0
 73148  1  0  0  0
 74 76  1  0  0  0
 74 80  2  0  0  0
 74149  1  0  0  0
 75 76  2  0  0  0
 75 83  1  0  0  0
 75150  1  0  0  0
 76 82  1  0  0  0
 77 79  2  0  0  0
 77 83  1  0  0  0
 78 79  1  0  0  0
 78 84  1  0  0  0
 79 86  1  0  0  0
 80 83  1  0  0  0
 80 85  1  0  0  0
 81 84  1  0  0  0
 81151  1  0  0  0
 81152  1  0  0  0
 81153  1  0  0  0
 82154  1  0  0  0
 82155  1  0  0  0
 85156  1  0  0  0
M  ISO  4   1 100  68 101  82 101  84 100
M  END
> <chiral flag>
0

> <version>
0

> <s_m_source_file>
/data/baiqing/PycharmProjects/Reinvent-master-3.2/result/LINK_invent/BTK/process_docking_weight1_custom_product_contain_oxygen_bond_distance_aromatic_linkinvent_7_9_3/rearranged_h_0091.sdf

> <i_m_source_file_index>
25

> <r_mmod_Potential_Energy-OPLS-2005>
445.250061035156

> <r_mmod_Stretch_Energy-OPLS-2005>
176.95964050293

> <r_mmod_Bend_Energy-OPLS-2005>
228.349914550781

> <r_mmod_Torsional_Energy-OPLS-2005>
287.282745361328

> <r_mmod_Improper_Torsional_Energy-OPLS-2005>
6.16539764404297

> <r_mmod_Van_der_Waal_Energy-OPLS-2005>
159.263763427734

> <r_mmod_Electrostatic_Energy-OPLS-2005>
-297.007843017578

> <r_mmod_Solvation_Energy-OPLS-2005>
-202.52409362793

> <b_mmod_Minimization_Converged-OPLS-2005>
0

> <r_mmod_RMS_Derivative-OPLS-2005>
6.59249830245972

$$$$
25
                    3D
 Structure written by MMmdl.
152160  0  0  1  0            999 V2000
  -30.6618  -14.5400   20.5223 C   0  0  0  0  0  0
  -30.4257  -12.3327   19.4369 C   0  0  0  0  0  0
  -29.4991  -12.5130   18.2157 C   0  0  0  0  0  0
  -28.0200  -12.3668   18.6251 C   0  0  0  0  0  0
  -27.6591  -13.2118   19.8767 C   0  0  2  0  0  0
  -28.7033  -13.0159   20.9997 C   0  0  0  0  0  0
  -25.2571  -13.8159   20.5693 C   0  0  0  0  0  0
  -24.1831  -13.0433   20.9190 C   0  0  0  0  0  0
  -24.6391  -11.6898   20.8741 C   0  0  0  0  0  0
  -23.9062  -10.4288   21.0397 C   0  0  0  0  0  0
  -24.3618   -9.4204   21.9172 C   0  0  0  0  0  0
  -23.6293   -8.2240   22.0754 C   0  0  0  0  0  0
  -22.4273   -8.0278   21.3548 C   0  0  0  0  0  0
  -21.9912   -9.0247   20.4647 C   0  0  0  0  0  0
  -22.7238  -10.2127   20.3052 C   0  0  0  0  0  0
  -21.6851   -6.0734   22.5279 C   0  0  0  0  0  0
  -21.4016   -6.5641   23.8212 C   0  0  0  0  0  0
  -21.3662   -5.6796   24.9174 C   0  0  0  0  0  0
  -21.6046   -4.3059   24.7223 C   0  0  0  0  0  0
  -21.8819   -3.8153   23.4346 C   0  0  0  0  0  0
  -21.9193   -4.6964   22.3401 C   0  0  0  0  0  0
  -22.7851  -13.5224   21.1846 C   0  0  0  0  0  0
  -22.1654   -4.2155   21.0976 F   0  0  0  0  0  0
  -21.5632   -3.4543   25.7739 F   0  0  0  0  0  0
  -30.0292  -13.3337   20.4434 N   0  0  0  0  0  0
  -26.3013  -12.9336   20.3393 N   0  0  0  0  0  0
  -25.9325  -11.6492   20.5784 N   0  0  0  0  0  0
  -22.0506  -12.8209   22.0407 N   0  0  0  0  0  0
  -25.4294  -15.1881   20.4077 N   0  0  0  0  0  0
  -31.8118  -14.6985   20.1057 O   0  0  0  0  0  0
  -21.6640   -6.8875   21.4240 O   0  0  0  0  0  0
  -22.3528  -14.5533   20.6703 O   0  0  0  0  0  0
  -24.6182  -31.8662   23.2079 C   0  0  0  0  0  0
  -25.9062  -32.4814   23.8392 C   0  0  1  0  0  0
  -27.2314  -27.4057   20.0973 C   0  0  0  0  0  0
  -25.5895  -33.8617   24.2323 N   0  0  0  0  0  0
  -23.4101  -30.4888   21.5481 C   0  0  2  0  0  0
  -24.8592  -28.9538   20.1113 C   0  0  0  0  0  0
  -22.7446  -29.4651   22.4966 C   0  0  0  0  0  0
  -18.0289  -28.1382   22.8494 C   0  0  0  0  0  0
  -24.1486  -36.7308   23.2638 C   0  0  0  0  0  0
  -25.9430  -30.8223   21.3674 C   0  0  0  0  0  0
  -26.0226  -29.4562   20.7101 C   0  0  0  0  0  0
  -27.2165  -28.6893   20.7012 C   0  0  0  0  0  0
  -26.0534  -26.9270   19.4911 C   0  0  0  0  0  0
  -24.8705  -27.6894   19.4972 C   0  0  0  0  0  0
  -23.6229  -29.8249   20.1618 C   0  0  0  0  0  0
  -25.4108  -36.3118   24.0342 C   0  0  1  0  0  0
  -20.5883  -28.3679   23.1309 C   0  0  2  0  0  0
  -20.6782  -26.9411   22.5416 C   0  0  0  0  0  0
  -19.5752  -26.6392   21.5222 C   0  0  0  0  0  0
  -18.1934  -26.7934   22.1631 C   0  0  0  0  0  0
  -19.1535  -28.8850   23.2898 C   0  0  0  0  0  0
  -18.9458  -30.1457   23.8909 C   0  0  0  0  0  0
  -17.6459  -30.6593   24.0573 C   0  0  0  0  0  0
  -25.9036  -34.9479   23.5134 C   0  0  0  0  0  0
  -16.5355  -29.9094   23.6326 C   0  0  0  0  0  0
  -16.7278  -28.6508   23.0353 C   0  0  0  0  0  0
  -26.4476  -31.6590   25.0724 C   0  0  0  0  0  0
  -25.3733  -31.3692   26.1462 C   0  0  0  0  0  0
  -27.0301  -30.3030   24.6102 C   0  0  0  0  0  0
  -27.6058  -32.4297   25.7488 C   0  0  0  0  0  0
  -27.5595  -37.1803   24.8462 C   0  0  0  0  0  0
  -21.4168  -29.3043   22.3711 N   0  0  0  0  0  0
  -26.4295  -37.3804   23.9427 N   0  0  0  0  0  0
  -24.6756  -31.0735   22.0994 N   0  0  0  0  0  0
  -23.4201  -28.8191   23.3024 O   0  0  0  0  0  0
  -28.3274  -26.5648   20.1334 O   0  0  0  0  0  0
  -26.5613  -34.8930   22.4706 O   0  0  0  0  0  0
  -23.5362  -32.1422   23.7448 O   0  0  0  0  0  0
  -30.9719  -19.0020   19.6570 C   0  0  0  0  0  0
  -31.0294  -17.6281   20.0010 C   0  0  0  0  0  0
  -28.8191  -17.7993   20.9600 C   0  0  0  0  0  0
  -29.8407  -19.8071   19.9466 C   0  0  0  0  0  0
  -29.9396  -16.9868   20.6409 C   0  0  0  0  0  0
  -28.7629  -19.1797   20.6212 C   0  0  0  0  0  0
  -28.2551  -25.6056   21.1291 C   0  0  0  0  0  0
  -29.7816  -21.2389   19.4167 C   0  0  0  0  0  0
  -28.5592  -24.2754   21.0927 C   0  0  0  0  0  0
  -29.0776  -23.5441   19.9221 C   0  0  0  0  0  0
  -29.8895  -15.5719   20.9545 N   0  0  0  0  0  0
  -29.2295  -22.2141   20.1822 N   0  0  0  0  0  0
  -30.3017  -21.4578   18.3156 O   0  0  0  0  0  0
  -29.3486  -24.0764   18.8405 O   0  0  0  0  0  0
  -28.3668  -23.5700   22.2220 O   0  0  0  0  0  0
  -27.6444  -19.8839   20.9234 F   0  0  0  0  0  0
  -31.4717  -12.4314   19.1389 H   0  0  0  0  0  0
  -30.3270  -11.3268   19.8479 H   0  0  0  0  0  0
  -29.7463  -11.7863   17.4416 H   0  0  0  0  0  0
  -29.6616  -13.4974   17.7737 H   0  0  0  0  0  0
  -27.8334  -11.3104   18.8235 H   0  0  0  0  0  0
  -27.3709  -12.6385   17.7921 H   0  0  0  0  0  0
  -27.6932  -14.2575   19.5700 H   0  0  0  0  0  0
  -28.6917  -11.9840   21.3552 H   0  0  0  0  0  0
  -28.4655  -13.6277   21.8714 H   0  0  0  0  0  0
  -25.2765   -9.5675   22.4751 H   0  0  0  0  0  0
  -24.0006   -7.4630   22.7474 H   0  0  0  0  0  0
  -21.0852   -8.8756   19.8946 H   0  0  0  0  0  0
  -22.3692  -10.9660   19.6171 H   0  0  0  0  0  0
  -21.2004   -7.6146   23.9718 H   0  0  0  0  0  0
  -21.1488   -6.0524   25.9076 H   0  0  0  0  0  0
  -22.0599   -2.7617   23.2844 H   0  0  0  0  0  0
  -22.4122  -11.9860   22.4772 H   0  0  0  0  0  0
  -21.1132  -13.1227   22.2633 H   0  0  0  0  0  0
  -24.6625  -15.8439   20.5084 H   0  0  0  0  0  0
  -26.2735  -15.6221   20.0571 H   0  0  0  0  0  0
  -26.7135  -32.5531   23.1157 H   0  0  0  0  0  0
  -25.0043  -33.9781   25.0466 H   0  0  0  0  0  0
  -22.6998  -31.3065   21.4087 H   0  0  0  0  0  0
  -23.3765  -35.9621   23.3281 H   0  0  0  0  0  0
  -24.3576  -36.8937   22.2051 H   0  0  0  0  0  0
  -23.7202  -37.6497   23.6655 H   0  0  0  0  0  0
  -26.0617  -31.5888   20.6002 H   0  0  0  0  0  0
  -26.8270  -30.8741   21.9911 H   0  0  0  0  0  0
  -28.1112  -29.0638   21.1777 H   0  0  0  0  0  0
  -26.0489  -25.9472   19.0343 H   0  0  0  0  0  0
  -23.9748  -27.2939   19.0376 H   0  0  0  0  0  0
  -23.7399  -30.6034   19.4072 H   0  0  0  0  0  0
  -22.7454  -29.2511   19.8589 H   0  0  0  0  0  0
  -25.1278  -36.1988   25.0830 H   0  0  0  0  0  0
  -20.9975  -28.3252   24.1429 H   0  0  0  0  0  0
  -20.5706  -26.2290   23.3607 H   0  0  0  0  0  0
  -21.6650  -26.7469   22.1197 H   0  0  0  0  0  0
  -19.6918  -25.6303   21.1245 H   0  0  0  0  0  0
  -19.6696  -27.3216   20.6756 H   0  0  0  0  0  0
  -17.4212  -26.6701   21.4026 H   0  0  0  0  0  0
  -18.0327  -26.0070   22.9011 H   0  0  0  0  0  0
  -19.7928  -30.7277   24.2283 H   0  0  0  0  0  0
  -17.5010  -31.6275   24.5165 H   0  0  0  0  0  0
  -15.5352  -30.3004   23.7631 H   0  0  0  0  0  0
  -15.8681  -28.0834   22.7054 H   0  0  0  0  0  0
  -24.5920  -30.7022   25.7790 H   0  0  0  0  0  0
  -24.8908  -32.2845   26.4910 H   0  0  0  0  0  0
  -25.8079  -30.8863   27.0225 H   0  0  0  0  0  0
  -26.2846  -29.6804   24.1139 H   0  0  0  0  0  0
  -27.4053  -29.7250   25.4560 H   0  0  0  0  0  0
  -27.8692  -30.4348   23.9264 H   0  0  0  0  0  0
  -27.2691  -33.3596   26.2086 H   0  0  0  0  0  0
  -28.3861  -32.6851   25.0303 H   0  0  0  0  0  0
  -28.0731  -31.8401   26.5389 H   0  0  0  0  0  0
  -28.2588  -38.0129   24.7570 H   0  0  0  0  0  0
  -28.1119  -36.2668   24.6213 H   0  0  0  0  0  0
  -27.2323  -37.1358   25.8865 H   0  0  0  0  0  0
  -20.9340  -29.8751   21.6911 H   0  0  0  0  0  0
  -26.0189  -38.2880   24.1456 H   0  0  0  0  0  0
  -31.8120  -19.4391   19.1348 H   0  0  0  0  0  0
  -31.9231  -17.0839   19.7354 H   0  0  0  0  0  0
  -27.9611  -17.3615   21.4496 H   0  0  0  0  0  0
  -27.8850  -26.0539   22.0417 H   0  0  0  0  0  0
  -29.0231  -15.2598   21.3653 H   0  0  0  0  0  0
  -28.8913  -21.9465   21.0953 H   0  0  0  0  0  0
  -28.0349  -24.1692   22.8773 H   0  0  0  0  0  0
  1 25  1  0  0  0
  1 30  2  0  0  0
  1 81  1  0  0  0
  2  3  1  0  0  0
  2 25  1  0  0  0
  2 87  1  0  0  0
  2 88  1  0  0  0
  3  4  1  0  0  0
  3 89  1  0  0  0
  3 90  1  0  0  0
  4  5  1  0  0  0
  4 91  1  0  0  0
  4 92  1  0  0  0
  5  6  1  0  0  0
  5 26  1  0  0  0
  5 93  1  0  0  0
  6 25  1  0  0  0
  6 94  1  0  0  0
  6 95  1  0  0  0
  7  8  2  0  0  0
  7 26  1  0  0  0
  7 29  1  0  0  0
  8  9  1  0  0  0
  8 22  1  0  0  0
  9 10  1  0  0  0
  9 27  2  0  0  0
 10 11  2  0  0  0
 10 15  1  0  0  0
 11 12  1  0  0  0
 11 96  1  0  0  0
 12 13  2  0  0  0
 12 97  1  0  0  0
 13 14  1  0  0  0
 13 31  1  0  0  0
 14 15  2  0  0  0
 14 98  1  0  0  0
 15 99  1  0  0  0
 16 17  2  0  0  0
 16 21  1  0  0  0
 16 31  1  0  0  0
 17 18  1  0  0  0
 17100  1  0  0  0
 18 19  2  0  0  0
 18101  1  0  0  0
 19 20  1  0  0  0
 19 24  1  0  0  0
 20 21  2  0  0  0
 20102  1  0  0  0
 21 23  1  0  0  0
 22 28  1  0  0  0
 22 32  2  0  0  0
 26 27  1  0  0  0
 28103  1  0  0  0
 28104  1  0  0  0
 29105  1  0  0  0
 29106  1  0  0  0
 33 34  1  0  0  0
 33 66  1  0  0  0
 33 70  2  0  0  0
 34 36  1  0  0  0
 34 59  1  0  0  0
 34107  1  0  0  0
 35 44  2  0  0  0
 35 45  1  0  0  0
 35 68  1  0  0  0
 36 56  1  0  0  0
 36108  1  0  0  0
 37 39  1  0  0  0
 37 47  1  0  0  0
 37 66  1  0  0  0
 37109  1  0  0  0
 38 43  2  0  0  0
 38 46  1  0  0  0
 38 47  1  0  0  0
 39 64  1  0  0  0
 39 67  2  0  0  0
 40 52  1  0  0  0
 40 53  2  0  0  0
 40 58  1  0  0  0
 41110  1  0  0  0
 41111  1  0  0  0
 41112  1  0  0  0
 41 48  1  0  0  0
 42 43  1  0  0  0
 42 66  1  0  0  0
 42113  1  0  0  0
 42114  1  0  0  0
 43 44  1  0  0  0
 44115  1  0  0  0
 45 46  2  0  0  0
 45116  1  0  0  0
 46117  1  0  0  0
 47118  1  0  0  0
 47119  1  0  0  0
 48 56  1  0  0  0
 48 65  1  0  0  0
 48120  1  0  0  0
 49 50  1  0  0  0
 49 53  1  0  0  0
 49 64  1  0  0  0
 49121  1  0  0  0
 50 51  1  0  0  0
 50122  1  0  0  0
 50123  1  0  0  0
 51 52  1  0  0  0
 51124  1  0  0  0
 51125  1  0  0  0
 52126  1  0  0  0
 52127  1  0  0  0
 53 54  1  0  0  0
 54 55  2  0  0  0
 54128  1  0  0  0
 55 57  1  0  0  0
 55129  1  0  0  0
 56 69  2  0  0  0
 57 58  2  0  0  0
 57130  1  0  0  0
 58131  1  0  0  0
 59 60  1  0  0  0
 59 61  1  0  0  0
 59 62  1  0  0  0
 60132  1  0  0  0
 60133  1  0  0  0
 60134  1  0  0  0
 61135  1  0  0  0
 61136  1  0  0  0
 61137  1  0  0  0
 62138  1  0  0  0
 62139  1  0  0  0
 62140  1  0  0  0
 63 65  1  0  0  0
 63141  1  0  0  0
 63142  1  0  0  0
 63143  1  0  0  0
 64144  1  0  0  0
 65145  1  0  0  0
 68 77  1  0  0  0
 71 72  2  0  0  0
 71 74  1  0  0  0
 71146  1  0  0  0
 72 75  1  0  0  0
 72147  1  0  0  0
 73 75  2  0  0  0
 73 76  1  0  0  0
 73148  1  0  0  0
 74 76  2  0  0  0
 74 78  1  0  0  0
 75 81  1  0  0  0
 76 86  1  0  0  0
 77 79  2  0  0  0
 77149  1  0  0  0
 78 82  1  0  0  0
 78 83  2  0  0  0
 79 80  1  0  0  0
 79 85  1  0  0  0
 80 82  1  0  0  0
 80 84  2  0  0  0
 81150  1  0  0  0
 82151  1  0  0  0
 85152  1  0  0  0
M  ISO  4   1 100  68 101  77 101  81 100
M  END
> <chiral flag>
0

> <version>
0

> <s_m_source_file>
/data/baiqing/PycharmProjects/Reinvent-master-3.2/result/LINK_invent/BTK/process_docking_weight1_custom_product_contain_oxygen_bond_distance_aromatic_linkinvent_7_9_3/rearranged_h_0091.sdf

> <i_m_source_file_index>
26

> <r_mmod_Potential_Energy-OPLS-2005>
-127.071502685547

> <r_mmod_Stretch_Energy-OPLS-2005>
49.5689353942871

> <r_mmod_Bend_Energy-OPLS-2005>
123.49845123291

> <r_mmod_Torsional_Energy-OPLS-2005>
229.526672363281

> <r_mmod_Improper_Torsional_Energy-OPLS-2005>
5.02975940704346

> <r_mmod_Van_der_Waal_Energy-OPLS-2005>
161.224044799805

> <r_mmod_Electrostatic_Energy-OPLS-2005>
-457.891967773438

> <r_mmod_Solvation_Energy-OPLS-2005>
-261.466705322266

> <b_mmod_Minimization_Converged-OPLS-2005>
0

> <r_mmod_RMS_Derivative-OPLS-2005>
1.5991884469986

$$$$
26
                    3D
 Structure written by MMmdl.
155163  0  0  1  0            999 V2000
  -30.6188  -14.6341   20.5105 C   0  0  0  0  0  0
  -30.4409  -12.3922   19.4478 C   0  0  0  0  0  0
  -29.5070  -12.5153   18.2226 C   0  0  0  0  0  0
  -28.0304  -12.3496   18.6349 C   0  0  0  0  0  0
  -27.6554  -13.2136   19.8678 C   0  0  2  0  0  0
  -28.7012  -13.0560   20.9952 C   0  0  0  0  0  0
  -25.2569  -13.8164   20.5685 C   0  0  0  0  0  0
  -24.1829  -13.0434   20.9182 C   0  0  0  0  0  0
  -24.6392  -11.6902   20.8736 C   0  0  0  0  0  0
  -23.9062  -10.4288   21.0408 C   0  0  0  0  0  0
  -24.3613   -9.4206   21.9186 C   0  0  0  0  0  0
  -23.6286   -8.2243   22.0754 C   0  0  0  0  0  0
  -22.4269   -8.0281   21.3543 C   0  0  0  0  0  0
  -21.9904   -9.0258   20.4648 C   0  0  0  0  0  0
  -22.7233  -10.2135   20.3058 C   0  0  0  0  0  0
  -21.6852   -6.0734   22.5278 C   0  0  0  0  0  0
  -21.4014   -6.5638   23.8211 C   0  0  0  0  0  0
  -21.3659   -5.6791   24.9173 C   0  0  0  0  0  0
  -21.6044   -4.3054   24.7224 C   0  0  0  0  0  0
  -21.8818   -3.8146   23.4346 C   0  0  0  0  0  0
  -21.9192   -4.6961   22.3400 C   0  0  0  0  0  0
  -22.7853  -13.5236   21.1845 C   0  0  0  0  0  0
  -22.1660   -4.2146   21.0978 F   0  0  0  0  0  0
  -21.5626   -3.4537   25.7738 F   0  0  0  0  0  0
  -30.0174  -13.4047   20.4348 N   0  0  0  0  0  0
  -26.3001  -12.9339   20.3341 N   0  0  0  0  0  0
  -25.9325  -11.6497   20.5764 N   0  0  0  0  0  0
  -22.0490  -12.8237   22.0405 N   0  0  0  0  0  0
  -25.4283  -15.1886   20.4107 N   0  0  0  0  0  0
  -31.7718  -14.8158   20.1073 O   0  0  0  0  0  0
  -21.6634   -6.8879   21.4240 O   0  0  0  0  0  0
  -22.3544  -14.5545   20.6695 O   0  0  0  0  0  0
  -24.6263  -31.8607   23.2039 C   0  0  0  0  0  0
  -25.9114  -32.4781   23.8361 C   0  0  1  0  0  0
  -27.2217  -27.3200   20.1109 C   0  0  0  0  0  0
  -25.5931  -33.8583   24.2287 N   0  0  0  0  0  0
  -23.4195  -30.4860   21.5468 C   0  0  2  0  0  0
  -24.8653  -28.9458   20.1091 C   0  0  0  0  0  0
  -22.7477  -29.4629   22.4935 C   0  0  0  0  0  0
  -18.0287  -28.1387   22.8485 C   0  0  0  0  0  0
  -24.1492  -36.7296   23.2638 C   0  0  0  0  0  0
  -25.9618  -30.7905   21.3769 C   0  0  0  0  0  0
  -26.0348  -29.4193   20.7168 C   0  0  0  0  0  0
  -27.2151  -28.6172   20.7116 C   0  0  0  0  0  0
  -26.0286  -26.9080   19.4684 C   0  0  0  0  0  0
  -24.8644  -27.6953   19.4767 C   0  0  0  0  0  0
  -23.6337  -29.8254   20.1605 C   0  0  0  0  0  0
  -25.4116  -36.3086   24.0328 C   0  0  1  0  0  0
  -20.5888  -28.3691   23.1282 C   0  0  2  0  0  0
  -20.6779  -26.9414   22.5410 C   0  0  0  0  0  0
  -19.5753  -26.6385   21.5215 C   0  0  0  0  0  0
  -18.1932  -26.7929   22.1625 C   0  0  0  0  0  0
  -19.1541  -28.8855   23.2878 C   0  0  0  0  0  0
  -18.9462  -30.1457   23.8894 C   0  0  0  0  0  0
  -17.6463  -30.6586   24.0565 C   0  0  0  0  0  0
  -25.9053  -34.9453   23.5106 C   0  0  0  0  0  0
  -16.5353  -29.9086   23.6331 C   0  0  0  0  0  0
  -16.7275  -28.6505   23.0348 C   0  0  0  0  0  0
  -26.4497  -31.6586   25.0727 C   0  0  0  0  0  0
  -25.3731  -31.3726   26.1451 C   0  0  0  0  0  0
  -27.0342  -30.3009   24.6184 C   0  0  0  0  0  0
  -27.6059  -32.4320   25.7496 C   0  0  0  0  0  0
  -27.5580  -37.1804   24.8464 C   0  0  0  0  0  0
  -21.4190  -29.3045   22.3676 N   0  0  0  0  0  0
  -26.4295  -37.3778   23.9405 N   0  0  0  0  0  0
  -24.6880  -31.0620   22.0989 N   0  0  0  0  0  0
  -23.4202  -28.8164   23.3009 O   0  0  0  0  0  0
  -28.3308  -26.4586   20.1739 O   0  0  0  0  0  0
  -26.5620  -34.8919   22.4672 O   0  0  0  0  0  0
  -23.5428  -32.1405   23.7367 O   0  0  0  0  0  0
  -29.3921  -19.2345   19.5772 C   0  0  0  0  0  0
  -30.2300  -17.9188   21.9004 C   0  0  0  0  0  0
  -29.4935  -17.8055   19.6038 C   0  0  0  0  0  0
  -29.6904  -20.0394   20.7122 C   0  0  0  0  0  0
  -29.9169  -17.1117   20.7760 C   0  0  0  0  0  0
  -30.1254  -19.3413   21.8715 C   0  0  0  0  0  0
  -29.1162  -23.9628   20.4275 C   0  0  0  0  0  0
  -28.9141  -22.4143   20.0236 C   0  0  0  0  0  0
  -29.1054  -17.0214   18.3621 C   0  0  0  0  0  0
  -28.0883  -25.0230   19.8749 C   0  0  0  0  0  0
  -30.4228  -20.0654   23.0288 N   0  0  0  0  0  0
  -29.6267  -21.5036   20.7559 N   0  0  0  0  0  0
  -29.8116  -15.6607   20.9185 N   0  0  0  0  0  0
  -30.0465  -24.3146   21.1654 O   0  0  0  0  0  0
  -28.1514  -22.0894   19.1073 O   0  0  0  0  0  0
  -31.4811  -12.5232   19.1442 H   0  0  0  0  0  0
  -30.3797  -11.3928   19.8812 H   0  0  0  0  0  0
  -29.7704  -11.7707   17.4704 H   0  0  0  0  0  0
  -29.6473  -13.4895   17.7513 H   0  0  0  0  0  0
  -27.8671  -11.2949   18.8608 H   0  0  0  0  0  0
  -27.3755  -12.5857   17.7951 H   0  0  0  0  0  0
  -27.6767  -14.2507   19.5346 H   0  0  0  0  0  0
  -28.7121  -12.0298   21.3652 H   0  0  0  0  0  0
  -28.4460  -13.6758   21.8562 H   0  0  0  0  0  0
  -25.2760   -9.5679   22.4762 H   0  0  0  0  0  0
  -23.9991   -7.4635   22.7475 H   0  0  0  0  0  0
  -21.0831   -8.8784   19.8957 H   0  0  0  0  0  0
  -22.3697  -10.9677   19.6168 H   0  0  0  0  0  0
  -21.2010   -7.6147   23.9715 H   0  0  0  0  0  0
  -21.1479   -6.0521   25.9076 H   0  0  0  0  0  0
  -22.0598   -2.7607   23.2849 H   0  0  0  0  0  0
  -22.4097  -11.9895   22.4793 H   0  0  0  0  0  0
  -21.1114  -13.1282   22.2617 H   0  0  0  0  0  0
  -24.6606  -15.8421   20.5220 H   0  0  0  0  0  0
  -26.2793  -15.6316   20.0897 H   0  0  0  0  0  0
  -26.7182  -32.5452   23.1110 H   0  0  0  0  0  0
  -25.0076  -33.9728   25.0430 H   0  0  0  0  0  0
  -22.7131  -31.3068   21.4064 H   0  0  0  0  0  0
  -23.3749  -35.9633   23.3308 H   0  0  0  0  0  0
  -24.3583  -36.8908   22.2051 H   0  0  0  0  0  0
  -23.7251  -37.6503   23.6655 H   0  0  0  0  0  0
  -26.0966  -31.5549   20.6103 H   0  0  0  0  0  0
  -26.8414  -30.8361   22.0073 H   0  0  0  0  0  0
  -28.1098  -28.9740   21.2028 H   0  0  0  0  0  0
  -25.9573  -25.9603   18.9561 H   0  0  0  0  0  0
  -23.9700  -27.3301   18.9907 H   0  0  0  0  0  0
  -23.7532  -30.6044   19.4067 H   0  0  0  0  0  0
  -22.7532  -29.2567   19.8564 H   0  0  0  0  0  0
  -25.1296  -36.1940   25.0821 H   0  0  0  0  0  0
  -20.9979  -28.3268   24.1404 H   0  0  0  0  0  0
  -20.5689  -26.2299   23.3609 H   0  0  0  0  0  0
  -21.6646  -26.7450   22.1198 H   0  0  0  0  0  0
  -19.6916  -25.6298   21.1242 H   0  0  0  0  0  0
  -19.6689  -27.3197   20.6747 H   0  0  0  0  0  0
  -17.4202  -26.6673   21.4028 H   0  0  0  0  0  0
  -18.0333  -26.0072   22.9022 H   0  0  0  0  0  0
  -19.7938  -30.7275   24.2260 H   0  0  0  0  0  0
  -17.5017  -31.6266   24.5168 H   0  0  0  0  0  0
  -15.5354  -30.2989   23.7654 H   0  0  0  0  0  0
  -15.8674  -28.0827   22.7062 H   0  0  0  0  0  0
  -24.5908  -30.7070   25.7780 H   0  0  0  0  0  0
  -24.8919  -32.2892   26.4871 H   0  0  0  0  0  0
  -25.8054  -30.8907   27.0229 H   0  0  0  0  0  0
  -26.2916  -29.6757   24.1210 H   0  0  0  0  0  0
  -27.4040  -29.7267   25.4689 H   0  0  0  0  0  0
  -27.8786  -30.4293   23.9409 H   0  0  0  0  0  0
  -27.2668  -33.3618   26.2076 H   0  0  0  0  0  0
  -28.3865  -32.6880   25.0321 H   0  0  0  0  0  0
  -28.0728  -31.8442   26.5409 H   0  0  0  0  0  0
  -28.2601  -38.0098   24.7506 H   0  0  0  0  0  0
  -28.1073  -36.2628   24.6296 H   0  0  0  0  0  0
  -27.2296  -37.1459   25.8867 H   0  0  0  0  0  0
  -20.9368  -29.8769   21.6887 H   0  0  0  0  0  0
  -26.0176  -38.2855   24.1400 H   0  0  0  0  0  0
  -29.0692  -19.7163   18.6656 H   0  0  0  0  0  0
  -30.5184  -17.4291   22.8198 H   0  0  0  0  0  0
  -28.8898  -17.6810   17.5211 H   0  0  0  0  0  0
  -28.2160  -16.4211   18.5516 H   0  0  0  0  0  0
  -29.9136  -16.3543   18.0612 H   0  0  0  0  0  0
  -27.1256  -24.7272   20.2927 H   0  0  0  0  0  0
  -28.0194  -24.8973   18.7941 H   0  0  0  0  0  0
  -30.5198  -19.5280   23.8842 H   0  0  0  0  0  0
  -29.8703  -20.8997   23.1909 H   0  0  0  0  0  0
  -30.1736  -21.9225   21.4967 H   0  0  0  0  0  0
  -28.9199  -15.3399   21.2635 H   0  0  0  0  0  0
  1 25  1  0  0  0
  1 30  2  0  0  0
  1 83  1  0  0  0
  2  3  1  0  0  0
  2 25  1  0  0  0
  2 86  1  0  0  0
  2 87  1  0  0  0
  3  4  1  0  0  0
  3 88  1  0  0  0
  3 89  1  0  0  0
  4  5  1  0  0  0
  4 90  1  0  0  0
  4 91  1  0  0  0
  5  6  1  0  0  0
  5 26  1  0  0  0
  5 92  1  0  0  0
  6 25  1  0  0  0
  6 93  1  0  0  0
  6 94  1  0  0  0
  7  8  2  0  0  0
  7 26  1  0  0  0
  7 29  1  0  0  0
  8  9  1  0  0  0
  8 22  1  0  0  0
  9 10  1  0  0  0
  9 27  2  0  0  0
 10 11  2  0  0  0
 10 15  1  0  0  0
 11 12  1  0  0  0
 11 95  1  0  0  0
 12 13  2  0  0  0
 12 96  1  0  0  0
 13 14  1  0  0  0
 13 31  1  0  0  0
 14 15  2  0  0  0
 14 97  1  0  0  0
 15 98  1  0  0  0
 16 17  2  0  0  0
 16 21  1  0  0  0
 16 31  1  0  0  0
 17 18  1  0  0  0
 17 99  1  0  0  0
 18 19  2  0  0  0
 18100  1  0  0  0
 19 20  1  0  0  0
 19 24  1  0  0  0
 20 21  2  0  0  0
 20101  1  0  0  0
 21 23  1  0  0  0
 22 28  1  0  0  0
 22 32  2  0  0  0
 26 27  1  0  0  0
 28102  1  0  0  0
 28103  1  0  0  0
 29104  1  0  0  0
 29105  1  0  0  0
 33 34  1  0  0  0
 33 66  1  0  0  0
 33 70  2  0  0  0
 34 36  1  0  0  0
 34 59  1  0  0  0
 34106  1  0  0  0
 35 44  2  0  0  0
 35 45  1  0  0  0
 35 68  1  0  0  0
 36 56  1  0  0  0
 36107  1  0  0  0
 37 39  1  0  0  0
 37 47  1  0  0  0
 37 66  1  0  0  0
 37108  1  0  0  0
 38 43  2  0  0  0
 38 46  1  0  0  0
 38 47  1  0  0  0
 39 64  1  0  0  0
 39 67  2  0  0  0
 40 52  1  0  0  0
 40 53  2  0  0  0
 40 58  1  0  0  0
 41109  1  0  0  0
 41110  1  0  0  0
 41111  1  0  0  0
 41 48  1  0  0  0
 42 43  1  0  0  0
 42 66  1  0  0  0
 42112  1  0  0  0
 42113  1  0  0  0
 43 44  1  0  0  0
 44114  1  0  0  0
 45 46  2  0  0  0
 45115  1  0  0  0
 46116  1  0  0  0
 47117  1  0  0  0
 47118  1  0  0  0
 48 56  1  0  0  0
 48 65  1  0  0  0
 48119  1  0  0  0
 49 50  1  0  0  0
 49 53  1  0  0  0
 49 64  1  0  0  0
 49120  1  0  0  0
 50 51  1  0  0  0
 50121  1  0  0  0
 50122  1  0  0  0
 51 52  1  0  0  0
 51123  1  0  0  0
 51124  1  0  0  0
 52125  1  0  0  0
 52126  1  0  0  0
 53 54  1  0  0  0
 54 55  2  0  0  0
 54127  1  0  0  0
 55 57  1  0  0  0
 55128  1  0  0  0
 56 69  2  0  0  0
 57 58  2  0  0  0
 57129  1  0  0  0
 58130  1  0  0  0
 59 60  1  0  0  0
 59 61  1  0  0  0
 59 62  1  0  0  0
 60131  1  0  0  0
 60132  1  0  0  0
 60133  1  0  0  0
 61134  1  0  0  0
 61135  1  0  0  0
 61136  1  0  0  0
 62137  1  0  0  0
 62138  1  0  0  0
 62139  1  0  0  0
 63 65  1  0  0  0
 63140  1  0  0  0
 63141  1  0  0  0
 63142  1  0  0  0
 64143  1  0  0  0
 65144  1  0  0  0
 68 80  1  0  0  0
 71 73  2  0  0  0
 71 74  1  0  0  0
 71145  1  0  0  0
 72 75  2  0  0  0
 72 76  1  0  0  0
 72146  1  0  0  0
 73 75  1  0  0  0
 73 79  1  0  0  0
 74 76  2  0  0  0
 74 82  1  0  0  0
 75 83  1  0  0  0
 76 81  1  0  0  0
 77 78  1  0  0  0
 77 80  1  0  0  0
 77 84  2  0  0  0
 78 82  1  0  0  0
 78 85  2  0  0  0
 79147  1  0  0  0
 79148  1  0  0  0
 79149  1  0  0  0
 80150  1  0  0  0
 80151  1  0  0  0
 81152  1  0  0  0
 81153  1  0  0  0
 82154  1  0  0  0
 83155  1  0  0  0
M  ISO  4   1 100  68 101  80 101  83 100
M  END
> <chiral flag>
0

> <version>
0

> <s_m_source_file>
/data/baiqing/PycharmProjects/Reinvent-master-3.2/result/LINK_invent/BTK/process_docking_weight1_custom_product_contain_oxygen_bond_distance_aromatic_linkinvent_7_9_3/rearranged_h_0091.sdf

> <i_m_source_file_index>
27

> <r_mmod_Potential_Energy-OPLS-2005>
7.42913246154785

> <r_mmod_Stretch_Energy-OPLS-2005>
81.2500381469727

> <r_mmod_Bend_Energy-OPLS-2005>
132.649124145508

> <r_mmod_Torsional_Energy-OPLS-2005>
255.756652832031

> <r_mmod_Improper_Torsional_Energy-OPLS-2005>
9.51109409332275

> <r_mmod_Van_der_Waal_Energy-OPLS-2005>
144.633438110352

> <r_mmod_Electrostatic_Energy-OPLS-2005>
-415.814331054688

> <r_mmod_Solvation_Energy-OPLS-2005>
-249.095779418945

> <b_mmod_Minimization_Converged-OPLS-2005>
0

> <r_mmod_RMS_Derivative-OPLS-2005>
0.525016605854034

$$$$
27
                    3D
 Structure written by MMmdl.
158167  0  0  1  0            999 V2000
  -30.6358  -14.7882   20.4209 C   0  0  0  0  0  0
  -30.4315  -12.4868   19.4981 C   0  0  0  0  0  0
  -29.5286  -12.5233   18.2474 C   0  0  0  0  0  0
  -28.0554  -12.3203   18.6544 C   0  0  0  0  0  0
  -27.6370  -13.2366   19.8361 C   0  0  2  0  0  0
  -28.6735  -13.2225   20.9766 C   0  0  0  0  0  0
  -25.2511  -13.8201   20.5623 C   0  0  0  0  0  0
  -24.1792  -13.0441   20.9213 C   0  0  0  0  0  0
  -24.6405  -11.6941   20.8738 C   0  0  0  0  0  0
  -23.9077  -10.4310   21.0388 C   0  0  0  0  0  0
  -24.3645   -9.4228   21.9181 C   0  0  0  0  0  0
  -23.6325   -8.2251   22.0752 C   0  0  0  0  0  0
  -22.4311   -8.0286   21.3537 C   0  0  0  0  0  0
  -21.9943   -9.0255   20.4634 C   0  0  0  0  0  0
  -22.7253  -10.2135   20.3041 C   0  0  0  0  0  0
  -21.6844   -6.0748   22.5281 C   0  0  0  0  0  0
  -21.3993   -6.5645   23.8215 C   0  0  0  0  0  0
  -21.3677   -5.6791   24.9177 C   0  0  0  0  0  0
  -21.6040   -4.3057   24.7215 C   0  0  0  0  0  0
  -21.8806   -3.8154   23.4334 C   0  0  0  0  0  0
  -21.9183   -4.6973   22.3395 C   0  0  0  0  0  0
  -22.7813  -13.5233   21.1863 C   0  0  0  0  0  0
  -22.1645   -4.2174   21.0966 F   0  0  0  0  0  0
  -21.5677   -3.4532   25.7719 F   0  0  0  0  0  0
  -29.9707  -13.5788   20.3845 N   0  0  0  0  0  0
  -26.2913  -12.9397   20.3170 N   0  0  0  0  0  0
  -25.9328  -11.6545   20.5688 N   0  0  0  0  0  0
  -22.0397  -12.8274   22.0434 N   0  0  0  0  0  0
  -25.4237  -15.1897   20.3989 N   0  0  0  0  0  0
  -31.8626  -14.7582   20.3035 O   0  0  0  0  0  0
  -21.6649   -6.8892   21.4247 O   0  0  0  0  0  0
  -22.3510  -14.5510   20.6671 O   0  0  0  0  0  0
  -24.6334  -31.8556   23.1984 C   0  0  0  0  0  0
  -25.9136  -32.4730   23.8356 C   0  0  1  0  0  0
  -27.2147  -27.2521   20.1232 C   0  0  0  0  0  0
  -25.5906  -33.8524   24.2260 N   0  0  0  0  0  0
  -23.4315  -30.4824   21.5426 C   0  0  2  0  0  0
  -24.8737  -28.9263   20.1086 C   0  0  0  0  0  0
  -22.7538  -29.4633   22.4902 C   0  0  0  0  0  0
  -18.0321  -28.1364   22.8534 C   0  0  0  0  0  0
  -24.1475  -36.7241   23.2670 C   0  0  0  0  0  0
  -25.9834  -30.7644   21.3856 C   0  0  0  0  0  0
  -26.0474  -29.3902   20.7147 C   0  0  0  0  0  0
  -27.2148  -28.5618   20.7179 C   0  0  0  0  0  0
  -26.0104  -26.8553   19.4977 C   0  0  0  0  0  0
  -24.8584  -27.6643   19.4980 C   0  0  0  0  0  0
  -23.6459  -29.8145   20.1597 C   0  0  0  0  0  0
  -25.4107  -36.3038   24.0353 C   0  0  1  0  0  0
  -20.5938  -28.3691   23.1236 C   0  0  2  0  0  0
  -20.6737  -26.9374   22.5410 C   0  0  0  0  0  0
  -19.5694  -26.6351   21.5222 C   0  0  0  0  0  0
  -18.1897  -26.7928   22.1651 C   0  0  0  0  0  0
  -19.1577  -28.8845   23.2905 C   0  0  0  0  0  0
  -18.9490  -30.1437   23.8936 C   0  0  0  0  0  0
  -17.6470  -30.6567   24.0550 C   0  0  0  0  0  0
  -25.9071  -34.9414   23.5130 C   0  0  0  0  0  0
  -16.5373  -29.9057   23.6282 C   0  0  0  0  0  0
  -16.7307  -28.6455   23.0378 C   0  0  0  0  0  0
  -26.4475  -31.6532   25.0730 C   0  0  0  0  0  0
  -25.3663  -31.3589   26.1404 C   0  0  0  0  0  0
  -27.0336  -30.2958   24.6206 C   0  0  0  0  0  0
  -27.6069  -32.4292   25.7401 C   0  0  0  0  0  0
  -27.5587  -37.1741   24.8471 C   0  0  0  0  0  0
  -21.4260  -29.3051   22.3627 N   0  0  0  0  0  0
  -26.4284  -37.3738   23.9431 N   0  0  0  0  0  0
  -24.7018  -31.0527   22.0965 N   0  0  0  0  0  0
  -23.4246  -28.8159   23.2988 O   0  0  0  0  0  0
  -28.3112  -26.3601   20.2239 O   0  0  0  0  0  0
  -26.5686  -34.8909   22.4725 O   0  0  0  0  0  0
  -23.5472  -32.1399   23.7262 O   0  0  0  0  0  0
  -31.0658  -20.0516   19.0646 C   0  0  0  0  0  0
  -31.7990  -18.9157   18.7052 C   0  0  0  0  0  0
  -29.5461  -18.6249   20.3032 C   0  0  0  0  0  0
  -29.9023  -19.9905   19.8667 C   0  0  0  0  0  0
  -31.4091  -17.6254   19.0829 C   0  0  0  0  0  0
  -30.2996  -17.4008   19.9542 C   0  0  0  0  0  0
  -28.4973  -23.6102   20.1158 C   0  0  0  0  0  0
  -27.4915  -22.8738   20.6061 C   0  0  0  0  0  0
  -29.5877  -22.6212   19.8840 C   0  0  0  0  0  0
  -27.8576  -21.3977   20.7506 C   0  0  0  0  0  0
  -26.0572  -23.3238   20.8057 C   0  0  0  0  0  0
  -28.4106  -25.0685   19.4564 C   0  0  0  0  0  0
  -29.1892  -21.3004   20.1441 N   0  0  0  0  0  0
  -32.1645  -16.6194   18.4958 N   0  0  0  0  0  0
  -29.9217  -15.9942   20.3695 N   0  0  0  0  0  0
  -30.7204  -22.9616   19.5340 O   0  0  0  0  0  0
  -31.4847  -12.5924   19.2266 H   0  0  0  0  0  0
  -30.3595  -11.5228   20.0011 H   0  0  0  0  0  0
  -29.8517  -11.7575   17.5424 H   0  0  0  0  0  0
  -29.6354  -13.4818   17.7320 H   0  0  0  0  0  0
  -27.9393  -11.2747   18.9411 H   0  0  0  0  0  0
  -27.3967  -12.4786   17.8025 H   0  0  0  0  0  0
  -27.6158  -14.2483   19.4308 H   0  0  0  0  0  0
  -28.7178  -12.2341   21.4317 H   0  0  0  0  0  0
  -28.3908  -13.9146   21.7738 H   0  0  0  0  0  0
  -25.2772   -9.5735   22.4765 H   0  0  0  0  0  0
  -24.0045   -7.4635   22.7480 H   0  0  0  0  0  0
  -21.0871   -8.8745   19.8941 H   0  0  0  0  0  0
  -22.3684  -10.9679   19.6150 H   0  0  0  0  0  0
  -21.1943   -7.6148   23.9741 H   0  0  0  0  0  0
  -21.1531   -6.0509   25.9094 H   0  0  0  0  0  0
  -22.0573   -2.7630   23.2804 H   0  0  0  0  0  0
  -22.3928  -11.9990   22.4949 H   0  0  0  0  0  0
  -21.0989  -13.1327   22.2466 H   0  0  0  0  0  0
  -24.6673  -15.8557   20.5117 H   0  0  0  0  0  0
  -26.2758  -15.6176   20.0587 H   0  0  0  0  0  0
  -26.7220  -32.5352   23.1120 H   0  0  0  0  0  0
  -24.9824  -33.9620   25.0235 H   0  0  0  0  0  0
  -22.7363  -31.3115   21.3970 H   0  0  0  0  0  0
  -23.3753  -35.9560   23.3305 H   0  0  0  0  0  0
  -24.3571  -36.8876   22.2090 H   0  0  0  0  0  0
  -23.7197  -37.6418   23.6716 H   0  0  0  0  0  0
  -26.1694  -31.5409   20.6413 H   0  0  0  0  0  0
  -26.8453  -30.7824   22.0403 H   0  0  0  0  0  0
  -28.1026  -28.9121   21.2261 H   0  0  0  0  0  0
  -25.8901  -25.8809   19.0506 H   0  0  0  0  0  0
  -23.9485  -27.2903   19.0505 H   0  0  0  0  0  0
  -23.7752  -30.5904   19.4065 H   0  0  0  0  0  0
  -22.7637  -29.2527   19.8490 H   0  0  0  0  0  0
  -25.1286  -36.1905   25.0848 H   0  0  0  0  0  0
  -21.0133  -28.3267   24.1319 H   0  0  0  0  0  0
  -20.5516  -26.2344   23.3656 H   0  0  0  0  0  0
  -21.6596  -26.7240   22.1261 H   0  0  0  0  0  0
  -19.6779  -25.6258   21.1239 H   0  0  0  0  0  0
  -19.6588  -27.3157   20.6741 H   0  0  0  0  0  0
  -17.4159  -26.6798   21.4039 H   0  0  0  0  0  0
  -18.0215  -26.0037   22.8995 H   0  0  0  0  0  0
  -19.7952  -30.7242   24.2343 H   0  0  0  0  0  0
  -17.4996  -31.6246   24.5134 H   0  0  0  0  0  0
  -15.5355  -30.2951   23.7509 H   0  0  0  0  0  0
  -15.8747  -28.0706   22.7110 H   0  0  0  0  0  0
  -24.5920  -30.6903   25.7609 H   0  0  0  0  0  0
  -24.8734  -32.2682   26.4853 H   0  0  0  0  0  0
  -25.7932  -30.8693   27.0164 H   0  0  0  0  0  0
  -26.2902  -29.6665   24.1294 H   0  0  0  0  0  0
  -27.4097  -29.7263   25.4709 H   0  0  0  0  0  0
  -27.8766  -30.4236   23.9415 H   0  0  0  0  0  0
  -27.2740  -33.3633   26.1941 H   0  0  0  0  0  0
  -28.3773  -32.6789   25.0088 H   0  0  0  0  0  0
  -28.0870  -31.8454   26.5263 H   0  0  0  0  0  0
  -28.2586  -38.0051   24.7556 H   0  0  0  0  0  0
  -28.1106  -36.2592   24.6256 H   0  0  0  0  0  0
  -27.2331  -37.1321   25.8877 H   0  0  0  0  0  0
  -20.9477  -29.8837   21.6858 H   0  0  0  0  0  0
  -26.0175  -38.2827   24.1393 H   0  0  0  0  0  0
  -31.4370  -20.9749   18.6538 H   0  0  0  0  0  0
  -32.6787  -19.0395   18.0881 H   0  0  0  0  0  0
  -28.6673  -18.5084   20.9217 H   0  0  0  0  0  0
  -27.1366  -20.7703   20.2263 H   0  0  0  0  0  0
  -27.8890  -21.1111   21.8027 H   0  0  0  0  0  0
  -25.9775  -24.4117   20.8495 H   0  0  0  0  0  0
  -25.6580  -22.9181   21.7351 H   0  0  0  0  0  0
  -25.4370  -22.9619   19.9862 H   0  0  0  0  0  0
  -27.6903  -25.0034   18.6446 H   0  0  0  0  0  0
  -29.3473  -25.1907   18.9132 H   0  0  0  0  0  0
  -33.0777  -16.8972   18.1563 H   0  0  0  0  0  0
  -32.2438  -15.8006   19.1143 H   0  0  0  0  0  0
  -28.9383  -15.8746   20.5521 H   0  0  0  0  0  0
  1 25  1  0  0  0
  1 30  2  0  0  0
  1 85  1  0  0  0
  2  3  1  0  0  0
  2 25  1  0  0  0
  2 87  1  0  0  0
  2 88  1  0  0  0
  3  4  1  0  0  0
  3 89  1  0  0  0
  3 90  1  0  0  0
  4  5  1  0  0  0
  4 91  1  0  0  0
  4 92  1  0  0  0
  5  6  1  0  0  0
  5 26  1  0  0  0
  5 93  1  0  0  0
  6 25  1  0  0  0
  6 94  1  0  0  0
  6 95  1  0  0  0
  7  8  2  0  0  0
  7 26  1  0  0  0
  7 29  1  0  0  0
  8  9  1  0  0  0
  8 22  1  0  0  0
  9 10  1  0  0  0
  9 27  2  0  0  0
 10 11  2  0  0  0
 10 15  1  0  0  0
 11 12  1  0  0  0
 11 96  1  0  0  0
 12 13  2  0  0  0
 12 97  1  0  0  0
 13 14  1  0  0  0
 13 31  1  0  0  0
 14 15  2  0  0  0
 14 98  1  0  0  0
 15 99  1  0  0  0
 16 17  2  0  0  0
 16 21  1  0  0  0
 16 31  1  0  0  0
 17 18  1  0  0  0
 17100  1  0  0  0
 18 19  2  0  0  0
 18101  1  0  0  0
 19 20  1  0  0  0
 19 24  1  0  0  0
 20 21  2  0  0  0
 20102  1  0  0  0
 21 23  1  0  0  0
 22 28  1  0  0  0
 22 32  2  0  0  0
 26 27  1  0  0  0
 28103  1  0  0  0
 28104  1  0  0  0
 29105  1  0  0  0
 29106  1  0  0  0
 33 34  1  0  0  0
 33 66  1  0  0  0
 33 70  2  0  0  0
 34 36  1  0  0  0
 34 59  1  0  0  0
 34107  1  0  0  0
 35 44  2  0  0  0
 35 45  1  0  0  0
 35 68  1  0  0  0
 36 56  1  0  0  0
 36108  1  0  0  0
 37 39  1  0  0  0
 37 47  1  0  0  0
 37 66  1  0  0  0
 37109  1  0  0  0
 38 43  2  0  0  0
 38 46  1  0  0  0
 38 47  1  0  0  0
 39 64  1  0  0  0
 39 67  2  0  0  0
 40 52  1  0  0  0
 40 53  2  0  0  0
 40 58  1  0  0  0
 41110  1  0  0  0
 41111  1  0  0  0
 41112  1  0  0  0
 41 48  1  0  0  0
 42 43  1  0  0  0
 42 66  1  0  0  0
 42113  1  0  0  0
 42114  1  0  0  0
 43 44  1  0  0  0
 44115  1  0  0  0
 45 46  2  0  0  0
 45116  1  0  0  0
 46117  1  0  0  0
 47118  1  0  0  0
 47119  1  0  0  0
 48 56  1  0  0  0
 48 65  1  0  0  0
 48120  1  0  0  0
 49 50  1  0  0  0
 49 53  1  0  0  0
 49 64  1  0  0  0
 49121  1  0  0  0
 50 51  1  0  0  0
 50122  1  0  0  0
 50123  1  0  0  0
 51 52  1  0  0  0
 51124  1  0  0  0
 51125  1  0  0  0
 52126  1  0  0  0
 52127  1  0  0  0
 53 54  1  0  0  0
 54 55  2  0  0  0
 54128  1  0  0  0
 55 57  1  0  0  0
 55129  1  0  0  0
 56 69  2  0  0  0
 57 58  2  0  0  0
 57130  1  0  0  0
 58131  1  0  0  0
 59 60  1  0  0  0
 59 61  1  0  0  0
 59 62  1  0  0  0
 60132  1  0  0  0
 60133  1  0  0  0
 60134  1  0  0  0
 61135  1  0  0  0
 61136  1  0  0  0
 61137  1  0  0  0
 62138  1  0  0  0
 62139  1  0  0  0
 62140  1  0  0  0
 63 65  1  0  0  0
 63141  1  0  0  0
 63142  1  0  0  0
 63143  1  0  0  0
 64144  1  0  0  0
 65145  1  0  0  0
 68 82  1  0  0  0
 71 72  2  0  0  0
 71 74  1  0  0  0
 71146  1  0  0  0
 72 75  1  0  0  0
 72147  1  0  0  0
 73 74  2  0  0  0
 73 76  1  0  0  0
 73148  1  0  0  0
 74 83  1  0  0  0
 75 76  2  0  0  0
 75 84  1  0  0  0
 76 85  1  0  0  0
 77 78  2  0  0  0
 77 79  1  0  0  0
 77 82  1  0  0  0
 78 80  1  0  0  0
 78 81  1  0  0  0
 79 83  1  0  0  0
 79 86  2  0  0  0
 80 83  1  0  0  0
 80149  1  0  0  0
 80150  1  0  0  0
 81151  1  0  0  0
 81152  1  0  0  0
 81153  1  0  0  0
 82154  1  0  0  0
 82155  1  0  0  0
 84156  1  0  0  0
 84157  1  0  0  0
 85158  1  0  0  0
M  ISO  4   1 100  68 101  82 101  85 100
M  END
> <chiral flag>
0

> <version>
0

> <s_m_source_file>
/data/baiqing/PycharmProjects/Reinvent-master-3.2/result/LINK_invent/BTK/process_docking_weight1_custom_product_contain_oxygen_bond_distance_aromatic_linkinvent_7_9_3/rearranged_h_0091.sdf

> <i_m_source_file_index>
28

> <r_mmod_Potential_Energy-OPLS-2005>
279.5263671875

> <r_mmod_Stretch_Energy-OPLS-2005>
155.814025878906

> <r_mmod_Bend_Energy-OPLS-2005>
248.031280517578

> <r_mmod_Torsional_Energy-OPLS-2005>
266.802001953125

> <r_mmod_Improper_Torsional_Energy-OPLS-2005>
12.4776239395142

> <r_mmod_Van_der_Waal_Energy-OPLS-2005>
165.8935546875

> <r_mmod_Electrostatic_Energy-OPLS-2005>
-459.364013671875

> <r_mmod_Solvation_Energy-OPLS-2005>
-217.89111328125

> <b_mmod_Minimization_Converged-OPLS-2005>
0

> <r_mmod_RMS_Derivative-OPLS-2005>
5.57827806472778

$$$$
28
                    3D
 Structure written by MMmdl.
152160  0  0  1  0            999 V2000
  -30.6607  -14.6447   20.5006 C   0  0  0  0  0  0
  -30.4292  -12.4039   19.4527 C   0  0  0  0  0  0
  -29.5050  -12.5005   18.2216 C   0  0  0  0  0  0
  -28.0306  -12.3370   18.6404 C   0  0  0  0  0  0
  -27.6456  -13.2264   19.8527 C   0  0  2  0  0  0
  -28.6923  -13.1412   20.9857 C   0  0  0  0  0  0
  -25.2559  -13.8175   20.5691 C   0  0  0  0  0  0
  -24.1845  -13.0424   20.9175 C   0  0  0  0  0  0
  -24.6422  -11.6896   20.8724 C   0  0  0  0  0  0
  -23.9080  -10.4294   21.0403 C   0  0  0  0  0  0
  -24.3643   -9.4221   21.9176 C   0  0  0  0  0  0
  -23.6321   -8.2257   22.0745 C   0  0  0  0  0  0
  -22.4299   -8.0281   21.3530 C   0  0  0  0  0  0
  -21.9914   -9.0271   20.4652 C   0  0  0  0  0  0
  -22.7250  -10.2141   20.3069 C   0  0  0  0  0  0
  -21.6884   -6.0729   22.5261 C   0  0  0  0  0  0
  -21.4047   -6.5640   23.8196 C   0  0  0  0  0  0
  -21.3637   -5.6792   24.9156 C   0  0  0  0  0  0
  -21.6039   -4.3060   24.7208 C   0  0  0  0  0  0
  -21.8825   -3.8153   23.4327 C   0  0  0  0  0  0
  -21.9194   -4.6956   22.3384 C   0  0  0  0  0  0
  -22.7872  -13.5215   21.1813 C   0  0  0  0  0  0
  -22.1671   -4.2138   21.0964 F   0  0  0  0  0  0
  -21.5604   -3.4537   25.7722 F   0  0  0  0  0  0
  -29.9991  -13.4526   20.3966 N   0  0  0  0  0  0
  -26.2982  -12.9380   20.3293 N   0  0  0  0  0  0
  -25.9345  -11.6522   20.5718 N   0  0  0  0  0  0
  -22.0558  -12.8210   22.0379 N   0  0  0  0  0  0
  -25.4230  -15.1904   20.4138 N   0  0  0  0  0  0
  -31.8652  -14.7096   20.2395 O   0  0  0  0  0  0
  -21.6656   -6.8875   21.4224 O   0  0  0  0  0  0
  -22.3560  -14.5531   20.6677 O   0  0  0  0  0  0
  -24.6257  -31.8634   23.2064 C   0  0  0  0  0  0
  -25.9103  -32.4791   23.8390 C   0  0  1  0  0  0
  -27.2151  -27.3492   20.1143 C   0  0  0  0  0  0
  -25.5934  -33.8590   24.2315 N   0  0  0  0  0  0
  -23.4175  -30.4895   21.5470 C   0  0  2  0  0  0
  -24.8644  -28.9478   20.1084 C   0  0  0  0  0  0
  -22.7487  -29.4651   22.4941 C   0  0  0  0  0  0
  -18.0289  -28.1381   22.8493 C   0  0  0  0  0  0
  -24.1485  -36.7308   23.2640 C   0  0  0  0  0  0
  -25.9572  -30.7976   21.3798 C   0  0  0  0  0  0
  -26.0287  -29.4274   20.7238 C   0  0  0  0  0  0
  -27.2093  -28.6331   20.7311 C   0  0  0  0  0  0
  -26.0402  -26.9120   19.4738 C   0  0  0  0  0  0
  -24.8702  -27.6944   19.4736 C   0  0  0  0  0  0
  -23.6311  -29.8265   20.1600 C   0  0  0  0  0  0
  -25.4106  -36.3109   24.0336 C   0  0  1  0  0  0
  -20.5897  -28.3691   23.1289 C   0  0  2  0  0  0
  -20.6775  -26.9411   22.5411 C   0  0  0  0  0  0
  -19.5741  -26.6382   21.5218 C   0  0  0  0  0  0
  -18.1924  -26.7929   22.1634 C   0  0  0  0  0  0
  -19.1543  -28.8850   23.2890 C   0  0  0  0  0  0
  -18.9469  -30.1449   23.8903 C   0  0  0  0  0  0
  -17.6468  -30.6580   24.0565 C   0  0  0  0  0  0
  -25.9037  -34.9462   23.5121 C   0  0  0  0  0  0
  -16.5357  -29.9072   23.6326 C   0  0  0  0  0  0
  -16.7281  -28.6491   23.0351 C   0  0  0  0  0  0
  -26.4473  -31.6597   25.0760 C   0  0  0  0  0  0
  -25.3695  -31.3735   26.1489 C   0  0  0  0  0  0
  -27.0334  -30.3032   24.6202 C   0  0  0  0  0  0
  -27.6043  -32.4352   25.7517 C   0  0  0  0  0  0
  -27.5583  -37.1814   24.8469 C   0  0  0  0  0  0
  -21.4201  -29.3043   22.3675 N   0  0  0  0  0  0
  -26.4298  -37.3789   23.9403 N   0  0  0  0  0  0
  -24.6844  -31.0685   22.1008 N   0  0  0  0  0  0
  -23.4220  -28.8204   23.3019 O   0  0  0  0  0  0
  -28.2938  -26.4733   20.1043 O   0  0  0  0  0  0
  -26.5609  -34.8920   22.4679 O   0  0  0  0  0  0
  -23.5426  -32.1423   23.7402 O   0  0  0  0  0  0
  -27.7616  -19.0883   18.6961 C   0  0  0  0  0  0
  -28.5177  -18.0224   19.2223 C   0  0  0  0  0  0
  -27.8639  -20.3905   19.2329 C   0  0  0  0  0  0
  -29.5015  -19.5633   20.8292 C   0  0  0  0  0  0
  -29.3923  -18.2213   20.3148 C   0  0  0  0  0  0
  -28.7520  -20.6723   20.2993 C   0  0  0  0  0  0
  -28.4754  -25.7005   21.2431 C   0  0  0  0  0  0
  -30.2878  -17.0675   20.7986 C   0  0  0  0  0  0
  -28.5970  -24.3416   21.4274 C   0  0  0  0  0  0
  -28.5135  -23.2588   20.4035 C   0  0  0  0  0  0
  -28.8755  -22.0148   20.8723 N   0  0  0  0  0  0
  -29.8828  -15.7683   20.6203 N   0  0  0  0  0  0
  -31.3463  -17.3598   21.3662 O   0  0  0  0  0  0
  -28.1628  -23.4505   19.2382 O   0  0  0  0  0  0
  -28.7631  -23.9560   22.7034 O   0  0  0  0  0  0
  -31.4733  -12.5165   19.1519 H   0  0  0  0  0  0
  -30.3539  -11.4225   19.9213 H   0  0  0  0  0  0
  -29.7723  -11.7399   17.4872 H   0  0  0  0  0  0
  -29.6432  -13.4658   17.7322 H   0  0  0  0  0  0
  -27.8803  -11.2888   18.8944 H   0  0  0  0  0  0
  -27.3687  -12.5437   17.7990 H   0  0  0  0  0  0
  -27.6411  -14.2525   19.4840 H   0  0  0  0  0  0
  -28.7160  -12.1504   21.4386 H   0  0  0  0  0  0
  -28.4454  -13.8328   21.7924 H   0  0  0  0  0  0
  -25.2798   -9.5680   22.4746 H   0  0  0  0  0  0
  -24.0010   -7.4645   22.7470 H   0  0  0  0  0  0
  -21.0827   -8.8839   19.8976 H   0  0  0  0  0  0
  -22.3736  -10.9699   19.6213 H   0  0  0  0  0  0
  -21.2102   -7.6158   23.9702 H   0  0  0  0  0  0
  -21.1431   -6.0519   25.9045 H   0  0  0  0  0  0
  -22.0631   -2.7607   23.2841 H   0  0  0  0  0  0
  -22.4189  -11.9829   22.4672 H   0  0  0  0  0  0
  -21.1208  -13.1247   22.2654 H   0  0  0  0  0  0
  -24.6466  -15.8357   20.5171 H   0  0  0  0  0  0
  -26.2548  -15.6297   20.0445 H   0  0  0  0  0  0
  -26.7188  -32.5475   23.1164 H   0  0  0  0  0  0
  -25.0095  -33.9732   25.0474 H   0  0  0  0  0  0
  -22.7111  -31.3101   21.4088 H   0  0  0  0  0  0
  -23.3740  -35.9652   23.3320 H   0  0  0  0  0  0
  -24.3584  -36.8898   22.2058 H   0  0  0  0  0  0
  -23.7251  -37.6512   23.6641 H   0  0  0  0  0  0
  -26.0970  -31.5591   20.6116 H   0  0  0  0  0  0
  -26.8352  -30.8423   22.0132 H   0  0  0  0  0  0
  -28.1044  -28.9882   21.2233 H   0  0  0  0  0  0
  -26.0292  -25.9477   18.9867 H   0  0  0  0  0  0
  -23.9805  -27.3292   18.9780 H   0  0  0  0  0  0
  -23.7443  -30.6047   19.4048 H   0  0  0  0  0  0
  -22.7525  -29.2529   19.8610 H   0  0  0  0  0  0
  -25.1288  -36.1955   25.0832 H   0  0  0  0  0  0
  -21.0004  -28.3251   24.1410 H   0  0  0  0  0  0
  -20.5683  -26.2297   23.3607 H   0  0  0  0  0  0
  -21.6638  -26.7426   22.1197 H   0  0  0  0  0  0
  -19.6885  -25.6294   21.1238 H   0  0  0  0  0  0
  -19.6662  -27.3205   20.6757 H   0  0  0  0  0  0
  -17.4197  -26.6707   21.4030 H   0  0  0  0  0  0
  -18.0298  -26.0058   22.9019 H   0  0  0  0  0  0
  -19.7935  -30.7270   24.2282 H   0  0  0  0  0  0
  -17.5005  -31.6264   24.5168 H   0  0  0  0  0  0
  -15.5347  -30.2976   23.7631 H   0  0  0  0  0  0
  -15.8692  -28.0806   22.7065 H   0  0  0  0  0  0
  -24.5881  -30.7080   25.7820 H   0  0  0  0  0  0
  -24.8874  -32.2898   26.4905 H   0  0  0  0  0  0
  -25.8010  -30.8928   27.0271 H   0  0  0  0  0  0
  -26.2922  -29.6788   24.1221 H   0  0  0  0  0  0
  -27.4040  -29.7298   25.4704 H   0  0  0  0  0  0
  -27.8776  -30.4355   23.9437 H   0  0  0  0  0  0
  -27.2649  -33.3660   26.2074 H   0  0  0  0  0  0
  -28.3833  -32.6896   25.0320 H   0  0  0  0  0  0
  -28.0721  -31.8492   26.5436 H   0  0  0  0  0  0
  -28.2612  -38.0105   24.7507 H   0  0  0  0  0  0
  -28.1067  -36.2633   24.6296 H   0  0  0  0  0  0
  -27.2309  -37.1475   25.8877 H   0  0  0  0  0  0
  -20.9382  -29.8770   21.6889 H   0  0  0  0  0  0
  -26.0183  -38.2869   24.1362 H   0  0  0  0  0  0
  -27.0970  -18.9072   17.8609 H   0  0  0  0  0  0
  -28.4372  -17.0501   18.7548 H   0  0  0  0  0  0
  -27.2406  -21.1639   18.8052 H   0  0  0  0  0  0
  -30.1954  -19.7479   21.6375 H   0  0  0  0  0  0
  -28.5252  -26.3558   22.1031 H   0  0  0  0  0  0
  -29.3254  -22.0464   21.7739 H   0  0  0  0  0  0
  -28.9006  -15.6341   20.4601 H   0  0  0  0  0  0
  -28.4398  -23.0682   22.7755 H   0  0  0  0  0  0
  1 25  1  0  0  0
  1 30  2  0  0  0
  1 82  1  0  0  0
  2  3  1  0  0  0
  2 25  1  0  0  0
  2 86  1  0  0  0
  2 87  1  0  0  0
  3  4  1  0  0  0
  3 88  1  0  0  0
  3 89  1  0  0  0
  4  5  1  0  0  0
  4 90  1  0  0  0
  4 91  1  0  0  0
  5  6  1  0  0  0
  5 26  1  0  0  0
  5 92  1  0  0  0
  6 25  1  0  0  0
  6 93  1  0  0  0
  6 94  1  0  0  0
  7  8  2  0  0  0
  7 26  1  0  0  0
  7 29  1  0  0  0
  8  9  1  0  0  0
  8 22  1  0  0  0
  9 10  1  0  0  0
  9 27  2  0  0  0
 10 11  2  0  0  0
 10 15  1  0  0  0
 11 12  1  0  0  0
 11 95  1  0  0  0
 12 13  2  0  0  0
 12 96  1  0  0  0
 13 14  1  0  0  0
 13 31  1  0  0  0
 14 15  2  0  0  0
 14 97  1  0  0  0
 15 98  1  0  0  0
 16 17  2  0  0  0
 16 21  1  0  0  0
 16 31  1  0  0  0
 17 18  1  0  0  0
 17 99  1  0  0  0
 18 19  2  0  0  0
 18100  1  0  0  0
 19 20  1  0  0  0
 19 24  1  0  0  0
 20 21  2  0  0  0
 20101  1  0  0  0
 21 23  1  0  0  0
 22 28  1  0  0  0
 22 32  2  0  0  0
 26 27  1  0  0  0
 28102  1  0  0  0
 28103  1  0  0  0
 29104  1  0  0  0
 29105  1  0  0  0
 33 34  1  0  0  0
 33 66  1  0  0  0
 33 70  2  0  0  0
 34 36  1  0  0  0
 34 59  1  0  0  0
 34106  1  0  0  0
 35 44  2  0  0  0
 35 45  1  0  0  0
 35 68  1  0  0  0
 36 56  1  0  0  0
 36107  1  0  0  0
 37 39  1  0  0  0
 37 47  1  0  0  0
 37 66  1  0  0  0
 37108  1  0  0  0
 38 43  2  0  0  0
 38 46  1  0  0  0
 38 47  1  0  0  0
 39 64  1  0  0  0
 39 67  2  0  0  0
 40 52  1  0  0  0
 40 53  2  0  0  0
 40 58  1  0  0  0
 41109  1  0  0  0
 41110  1  0  0  0
 41111  1  0  0  0
 41 48  1  0  0  0
 42 43  1  0  0  0
 42 66  1  0  0  0
 42112  1  0  0  0
 42113  1  0  0  0
 43 44  1  0  0  0
 44114  1  0  0  0
 45 46  2  0  0  0
 45115  1  0  0  0
 46116  1  0  0  0
 47117  1  0  0  0
 47118  1  0  0  0
 48 56  1  0  0  0
 48 65  1  0  0  0
 48119  1  0  0  0
 49 50  1  0  0  0
 49 53  1  0  0  0
 49 64  1  0  0  0
 49120  1  0  0  0
 50 51  1  0  0  0
 50121  1  0  0  0
 50122  1  0  0  0
 51 52  1  0  0  0
 51123  1  0  0  0
 51124  1  0  0  0
 52125  1  0  0  0
 52126  1  0  0  0
 53 54  1  0  0  0
 54 55  2  0  0  0
 54127  1  0  0  0
 55 57  1  0  0  0
 55128  1  0  0  0
 56 69  2  0  0  0
 57 58  2  0  0  0
 57129  1  0  0  0
 58130  1  0  0  0
 59 60  1  0  0  0
 59 61  1  0  0  0
 59 62  1  0  0  0
 60131  1  0  0  0
 60132  1  0  0  0
 60133  1  0  0  0
 61134  1  0  0  0
 61135  1  0  0  0
 61136  1  0  0  0
 62137  1  0  0  0
 62138  1  0  0  0
 62139  1  0  0  0
 63 65  1  0  0  0
 63140  1  0  0  0
 63141  1  0  0  0
 63142  1  0  0  0
 64143  1  0  0  0
 65144  1  0  0  0
 68 77  1  0  0  0
 71 72  2  0  0  0
 71 73  1  0  0  0
 71145  1  0  0  0
 72 75  1  0  0  0
 72146  1  0  0  0
 73 76  2  0  0  0
 73147  1  0  0  0
 74 75  2  0  0  0
 74 76  1  0  0  0
 74148  1  0  0  0
 75 78  1  0  0  0
 76 81  1  0  0  0
 77 79  2  0  0  0
 77149  1  0  0  0
 78 82  1  0  0  0
 78 83  2  0  0  0
 79 80  1  0  0  0
 79 85  1  0  0  0
 80 81  1  0  0  0
 80 84  2  0  0  0
 81150  1  0  0  0
 82151  1  0  0  0
 85152  1  0  0  0
M  ISO  4   1 100  68 101  77 101  82 100
M  END
> <chiral flag>
0

> <version>
0

> <s_m_source_file>
/data/baiqing/PycharmProjects/Reinvent-master-3.2/result/LINK_invent/BTK/process_docking_weight1_custom_product_contain_oxygen_bond_distance_aromatic_linkinvent_7_9_3/rearranged_h_0091.sdf

> <i_m_source_file_index>
29

> <r_mmod_Potential_Energy-OPLS-2005>
-47.5853843688965

> <r_mmod_Stretch_Energy-OPLS-2005>
68.556037902832

> <r_mmod_Bend_Energy-OPLS-2005>
136.766998291016

> <r_mmod_Torsional_Energy-OPLS-2005>
263.045623779297

> <r_mmod_Improper_Torsional_Energy-OPLS-2005>
7.65967035293579

> <r_mmod_Van_der_Waal_Energy-OPLS-2005>
146.851745605469

> <r_mmod_Electrostatic_Energy-OPLS-2005>
-466.14404296875

> <r_mmod_Solvation_Energy-OPLS-2005>
-256.117279052734

> <b_mmod_Minimization_Converged-OPLS-2005>
0

> <r_mmod_RMS_Derivative-OPLS-2005>
4.63127756118774

$$$$
29
                    3D
 Structure written by MMmdl.
169178  0  0  1  0            999 V2000
  -30.7283  -14.3913   20.6150 C   0  0  0  0  0  0
  -30.4213  -12.2633   19.4153 C   0  0  0  0  0  0
  -29.5042  -12.5189   18.2036 C   0  0  0  0  0  0
  -28.0227  -12.3804   18.6088 C   0  0  0  0  0  0
  -27.6723  -13.1958   19.8806 C   0  0  2  0  0  0
  -28.7048  -12.9400   21.0014 C   0  0  0  0  0  0
  -25.2640  -13.8141   20.5637 C   0  0  0  0  0  0
  -24.1868  -13.0449   20.9135 C   0  0  0  0  0  0
  -24.6385  -11.6895   20.8672 C   0  0  0  0  0  0
  -23.9034  -10.4292   21.0357 C   0  0  0  0  0  0
  -24.3590   -9.4234   21.9162 C   0  0  0  0  0  0
  -23.6266   -8.2277   22.0766 C   0  0  0  0  0  0
  -22.4252   -8.0294   21.3561 C   0  0  0  0  0  0
  -21.9869   -9.0256   20.4664 C   0  0  0  0  0  0
  -22.7193  -10.2123   20.3029 C   0  0  0  0  0  0
  -21.6879   -6.0702   22.5273 C   0  0  0  0  0  0
  -21.4030   -6.5604   23.8194 C   0  0  0  0  0  0
  -21.3660   -5.6763   24.9160 C   0  0  0  0  0  0
  -21.6041   -4.3024   24.7233 C   0  0  0  0  0  0
  -21.8826   -3.8114   23.4356 C   0  0  0  0  0  0
  -21.9197   -4.6924   22.3397 C   0  0  0  0  0  0
  -22.7898  -13.5284   21.1799 C   0  0  0  0  0  0
  -22.1676   -4.2106   21.0975 F   0  0  0  0  0  0
  -21.5618   -3.4515   25.7759 F   0  0  0  0  0  0
  -30.0531  -13.2213   20.4693 N   0  0  0  0  0  0
  -26.3066  -12.9279   20.3330 N   0  0  0  0  0  0
  -25.9301  -11.6452   20.5690 N   0  0  0  0  0  0
  -22.0507  -12.8298   22.0341 N   0  0  0  0  0  0
  -25.4372  -15.1854   20.4054 N   0  0  0  0  0  0
  -31.8077  -14.6238   20.0636 O   0  0  0  0  0  0
  -21.6652   -6.8872   21.4247 O   0  0  0  0  0  0
  -22.3614  -14.5584   20.6627 O   0  0  0  0  0  0
  -24.6118  -31.8696   23.2135 C   0  0  0  0  0  0
  -25.9026  -32.4828   23.8417 C   0  0  1  0  0  0
  -27.2404  -27.4843   20.0652 C   0  0  0  0  0  0
  -25.5871  -33.8632   24.2328 N   0  0  0  0  0  0
  -23.3964  -30.4938   21.5519 C   0  0  2  0  0  0
  -24.8431  -28.9645   20.1150 C   0  0  0  0  0  0
  -22.7375  -29.4654   22.4982 C   0  0  0  0  0  0
  -18.0273  -28.1390   22.8484 C   0  0  0  0  0  0
  -24.1475  -36.7335   23.2641 C   0  0  0  0  0  0
  -25.9218  -30.8454   21.3621 C   0  0  0  0  0  0
  -25.9990  -29.4824   20.7122 C   0  0  0  0  0  0
  -27.1977  -28.7405   20.7006 C   0  0  0  0  0  0
  -26.0685  -26.9615   19.4784 C   0  0  0  0  0  0
  -24.8680  -27.6968   19.5046 C   0  0  0  0  0  0
  -23.6044  -29.8292   20.1649 C   0  0  0  0  0  0
  -25.4084  -36.3117   24.0342 C   0  0  1  0  0  0
  -20.5851  -28.3664   23.1321 C   0  0  2  0  0  0
  -20.6754  -26.9404   22.5418 C   0  0  0  0  0  0
  -19.5737  -26.6397   21.5208 C   0  0  0  0  0  0
  -18.1912  -26.7940   22.1611 C   0  0  0  0  0  0
  -19.1517  -28.8846   23.2905 C   0  0  0  0  0  0
  -18.9454  -30.1440   23.8933 C   0  0  0  0  0  0
  -17.6454  -30.6592   24.0583 C   0  0  0  0  0  0
  -25.9010  -34.9481   23.5127 C   0  0  0  0  0  0
  -16.5345  -29.9100   23.6322 C   0  0  0  0  0  0
  -16.7260  -28.6521   23.0336 C   0  0  0  0  0  0
  -26.4465  -31.6603   25.0733 C   0  0  0  0  0  0
  -25.3740  -31.3718   26.1494 C   0  0  0  0  0  0
  -27.0272  -30.3035   24.6098 C   0  0  0  0  0  0
  -27.6057  -32.4316   25.7479 C   0  0  0  0  0  0
  -27.5564  -37.1817   24.8457 C   0  0  0  0  0  0
  -21.4106  -29.3023   22.3717 N   0  0  0  0  0  0
  -26.4267  -37.3798   23.9414 N   0  0  0  0  0  0
  -24.6608  -31.0840   22.1013 N   0  0  0  0  0  0
  -23.4157  -28.8178   23.3007 O   0  0  0  0  0  0
  -28.4102  -26.7716   20.0713 O   0  0  0  0  0  0
  -26.5581  -34.8940   22.4693 O   0  0  0  0  0  0
  -23.5321  -32.1439   23.7560 O   0  0  0  0  0  0
  -28.3641  -18.5642   20.9746 C   0  0  0  0  0  0
  -28.6486  -17.2318   21.3238 C   0  0  0  0  0  0
  -30.8964  -17.4713   20.4296 C   0  0  0  0  0  0
  -29.3360  -19.3742   20.3317 C   0  0  0  0  0  0
  -29.9086  -16.6661   21.0412 C   0  0  0  0  0  0
  -30.6035  -18.7997   20.0645 C   0  0  0  0  0  0
  -30.0099  -21.8636   20.5669 C   0  0  0  0  0  0
  -30.9503  -25.4383   20.1379 C   0  0  0  0  0  0
  -30.9385  -24.1470   20.9680 C   0  0  0  0  0  0
  -29.1618  -23.9542   19.3715 C   0  0  0  0  0  0
  -29.9160  -25.2377   19.0137 C   0  0  1  0  0  0
  -27.6091  -21.2568   20.2752 C   0  0  0  0  0  0
  -28.9580  -26.4245   18.8028 C   0  0  0  0  0  0
  -29.0609  -20.8405   19.9059 C   0  0  2  0  0  0
  -30.0454  -23.2004   20.2717 N   0  0  0  0  0  0
  -30.1028  -15.3005   21.3783 N   0  0  0  0  0  0
  -30.8203  -21.4262   21.5472 N   0  3  0  0  0  0
  -29.2363  -20.8581   18.4350 N   0  3  0  0  0  0
  -31.5449  -19.5425   19.4324 F   0  0  0  0  0  0
  -31.4702  -12.3363   19.1238 H   0  0  0  0  0  0
  -30.2862  -11.2419   19.7800 H   0  0  0  0  0  0
  -29.7343  -11.8195   17.3997 H   0  0  0  0  0  0
  -29.6973  -13.5147   17.8011 H   0  0  0  0  0  0
  -27.8242  -11.3221   18.7833 H   0  0  0  0  0  0
  -27.3839  -12.6776   17.7786 H   0  0  0  0  0  0
  -27.7311  -14.2499   19.6117 H   0  0  0  0  0  0
  -28.6568  -11.8981   21.3237 H   0  0  0  0  0  0
  -28.4538  -13.5192   21.8897 H   0  0  0  0  0  0
  -25.2726   -9.5698   22.4743 H   0  0  0  0  0  0
  -23.9962   -7.4663   22.7487 H   0  0  0  0  0  0
  -21.0790   -8.8745   19.8993 H   0  0  0  0  0  0
  -22.3634  -10.9636   19.6125 H   0  0  0  0  0  0
  -21.2044   -7.6115   23.9679 H   0  0  0  0  0  0
  -21.1463   -6.0501   25.9046 H   0  0  0  0  0  0
  -22.0599   -2.7576   23.2873 H   0  0  0  0  0  0
  -22.4084  -11.9976   22.4762 H   0  0  0  0  0  0
  -21.1127  -13.1376   22.2510 H   0  0  0  0  0  0
  -24.6672  -15.8371   20.5050 H   0  0  0  0  0  0
  -26.2779  -15.6156   20.0404 H   0  0  0  0  0  0
  -26.7110  -32.5553   23.1199 H   0  0  0  0  0  0
  -24.9963  -33.9806   25.0428 H   0  0  0  0  0  0
  -22.6810  -31.3074   21.4163 H   0  0  0  0  0  0
  -23.3729  -35.9675   23.3301 H   0  0  0  0  0  0
  -24.3590  -36.8960   22.2058 H   0  0  0  0  0  0
  -23.7246  -37.6545   23.6667 H   0  0  0  0  0  0
  -26.0287  -31.6084   20.5904 H   0  0  0  0  0  0
  -26.8114  -30.9036   21.9758 H   0  0  0  0  0  0
  -28.0920  -29.1351   21.1615 H   0  0  0  0  0  0
  -26.0775  -25.9871   19.0105 H   0  0  0  0  0  0
  -23.9747  -27.2858   19.0543 H   0  0  0  0  0  0
  -23.7168  -30.6087   19.4102 H   0  0  0  0  0  0
  -22.7283  -29.2518   19.8636 H   0  0  0  0  0  0
  -25.1261  -36.1970   25.0836 H   0  0  0  0  0  0
  -20.9952  -28.3265   24.1439 H   0  0  0  0  0  0
  -20.5659  -26.2282   23.3607 H   0  0  0  0  0  0
  -21.6632  -26.7446   22.1224 H   0  0  0  0  0  0
  -19.6898  -25.6316   21.1226 H   0  0  0  0  0  0
  -19.6677  -27.3215   20.6743 H   0  0  0  0  0  0
  -17.4177  -26.6694   21.4013 H   0  0  0  0  0  0
  -18.0303  -26.0078   22.8998 H   0  0  0  0  0  0
  -19.7927  -30.7247   24.2327 H   0  0  0  0  0  0
  -17.5016  -31.6281   24.5160 H   0  0  0  0  0  0
  -15.5351  -30.3015   23.7641 H   0  0  0  0  0  0
  -15.8656  -28.0859   22.7026 H   0  0  0  0  0  0
  -24.5878  -30.7106   25.7832 H   0  0  0  0  0  0
  -24.8985  -32.2888   26.4983 H   0  0  0  0  0  0
  -25.8092  -30.8840   27.0222 H   0  0  0  0  0  0
  -26.2794  -29.6806   24.1170 H   0  0  0  0  0  0
  -27.4053  -29.7265   25.4549 H   0  0  0  0  0  0
  -27.8636  -30.4345   23.9227 H   0  0  0  0  0  0
  -27.2681  -33.3601   26.2099 H   0  0  0  0  0  0
  -28.3829  -32.6898   25.0271 H   0  0  0  0  0  0
  -28.0761  -31.8418   26.5355 H   0  0  0  0  0  0
  -28.2585  -38.0109   24.7506 H   0  0  0  0  0  0
  -28.1055  -36.2656   24.6246 H   0  0  0  0  0  0
  -27.2320  -37.1440   25.8872 H   0  0  0  0  0  0
  -20.9253  -29.8747   21.6947 H   0  0  0  0  0  0
  -26.0155  -38.2876   24.1418 H   0  0  0  0  0  0
  -27.3761  -18.9291   21.2159 H   0  0  0  0  0  0
  -27.8744  -16.6417   21.7942 H   0  0  0  0  0  0
  -31.8825  -17.0835   20.2142 H   0  0  0  0  0  0
  -31.9434  -25.6278   19.7264 H   0  0  0  0  0  0
  -30.7075  -26.2890   20.7770 H   0  0  0  0  0  0
  -30.5476  -24.3359   21.9696 H   0  0  0  0  0  0
  -31.9490  -23.7496   21.0722 H   0  0  0  0  0  0
  -28.8939  -23.4117   18.4672 H   0  0  0  0  0  0
  -28.2461  -24.1986   19.9081 H   0  0  0  0  0  0
  -30.4483  -25.0620   18.0770 H   0  0  0  0  0  0
  -27.4752  -21.2590   21.3581 H   0  0  0  0  0  0
  -26.8684  -20.5791   19.8485 H   0  0  0  0  0  0
  -27.3208  -22.2405   19.9204 H   0  0  0  0  0  0
  -28.1922  -26.1593   18.0713 H   0  0  0  0  0  0
  -29.4970  -27.2840   18.4017 H   0  0  0  0  0  0
  -29.3488  -14.8895   21.9078 H   0  0  0  0  0  0
  -30.8068  -20.4591   21.8349 H   0  0  0  0  0  0
  -31.4703  -22.0408   22.0133 H   0  0  0  0  0  0
  -30.1770  -20.5603   18.2234 H   0  0  0  0  0  0
  -29.0822  -21.7590   18.0210 H   0  0  0  0  0  0
  -28.6072  -20.2078   17.9959 H   0  0  0  0  0  0
  1 25  1  0  0  0
  1 30  2  0  0  0
  1 86  1  0  0  0
  2  3  1  0  0  0
  2 25  1  0  0  0
  2 90  1  0  0  0
  2 91  1  0  0  0
  3  4  1  0  0  0
  3 92  1  0  0  0
  3 93  1  0  0  0
  4  5  1  0  0  0
  4 94  1  0  0  0
  4 95  1  0  0  0
  5  6  1  0  0  0
  5 26  1  0  0  0
  5 96  1  0  0  0
  6 25  1  0  0  0
  6 97  1  0  0  0
  6 98  1  0  0  0
  7  8  2  0  0  0
  7 26  1  0  0  0
  7 29  1  0  0  0
  8  9  1  0  0  0
  8 22  1  0  0  0
  9 10  1  0  0  0
  9 27  2  0  0  0
 10 11  2  0  0  0
 10 15  1  0  0  0
 11 12  1  0  0  0
 11 99  1  0  0  0
 12 13  2  0  0  0
 12100  1  0  0  0
 13 14  1  0  0  0
 13 31  1  0  0  0
 14 15  2  0  0  0
 14101  1  0  0  0
 15102  1  0  0  0
 16 17  2  0  0  0
 16 21  1  0  0  0
 16 31  1  0  0  0
 17 18  1  0  0  0
 17103  1  0  0  0
 18 19  2  0  0  0
 18104  1  0  0  0
 19 20  1  0  0  0
 19 24  1  0  0  0
 20 21  2  0  0  0
 20105  1  0  0  0
 21 23  1  0  0  0
 22 28  1  0  0  0
 22 32  2  0  0  0
 26 27  1  0  0  0
 28106  1  0  0  0
 28107  1  0  0  0
 29108  1  0  0  0
 29109  1  0  0  0
 33 34  1  0  0  0
 33 66  1  0  0  0
 33 70  2  0  0  0
 34 36  1  0  0  0
 34 59  1  0  0  0
 34110  1  0  0  0
 35 44  2  0  0  0
 35 45  1  0  0  0
 35 68  1  0  0  0
 36 56  1  0  0  0
 36111  1  0  0  0
 37 39  1  0  0  0
 37 47  1  0  0  0
 37 66  1  0  0  0
 37112  1  0  0  0
 38 43  2  0  0  0
 38 46  1  0  0  0
 38 47  1  0  0  0
 39 64  1  0  0  0
 39 67  2  0  0  0
 40 52  1  0  0  0
 40 53  2  0  0  0
 40 58  1  0  0  0
 41113  1  0  0  0
 41114  1  0  0  0
 41115  1  0  0  0
 41 48  1  0  0  0
 42 43  1  0  0  0
 42 66  1  0  0  0
 42116  1  0  0  0
 42117  1  0  0  0
 43 44  1  0  0  0
 44118  1  0  0  0
 45 46  2  0  0  0
 45119  1  0  0  0
 46120  1  0  0  0
 47121  1  0  0  0
 47122  1  0  0  0
 48 56  1  0  0  0
 48 65  1  0  0  0
 48123  1  0  0  0
 49 50  1  0  0  0
 49 53  1  0  0  0
 49 64  1  0  0  0
 49124  1  0  0  0
 50 51  1  0  0  0
 50125  1  0  0  0
 50126  1  0  0  0
 51 52  1  0  0  0
 51127  1  0  0  0
 51128  1  0  0  0
 52129  1  0  0  0
 52130  1  0  0  0
 53 54  1  0  0  0
 54 55  2  0  0  0
 54131  1  0  0  0
 55 57  1  0  0  0
 55132  1  0  0  0
 56 69  2  0  0  0
 57 58  2  0  0  0
 57133  1  0  0  0
 58134  1  0  0  0
 59 60  1  0  0  0
 59 61  1  0  0  0
 59 62  1  0  0  0
 60135  1  0  0  0
 60136  1  0  0  0
 60137  1  0  0  0
 61138  1  0  0  0
 61139  1  0  0  0
 61140  1  0  0  0
 62141  1  0  0  0
 62142  1  0  0  0
 62143  1  0  0  0
 63 65  1  0  0  0
 63144  1  0  0  0
 63145  1  0  0  0
 63146  1  0  0  0
 64147  1  0  0  0
 65148  1  0  0  0
 68 83  1  0  0  0
 71 72  2  0  0  0
 71 74  1  0  0  0
 71149  1  0  0  0
 72 75  1  0  0  0
 72150  1  0  0  0
 73 75  2  0  0  0
 73 76  1  0  0  0
 73151  1  0  0  0
 74 76  2  0  0  0
 74 84  1  0  0  0
 75 86  1  0  0  0
 76 89  1  0  0  0
 77 85  1  0  0  0
 77 87  2  0  0  0
 77 84  1  0  0  0
 78 79  1  0  0  0
 78 81  1  0  0  0
 78152  1  0  0  0
 78153  1  0  0  0
 79 85  1  0  0  0
 79154  1  0  0  0
 79155  1  0  0  0
 80 81  1  0  0  0
 80 85  1  0  0  0
 80156  1  0  0  0
 80157  1  0  0  0
 81 83  1  0  0  0
 81158  1  0  0  0
 82159  1  0  0  0
 82160  1  0  0  0
 82161  1  0  0  0
 82 84  1  0  0  0
 83162  1  0  0  0
 83163  1  0  0  0
 84 88  1  0  0  0
 86164  1  0  0  0
 87165  1  0  0  0
 87166  1  0  0  0
 88167  1  0  0  0
 88168  1  0  0  0
 88169  1  0  0  0
M  CHG  2  87   1  88   1
M  ISO  4   1 100  68 101  83 101  86 100
M  END
> <chiral flag>
0

> <version>
0

> <s_m_source_file>
/data/baiqing/PycharmProjects/Reinvent-master-3.2/result/LINK_invent/BTK/process_docking_weight1_custom_product_contain_oxygen_bond_distance_aromatic_linkinvent_7_9_3/rearranged_h_0091.sdf

> <i_m_source_file_index>
30

> <r_mmod_Potential_Energy-OPLS-2005>
-375.757141113281

> <r_mmod_Stretch_Energy-OPLS-2005>
40.9169425964355

> <r_mmod_Bend_Energy-OPLS-2005>
126.443054199219

> <r_mmod_Torsional_Energy-OPLS-2005>
324.392700195312

> <r_mmod_Improper_Torsional_Energy-OPLS-2005>
5.44303369522095

> <r_mmod_Van_der_Waal_Energy-OPLS-2005>
174.660751342773

> <r_mmod_Electrostatic_Energy-OPLS-2005>
-26.6342887878418

> <r_mmod_Solvation_Energy-OPLS-2005>
-1028.75817871094

> <b_mmod_Minimization_Converged-OPLS-2005>
0

> <r_mmod_RMS_Derivative-OPLS-2005>
3.56034803390503

$$$$
30
                    3D
 Structure written by MMmdl.
158167  0  0  1  0            999 V2000
  -30.6000  -14.8087   20.5145 C   0  0  0  0  0  0
  -30.4286  -12.5071   19.4908 C   0  0  0  0  0  0
  -29.5081  -12.5269   18.2522 C   0  0  0  0  0  0
  -28.0343  -12.3422   18.6589 C   0  0  0  0  0  0
  -27.6338  -13.2425   19.8560 C   0  0  2  0  0  0
  -28.6741  -13.1890   20.9938 C   0  0  0  0  0  0
  -25.2465  -13.8210   20.5739 C   0  0  0  0  0  0
  -24.1760  -13.0441   20.9208 C   0  0  0  0  0  0
  -24.6361  -11.6923   20.8763 C   0  0  0  0  0  0
  -23.9069  -10.4280   21.0413 C   0  0  0  0  0  0
  -24.3634   -9.4198   21.9184 C   0  0  0  0  0  0
  -23.6295   -8.2238   22.0764 C   0  0  0  0  0  0
  -22.4278   -8.0273   21.3560 C   0  0  0  0  0  0
  -21.9924   -9.0255   20.4672 C   0  0  0  0  0  0
  -22.7253  -10.2121   20.3079 C   0  0  0  0  0  0
  -21.6840   -6.0759   22.5291 C   0  0  0  0  0  0
  -21.3987   -6.5660   23.8228 C   0  0  0  0  0  0
  -21.3649   -5.6802   24.9185 C   0  0  0  0  0  0
  -21.6059   -4.3074   24.7231 C   0  0  0  0  0  0
  -21.8809   -3.8171   23.4345 C   0  0  0  0  0  0
  -21.9176   -4.6987   22.3404 C   0  0  0  0  0  0
  -22.7784  -13.5209   21.1858 C   0  0  0  0  0  0
  -22.1656   -4.2178   21.0992 F   0  0  0  0  0  0
  -21.5620   -3.4555   25.7747 F   0  0  0  0  0  0
  -29.9734  -13.5729   20.4238 N   0  0  0  0  0  0
  -26.2885  -12.9436   20.3321 N   0  0  0  0  0  0
  -25.9294  -11.6562   20.5782 N   0  0  0  0  0  0
  -22.0439  -12.8184   22.0418 N   0  0  0  0  0  0
  -25.4172  -15.1939   20.4231 N   0  0  0  0  0  0
  -31.7241  -14.9293   20.0138 O   0  0  0  0  0  0
  -21.6611   -6.8903   21.4264 O   0  0  0  0  0  0
  -22.3460  -14.5530   20.6713 O   0  0  0  0  0  0
  -24.6421  -31.8487   23.1933 C   0  0  0  0  0  0
  -25.9184  -32.4750   23.8309 C   0  0  1  0  0  0
  -27.2146  -27.1717   20.1494 C   0  0  0  0  0  0
  -25.5927  -33.8549   24.2226 N   0  0  0  0  0  0
  -23.4471  -30.4644   21.5430 C   0  0  2  0  0  0
  -24.8970  -28.9052   20.1090 C   0  0  0  0  0  0
  -22.7574  -29.4576   22.4952 C   0  0  0  0  0  0
  -18.0284  -28.1407   22.8492 C   0  0  0  0  0  0
  -24.1510  -36.7296   23.2631 C   0  0  0  0  0  0
  -26.0015  -30.7314   21.3873 C   0  0  0  0  0  0
  -26.0739  -29.3456   20.7309 C   0  0  0  0  0  0
  -27.2379  -28.4904   20.7422 C   0  0  0  0  0  0
  -26.0287  -26.8508   19.4486 C   0  0  0  0  0  0
  -24.8826  -27.6671   19.4541 C   0  0  0  0  0  0
  -23.6701  -29.7986   20.1602 C   0  0  0  0  0  0
  -25.4134  -36.3068   24.0320 C   0  0  1  0  0  0
  -20.5903  -28.3732   23.1278 C   0  0  2  0  0  0
  -20.6781  -26.9442   22.5431 C   0  0  0  0  0  0
  -19.5758  -26.6400   21.5238 C   0  0  0  0  0  0
  -18.1933  -26.7943   22.1636 C   0  0  0  0  0  0
  -19.1540  -28.8893   23.2869 C   0  0  0  0  0  0
  -18.9451  -30.1486   23.8907 C   0  0  0  0  0  0
  -17.6441  -30.6601   24.0566 C   0  0  0  0  0  0
  -25.9077  -34.9438   23.5090 C   0  0  0  0  0  0
  -16.5339  -29.9094   23.6320 C   0  0  0  0  0  0
  -16.7263  -28.6507   23.0358 C   0  0  0  0  0  0
  -26.4462  -31.6582   25.0735 C   0  0  0  0  0  0
  -25.3630  -31.3753   26.1416 C   0  0  0  0  0  0
  -27.0253  -30.2974   24.6236 C   0  0  0  0  0  0
  -27.6024  -32.4289   25.7507 C   0  0  0  0  0  0
  -27.5592  -37.1805   24.8441 C   0  0  0  0  0  0
  -21.4261  -29.3055   22.3666 N   0  0  0  0  0  0
  -26.4308  -37.3766   23.9377 N   0  0  0  0  0  0
  -24.7175  -31.0331   22.0981 N   0  0  0  0  0  0
  -23.4234  -28.8111   23.3071 O   0  0  0  0  0  0
  -28.1979  -26.1278   20.2694 O   0  0  0  0  0  0
  -26.5678  -34.8926   22.4678 O   0  0  0  0  0  0
  -23.5536  -32.1345   23.7153 O   0  0  0  0  0  0
  -31.7798  -19.0051   22.1680 C   0  0  0  0  0  0
  -31.0731  -20.0962   21.6075 C   0  0  0  0  0  0
  -29.4969  -18.5118   20.6178 C   0  0  0  0  0  0
  -31.3179  -17.6832   21.9824 C   0  0  0  0  0  0
  -30.2680  -17.3594   21.1200 C   0  0  0  0  0  0
  -29.8616  -19.9234   20.8884 C   0  0  0  0  0  0
  -27.6879  -24.8269   20.6688 C   0  0  0  0  0  0
  -28.0107  -23.4522   20.8030 C   0  0  0  0  0  0
  -29.2361  -22.5501   20.6189 C   0  0  0  0  0  0
  -32.7318  -16.1950   23.4220 C   0  0  0  0  0  0
  -30.4549  -15.6415   22.6368 C   0  0  0  0  0  0
  -34.0465  -16.8631   23.0397 C   0  0  0  0  0  0
  -31.5868  -16.5594   22.7994 N   0  0  0  0  0  0
  -30.0225  -15.8686   21.2461 N   0  0  0  0  0  0
  -29.0076  -21.1486   20.6083 N   0  0  0  0  0  0
  -30.3757  -22.9995   20.5075 O   0  0  0  0  0  0
  -32.7598  -15.2841   24.2543 O   0  0  0  0  0  0
  -26.9707  -22.7504   21.2852 O   0  0  0  0  0  0
  -31.4646  -12.6376   19.1811 H   0  0  0  0  0  0
  -30.3921  -11.5327   19.9822 H   0  0  0  0  0  0
  -29.7960  -11.7442   17.5508 H   0  0  0  0  0  0
  -29.6260  -13.4715   17.7223 H   0  0  0  0  0  0
  -27.8911  -11.2920   18.9233 H   0  0  0  0  0  0
  -27.3810  -12.5326   17.8058 H   0  0  0  0  0  0
  -27.6218  -14.2654   19.4759 H   0  0  0  0  0  0
  -28.7206  -12.1901   21.4273 H   0  0  0  0  0  0
  -28.3764  -13.8584   21.7996 H   0  0  0  0  0  0
  -25.2763   -9.5641   22.4764 H   0  0  0  0  0  0
  -23.9972   -7.4628   22.7477 H   0  0  0  0  0  0
  -21.0839   -8.8799   19.8979 H   0  0  0  0  0  0
  -22.3708  -10.9680   19.6199 H   0  0  0  0  0  0
  -21.1975   -7.6173   23.9739 H   0  0  0  0  0  0
  -21.1480   -6.0544   25.9096 H   0  0  0  0  0  0
  -22.0594   -2.7637   23.2847 H   0  0  0  0  0  0
  -22.4018  -11.9777   22.4710 H   0  0  0  0  0  0
  -21.1112  -13.1262   22.2731 H   0  0  0  0  0  0
  -24.6611  -15.8576   20.5599 H   0  0  0  0  0  0
  -26.2879  -15.6353   20.1549 H   0  0  0  0  0  0
  -26.7264  -32.5346   23.1047 H   0  0  0  0  0  0
  -24.9930  -33.9657   25.0273 H   0  0  0  0  0  0
  -22.7485  -31.2902   21.3914 H   0  0  0  0  0  0
  -23.3780  -35.9621   23.3281 H   0  0  0  0  0  0
  -24.3601  -36.8935   22.2044 H   0  0  0  0  0  0
  -23.7282  -37.6497   23.6678 H   0  0  0  0  0  0
  -26.1371  -31.4802   20.6049 H   0  0  0  0  0  0
  -26.8832  -30.7907   22.0158 H   0  0  0  0  0  0
  -28.1329  -28.8057   21.2606 H   0  0  0  0  0  0
  -25.9558  -25.9014   18.9398 H   0  0  0  0  0  0
  -23.9861  -27.3287   18.9538 H   0  0  0  0  0  0
  -23.8043  -30.5772   19.4081 H   0  0  0  0  0  0
  -22.7845  -29.2377   19.8553 H   0  0  0  0  0  0
  -25.1331  -36.1883   25.0820 H   0  0  0  0  0  0
  -20.9967  -28.3294   24.1410 H   0  0  0  0  0  0
  -20.5699  -26.2330   23.3631 H   0  0  0  0  0  0
  -21.6647  -26.7457   22.1228 H   0  0  0  0  0  0
  -19.6930  -25.6314   21.1273 H   0  0  0  0  0  0
  -19.6706  -27.3207   20.6773 H   0  0  0  0  0  0
  -17.4206  -26.6698   21.4031 H   0  0  0  0  0  0
  -18.0326  -26.0091   22.9042 H   0  0  0  0  0  0
  -19.7921  -30.7302   24.2311 H   0  0  0  0  0  0
  -17.4978  -31.6277   24.5169 H   0  0  0  0  0  0
  -15.5345  -30.2988   23.7642 H   0  0  0  0  0  0
  -15.8670  -28.0820   22.7084 H   0  0  0  0  0  0
  -24.5905  -30.6982   25.7743 H   0  0  0  0  0  0
  -24.8700  -32.2917   26.4663 H   0  0  0  0  0  0
  -25.7915  -30.9075   27.0289 H   0  0  0  0  0  0
  -26.2830  -29.6786   24.1193 H   0  0  0  0  0  0
  -27.3803  -29.7159   25.4741 H   0  0  0  0  0  0
  -27.8769  -30.4196   23.9556 H   0  0  0  0  0  0
  -27.2681  -33.3636   26.1990 H   0  0  0  0  0  0
  -28.3890  -32.6739   25.0374 H   0  0  0  0  0  0
  -28.0614  -31.8451   26.5474 H   0  0  0  0  0  0
  -28.2577  -38.0129   24.7517 H   0  0  0  0  0  0
  -28.1133  -36.2662   24.6253 H   0  0  0  0  0  0
  -27.2309  -37.1435   25.8843 H   0  0  0  0  0  0
  -20.9486  -29.8693   21.6780 H   0  0  0  0  0  0
  -26.0182  -38.2839   24.1371 H   0  0  0  0  0  0
  -32.6036  -19.2130   22.8333 H   0  0  0  0  0  0
  -31.4363  -21.0850   21.8504 H   0  0  0  0  0  0
  -28.5629  -18.3172   20.1111 H   0  0  0  0  0  0
  -26.6712  -25.0042   20.9978 H   0  0  0  0  0  0
  -29.6458  -15.9404   23.3042 H   0  0  0  0  0  0
  -30.7078  -14.6130   22.9147 H   0  0  0  0  0  0
  -34.8519  -16.1344   23.1430 H   0  0  0  0  0  0
  -34.2673  -17.7216   23.6721 H   0  0  0  0  0  0
  -34.0273  -17.1769   21.9985 H   0  0  0  0  0  0
  -28.0348  -20.9270   20.4436 H   0  0  0  0  0  0
  -27.3260  -21.9715   21.6980 H   0  0  0  0  0  0
  1 25  1  0  0  0
  1 30  2  0  0  0
  1 84  1  0  0  0
  2  3  1  0  0  0
  2 25  1  0  0  0
  2 89  1  0  0  0
  2 90  1  0  0  0
  3  4  1  0  0  0
  3 91  1  0  0  0
  3 92  1  0  0  0
  4  5  1  0  0  0
  4 93  1  0  0  0
  4 94  1  0  0  0
  5  6  1  0  0  0
  5 26  1  0  0  0
  5 95  1  0  0  0
  6 25  1  0  0  0
  6 96  1  0  0  0
  6 97  1  0  0  0
  7  8  2  0  0  0
  7 26  1  0  0  0
  7 29  1  0  0  0
  8  9  1  0  0  0
  8 22  1  0  0  0
  9 10  1  0  0  0
  9 27  2  0  0  0
 10 11  2  0  0  0
 10 15  1  0  0  0
 11 12  1  0  0  0
 11 98  1  0  0  0
 12 13  2  0  0  0
 12 99  1  0  0  0
 13 14  1  0  0  0
 13 31  1  0  0  0
 14 15  2  0  0  0
 14100  1  0  0  0
 15101  1  0  0  0
 16 17  2  0  0  0
 16 21  1  0  0  0
 16 31  1  0  0  0
 17 18  1  0  0  0
 17102  1  0  0  0
 18 19  2  0  0  0
 18103  1  0  0  0
 19 20  1  0  0  0
 19 24  1  0  0  0
 20 21  2  0  0  0
 20104  1  0  0  0
 21 23  1  0  0  0
 22 28  1  0  0  0
 22 32  2  0  0  0
 26 27  1  0  0  0
 28105  1  0  0  0
 28106  1  0  0  0
 29107  1  0  0  0
 29108  1  0  0  0
 33 34  1  0  0  0
 33 66  1  0  0  0
 33 70  2  0  0  0
 34 36  1  0  0  0
 34 59  1  0  0  0
 34109  1  0  0  0
 35 44  2  0  0  0
 35 45  1  0  0  0
 35 68  1  0  0  0
 36 56  1  0  0  0
 36110  1  0  0  0
 37 39  1  0  0  0
 37 47  1  0  0  0
 37 66  1  0  0  0
 37111  1  0  0  0
 38 43  2  0  0  0
 38 46  1  0  0  0
 38 47  1  0  0  0
 39 64  1  0  0  0
 39 67  2  0  0  0
 40 52  1  0  0  0
 40 53  2  0  0  0
 40 58  1  0  0  0
 41112  1  0  0  0
 41113  1  0  0  0
 41114  1  0  0  0
 41 48  1  0  0  0
 42 43  1  0  0  0
 42 66  1  0  0  0
 42115  1  0  0  0
 42116  1  0  0  0
 43 44  1  0  0  0
 44117  1  0  0  0
 45 46  2  0  0  0
 45118  1  0  0  0
 46119  1  0  0  0
 47120  1  0  0  0
 47121  1  0  0  0
 48 56  1  0  0  0
 48 65  1  0  0  0
 48122  1  0  0  0
 49 50  1  0  0  0
 49 53  1  0  0  0
 49 64  1  0  0  0
 49123  1  0  0  0
 50 51  1  0  0  0
 50124  1  0  0  0
 50125  1  0  0  0
 51 52  1  0  0  0
 51126  1  0  0  0
 51127  1  0  0  0
 52128  1  0  0  0
 52129  1  0  0  0
 53 54  1  0  0  0
 54 55  2  0  0  0
 54130  1  0  0  0
 55 57  1  0  0  0
 55131  1  0  0  0
 56 69  2  0  0  0
 57 58  2  0  0  0
 57132  1  0  0  0
 58133  1  0  0  0
 59 60  1  0  0  0
 59 61  1  0  0  0
 59 62  1  0  0  0
 60134  1  0  0  0
 60135  1  0  0  0
 60136  1  0  0  0
 61137  1  0  0  0
 61138  1  0  0  0
 61139  1  0  0  0
 62140  1  0  0  0
 62141  1  0  0  0
 62142  1  0  0  0
 63 65  1  0  0  0
 63143  1  0  0  0
 63144  1  0  0  0
 63145  1  0  0  0
 64146  1  0  0  0
 65147  1  0  0  0
 68 77  1  0  0  0
 71 72  2  0  0  0
 71 74  1  0  0  0
 71148  1  0  0  0
 72 76  1  0  0  0
 72149  1  0  0  0
 73 75  1  0  0  0
 73 76  2  0  0  0
 73150  1  0  0  0
 74 75  2  0  0  0
 74 83  1  0  0  0
 75 84  1  0  0  0
 76 85  1  0  0  0
 77 78  2  0  0  0
 77151  1  0  0  0
 78 79  1  0  0  0
 78 88  1  0  0  0
 79 85  1  0  0  0
 79 86  2  0  0  0
 80 82  1  0  0  0
 80 83  1  0  0  0
 80 87  2  0  0  0
 81 83  1  0  0  0
 81 84  1  0  0  0
 81152  1  0  0  0
 81153  1  0  0  0
 82154  1  0  0  0
 82155  1  0  0  0
 82156  1  0  0  0
 85157  1  0  0  0
 88158  1  0  0  0
M  ISO  4   1 100  68 101  77 101  84 100
M  END
> <chiral flag>
0

> <version>
0

> <s_m_source_file>
/data/baiqing/PycharmProjects/Reinvent-master-3.2/result/LINK_invent/BTK/process_docking_weight1_custom_product_contain_oxygen_bond_distance_aromatic_linkinvent_7_9_3/rearranged_h_0091.sdf

> <i_m_source_file_index>
31

> <r_mmod_Potential_Energy-OPLS-2005>
701.4697265625

> <r_mmod_Stretch_Energy-OPLS-2005>
193.932540893555

> <r_mmod_Bend_Energy-OPLS-2005>
400.341888427734

> <r_mmod_Torsional_Energy-OPLS-2005>
368.220184326172

> <r_mmod_Improper_Torsional_Energy-OPLS-2005>
16.6602725982666

> <r_mmod_Van_der_Waal_Energy-OPLS-2005>
157.831771850586

> <r_mmod_Electrostatic_Energy-OPLS-2005>
-338.101318359375

> <r_mmod_Solvation_Energy-OPLS-2005>
-242.827484130859

> <b_mmod_Minimization_Converged-OPLS-2005>
0

> <r_mmod_RMS_Derivative-OPLS-2005>
5.81089305877686

$$$$
31
                    3D
 Structure written by MMmdl.
153161  0  0  1  0            999 V2000
  -30.5745  -14.7388   20.4874 C   0  0  0  0  0  0
  -30.4485  -12.4531   19.4651 C   0  0  0  0  0  0
  -29.5151  -12.5234   18.2340 C   0  0  0  0  0  0
  -28.0394  -12.3448   18.6440 C   0  0  0  0  0  0
  -27.6516  -13.2232   19.8626 C   0  0  2  0  0  0
  -28.6976  -13.1064   20.9938 C   0  0  0  0  0  0
  -25.2556  -13.8180   20.5697 C   0  0  0  0  0  0
  -24.1828  -13.0439   20.9190 C   0  0  0  0  0  0
  -24.6404  -11.6911   20.8739 C   0  0  0  0  0  0
  -23.9071  -10.4295   21.0408 C   0  0  0  0  0  0
  -24.3624   -9.4209   21.9184 C   0  0  0  0  0  0
  -23.6296   -8.2248   22.0752 C   0  0  0  0  0  0
  -22.4275   -8.0291   21.3544 C   0  0  0  0  0  0
  -21.9911   -9.0265   20.4644 C   0  0  0  0  0  0
  -22.7243  -10.2140   20.3057 C   0  0  0  0  0  0
  -21.6853   -6.0737   22.5276 C   0  0  0  0  0  0
  -21.4017   -6.5643   23.8211 C   0  0  0  0  0  0
  -21.3660   -5.6790   24.9173 C   0  0  0  0  0  0
  -21.6044   -4.3053   24.7222 C   0  0  0  0  0  0
  -21.8821   -3.8144   23.4345 C   0  0  0  0  0  0
  -21.9193   -4.6962   22.3398 C   0  0  0  0  0  0
  -22.7851  -13.5236   21.1853 C   0  0  0  0  0  0
  -22.1664   -4.2146   21.0975 F   0  0  0  0  0  0
  -21.5620   -3.4539   25.7738 F   0  0  0  0  0  0
  -30.0037  -13.4850   20.4293 N   0  0  0  0  0  0
  -26.2988  -12.9369   20.3322 N   0  0  0  0  0  0
  -25.9337  -11.6518   20.5759 N   0  0  0  0  0  0
  -22.0489  -12.8227   22.0408 N   0  0  0  0  0  0
  -25.4269  -15.1905   20.4128 N   0  0  0  0  0  0
  -31.7325  -14.9168   20.0958 O   0  0  0  0  0  0
  -21.6641   -6.8885   21.4243 O   0  0  0  0  0  0
  -22.3542  -14.5547   20.6704 O   0  0  0  0  0  0
  -24.6308  -31.8539   23.1986 C   0  0  0  0  0  0
  -25.9127  -32.4752   23.8335 C   0  0  1  0  0  0
  -27.2266  -27.2742   20.1249 C   0  0  0  0  0  0
  -25.5924  -33.8557   24.2261 N   0  0  0  0  0  0
  -23.4296  -30.4749   21.5407 C   0  0  2  0  0  0
  -24.8824  -28.9247   20.1075 C   0  0  0  0  0  0
  -22.7508  -29.4580   22.4898 C   0  0  0  0  0  0
  -18.0292  -28.1385   22.8475 C   0  0  0  0  0  0
  -24.1489  -36.7285   23.2637 C   0  0  0  0  0  0
  -25.9750  -30.7708   21.3786 C   0  0  0  0  0  0
  -26.0534  -29.3940   20.7199 C   0  0  0  0  0  0
  -27.2323  -28.5795   20.7217 C   0  0  0  0  0  0
  -26.0376  -26.8680   19.4883 C   0  0  0  0  0  0
  -24.8783  -27.6688   19.4807 C   0  0  0  0  0  0
  -23.6502  -29.8083   20.1570 C   0  0  0  0  0  0
  -25.4116  -36.3069   24.0322 C   0  0  1  0  0  0
  -20.5896  -28.3690   23.1267 C   0  0  2  0  0  0
  -20.6774  -26.9402   22.5410 C   0  0  0  0  0  0
  -19.5755  -26.6377   21.5203 C   0  0  0  0  0  0
  -18.1935  -26.7927   22.1612 C   0  0  0  0  0  0
  -19.1545  -28.8856   23.2866 C   0  0  0  0  0  0
  -18.9464  -30.1455   23.8889 C   0  0  0  0  0  0
  -17.6463  -30.6581   24.0562 C   0  0  0  0  0  0
  -25.9050  -34.9436   23.5094 C   0  0  0  0  0  0
  -16.5356  -29.9078   23.6333 C   0  0  0  0  0  0
  -16.7279  -28.6499   23.0352 C   0  0  0  0  0  0
  -26.4493  -31.6579   25.0727 C   0  0  0  0  0  0
  -25.3721  -31.3738   26.1454 C   0  0  0  0  0  0
  -27.0344  -30.2995   24.6218 C   0  0  0  0  0  0
  -27.6050  -32.4320   25.7495 C   0  0  0  0  0  0
  -27.5580  -37.1798   24.8459 C   0  0  0  0  0  0
  -21.4211  -29.3035   22.3653 N   0  0  0  0  0  0
  -26.4290  -37.3771   23.9400 N   0  0  0  0  0  0
  -24.6973  -31.0506   22.0959 N   0  0  0  0  0  0
  -23.4205  -28.8118   23.2995 O   0  0  0  0  0  0
  -28.2660  -26.3208   20.1709 O   0  0  0  0  0  0
  -26.5629  -34.8908   22.4664 O   0  0  0  0  0  0
  -23.5453  -32.1352   23.7278 O   0  0  0  0  0  0
  -29.1393  -19.3594   22.0749 C   0  0  0  0  0  0
  -29.7415  -19.5165   19.7689 C   0  0  0  0  0  0
  -29.3555  -17.9461   22.0622 C   0  0  0  0  0  0
  -29.2968  -20.2041   20.9416 C   0  0  0  0  0  0
  -29.7687  -17.2490   20.8896 C   0  0  0  0  0  0
  -29.9659  -18.0856   19.7415 C   0  0  0  0  0  0
  -28.1253  -25.3277   21.1670 C   0  0  0  0  0  0
  -28.3643  -23.9592   21.3362 C   0  0  0  0  0  0
  -28.9012  -22.8468   20.4542 C   0  0  0  0  0  0
  -29.1080  -17.1711   23.3471 C   0  0  0  0  0  0
  -28.9573  -21.6401   21.1396 N   0  0  0  0  0  0
  -29.7436  -15.7630   20.8987 N   0  0  0  0  0  0
  -29.2501  -22.9619   19.2781 O   0  0  0  0  0  0
  -28.0289  -23.5376   22.5714 O   0  0  0  0  0  0
  -30.3160  -17.5055   18.5679 F   0  0  0  0  0  0
  -31.4858  -12.6003   19.1600 H   0  0  0  0  0  0
  -30.4097  -11.4632   19.9225 H   0  0  0  0  0  0
  -29.7931  -11.7617   17.5043 H   0  0  0  0  0  0
  -29.6420  -13.4855   17.7348 H   0  0  0  0  0  0
  -27.8903  -11.2917   18.8861 H   0  0  0  0  0  0
  -27.3837  -12.5594   17.7992 H   0  0  0  0  0  0
  -27.6595  -14.2543   19.5088 H   0  0  0  0  0  0
  -28.7327  -12.0869   21.3809 H   0  0  0  0  0  0
  -28.4255  -13.7353   21.8426 H   0  0  0  0  0  0
  -25.2774   -9.5676   22.4760 H   0  0  0  0  0  0
  -23.9993   -7.4640   22.7478 H   0  0  0  0  0  0
  -21.0832   -8.8797   19.8961 H   0  0  0  0  0  0
  -22.3708  -10.9684   19.6167 H   0  0  0  0  0  0
  -21.2019   -7.6154   23.9715 H   0  0  0  0  0  0
  -21.1474   -6.0522   25.9072 H   0  0  0  0  0  0
  -22.0598   -2.7606   23.2849 H   0  0  0  0  0  0
  -22.4099  -11.9884   22.4790 H   0  0  0  0  0  0
  -21.1114  -13.1264   22.2619 H   0  0  0  0  0  0
  -24.6579  -15.8437   20.5180 H   0  0  0  0  0  0
  -26.2729  -15.6303   20.0738 H   0  0  0  0  0  0
  -26.7194  -32.5413   23.1080 H   0  0  0  0  0  0
  -25.0065  -33.9686   25.0404 H   0  0  0  0  0  0
  -22.7250  -31.2961   21.3937 H   0  0  0  0  0  0
  -23.3748  -35.9621   23.3301 H   0  0  0  0  0  0
  -24.3584  -36.8905   22.2052 H   0  0  0  0  0  0
  -23.7241  -37.6482   23.6669 H   0  0  0  0  0  0
  -26.1127  -31.5333   20.6104 H   0  0  0  0  0  0
  -26.8512  -30.8200   22.0136 H   0  0  0  0  0  0
  -28.1280  -28.9264   21.2180 H   0  0  0  0  0  0
  -25.9978  -25.8932   19.0228 H   0  0  0  0  0  0
  -23.9813  -27.3031   18.9998 H   0  0  0  0  0  0
  -23.7713  -30.5847   19.4007 H   0  0  0  0  0  0
  -22.7695  -29.2397   19.8532 H   0  0  0  0  0  0
  -25.1295  -36.1915   25.0813 H   0  0  0  0  0  0
  -20.9986  -28.3271   24.1390 H   0  0  0  0  0  0
  -20.5649  -26.2298   23.3614 H   0  0  0  0  0  0
  -21.6644  -26.7409   22.1220 H   0  0  0  0  0  0
  -19.6911  -25.6286   21.1234 H   0  0  0  0  0  0
  -19.6695  -27.3187   20.6734 H   0  0  0  0  0  0
  -17.4199  -26.6670   21.4022 H   0  0  0  0  0  0
  -18.0338  -26.0072   22.9010 H   0  0  0  0  0  0
  -19.7939  -30.7275   24.2253 H   0  0  0  0  0  0
  -17.5015  -31.6257   24.5165 H   0  0  0  0  0  0
  -15.5356  -30.2975   23.7661 H   0  0  0  0  0  0
  -15.8681  -28.0814   22.7075 H   0  0  0  0  0  0
  -24.5890  -30.7087   25.7792 H   0  0  0  0  0  0
  -24.8924  -32.2916   26.4869 H   0  0  0  0  0  0
  -25.8038  -30.8923   27.0238 H   0  0  0  0  0  0
  -26.2938  -29.6740   24.1222 H   0  0  0  0  0  0
  -27.3996  -29.7255   25.4742 H   0  0  0  0  0  0
  -27.8824  -30.4260   23.9487 H   0  0  0  0  0  0
  -27.2657  -33.3619   26.2071 H   0  0  0  0  0  0
  -28.3864  -32.6875   25.0328 H   0  0  0  0  0  0
  -28.0720  -31.8450   26.5412 H   0  0  0  0  0  0
  -28.2593  -38.0099   24.7507 H   0  0  0  0  0  0
  -28.1076  -36.2628   24.6281 H   0  0  0  0  0  0
  -27.2303  -37.1447   25.8864 H   0  0  0  0  0  0
  -20.9395  -29.8770   21.6870 H   0  0  0  0  0  0
  -26.0164  -38.2835   24.1418 H   0  0  0  0  0  0
  -28.8097  -19.8104   23.0013 H   0  0  0  0  0  0
  -29.8855  -20.0775   18.8572 H   0  0  0  0  0  0
  -27.7145  -25.8340   22.0309 H   0  0  0  0  0  0
  -29.0200  -17.8359   24.2067 H   0  0  0  0  0  0
  -29.9317  -16.4857   23.5506 H   0  0  0  0  0  0
  -28.1864  -16.5939   23.2731 H   0  0  0  0  0  0
  -28.6248  -21.8414   22.0769 H   0  0  0  0  0  0
  -28.8993  -15.3925   21.3043 H   0  0  0  0  0  0
  -27.6956  -24.2837   23.0517 H   0  0  0  0  0  0
  1 25  1  0  0  0
  1 30  2  0  0  0
  1 82  1  0  0  0
  2  3  1  0  0  0
  2 25  1  0  0  0
  2 86  1  0  0  0
  2 87  1  0  0  0
  3  4  1  0  0  0
  3 88  1  0  0  0
  3 89  1  0  0  0
  4  5  1  0  0  0
  4 90  1  0  0  0
  4 91  1  0  0  0
  5  6  1  0  0  0
  5 26  1  0  0  0
  5 92  1  0  0  0
  6 25  1  0  0  0
  6 93  1  0  0  0
  6 94  1  0  0  0
  7  8  2  0  0  0
  7 26  1  0  0  0
  7 29  1  0  0  0
  8  9  1  0  0  0
  8 22  1  0  0  0
  9 10  1  0  0  0
  9 27  2  0  0  0
 10 11  2  0  0  0
 10 15  1  0  0  0
 11 12  1  0  0  0
 11 95  1  0  0  0
 12 13  2  0  0  0
 12 96  1  0  0  0
 13 14  1  0  0  0
 13 31  1  0  0  0
 14 15  2  0  0  0
 14 97  1  0  0  0
 15 98  1  0  0  0
 16 17  2  0  0  0
 16 21  1  0  0  0
 16 31  1  0  0  0
 17 18  1  0  0  0
 17 99  1  0  0  0
 18 19  2  0  0  0
 18100  1  0  0  0
 19 20  1  0  0  0
 19 24  1  0  0  0
 20 21  2  0  0  0
 20101  1  0  0  0
 21 23  1  0  0  0
 22 28  1  0  0  0
 22 32  2  0  0  0
 26 27  1  0  0  0
 28102  1  0  0  0
 28103  1  0  0  0
 29104  1  0  0  0
 29105  1  0  0  0
 33 34  1  0  0  0
 33 66  1  0  0  0
 33 70  2  0  0  0
 34 36  1  0  0  0
 34 59  1  0  0  0
 34106  1  0  0  0
 35 44  2  0  0  0
 35 45  1  0  0  0
 35 68  1  0  0  0
 36 56  1  0  0  0
 36107  1  0  0  0
 37 39  1  0  0  0
 37 47  1  0  0  0
 37 66  1  0  0  0
 37108  1  0  0  0
 38 43  2  0  0  0
 38 46  1  0  0  0
 38 47  1  0  0  0
 39 64  1  0  0  0
 39 67  2  0  0  0
 40 52  1  0  0  0
 40 53  2  0  0  0
 40 58  1  0  0  0
 41109  1  0  0  0
 41110  1  0  0  0
 41111  1  0  0  0
 41 48  1  0  0  0
 42 43  1  0  0  0
 42 66  1  0  0  0
 42112  1  0  0  0
 42113  1  0  0  0
 43 44  1  0  0  0
 44114  1  0  0  0
 45 46  2  0  0  0
 45115  1  0  0  0
 46116  1  0  0  0
 47117  1  0  0  0
 47118  1  0  0  0
 48 56  1  0  0  0
 48 65  1  0  0  0
 48119  1  0  0  0
 49 50  1  0  0  0
 49 53  1  0  0  0
 49 64  1  0  0  0
 49120  1  0  0  0
 50 51  1  0  0  0
 50121  1  0  0  0
 50122  1  0  0  0
 51 52  1  0  0  0
 51123  1  0  0  0
 51124  1  0  0  0
 52125  1  0  0  0
 52126  1  0  0  0
 53 54  1  0  0  0
 54 55  2  0  0  0
 54127  1  0  0  0
 55 57  1  0  0  0
 55128  1  0  0  0
 56 69  2  0  0  0
 57 58  2  0  0  0
 57129  1  0  0  0
 58130  1  0  0  0
 59 60  1  0  0  0
 59 61  1  0  0  0
 59 62  1  0  0  0
 60131  1  0  0  0
 60132  1  0  0  0
 60133  1  0  0  0
 61134  1  0  0  0
 61135  1  0  0  0
 61136  1  0  0  0
 62137  1  0  0  0
 62138  1  0  0  0
 62139  1  0  0  0
 63 65  1  0  0  0
 63140  1  0  0  0
 63141  1  0  0  0
 63142  1  0  0  0
 64143  1  0  0  0
 65144  1  0  0  0
 68 77  1  0  0  0
 71 73  2  0  0  0
 71 74  1  0  0  0
 71145  1  0  0  0
 72 74  2  0  0  0
 72 76  1  0  0  0
 72146  1  0  0  0
 73 75  1  0  0  0
 73 80  1  0  0  0
 74 81  1  0  0  0
 75 76  2  0  0  0
 75 82  1  0  0  0
 76 85  1  0  0  0
 77 78  2  0  0  0
 77147  1  0  0  0
 78 79  1  0  0  0
 78 84  1  0  0  0
 79 81  1  0  0  0
 79 83  2  0  0  0
 80148  1  0  0  0
 80149  1  0  0  0
 80150  1  0  0  0
 81151  1  0  0  0
 82152  1  0  0  0
 84153  1  0  0  0
M  ISO  4   1 100  68 101  77 101  82 100
M  END
> <chiral flag>
0

> <version>
0

> <s_m_source_file>
/data/baiqing/PycharmProjects/Reinvent-master-3.2/result/LINK_invent/BTK/process_docking_weight1_custom_product_contain_oxygen_bond_distance_aromatic_linkinvent_7_9_3/rearranged_h_0091.sdf

> <i_m_source_file_index>
32

> <r_mmod_Potential_Energy-OPLS-2005>
162.649078369141

> <r_mmod_Stretch_Energy-OPLS-2005>
109.883193969727

> <r_mmod_Bend_Energy-OPLS-2005>
252.747543334961

> <r_mmod_Torsional_Energy-OPLS-2005>
239.310424804688

> <r_mmod_Improper_Torsional_Energy-OPLS-2005>
4.24302816390991

> <r_mmod_Van_der_Waal_Energy-OPLS-2005>
142.238525390625

> <r_mmod_Electrostatic_Energy-OPLS-2005>
-432.692810058594

> <r_mmod_Solvation_Energy-OPLS-2005>
-239.086120605469

> <b_mmod_Minimization_Converged-OPLS-2005>
0

> <r_mmod_RMS_Derivative-OPLS-2005>
1.14253675937653

$$$$
32
                    3D
 Structure written by MMmdl.
153161  0  0  1  0            999 V2000
  -30.5607  -14.8673   20.4015 C   0  0  0  0  0  0
  -30.4510  -12.5152   19.4969 C   0  0  0  0  0  0
  -29.5293  -12.4133   18.2567 C   0  0  0  0  0  0
  -28.0453  -12.2830   18.6665 C   0  0  0  0  0  0
  -27.6280  -13.2268   19.8293 C   0  0  2  0  0  0
  -28.6761  -13.2412   20.9600 C   0  0  0  0  0  0
  -25.2519  -13.8186   20.5771 C   0  0  0  0  0  0
  -24.1789  -13.0443   20.9241 C   0  0  0  0  0  0
  -24.6379  -11.6923   20.8797 C   0  0  0  0  0  0
  -23.9066  -10.4293   21.0427 C   0  0  0  0  0  0
  -24.3622   -9.4204   21.9197 C   0  0  0  0  0  0
  -23.6291   -8.2243   22.0758 C   0  0  0  0  0  0
  -22.4264   -8.0299   21.3557 C   0  0  0  0  0  0
  -21.9906   -9.0269   20.4652 C   0  0  0  0  0  0
  -22.7248  -10.2141   20.3057 C   0  0  0  0  0  0
  -21.6848   -6.0748   22.5292 C   0  0  0  0  0  0
  -21.4015   -6.5650   23.8229 C   0  0  0  0  0  0
  -21.3652   -5.6791   24.9188 C   0  0  0  0  0  0
  -21.6034   -4.3052   24.7222 C   0  0  0  0  0  0
  -21.8828   -3.8157   23.4343 C   0  0  0  0  0  0
  -21.9182   -4.6979   22.3404 C   0  0  0  0  0  0
  -22.7830  -13.5250   21.1900 C   0  0  0  0  0  0
  -22.1651   -4.2172   21.0979 F   0  0  0  0  0  0
  -21.5622   -3.4531   25.7731 F   0  0  0  0  0  0
  -29.9528  -13.6218   20.3503 N   0  0  0  0  0  0
  -26.2888  -12.9357   20.3261 N   0  0  0  0  0  0
  -25.9286  -11.6525   20.5790 N   0  0  0  0  0  0
  -22.0432  -12.8224   22.0422 N   0  0  0  0  0  0
  -25.4323  -15.1910   20.4283 N   0  0  0  0  0  0
  -31.7882  -14.9194   20.2563 O   0  0  0  0  0  0
  -21.6633   -6.8898   21.4257 O   0  0  0  0  0  0
  -22.3533  -14.5564   20.6770 O   0  0  0  0  0  0
  -24.6333  -31.8502   23.1983 C   0  0  0  0  0  0
  -25.9148  -32.4728   23.8321 C   0  0  1  0  0  0
  -27.2271  -27.2380   20.1488 C   0  0  0  0  0  0
  -25.5963  -33.8537   24.2276 N   0  0  0  0  0  0
  -23.4327  -30.4749   21.5375 C   0  0  2  0  0  0
  -24.8859  -28.9099   20.1161 C   0  0  0  0  0  0
  -22.7489  -29.4597   22.4870 C   0  0  0  0  0  0
  -18.0289  -28.1388   22.8495 C   0  0  0  0  0  0
  -24.1481  -36.7250   23.2644 C   0  0  0  0  0  0
  -25.9787  -30.7599   21.3794 C   0  0  0  0  0  0
  -26.0547  -29.3739   20.7341 C   0  0  0  0  0  0
  -27.2296  -28.5488   20.7435 C   0  0  0  0  0  0
  -26.0419  -26.8489   19.4945 C   0  0  0  0  0  0
  -24.8849  -27.6561   19.4832 C   0  0  0  0  0  0
  -23.6572  -29.8028   20.1548 C   0  0  0  0  0  0
  -25.4096  -36.3049   24.0342 C   0  0  1  0  0  0
  -20.5900  -28.3703   23.1243 C   0  0  2  0  0  0
  -20.6781  -26.9418   22.5407 C   0  0  0  0  0  0
  -19.5762  -26.6388   21.5212 C   0  0  0  0  0  0
  -18.1935  -26.7944   22.1609 C   0  0  0  0  0  0
  -19.1549  -28.8853   23.2881 C   0  0  0  0  0  0
  -18.9474  -30.1453   23.8899 C   0  0  0  0  0  0
  -17.6474  -30.6585   24.0573 C   0  0  0  0  0  0
  -25.9045  -34.9421   23.5096 C   0  0  0  0  0  0
  -16.5365  -29.9093   23.6327 C   0  0  0  0  0  0
  -16.7275  -28.6511   23.0352 C   0  0  0  0  0  0
  -26.4544  -31.6544   25.0690 C   0  0  0  0  0  0
  -25.3806  -31.3668   26.1433 C   0  0  0  0  0  0
  -27.0401  -30.2979   24.6132 C   0  0  0  0  0  0
  -27.6111  -32.4268   25.7451 C   0  0  0  0  0  0
  -27.5563  -37.1779   24.8476 C   0  0  0  0  0  0
  -21.4201  -29.3061   22.3625 N   0  0  0  0  0  0
  -26.4255  -37.3757   23.9436 N   0  0  0  0  0  0
  -24.7007  -31.0480   22.0951 N   0  0  0  0  0  0
  -23.4170  -28.8097   23.2943 O   0  0  0  0  0  0
  -28.3141  -26.3287   20.1210 O   0  0  0  0  0  0
  -26.5582  -34.8903   22.4639 O   0  0  0  0  0  0
  -23.5475  -32.1292   23.7289 O   0  0  0  0  0  0
  -29.5904  -18.5346   23.0052 C   0  0  0  0  0  0
  -29.3795  -19.7877   22.3921 C   0  0  0  0  0  0
  -29.7498  -17.3453   22.2588 C   0  0  0  0  0  0
  -29.3014  -19.9281   20.9864 C   0  0  0  0  0  0
  -29.7100  -17.3500   20.8463 C   0  0  0  0  0  0
  -29.4909  -18.6838   20.2362 C   0  0  0  0  0  0
  -28.1889  -25.0006   20.6518 C   0  0  0  0  0  0
  -28.6926  -23.7875   20.1664 C   0  0  0  0  0  0
  -28.5658  -22.4718   20.9246 C   0  0  0  0  0  0
  -29.3808  -16.1143   18.7169 C   0  0  0  0  0  0
  -29.1027  -21.2967   20.3839 N   0  0  0  0  0  0
  -29.7852  -16.0217   20.1245 N   0  0  0  0  0  0
  -27.9798  -22.4275   22.0072 O   0  0  0  0  0  0
  -29.3324  -23.7698   18.9889 O   0  0  0  0  0  0
  -29.4593  -18.8117   18.8884 F   0  0  0  0  0  0
  -31.4851  -12.6719   19.1840 H   0  0  0  0  0  0
  -30.4534  -11.5824   20.0626 H   0  0  0  0  0  0
  -29.8150  -11.5407   17.6686 H   0  0  0  0  0  0
  -29.6827  -13.2572   17.5869 H   0  0  0  0  0  0
  -27.9035  -11.2478   18.9803 H   0  0  0  0  0  0
  -27.3936  -12.4220   17.8031 H   0  0  0  0  0  0
  -27.5774  -14.2249   19.4006 H   0  0  0  0  0  0
  -28.7467  -12.2601   21.4325 H   0  0  0  0  0  0
  -28.4018  -13.9506   21.7442 H   0  0  0  0  0  0
  -25.2782   -9.5663   22.4751 H   0  0  0  0  0  0
  -24.0004   -7.4623   22.7470 H   0  0  0  0  0  0
  -21.0826   -8.8792   19.8954 H   0  0  0  0  0  0
  -22.3740  -10.9670   19.6135 H   0  0  0  0  0  0
  -21.2030   -7.6160   23.9756 H   0  0  0  0  0  0
  -21.1448   -6.0508   25.9095 H   0  0  0  0  0  0
  -22.0609   -2.7619   23.2835 H   0  0  0  0  0  0
  -22.4015  -11.9849   22.4782 H   0  0  0  0  0  0
  -21.1075  -13.1307   22.2675 H   0  0  0  0  0  0
  -24.6885  -15.8657   20.5745 H   0  0  0  0  0  0
  -26.3096  -15.6188   20.1621 H   0  0  0  0  0  0
  -26.7208  -32.5398   23.1058 H   0  0  0  0  0  0
  -25.0261  -33.9687   25.0524 H   0  0  0  0  0  0
  -22.7350  -31.3006   21.3872 H   0  0  0  0  0  0
  -23.3752  -35.9582   23.3297 H   0  0  0  0  0  0
  -24.3601  -36.8851   22.2069 H   0  0  0  0  0  0
  -23.7207  -37.6437   23.6654 H   0  0  0  0  0  0
  -26.1093  -31.5104   20.5988 H   0  0  0  0  0  0
  -26.8607  -30.8240   22.0037 H   0  0  0  0  0  0
  -28.1261  -28.9005   21.2364 H   0  0  0  0  0  0
  -26.0120  -25.8940   18.9893 H   0  0  0  0  0  0
  -23.9960  -27.3003   18.9827 H   0  0  0  0  0  0
  -23.7923  -30.5797   19.4010 H   0  0  0  0  0  0
  -22.7778  -29.2406   19.8376 H   0  0  0  0  0  0
  -25.1284  -36.1889   25.0833 H   0  0  0  0  0  0
  -21.0025  -28.3288   24.1342 H   0  0  0  0  0  0
  -20.5668  -26.2314   23.3614 H   0  0  0  0  0  0
  -21.6642  -26.7431   22.1196 H   0  0  0  0  0  0
  -19.6922  -25.6298   21.1232 H   0  0  0  0  0  0
  -19.6699  -27.3207   20.6751 H   0  0  0  0  0  0
  -17.4213  -26.6690   21.4007 H   0  0  0  0  0  0
  -18.0338  -26.0077   22.8988 H   0  0  0  0  0  0
  -19.7955  -30.7285   24.2252 H   0  0  0  0  0  0
  -17.5030  -31.6277   24.5175 H   0  0  0  0  0  0
  -15.5371  -30.3003   23.7667 H   0  0  0  0  0  0
  -15.8664  -28.0850   22.7047 H   0  0  0  0  0  0
  -24.6033  -30.6945   25.7786 H   0  0  0  0  0  0
  -24.8946  -32.2822   26.4814 H   0  0  0  0  0  0
  -25.8170  -30.8908   27.0220 H   0  0  0  0  0  0
  -26.2968  -29.6699   24.1204 H   0  0  0  0  0  0
  -27.4186  -29.7252   25.4603 H   0  0  0  0  0  0
  -27.8800  -30.4289   23.9303 H   0  0  0  0  0  0
  -27.2762  -33.3607   26.1960 H   0  0  0  0  0  0
  -28.3953  -32.6721   25.0286 H   0  0  0  0  0  0
  -28.0728  -31.8407   26.5402 H   0  0  0  0  0  0
  -28.2573  -38.0087   24.7524 H   0  0  0  0  0  0
  -28.1055  -36.2607   24.6284 H   0  0  0  0  0  0
  -27.2298  -37.1406   25.8886 H   0  0  0  0  0  0
  -20.9360  -29.8832   21.6893 H   0  0  0  0  0  0
  -26.0125  -38.2813   24.1471 H   0  0  0  0  0  0
  -29.6231  -18.4961   24.0865 H   0  0  0  0  0  0
  -29.2935  -20.6489   23.0384 H   0  0  0  0  0  0
  -29.8789  -16.4157   22.7965 H   0  0  0  0  0  0
  -27.6489  -25.0262   21.5894 H   0  0  0  0  0  0
  -28.4517  -16.6762   18.6170 H   0  0  0  0  0  0
  -29.1943  -15.1629   18.2386 H   0  0  0  0  0  0
  -30.1557  -16.6095   18.1324 H   0  0  0  0  0  0
  -29.4206  -21.4020   19.4297 H   0  0  0  0  0  0
  -29.2977  -24.6510   18.6381 H   0  0  0  0  0  0
  1 25  1  0  0  0
  1 30  2  0  0  0
  1 82  1  0  0  0
  2  3  1  0  0  0
  2 25  1  0  0  0
  2 86  1  0  0  0
  2 87  1  0  0  0
  3  4  1  0  0  0
  3 88  1  0  0  0
  3 89  1  0  0  0
  4  5  1  0  0  0
  4 90  1  0  0  0
  4 91  1  0  0  0
  5  6  1  0  0  0
  5 26  1  0  0  0
  5 92  1  0  0  0
  6 25  1  0  0  0
  6 93  1  0  0  0
  6 94  1  0  0  0
  7  8  2  0  0  0
  7 26  1  0  0  0
  7 29  1  0  0  0
  8  9  1  0  0  0
  8 22  1  0  0  0
  9 10  1  0  0  0
  9 27  2  0  0  0
 10 11  2  0  0  0
 10 15  1  0  0  0
 11 12  1  0  0  0
 11 95  1  0  0  0
 12 13  2  0  0  0
 12 96  1  0  0  0
 13 14  1  0  0  0
 13 31  1  0  0  0
 14 15  2  0  0  0
 14 97  1  0  0  0
 15 98  1  0  0  0
 16 17  2  0  0  0
 16 21  1  0  0  0
 16 31  1  0  0  0
 17 18  1  0  0  0
 17 99  1  0  0  0
 18 19  2  0  0  0
 18100  1  0  0  0
 19 20  1  0  0  0
 19 24  1  0  0  0
 20 21  2  0  0  0
 20101  1  0  0  0
 21 23  1  0  0  0
 22 28  1  0  0  0
 22 32  2  0  0  0
 26 27  1  0  0  0
 28102  1  0  0  0
 28103  1  0  0  0
 29104  1  0  0  0
 29105  1  0  0  0
 33 34  1  0  0  0
 33 66  1  0  0  0
 33 70  2  0  0  0
 34 36  1  0  0  0
 34 59  1  0  0  0
 34106  1  0  0  0
 35 44  2  0  0  0
 35 45  1  0  0  0
 35 68  1  0  0  0
 36 56  1  0  0  0
 36107  1  0  0  0
 37 39  1  0  0  0
 37 47  1  0  0  0
 37 66  1  0  0  0
 37108  1  0  0  0
 38 43  2  0  0  0
 38 46  1  0  0  0
 38 47  1  0  0  0
 39 64  1  0  0  0
 39 67  2  0  0  0
 40 52  1  0  0  0
 40 53  2  0  0  0
 40 58  1  0  0  0
 41109  1  0  0  0
 41110  1  0  0  0
 41111  1  0  0  0
 41 48  1  0  0  0
 42 43  1  0  0  0
 42 66  1  0  0  0
 42112  1  0  0  0
 42113  1  0  0  0
 43 44  1  0  0  0
 44114  1  0  0  0
 45 46  2  0  0  0
 45115  1  0  0  0
 46116  1  0  0  0
 47117  1  0  0  0
 47118  1  0  0  0
 48 56  1  0  0  0
 48 65  1  0  0  0
 48119  1  0  0  0
 49 50  1  0  0  0
 49 53  1  0  0  0
 49 64  1  0  0  0
 49120  1  0  0  0
 50 51  1  0  0  0
 50121  1  0  0  0
 50122  1  0  0  0
 51 52  1  0  0  0
 51123  1  0  0  0
 51124  1  0  0  0
 52125  1  0  0  0
 52126  1  0  0  0
 53 54  1  0  0  0
 54 55  2  0  0  0
 54127  1  0  0  0
 55 57  1  0  0  0
 55128  1  0  0  0
 56 69  2  0  0  0
 57 58  2  0  0  0
 57129  1  0  0  0
 58130  1  0  0  0
 59 60  1  0  0  0
 59 61  1  0  0  0
 59 62  1  0  0  0
 60131  1  0  0  0
 60132  1  0  0  0
 60133  1  0  0  0
 61134  1  0  0  0
 61135  1  0  0  0
 61136  1  0  0  0
 62137  1  0  0  0
 62138  1  0  0  0
 62139  1  0  0  0
 63 65  1  0  0  0
 63140  1  0  0  0
 63141  1  0  0  0
 63142  1  0  0  0
 64143  1  0  0  0
 65144  1  0  0  0
 68 77  1  0  0  0
 71 72  2  0  0  0
 71 73  1  0  0  0
 71145  1  0  0  0
 72 74  1  0  0  0
 72146  1  0  0  0
 73 75  2  0  0  0
 73147  1  0  0  0
 74 76  2  0  0  0
 74 81  1  0  0  0
 75 76  1  0  0  0
 75 82  1  0  0  0
 76 85  1  0  0  0
 77 78  2  0  0  0
 77148  1  0  0  0
 78 79  1  0  0  0
 78 84  1  0  0  0
 79 81  1  0  0  0
 79 83  2  0  0  0
 80 82  1  0  0  0
 80149  1  0  0  0
 80150  1  0  0  0
 80151  1  0  0  0
 81152  1  0  0  0
 84153  1  0  0  0
M  ISO  4   1 100  68 101  77 101  82 100
M  END
> <chiral flag>
0

> <version>
0

> <s_m_source_file>
/data/baiqing/PycharmProjects/Reinvent-master-3.2/result/LINK_invent/BTK/process_docking_weight1_custom_product_contain_oxygen_bond_distance_aromatic_linkinvent_7_9_3/rearranged_h_0091.sdf

> <i_m_source_file_index>
33

> <r_mmod_Potential_Energy-OPLS-2005>
355.392517089844

> <r_mmod_Stretch_Energy-OPLS-2005>
157.865966796875

> <r_mmod_Bend_Energy-OPLS-2005>
170.86457824707

> <r_mmod_Torsional_Energy-OPLS-2005>
305.619567871094

> <r_mmod_Improper_Torsional_Energy-OPLS-2005>
16.8937873840332

> <r_mmod_Van_der_Waal_Energy-OPLS-2005>
147.489959716797

> <r_mmod_Electrostatic_Energy-OPLS-2005>
-370.653228759766

> <r_mmod_Solvation_Energy-OPLS-2005>
-204.229843139648

> <b_mmod_Minimization_Converged-OPLS-2005>
0

> <r_mmod_RMS_Derivative-OPLS-2005>
3.67300009727478

$$$$
33
                    3D
 Structure written by MMmdl.
151159  0  0  1  0            999 V2000
  -30.2147  -15.8603   20.3271 C   0  0  0  0  0  0
  -30.4067  -13.2472   19.5429 C   0  0  0  0  0  0
  -29.5512  -12.7192   18.3473 C   0  0  0  0  0  0
  -28.1424  -12.3084   18.8001 C   0  0  0  0  0  0
  -27.5853  -13.3250   19.8163 C   0  0  2  0  0  0
  -28.5942  -13.7318   20.9245 C   0  0  0  0  0  0
  -25.2165  -13.8252   20.5795 C   0  0  0  0  0  0
  -24.1625  -13.0369   20.9357 C   0  0  0  0  0  0
  -24.6402  -11.6913   20.8814 C   0  0  0  0  0  0
  -23.9121  -10.4246   21.0409 C   0  0  0  0  0  0
  -24.3671   -9.4163   21.9176 C   0  0  0  0  0  0
  -23.6346   -8.2198   22.0741 C   0  0  0  0  0  0
  -22.4310   -8.0251   21.3544 C   0  0  0  0  0  0
  -21.9940   -9.0228   20.4651 C   0  0  0  0  0  0
  -22.7277  -10.2103   20.3064 C   0  0  0  0  0  0
  -21.6857   -6.0736   22.5290 C   0  0  0  0  0  0
  -21.4014   -6.5627   23.8230 C   0  0  0  0  0  0
  -21.3662   -5.6772   24.9184 C   0  0  0  0  0  0
  -21.6047   -4.3047   24.7226 C   0  0  0  0  0  0
  -21.8817   -3.8142   23.4346 C   0  0  0  0  0  0
  -21.9204   -4.6964   22.3403 C   0  0  0  0  0  0
  -22.7634  -13.5087   21.2011 C   0  0  0  0  0  0
  -22.1653   -4.2146   21.0981 F   0  0  0  0  0  0
  -21.5655   -3.4527   25.7741 F   0  0  0  0  0  0
  -29.7275  -14.4451   20.2607 N   0  0  0  0  0  0
  -26.2705  -12.9664   20.3302 N   0  0  0  0  0  0
  -25.9367  -11.6716   20.5762 N   0  0  0  0  0  0
  -22.0303  -12.8081   22.0569 N   0  0  0  0  0  0
  -25.3461  -15.1971   20.4105 N   0  0  0  0  0  0
  -31.4510  -15.7479   20.1698 O   0  0  0  0  0  0
  -21.6660   -6.8860   21.4243 O   0  0  0  0  0  0
  -22.3289  -14.5374   20.6808 O   0  0  0  0  0  0
  -24.6954  -31.7873   23.1398 C   0  0  0  0  0  0
  -25.9487  -32.4394   23.8014 C   0  0  1  0  0  0
  -27.2215  -26.5670   20.2467 C   0  0  0  0  0  0
  -25.6058  -33.8234   24.1890 N   0  0  0  0  0  0
  -23.5258  -30.3824   21.4964 C   0  0  2  0  0  0
  -24.9842  -28.6939   20.1247 C   0  0  0  0  0  0
  -22.7818  -29.4235   22.4659 C   0  0  0  0  0  0
  -18.0359  -28.1431   22.8456 C   0  0  0  0  0  0
  -24.1507  -36.7107   23.2651 C   0  0  0  0  0  0
  -26.1103  -30.4728   21.4299 C   0  0  0  0  0  0
  -26.1708  -29.0212   20.7906 C   0  0  0  0  0  0
  -27.2668  -27.9867   20.8199 C   0  0  0  0  0  0
  -26.0059  -26.4852   19.5137 C   0  0  0  0  0  0
  -24.9491  -27.4528   19.4626 C   0  0  0  0  0  0
  -23.7889  -29.6677   20.1368 C   0  0  0  0  0  0
  -25.4153  -36.2838   24.0264 C   0  0  1  0  0  0
  -20.5995  -28.3794   23.1144 C   0  0  2  0  0  0
  -20.6800  -26.9427   22.5478 C   0  0  0  0  0  0
  -19.5806  -26.6361   21.5263 C   0  0  0  0  0  0
  -18.1965  -26.7983   22.1593 C   0  0  0  0  0  0
  -19.1616  -28.8945   23.2786 C   0  0  0  0  0  0
  -18.9510  -30.1526   23.8838 C   0  0  0  0  0  0
  -17.6495  -30.6612   24.0563 C   0  0  0  0  0  0
  -25.9153  -34.9247   23.4907 C   0  0  0  0  0  0
  -16.5400  -29.9081   23.6353 C   0  0  0  0  0  0
  -16.7338  -28.6503   23.0373 C   0  0  0  0  0  0
  -26.4605  -31.6490   25.0688 C   0  0  0  0  0  0
  -25.3633  -31.3973   26.1296 C   0  0  0  0  0  0
  -27.0450  -30.2759   24.6739 C   0  0  0  0  0  0
  -27.6102  -32.4325   25.7431 C   0  0  0  0  0  0
  -27.5582  -37.1681   24.8423 C   0  0  0  0  0  0
  -21.4453  -29.2989   22.3420 N   0  0  0  0  0  0
  -26.4250  -37.3624   23.9426 N   0  0  0  0  0  0
  -24.8016  -30.9174   22.0735 N   0  0  0  0  0  0
  -23.4213  -28.7879   23.3072 O   0  0  0  0  0  0
  -28.2081  -25.3198   20.2480 O   0  0  0  0  0  0
  -26.5796  -34.8850   22.4526 O   0  0  0  0  0  0
  -23.5950  -32.1009   23.6257 O   0  0  0  0  0  0
  -30.1681  -22.1783   19.8965 C   0  0  0  0  0  0
  -28.6179  -20.4327   20.4255 C   0  0  0  0  0  0
  -30.7921  -19.6544   19.7903 C   0  0  0  0  0  0
  -28.8114  -22.0630   20.2595 C   0  0  0  0  0  0
  -31.0688  -21.0808   19.6727 C   0  0  0  0  0  0
  -29.5562  -19.0844   20.2410 C   0  0  0  0  0  0
  -31.8772  -18.6785   19.3668 C   0  0  0  0  0  0
  -28.0613  -17.0200   20.7790 C   0  0  0  0  0  0
  -32.3526  -21.4762   19.2895 N   0  0  0  0  0  0
  -27.9428  -23.4839   20.3840 N   0  0  0  0  0  0
  -29.4334  -17.2938   20.3966 N   0  0  0  0  0  0
  -31.3755  -13.5468   19.1405 H   0  0  0  0  0  0
  -30.6426  -12.4419   20.2421 H   0  0  0  0  0  0
  -30.0452  -11.8835   17.8507 H   0  0  0  0  0  0
  -29.4666  -13.5127   17.6016 H   0  0  0  0  0  0
  -28.1990  -11.3261   19.2708 H   0  0  0  0  0  0
  -27.4770  -12.2033   17.9443 H   0  0  0  0  0  0
  -27.4188  -14.2137   19.2066 H   0  0  0  0  0  0
  -28.9150  -12.8777   21.5214 H   0  0  0  0  0  0
  -28.1123  -14.4105   21.6271 H   0  0  0  0  0  0
  -25.2781   -9.5652   22.4784 H   0  0  0  0  0  0
  -24.0066   -7.4558   22.7421 H   0  0  0  0  0  0
  -21.0899   -8.8752   19.8943 H   0  0  0  0  0  0
  -22.3707  -10.9680   19.6221 H   0  0  0  0  0  0
  -21.1954   -7.6131   23.9750 H   0  0  0  0  0  0
  -21.1512   -6.0489   25.9103 H   0  0  0  0  0  0
  -22.0592   -2.7608   23.2856 H   0  0  0  0  0  0
  -22.3978  -11.9794   22.4985 H   0  0  0  0  0  0
  -21.0923  -13.1099   22.2797 H   0  0  0  0  0  0
  -24.5488  -15.8177   20.4944 H   0  0  0  0  0  0
  -26.1659  -15.6526   20.0382 H   0  0  0  0  0  0
  -26.7601  -32.4809   23.0752 H   0  0  0  0  0  0
  -25.0134  -33.9279   25.0011 H   0  0  0  0  0  0
  -22.8568  -31.2200   21.2912 H   0  0  0  0  0  0
  -23.3799  -35.9397   23.3183 H   0  0  0  0  0  0
  -24.3601  -36.8909   22.2093 H   0  0  0  0  0  0
  -23.7208  -37.6225   23.6819 H   0  0  0  0  0  0
  -26.3334  -31.1835   20.6328 H   0  0  0  0  0  0
  -26.9545  -30.5462   22.1034 H   0  0  0  0  0  0
  -28.1624  -28.2508   21.3676 H   0  0  0  0  0  0
  -25.8277  -25.5584   18.9866 H   0  0  0  0  0  0
  -24.0620  -27.1955   18.8991 H   0  0  0  0  0  0
  -23.9733  -30.4196   19.3678 H   0  0  0  0  0  0
  -22.8918  -29.1401   19.8110 H   0  0  0  0  0  0
  -25.1355  -36.1563   25.0745 H   0  0  0  0  0  0
  -21.0096  -28.3459   24.1264 H   0  0  0  0  0  0
  -20.5567  -26.2452   23.3769 H   0  0  0  0  0  0
  -21.6669  -26.7304   22.1349 H   0  0  0  0  0  0
  -19.6936  -25.6238   21.1357 H   0  0  0  0  0  0
  -19.6789  -27.3121   20.6746 H   0  0  0  0  0  0
  -17.4274  -26.6835   21.3942 H   0  0  0  0  0  0
  -18.0249  -26.0121   22.8945 H   0  0  0  0  0  0
  -19.7980  -30.7365   24.2185 H   0  0  0  0  0  0
  -17.5030  -31.6271   24.5187 H   0  0  0  0  0  0
  -15.5388  -30.2950   23.7683 H   0  0  0  0  0  0
  -15.8748  -28.0779   22.7129 H   0  0  0  0  0  0
  -24.5969  -30.7076   25.7749 H   0  0  0  0  0  0
  -24.8616  -32.3214   26.4182 H   0  0  0  0  0  0
  -25.7792  -30.9644   27.0402 H   0  0  0  0  0  0
  -26.3168  -29.6397   24.1697 H   0  0  0  0  0  0
  -27.3693  -29.7225   25.5564 H   0  0  0  0  0  0
  -27.9256  -30.3734   24.0382 H   0  0  0  0  0  0
  -27.2762  -33.3790   26.1684 H   0  0  0  0  0  0
  -28.4051  -32.6598   25.0313 H   0  0  0  0  0  0
  -28.0613  -31.8642   26.5577 H   0  0  0  0  0  0
  -28.2496  -38.0078   24.7526 H   0  0  0  0  0  0
  -28.1173  -36.2593   24.6108 H   0  0  0  0  0  0
  -27.2351  -37.1159   25.8843 H   0  0  0  0  0  0
  -20.9792  -29.8631   21.6456 H   0  0  0  0  0  0
  -26.0046  -38.2644   24.1524 H   0  0  0  0  0  0
  -30.5394  -23.1860   19.7563 H   0  0  0  0  0  0
  -27.6129  -20.1819   20.7288 H   0  0  0  0  0  0
  -32.6492  -19.1065   18.7294 H   0  0  0  0  0  0
  -31.4417  -17.8813   18.7702 H   0  0  0  0  0  0
  -32.3568  -18.2592   20.2513 H   0  0  0  0  0  0
  -27.6637  -16.2105   20.1815 H   0  0  0  0  0  0
  -27.4062  -17.8722   20.6003 H   0  0  0  0  0  0
  -27.9933  -16.7617   21.8373 H   0  0  0  0  0  0
  -32.4897  -22.3992   18.8892 H   0  0  0  0  0  0
  -32.9629  -20.7775   18.8836 H   0  0  0  0  0  0
  -26.9554  -23.3430   20.5896 H   0  0  0  0  0  0
  1 25  1  0  0  0
  1 30  2  0  0  0
  1 81  1  0  0  0
  2  3  1  0  0  0
  2 25  1  0  0  0
  2 82  1  0  0  0
  2 83  1  0  0  0
  3  4  1  0  0  0
  3 84  1  0  0  0
  3 85  1  0  0  0
  4  5  1  0  0  0
  4 86  1  0  0  0
  4 87  1  0  0  0
  5  6  1  0  0  0
  5 26  1  0  0  0
  5 88  1  0  0  0
  6 25  1  0  0  0
  6 89  1  0  0  0
  6 90  1  0  0  0
  7  8  2  0  0  0
  7 26  1  0  0  0
  7 29  1  0  0  0
  8  9  1  0  0  0
  8 22  1  0  0  0
  9 10  1  0  0  0
  9 27  2  0  0  0
 10 11  2  0  0  0
 10 15  1  0  0  0
 11 12  1  0  0  0
 11 91  1  0  0  0
 12 13  2  0  0  0
 12 92  1  0  0  0
 13 14  1  0  0  0
 13 31  1  0  0  0
 14 15  2  0  0  0
 14 93  1  0  0  0
 15 94  1  0  0  0
 16 17  2  0  0  0
 16 21  1  0  0  0
 16 31  1  0  0  0
 17 18  1  0  0  0
 17 95  1  0  0  0
 18 19  2  0  0  0
 18 96  1  0  0  0
 19 20  1  0  0  0
 19 24  1  0  0  0
 20 21  2  0  0  0
 20 97  1  0  0  0
 21 23  1  0  0  0
 22 28  1  0  0  0
 22 32  2  0  0  0
 26 27  1  0  0  0
 28 98  1  0  0  0
 28 99  1  0  0  0
 29100  1  0  0  0
 29101  1  0  0  0
 33 34  1  0  0  0
 33 66  1  0  0  0
 33 70  2  0  0  0
 34 36  1  0  0  0
 34 59  1  0  0  0
 34102  1  0  0  0
 35 44  2  0  0  0
 35 45  1  0  0  0
 35 68  1  0  0  0
 36 56  1  0  0  0
 36103  1  0  0  0
 37 39  1  0  0  0
 37 47  1  0  0  0
 37 66  1  0  0  0
 37104  1  0  0  0
 38 43  2  0  0  0
 38 46  1  0  0  0
 38 47  1  0  0  0
 39 64  1  0  0  0
 39 67  2  0  0  0
 40 52  1  0  0  0
 40 53  2  0  0  0
 40 58  1  0  0  0
 41105  1  0  0  0
 41106  1  0  0  0
 41107  1  0  0  0
 41 48  1  0  0  0
 42 43  1  0  0  0
 42 66  1  0  0  0
 42108  1  0  0  0
 42109  1  0  0  0
 43 44  1  0  0  0
 44110  1  0  0  0
 45 46  2  0  0  0
 45111  1  0  0  0
 46112  1  0  0  0
 47113  1  0  0  0
 47114  1  0  0  0
 48 56  1  0  0  0
 48 65  1  0  0  0
 48115  1  0  0  0
 49 50  1  0  0  0
 49 53  1  0  0  0
 49 64  1  0  0  0
 49116  1  0  0  0
 50 51  1  0  0  0
 50117  1  0  0  0
 50118  1  0  0  0
 51 52  1  0  0  0
 51119  1  0  0  0
 51120  1  0  0  0
 52121  1  0  0  0
 52122  1  0  0  0
 53 54  1  0  0  0
 54 55  2  0  0  0
 54123  1  0  0  0
 55 57  1  0  0  0
 55124  1  0  0  0
 56 69  2  0  0  0
 57 58  2  0  0  0
 57125  1  0  0  0
 58126  1  0  0  0
 59 60  1  0  0  0
 59 61  1  0  0  0
 59 62  1  0  0  0
 60127  1  0  0  0
 60128  1  0  0  0
 60129  1  0  0  0
 61130  1  0  0  0
 61131  1  0  0  0
 61132  1  0  0  0
 62133  1  0  0  0
 62134  1  0  0  0
 62135  1  0  0  0
 63 65  1  0  0  0
 63136  1  0  0  0
 63137  1  0  0  0
 63138  1  0  0  0
 64139  1  0  0  0
 65140  1  0  0  0
 68 80  1  0  0  0
 71 74  2  0  0  0
 71 75  1  0  0  0
 71141  1  0  0  0
 72 74  1  0  0  0
 72 76  2  0  0  0
 72142  1  0  0  0
 73 75  2  0  0  0
 73 76  1  0  0  0
 73 77  1  0  0  0
 74 80  1  0  0  0
 75 79  1  0  0  0
 76 81  1  0  0  0
 77143  1  0  0  0
 77144  1  0  0  0
 77145  1  0  0  0
 78 81  1  0  0  0
 78146  1  0  0  0
 78147  1  0  0  0
 78148  1  0  0  0
 79149  1  0  0  0
 79150  1  0  0  0
 80151  1  0  0  0
M  ISO  4   1 100  68 101  80 101  81 100
M  END
> <chiral flag>
0

> <version>
0

> <s_m_source_file>
/data/baiqing/PycharmProjects/Reinvent-master-3.2/result/LINK_invent/BTK/process_docking_weight1_custom_product_contain_oxygen_bond_distance_aromatic_linkinvent_7_9_3/rearranged_h_0091.sdf

> <i_m_source_file_index>
34

> <r_mmod_Potential_Energy-OPLS-2005>
3173.0458984375

> <r_mmod_Stretch_Energy-OPLS-2005>
1356.51489257812

> <r_mmod_Bend_Energy-OPLS-2005>
703.444519042969

> <r_mmod_Torsional_Energy-OPLS-2005>
250.586456298828

> <r_mmod_Improper_Torsional_Energy-OPLS-2005>
6.81730890274048

> <r_mmod_Van_der_Waal_Energy-OPLS-2005>
148.952056884766

> <r_mmod_Electrostatic_Energy-OPLS-2005>
-299.210632324219

> <r_mmod_Solvation_Energy-OPLS-2005>
-215.369979858398

> <b_mmod_Minimization_Converged-OPLS-2005>
0

> <r_mmod_RMS_Derivative-OPLS-2005>
4.4893684387207

$$$$
34
                    3D
 Structure written by MMmdl.
151159  0  0  1  0            999 V2000
  -30.6337  -14.6669   20.6100 C   0  0  0  0  0  0
  -30.4439  -12.4405   19.4562 C   0  0  0  0  0  0
  -29.5115  -12.5488   18.2290 C   0  0  0  0  0  0
  -28.0380  -12.3653   18.6372 C   0  0  0  0  0  0
  -27.6581  -13.2220   19.8734 C   0  0  2  0  0  0
  -28.6962  -13.0620   21.0051 C   0  0  0  0  0  0
  -25.2573  -13.8166   20.5703 C   0  0  0  0  0  0
  -24.1840  -13.0424   20.9174 C   0  0  0  0  0  0
  -24.6415  -11.6890   20.8704 C   0  0  0  0  0  0
  -23.9075  -10.4285   21.0367 C   0  0  0  0  0  0
  -24.3624   -9.4216   21.9159 C   0  0  0  0  0  0
  -23.6296   -8.2254   22.0745 C   0  0  0  0  0  0
  -22.4282   -8.0278   21.3533 C   0  0  0  0  0  0
  -21.9908   -9.0248   20.4637 C   0  0  0  0  0  0
  -22.7236  -10.2126   20.3036 C   0  0  0  0  0  0
  -21.6859   -6.0735   22.5271 C   0  0  0  0  0  0
  -21.4021   -6.5639   23.8213 C   0  0  0  0  0  0
  -21.3657   -5.6797   24.9174 C   0  0  0  0  0  0
  -21.6050   -4.3056   24.7237 C   0  0  0  0  0  0
  -21.8813   -3.8146   23.4357 C   0  0  0  0  0  0
  -21.9201   -4.6959   22.3406 C   0  0  0  0  0  0
  -22.7865  -13.5195   21.1850 C   0  0  0  0  0  0
  -22.1676   -4.2144   21.0988 F   0  0  0  0  0  0
  -21.5636   -3.4545   25.7752 F   0  0  0  0  0  0
  -30.0139  -13.4417   20.4616 N   0  0  0  0  0  0
  -26.3014  -12.9364   20.3355 N   0  0  0  0  0  0
  -25.9345  -11.6499   20.5720 N   0  0  0  0  0  0
  -22.0517  -12.8188   22.0411 N   0  0  0  0  0  0
  -25.4298  -15.1891   20.4153 N   0  0  0  0  0  0
  -31.6871  -14.9015   20.0100 O   0  0  0  0  0  0
  -21.6637   -6.8883   21.4238 O   0  0  0  0  0  0
  -22.3546  -14.5493   20.6685 O   0  0  0  0  0  0
  -24.6291  -31.8587   23.2004 C   0  0  0  0  0  0
  -25.9117  -32.4782   23.8368 C   0  0  1  0  0  0
  -27.2181  -27.2856   20.1301 C   0  0  0  0  0  0
  -25.5924  -33.8586   24.2289 N   0  0  0  0  0  0
  -23.4276  -30.4823   21.5429 C   0  0  2  0  0  0
  -24.8774  -28.9407   20.1064 C   0  0  0  0  0  0
  -22.7512  -29.4619   22.4904 C   0  0  0  0  0  0
  -18.0301  -28.1395   22.8492 C   0  0  0  0  0  0
  -24.1480  -36.7288   23.2638 C   0  0  0  0  0  0
  -25.9719  -30.7796   21.3803 C   0  0  0  0  0  0
  -26.0475  -29.4042   20.7236 C   0  0  0  0  0  0
  -27.2226  -28.5865   20.7330 C   0  0  0  0  0  0
  -26.0338  -26.9016   19.4585 C   0  0  0  0  0  0
  -24.8747  -27.6964   19.4610 C   0  0  0  0  0  0
  -23.6458  -29.8227   20.1566 C   0  0  0  0  0  0
  -25.4109  -36.3082   24.0329 C   0  0  1  0  0  0
  -20.5901  -28.3707   23.1271 C   0  0  2  0  0  0
  -20.6788  -26.9424   22.5414 C   0  0  0  0  0  0
  -19.5753  -26.6395   21.5230 C   0  0  0  0  0  0
  -18.1934  -26.7941   22.1630 C   0  0  0  0  0  0
  -19.1552  -28.8871   23.2881 C   0  0  0  0  0  0
  -18.9471  -30.1477   23.8896 C   0  0  0  0  0  0
  -17.6467  -30.6592   24.0578 C   0  0  0  0  0  0
  -25.9054  -34.9453   23.5110 C   0  0  0  0  0  0
  -16.5361  -29.9098   23.6328 C   0  0  0  0  0  0
  -16.7289  -28.6514   23.0350 C   0  0  0  0  0  0
  -26.4498  -31.6593   25.0744 C   0  0  0  0  0  0
  -25.3717  -31.3741   26.1465 C   0  0  0  0  0  0
  -27.0345  -30.3008   24.6219 C   0  0  0  0  0  0
  -27.6056  -32.4341   25.7505 C   0  0  0  0  0  0
  -27.5579  -37.1802   24.8466 C   0  0  0  0  0  0
  -21.4214  -29.3058   22.3658 N   0  0  0  0  0  0
  -26.4287  -37.3781   23.9410 N   0  0  0  0  0  0
  -24.6949  -31.0574   22.0969 N   0  0  0  0  0  0
  -23.4218  -28.8157   23.2998 O   0  0  0  0  0  0
  -28.2702  -26.3449   20.1893 O   0  0  0  0  0  0
  -26.5626  -34.8916   22.4680 O   0  0  0  0  0  0
  -23.5444  -32.1410   23.7298 O   0  0  0  0  0  0
  -30.5843  -19.2995   21.0735 C   0  0  0  0  0  0
  -30.2806  -20.6899   20.8593 C   0  0  0  0  0  0
  -28.2935  -18.7317   20.6903 C   0  0  0  0  0  0
  -29.5980  -18.2683   21.0100 C   0  0  0  0  0  0
  -28.9536  -21.1426   20.6004 C   0  0  0  0  0  0
  -27.9788  -20.1123   20.4897 C   0  0  0  0  0  0
  -29.7250  -16.9295   21.7412 C   0  0  0  0  0  0
  -30.0640  -15.5866   21.6364 C   0  0  0  0  0  0
  -29.0301  -23.7871   20.4044 C   0  0  0  0  0  0
  -27.9784  -24.9959   20.6850 C   0  0  0  0  0  0
  -26.6520  -20.4646   20.2312 N   0  0  0  0  0  0
  -28.4754  -22.5391   20.5829 N   0  0  0  0  0  0
  -30.2041  -23.9809   20.0671 O   0  0  0  0  0  0
  -26.9376  -24.7303   21.3002 O   0  0  0  0  0  0
  -31.4820  -12.5830   19.1524 H   0  0  0  0  0  0
  -30.3982  -11.4383   19.8831 H   0  0  0  0  0  0
  -29.7836  -11.8028   17.4808 H   0  0  0  0  0  0
  -29.6416  -13.5237   17.7574 H   0  0  0  0  0  0
  -27.8802  -11.3084   18.8577 H   0  0  0  0  0  0
  -27.3858  -12.6071   17.7965 H   0  0  0  0  0  0
  -27.6828  -14.2637   19.5507 H   0  0  0  0  0  0
  -28.7214  -12.0288   21.3545 H   0  0  0  0  0  0
  -28.3996  -13.6521   21.8707 H   0  0  0  0  0  0
  -25.2775   -9.5699   22.4729 H   0  0  0  0  0  0
  -24.0004   -7.4647   22.7468 H   0  0  0  0  0  0
  -21.0845   -8.8761   19.8946 H   0  0  0  0  0  0
  -22.3685  -10.9658   19.6144 H   0  0  0  0  0  0
  -21.2006   -7.6144   23.9721 H   0  0  0  0  0  0
  -21.1476   -6.0526   25.9085 H   0  0  0  0  0  0
  -22.0583   -2.7601   23.2861 H   0  0  0  0  0  0
  -22.4129  -11.9857   22.4807 H   0  0  0  0  0  0
  -21.1126  -13.1206   22.2567 H   0  0  0  0  0  0
  -24.6692  -15.8492   20.5308 H   0  0  0  0  0  0
  -26.2894  -15.6197   20.0988 H   0  0  0  0  0  0
  -26.7185  -32.5440   23.1124 H   0  0  0  0  0  0
  -25.0081  -33.9750   25.0438 H   0  0  0  0  0  0
  -22.7222  -31.3036   21.3992 H   0  0  0  0  0  0
  -23.3749  -35.9618   23.3305 H   0  0  0  0  0  0
  -24.3575  -36.8907   22.2055 H   0  0  0  0  0  0
  -23.7229  -37.6487   23.6658 H   0  0  0  0  0  0
  -26.1114  -31.5401   20.6113 H   0  0  0  0  0  0
  -26.8500  -30.8296   22.0123 H   0  0  0  0  0  0
  -28.1136  -28.9295   21.2391 H   0  0  0  0  0  0
  -25.9851  -25.9444   18.9574 H   0  0  0  0  0  0
  -23.9827  -27.3405   18.9643 H   0  0  0  0  0  0
  -23.7653  -30.6029   19.4037 H   0  0  0  0  0  0
  -22.7655  -29.2534   19.8493 H   0  0  0  0  0  0
  -25.1294  -36.1945   25.0825 H   0  0  0  0  0  0
  -21.0016  -28.3294   24.1382 H   0  0  0  0  0  0
  -20.5706  -26.2325   23.3631 H   0  0  0  0  0  0
  -21.6652  -26.7459   22.1195 H   0  0  0  0  0  0
  -19.6912  -25.6313   21.1252 H   0  0  0  0  0  0
  -19.6678  -27.3217   20.6770 H   0  0  0  0  0  0
  -17.4217  -26.6721   21.4018 H   0  0  0  0  0  0
  -18.0299  -26.0089   22.9017 H   0  0  0  0  0  0
  -19.7947  -30.7303   24.2246 H   0  0  0  0  0  0
  -17.5016  -31.6259   24.5203 H   0  0  0  0  0  0
  -15.5356  -30.2999   23.7644 H   0  0  0  0  0  0
  -15.8691  -28.0838   22.7048 H   0  0  0  0  0  0
  -24.5899  -30.7087   25.7797 H   0  0  0  0  0  0
  -24.8906  -32.2905   26.4882 H   0  0  0  0  0  0
  -25.8033  -30.8931   27.0251 H   0  0  0  0  0  0
  -26.2929  -29.6759   24.1225 H   0  0  0  0  0  0
  -27.4009  -29.7272   25.4744 H   0  0  0  0  0  0
  -27.8818  -30.4298   23.9484 H   0  0  0  0  0  0
  -27.2668  -33.3650   26.2076 H   0  0  0  0  0  0
  -28.3856  -32.6898   25.0320 H   0  0  0  0  0  0
  -28.0736  -31.8478   26.5426 H   0  0  0  0  0  0
  -28.2602  -38.0093   24.7508 H   0  0  0  0  0  0
  -28.1068  -36.2622   24.6291 H   0  0  0  0  0  0
  -27.2298  -37.1458   25.8870 H   0  0  0  0  0  0
  -20.9393  -29.8787   21.6867 H   0  0  0  0  0  0
  -26.0165  -38.2857   24.1416 H   0  0  0  0  0  0
  -31.5823  -19.0342   21.3919 H   0  0  0  0  0  0
  -31.0703  -21.4165   20.9820 H   0  0  0  0  0  0
  -27.4888  -18.0092   20.7018 H   0  0  0  0  0  0
  -29.3901  -17.1104   22.7532 H   0  0  0  0  0  0
  -29.9116  -15.0702   22.5731 H   0  0  0  0  0  0
  -26.0174  -19.7048   20.0089 H   0  0  0  0  0  0
  -26.5081  -21.2491   19.6055 H   0  0  0  0  0  0
  -27.4839  -22.6099   20.7805 H   0  0  0  0  0  0
  1 25  1  0  0  0
  1 30  2  0  0  0
  1 78  1  0  0  0
  2  3  1  0  0  0
  2 25  1  0  0  0
  2 85  1  0  0  0
  2 86  1  0  0  0
  3  4  1  0  0  0
  3 87  1  0  0  0
  3 88  1  0  0  0
  4  5  1  0  0  0
  4 89  1  0  0  0
  4 90  1  0  0  0
  5  6  1  0  0  0
  5 26  1  0  0  0
  5 91  1  0  0  0
  6 25  1  0  0  0
  6 92  1  0  0  0
  6 93  1  0  0  0
  7  8  2  0  0  0
  7 26  1  0  0  0
  7 29  1  0  0  0
  8  9  1  0  0  0
  8 22  1  0  0  0
  9 10  1  0  0  0
  9 27  2  0  0  0
 10 11  2  0  0  0
 10 15  1  0  0  0
 11 12  1  0  0  0
 11 94  1  0  0  0
 12 13  2  0  0  0
 12 95  1  0  0  0
 13 14  1  0  0  0
 13 31  1  0  0  0
 14 15  2  0  0  0
 14 96  1  0  0  0
 15 97  1  0  0  0
 16 17  2  0  0  0
 16 21  1  0  0  0
 16 31  1  0  0  0
 17 18  1  0  0  0
 17 98  1  0  0  0
 18 19  2  0  0  0
 18 99  1  0  0  0
 19 20  1  0  0  0
 19 24  1  0  0  0
 20 21  2  0  0  0
 20100  1  0  0  0
 21 23  1  0  0  0
 22 28  1  0  0  0
 22 32  2  0  0  0
 26 27  1  0  0  0
 28101  1  0  0  0
 28102  1  0  0  0
 29103  1  0  0  0
 29104  1  0  0  0
 33 34  1  0  0  0
 33 66  1  0  0  0
 33 70  2  0  0  0
 34 36  1  0  0  0
 34 59  1  0  0  0
 34105  1  0  0  0
 35 44  2  0  0  0
 35 45  1  0  0  0
 35 68  1  0  0  0
 36 56  1  0  0  0
 36106  1  0  0  0
 37 39  1  0  0  0
 37 47  1  0  0  0
 37 66  1  0  0  0
 37107  1  0  0  0
 38 43  2  0  0  0
 38 46  1  0  0  0
 38 47  1  0  0  0
 39 64  1  0  0  0
 39 67  2  0  0  0
 40 52  1  0  0  0
 40 53  2  0  0  0
 40 58  1  0  0  0
 41108  1  0  0  0
 41109  1  0  0  0
 41110  1  0  0  0
 41 48  1  0  0  0
 42 43  1  0  0  0
 42 66  1  0  0  0
 42111  1  0  0  0
 42112  1  0  0  0
 43 44  1  0  0  0
 44113  1  0  0  0
 45 46  2  0  0  0
 45114  1  0  0  0
 46115  1  0  0  0
 47116  1  0  0  0
 47117  1  0  0  0
 48 56  1  0  0  0
 48 65  1  0  0  0
 48118  1  0  0  0
 49 50  1  0  0  0
 49 53  1  0  0  0
 49 64  1  0  0  0
 49119  1  0  0  0
 50 51  1  0  0  0
 50120  1  0  0  0
 50121  1  0  0  0
 51 52  1  0  0  0
 51122  1  0  0  0
 51123  1  0  0  0
 52124  1  0  0  0
 52125  1  0  0  0
 53 54  1  0  0  0
 54 55  2  0  0  0
 54126  1  0  0  0
 55 57  1  0  0  0
 55127  1  0  0  0
 56 69  2  0  0  0
 57 58  2  0  0  0
 57128  1  0  0  0
 58129  1  0  0  0
 59 60  1  0  0  0
 59 61  1  0  0  0
 59 62  1  0  0  0
 60130  1  0  0  0
 60131  1  0  0  0
 60132  1  0  0  0
 61133  1  0  0  0
 61134  1  0  0  0
 61135  1  0  0  0
 62136  1  0  0  0
 62137  1  0  0  0
 62138  1  0  0  0
 63 65  1  0  0  0
 63139  1  0  0  0
 63140  1  0  0  0
 63141  1  0  0  0
 64142  1  0  0  0
 65143  1  0  0  0
 68 80  1  0  0  0
 71 72  2  0  0  0
 71 74  1  0  0  0
 71144  1  0  0  0
 72 75  1  0  0  0
 72145  1  0  0  0
 73 74  2  0  0  0
 73 76  1  0  0  0
 73146  1  0  0  0
 74 77  1  0  0  0
 75 76  2  0  0  0
 75 82  1  0  0  0
 76 81  1  0  0  0
 77 78  2  0  0  0
 77147  1  0  0  0
 78148  1  0  0  0
 79 80  1  0  0  0
 79 82  1  0  0  0
 79 83  2  0  0  0
 80 84  2  0  0  0
 81149  1  0  0  0
 81150  1  0  0  0
 82151  1  0  0  0
M  ISO  4   1 100  68 101  78 100  80 101
M  END
> <chiral flag>
0

> <version>
0

> <s_m_source_file>
/data/baiqing/PycharmProjects/Reinvent-master-3.2/result/LINK_invent/BTK/process_docking_weight1_custom_product_contain_oxygen_bond_distance_aromatic_linkinvent_7_9_3/rearranged_h_0091.sdf

> <i_m_source_file_index>
35

> <r_mmod_Potential_Energy-OPLS-2005>
206.887023925781

> <r_mmod_Stretch_Energy-OPLS-2005>
108.766403198242

> <r_mmod_Bend_Energy-OPLS-2005>
234.817657470703

> <r_mmod_Torsional_Energy-OPLS-2005>
251.251480102539

> <r_mmod_Improper_Torsional_Energy-OPLS-2005>
14.7968273162842

> <r_mmod_Van_der_Waal_Energy-OPLS-2005>
145.585296630859

> <r_mmod_Electrostatic_Energy-OPLS-2005>
-386.677001953125

> <r_mmod_Solvation_Energy-OPLS-2005>
-230.361938476562

> <b_mmod_Minimization_Converged-OPLS-2005>
0

> <r_mmod_RMS_Derivative-OPLS-2005>
2.94151282310486

$$$$
35
                    3D
 Structure written by MMmdl.
153162  0  0  1  0            999 V2000
  -30.5144  -15.1009   20.3668 C   0  0  0  0  0  0
  -30.4295  -12.6867   19.5297 C   0  0  0  0  0  0
  -29.5285  -12.5527   18.2794 C   0  0  0  0  0  0
  -28.0668  -12.3140   18.6951 C   0  0  0  0  0  0
  -27.6183  -13.2693   19.8313 C   0  0  2  0  0  0
  -28.6529  -13.3832   20.9718 C   0  0  0  0  0  0
  -25.2408  -13.8253   20.5736 C   0  0  0  0  0  0
  -24.1750  -13.0446   20.9241 C   0  0  0  0  0  0
  -24.6397  -11.6940   20.8755 C   0  0  0  0  0  0
  -23.9091  -10.4297   21.0403 C   0  0  0  0  0  0
  -24.3638   -9.4210   21.9181 C   0  0  0  0  0  0
  -23.6307   -8.2246   22.0752 C   0  0  0  0  0  0
  -22.4287   -8.0285   21.3544 C   0  0  0  0  0  0
  -21.9927   -9.0259   20.4644 C   0  0  0  0  0  0
  -22.7261  -10.2135   20.3053 C   0  0  0  0  0  0
  -21.6858   -6.0740   22.5278 C   0  0  0  0  0  0
  -21.4018   -6.5643   23.8212 C   0  0  0  0  0  0
  -21.3662   -5.6794   24.9175 C   0  0  0  0  0  0
  -21.6045   -4.3057   24.7224 C   0  0  0  0  0  0
  -21.8819   -3.8149   23.4344 C   0  0  0  0  0  0
  -21.9193   -4.6966   22.3401 C   0  0  0  0  0  0
  -22.7767  -13.5199   21.1895 C   0  0  0  0  0  0
  -22.1661   -4.2151   21.0978 F   0  0  0  0  0  0
  -21.5628   -3.4540   25.7736 F   0  0  0  0  0  0
  -29.9134  -13.8261   20.3622 N   0  0  0  0  0  0
  -26.2837  -12.9522   20.3234 N   0  0  0  0  0  0
  -25.9334  -11.6629   20.5730 N   0  0  0  0  0  0
  -22.0427  -12.8179   22.0450 N   0  0  0  0  0  0
  -25.4057  -15.1987   20.4182 N   0  0  0  0  0  0
  -31.7293  -15.0825   20.1270 O   0  0  0  0  0  0
  -21.6648   -6.8884   21.4241 O   0  0  0  0  0  0
  -22.3442  -14.5500   20.6738 O   0  0  0  0  0  0
  -24.6531  -31.8340   23.1796 C   0  0  0  0  0  0
  -25.9260  -32.4640   23.8220 C   0  0  1  0  0  0
  -27.2154  -27.0276   20.1638 C   0  0  0  0  0  0
  -25.5968  -33.8451   24.2131 N   0  0  0  0  0  0
  -23.4622  -30.4500   21.5266 C   0  0  2  0  0  0
  -24.9136  -28.8590   20.1070 C   0  0  0  0  0  0
  -22.7615  -29.4495   22.4815 C   0  0  0  0  0  0
  -18.0315  -28.1403   22.8472 C   0  0  0  0  0  0
  -24.1494  -36.7230   23.2645 C   0  0  0  0  0  0
  -26.0251  -30.6716   21.3962 C   0  0  0  0  0  0
  -26.0928  -29.2723   20.7387 C   0  0  0  0  0  0
  -27.2377  -28.3725   20.7519 C   0  0  0  0  0  0
  -26.0095  -26.7469   19.4815 C   0  0  0  0  0  0
  -24.8915  -27.6138   19.4611 C   0  0  0  0  0  0
  -23.6952  -29.7742   20.1481 C   0  0  0  0  0  0
  -25.4130  -36.2998   24.0308 C   0  0  1  0  0  0
  -20.5933  -28.3740   23.1211 C   0  0  2  0  0  0
  -20.6796  -26.9432   22.5403 C   0  0  0  0  0  0
  -19.5768  -26.6381   21.5215 C   0  0  0  0  0  0
  -18.1950  -26.7939   22.1624 C   0  0  0  0  0  0
  -19.1574  -28.8891   23.2832 C   0  0  0  0  0  0
  -18.9487  -30.1484   23.8862 C   0  0  0  0  0  0
  -17.6482  -30.6597   24.0557 C   0  0  0  0  0  0
  -25.9088  -34.9378   23.5034 C   0  0  0  0  0  0
  -16.5373  -29.9086   23.6340 C   0  0  0  0  0  0
  -16.7298  -28.6506   23.0359 C   0  0  0  0  0  0
  -26.4544  -31.6549   25.0708 C   0  0  0  0  0  0
  -25.3697  -31.3773   26.1381 C   0  0  0  0  0  0
  -27.0429  -30.2928   24.6376 C   0  0  0  0  0  0
  -27.6052  -32.4340   25.7502 C   0  0  0  0  0  0
  -27.5572  -37.1771   24.8465 C   0  0  0  0  0  0
  -21.4297  -29.3046   22.3566 N   0  0  0  0  0  0
  -26.4281  -37.3724   23.9409 N   0  0  0  0  0  0
  -24.7339  -31.0097   22.0883 N   0  0  0  0  0  0
  -23.4208  -28.8054   23.3015 O   0  0  0  0  0  0
  -28.2386  -25.9781   20.2728 O   0  0  0  0  0  0
  -26.5687  -34.8894   22.4622 O   0  0  0  0  0  0
  -23.5624  -32.1269   23.6949 O   0  0  0  0  0  0
  -30.1220  -19.6181   18.3669 C   0  0  0  0  0  0
  -30.5861  -18.7196   17.4659 C   0  0  0  0  0  0
  -29.6693  -19.1071   19.6346 C   0  0  0  0  0  0
  -29.9347  -17.6157   19.6901 C   0  0  0  0  0  0
  -28.6523  -23.2667   20.4136 C   0  0  0  0  0  0
  -29.5149  -23.2510   21.6087 C   0  0  0  0  0  0
  -28.0994  -24.5203   19.9264 C   0  0  0  0  0  0
  -28.4804  -21.6841   19.8705 C   0  0  0  0  0  0
  -29.6312  -21.9183   22.3788 C   0  0  0  0  0  0
  -30.0869  -20.6986   21.5282 C   0  0  0  0  0  0
  -29.1901  -20.3508   20.4228 N   0  0  0  0  0  0
  -29.8062  -16.3782   20.4708 N   0  0  0  0  0  0
  -30.1121  -24.2447   22.0360 O   0  0  0  0  0  0
  -30.5433  -17.1367   18.0962 S   0  0  0  0  0  0
  -31.4633  -12.8400   19.2168 H   0  0  0  0  0  0
  -30.4349  -11.7591   20.1043 H   0  0  0  0  0  0
  -29.8764  -11.7372   17.6439 H   0  0  0  0  0  0
  -29.5977  -13.4623   17.6804 H   0  0  0  0  0  0
  -27.9870  -11.2797   19.0318 H   0  0  0  0  0  0
  -27.4047  -12.4066   17.8333 H   0  0  0  0  0  0
  -27.5554  -14.2537   19.3658 H   0  0  0  0  0  0
  -28.7722  -12.4345   21.4974 H   0  0  0  0  0  0
  -28.3233  -14.1115   21.7142 H   0  0  0  0  0  0
  -25.2779   -9.5688   22.4761 H   0  0  0  0  0  0
  -24.0014   -7.4639   22.7477 H   0  0  0  0  0  0
  -21.0856   -8.8782   19.8951 H   0  0  0  0  0  0
  -22.3717  -10.9676   19.6166 H   0  0  0  0  0  0
  -21.2012   -7.6151   23.9717 H   0  0  0  0  0  0
  -21.1485   -6.0524   25.9078 H   0  0  0  0  0  0
  -22.0595   -2.7610   23.2844 H   0  0  0  0  0  0
  -22.4063  -11.9851   22.4843 H   0  0  0  0  0  0
  -21.1036  -13.1182   22.2653 H   0  0  0  0  0  0
  -24.6369  -15.8500   20.5344 H   0  0  0  0  0  0
  -26.2510  -15.6410   20.0811 H   0  0  0  0  0  0
  -26.7324  -32.5210   23.0937 H   0  0  0  0  0  0
  -25.0077  -33.9550   25.0253 H   0  0  0  0  0  0
  -22.7704  -31.2792   21.3649 H   0  0  0  0  0  0
  -23.3764  -35.9552   23.3284 H   0  0  0  0  0  0
  -24.3574  -36.8893   22.2063 H   0  0  0  0  0  0
  -23.7242  -37.6412   23.6707 H   0  0  0  0  0  0
  -26.1956  -31.4194   20.6204 H   0  0  0  0  0  0
  -26.8891  -30.7235   22.0467 H   0  0  0  0  0  0
  -28.1295  -28.6803   21.2794 H   0  0  0  0  0  0
  -25.8814  -25.7963   18.9887 H   0  0  0  0  0  0
  -23.9933  -27.2925   18.9515 H   0  0  0  0  0  0
  -23.8405  -30.5467   19.3921 H   0  0  0  0  0  0
  -22.8070  -29.2233   19.8338 H   0  0  0  0  0  0
  -25.1323  -36.1807   25.0799 H   0  0  0  0  0  0
  -21.0028  -28.3340   24.1331 H   0  0  0  0  0  0
  -20.5686  -26.2356   23.3633 H   0  0  0  0  0  0
  -21.6660  -26.7426   22.1203 H   0  0  0  0  0  0
  -19.6929  -25.6283   21.1266 H   0  0  0  0  0  0
  -19.6704  -27.3171   20.6729 H   0  0  0  0  0  0
  -17.4219  -26.6684   21.4028 H   0  0  0  0  0  0
  -18.0347  -26.0091   22.9029 H   0  0  0  0  0  0
  -19.7964  -30.7311   24.2214 H   0  0  0  0  0  0
  -17.5034  -31.6273   24.5167 H   0  0  0  0  0  0
  -15.5372  -30.2975   23.7687 H   0  0  0  0  0  0
  -15.8698  -28.0813   22.7093 H   0  0  0  0  0  0
  -24.5890  -30.7108   25.7696 H   0  0  0  0  0  0
  -24.8871  -32.2966   26.4709 H   0  0  0  0  0  0
  -25.7950  -30.9007   27.0222 H   0  0  0  0  0  0
  -26.3077  -29.6620   24.1366 H   0  0  0  0  0  0
  -27.3979  -29.7268   25.4999 H   0  0  0  0  0  0
  -27.9011  -30.4133   23.9760 H   0  0  0  0  0  0
  -27.2630  -33.3674   26.1985 H   0  0  0  0  0  0
  -28.3909  -32.6848   25.0362 H   0  0  0  0  0  0
  -28.0669  -31.8530   26.5496 H   0  0  0  0  0  0
  -28.2574  -38.0082   24.7514 H   0  0  0  0  0  0
  -28.1083  -36.2609   24.6288 H   0  0  0  0  0  0
  -27.2290  -37.1410   25.8868 H   0  0  0  0  0  0
  -20.9529  -29.8741   21.6715 H   0  0  0  0  0  0
  -26.0137  -38.2787   24.1414 H   0  0  0  0  0  0
  -30.1253  -20.6665   18.1173 H   0  0  0  0  0  0
  -30.9582  -18.8999   16.4647 H   0  0  0  0  0  0
  -27.4827  -24.4347   19.0462 H   0  0  0  0  0  0
  -28.5628  -21.7405   18.7876 H   0  0  0  0  0  0
  -27.4184  -21.4852   20.0187 H   0  0  0  0  0  0
  -28.6650  -21.7074   22.8372 H   0  0  0  0  0  0
  -30.3329  -22.0607   23.2008 H   0  0  0  0  0  0
  -30.1894  -19.8298   22.1804 H   0  0  0  0  0  0
  -31.0825  -20.8930   21.1253 H   0  0  0  0  0  0
  -28.9293  -16.3082   20.9658 H   0  0  0  0  0  0
  1 25  1  0  0  0
  1 30  2  0  0  0
  1 82  1  0  0  0
  2  3  1  0  0  0
  2 25  1  0  0  0
  2 85  1  0  0  0
  2 86  1  0  0  0
  3  4  1  0  0  0
  3 87  1  0  0  0
  3 88  1  0  0  0
  4  5  1  0  0  0
  4 89  1  0  0  0
  4 90  1  0  0  0
  5  6  1  0  0  0
  5 26  1  0  0  0
  5 91  1  0  0  0
  6 25  1  0  0  0
  6 92  1  0  0  0
  6 93  1  0  0  0
  7  8  2  0  0  0
  7 26  1  0  0  0
  7 29  1  0  0  0
  8  9  1  0  0  0
  8 22  1  0  0  0
  9 10  1  0  0  0
  9 27  2  0  0  0
 10 11  2  0  0  0
 10 15  1  0  0  0
 11 12  1  0  0  0
 11 94  1  0  0  0
 12 13  2  0  0  0
 12 95  1  0  0  0
 13 14  1  0  0  0
 13 31  1  0  0  0
 14 15  2  0  0  0
 14 96  1  0  0  0
 15 97  1  0  0  0
 16 17  2  0  0  0
 16 21  1  0  0  0
 16 31  1  0  0  0
 17 18  1  0  0  0
 17 98  1  0  0  0
 18 19  2  0  0  0
 18 99  1  0  0  0
 19 20  1  0  0  0
 19 24  1  0  0  0
 20 21  2  0  0  0
 20100  1  0  0  0
 21 23  1  0  0  0
 22 28  1  0  0  0
 22 32  2  0  0  0
 26 27  1  0  0  0
 28101  1  0  0  0
 28102  1  0  0  0
 29103  1  0  0  0
 29104  1  0  0  0
 33 34  1  0  0  0
 33 66  1  0  0  0
 33 70  2  0  0  0
 34 36  1  0  0  0
 34 59  1  0  0  0
 34105  1  0  0  0
 35 44  2  0  0  0
 35 45  1  0  0  0
 35 68  1  0  0  0
 36 56  1  0  0  0
 36106  1  0  0  0
 37 39  1  0  0  0
 37 47  1  0  0  0
 37 66  1  0  0  0
 37107  1  0  0  0
 38 43  2  0  0  0
 38 46  1  0  0  0
 38 47  1  0  0  0
 39 64  1  0  0  0
 39 67  2  0  0  0
 40 52  1  0  0  0
 40 53  2  0  0  0
 40 58  1  0  0  0
 41108  1  0  0  0
 41109  1  0  0  0
 41110  1  0  0  0
 41 48  1  0  0  0
 42 43  1  0  0  0
 42 66  1  0  0  0
 42111  1  0  0  0
 42112  1  0  0  0
 43 44  1  0  0  0
 44113  1  0  0  0
 45 46  2  0  0  0
 45114  1  0  0  0
 46115  1  0  0  0
 47116  1  0  0  0
 47117  1  0  0  0
 48 56  1  0  0  0
 48 65  1  0  0  0
 48118  1  0  0  0
 49 50  1  0  0  0
 49 53  1  0  0  0
 49 64  1  0  0  0
 49119  1  0  0  0
 50 51  1  0  0  0
 50120  1  0  0  0
 50121  1  0  0  0
 51 52  1  0  0  0
 51122  1  0  0  0
 51123  1  0  0  0
 52124  1  0  0  0
 52125  1  0  0  0
 53 54  1  0  0  0
 54 55  2  0  0  0
 54126  1  0  0  0
 55 57  1  0  0  0
 55127  1  0  0  0
 56 69  2  0  0  0
 57 58  2  0  0  0
 57128  1  0  0  0
 58129  1  0  0  0
 59 60  1  0  0  0
 59 61  1  0  0  0
 59 62  1  0  0  0
 60130  1  0  0  0
 60131  1  0  0  0
 60132  1  0  0  0
 61133  1  0  0  0
 61134  1  0  0  0
 61135  1  0  0  0
 62136  1  0  0  0
 62137  1  0  0  0
 62138  1  0  0  0
 63 65  1  0  0  0
 63139  1  0  0  0
 63140  1  0  0  0
 63141  1  0  0  0
 64142  1  0  0  0
 65143  1  0  0  0
 68 77  1  0  0  0
 71 72  2  0  0  0
 71 73  1  0  0  0
 71144  1  0  0  0
 72 84  1  0  0  0
 72145  1  0  0  0
 73 74  2  0  0  0
 73 81  1  0  0  0
 74 82  1  0  0  0
 74 84  1  0  0  0
 75 76  1  0  0  0
 75 77  2  0  0  0
 75 78  1  0  0  0
 76 79  1  0  0  0
 76 83  2  0  0  0
 77146  1  0  0  0
 78 81  1  0  0  0
 78147  1  0  0  0
 78148  1  0  0  0
 79 80  1  0  0  0
 79149  1  0  0  0
 79150  1  0  0  0
 80 81  1  0  0  0
 80151  1  0  0  0
 80152  1  0  0  0
 82153  1  0  0  0
M  ISO  4   1 100  68 101  77 101  82 100
M  END
> <chiral flag>
0

> <version>
0

> <s_m_source_file>
/data/baiqing/PycharmProjects/Reinvent-master-3.2/result/LINK_invent/BTK/process_docking_weight1_custom_product_contain_oxygen_bond_distance_aromatic_linkinvent_7_9_3/rearranged_h_0091.sdf

> <i_m_source_file_index>
36

> <r_mmod_Potential_Energy-OPLS-2005>
798.684509277344

> <r_mmod_Stretch_Energy-OPLS-2005>
388.130218505859

> <r_mmod_Bend_Energy-OPLS-2005>
371.256683349609

> <r_mmod_Torsional_Energy-OPLS-2005>
250.268127441406

> <r_mmod_Improper_Torsional_Energy-OPLS-2005>
7.95219469070435

> <r_mmod_Van_der_Waal_Energy-OPLS-2005>
132.020065307617

> <r_mmod_Electrostatic_Energy-OPLS-2005>
-409.249176025391

> <r_mmod_Solvation_Energy-OPLS-2005>
-251.270263671875

> <b_mmod_Minimization_Converged-OPLS-2005>
0

> <r_mmod_RMS_Derivative-OPLS-2005>
0.304792284965515

$$$$
36
                    3D
 Structure written by MMmdl.
157165  0  0  1  0            999 V2000
  -30.6731  -14.6532   20.3918 C   0  0  0  0  0  0
  -30.4395  -12.3849   19.4399 C   0  0  0  0  0  0
  -29.5083  -12.4388   18.2123 C   0  0  0  0  0  0
  -28.0325  -12.3098   18.6347 C   0  0  0  0  0  0
  -27.6485  -13.2245   19.8323 C   0  0  2  0  0  0
  -28.7033  -13.1606   20.9554 C   0  0  0  0  0  0
  -25.2570  -13.8172   20.5640 C   0  0  0  0  0  0
  -24.1844  -13.0454   20.9176 C   0  0  0  0  0  0
  -24.6453  -11.6922   20.8748 C   0  0  0  0  0  0
  -23.9133  -10.4294   21.0399 C   0  0  0  0  0  0
  -24.3671   -9.4189   21.9167 C   0  0  0  0  0  0
  -23.6308   -8.2243   22.0756 C   0  0  0  0  0  0
  -22.4271   -8.0315   21.3564 C   0  0  0  0  0  0
  -21.9935   -9.0290   20.4650 C   0  0  0  0  0  0
  -22.7312  -10.2143   20.3040 C   0  0  0  0  0  0
  -21.6844   -6.0763   22.5316 C   0  0  0  0  0  0
  -21.4003   -6.5641   23.8264 C   0  0  0  0  0  0
  -21.3642   -5.6781   24.9209 C   0  0  0  0  0  0
  -21.6046   -4.3050   24.7241 C   0  0  0  0  0  0
  -21.8811   -3.8164   23.4354 C   0  0  0  0  0  0
  -21.9179   -4.6994   22.3423 C   0  0  0  0  0  0
  -22.7854  -13.5252   21.1829 C   0  0  0  0  0  0
  -22.1637   -4.2188   21.0993 F   0  0  0  0  0  0
  -21.5625   -3.4528   25.7742 F   0  0  0  0  0  0
  -30.0044  -13.4610   20.3483 N   0  0  0  0  0  0
  -26.3005  -12.9390   20.3227 N   0  0  0  0  0  0
  -25.9382  -11.6548   20.5772 N   0  0  0  0  0  0
  -22.0462  -12.8266   22.0356 N   0  0  0  0  0  0
  -25.4295  -15.1893   20.4032 N   0  0  0  0  0  0
  -31.9020  -14.6765   20.2915 O   0  0  0  0  0  0
  -21.6616   -6.8923   21.4286 O   0  0  0  0  0  0
  -22.3559  -14.5586   20.6694 O   0  0  0  0  0  0
  -24.6299  -31.8613   23.2073 C   0  0  0  0  0  0
  -25.9141  -32.4793   23.8388 C   0  0  1  0  0  0
  -27.2005  -27.2997   20.1014 C   0  0  0  0  0  0
  -25.5957  -33.8596   24.2316 N   0  0  0  0  0  0
  -23.4223  -30.4894   21.5515 C   0  0  2  0  0  0
  -24.8638  -28.9597   20.1067 C   0  0  0  0  0  0
  -22.7493  -29.4629   22.4936 C   0  0  0  0  0  0
  -18.0277  -28.1386   22.8478 C   0  0  0  0  0  0
  -24.1488  -36.7279   23.2639 C   0  0  0  0  0  0
  -25.9700  -30.7823   21.3858 C   0  0  0  0  0  0
  -26.0380  -29.4120   20.7225 C   0  0  0  0  0  0
  -27.2100  -28.5923   20.7183 C   0  0  0  0  0  0
  -26.0068  -26.9350   19.4295 C   0  0  0  0  0  0
  -24.8521  -27.7267   19.4515 C   0  0  0  0  0  0
  -23.6351  -29.8395   20.1626 C   0  0  0  0  0  0
  -25.4114  -36.3094   24.0336 C   0  0  1  0  0  0
  -20.5892  -28.3689   23.1260 C   0  0  2  0  0  0
  -20.6767  -26.9399   22.5389 C   0  0  0  0  0  0
  -19.5730  -26.6382   21.5199 C   0  0  0  0  0  0
  -18.1914  -26.7918   22.1614 C   0  0  0  0  0  0
  -19.1542  -28.8855   23.2867 C   0  0  0  0  0  0
  -18.9459  -30.1459   23.8896 C   0  0  0  0  0  0
  -17.6462  -30.6589   24.0566 C   0  0  0  0  0  0
  -25.9050  -34.9458   23.5119 C   0  0  0  0  0  0
  -16.5348  -29.9089   23.6349 C   0  0  0  0  0  0
  -16.7262  -28.6502   23.0368 C   0  0  0  0  0  0
  -26.4514  -31.6599   25.0759 C   0  0  0  0  0  0
  -25.3738  -31.3752   26.1483 C   0  0  0  0  0  0
  -27.0331  -30.3003   24.6232 C   0  0  0  0  0  0
  -27.6097  -32.4310   25.7514 C   0  0  0  0  0  0
  -27.5579  -37.1814   24.8473 C   0  0  0  0  0  0
  -21.4197  -29.3069   22.3682 N   0  0  0  0  0  0
  -26.4295  -37.3781   23.9407 N   0  0  0  0  0  0
  -24.6936  -31.0610   22.1042 N   0  0  0  0  0  0
  -23.4192  -28.8147   23.3010 O   0  0  0  0  0  0
  -28.2715  -26.3829   20.1745 O   0  0  0  0  0  0
  -26.5606  -34.8925   22.4677 O   0  0  0  0  0  0
  -23.5454  -32.1424   23.7369 O   0  0  0  0  0  0
  -30.0650  -19.2609   21.0787 C   0  0  0  0  0  0
  -29.8524  -20.6597   20.8633 C   0  0  0  0  0  0
  -28.0766  -18.7522   19.8214 C   0  0  0  0  0  0
  -29.1772  -18.2692   20.5760 C   0  0  0  0  0  0
  -28.7217  -21.1358   20.1493 C   0  0  0  0  0  0
  -27.8477  -20.1446   19.6224 C   0  0  0  0  0  0
  -30.8890  -15.7038   17.6373 C   0  0  0  0  0  0
  -30.1586  -16.2475   18.6340 C   0  0  0  0  0  0
  -28.7911  -23.7571   20.3243 C   0  0  0  0  0  0
  -29.3355  -16.7338   20.9189 C   0  0  0  0  0  0
  -27.9420  -24.9781   19.7945 C   0  0  0  0  0  0
  -26.7184  -20.5427   18.9024 N   0  0  0  0  0  0
  -28.3799  -22.5290   19.8747 N   0  0  0  0  0  0
  -29.9747  -15.7672   19.9592 N   0  0  0  0  0  0
  -29.7325  -23.9194   21.1051 O   0  0  0  0  0  0
  -31.4795  -12.5003   19.1258 H   0  0  0  0  0  0
  -30.3797  -11.4133   19.9324 H   0  0  0  0  0  0
  -29.7731  -11.6433   17.5164 H   0  0  0  0  0  0
  -29.6460  -13.3677   17.6659 H   0  0  0  0  0  0
  -27.8724  -11.2642   18.9032 H   0  0  0  0  0  0
  -27.3816  -12.5071   17.7808 H   0  0  0  0  0  0
  -27.6441  -14.2435   19.4437 H   0  0  0  0  0  0
  -28.7227  -12.1740   21.4191 H   0  0  0  0  0  0
  -28.4701  -13.8781   21.7447 H   0  0  0  0  0  0
  -25.2836   -9.5619   22.4720 H   0  0  0  0  0  0
  -24.0006   -7.4620   22.7469 H   0  0  0  0  0  0
  -21.0865   -8.8849   19.8956 H   0  0  0  0  0  0
  -22.3834  -10.9674   19.6114 H   0  0  0  0  0  0
  -21.2002   -7.6153   23.9798 H   0  0  0  0  0  0
  -21.1449   -6.0488   25.9118 H   0  0  0  0  0  0
  -22.0603   -2.7629   23.2847 H   0  0  0  0  0  0
  -22.4039  -11.9914   22.4739 H   0  0  0  0  0  0
  -21.1093  -13.1325   22.2569 H   0  0  0  0  0  0
  -24.6663  -15.8476   20.5118 H   0  0  0  0  0  0
  -26.2894  -15.6192   20.0890 H   0  0  0  0  0  0
  -26.7218  -32.5435   23.1138 H   0  0  0  0  0  0
  -25.0156  -33.9760   25.0495 H   0  0  0  0  0  0
  -22.7164  -31.3116   21.4136 H   0  0  0  0  0  0
  -23.3756  -35.9605   23.3328 H   0  0  0  0  0  0
  -24.3565  -36.8865   22.2044 H   0  0  0  0  0  0
  -23.7245  -37.6493   23.6628 H   0  0  0  0  0  0
  -26.1088  -31.5432   20.6175 H   0  0  0  0  0  0
  -26.8490  -30.8271   22.0160 H   0  0  0  0  0  0
  -28.1053  -28.9290   21.2227 H   0  0  0  0  0  0
  -25.9086  -26.0131   18.8796 H   0  0  0  0  0  0
  -23.9587  -27.3831   18.9488 H   0  0  0  0  0  0
  -23.7555  -30.6233   19.4136 H   0  0  0  0  0  0
  -22.7550  -29.2702   19.8566 H   0  0  0  0  0  0
  -25.1300  -36.1951   25.0826 H   0  0  0  0  0  0
  -20.9970  -28.3255   24.1386 H   0  0  0  0  0  0
  -20.5652  -26.2297   23.3599 H   0  0  0  0  0  0
  -21.6640  -26.7403   22.1183 H   0  0  0  0  0  0
  -19.6889  -25.6286   21.1245 H   0  0  0  0  0  0
  -19.6689  -27.3202   20.6731 H   0  0  0  0  0  0
  -17.4171  -26.6660   21.4030 H   0  0  0  0  0  0
  -18.0329  -26.0063   22.9014 H   0  0  0  0  0  0
  -19.7934  -30.7277   24.2260 H   0  0  0  0  0  0
  -17.5008  -31.6282   24.5149 H   0  0  0  0  0  0
  -15.5348  -30.2993   23.7681 H   0  0  0  0  0  0
  -15.8650  -28.0824   22.7104 H   0  0  0  0  0  0
  -24.5892  -30.7137   25.7806 H   0  0  0  0  0  0
  -24.8974  -32.2930   26.4939 H   0  0  0  0  0  0
  -25.8046  -30.8887   27.0243 H   0  0  0  0  0  0
  -26.2909  -29.6766   24.1243 H   0  0  0  0  0  0
  -27.3997  -29.7264   25.4755 H   0  0  0  0  0  0
  -27.8805  -30.4271   23.9488 H   0  0  0  0  0  0
  -27.2763  -33.3660   26.2023 H   0  0  0  0  0  0
  -28.3946  -32.6763   25.0347 H   0  0  0  0  0  0
  -28.0699  -31.8446   26.5478 H   0  0  0  0  0  0
  -28.2613  -38.0096   24.7490 H   0  0  0  0  0  0
  -28.1070  -36.2631   24.6336 H   0  0  0  0  0  0
  -27.2279  -37.1490   25.8873 H   0  0  0  0  0  0
  -20.9366  -29.8831   21.6930 H   0  0  0  0  0  0
  -26.0178  -38.2853   24.1412 H   0  0  0  0  0  0
  -30.9215  -18.9474   21.6615 H   0  0  0  0  0  0
  -30.5667  -21.3673   21.2594 H   0  0  0  0  0  0
  -27.3775  -18.0383   19.4061 H   0  0  0  0  0  0
  -30.9328  -16.1839   16.6697 H   0  0  0  0  0  0
  -31.4551  -14.7896   17.7447 H   0  0  0  0  0  0
  -29.6319  -17.1617   18.4152 H   0  0  0  0  0  0
  -28.3388  -16.3467   21.1345 H   0  0  0  0  0  0
  -29.8622  -16.6654   21.8714 H   0  0  0  0  0  0
  -26.9527  -24.7270   20.1766 H   0  0  0  0  0  0
  -27.9047  -24.9098   18.7059 H   0  0  0  0  0  0
  -26.0664  -19.8090   18.6416 H   0  0  0  0  0  0
  -26.2163  -21.3463   19.2611 H   0  0  0  0  0  0
  -27.6075  -22.5885   19.2251 H   0  0  0  0  0  0
  1 25  1  0  0  0
  1 30  2  0  0  0
  1 84  1  0  0  0
  2  3  1  0  0  0
  2 25  1  0  0  0
  2 86  1  0  0  0
  2 87  1  0  0  0
  3  4  1  0  0  0
  3 88  1  0  0  0
  3 89  1  0  0  0
  4  5  1  0  0  0
  4 90  1  0  0  0
  4 91  1  0  0  0
  5  6  1  0  0  0
  5 26  1  0  0  0
  5 92  1  0  0  0
  6 25  1  0  0  0
  6 93  1  0  0  0
  6 94  1  0  0  0
  7  8  2  0  0  0
  7 26  1  0  0  0
  7 29  1  0  0  0
  8  9  1  0  0  0
  8 22  1  0  0  0
  9 10  1  0  0  0
  9 27  2  0  0  0
 10 11  2  0  0  0
 10 15  1  0  0  0
 11 12  1  0  0  0
 11 95  1  0  0  0
 12 13  2  0  0  0
 12 96  1  0  0  0
 13 14  1  0  0  0
 13 31  1  0  0  0
 14 15  2  0  0  0
 14 97  1  0  0  0
 15 98  1  0  0  0
 16 17  2  0  0  0
 16 21  1  0  0  0
 16 31  1  0  0  0
 17 18  1  0  0  0
 17 99  1  0  0  0
 18 19  2  0  0  0
 18100  1  0  0  0
 19 20  1  0  0  0
 19 24  1  0  0  0
 20 21  2  0  0  0
 20101  1  0  0  0
 21 23  1  0  0  0
 22 28  1  0  0  0
 22 32  2  0  0  0
 26 27  1  0  0  0
 28102  1  0  0  0
 28103  1  0  0  0
 29104  1  0  0  0
 29105  1  0  0  0
 33 34  1  0  0  0
 33 66  1  0  0  0
 33 70  2  0  0  0
 34 36  1  0  0  0
 34 59  1  0  0  0
 34106  1  0  0  0
 35 44  2  0  0  0
 35 45  1  0  0  0
 35 68  1  0  0  0
 36 56  1  0  0  0
 36107  1  0  0  0
 37 39  1  0  0  0
 37 47  1  0  0  0
 37 66  1  0  0  0
 37108  1  0  0  0
 38 43  2  0  0  0
 38 46  1  0  0  0
 38 47  1  0  0  0
 39 64  1  0  0  0
 39 67  2  0  0  0
 40 52  1  0  0  0
 40 53  2  0  0  0
 40 58  1  0  0  0
 41109  1  0  0  0
 41110  1  0  0  0
 41111  1  0  0  0
 41 48  1  0  0  0
 42 43  1  0  0  0
 42 66  1  0  0  0
 42112  1  0  0  0
 42113  1  0  0  0
 43 44  1  0  0  0
 44114  1  0  0  0
 45 46  2  0  0  0
 45115  1  0  0  0
 46116  1  0  0  0
 47117  1  0  0  0
 47118  1  0  0  0
 48 56  1  0  0  0
 48 65  1  0  0  0
 48119  1  0  0  0
 49 50  1  0  0  0
 49 53  1  0  0  0
 49 64  1  0  0  0
 49120  1  0  0  0
 50 51  1  0  0  0
 50121  1  0  0  0
 50122  1  0  0  0
 51 52  1  0  0  0
 51123  1  0  0  0
 51124  1  0  0  0
 52125  1  0  0  0
 52126  1  0  0  0
 53 54  1  0  0  0
 54 55  2  0  0  0
 54127  1  0  0  0
 55 57  1  0  0  0
 55128  1  0  0  0
 56 69  2  0  0  0
 57 58  2  0  0  0
 57129  1  0  0  0
 58130  1  0  0  0
 59 60  1  0  0  0
 59 61  1  0  0  0
 59 62  1  0  0  0
 60131  1  0  0  0
 60132  1  0  0  0
 60133  1  0  0  0
 61134  1  0  0  0
 61135  1  0  0  0
 61136  1  0  0  0
 62137  1  0  0  0
 62138  1  0  0  0
 62139  1  0  0  0
 63 65  1  0  0  0
 63140  1  0  0  0
 63141  1  0  0  0
 63142  1  0  0  0
 64143  1  0  0  0
 65144  1  0  0  0
 68 81  1  0  0  0
 71 72  2  0  0  0
 71 74  1  0  0  0
 71145  1  0  0  0
 72 75  1  0  0  0
 72146  1  0  0  0
 73 74  2  0  0  0
 73 76  1  0  0  0
 73147  1  0  0  0
 74 80  1  0  0  0
 75 76  2  0  0  0
 75 83  1  0  0  0
 76 82  1  0  0  0
 77 78  2  0  0  0
 77148  1  0  0  0
 77149  1  0  0  0
 78 84  1  0  0  0
 78150  1  0  0  0
 79 81  1  0  0  0
 79 83  1  0  0  0
 79 85  2  0  0  0
 80 84  1  0  0  0
 80151  1  0  0  0
 80152  1  0  0  0
 81153  1  0  0  0
 81154  1  0  0  0
 82155  1  0  0  0
 82156  1  0  0  0
 83157  1  0  0  0
M  ISO  4   1 100  68 101  81 101  84 100
M  END
> <chiral flag>
0

> <version>
0

> <s_m_source_file>
/data/baiqing/PycharmProjects/Reinvent-master-3.2/result/LINK_invent/BTK/process_docking_weight1_custom_product_contain_oxygen_bond_distance_aromatic_linkinvent_7_9_3/rearranged_h_0091.sdf

> <i_m_source_file_index>
37

> <r_mmod_Potential_Energy-OPLS-2005>
183.738876342773

> <r_mmod_Stretch_Energy-OPLS-2005>
85.2757720947266

> <r_mmod_Bend_Energy-OPLS-2005>
165.912673950195

> <r_mmod_Torsional_Energy-OPLS-2005>
308.911224365234

> <r_mmod_Improper_Torsional_Energy-OPLS-2005>
25.5909366607666

> <r_mmod_Van_der_Waal_Energy-OPLS-2005>
161.641006469727

> <r_mmod_Electrostatic_Energy-OPLS-2005>
-399.115020751953

> <r_mmod_Solvation_Energy-OPLS-2005>
-240.532272338867

> <b_mmod_Minimization_Converged-OPLS-2005>
0

> <r_mmod_RMS_Derivative-OPLS-2005>
2.91968464851379

$$$$
37
                    3D
 Structure written by MMmdl.
150158  0  0  1  0            999 V2000
  -30.6974  -14.6523   20.4822 C   0  0  0  0  0  0
  -30.4083  -12.4014   19.4662 C   0  0  0  0  0  0
  -29.4989  -12.4973   18.2259 C   0  0  0  0  0  0
  -28.0241  -12.3419   18.6374 C   0  0  0  0  0  0
  -27.6412  -13.2357   19.8496 C   0  0  2  0  0  0
  -28.6872  -13.1654   20.9836 C   0  0  0  0  0  0
  -25.2498  -13.8210   20.5665 C   0  0  0  0  0  0
  -24.1796  -13.0451   20.9187 C   0  0  0  0  0  0
  -24.6401  -11.6933   20.8735 C   0  0  0  0  0  0
  -23.9080  -10.4298   21.0393 C   0  0  0  0  0  0
  -24.3631   -9.4214   21.9170 C   0  0  0  0  0  0
  -23.6300   -8.2250   22.0753 C   0  0  0  0  0  0
  -22.4280   -8.0285   21.3552 C   0  0  0  0  0  0
  -21.9912   -9.0259   20.4650 C   0  0  0  0  0  0
  -22.7246  -10.2137   20.3046 C   0  0  0  0  0  0
  -21.6861   -6.0728   22.5280 C   0  0  0  0  0  0
  -21.4015   -6.5634   23.8213 C   0  0  0  0  0  0
  -21.3660   -5.6792   24.9177 C   0  0  0  0  0  0
  -21.6047   -4.3049   24.7226 C   0  0  0  0  0  0
  -21.8822   -3.8141   23.4350 C   0  0  0  0  0  0
  -21.9192   -4.6957   22.3404 C   0  0  0  0  0  0
  -22.7819  -13.5225   21.1853 C   0  0  0  0  0  0
  -22.1664   -4.2146   21.0978 F   0  0  0  0  0  0
  -21.5633   -3.4534   25.7739 F   0  0  0  0  0  0
  -29.9925  -13.4767   20.3946 N   0  0  0  0  0  0
  -26.2942  -12.9436   20.3287 N   0  0  0  0  0  0
  -25.9335  -11.6575   20.5754 N   0  0  0  0  0  0
  -22.0464  -12.8222   22.0418 N   0  0  0  0  0  0
  -25.4162  -15.1930   20.4054 N   0  0  0  0  0  0
  -31.8880  -14.6389   20.1613 O   0  0  0  0  0  0
  -21.6656   -6.8876   21.4244 O   0  0  0  0  0  0
  -22.3496  -14.5528   20.6701 O   0  0  0  0  0  0
  -24.6268  -31.8589   23.2029 C   0  0  0  0  0  0
  -25.9120  -32.4767   23.8345 C   0  0  1  0  0  0
  -27.2112  -27.3138   20.1274 C   0  0  0  0  0  0
  -25.5945  -33.8568   24.2284 N   0  0  0  0  0  0
  -23.4210  -30.4842   21.5443 C   0  0  2  0  0  0
  -24.8671  -28.9398   20.1095 C   0  0  0  0  0  0
  -22.7491  -29.4612   22.4918 C   0  0  0  0  0  0
  -18.0299  -28.1374   22.8483 C   0  0  0  0  0  0
  -24.1487  -36.7280   23.2633 C   0  0  0  0  0  0
  -25.9624  -30.7898   21.3752 C   0  0  0  0  0  0
  -26.0366  -29.4176   20.7157 C   0  0  0  0  0  0
  -27.2166  -28.6163   20.7138 C   0  0  0  0  0  0
  -26.0302  -26.8951   19.4814 C   0  0  0  0  0  0
  -24.8653  -27.6843   19.4822 C   0  0  0  0  0  0
  -23.6371  -29.8223   20.1576 C   0  0  0  0  0  0
  -25.4112  -36.3078   24.0335 C   0  0  1  0  0  0
  -20.5904  -28.3676   23.1277 C   0  0  2  0  0  0
  -20.6776  -26.9390   22.5409 C   0  0  0  0  0  0
  -19.5751  -26.6374   21.5204 C   0  0  0  0  0  0
  -18.1936  -26.7917   22.1618 C   0  0  0  0  0  0
  -19.1556  -28.8847   23.2877 C   0  0  0  0  0  0
  -18.9466  -30.1446   23.8892 C   0  0  0  0  0  0
  -17.6465  -30.6574   24.0559 C   0  0  0  0  0  0
  -25.9057  -34.9444   23.5113 C   0  0  0  0  0  0
  -16.5361  -29.9065   23.6325 C   0  0  0  0  0  0
  -16.7285  -28.6483   23.0346 C   0  0  0  0  0  0
  -26.4506  -31.6571   25.0715 C   0  0  0  0  0  0
  -25.3744  -31.3722   26.1452 C   0  0  0  0  0  0
  -27.0323  -30.2984   24.6168 C   0  0  0  0  0  0
  -27.6088  -32.4278   25.7479 C   0  0  0  0  0  0
  -27.5588  -37.1797   24.8465 C   0  0  0  0  0  0
  -21.4206  -29.3035   22.3670 N   0  0  0  0  0  0
  -26.4288  -37.3779   23.9424 N   0  0  0  0  0  0
  -24.6891  -31.0605   22.0980 N   0  0  0  0  0  0
  -23.4214  -28.8156   23.3007 O   0  0  0  0  0  0
  -28.2884  -26.4218   20.1744 O   0  0  0  0  0  0
  -26.5600  -34.8919   22.4664 O   0  0  0  0  0  0
  -23.5438  -32.1377   23.7364 O   0  0  0  0  0  0
  -30.4327  -19.4892   19.8704 C   0  0  0  0  0  0
  -29.9559  -20.8336   19.8755 C   0  0  0  0  0  0
  -28.2370  -20.1683   21.4155 C   0  0  0  0  0  0
  -29.8486  -18.4413   20.6432 C   0  0  0  0  0  0
  -28.8551  -21.2254   20.6792 C   0  0  0  0  0  0
  -28.7109  -18.8156   21.4058 C   0  0  0  0  0  0
  -30.6046  -17.0985   20.7702 C   0  0  0  0  0  0
  -28.7083  -23.8149   20.2663 C   0  0  0  0  0  0
  -27.9954  -25.1159   20.8257 C   0  0  0  0  0  0
  -28.3652  -22.6062   20.8304 N   0  0  0  0  0  0
  -30.0245  -15.8449   20.6940 N   0  0  0  0  0  0
  -31.8266  -17.2359   20.9179 O   0  0  0  0  0  0
  -29.5290  -23.9136   19.3502 O   0  0  0  0  0  0
  -28.0908  -17.8969   22.1870 F   0  0  0  0  0  0
  -31.4544  -12.4712   19.1637 H   0  0  0  0  0  0
  -30.3088  -11.4256   19.9450 H   0  0  0  0  0  0
  -29.7684  -11.7315   17.4972 H   0  0  0  0  0  0
  -29.6464  -13.4577   17.7286 H   0  0  0  0  0  0
  -27.8644  -11.2916   18.8841 H   0  0  0  0  0  0
  -27.3722  -12.5564   17.7902 H   0  0  0  0  0  0
  -27.6385  -14.2602   19.4770 H   0  0  0  0  0  0
  -28.7018  -12.1730   21.4368 H   0  0  0  0  0  0
  -28.4401  -13.8640   21.7846 H   0  0  0  0  0  0
  -25.2774   -9.5696   22.4745 H   0  0  0  0  0  0
  -24.0015   -7.4641   22.7465 H   0  0  0  0  0  0
  -21.0844   -8.8772   19.8950 H   0  0  0  0  0  0
  -22.3695  -10.9675   19.6157 H   0  0  0  0  0  0
  -21.2008   -7.6140   23.9712 H   0  0  0  0  0  0
  -21.1480   -6.0520   25.9080 H   0  0  0  0  0  0
  -22.0597   -2.7599   23.2853 H   0  0  0  0  0  0
  -22.4095  -11.9905   22.4831 H   0  0  0  0  0  0
  -21.1074  -13.1236   22.2611 H   0  0  0  0  0  0
  -24.6444  -15.8430   20.5091 H   0  0  0  0  0  0
  -26.2675  -15.6385   20.0904 H   0  0  0  0  0  0
  -26.7185  -32.5434   23.1086 H   0  0  0  0  0  0
  -25.0129  -33.9691   25.0458 H   0  0  0  0  0  0
  -22.7147  -31.3047   21.4031 H   0  0  0  0  0  0
  -23.3755  -35.9601   23.3283 H   0  0  0  0  0  0
  -24.3585  -36.8906   22.2052 H   0  0  0  0  0  0
  -23.7229  -37.6486   23.6644 H   0  0  0  0  0  0
  -26.0972  -31.5551   20.6098 H   0  0  0  0  0  0
  -26.8404  -30.8336   22.0073 H   0  0  0  0  0  0
  -28.1141  -28.9725   21.1996 H   0  0  0  0  0  0
  -25.9980  -25.9327   18.9919 H   0  0  0  0  0  0
  -23.9704  -27.3178   18.9982 H   0  0  0  0  0  0
  -23.7622  -30.5998   19.4033 H   0  0  0  0  0  0
  -22.7562  -29.2557   19.8516 H   0  0  0  0  0  0
  -25.1283  -36.1927   25.0825 H   0  0  0  0  0  0
  -21.0000  -28.3248   24.1399 H   0  0  0  0  0  0
  -20.5660  -26.2274   23.3603 H   0  0  0  0  0  0
  -21.6643  -26.7398   22.1214 H   0  0  0  0  0  0
  -19.6901  -25.6287   21.1222 H   0  0  0  0  0  0
  -19.6691  -27.3186   20.6735 H   0  0  0  0  0  0
  -17.4201  -26.6667   21.4026 H   0  0  0  0  0  0
  -18.0339  -26.0054   22.9010 H   0  0  0  0  0  0
  -19.7948  -30.7270   24.2239 H   0  0  0  0  0  0
  -17.5018  -31.6254   24.5154 H   0  0  0  0  0  0
  -15.5356  -30.2957   23.7651 H   0  0  0  0  0  0
  -15.8690  -28.0798   22.7048 H   0  0  0  0  0  0
  -24.5949  -30.7025   25.7806 H   0  0  0  0  0  0
  -24.8904  -32.2885   26.4845 H   0  0  0  0  0  0
  -25.8091  -30.8955   27.0244 H   0  0  0  0  0  0
  -26.2879  -29.6761   24.1194 H   0  0  0  0  0  0
  -27.4012  -29.7231   25.4671 H   0  0  0  0  0  0
  -27.8760  -30.4259   23.9379 H   0  0  0  0  0  0
  -27.2730  -33.3579   26.2070 H   0  0  0  0  0  0
  -28.3895  -32.6831   25.0299 H   0  0  0  0  0  0
  -28.0739  -31.8379   26.5387 H   0  0  0  0  0  0
  -28.2604  -38.0105   24.7535 H   0  0  0  0  0  0
  -28.1096  -36.2647   24.6243 H   0  0  0  0  0  0
  -27.2310  -37.1376   25.8869 H   0  0  0  0  0  0
  -20.9372  -29.8757   21.6889 H   0  0  0  0  0  0
  -26.0173  -38.2852   24.1445 H   0  0  0  0  0  0
  -31.3165  -19.2670   19.2871 H   0  0  0  0  0  0
  -30.4833  -21.5650   19.2801 H   0  0  0  0  0  0
  -27.3879  -20.3931   22.0438 H   0  0  0  0  0  0
  -28.2945  -25.2190   21.8693 H   0  0  0  0  0  0
  -26.9259  -24.9056   20.8571 H   0  0  0  0  0  0
  -27.6398  -22.7079   21.5284 H   0  0  0  0  0  0
  -29.0199  -15.8083   20.7280 H   0  0  0  0  0  0
  1 25  1  0  0  0
  1 30  2  0  0  0
  1 81  1  0  0  0
  2  3  1  0  0  0
  2 25  1  0  0  0
  2 85  1  0  0  0
  2 86  1  0  0  0
  3  4  1  0  0  0
  3 87  1  0  0  0
  3 88  1  0  0  0
  4  5  1  0  0  0
  4 89  1  0  0  0
  4 90  1  0  0  0
  5  6  1  0  0  0
  5 26  1  0  0  0
  5 91  1  0  0  0
  6 25  1  0  0  0
  6 92  1  0  0  0
  6 93  1  0  0  0
  7  8  2  0  0  0
  7 26  1  0  0  0
  7 29  1  0  0  0
  8  9  1  0  0  0
  8 22  1  0  0  0
  9 10  1  0  0  0
  9 27  2  0  0  0
 10 11  2  0  0  0
 10 15  1  0  0  0
 11 12  1  0  0  0
 11 94  1  0  0  0
 12 13  2  0  0  0
 12 95  1  0  0  0
 13 14  1  0  0  0
 13 31  1  0  0  0
 14 15  2  0  0  0
 14 96  1  0  0  0
 15 97  1  0  0  0
 16 17  2  0  0  0
 16 21  1  0  0  0
 16 31  1  0  0  0
 17 18  1  0  0  0
 17 98  1  0  0  0
 18 19  2  0  0  0
 18 99  1  0  0  0
 19 20  1  0  0  0
 19 24  1  0  0  0
 20 21  2  0  0  0
 20100  1  0  0  0
 21 23  1  0  0  0
 22 28  1  0  0  0
 22 32  2  0  0  0
 26 27  1  0  0  0
 28101  1  0  0  0
 28102  1  0  0  0
 29103  1  0  0  0
 29104  1  0  0  0
 33 34  1  0  0  0
 33 66  1  0  0  0
 33 70  2  0  0  0
 34 36  1  0  0  0
 34 59  1  0  0  0
 34105  1  0  0  0
 35 44  2  0  0  0
 35 45  1  0  0  0
 35 68  1  0  0  0
 36 56  1  0  0  0
 36106  1  0  0  0
 37 39  1  0  0  0
 37 47  1  0  0  0
 37 66  1  0  0  0
 37107  1  0  0  0
 38 43  2  0  0  0
 38 46  1  0  0  0
 38 47  1  0  0  0
 39 64  1  0  0  0
 39 67  2  0  0  0
 40 52  1  0  0  0
 40 53  2  0  0  0
 40 58  1  0  0  0
 41108  1  0  0  0
 41109  1  0  0  0
 41110  1  0  0  0
 41 48  1  0  0  0
 42 43  1  0  0  0
 42 66  1  0  0  0
 42111  1  0  0  0
 42112  1  0  0  0
 43 44  1  0  0  0
 44113  1  0  0  0
 45 46  2  0  0  0
 45114  1  0  0  0
 46115  1  0  0  0
 47116  1  0  0  0
 47117  1  0  0  0
 48 56  1  0  0  0
 48 65  1  0  0  0
 48118  1  0  0  0
 49 50  1  0  0  0
 49 53  1  0  0  0
 49 64  1  0  0  0
 49119  1  0  0  0
 50 51  1  0  0  0
 50120  1  0  0  0
 50121  1  0  0  0
 51 52  1  0  0  0
 51122  1  0  0  0
 51123  1  0  0  0
 52124  1  0  0  0
 52125  1  0  0  0
 53 54  1  0  0  0
 54 55  2  0  0  0
 54126  1  0  0  0
 55 57  1  0  0  0
 55127  1  0  0  0
 56 69  2  0  0  0
 57 58  2  0  0  0
 57128  1  0  0  0
 58129  1  0  0  0
 59 60  1  0  0  0
 59 61  1  0  0  0
 59 62  1  0  0  0
 60130  1  0  0  0
 60131  1  0  0  0
 60132  1  0  0  0
 61133  1  0  0  0
 61134  1  0  0  0
 61135  1  0  0  0
 62136  1  0  0  0
 62137  1  0  0  0
 62138  1  0  0  0
 63 65  1  0  0  0
 63139  1  0  0  0
 63140  1  0  0  0
 63141  1  0  0  0
 64142  1  0  0  0
 65143  1  0  0  0
 68 79  1  0  0  0
 71 72  2  0  0  0
 71 74  1  0  0  0
 71144  1  0  0  0
 72 75  1  0  0  0
 72145  1  0  0  0
 73 75  2  0  0  0
 73 76  1  0  0  0
 73146  1  0  0  0
 74 76  2  0  0  0
 74 77  1  0  0  0
 75 80  1  0  0  0
 76 84  1  0  0  0
 77 81  1  0  0  0
 77 82  2  0  0  0
 78 79  1  0  0  0
 78 80  1  0  0  0
 78 83  2  0  0  0
 79147  1  0  0  0
 79148  1  0  0  0
 80149  1  0  0  0
 81150  1  0  0  0
M  ISO  4   1 100  68 101  79 101  81 100
M  END
> <chiral flag>
0

> <version>
0

> <s_m_source_file>
/data/baiqing/PycharmProjects/Reinvent-master-3.2/result/LINK_invent/BTK/process_docking_weight1_custom_product_contain_oxygen_bond_distance_aromatic_linkinvent_7_9_3/rearranged_h_0091.sdf

> <i_m_source_file_index>
38

> <r_mmod_Potential_Energy-OPLS-2005>
57.386661529541

> <r_mmod_Stretch_Energy-OPLS-2005>
84.8491287231445

> <r_mmod_Bend_Energy-OPLS-2005>
154.61003112793

> <r_mmod_Torsional_Energy-OPLS-2005>
252.279281616211

> <r_mmod_Improper_Torsional_Energy-OPLS-2005>
6.57038021087646

> <r_mmod_Van_der_Waal_Energy-OPLS-2005>
153.362976074219

> <r_mmod_Electrostatic_Energy-OPLS-2005>
-403.895904541016

> <r_mmod_Solvation_Energy-OPLS-2005>
-250.987533569336

> <b_mmod_Minimization_Converged-OPLS-2005>
0

> <r_mmod_RMS_Derivative-OPLS-2005>
1.95683372020721

$$$$
38
                    3D
 Structure written by MMmdl.
154162  0  0  1  0            999 V2000
  -30.6937  -14.6319   20.4719 C   0  0  0  0  0  0
  -30.4110  -12.3880   19.4673 C   0  0  0  0  0  0
  -29.5002  -12.4911   18.2270 C   0  0  0  0  0  0
  -28.0243  -12.3347   18.6397 C   0  0  0  0  0  0
  -27.6415  -13.2303   19.8491 C   0  0  2  0  0  0
  -28.6860  -13.1561   20.9863 C   0  0  0  0  0  0
  -25.2499  -13.8197   20.5675 C   0  0  0  0  0  0
  -24.1795  -13.0443   20.9209 C   0  0  0  0  0  0
  -24.6386  -11.6922   20.8750 C   0  0  0  0  0  0
  -23.9062  -10.4299   21.0408 C   0  0  0  0  0  0
  -24.3616   -9.4216   21.9184 C   0  0  0  0  0  0
  -23.6299   -8.2243   22.0748 C   0  0  0  0  0  0
  -22.4279   -8.0276   21.3540 C   0  0  0  0  0  0
  -21.9913   -9.0251   20.4636 C   0  0  0  0  0  0
  -22.7234  -10.2137   20.3053 C   0  0  0  0  0  0
  -21.6854   -6.0730   22.5280 C   0  0  0  0  0  0
  -21.4013   -6.5637   23.8209 C   0  0  0  0  0  0
  -21.3662   -5.6790   24.9174 C   0  0  0  0  0  0
  -21.6047   -4.3052   24.7222 C   0  0  0  0  0  0
  -21.8822   -3.8139   23.4342 C   0  0  0  0  0  0
  -21.9193   -4.6957   22.3400 C   0  0  0  0  0  0
  -22.7818  -13.5227   21.1866 C   0  0  0  0  0  0
  -22.1663   -4.2140   21.0978 F   0  0  0  0  0  0
  -21.5639   -3.4539   25.7736 F   0  0  0  0  0  0
  -29.9954  -13.4557   20.4018 N   0  0  0  0  0  0
  -26.2928  -12.9406   20.3272 N   0  0  0  0  0  0
  -25.9314  -11.6553   20.5750 N   0  0  0  0  0  0
  -22.0453  -12.8225   22.0420 N   0  0  0  0  0  0
  -25.4179  -15.1917   20.4046 N   0  0  0  0  0  0
  -31.8930  -14.6564   20.1701 O   0  0  0  0  0  0
  -21.6644   -6.8873   21.4236 O   0  0  0  0  0  0
  -22.3512  -14.5536   20.6706 O   0  0  0  0  0  0
  -24.6255  -31.8607   23.2034 C   0  0  0  0  0  0
  -25.9110  -32.4776   23.8363 C   0  0  1  0  0  0
  -27.2215  -27.3253   20.1051 C   0  0  0  0  0  0
  -25.5928  -33.8578   24.2285 N   0  0  0  0  0  0
  -23.4167  -30.4853   21.5465 C   0  0  2  0  0  0
  -24.8605  -28.9403   20.1114 C   0  0  0  0  0  0
  -22.7460  -29.4636   22.4948 C   0  0  0  0  0  0
  -18.0279  -28.1392   22.8486 C   0  0  0  0  0  0
  -24.1491  -36.7298   23.2637 C   0  0  0  0  0  0
  -25.9571  -30.7930   21.3719 C   0  0  0  0  0  0
  -26.0286  -29.4206   20.7141 C   0  0  0  0  0  0
  -27.2079  -28.6220   20.7055 C   0  0  0  0  0  0
  -26.0209  -26.8858   19.4999 C   0  0  0  0  0  0
  -24.8575  -27.6778   19.4999 C   0  0  0  0  0  0
  -23.6299  -29.8211   20.1613 C   0  0  0  0  0  0
  -25.4114  -36.3082   24.0328 C   0  0  1  0  0  0
  -20.5877  -28.3694   23.1294 C   0  0  2  0  0  0
  -20.6772  -26.9421   22.5417 C   0  0  0  0  0  0
  -19.5752  -26.6392   21.5215 C   0  0  0  0  0  0
  -18.1927  -26.7935   22.1621 C   0  0  0  0  0  0
  -19.1530  -28.8859   23.2887 C   0  0  0  0  0  0
  -18.9455  -30.1462   23.8900 C   0  0  0  0  0  0
  -17.6457  -30.6591   24.0570 C   0  0  0  0  0  0
  -25.9054  -34.9452   23.5106 C   0  0  0  0  0  0
  -16.5347  -29.9092   23.6333 C   0  0  0  0  0  0
  -16.7268  -28.6513   23.0344 C   0  0  0  0  0  0
  -26.4497  -31.6574   25.0720 C   0  0  0  0  0  0
  -25.3732  -31.3710   26.1446 C   0  0  0  0  0  0
  -27.0335  -30.2996   24.6169 C   0  0  0  0  0  0
  -27.6062  -32.4298   25.7494 C   0  0  0  0  0  0
  -27.5580  -37.1800   24.8461 C   0  0  0  0  0  0
  -21.4174  -29.3049   22.3689 N   0  0  0  0  0  0
  -26.4290  -37.3776   23.9408 N   0  0  0  0  0  0
  -24.6855  -31.0632   22.0977 N   0  0  0  0  0  0
  -23.4191  -28.8173   23.3021 O   0  0  0  0  0  0
  -28.3664  -26.5179   20.1658 O   0  0  0  0  0  0
  -26.5627  -34.8918   22.4674 O   0  0  0  0  0  0
  -23.5424  -32.1405   23.7373 O   0  0  0  0  0  0
  -29.6444  -19.1181   19.0592 C   0  0  0  0  0  0
  -29.0942  -20.7744   21.2428 C   0  0  0  0  0  0
  -29.7816  -18.5361   20.3451 C   0  0  0  0  0  0
  -29.4671  -19.4000   21.4534 C   0  0  0  0  0  0
  -29.0262  -21.3519   19.9426 C   0  0  0  0  0  0
  -29.2771  -20.4733   18.8635 C   0  0  0  0  0  0
  -30.5039  -17.1979   20.3895 C   0  0  0  0  0  0
  -28.5943  -23.9104   20.2826 C   0  0  0  0  0  0
  -28.4847  -25.2406   19.4310 C   0  0  0  0  0  0
  -29.5575  -18.9663   22.7816 N   0  0  0  0  0  0
  -28.7557  -22.7446   19.5873 N   0  0  0  0  0  0
  -29.9785  -15.9293   20.6075 N   0  0  0  0  0  0
  -31.8070  -17.3283   20.1050 N   0  3  0  0  0  0
  -28.5389  -23.9497   21.5151 O   0  0  0  0  0  0
  -29.2057  -20.9574   17.5992 F   0  0  0  0  0  0
  -31.4585  -12.4662   19.1707 H   0  0  0  0  0  0
  -30.3115  -11.4095   19.9397 H   0  0  0  0  0  0
  -29.7689  -11.7268   17.4965 H   0  0  0  0  0  0
  -29.6485  -13.4535   17.7347 H   0  0  0  0  0  0
  -27.8652  -11.2855   18.8919 H   0  0  0  0  0  0
  -27.3687  -12.5446   17.7933 H   0  0  0  0  0  0
  -27.6402  -14.2533   19.4724 H   0  0  0  0  0  0
  -28.6943  -12.1647   21.4428 H   0  0  0  0  0  0
  -28.4408  -13.8598   21.7836 H   0  0  0  0  0  0
  -25.2761   -9.5704   22.4758 H   0  0  0  0  0  0
  -24.0012   -7.4640   22.7480 H   0  0  0  0  0  0
  -21.0837   -8.8762   19.8950 H   0  0  0  0  0  0
  -22.3683  -10.9670   19.6161 H   0  0  0  0  0  0
  -21.2002   -7.6146   23.9711 H   0  0  0  0  0  0
  -21.1485   -6.0518   25.9080 H   0  0  0  0  0  0
  -22.0598   -2.7599   23.2839 H   0  0  0  0  0  0
  -22.4058  -11.9882   22.4810 H   0  0  0  0  0  0
  -21.1066  -13.1247   22.2612 H   0  0  0  0  0  0
  -24.6407  -15.8362   20.4992 H   0  0  0  0  0  0
  -26.2413  -15.6242   20.0078 H   0  0  0  0  0  0
  -26.7174  -32.5446   23.1112 H   0  0  0  0  0  0
  -25.0047  -33.9727   25.0409 H   0  0  0  0  0  0
  -22.7105  -31.3062   21.4051 H   0  0  0  0  0  0
  -23.3748  -35.9636   23.3296 H   0  0  0  0  0  0
  -24.3580  -36.8927   22.2054 H   0  0  0  0  0  0
  -23.7251  -37.6500   23.6665 H   0  0  0  0  0  0
  -26.0862  -31.5568   20.6040 H   0  0  0  0  0  0
  -26.8384  -30.8414   21.9998 H   0  0  0  0  0  0
  -28.1061  -28.9867   21.1843 H   0  0  0  0  0  0
  -25.9258  -25.9116   19.0483 H   0  0  0  0  0  0
  -23.9557  -27.2990   19.0387 H   0  0  0  0  0  0
  -23.7507  -30.5974   19.4045 H   0  0  0  0  0  0
  -22.7488  -29.2525   19.8583 H   0  0  0  0  0  0
  -25.1292  -36.1930   25.0819 H   0  0  0  0  0  0
  -20.9969  -28.3270   24.1418 H   0  0  0  0  0  0
  -20.5677  -26.2306   23.3611 H   0  0  0  0  0  0
  -21.6643  -26.7461   22.1210 H   0  0  0  0  0  0
  -19.6917  -25.6302   21.1243 H   0  0  0  0  0  0
  -19.6690  -27.3206   20.6746 H   0  0  0  0  0  0
  -17.4200  -26.6686   21.4018 H   0  0  0  0  0  0
  -18.0328  -26.0076   22.9015 H   0  0  0  0  0  0
  -19.7930  -30.7276   24.2264 H   0  0  0  0  0  0
  -17.5013  -31.6268   24.5179 H   0  0  0  0  0  0
  -15.5348  -30.2999   23.7658 H   0  0  0  0  0  0
  -15.8666  -28.0843   22.7049 H   0  0  0  0  0  0
  -24.5912  -30.7055   25.7773 H   0  0  0  0  0  0
  -24.8918  -32.2877   26.4869 H   0  0  0  0  0  0
  -25.8057  -30.8886   27.0224 H   0  0  0  0  0  0
  -26.2906  -29.6740   24.1206 H   0  0  0  0  0  0
  -27.4047  -29.7254   25.4672 H   0  0  0  0  0  0
  -27.8776  -30.4274   23.9384 H   0  0  0  0  0  0
  -27.2673  -33.3589   26.2094 H   0  0  0  0  0  0
  -28.3869  -32.6865   25.0320 H   0  0  0  0  0  0
  -28.0738  -31.8405   26.5395 H   0  0  0  0  0  0
  -28.2589  -38.0104   24.7512 H   0  0  0  0  0  0
  -28.1084  -36.2634   24.6276 H   0  0  0  0  0  0
  -27.2304  -37.1442   25.8865 H   0  0  0  0  0  0
  -20.9351  -29.8771   21.6896 H   0  0  0  0  0  0
  -26.0170  -38.2852   24.1401 H   0  0  0  0  0  0
  -29.8894  -18.5322   18.1855 H   0  0  0  0  0  0
  -28.8936  -21.4075   22.0942 H   0  0  0  0  0  0
  -27.7529  -25.1094   18.6377 H   0  0  0  0  0  0
  -29.4309  -25.3160   18.8940 H   0  0  0  0  0  0
  -29.5275  -19.6570   23.5268 H   0  0  0  0  0  0
  -30.1164  -18.1568   23.0322 H   0  0  0  0  0  0
  -28.7572  -22.8811   18.5854 H   0  0  0  0  0  0
  -28.9965  -15.9625   20.8192 H   0  0  0  0  0  0
  -32.2240  -18.2344   19.9573 H   0  0  0  0  0  0
  -32.3713  -16.4853   20.0450 H   0  0  0  0  0  0
  1 25  1  0  0  0
  1 30  2  0  0  0
  1 82  1  0  0  0
  2  3  1  0  0  0
  2 25  1  0  0  0
  2 86  1  0  0  0
  2 87  1  0  0  0
  3  4  1  0  0  0
  3 88  1  0  0  0
  3 89  1  0  0  0
  4  5  1  0  0  0
  4 90  1  0  0  0
  4 91  1  0  0  0
  5  6  1  0  0  0
  5 26  1  0  0  0
  5 92  1  0  0  0
  6 25  1  0  0  0
  6 93  1  0  0  0
  6 94  1  0  0  0
  7  8  2  0  0  0
  7 26  1  0  0  0
  7 29  1  0  0  0
  8  9  1  0  0  0
  8 22  1  0  0  0
  9 10  1  0  0  0
  9 27  2  0  0  0
 10 11  2  0  0  0
 10 15  1  0  0  0
 11 12  1  0  0  0
 11 95  1  0  0  0
 12 13  2  0  0  0
 12 96  1  0  0  0
 13 14  1  0  0  0
 13 31  1  0  0  0
 14 15  2  0  0  0
 14 97  1  0  0  0
 15 98  1  0  0  0
 16 17  2  0  0  0
 16 21  1  0  0  0
 16 31  1  0  0  0
 17 18  1  0  0  0
 17 99  1  0  0  0
 18 19  2  0  0  0
 18100  1  0  0  0
 19 20  1  0  0  0
 19 24  1  0  0  0
 20 21  2  0  0  0
 20101  1  0  0  0
 21 23  1  0  0  0
 22 28  1  0  0  0
 22 32  2  0  0  0
 26 27  1  0  0  0
 28102  1  0  0  0
 28103  1  0  0  0
 29104  1  0  0  0
 29105  1  0  0  0
 33 34  1  0  0  0
 33 66  1  0  0  0
 33 70  2  0  0  0
 34 36  1  0  0  0
 34 59  1  0  0  0
 34106  1  0  0  0
 35 44  2  0  0  0
 35 45  1  0  0  0
 35 68  1  0  0  0
 36 56  1  0  0  0
 36107  1  0  0  0
 37 39  1  0  0  0
 37 47  1  0  0  0
 37 66  1  0  0  0
 37108  1  0  0  0
 38 43  2  0  0  0
 38 46  1  0  0  0
 38 47  1  0  0  0
 39 64  1  0  0  0
 39 67  2  0  0  0
 40 52  1  0  0  0
 40 53  2  0  0  0
 40 58  1  0  0  0
 41109  1  0  0  0
 41110  1  0  0  0
 41111  1  0  0  0
 41 48  1  0  0  0
 42 43  1  0  0  0
 42 66  1  0  0  0
 42112  1  0  0  0
 42113  1  0  0  0
 43 44  1  0  0  0
 44114  1  0  0  0
 45 46  2  0  0  0
 45115  1  0  0  0
 46116  1  0  0  0
 47117  1  0  0  0
 47118  1  0  0  0
 48 56  1  0  0  0
 48 65  1  0  0  0
 48119  1  0  0  0
 49 50  1  0  0  0
 49 53  1  0  0  0
 49 64  1  0  0  0
 49120  1  0  0  0
 50 51  1  0  0  0
 50121  1  0  0  0
 50122  1  0  0  0
 51 52  1  0  0  0
 51123  1  0  0  0
 51124  1  0  0  0
 52125  1  0  0  0
 52126  1  0  0  0
 53 54  1  0  0  0
 54 55  2  0  0  0
 54127  1  0  0  0
 55 57  1  0  0  0
 55128  1  0  0  0
 56 69  2  0  0  0
 57 58  2  0  0  0
 57129  1  0  0  0
 58130  1  0  0  0
 59 60  1  0  0  0
 59 61  1  0  0  0
 59 62  1  0  0  0
 60131  1  0  0  0
 60132  1  0  0  0
 60133  1  0  0  0
 61134  1  0  0  0
 61135  1  0  0  0
 61136  1  0  0  0
 62137  1  0  0  0
 62138  1  0  0  0
 62139  1  0  0  0
 63 65  1  0  0  0
 63140  1  0  0  0
 63141  1  0  0  0
 63142  1  0  0  0
 64143  1  0  0  0
 65144  1  0  0  0
 68 79  1  0  0  0
 71 73  2  0  0  0
 71 76  1  0  0  0
 71145  1  0  0  0
 72 74  2  0  0  0
 72 75  1  0  0  0
 72146  1  0  0  0
 73 74  1  0  0  0
 73 77  1  0  0  0
 74 80  1  0  0  0
 75 76  2  0  0  0
 75 81  1  0  0  0
 76 85  1  0  0  0
 77 82  1  0  0  0
 77 83  2  0  0  0
 78 79  1  0  0  0
 78 81  1  0  0  0
 78 84  2  0  0  0
 79147  1  0  0  0
 79148  1  0  0  0
 80149  1  0  0  0
 80150  1  0  0  0
 81151  1  0  0  0
 82152  1  0  0  0
 83153  1  0  0  0
 83154  1  0  0  0
M  CHG  1  83   1
M  ISO  4   1 100  68 101  79 101  82 100
M  END
> <chiral flag>
0

> <version>
0

> <s_m_source_file>
/data/baiqing/PycharmProjects/Reinvent-master-3.2/result/LINK_invent/BTK/process_docking_weight1_custom_product_contain_oxygen_bond_distance_aromatic_linkinvent_7_9_3/rearranged_h_0091.sdf

> <i_m_source_file_index>
39

> <r_mmod_Potential_Energy-OPLS-2005>
-100.502517700195

> <r_mmod_Stretch_Energy-OPLS-2005>
82.3896179199219

> <r_mmod_Bend_Energy-OPLS-2005>
181.403030395508

> <r_mmod_Torsional_Energy-OPLS-2005>
234.337203979492

> <r_mmod_Improper_Torsional_Energy-OPLS-2005>
11.8659400939941

> <r_mmod_Van_der_Waal_Energy-OPLS-2005>
159.008148193359

> <r_mmod_Electrostatic_Energy-OPLS-2005>
-348.496673583984

> <r_mmod_Solvation_Energy-OPLS-2005>
-471.752319335938

> <b_mmod_Minimization_Converged-OPLS-2005>
0

> <r_mmod_RMS_Derivative-OPLS-2005>
1.26193833351135

$$$$
39
                    3D
 Structure written by MMmdl.
158167  0  0  1  0            999 V2000
  -30.6219  -14.8036   20.4538 C   0  0  0  0  0  0
  -30.4293  -12.4966   19.4792 C   0  0  0  0  0  0
  -29.5094  -12.5087   18.2397 C   0  0  0  0  0  0
  -28.0395  -12.3222   18.6593 C   0  0  0  0  0  0
  -27.6364  -13.2398   19.8435 C   0  0  2  0  0  0
  -28.6823  -13.2229   20.9797 C   0  0  0  0  0  0
  -25.2499  -13.8215   20.5726 C   0  0  0  0  0  0
  -24.1802  -13.0446   20.9228 C   0  0  0  0  0  0
  -24.6403  -11.6925   20.8762 C   0  0  0  0  0  0
  -23.9079  -10.4295   21.0402 C   0  0  0  0  0  0
  -24.3622   -9.4217   21.9188 C   0  0  0  0  0  0
  -23.6305   -8.2248   22.0757 C   0  0  0  0  0  0
  -22.4289   -8.0282   21.3540 C   0  0  0  0  0  0
  -21.9921   -9.0251   20.4638 C   0  0  0  0  0  0
  -22.7249  -10.2134   20.3051 C   0  0  0  0  0  0
  -21.6856   -6.0739   22.5283 C   0  0  0  0  0  0
  -21.4011   -6.5647   23.8215 C   0  0  0  0  0  0
  -21.3658   -5.6800   24.9183 C   0  0  0  0  0  0
  -21.6045   -4.3061   24.7227 C   0  0  0  0  0  0
  -21.8819   -3.8153   23.4346 C   0  0  0  0  0  0
  -21.9192   -4.6970   22.3409 C   0  0  0  0  0  0
  -22.7819  -13.5217   21.1876 C   0  0  0  0  0  0
  -22.1667   -4.2153   21.0983 F   0  0  0  0  0  0
  -21.5620   -3.4550   25.7737 F   0  0  0  0  0  0
  -29.9744  -13.5832   20.3838 N   0  0  0  0  0  0
  -26.2921  -12.9431   20.3288 N   0  0  0  0  0  0
  -25.9334  -11.6567   20.5760 N   0  0  0  0  0  0
  -22.0463  -12.8193   22.0414 N   0  0  0  0  0  0
  -25.4185  -15.1943   20.4155 N   0  0  0  0  0  0
  -31.8190  -14.8403   20.1583 O   0  0  0  0  0  0
  -21.6646   -6.8886   21.4245 O   0  0  0  0  0  0
  -22.3501  -14.5522   20.6729 O   0  0  0  0  0  0
  -24.6331  -31.8541   23.1953 C   0  0  0  0  0  0
  -25.9135  -32.4756   23.8317 C   0  0  1  0  0  0
  -27.2225  -27.2386   20.1301 C   0  0  0  0  0  0
  -25.5917  -33.8558   24.2241 N   0  0  0  0  0  0
  -23.4332  -30.4768   21.5383 C   0  0  2  0  0  0
  -24.8859  -28.9219   20.1068 C   0  0  0  0  0  0
  -22.7510  -29.4614   22.4882 C   0  0  0  0  0  0
  -18.0300  -28.1399   22.8510 C   0  0  0  0  0  0
  -24.1475  -36.7280   23.2646 C   0  0  0  0  0  0
  -25.9826  -30.7585   21.3807 C   0  0  0  0  0  0
  -26.0594  -29.3784   20.7241 C   0  0  0  0  0  0
  -27.2332  -28.5479   20.7305 C   0  0  0  0  0  0
  -26.0330  -26.8717   19.4625 C   0  0  0  0  0  0
  -24.8781  -27.6762   19.4646 C   0  0  0  0  0  0
  -23.6551  -29.8080   20.1555 C   0  0  0  0  0  0
  -25.4111  -36.3072   24.0332 C   0  0  1  0  0  0
  -20.5911  -28.3718   23.1264 C   0  0  2  0  0  0
  -20.6784  -26.9431   22.5408 C   0  0  0  0  0  0
  -19.5753  -26.6404   21.5210 C   0  0  0  0  0  0
  -18.1942  -26.7950   22.1634 C   0  0  0  0  0  0
  -19.1559  -28.8879   23.2883 C   0  0  0  0  0  0
  -18.9474  -30.1481   23.8897 C   0  0  0  0  0  0
  -17.6473  -30.6603   24.0579 C   0  0  0  0  0  0
  -25.9056  -34.9445   23.5095 C   0  0  0  0  0  0
  -16.5368  -29.9099   23.6338 C   0  0  0  0  0  0
  -16.7285  -28.6518   23.0364 C   0  0  0  0  0  0
  -26.4479  -31.6589   25.0712 C   0  0  0  0  0  0
  -25.3666  -31.3777   26.1408 C   0  0  0  0  0  0
  -27.0329  -30.3006   24.6212 C   0  0  0  0  0  0
  -27.6030  -32.4325   25.7492 C   0  0  0  0  0  0
  -27.5579  -37.1799   24.8467 C   0  0  0  0  0  0
  -21.4217  -29.3059   22.3631 N   0  0  0  0  0  0
  -26.4282  -37.3777   23.9426 N   0  0  0  0  0  0
  -24.7024  -31.0484   22.0941 N   0  0  0  0  0  0
  -23.4194  -28.8150   23.2993 O   0  0  0  0  0  0
  -28.2397  -26.2437   20.2095 O   0  0  0  0  0  0
  -26.5640  -34.8931   22.4670 O   0  0  0  0  0  0
  -23.5475  -32.1377   23.7227 O   0  0  0  0  0  0
  -31.6503  -17.7094   21.0881 C   0  0  0  0  0  0
  -29.9264  -20.0231   20.6435 C   0  0  0  0  0  0
  -32.1277  -19.0244   21.2297 C   0  0  0  0  0  0
  -30.3177  -17.4316   20.7100 C   0  0  0  0  0  0
  -31.2969  -20.1500   21.0166 C   0  0  0  0  0  0
  -29.4709  -18.6188   20.5056 C   0  0  0  0  0  0
  -28.1982  -23.6173   20.6958 C   0  0  0  0  0  0
  -27.8007  -24.9644   20.6910 C   0  0  0  0  0  0
  -27.2928  -22.6050   21.3794 C   0  0  0  0  0  0
  -29.3817  -22.7115   20.1898 C   0  0  0  0  0  0
  -27.7030  -21.1809   20.9385 C   0  0  0  0  0  0
  -29.0908  -21.2413   20.5114 N   0  0  0  0  0  0
  -33.4568  -19.2328   21.6143 N   0  0  0  0  0  0
  -31.8789  -21.3878   21.2965 N   0  0  0  0  0  0
  -29.8843  -15.9874   20.6115 N   0  0  0  0  0  0
  -28.1783  -18.3917   20.1621 F   0  0  0  0  0  0
  -31.4684  -12.6183   19.1696 H   0  0  0  0  0  0
  -30.3822  -11.5321   19.9867 H   0  0  0  0  0  0
  -29.8001  -11.7215   17.5429 H   0  0  0  0  0  0
  -29.6250  -13.4524   17.7049 H   0  0  0  0  0  0
  -27.9110  -11.2770   18.9440 H   0  0  0  0  0  0
  -27.3769  -12.4885   17.8094 H   0  0  0  0  0  0
  -27.6160  -14.2521   19.4388 H   0  0  0  0  0  0
  -28.7364  -12.2404   21.4516 H   0  0  0  0  0  0
  -28.4098  -13.9298   21.7657 H   0  0  0  0  0  0
  -25.2759   -9.5697   22.4778 H   0  0  0  0  0  0
  -24.0010   -7.4635   22.7480 H   0  0  0  0  0  0
  -21.0855   -8.8759   19.8937 H   0  0  0  0  0  0
  -22.3702  -10.9667   19.6159 H   0  0  0  0  0  0
  -21.2012   -7.6153   23.9720 H   0  0  0  0  0  0
  -21.1477   -6.0532   25.9081 H   0  0  0  0  0  0
  -22.0597   -2.7613   23.2848 H   0  0  0  0  0  0
  -22.4066  -11.9835   22.4765 H   0  0  0  0  0  0
  -21.1075  -13.1198   22.2621 H   0  0  0  0  0  0
  -24.6511  -15.8473   20.5311 H   0  0  0  0  0  0
  -26.2651  -15.6362   20.0803 H   0  0  0  0  0  0
  -26.7206  -32.5405   23.1066 H   0  0  0  0  0  0
  -25.0020  -33.9688   25.0356 H   0  0  0  0  0  0
  -22.7315  -31.3000   21.3883 H   0  0  0  0  0  0
  -23.3743  -35.9598   23.3293 H   0  0  0  0  0  0
  -24.3573  -36.8907   22.2062 H   0  0  0  0  0  0
  -23.7204  -37.6471   23.6665 H   0  0  0  0  0  0
  -26.1234  -31.5149   20.6069 H   0  0  0  0  0  0
  -26.8608  -30.8142   22.0128 H   0  0  0  0  0  0
  -28.1235  -28.8845   21.2429 H   0  0  0  0  0  0
  -25.9748  -25.9093   18.9738 H   0  0  0  0  0  0
  -23.9813  -27.3192   18.9764 H   0  0  0  0  0  0
  -23.7784  -30.5812   19.3969 H   0  0  0  0  0  0
  -22.7744  -29.2404   19.8507 H   0  0  0  0  0  0
  -25.1288  -36.1918   25.0824 H   0  0  0  0  0  0
  -21.0043  -28.3296   24.1369 H   0  0  0  0  0  0
  -20.5686  -26.2327   23.3619 H   0  0  0  0  0  0
  -21.6654  -26.7446   22.1205 H   0  0  0  0  0  0
  -19.6897  -25.6305   21.1249 H   0  0  0  0  0  0
  -19.6676  -27.3219   20.6737 H   0  0  0  0  0  0
  -17.4216  -26.6729   21.4032 H   0  0  0  0  0  0
  -18.0330  -26.0079   22.9016 H   0  0  0  0  0  0
  -19.7946  -30.7321   24.2249 H   0  0  0  0  0  0
  -17.5015  -31.6270   24.5199 H   0  0  0  0  0  0
  -15.5369  -30.3003   23.7641 H   0  0  0  0  0  0
  -15.8694  -28.0827   22.7071 H   0  0  0  0  0  0
  -24.5871  -30.7086   25.7751 H   0  0  0  0  0  0
  -24.8810  -32.2957   26.4730 H   0  0  0  0  0  0
  -25.7961  -30.9042   27.0243 H   0  0  0  0  0  0
  -26.2930  -29.6765   24.1192 H   0  0  0  0  0  0
  -27.3961  -29.7265   25.4742 H   0  0  0  0  0  0
  -27.8816  -30.4298   23.9497 H   0  0  0  0  0  0
  -27.2651  -33.3670   26.1991 H   0  0  0  0  0  0
  -28.3883  -32.6810   25.0338 H   0  0  0  0  0  0
  -28.0620  -31.8469   26.5464 H   0  0  0  0  0  0
  -28.2591  -38.0100   24.7548 H   0  0  0  0  0  0
  -28.1071  -36.2645   24.6244 H   0  0  0  0  0  0
  -27.2310  -37.1404   25.8867 H   0  0  0  0  0  0
  -20.9390  -29.8774   21.6838 H   0  0  0  0  0  0
  -26.0148  -38.2841   24.1432 H   0  0  0  0  0  0
  -32.3305  -16.9008   21.3035 H   0  0  0  0  0  0
  -26.8684  -25.1238   21.2160 H   0  0  0  0  0  0
  -26.2388  -22.8024   21.1754 H   0  0  0  0  0  0
  -27.4434  -22.7050   22.4557 H   0  0  0  0  0  0
  -30.2948  -23.0916   20.6383 H   0  0  0  0  0  0
  -29.4877  -22.8310   19.1101 H   0  0  0  0  0  0
  -27.0922  -20.8601   20.0930 H   0  0  0  0  0  0
  -27.5545  -20.4649   21.7491 H   0  0  0  0  0  0
  -34.1072  -18.4778   21.4269 H   0  0  0  0  0  0
  -33.8293  -20.1251   21.3065 H   0  0  0  0  0  0
  -31.1849  -22.0679   21.5799 H   0  0  0  0  0  0
  -32.6061  -21.2952   21.9958 H   0  0  0  0  0  0
  -28.8857  -15.8485   20.6539 H   0  0  0  0  0  0
  1 25  1  0  0  0
  1 30  2  0  0  0
  1 85  1  0  0  0
  2  3  1  0  0  0
  2 25  1  0  0  0
  2 87  1  0  0  0
  2 88  1  0  0  0
  3  4  1  0  0  0
  3 89  1  0  0  0
  3 90  1  0  0  0
  4  5  1  0  0  0
  4 91  1  0  0  0
  4 92  1  0  0  0
  5  6  1  0  0  0
  5 26  1  0  0  0
  5 93  1  0  0  0
  6 25  1  0  0  0
  6 94  1  0  0  0
  6 95  1  0  0  0
  7  8  2  0  0  0
  7 26  1  0  0  0
  7 29  1  0  0  0
  8  9  1  0  0  0
  8 22  1  0  0  0
  9 10  1  0  0  0
  9 27  2  0  0  0
 10 11  2  0  0  0
 10 15  1  0  0  0
 11 12  1  0  0  0
 11 96  1  0  0  0
 12 13  2  0  0  0
 12 97  1  0  0  0
 13 14  1  0  0  0
 13 31  1  0  0  0
 14 15  2  0  0  0
 14 98  1  0  0  0
 15 99  1  0  0  0
 16 17  2  0  0  0
 16 21  1  0  0  0
 16 31  1  0  0  0
 17 18  1  0  0  0
 17100  1  0  0  0
 18 19  2  0  0  0
 18101  1  0  0  0
 19 20  1  0  0  0
 19 24  1  0  0  0
 20 21  2  0  0  0
 20102  1  0  0  0
 21 23  1  0  0  0
 22 28  1  0  0  0
 22 32  2  0  0  0
 26 27  1  0  0  0
 28103  1  0  0  0
 28104  1  0  0  0
 29105  1  0  0  0
 29106  1  0  0  0
 33 34  1  0  0  0
 33 66  1  0  0  0
 33 70  2  0  0  0
 34 36  1  0  0  0
 34 59  1  0  0  0
 34107  1  0  0  0
 35 44  2  0  0  0
 35 45  1  0  0  0
 35 68  1  0  0  0
 36 56  1  0  0  0
 36108  1  0  0  0
 37 39  1  0  0  0
 37 47  1  0  0  0
 37 66  1  0  0  0
 37109  1  0  0  0
 38 43  2  0  0  0
 38 46  1  0  0  0
 38 47  1  0  0  0
 39 64  1  0  0  0
 39 67  2  0  0  0
 40 52  1  0  0  0
 40 53  2  0  0  0
 40 58  1  0  0  0
 41110  1  0  0  0
 41111  1  0  0  0
 41112  1  0  0  0
 41 48  1  0  0  0
 42 43  1  0  0  0
 42 66  1  0  0  0
 42113  1  0  0  0
 42114  1  0  0  0
 43 44  1  0  0  0
 44115  1  0  0  0
 45 46  2  0  0  0
 45116  1  0  0  0
 46117  1  0  0  0
 47118  1  0  0  0
 47119  1  0  0  0
 48 56  1  0  0  0
 48 65  1  0  0  0
 48120  1  0  0  0
 49 50  1  0  0  0
 49 53  1  0  0  0
 49 64  1  0  0  0
 49121  1  0  0  0
 50 51  1  0  0  0
 50122  1  0  0  0
 50123  1  0  0  0
 51 52  1  0  0  0
 51124  1  0  0  0
 51125  1  0  0  0
 52126  1  0  0  0
 52127  1  0  0  0
 53 54  1  0  0  0
 54 55  2  0  0  0
 54128  1  0  0  0
 55 57  1  0  0  0
 55129  1  0  0  0
 56 69  2  0  0  0
 57 58  2  0  0  0
 57130  1  0  0  0
 58131  1  0  0  0
 59 60  1  0  0  0
 59 61  1  0  0  0
 59 62  1  0  0  0
 60132  1  0  0  0
 60133  1  0  0  0
 60134  1  0  0  0
 61135  1  0  0  0
 61136  1  0  0  0
 61137  1  0  0  0
 62138  1  0  0  0
 62139  1  0  0  0
 62140  1  0  0  0
 63 65  1  0  0  0
 63141  1  0  0  0
 63142  1  0  0  0
 63143  1  0  0  0
 64144  1  0  0  0
 65145  1  0  0  0
 68 78  1  0  0  0
 71 73  2  0  0  0
 71 74  1  0  0  0
 71146  1  0  0  0
 72 75  2  0  0  0
 72 76  1  0  0  0
 72 82  1  0  0  0
 73 75  1  0  0  0
 73 83  1  0  0  0
 74 76  2  0  0  0
 74 85  1  0  0  0
 75 84  1  0  0  0
 76 86  1  0  0  0
 77 78  2  0  0  0
 77 79  1  0  0  0
 77 80  1  0  0  0
 78147  1  0  0  0
 79 81  1  0  0  0
 79148  1  0  0  0
 79149  1  0  0  0
 80 82  1  0  0  0
 80150  1  0  0  0
 80151  1  0  0  0
 81 82  1  0  0  0
 81152  1  0  0  0
 81153  1  0  0  0
 83154  1  0  0  0
 83155  1  0  0  0
 84156  1  0  0  0
 84157  1  0  0  0
 85158  1  0  0  0
M  ISO  4   1 100  68 101  78 101  85 100
M  END
> <chiral flag>
0

> <version>
0

> <s_m_source_file>
/data/baiqing/PycharmProjects/Reinvent-master-3.2/result/LINK_invent/BTK/process_docking_weight1_custom_product_contain_oxygen_bond_distance_aromatic_linkinvent_7_9_3/rearranged_h_0091.sdf

> <i_m_source_file_index>
40

> <r_mmod_Potential_Energy-OPLS-2005>
319.272125244141

> <r_mmod_Stretch_Energy-OPLS-2005>
155.011810302734

> <r_mmod_Bend_Energy-OPLS-2005>
273.023376464844

> <r_mmod_Torsional_Energy-OPLS-2005>
251.687454223633

> <r_mmod_Improper_Torsional_Energy-OPLS-2005>
16.7327976226807

> <r_mmod_Van_der_Waal_Energy-OPLS-2005>
161.944366455078

> <r_mmod_Electrostatic_Energy-OPLS-2005>
-432.986694335938

> <r_mmod_Solvation_Energy-OPLS-2005>
-223.730194091797

> <b_mmod_Minimization_Converged-OPLS-2005>
0

> <r_mmod_RMS_Derivative-OPLS-2005>
2.07946062088013

$$$$
40
                    3D
 Structure written by MMmdl.
150158  0  0  1  0            999 V2000
  -30.6073  -14.6759   20.4867 C   0  0  0  0  0  0
  -30.4404  -12.4121   19.4590 C   0  0  0  0  0  0
  -29.5105  -12.5076   18.2283 C   0  0  0  0  0  0
  -28.0337  -12.3402   18.6395 C   0  0  0  0  0  0
  -27.6509  -13.2181   19.8604 C   0  0  2  0  0  0
  -28.6959  -13.0919   20.9921 C   0  0  0  0  0  0
  -25.2554  -13.8172   20.5681 C   0  0  0  0  0  0
  -24.1826  -13.0437   20.9199 C   0  0  0  0  0  0
  -24.6395  -11.6908   20.8745 C   0  0  0  0  0  0
  -23.9063  -10.4291   21.0408 C   0  0  0  0  0  0
  -24.3615   -9.4206   21.9185 C   0  0  0  0  0  0
  -23.6290   -8.2242   22.0754 C   0  0  0  0  0  0
  -22.4273   -8.0281   21.3543 C   0  0  0  0  0  0
  -21.9907   -9.0255   20.4647 C   0  0  0  0  0  0
  -22.7236  -10.2135   20.3058 C   0  0  0  0  0  0
  -21.6853   -6.0735   22.5278 C   0  0  0  0  0  0
  -21.4015   -6.5639   23.8211 C   0  0  0  0  0  0
  -21.3659   -5.6791   24.9173 C   0  0  0  0  0  0
  -21.6043   -4.3053   24.7224 C   0  0  0  0  0  0
  -21.8820   -3.8145   23.4345 C   0  0  0  0  0  0
  -21.9193   -4.6962   22.3401 C   0  0  0  0  0  0
  -22.7849  -13.5230   21.1857 C   0  0  0  0  0  0
  -22.1661   -4.2148   21.0979 F   0  0  0  0  0  0
  -21.5627   -3.4538   25.7737 F   0  0  0  0  0  0
  -30.0073  -13.4424   20.4256 N   0  0  0  0  0  0
  -26.2977  -12.9352   20.3302 N   0  0  0  0  0  0
  -25.9324  -11.6509   20.5756 N   0  0  0  0  0  0
  -22.0488  -12.8226   22.0414 N   0  0  0  0  0  0
  -25.4263  -15.1894   20.4076 N   0  0  0  0  0  0
  -31.7782  -14.8259   20.1250 O   0  0  0  0  0  0
  -21.6639   -6.8878   21.4240 O   0  0  0  0  0  0
  -22.3536  -14.5535   20.6701 O   0  0  0  0  0  0
  -24.6278  -31.8584   23.2013 C   0  0  0  0  0  0
  -25.9118  -32.4771   23.8346 C   0  0  1  0  0  0
  -27.2231  -27.3016   20.1185 C   0  0  0  0  0  0
  -25.5926  -33.8572   24.2272 N   0  0  0  0  0  0
  -23.4223  -30.4822   21.5443 C   0  0  2  0  0  0
  -24.8687  -28.9356   20.1108 C   0  0  0  0  0  0
  -22.7483  -29.4618   22.4928 C   0  0  0  0  0  0
  -18.0288  -28.1385   22.8487 C   0  0  0  0  0  0
  -24.1489  -36.7292   23.2639 C   0  0  0  0  0  0
  -25.9654  -30.7840   21.3750 C   0  0  0  0  0  0
  -26.0392  -29.4105   20.7158 C   0  0  0  0  0  0
  -27.2195  -28.6060   20.7082 C   0  0  0  0  0  0
  -26.0274  -26.8846   19.4887 C   0  0  0  0  0  0
  -24.8660  -27.6790   19.4878 C   0  0  0  0  0  0
  -23.6378  -29.8177   20.1597 C   0  0  0  0  0  0
  -25.4114  -36.3079   24.0328 C   0  0  1  0  0  0
  -20.5890  -28.3691   23.1278 C   0  0  2  0  0  0
  -20.6777  -26.9413   22.5408 C   0  0  0  0  0  0
  -19.5750  -26.6383   21.5212 C   0  0  0  0  0  0
  -18.1932  -26.7926   22.1627 C   0  0  0  0  0  0
  -19.1541  -28.8855   23.2878 C   0  0  0  0  0  0
  -18.9463  -30.1456   23.8895 C   0  0  0  0  0  0
  -17.6462  -30.6587   24.0563 C   0  0  0  0  0  0
  -25.9052  -34.9448   23.5101 C   0  0  0  0  0  0
  -16.5354  -29.9085   23.6329 C   0  0  0  0  0  0
  -16.7275  -28.6502   23.0352 C   0  0  0  0  0  0
  -26.4496  -31.6586   25.0724 C   0  0  0  0  0  0
  -25.3725  -31.3732   26.1449 C   0  0  0  0  0  0
  -27.0342  -30.3007   24.6191 C   0  0  0  0  0  0
  -27.6050  -32.4327   25.7496 C   0  0  0  0  0  0
  -27.5580  -37.1800   24.8464 C   0  0  0  0  0  0
  -21.4194  -29.3044   22.3671 N   0  0  0  0  0  0
  -26.4291  -37.3774   23.9409 N   0  0  0  0  0  0
  -24.6908  -31.0583   22.0970 N   0  0  0  0  0  0
  -23.4200  -28.8156   23.3011 O   0  0  0  0  0  0
  -28.3348  -26.4395   20.1725 O   0  0  0  0  0  0
  -26.5623  -34.8918   22.4669 O   0  0  0  0  0  0
  -23.5437  -32.1389   23.7332 O   0  0  0  0  0  0
  -31.1099  -19.3271   20.2361 C   0  0  0  0  0  0
  -31.0704  -17.9001   20.2919 C   0  0  0  0  0  0
  -28.7697  -18.0345   20.9505 C   0  0  0  0  0  0
  -29.9949  -20.1667   20.5435 C   0  0  0  0  0  0
  -29.8960  -17.2003   20.6702 C   0  0  0  0  0  0
  -28.8079  -19.4686   20.8935 C   0  0  0  0  0  0
  -30.1958  -21.7061   20.6431 C   0  0  0  0  0  0
  -29.3162  -24.0311   20.4225 C   0  0  0  0  0  0
  -28.1042  -24.9693   20.0272 C   0  0  0  0  0  0
  -29.7797  -15.7339   20.7933 N   0  0  0  0  0  0
  -29.2164  -22.6442   20.3736 N   0  0  0  0  0  0
  -31.3438  -22.0519   20.9504 O   0  0  0  0  0  0
  -30.3494  -24.6164   20.7710 O   0  0  0  0  0  0
  -27.6910  -20.1689   21.2097 F   0  0  0  0  0  0
  -31.4808  -12.5426   19.1564 H   0  0  0  0  0  0
  -30.3827  -11.4208   19.9113 H   0  0  0  0  0  0
  -29.7808  -11.7502   17.4914 H   0  0  0  0  0  0
  -29.6471  -13.4731   17.7383 H   0  0  0  0  0  0
  -27.8761  -11.2879   18.8788 H   0  0  0  0  0  0
  -27.3790  -12.5603   17.7955 H   0  0  0  0  0  0
  -27.6625  -14.2496   19.5082 H   0  0  0  0  0  0
  -28.7156  -12.0745   21.3858 H   0  0  0  0  0  0
  -28.4373  -13.7328   21.8364 H   0  0  0  0  0  0
  -25.2763   -9.5681   22.4758 H   0  0  0  0  0  0
  -23.9999   -7.4634   22.7474 H   0  0  0  0  0  0
  -21.0837   -8.8776   19.8955 H   0  0  0  0  0  0
  -22.3695  -10.9675   19.6167 H   0  0  0  0  0  0
  -21.2011   -7.6148   23.9714 H   0  0  0  0  0  0
  -21.1479   -6.0522   25.9075 H   0  0  0  0  0  0
  -22.0600   -2.7608   23.2847 H   0  0  0  0  0  0
  -22.4102  -11.9889   22.4806 H   0  0  0  0  0  0
  -21.1107  -13.1258   22.2618 H   0  0  0  0  0  0
  -24.6530  -15.8386   20.5038 H   0  0  0  0  0  0
  -26.2597  -15.6224   20.0316 H   0  0  0  0  0  0
  -26.7186  -32.5435   23.1094 H   0  0  0  0  0  0
  -25.0067  -33.9712   25.0411 H   0  0  0  0  0  0
  -22.7169  -31.3033   21.4010 H   0  0  0  0  0  0
  -23.3749  -35.9626   23.3300 H   0  0  0  0  0  0
  -24.3580  -36.8916   22.2054 H   0  0  0  0  0  0
  -23.7244  -37.6494   23.6663 H   0  0  0  0  0  0
  -26.0999  -31.5475   20.6075 H   0  0  0  0  0  0
  -26.8447  -30.8316   22.0059 H   0  0  0  0  0  0
  -28.1168  -28.9655   21.1922 H   0  0  0  0  0  0
  -25.9582  -25.9260   18.9974 H   0  0  0  0  0  0
  -23.9692  -27.3102   19.0088 H   0  0  0  0  0  0
  -23.7586  -30.5946   19.4038 H   0  0  0  0  0  0
  -22.7570  -29.2489   19.8562 H   0  0  0  0  0  0
  -25.1294  -36.1930   25.0820 H   0  0  0  0  0  0
  -20.9983  -28.3267   24.1398 H   0  0  0  0  0  0
  -20.5679  -26.2301   23.3608 H   0  0  0  0  0  0
  -21.6645  -26.7440   22.1200 H   0  0  0  0  0  0
  -19.6911  -25.6294   21.1242 H   0  0  0  0  0  0
  -19.6685  -27.3193   20.6742 H   0  0  0  0  0  0
  -17.4198  -26.6670   21.4034 H   0  0  0  0  0  0
  -18.0337  -26.0071   22.9027 H   0  0  0  0  0  0
  -19.7938  -30.7274   24.2263 H   0  0  0  0  0  0
  -17.5016  -31.6266   24.5165 H   0  0  0  0  0  0
  -15.5354  -30.2987   23.7653 H   0  0  0  0  0  0
  -15.8676  -28.0820   22.7069 H   0  0  0  0  0  0
  -24.5891  -30.7092   25.7776 H   0  0  0  0  0  0
  -24.8930  -32.2904   26.4878 H   0  0  0  0  0  0
  -25.8044  -30.8900   27.0222 H   0  0  0  0  0  0
  -26.2922  -29.6756   24.1210 H   0  0  0  0  0  0
  -27.4029  -29.7266   25.4701 H   0  0  0  0  0  0
  -27.8795  -30.4289   23.9426 H   0  0  0  0  0  0
  -27.2653  -33.3625   26.2072 H   0  0  0  0  0  0
  -28.3861  -32.6892   25.0326 H   0  0  0  0  0  0
  -28.0718  -31.8457   26.5416 H   0  0  0  0  0  0
  -28.2592  -38.0102   24.7515 H   0  0  0  0  0  0
  -28.1081  -36.2634   24.6281 H   0  0  0  0  0  0
  -27.2298  -37.1439   25.8867 H   0  0  0  0  0  0
  -20.9373  -29.8771   21.6885 H   0  0  0  0  0  0
  -26.0171  -38.2848   24.1412 H   0  0  0  0  0  0
  -32.0518  -19.7909   19.9783 H   0  0  0  0  0  0
  -31.9744  -17.3550   20.0595 H   0  0  0  0  0  0
  -27.8370  -17.5735   21.2409 H   0  0  0  0  0  0
  -27.2515  -24.6708   20.6384 H   0  0  0  0  0  0
  -27.8559  -24.7465   18.9893 H   0  0  0  0  0  0
  -28.8671  -15.4162   21.0815 H   0  0  0  0  0  0
  -28.3198  -22.2658   20.1088 H   0  0  0  0  0  0
  1 25  1  0  0  0
  1 30  2  0  0  0
  1 80  1  0  0  0
  2  3  1  0  0  0
  2 25  1  0  0  0
  2 85  1  0  0  0
  2 86  1  0  0  0
  3  4  1  0  0  0
  3 87  1  0  0  0
  3 88  1  0  0  0
  4  5  1  0  0  0
  4 89  1  0  0  0
  4 90  1  0  0  0
  5  6  1  0  0  0
  5 26  1  0  0  0
  5 91  1  0  0  0
  6 25  1  0  0  0
  6 92  1  0  0  0
  6 93  1  0  0  0
  7  8  2  0  0  0
  7 26  1  0  0  0
  7 29  1  0  0  0
  8  9  1  0  0  0
  8 22  1  0  0  0
  9 10  1  0  0  0
  9 27  2  0  0  0
 10 11  2  0  0  0
 10 15  1  0  0  0
 11 12  1  0  0  0
 11 94  1  0  0  0
 12 13  2  0  0  0
 12 95  1  0  0  0
 13 14  1  0  0  0
 13 31  1  0  0  0
 14 15  2  0  0  0
 14 96  1  0  0  0
 15 97  1  0  0  0
 16 17  2  0  0  0
 16 21  1  0  0  0
 16 31  1  0  0  0
 17 18  1  0  0  0
 17 98  1  0  0  0
 18 19  2  0  0  0
 18 99  1  0  0  0
 19 20  1  0  0  0
 19 24  1  0  0  0
 20 21  2  0  0  0
 20100  1  0  0  0
 21 23  1  0  0  0
 22 28  1  0  0  0
 22 32  2  0  0  0
 26 27  1  0  0  0
 28101  1  0  0  0
 28102  1  0  0  0
 29103  1  0  0  0
 29104  1  0  0  0
 33 34  1  0  0  0
 33 66  1  0  0  0
 33 70  2  0  0  0
 34 36  1  0  0  0
 34 59  1  0  0  0
 34105  1  0  0  0
 35 44  2  0  0  0
 35 45  1  0  0  0
 35 68  1  0  0  0
 36 56  1  0  0  0
 36106  1  0  0  0
 37 39  1  0  0  0
 37 47  1  0  0  0
 37 66  1  0  0  0
 37107  1  0  0  0
 38 43  2  0  0  0
 38 46  1  0  0  0
 38 47  1  0  0  0
 39 64  1  0  0  0
 39 67  2  0  0  0
 40 52  1  0  0  0
 40 53  2  0  0  0
 40 58  1  0  0  0
 41108  1  0  0  0
 41109  1  0  0  0
 41110  1  0  0  0
 41 48  1  0  0  0
 42 43  1  0  0  0
 42 66  1  0  0  0
 42111  1  0  0  0
 42112  1  0  0  0
 43 44  1  0  0  0
 44113  1  0  0  0
 45 46  2  0  0  0
 45114  1  0  0  0
 46115  1  0  0  0
 47116  1  0  0  0
 47117  1  0  0  0
 48 56  1  0  0  0
 48 65  1  0  0  0
 48118  1  0  0  0
 49 50  1  0  0  0
 49 53  1  0  0  0
 49 64  1  0  0  0
 49119  1  0  0  0
 50 51  1  0  0  0
 50120  1  0  0  0
 50121  1  0  0  0
 51 52  1  0  0  0
 51122  1  0  0  0
 51123  1  0  0  0
 52124  1  0  0  0
 52125  1  0  0  0
 53 54  1  0  0  0
 54 55  2  0  0  0
 54126  1  0  0  0
 55 57  1  0  0  0
 55127  1  0  0  0
 56 69  2  0  0  0
 57 58  2  0  0  0
 57128  1  0  0  0
 58129  1  0  0  0
 59 60  1  0  0  0
 59 61  1  0  0  0
 59 62  1  0  0  0
 60130  1  0  0  0
 60131  1  0  0  0
 60132  1  0  0  0
 61133  1  0  0  0
 61134  1  0  0  0
 61135  1  0  0  0
 62136  1  0  0  0
 62137  1  0  0  0
 62138  1  0  0  0
 63 65  1  0  0  0
 63139  1  0  0  0
 63140  1  0  0  0
 63141  1  0  0  0
 64142  1  0  0  0
 65143  1  0  0  0
 68 79  1  0  0  0
 71 72  2  0  0  0
 71 74  1  0  0  0
 71144  1  0  0  0
 72 75  1  0  0  0
 72145  1  0  0  0
 73 75  2  0  0  0
 73 76  1  0  0  0
 73146  1  0  0  0
 74 76  2  0  0  0
 74 77  1  0  0  0
 75 80  1  0  0  0
 76 84  1  0  0  0
 77 81  1  0  0  0
 77 82  2  0  0  0
 78 79  1  0  0  0
 78 81  1  0  0  0
 78 83  2  0  0  0
 79147  1  0  0  0
 79148  1  0  0  0
 80149  1  0  0  0
 81150  1  0  0  0
M  ISO  4   1 100  68 101  79 101  80 100
M  END
> <chiral flag>
0

> <version>
0

> <s_m_source_file>
/data/baiqing/PycharmProjects/Reinvent-master-3.2/result/LINK_invent/BTK/process_docking_weight1_custom_product_contain_oxygen_bond_distance_aromatic_linkinvent_7_9_3/rearranged_h_0091.sdf

> <i_m_source_file_index>
41

> <r_mmod_Potential_Energy-OPLS-2005>
-25.2279872894287

> <r_mmod_Stretch_Energy-OPLS-2005>
93.0222396850586

> <r_mmod_Bend_Energy-OPLS-2005>
149.318771362305

> <r_mmod_Torsional_Energy-OPLS-2005>
218.844543457031

> <r_mmod_Improper_Torsional_Energy-OPLS-2005>
5.19262266159058

> <r_mmod_Van_der_Waal_Energy-OPLS-2005>
153.32763671875

> <r_mmod_Electrostatic_Energy-OPLS-2005>
-423.644866943359

> <r_mmod_Solvation_Energy-OPLS-2005>
-280.388793945312

> <b_mmod_Minimization_Converged-OPLS-2005>
0

> <r_mmod_RMS_Derivative-OPLS-2005>
0.22262866795063

$$$$
41
                    3D
 Structure written by MMmdl.
153161  0  0  1  0            999 V2000
  -30.5119  -14.7892   20.4965 C   0  0  0  0  0  0
  -30.4668  -12.4932   19.4563 C   0  0  0  0  0  0
  -29.5186  -12.5260   18.2314 C   0  0  0  0  0  0
  -28.0460  -12.3250   18.6486 C   0  0  0  0  0  0
  -27.6477  -13.2108   19.8549 C   0  0  2  0  0  0
  -28.6990  -13.0964   20.9852 C   0  0  0  0  0  0
  -25.2553  -13.8153   20.5713 C   0  0  0  0  0  0
  -24.1812  -13.0409   20.9253 C   0  0  0  0  0  0
  -24.6387  -11.6898   20.8777 C   0  0  0  0  0  0
  -23.9050  -10.4285   21.0408 C   0  0  0  0  0  0
  -24.3597   -9.4192   21.9166 C   0  0  0  0  0  0
  -23.6267   -8.2238   22.0739 C   0  0  0  0  0  0
  -22.4248   -8.0287   21.3544 C   0  0  0  0  0  0
  -21.9900   -9.0254   20.4647 C   0  0  0  0  0  0
  -22.7234  -10.2123   20.3047 C   0  0  0  0  0  0
  -21.6851   -6.0737   22.5265 C   0  0  0  0  0  0
  -21.4019   -6.5635   23.8200 C   0  0  0  0  0  0
  -21.3663   -5.6788   24.9166 C   0  0  0  0  0  0
  -21.6043   -4.3050   24.7218 C   0  0  0  0  0  0
  -21.8814   -3.8153   23.4339 C   0  0  0  0  0  0
  -21.9199   -4.6972   22.3407 C   0  0  0  0  0  0
  -22.7847  -13.5205   21.1905 C   0  0  0  0  0  0
  -22.1654   -4.2161   21.0983 F   0  0  0  0  0  0
  -21.5638   -3.4536   25.7729 F   0  0  0  0  0  0
  -29.9978  -13.5091   20.4241 N   0  0  0  0  0  0
  -26.2949  -12.9308   20.3251 N   0  0  0  0  0  0
  -25.9296  -11.6474   20.5718 N   0  0  0  0  0  0
  -22.0487  -12.8201   22.0467 N   0  0  0  0  0  0
  -25.4287  -15.1883   20.4174 N   0  0  0  0  0  0
  -31.6694  -15.0439   20.1401 O   0  0  0  0  0  0
  -21.6638   -6.8867   21.4217 O   0  0  0  0  0  0
  -22.3574  -14.5520   20.6749 O   0  0  0  0  0  0
  -24.6358  -31.8526   23.1968 C   0  0  0  0  0  0
  -25.9156  -32.4745   23.8345 C   0  0  1  0  0  0
  -27.2368  -27.2334   20.1200 C   0  0  0  0  0  0
  -25.5952  -33.8559   24.2267 N   0  0  0  0  0  0
  -23.4353  -30.4727   21.5409 C   0  0  2  0  0  0
  -24.8886  -28.9180   20.1110 C   0  0  0  0  0  0
  -22.7527  -29.4577   22.4902 C   0  0  0  0  0  0
  -18.0302  -28.1389   22.8486 C   0  0  0  0  0  0
  -24.1492  -36.7273   23.2636 C   0  0  0  0  0  0
  -25.9847  -30.7558   21.3816 C   0  0  0  0  0  0
  -26.0625  -29.3759   20.7207 C   0  0  0  0  0  0
  -27.2374  -28.5482   20.7140 C   0  0  0  0  0  0
  -26.0320  -26.8592   19.4767 C   0  0  0  0  0  0
  -24.8803  -27.6683   19.4787 C   0  0  0  0  0  0
  -23.6585  -29.8059   20.1588 C   0  0  0  0  0  0
  -25.4121  -36.3069   24.0332 C   0  0  1  0  0  0
  -20.5907  -28.3697   23.1271 C   0  0  2  0  0  0
  -20.6784  -26.9409   22.5415 C   0  0  0  0  0  0
  -19.5758  -26.6381   21.5215 C   0  0  0  0  0  0
  -18.1935  -26.7934   22.1624 C   0  0  0  0  0  0
  -19.1558  -28.8861   23.2872 C   0  0  0  0  0  0
  -18.9467  -30.1463   23.8891 C   0  0  0  0  0  0
  -17.6463  -30.6593   24.0556 C   0  0  0  0  0  0
  -25.9059  -34.9441   23.5095 C   0  0  0  0  0  0
  -16.5358  -29.9087   23.6333 C   0  0  0  0  0  0
  -16.7282  -28.6504   23.0357 C   0  0  0  0  0  0
  -26.4514  -31.6580   25.0737 C   0  0  0  0  0  0
  -25.3738  -31.3717   26.1450 C   0  0  0  0  0  0
  -27.0355  -30.2995   24.6221 C   0  0  0  0  0  0
  -27.6085  -32.4305   25.7497 C   0  0  0  0  0  0
  -27.5577  -37.1797   24.8465 C   0  0  0  0  0  0
  -21.4228  -29.3037   22.3645 N   0  0  0  0  0  0
  -26.4282  -37.3777   23.9408 N   0  0  0  0  0  0
  -24.7046  -31.0468   22.0956 N   0  0  0  0  0  0
  -23.4196  -28.8115   23.3031 O   0  0  0  0  0  0
  -28.3209  -26.3043   20.1809 O   0  0  0  0  0  0
  -26.5619  -34.8919   22.4655 O   0  0  0  0  0  0
  -23.5500  -32.1341   23.7248 O   0  0  0  0  0  0
  -29.1280  -19.7644   20.3120 C   0  0  0  0  0  0
  -31.2427  -18.7601   20.9770 C   0  0  0  0  0  0
  -31.0012  -21.2221   20.7261 C   0  0  0  0  0  0
  -29.8926  -18.5591   20.6522 C   0  0  0  0  0  0
  -29.6331  -21.1316   20.3608 C   0  0  0  0  0  0
  -31.7836  -20.0681   21.0248 C   0  0  0  0  0  0
  -29.0546  -23.6115   20.2529 C   0  0  0  0  0  0
  -29.2275  -17.2061   20.9489 C   0  0  0  0  0  0
  -28.0535  -24.8336   19.8833 C   0  0  0  0  0  0
  -28.7985  -22.3153   20.0782 N   0  0  0  0  0  0
  -33.1113  -20.2115   21.4303 N   0  0  0  0  0  0
  -29.4993  -15.8294   20.8577 N   0  0  0  0  0  0
  -28.0308  -17.4166   21.5148 N   0  3  0  0  0  0
  -31.4913  -12.6907   19.1426 H   0  0  0  0  0  0
  -30.4772  -11.5049   19.9164 H   0  0  0  0  0  0
  -29.8106  -11.7608   17.5097 H   0  0  0  0  0  0
  -29.6213  -13.4832   17.7158 H   0  0  0  0  0  0
  -27.9210  -11.2754   18.9092 H   0  0  0  0  0  0
  -27.3825  -12.5111   17.8038 H   0  0  0  0  0  0
  -27.6479  -14.2356   19.4842 H   0  0  0  0  0  0
  -28.7512  -12.0704   21.3512 H   0  0  0  0  0  0
  -28.4154  -13.6976   21.8496 H   0  0  0  0  0  0
  -25.2724   -9.5686   22.4750 H   0  0  0  0  0  0
  -24.0006   -7.4625   22.7434 H   0  0  0  0  0  0
  -21.0846   -8.8737   19.8944 H   0  0  0  0  0  0
  -22.3657  -10.9650   19.6175 H   0  0  0  0  0  0
  -21.1989   -7.6133   23.9722 H   0  0  0  0  0  0
  -21.1492   -6.0509   25.9064 H   0  0  0  0  0  0
  -22.0597   -2.7618   23.2846 H   0  0  0  0  0  0
  -22.4102  -11.9841   22.4826 H   0  0  0  0  0  0
  -21.1089  -13.1220   22.2651 H   0  0  0  0  0  0
  -24.6229  -15.8015   20.4798 H   0  0  0  0  0  0
  -26.1835  -15.5993   19.8846 H   0  0  0  0  0  0
  -26.7216  -32.5386   23.1085 H   0  0  0  0  0  0
  -25.0140  -33.9714   25.0424 H   0  0  0  0  0  0
  -22.7348  -31.2957   21.3909 H   0  0  0  0  0  0
  -23.3774  -35.9586   23.3307 H   0  0  0  0  0  0
  -24.3573  -36.8880   22.2049 H   0  0  0  0  0  0
  -23.7236  -37.6471   23.6649 H   0  0  0  0  0  0
  -26.1245  -31.5169   20.6138 H   0  0  0  0  0  0
  -26.8608  -30.8101   22.0147 H   0  0  0  0  0  0
  -28.1342  -28.8963   21.2077 H   0  0  0  0  0  0
  -25.9362  -25.9102   18.9733 H   0  0  0  0  0  0
  -23.9842  -27.3107   18.9934 H   0  0  0  0  0  0
  -23.7841  -30.5810   19.4023 H   0  0  0  0  0  0
  -22.7781  -29.2394   19.8514 H   0  0  0  0  0  0
  -25.1312  -36.1920   25.0829 H   0  0  0  0  0  0
  -20.9991  -28.3269   24.1391 H   0  0  0  0  0  0
  -20.5689  -26.2296   23.3615 H   0  0  0  0  0  0
  -21.6644  -26.7442   22.1192 H   0  0  0  0  0  0
  -19.6916  -25.6294   21.1250 H   0  0  0  0  0  0
  -19.6710  -27.3186   20.6741 H   0  0  0  0  0  0
  -17.4205  -26.6693   21.4020 H   0  0  0  0  0  0
  -18.0339  -26.0079   22.9024 H   0  0  0  0  0  0
  -19.7943  -30.7290   24.2252 H   0  0  0  0  0  0
  -17.5007  -31.6277   24.5154 H   0  0  0  0  0  0
  -15.5349  -30.2973   23.7664 H   0  0  0  0  0  0
  -15.8682  -28.0810   22.7079 H   0  0  0  0  0  0
  -24.5964  -30.7007   25.7770 H   0  0  0  0  0  0
  -24.8874  -32.2869   26.4837 H   0  0  0  0  0  0
  -25.8077  -30.8935   27.0240 H   0  0  0  0  0  0
  -26.2929  -29.6750   24.1238 H   0  0  0  0  0  0
  -27.4009  -29.7271   25.4759 H   0  0  0  0  0  0
  -27.8830  -30.4275   23.9486 H   0  0  0  0  0  0
  -27.2733  -33.3640   26.2029 H   0  0  0  0  0  0
  -28.3912  -32.6794   25.0317 H   0  0  0  0  0  0
  -28.0714  -31.8438   26.5432 H   0  0  0  0  0  0
  -28.2599  -38.0094   24.7516 H   0  0  0  0  0  0
  -28.1085  -36.2630   24.6303 H   0  0  0  0  0  0
  -27.2290  -37.1440   25.8866 H   0  0  0  0  0  0
  -20.9411  -29.8746   21.6834 H   0  0  0  0  0  0
  -26.0179  -38.2845   24.1426 H   0  0  0  0  0  0
  -28.0831  -19.6448   20.0595 H   0  0  0  0  0  0
  -31.8414  -17.9089   21.2735 H   0  0  0  0  0  0
  -31.4655  -22.1931   20.7927 H   0  0  0  0  0  0
  -29.9998  -23.9521   20.6827 H   0  0  0  0  0  0
  -27.1092  -24.5754   20.3630 H   0  0  0  0  0  0
  -27.8762  -24.7617   18.8090 H   0  0  0  0  0  0
  -33.4951  -19.4501   21.9840 H   0  0  0  0  0  0
  -33.3925  -21.1172   21.7913 H   0  0  0  0  0  0
  -28.6387  -15.3944   21.1151 H   0  0  0  0  0  0
  -27.4941  -16.7179   22.0068 H   0  0  0  0  0  0
  -27.7843  -18.3775   21.7022 H   0  0  0  0  0  0
  1 25  1  0  0  0
  1 30  2  0  0  0
  1 82  1  0  0  0
  2  3  1  0  0  0
  2 25  1  0  0  0
  2 84  1  0  0  0
  2 85  1  0  0  0
  3  4  1  0  0  0
  3 86  1  0  0  0
  3 87  1  0  0  0
  4  5  1  0  0  0
  4 88  1  0  0  0
  4 89  1  0  0  0
  5  6  1  0  0  0
  5 26  1  0  0  0
  5 90  1  0  0  0
  6 25  1  0  0  0
  6 91  1  0  0  0
  6 92  1  0  0  0
  7  8  2  0  0  0
  7 26  1  0  0  0
  7 29  1  0  0  0
  8  9  1  0  0  0
  8 22  1  0  0  0
  9 10  1  0  0  0
  9 27  2  0  0  0
 10 11  2  0  0  0
 10 15  1  0  0  0
 11 12  1  0  0  0
 11 93  1  0  0  0
 12 13  2  0  0  0
 12 94  1  0  0  0
 13 14  1  0  0  0
 13 31  1  0  0  0
 14 15  2  0  0  0
 14 95  1  0  0  0
 15 96  1  0  0  0
 16 17  2  0  0  0
 16 21  1  0  0  0
 16 31  1  0  0  0
 17 18  1  0  0  0
 17 97  1  0  0  0
 18 19  2  0  0  0
 18 98  1  0  0  0
 19 20  1  0  0  0
 19 24  1  0  0  0
 20 21  2  0  0  0
 20 99  1  0  0  0
 21 23  1  0  0  0
 22 28  1  0  0  0
 22 32  2  0  0  0
 26 27  1  0  0  0
 28100  1  0  0  0
 28101  1  0  0  0
 29102  1  0  0  0
 29103  1  0  0  0
 33 34  1  0  0  0
 33 66  1  0  0  0
 33 70  2  0  0  0
 34 36  1  0  0  0
 34 59  1  0  0  0
 34104  1  0  0  0
 35 44  2  0  0  0
 35 45  1  0  0  0
 35 68  1  0  0  0
 36 56  1  0  0  0
 36105  1  0  0  0
 37 39  1  0  0  0
 37 47  1  0  0  0
 37 66  1  0  0  0
 37106  1  0  0  0
 38 43  2  0  0  0
 38 46  1  0  0  0
 38 47  1  0  0  0
 39 64  1  0  0  0
 39 67  2  0  0  0
 40 52  1  0  0  0
 40 53  2  0  0  0
 40 58  1  0  0  0
 41107  1  0  0  0
 41108  1  0  0  0
 41109  1  0  0  0
 41 48  1  0  0  0
 42 43  1  0  0  0
 42 66  1  0  0  0
 42110  1  0  0  0
 42111  1  0  0  0
 43 44  1  0  0  0
 44112  1  0  0  0
 45 46  2  0  0  0
 45113  1  0  0  0
 46114  1  0  0  0
 47115  1  0  0  0
 47116  1  0  0  0
 48 56  1  0  0  0
 48 65  1  0  0  0
 48117  1  0  0  0
 49 50  1  0  0  0
 49 53  1  0  0  0
 49 64  1  0  0  0
 49118  1  0  0  0
 50 51  1  0  0  0
 50119  1  0  0  0
 50120  1  0  0  0
 51 52  1  0  0  0
 51121  1  0  0  0
 51122  1  0  0  0
 52123  1  0  0  0
 52124  1  0  0  0
 53 54  1  0  0  0
 54 55  2  0  0  0
 54125  1  0  0  0
 55 57  1  0  0  0
 55126  1  0  0  0
 56 69  2  0  0  0
 57 58  2  0  0  0
 57127  1  0  0  0
 58128  1  0  0  0
 59 60  1  0  0  0
 59 61  1  0  0  0
 59 62  1  0  0  0
 60129  1  0  0  0
 60130  1  0  0  0
 60131  1  0  0  0
 61132  1  0  0  0
 61133  1  0  0  0
 61134  1  0  0  0
 62135  1  0  0  0
 62136  1  0  0  0
 62137  1  0  0  0
 63 65  1  0  0  0
 63138  1  0  0  0
 63139  1  0  0  0
 63140  1  0  0  0
 64141  1  0  0  0
 65142  1  0  0  0
 68 79  1  0  0  0
 71 74  2  0  0  0
 71 75  1  0  0  0
 71143  1  0  0  0
 72 74  1  0  0  0
 72 76  2  0  0  0
 72144  1  0  0  0
 73 75  2  0  0  0
 73 76  1  0  0  0
 73145  1  0  0  0
 74 78  1  0  0  0
 75 80  1  0  0  0
 76 81  1  0  0  0
 77 79  1  0  0  0
 77 80  2  0  0  0
 77146  1  0  0  0
 78 82  1  0  0  0
 78 83  2  0  0  0
 79147  1  0  0  0
 79148  1  0  0  0
 81149  1  0  0  0
 81150  1  0  0  0
 82151  1  0  0  0
 83152  1  0  0  0
 83153  1  0  0  0
M  CHG  1  83   1
M  ISO  4   1 100  68 101  79 101  82 100
M  END
> <chiral flag>
0

> <version>
0

> <s_m_source_file>
/data/baiqing/PycharmProjects/Reinvent-master-3.2/result/LINK_invent/BTK/process_docking_weight1_custom_product_contain_oxygen_bond_distance_aromatic_linkinvent_7_9_3/rearranged_h_0091.sdf

> <i_m_source_file_index>
42

> <r_mmod_Potential_Energy-OPLS-2005>
71.6926498413086

> <r_mmod_Stretch_Energy-OPLS-2005>
151.31282043457

> <r_mmod_Bend_Energy-OPLS-2005>
285.281646728516

> <r_mmod_Torsional_Energy-OPLS-2005>
212.25260925293

> <r_mmod_Improper_Torsional_Energy-OPLS-2005>
12.6366786956787

> <r_mmod_Van_der_Waal_Energy-OPLS-2005>
139.664016723633

> <r_mmod_Electrostatic_Energy-OPLS-2005>
-386.608306884766

> <r_mmod_Solvation_Energy-OPLS-2005>
-454.157165527344

> <b_mmod_Minimization_Converged-OPLS-2005>
0

> <r_mmod_RMS_Derivative-OPLS-2005>
4.08766555786133

$$$$
42
                    3D
 Structure written by MMmdl.
161170  0  0  1  0            999 V2000
  -30.6044  -14.7937   20.3874 C   0  0  0  0  0  0
  -30.4335  -12.4575   19.4969 C   0  0  0  0  0  0
  -29.5191  -12.4348   18.2512 C   0  0  0  0  0  0
  -28.0349  -12.3177   18.6535 C   0  0  0  0  0  0
  -27.6415  -13.2370   19.8443 C   0  0  2  0  0  0
  -28.6868  -13.2104   20.9805 C   0  0  0  0  0  0
  -25.2548  -13.8237   20.5719 C   0  0  0  0  0  0
  -24.1833  -13.0477   20.9226 C   0  0  0  0  0  0
  -24.6415  -11.6953   20.8762 C   0  0  0  0  0  0
  -23.9096  -10.4317   21.0425 C   0  0  0  0  0  0
  -24.3642   -9.4227   21.9197 C   0  0  0  0  0  0
  -23.6313   -8.2266   22.0786 C   0  0  0  0  0  0
  -22.4299   -8.0307   21.3573 C   0  0  0  0  0  0
  -21.9940   -9.0274   20.4671 C   0  0  0  0  0  0
  -22.7275  -10.2149   20.3077 C   0  0  0  0  0  0
  -21.6863   -6.0754   22.5273 C   0  0  0  0  0  0
  -21.4022   -6.5655   23.8205 C   0  0  0  0  0  0
  -21.3661   -5.6808   24.9164 C   0  0  0  0  0  0
  -21.6040   -4.3071   24.7218 C   0  0  0  0  0  0
  -21.8814   -3.8159   23.4339 C   0  0  0  0  0  0
  -21.9208   -4.6980   22.3398 C   0  0  0  0  0  0
  -22.7844  -13.5252   21.1848 C   0  0  0  0  0  0
  -22.1669   -4.2166   21.0980 F   0  0  0  0  0  0
  -21.5628   -3.4558   25.7729 F   0  0  0  0  0  0
  -29.9832  -13.5589   20.3849 N   0  0  0  0  0  0
  -26.2956  -12.9437   20.3282 N   0  0  0  0  0  0
  -25.9353  -11.6589   20.5800 N   0  0  0  0  0  0
  -22.0504  -12.8204   22.0381 N   0  0  0  0  0  0
  -25.4232  -15.1959   20.4137 N   0  0  0  0  0  0
  -31.8042  -14.8586   20.1061 O   0  0  0  0  0  0
  -21.6661   -6.8910   21.4245 O   0  0  0  0  0  0
  -22.3525  -14.5548   20.6705 O   0  0  0  0  0  0
  -24.6338  -31.8546   23.1993 C   0  0  0  0  0  0
  -25.9161  -32.4752   23.8344 C   0  0  1  0  0  0
  -27.2212  -27.2427   20.1156 C   0  0  0  0  0  0
  -25.5951  -33.8558   24.2252 N   0  0  0  0  0  0
  -23.4310  -30.4785   21.5440 C   0  0  2  0  0  0
  -24.8811  -28.9325   20.1053 C   0  0  0  0  0  0
  -22.7517  -29.4606   22.4921 C   0  0  0  0  0  0
  -18.0296  -28.1387   22.8491 C   0  0  0  0  0  0
  -24.1493  -36.7275   23.2640 C   0  0  0  0  0  0
  -25.9817  -30.7570   21.3900 C   0  0  0  0  0  0
  -26.0536  -29.3805   20.7259 C   0  0  0  0  0  0
  -27.2234  -28.5464   20.7277 C   0  0  0  0  0  0
  -26.0251  -26.8902   19.4418 C   0  0  0  0  0  0
  -24.8741  -27.6946   19.4526 C   0  0  0  0  0  0
  -23.6496  -29.8166   20.1588 C   0  0  0  0  0  0
  -25.4121  -36.3062   24.0325 C   0  0  1  0  0  0
  -20.5900  -28.3711   23.1259 C   0  0  2  0  0  0
  -20.6785  -26.9432   22.5402 C   0  0  0  0  0  0
  -19.5754  -26.6384   21.5214 C   0  0  0  0  0  0
  -18.1932  -26.7938   22.1618 C   0  0  0  0  0  0
  -19.1551  -28.8872   23.2865 C   0  0  0  0  0  0
  -18.9469  -30.1476   23.8883 C   0  0  0  0  0  0
  -17.6463  -30.6597   24.0562 C   0  0  0  0  0  0
  -25.9061  -34.9431   23.5078 C   0  0  0  0  0  0
  -16.5355  -29.9085   23.6343 C   0  0  0  0  0  0
  -16.7280  -28.6497   23.0373 C   0  0  0  0  0  0
  -26.4517  -31.6592   25.0745 C   0  0  0  0  0  0
  -25.3719  -31.3747   26.1447 C   0  0  0  0  0  0
  -27.0401  -30.3006   24.6279 C   0  0  0  0  0  0
  -27.6052  -32.4358   25.7526 C   0  0  0  0  0  0
  -27.5583  -37.1788   24.8462 C   0  0  0  0  0  0
  -21.4222  -29.3051   22.3659 N   0  0  0  0  0  0
  -26.4290  -37.3759   23.9410 N   0  0  0  0  0  0
  -24.7007  -31.0484   22.0992 N   0  0  0  0  0  0
  -23.4199  -28.8123   23.3019 O   0  0  0  0  0  0
  -28.2881  -26.2976   20.1932 O   0  0  0  0  0  0
  -26.5633  -34.8911   22.4648 O   0  0  0  0  0  0
  -23.5474  -32.1397   23.7249 O   0  0  0  0  0  0
  -29.9719  -23.3780   21.0184 C   0  0  0  0  0  0
  -30.1276  -19.8000   18.3721 C   0  0  0  0  0  0
  -29.7028  -18.6086   20.4469 C   0  0  0  0  0  0
  -28.8316  -23.5536   20.1728 C   0  0  0  0  0  0
  -30.1873  -17.3384   18.4082 C   0  0  0  0  0  0
  -29.7548  -19.8837   19.7239 C   0  0  0  0  0  0
  -30.3524  -18.5738   17.7281 C   0  0  0  0  0  0
  -29.9460  -17.2976   19.8209 C   0  0  0  0  0  0
  -28.5979  -22.2496   19.6961 C   0  0  0  0  0  0
  -30.3646  -22.0542   20.9956 C   0  0  0  0  0  0
  -30.1924  -16.0643   17.5677 C   0  0  0  0  0  0
  -27.5248  -21.8080   18.7457 C   0  0  0  0  0  0
  -27.9647  -24.8622   19.8409 C   0  0  0  0  0  0
  -29.5372  -21.2886   20.1793 N   0  0  0  0  0  0
  -30.7405  -18.6139   16.3865 N   0  0  0  0  0  0
  -29.8379  -15.9598   20.5132 N   0  0  0  0  0  0
  -31.4369  -21.4856   21.6072 O   0  0  0  0  0  0
  -31.4758  -12.5674   19.1949 H   0  0  0  0  0  0
  -30.3763  -11.5040   20.0243 H   0  0  0  0  0  0
  -29.7849  -11.5881   17.6163 H   0  0  0  0  0  0
  -29.6829  -13.3138   17.6348 H   0  0  0  0  0  0
  -27.8600  -11.2741   18.9209 H   0  0  0  0  0  0
  -27.3927  -12.5184   17.7952 H   0  0  0  0  0  0
  -27.6264  -14.2500   19.4457 H   0  0  0  0  0  0
  -28.7315  -12.2261   21.4510 H   0  0  0  0  0  0
  -28.4247  -13.9137   21.7715 H   0  0  0  0  0  0
  -25.2786   -9.5697   22.4760 H   0  0  0  0  0  0
  -24.0037   -7.4655   22.7503 H   0  0  0  0  0  0
  -21.0902   -8.8794   19.8947 H   0  0  0  0  0  0
  -22.3760  -10.9690   19.6195 H   0  0  0  0  0  0
  -21.2004   -7.6168   23.9695 H   0  0  0  0  0  0
  -21.1493   -6.0558   25.9068 H   0  0  0  0  0  0
  -22.0592   -2.7624   23.2837 H   0  0  0  0  0  0
  -22.4197  -11.9888   22.4745 H   0  0  0  0  0  0
  -21.1124  -13.1203   22.2594 H   0  0  0  0  0  0
  -24.6562  -15.8498   20.5268 H   0  0  0  0  0  0
  -26.2587  -15.6301   20.0401 H   0  0  0  0  0  0
  -26.7224  -32.5384   23.1081 H   0  0  0  0  0  0
  -25.0136  -33.9702   25.0422 H   0  0  0  0  0  0
  -22.7286  -31.3010   21.3980 H   0  0  0  0  0  0
  -23.3759  -35.9602   23.3286 H   0  0  0  0  0  0
  -24.3568  -36.8928   22.2058 H   0  0  0  0  0  0
  -23.7250  -37.6467   23.6686 H   0  0  0  0  0  0
  -26.1326  -31.5193   20.6241 H   0  0  0  0  0  0
  -26.8537  -30.7969   22.0313 H   0  0  0  0  0  0
  -28.1130  -28.8789   21.2447 H   0  0  0  0  0  0
  -25.9251  -25.9620   18.9025 H   0  0  0  0  0  0
  -23.9830  -27.3530   18.9452 H   0  0  0  0  0  0
  -23.7673  -30.5925   19.4017 H   0  0  0  0  0  0
  -22.7688  -29.2469   19.8583 H   0  0  0  0  0  0
  -25.1303  -36.1904   25.0814 H   0  0  0  0  0  0
  -20.9989  -28.3295   24.1374 H   0  0  0  0  0  0
  -20.5701  -26.2323   23.3602 H   0  0  0  0  0  0
  -21.6654  -26.7443   22.1202 H   0  0  0  0  0  0
  -19.6912  -25.6288   21.1265 H   0  0  0  0  0  0
  -19.6687  -27.3179   20.6726 H   0  0  0  0  0  0
  -17.4205  -26.6710   21.4011 H   0  0  0  0  0  0
  -18.0301  -26.0074   22.9001 H   0  0  0  0  0  0
  -19.7942  -30.7308   24.2236 H   0  0  0  0  0  0
  -17.5013  -31.6280   24.5161 H   0  0  0  0  0  0
  -15.5356  -30.2978   23.7672 H   0  0  0  0  0  0
  -15.8683  -28.0802   22.7102 H   0  0  0  0  0  0
  -24.5911  -30.7080   25.7767 H   0  0  0  0  0  0
  -24.8883  -32.2915   26.4828 H   0  0  0  0  0  0
  -25.8018  -30.8958   27.0254 H   0  0  0  0  0  0
  -26.3020  -29.6723   24.1277 H   0  0  0  0  0  0
  -27.4049  -29.7306   25.4837 H   0  0  0  0  0  0
  -27.8913  -30.4286   23.9585 H   0  0  0  0  0  0
  -27.2653  -33.3682   26.2052 H   0  0  0  0  0  0
  -28.3892  -32.6882   25.0373 H   0  0  0  0  0  0
  -28.0696  -31.8523   26.5492 H   0  0  0  0  0  0
  -28.2578  -38.0106   24.7534 H   0  0  0  0  0  0
  -28.1108  -36.2631   24.6268 H   0  0  0  0  0  0
  -27.2296  -37.1432   25.8865 H   0  0  0  0  0  0
  -20.9406  -29.8788   21.6875 H   0  0  0  0  0  0
  -26.0166  -38.2833   24.1404 H   0  0  0  0  0  0
  -30.4677  -24.1631   21.5729 H   0  0  0  0  0  0
  -30.2248  -20.7153   17.8062 H   0  0  0  0  0  0
  -29.4678  -18.6423   21.5005 H   0  0  0  0  0  0
  -30.0318  -16.2419   16.5054 H   0  0  0  0  0  0
  -29.3612  -15.4332   17.8705 H   0  0  0  0  0  0
  -31.1341  -15.5278   17.6665 H   0  0  0  0  0  0
  -26.7430  -22.5612   18.6475 H   0  0  0  0  0  0
  -27.0483  -20.8888   19.0867 H   0  0  0  0  0  0
  -27.9304  -21.6246   17.7500 H   0  0  0  0  0  0
  -26.9963  -24.6280   20.2847 H   0  0  0  0  0  0
  -27.8343  -24.8383   18.7580 H   0  0  0  0  0  0
  -31.2396  -19.4386   16.0679 H   0  0  0  0  0  0
  -31.1563  -17.7671   16.0135 H   0  0  0  0  0  0
  -28.9641  -15.8116   20.9974 H   0  0  0  0  0  0
  -31.8823  -22.1668   22.1021 H   0  0  0  0  0  0
  1 25  1  0  0  0
  1 30  2  0  0  0
  1 86  1  0  0  0
  2  3  1  0  0  0
  2 25  1  0  0  0
  2 88  1  0  0  0
  2 89  1  0  0  0
  3  4  1  0  0  0
  3 90  1  0  0  0
  3 91  1  0  0  0
  4  5  1  0  0  0
  4 92  1  0  0  0
  4 93  1  0  0  0
  5  6  1  0  0  0
  5 26  1  0  0  0
  5 94  1  0  0  0
  6 25  1  0  0  0
  6 95  1  0  0  0
  6 96  1  0  0  0
  7  8  2  0  0  0
  7 26  1  0  0  0
  7 29  1  0  0  0
  8  9  1  0  0  0
  8 22  1  0  0  0
  9 10  1  0  0  0
  9 27  2  0  0  0
 10 11  2  0  0  0
 10 15  1  0  0  0
 11 12  1  0  0  0
 11 97  1  0  0  0
 12 13  2  0  0  0
 12 98  1  0  0  0
 13 14  1  0  0  0
 13 31  1  0  0  0
 14 15  2  0  0  0
 14 99  1  0  0  0
 15100  1  0  0  0
 16 17  2  0  0  0
 16 21  1  0  0  0
 16 31  1  0  0  0
 17 18  1  0  0  0
 17101  1  0  0  0
 18 19  2  0  0  0
 18102  1  0  0  0
 19 20  1  0  0  0
 19 24  1  0  0  0
 20 21  2  0  0  0
 20103  1  0  0  0
 21 23  1  0  0  0
 22 28  1  0  0  0
 22 32  2  0  0  0
 26 27  1  0  0  0
 28104  1  0  0  0
 28105  1  0  0  0
 29106  1  0  0  0
 29107  1  0  0  0
 33 34  1  0  0  0
 33 66  1  0  0  0
 33 70  2  0  0  0
 34 36  1  0  0  0
 34 59  1  0  0  0
 34108  1  0  0  0
 35 44  2  0  0  0
 35 45  1  0  0  0
 35 68  1  0  0  0
 36 56  1  0  0  0
 36109  1  0  0  0
 37 39  1  0  0  0
 37 47  1  0  0  0
 37 66  1  0  0  0
 37110  1  0  0  0
 38 43  2  0  0  0
 38 46  1  0  0  0
 38 47  1  0  0  0
 39 64  1  0  0  0
 39 67  2  0  0  0
 40 52  1  0  0  0
 40 53  2  0  0  0
 40 58  1  0  0  0
 41111  1  0  0  0
 41112  1  0  0  0
 41113  1  0  0  0
 41 48  1  0  0  0
 42 43  1  0  0  0
 42 66  1  0  0  0
 42114  1  0  0  0
 42115  1  0  0  0
 43 44  1  0  0  0
 44116  1  0  0  0
 45 46  2  0  0  0
 45117  1  0  0  0
 46118  1  0  0  0
 47119  1  0  0  0
 47120  1  0  0  0
 48 56  1  0  0  0
 48 65  1  0  0  0
 48121  1  0  0  0
 49 50  1  0  0  0
 49 53  1  0  0  0
 49 64  1  0  0  0
 49122  1  0  0  0
 50 51  1  0  0  0
 50123  1  0  0  0
 50124  1  0  0  0
 51 52  1  0  0  0
 51125  1  0  0  0
 51126  1  0  0  0
 52127  1  0  0  0
 52128  1  0  0  0
 53 54  1  0  0  0
 54 55  2  0  0  0
 54129  1  0  0  0
 55 57  1  0  0  0
 55130  1  0  0  0
 56 69  2  0  0  0
 57 58  2  0  0  0
 57131  1  0  0  0
 58132  1  0  0  0
 59 60  1  0  0  0
 59 61  1  0  0  0
 59 62  1  0  0  0
 60133  1  0  0  0
 60134  1  0  0  0
 60135  1  0  0  0
 61136  1  0  0  0
 61137  1  0  0  0
 61138  1  0  0  0
 62139  1  0  0  0
 62140  1  0  0  0
 62141  1  0  0  0
 63 65  1  0  0  0
 63142  1  0  0  0
 63143  1  0  0  0
 63144  1  0  0  0
 64145  1  0  0  0
 65146  1  0  0  0
 68 83  1  0  0  0
 71 74  1  0  0  0
 71 80  2  0  0  0
 71147  1  0  0  0
 72 76  2  0  0  0
 72 77  1  0  0  0
 72148  1  0  0  0
 73 76  1  0  0  0
 73 78  2  0  0  0
 73149  1  0  0  0
 74 79  2  0  0  0
 74 83  1  0  0  0
 75 77  2  0  0  0
 75 78  1  0  0  0
 75 81  1  0  0  0
 76 84  1  0  0  0
 77 85  1  0  0  0
 78 86  1  0  0  0
 79 82  1  0  0  0
 79 84  1  0  0  0
 80 84  1  0  0  0
 80 87  1  0  0  0
 81150  1  0  0  0
 81151  1  0  0  0
 81152  1  0  0  0
 82153  1  0  0  0
 82154  1  0  0  0
 82155  1  0  0  0
 83156  1  0  0  0
 83157  1  0  0  0
 85158  1  0  0  0
 85159  1  0  0  0
 86160  1  0  0  0
 87161  1  0  0  0
M  ISO  4   1 100  68 101  83 101  86 100
M  END
> <chiral flag>
0

> <version>
0

> <s_m_source_file>
/data/baiqing/PycharmProjects/Reinvent-master-3.2/result/LINK_invent/BTK/process_docking_weight1_custom_product_contain_oxygen_bond_distance_aromatic_linkinvent_7_9_3/rearranged_h_0091.sdf

> <i_m_source_file_index>
43

> <r_mmod_Potential_Energy-OPLS-2005>
257.887969970703

> <r_mmod_Stretch_Energy-OPLS-2005>
145.611190795898

> <r_mmod_Bend_Energy-OPLS-2005>
186.198333740234

> <r_mmod_Torsional_Energy-OPLS-2005>
276.331756591797

> <r_mmod_Improper_Torsional_Energy-OPLS-2005>
10.8736543655396

> <r_mmod_Van_der_Waal_Energy-OPLS-2005>
147.376846313477

> <r_mmod_Electrostatic_Energy-OPLS-2005>
-383.013977050781

> <r_mmod_Solvation_Energy-OPLS-2005>
-235.417114257812

> <b_mmod_Minimization_Converged-OPLS-2005>
0

> <r_mmod_RMS_Derivative-OPLS-2005>
3.10335373878479

$$$$
43
                    3D
 Structure written by MMmdl.
151159  0  0  1  0            999 V2000
  -30.6066  -14.7226   20.4987 C   0  0  0  0  0  0
  -30.4378  -12.4390   19.4933 C   0  0  0  0  0  0
  -29.5190  -12.5150   18.2524 C   0  0  0  0  0  0
  -28.0434  -12.3397   18.6579 C   0  0  0  0  0  0
  -27.6509  -13.2284   19.8679 C   0  0  2  0  0  0
  -28.6891  -13.1310   21.0094 C   0  0  0  0  0  0
  -25.2541  -13.8193   20.5715 C   0  0  0  0  0  0
  -24.1812  -13.0440   20.9181 C   0  0  0  0  0  0
  -24.6396  -11.6913   20.8724 C   0  0  0  0  0  0
  -23.9067  -10.4293   21.0393 C   0  0  0  0  0  0
  -24.3613   -9.4215   21.9179 C   0  0  0  0  0  0
  -23.6291   -8.2248   22.0755 C   0  0  0  0  0  0
  -22.4277   -8.0279   21.3539 C   0  0  0  0  0  0
  -21.9910   -9.0249   20.4644 C   0  0  0  0  0  0
  -22.7233  -10.2134   20.3049 C   0  0  0  0  0  0
  -21.6858   -6.0733   22.5271 C   0  0  0  0  0  0
  -21.4019   -6.5638   23.8203 C   0  0  0  0  0  0
  -21.3664   -5.6794   24.9169 C   0  0  0  0  0  0
  -21.6042   -4.3055   24.7222 C   0  0  0  0  0  0
  -21.8818   -3.8145   23.4344 C   0  0  0  0  0  0
  -21.9194   -4.6961   22.3397 C   0  0  0  0  0  0
  -22.7838  -13.5223   21.1851 C   0  0  0  0  0  0
  -22.1664   -4.2145   21.0975 F   0  0  0  0  0  0
  -21.5629   -3.4540   25.7737 F   0  0  0  0  0  0
  -30.0030  -13.4840   20.4510 N   0  0  0  0  0  0
  -26.2979  -12.9395   20.3345 N   0  0  0  0  0  0
  -25.9332  -11.6536   20.5760 N   0  0  0  0  0  0
  -22.0490  -12.8212   22.0413 N   0  0  0  0  0  0
  -25.4247  -15.1923   20.4177 N   0  0  0  0  0  0
  -31.7525  -14.8681   20.0607 O   0  0  0  0  0  0
  -21.6643   -6.8875   21.4234 O   0  0  0  0  0  0
  -22.3526  -14.5533   20.6709 O   0  0  0  0  0  0
  -24.6315  -31.8566   23.2024 C   0  0  0  0  0  0
  -25.9150  -32.4753   23.8349 C   0  0  1  0  0  0
  -27.1993  -27.2422   20.1387 C   0  0  0  0  0  0
  -25.5951  -33.8558   24.2259 N   0  0  0  0  0  0
  -23.4274  -30.4826   21.5462 C   0  0  2  0  0  0
  -24.8739  -28.9366   20.1116 C   0  0  0  0  0  0
  -22.7505  -29.4599   22.4917 C   0  0  0  0  0  0
  -18.0288  -28.1388   22.8483 C   0  0  0  0  0  0
  -24.1492  -36.7275   23.2637 C   0  0  0  0  0  0
  -25.9784  -30.7587   21.3954 C   0  0  0  0  0  0
  -26.0453  -29.3817   20.7375 C   0  0  0  0  0  0
  -27.2101  -28.5436   20.7501 C   0  0  0  0  0  0
  -26.0310  -26.9180   19.4165 C   0  0  0  0  0  0
  -24.8720  -27.7100   19.4393 C   0  0  0  0  0  0
  -23.6472  -29.8261   20.1601 C   0  0  0  0  0  0
  -25.4116  -36.3059   24.0330 C   0  0  1  0  0  0
  -20.5893  -28.3692   23.1262 C   0  0  2  0  0  0
  -20.6772  -26.9407   22.5406 C   0  0  0  0  0  0
  -19.5742  -26.6373   21.5214 C   0  0  0  0  0  0
  -18.1918  -26.7928   22.1623 C   0  0  0  0  0  0
  -19.1544  -28.8857   23.2861 C   0  0  0  0  0  0
  -18.9469  -30.1457   23.8881 C   0  0  0  0  0  0
  -17.6472  -30.6589   24.0557 C   0  0  0  0  0  0
  -25.9066  -34.9434   23.5088 C   0  0  0  0  0  0
  -16.5359  -29.9085   23.6346 C   0  0  0  0  0  0
  -16.7275  -28.6504   23.0365 C   0  0  0  0  0  0
  -26.4512  -31.6590   25.0749 C   0  0  0  0  0  0
  -25.3724  -31.3770   26.1464 C   0  0  0  0  0  0
  -27.0378  -30.2991   24.6299 C   0  0  0  0  0  0
  -27.6043  -32.4366   25.7524 C   0  0  0  0  0  0
  -27.5581  -37.1777   24.8460 C   0  0  0  0  0  0
  -21.4214  -29.3038   22.3662 N   0  0  0  0  0  0
  -26.4282  -37.3762   23.9423 N   0  0  0  0  0  0
  -24.6971  -31.0521   22.1019 N   0  0  0  0  0  0
  -23.4205  -28.8114   23.2997 O   0  0  0  0  0  0
  -28.2724  -26.3138   20.1695 O   0  0  0  0  0  0
  -26.5635  -34.8910   22.4657 O   0  0  0  0  0  0
  -23.5463  -32.1413   23.7309 O   0  0  0  0  0  0
  -30.0657  -19.2573   19.4602 C   0  0  0  0  0  0
  -30.2403  -17.8118   19.4797 C   0  0  0  0  0  0
  -29.6078  -19.8242   20.6314 C   0  0  0  0  0  0
  -29.9079  -17.1698   20.6584 C   0  0  0  0  0  0
  -29.4323  -21.2906   21.1116 C   0  0  0  0  0  0
  -26.8191  -24.1172   20.1151 C   0  0  0  0  0  0
  -29.3355  -23.8509   20.4534 C   0  0  0  0  0  0
  -28.0807  -24.8626   20.6058 C   0  0  1  0  0  0
  -29.8643  -15.7971   20.9586 N   0  0  0  0  0  0
  -29.1684  -22.3364   20.2514 N   0  0  0  0  0  0
  -29.5664  -21.5287   22.3123 O   0  0  0  0  0  0
  -29.3839  -18.4670   21.7799 S   0  0  0  0  0  0
  -31.4825  -12.5545   19.2002 H   0  0  0  0  0  0
  -30.3703  -11.4540   19.9586 H   0  0  0  0  0  0
  -29.8000  -11.7497   17.5276 H   0  0  0  0  0  0
  -29.6528  -13.4759   17.7525 H   0  0  0  0  0  0
  -27.8950  -11.2892   18.9109 H   0  0  0  0  0  0
  -27.3883  -12.5424   17.8097 H   0  0  0  0  0  0
  -27.6578  -14.2574   19.5067 H   0  0  0  0  0  0
  -28.7126  -12.1230   21.4259 H   0  0  0  0  0  0
  -28.4151  -13.7877   21.8363 H   0  0  0  0  0  0
  -25.2753   -9.5702   22.4759 H   0  0  0  0  0  0
  -23.9997   -7.4652   22.7487 H   0  0  0  0  0  0
  -21.0839   -8.8763   19.8956 H   0  0  0  0  0  0
  -22.3678  -10.9669   19.6164 H   0  0  0  0  0  0
  -21.2012   -7.6146   23.9707 H   0  0  0  0  0  0
  -21.1492   -6.0525   25.9073 H   0  0  0  0  0  0
  -22.0594   -2.7605   23.2844 H   0  0  0  0  0  0
  -22.4117  -11.9859   22.4765 H   0  0  0  0  0  0
  -21.1120  -13.1247   22.2654 H   0  0  0  0  0  0
  -24.6561  -15.8448   20.5296 H   0  0  0  0  0  0
  -26.2814  -15.6375   20.1132 H   0  0  0  0  0  0
  -26.7211  -32.5393   23.1079 H   0  0  0  0  0  0
  -25.0088  -33.9701   25.0394 H   0  0  0  0  0  0
  -22.7241  -31.3054   21.4039 H   0  0  0  0  0  0
  -23.3759  -35.9598   23.3283 H   0  0  0  0  0  0
  -24.3579  -36.8917   22.2055 H   0  0  0  0  0  0
  -23.7241  -37.6466   23.6680 H   0  0  0  0  0  0
  -26.1348  -31.5204   20.6300 H   0  0  0  0  0  0
  -26.8494  -30.7954   22.0376 H   0  0  0  0  0  0
  -28.1012  -28.8726   21.2656 H   0  0  0  0  0  0
  -25.9872  -26.0312   18.8077 H   0  0  0  0  0  0
  -23.9901  -27.3798   18.9072 H   0  0  0  0  0  0
  -23.7748  -30.6078   19.4109 H   0  0  0  0  0  0
  -22.7646  -29.2638   19.8491 H   0  0  0  0  0  0
  -25.1289  -36.1898   25.0817 H   0  0  0  0  0  0
  -20.9970  -28.3272   24.1389 H   0  0  0  0  0  0
  -20.5681  -26.2297   23.3613 H   0  0  0  0  0  0
  -21.6631  -26.7434   22.1182 H   0  0  0  0  0  0
  -19.6902  -25.6282   21.1252 H   0  0  0  0  0  0
  -19.6684  -27.3173   20.6736 H   0  0  0  0  0  0
  -17.4190  -26.6686   21.4022 H   0  0  0  0  0  0
  -18.0292  -26.0073   22.9019 H   0  0  0  0  0  0
  -19.7953  -30.7270   24.2232 H   0  0  0  0  0  0
  -17.5035  -31.6274   24.5152 H   0  0  0  0  0  0
  -15.5357  -30.2980   23.7695 H   0  0  0  0  0  0
  -15.8668  -28.0827   22.7090 H   0  0  0  0  0  0
  -24.5896  -30.7120   25.7795 H   0  0  0  0  0  0
  -24.8917  -32.2951   26.4853 H   0  0  0  0  0  0
  -25.8013  -30.8974   27.0270 H   0  0  0  0  0  0
  -26.2988  -29.6719   24.1294 H   0  0  0  0  0  0
  -27.3991  -29.7286   25.4865 H   0  0  0  0  0  0
  -27.8897  -30.4230   23.9604 H   0  0  0  0  0  0
  -27.2615  -33.3679   26.2057 H   0  0  0  0  0  0
  -28.3855  -32.6932   25.0351 H   0  0  0  0  0  0
  -28.0709  -31.8544   26.5481 H   0  0  0  0  0  0
  -28.2559  -38.0111   24.7544 H   0  0  0  0  0  0
  -28.1110  -36.2642   24.6222 H   0  0  0  0  0  0
  -27.2308  -37.1341   25.8863 H   0  0  0  0  0  0
  -20.9404  -29.8792   21.6895 H   0  0  0  0  0  0
  -26.0160  -38.2829   24.1452 H   0  0  0  0  0  0
  -30.3151  -19.8348   18.5817 H   0  0  0  0  0  0
  -30.5888  -17.2918   18.5981 H   0  0  0  0  0  0
  -26.7572  -23.1200   20.5486 H   0  0  0  0  0  0
  -26.8125  -23.9983   19.0314 H   0  0  0  0  0  0
  -25.8974  -24.5959   20.4416 H   0  0  0  0  0  0
  -30.0131  -24.0176   21.2916 H   0  0  0  0  0  0
  -29.8960  -24.1835   19.5794 H   0  0  0  0  0  0
  -27.9303  -24.9525   21.6825 H   0  0  0  0  0  0
  -29.0720  -15.5190   21.5193 H   0  0  0  0  0  0
  -28.9865  -22.0631   19.2949 H   0  0  0  0  0  0
  1 25  1  0  0  0
  1 30  2  0  0  0
  1 79  1  0  0  0
  2  3  1  0  0  0
  2 25  1  0  0  0
  2 83  1  0  0  0
  2 84  1  0  0  0
  3  4  1  0  0  0
  3 85  1  0  0  0
  3 86  1  0  0  0
  4  5  1  0  0  0
  4 87  1  0  0  0
  4 88  1  0  0  0
  5  6  1  0  0  0
  5 26  1  0  0  0
  5 89  1  0  0  0
  6 25  1  0  0  0
  6 90  1  0  0  0
  6 91  1  0  0  0
  7  8  2  0  0  0
  7 26  1  0  0  0
  7 29  1  0  0  0
  8  9  1  0  0  0
  8 22  1  0  0  0
  9 10  1  0  0  0
  9 27  2  0  0  0
 10 11  2  0  0  0
 10 15  1  0  0  0
 11 12  1  0  0  0
 11 92  1  0  0  0
 12 13  2  0  0  0
 12 93  1  0  0  0
 13 14  1  0  0  0
 13 31  1  0  0  0
 14 15  2  0  0  0
 14 94  1  0  0  0
 15 95  1  0  0  0
 16 17  2  0  0  0
 16 21  1  0  0  0
 16 31  1  0  0  0
 17 18  1  0  0  0
 17 96  1  0  0  0
 18 19  2  0  0  0
 18 97  1  0  0  0
 19 20  1  0  0  0
 19 24  1  0  0  0
 20 21  2  0  0  0
 20 98  1  0  0  0
 21 23  1  0  0  0
 22 28  1  0  0  0
 22 32  2  0  0  0
 26 27  1  0  0  0
 28 99  1  0  0  0
 28100  1  0  0  0
 29101  1  0  0  0
 29102  1  0  0  0
 33 34  1  0  0  0
 33 66  1  0  0  0
 33 70  2  0  0  0
 34 36  1  0  0  0
 34 59  1  0  0  0
 34103  1  0  0  0
 35 44  2  0  0  0
 35 45  1  0  0  0
 35 68  1  0  0  0
 36 56  1  0  0  0
 36104  1  0  0  0
 37 39  1  0  0  0
 37 47  1  0  0  0
 37 66  1  0  0  0
 37105  1  0  0  0
 38 43  2  0  0  0
 38 46  1  0  0  0
 38 47  1  0  0  0
 39 64  1  0  0  0
 39 67  2  0  0  0
 40 52  1  0  0  0
 40 53  2  0  0  0
 40 58  1  0  0  0
 41106  1  0  0  0
 41107  1  0  0  0
 41108  1  0  0  0
 41 48  1  0  0  0
 42 43  1  0  0  0
 42 66  1  0  0  0
 42109  1  0  0  0
 42110  1  0  0  0
 43 44  1  0  0  0
 44111  1  0  0  0
 45 46  2  0  0  0
 45112  1  0  0  0
 46113  1  0  0  0
 47114  1  0  0  0
 47115  1  0  0  0
 48 56  1  0  0  0
 48 65  1  0  0  0
 48116  1  0  0  0
 49 50  1  0  0  0
 49 53  1  0  0  0
 49 64  1  0  0  0
 49117  1  0  0  0
 50 51  1  0  0  0
 50118  1  0  0  0
 50119  1  0  0  0
 51 52  1  0  0  0
 51120  1  0  0  0
 51121  1  0  0  0
 52122  1  0  0  0
 52123  1  0  0  0
 53 54  1  0  0  0
 54 55  2  0  0  0
 54124  1  0  0  0
 55 57  1  0  0  0
 55125  1  0  0  0
 56 69  2  0  0  0
 57 58  2  0  0  0
 57126  1  0  0  0
 58127  1  0  0  0
 59 60  1  0  0  0
 59 61  1  0  0  0
 59 62  1  0  0  0
 60128  1  0  0  0
 60129  1  0  0  0
 60130  1  0  0  0
 61131  1  0  0  0
 61132  1  0  0  0
 61133  1  0  0  0
 62134  1  0  0  0
 62135  1  0  0  0
 62136  1  0  0  0
 63 65  1  0  0  0
 63137  1  0  0  0
 63138  1  0  0  0
 63139  1  0  0  0
 64140  1  0  0  0
 65141  1  0  0  0
 68 78  1  0  0  0
 71 72  1  0  0  0
 71 73  2  0  0  0
 71142  1  0  0  0
 72 74  2  0  0  0
 72143  1  0  0  0
 73 75  1  0  0  0
 73 82  1  0  0  0
 74 79  1  0  0  0
 74 82  1  0  0  0
 75 80  1  0  0  0
 75 81  2  0  0  0
 76144  1  0  0  0
 76145  1  0  0  0
 76146  1  0  0  0
 76 78  1  0  0  0
 77 78  1  0  0  0
 77 80  1  0  0  0
 77147  1  0  0  0
 77148  1  0  0  0
 78149  1  0  0  0
 79150  1  0  0  0
 80151  1  0  0  0
M  ISO  4   1 100  68 101  78 101  79 100
M  END
> <chiral flag>
0

> <version>
0

> <s_m_source_file>
/data/baiqing/PycharmProjects/Reinvent-master-3.2/result/LINK_invent/BTK/process_docking_weight1_custom_product_contain_oxygen_bond_distance_aromatic_linkinvent_7_9_3/rearranged_h_0091.sdf

> <i_m_source_file_index>
44

> <r_mmod_Potential_Energy-OPLS-2005>
92.2902908325195

> <r_mmod_Stretch_Energy-OPLS-2005>
116.986625671387

> <r_mmod_Bend_Energy-OPLS-2005>
178.886962890625

> <r_mmod_Torsional_Energy-OPLS-2005>
262.763000488281

> <r_mmod_Improper_Torsional_Energy-OPLS-2005>
3.78110003471375

> <r_mmod_Van_der_Waal_Energy-OPLS-2005>
128.484420776367

> <r_mmod_Electrostatic_Energy-OPLS-2005>
-445.755798339844

> <r_mmod_Solvation_Energy-OPLS-2005>
-239.582748413086

> <b_mmod_Minimization_Converged-OPLS-2005>
0

> <r_mmod_RMS_Derivative-OPLS-2005>
1.32612001895905

$$$$
44
                    3D
 Structure written by MMmdl.
158167  0  0  1  0            999 V2000
  -30.6057  -14.6734   20.4755 C   0  0  0  0  0  0
  -30.4444  -12.4097   19.4500 C   0  0  0  0  0  0
  -29.5087  -12.5065   18.2235 C   0  0  0  0  0  0
  -28.0320  -12.3397   18.6382 C   0  0  0  0  0  0
  -27.6508  -13.2159   19.8609 C   0  0  2  0  0  0
  -28.7011  -13.0880   20.9877 C   0  0  0  0  0  0
  -25.2542  -13.8161   20.5723 C   0  0  0  0  0  0
  -24.1811  -13.0410   20.9181 C   0  0  0  0  0  0
  -24.6395  -11.6891   20.8730 C   0  0  0  0  0  0
  -23.9068  -10.4277   21.0398 C   0  0  0  0  0  0
  -24.3618   -9.4197   21.9179 C   0  0  0  0  0  0
  -23.6287   -8.2238   22.0754 C   0  0  0  0  0  0
  -22.4269   -8.0278   21.3546 C   0  0  0  0  0  0
  -21.9904   -9.0250   20.4647 C   0  0  0  0  0  0
  -22.7238  -10.2124   20.3050 C   0  0  0  0  0  0
  -21.6852   -6.0732   22.5279 C   0  0  0  0  0  0
  -21.4014   -6.5636   23.8213 C   0  0  0  0  0  0
  -21.3657   -5.6789   24.9175 C   0  0  0  0  0  0
  -21.6042   -4.3052   24.7226 C   0  0  0  0  0  0
  -21.8820   -3.8144   23.4347 C   0  0  0  0  0  0
  -21.9192   -4.6960   22.3402 C   0  0  0  0  0  0
  -22.7832  -13.5204   21.1847 C   0  0  0  0  0  0
  -22.1661   -4.2146   21.0980 F   0  0  0  0  0  0
  -21.5626   -3.4536   25.7739 F   0  0  0  0  0  0
  -30.0117  -13.4378   20.4159 N   0  0  0  0  0  0
  -26.2983  -12.9351   20.3338 N   0  0  0  0  0  0
  -25.9325  -11.6499   20.5757 N   0  0  0  0  0  0
  -22.0480  -12.8206   22.0416 N   0  0  0  0  0  0
  -25.4132  -15.1904   20.4261 N   0  0  0  0  0  0
  -31.7856  -14.8364   20.1507 O   0  0  0  0  0  0
  -21.6635   -6.8876   21.4243 O   0  0  0  0  0  0
  -22.3510  -14.5508   20.6697 O   0  0  0  0  0  0
  -24.6273  -31.8592   23.2023 C   0  0  0  0  0  0
  -25.9116  -32.4776   23.8355 C   0  0  1  0  0  0
  -27.2234  -27.3103   20.1238 C   0  0  0  0  0  0
  -25.5929  -33.8577   24.2282 N   0  0  0  0  0  0
  -23.4224  -30.4826   21.5447 C   0  0  2  0  0  0
  -24.8714  -28.9384   20.1102 C   0  0  0  0  0  0
  -22.7485  -29.4616   22.4928 C   0  0  0  0  0  0
  -18.0290  -28.1385   22.8483 C   0  0  0  0  0  0
  -24.1489  -36.7291   23.2637 C   0  0  0  0  0  0
  -25.9647  -30.7870   21.3765 C   0  0  0  0  0  0
  -26.0407  -29.4135   20.7195 C   0  0  0  0  0  0
  -27.2227  -28.6112   20.7174 C   0  0  0  0  0  0
  -26.0389  -26.9001   19.4731 C   0  0  0  0  0  0
  -24.8727  -27.6870   19.4765 C   0  0  0  0  0  0
  -23.6389  -29.8188   20.1598 C   0  0  0  0  0  0
  -25.4112  -36.3080   24.0328 C   0  0  1  0  0  0
  -20.5892  -28.3691   23.1277 C   0  0  2  0  0  0
  -20.6778  -26.9412   22.5408 C   0  0  0  0  0  0
  -19.5755  -26.6383   21.5209 C   0  0  0  0  0  0
  -18.1934  -26.7926   22.1621 C   0  0  0  0  0  0
  -19.1542  -28.8854   23.2876 C   0  0  0  0  0  0
  -18.9464  -30.1454   23.8896 C   0  0  0  0  0  0
  -17.6464  -30.6586   24.0563 C   0  0  0  0  0  0
  -25.9051  -34.9449   23.5106 C   0  0  0  0  0  0
  -16.5355  -29.9084   23.6328 C   0  0  0  0  0  0
  -16.7277  -28.6501   23.0349 C   0  0  0  0  0  0
  -26.4497  -31.6584   25.0725 C   0  0  0  0  0  0
  -25.3731  -31.3724   26.1452 C   0  0  0  0  0  0
  -27.0336  -30.3004   24.6181 C   0  0  0  0  0  0
  -27.6059  -32.4315   25.7496 C   0  0  0  0  0  0
  -27.5579  -37.1799   24.8461 C   0  0  0  0  0  0
  -21.4196  -29.3041   22.3668 N   0  0  0  0  0  0
  -26.4289  -37.3775   23.9408 N   0  0  0  0  0  0
  -24.6902  -31.0596   22.0980 N   0  0  0  0  0  0
  -23.4201  -28.8153   23.3011 O   0  0  0  0  0  0
  -28.3093  -26.4188   20.1592 O   0  0  0  0  0  0
  -26.5619  -34.8917   22.4671 O   0  0  0  0  0  0
  -23.5433  -32.1393   23.7343 O   0  0  0  0  0  0
  -30.8057  -19.4353   20.8712 C   0  0  0  0  0  0
  -30.8956  -18.0067   20.9526 C   0  0  0  0  0  0
  -30.1157  -23.7277   19.7201 C   0  0  0  0  0  0
  -28.6009  -19.2630   19.9331 C   0  0  0  0  0  0
  -28.8577  -23.8007   20.3868 C   0  0  0  0  0  0
  -29.6535  -20.1108   20.3689 C   0  0  0  0  0  0
  -29.8297  -17.1701   20.5262 C   0  0  0  0  0  0
  -28.6896  -17.8391   20.0018 C   0  0  0  0  0  0
  -28.5580  -22.4690   20.7014 C   0  0  0  0  0  0
  -30.5091  -22.4135   19.6601 C   0  0  0  0  0  0
  -27.3567  -21.9409   21.4240 C   0  0  0  0  0  0
  -28.0067  -25.0810   20.7340 C   0  0  0  0  0  0
  -29.5711  -21.5785   20.2594 N   0  0  0  0  0  0
  -27.6353  -17.0659   19.5129 N   0  0  0  0  0  0
  -29.7491  -15.7181   20.7041 N   0  0  0  0  0  0
  -31.6379  -21.9012   19.0993 O   0  0  0  0  0  0
  -31.4833  -12.5457   19.1449 H   0  0  0  0  0  0
  -30.3901  -11.4181   19.9019 H   0  0  0  0  0  0
  -29.7763  -11.7504   17.4842 H   0  0  0  0  0  0
  -29.6439  -13.4724   17.7345 H   0  0  0  0  0  0
  -27.8742  -11.2874   18.8764 H   0  0  0  0  0  0
  -27.3759  -12.5614   17.7956 H   0  0  0  0  0  0
  -27.6571  -14.2455   19.5079 H   0  0  0  0  0  0
  -28.7214  -12.0705   21.3807 H   0  0  0  0  0  0
  -28.4478  -13.7298   21.8333 H   0  0  0  0  0  0
  -25.2764   -9.5669   22.4753 H   0  0  0  0  0  0
  -23.9993   -7.4628   22.7475 H   0  0  0  0  0  0
  -21.0833   -8.8773   19.8956 H   0  0  0  0  0  0
  -22.3702  -10.9663   19.6158 H   0  0  0  0  0  0
  -21.2011   -7.6145   23.9716 H   0  0  0  0  0  0
  -21.1474   -6.0519   25.9077 H   0  0  0  0  0  0
  -22.0603   -2.7607   23.2851 H   0  0  0  0  0  0
  -22.4095  -11.9873   22.4812 H   0  0  0  0  0  0
  -21.1101  -13.1241   22.2624 H   0  0  0  0  0  0
  -24.6344  -15.8249   20.5593 H   0  0  0  0  0  0
  -26.2687  -15.6875   20.1768 H   0  0  0  0  0  0
  -26.7184  -32.5445   23.1104 H   0  0  0  0  0  0
  -25.0072  -33.9721   25.0424 H   0  0  0  0  0  0
  -22.7166  -31.3034   21.4015 H   0  0  0  0  0  0
  -23.3748  -35.9627   23.3303 H   0  0  0  0  0  0
  -24.3582  -36.8907   22.2051 H   0  0  0  0  0  0
  -23.7248  -37.6497   23.6657 H   0  0  0  0  0  0
  -26.0976  -31.5498   20.6080 H   0  0  0  0  0  0
  -26.8446  -30.8365   22.0063 H   0  0  0  0  0  0
  -28.1177  -28.9679   21.2077 H   0  0  0  0  0  0
  -26.0022  -25.9464   18.9660 H   0  0  0  0  0  0
  -23.9805  -27.3213   18.9870 H   0  0  0  0  0  0
  -23.7590  -30.5962   19.4045 H   0  0  0  0  0  0
  -22.7589  -29.2489   19.8558 H   0  0  0  0  0  0
  -25.1292  -36.1931   25.0820 H   0  0  0  0  0  0
  -20.9984  -28.3269   24.1397 H   0  0  0  0  0  0
  -20.5675  -26.2300   23.3609 H   0  0  0  0  0  0
  -21.6650  -26.7438   22.1207 H   0  0  0  0  0  0
  -19.6919  -25.6295   21.1237 H   0  0  0  0  0  0
  -19.6692  -27.3192   20.6738 H   0  0  0  0  0  0
  -17.4203  -26.6669   21.4025 H   0  0  0  0  0  0
  -18.0340  -26.0070   22.9020 H   0  0  0  0  0  0
  -19.7940  -30.7269   24.2266 H   0  0  0  0  0  0
  -17.5019  -31.6265   24.5167 H   0  0  0  0  0  0
  -15.5356  -30.2986   23.7652 H   0  0  0  0  0  0
  -15.8676  -28.0819   22.7067 H   0  0  0  0  0  0
  -24.5908  -30.7068   25.7783 H   0  0  0  0  0  0
  -24.8919  -32.2890   26.4873 H   0  0  0  0  0  0
  -25.8056  -30.8907   27.0230 H   0  0  0  0  0  0
  -26.2909  -29.6758   24.1203 H   0  0  0  0  0  0
  -27.4028  -29.7257   25.4686 H   0  0  0  0  0  0
  -27.8783  -30.4286   23.9409 H   0  0  0  0  0  0
  -27.2672  -33.3614   26.2076 H   0  0  0  0  0  0
  -28.3869  -32.6875   25.0323 H   0  0  0  0  0  0
  -28.0726  -31.8437   26.5410 H   0  0  0  0  0  0
  -28.2592  -38.0101   24.7515 H   0  0  0  0  0  0
  -28.1080  -36.2634   24.6276 H   0  0  0  0  0  0
  -27.2300  -37.1437   25.8864 H   0  0  0  0  0  0
  -20.9375  -29.8764   21.6877 H   0  0  0  0  0  0
  -26.0169  -38.2847   24.1416 H   0  0  0  0  0  0
  -31.6449  -20.0263   21.2096 H   0  0  0  0  0  0
  -31.7849  -17.5606   21.3739 H   0  0  0  0  0  0
  -30.6741  -24.5667   19.3275 H   0  0  0  0  0  0
  -27.7151  -19.7210   19.5182 H   0  0  0  0  0  0
  -26.8896  -22.7144   22.0333 H   0  0  0  0  0  0
  -27.6198  -21.1199   22.0917 H   0  0  0  0  0  0
  -26.6076  -21.5777   20.7202 H   0  0  0  0  0  0
  -28.0721  -25.2009   21.8159 H   0  0  0  0  0  0
  -26.9720  -24.7927   20.5557 H   0  0  0  0  0  0
  -26.9277  -17.5939   19.0129 H   0  0  0  0  0  0
  -27.9490  -16.2959   18.9336 H   0  0  0  0  0  0
  -28.7967  -15.4095   20.8257 H   0  0  0  0  0  0
  -32.1344  -22.6270   18.7342 H   0  0  0  0  0  0
  1 25  1  0  0  0
  1 30  2  0  0  0
  1 85  1  0  0  0
  2  3  1  0  0  0
  2 25  1  0  0  0
  2 87  1  0  0  0
  2 88  1  0  0  0
  3  4  1  0  0  0
  3 89  1  0  0  0
  3 90  1  0  0  0
  4  5  1  0  0  0
  4 91  1  0  0  0
  4 92  1  0  0  0
  5  6  1  0  0  0
  5 26  1  0  0  0
  5 93  1  0  0  0
  6 25  1  0  0  0
  6 94  1  0  0  0
  6 95  1  0  0  0
  7  8  2  0  0  0
  7 26  1  0  0  0
  7 29  1  0  0  0
  8  9  1  0  0  0
  8 22  1  0  0  0
  9 10  1  0  0  0
  9 27  2  0  0  0
 10 11  2  0  0  0
 10 15  1  0  0  0
 11 12  1  0  0  0
 11 96  1  0  0  0
 12 13  2  0  0  0
 12 97  1  0  0  0
 13 14  1  0  0  0
 13 31  1  0  0  0
 14 15  2  0  0  0
 14 98  1  0  0  0
 15 99  1  0  0  0
 16 17  2  0  0  0
 16 21  1  0  0  0
 16 31  1  0  0  0
 17 18  1  0  0  0
 17100  1  0  0  0
 18 19  2  0  0  0
 18101  1  0  0  0
 19 20  1  0  0  0
 19 24  1  0  0  0
 20 21  2  0  0  0
 20102  1  0  0  0
 21 23  1  0  0  0
 22 28  1  0  0  0
 22 32  2  0  0  0
 26 27  1  0  0  0
 28103  1  0  0  0
 28104  1  0  0  0
 29105  1  0  0  0
 29106  1  0  0  0
 33 34  1  0  0  0
 33 66  1  0  0  0
 33 70  2  0  0  0
 34 36  1  0  0  0
 34 59  1  0  0  0
 34107  1  0  0  0
 35 44  2  0  0  0
 35 45  1  0  0  0
 35 68  1  0  0  0
 36 56  1  0  0  0
 36108  1  0  0  0
 37 39  1  0  0  0
 37 47  1  0  0  0
 37 66  1  0  0  0
 37109  1  0  0  0
 38 43  2  0  0  0
 38 46  1  0  0  0
 38 47  1  0  0  0
 39 64  1  0  0  0
 39 67  2  0  0  0
 40 52  1  0  0  0
 40 53  2  0  0  0
 40 58  1  0  0  0
 41110  1  0  0  0
 41111  1  0  0  0
 41112  1  0  0  0
 41 48  1  0  0  0
 42 43  1  0  0  0
 42 66  1  0  0  0
 42113  1  0  0  0
 42114  1  0  0  0
 43 44  1  0  0  0
 44115  1  0  0  0
 45 46  2  0  0  0
 45116  1  0  0  0
 46117  1  0  0  0
 47118  1  0  0  0
 47119  1  0  0  0
 48 56  1  0  0  0
 48 65  1  0  0  0
 48120  1  0  0  0
 49 50  1  0  0  0
 49 53  1  0  0  0
 49 64  1  0  0  0
 49121  1  0  0  0
 50 51  1  0  0  0
 50122  1  0  0  0
 50123  1  0  0  0
 51 52  1  0  0  0
 51124  1  0  0  0
 51125  1  0  0  0
 52126  1  0  0  0
 52127  1  0  0  0
 53 54  1  0  0  0
 54 55  2  0  0  0
 54128  1  0  0  0
 55 57  1  0  0  0
 55129  1  0  0  0
 56 69  2  0  0  0
 57 58  2  0  0  0
 57130  1  0  0  0
 58131  1  0  0  0
 59 60  1  0  0  0
 59 61  1  0  0  0
 59 62  1  0  0  0
 60132  1  0  0  0
 60133  1  0  0  0
 60134  1  0  0  0
 61135  1  0  0  0
 61136  1  0  0  0
 61137  1  0  0  0
 62138  1  0  0  0
 62139  1  0  0  0
 62140  1  0  0  0
 63 65  1  0  0  0
 63141  1  0  0  0
 63142  1  0  0  0
 63143  1  0  0  0
 64144  1  0  0  0
 65145  1  0  0  0
 68 82  1  0  0  0
 71 72  2  0  0  0
 71 76  1  0  0  0
 71146  1  0  0  0
 72 77  1  0  0  0
 72147  1  0  0  0
 73 75  1  0  0  0
 73 80  2  0  0  0
 73148  1  0  0  0
 74 76  2  0  0  0
 74 78  1  0  0  0
 74149  1  0  0  0
 75 79  2  0  0  0
 75 82  1  0  0  0
 76 83  1  0  0  0
 77 78  2  0  0  0
 77 85  1  0  0  0
 78 84  1  0  0  0
 79 81  1  0  0  0
 79 83  1  0  0  0
 80 83  1  0  0  0
 80 86  1  0  0  0
 81150  1  0  0  0
 81151  1  0  0  0
 81152  1  0  0  0
 82153  1  0  0  0
 82154  1  0  0  0
 84155  1  0  0  0
 84156  1  0  0  0
 85157  1  0  0  0
 86158  1  0  0  0
M  ISO  4   1 100  68 101  82 101  85 100
M  END
> <chiral flag>
0

> <version>
0

> <s_m_source_file>
/data/baiqing/PycharmProjects/Reinvent-master-3.2/result/LINK_invent/BTK/process_docking_weight1_custom_product_contain_oxygen_bond_distance_aromatic_linkinvent_7_9_3/rearranged_h_0091.sdf

> <i_m_source_file_index>
45

> <r_mmod_Potential_Energy-OPLS-2005>
-15.6943712234497

> <r_mmod_Stretch_Energy-OPLS-2005>
82.7967071533203

> <r_mmod_Bend_Energy-OPLS-2005>
139.677734375

> <r_mmod_Torsional_Energy-OPLS-2005>
267.222412109375

> <r_mmod_Improper_Torsional_Energy-OPLS-2005>
11.4124870300293

> <r_mmod_Van_der_Waal_Energy-OPLS-2005>
139.330810546875

> <r_mmod_Electrostatic_Energy-OPLS-2005>
-497.172180175781

> <r_mmod_Solvation_Energy-OPLS-2005>
-218.963088989258

> <b_mmod_Minimization_Converged-OPLS-2005>
0

> <r_mmod_RMS_Derivative-OPLS-2005>
0.381087392568588

$$$$
45
                    3D
 Structure written by MMmdl.
154162  0  0  1  0            999 V2000
  -30.6533  -14.6730   20.5559 C   0  0  0  0  0  0
  -30.4278  -12.4303   19.4819 C   0  0  0  0  0  0
  -29.5142  -12.5084   18.2426 C   0  0  0  0  0  0
  -28.0322  -12.3580   18.6375 C   0  0  0  0  0  0
  -27.6425  -13.2335   19.8575 C   0  0  2  0  0  0
  -28.6785  -13.1349   20.9964 C   0  0  0  0  0  0
  -25.2499  -13.8219   20.5722 C   0  0  0  0  0  0
  -24.1802  -13.0448   20.9242 C   0  0  0  0  0  0
  -24.6394  -11.6935   20.8744 C   0  0  0  0  0  0
  -23.9074  -10.4319   21.0406 C   0  0  0  0  0  0
  -24.3643   -9.4222   21.9153 C   0  0  0  0  0  0
  -23.6304   -8.2275   22.0731 C   0  0  0  0  0  0
  -22.4288   -8.0311   21.3543 C   0  0  0  0  0  0
  -21.9903   -9.0304   20.4683 C   0  0  0  0  0  0
  -22.7248  -10.2160   20.3052 C   0  0  0  0  0  0
  -21.6858   -6.0739   22.5286 C   0  0  0  0  0  0
  -21.4028   -6.5650   23.8218 C   0  0  0  0  0  0
  -21.3646   -5.6805   24.9177 C   0  0  0  0  0  0
  -21.6031   -4.3069   24.7243 C   0  0  0  0  0  0
  -21.8808   -3.8154   23.4371 C   0  0  0  0  0  0
  -21.9200   -4.6958   22.3420 C   0  0  0  0  0  0
  -22.7826  -13.5199   21.1933 C   0  0  0  0  0  0
  -22.1670   -4.2147   21.0995 F   0  0  0  0  0  0
  -21.5607   -3.4550   25.7757 F   0  0  0  0  0  0
  -29.9895  -13.4749   20.4300 N   0  0  0  0  0  0
  -26.2932  -12.9425   20.3268 N   0  0  0  0  0  0
  -25.9308  -11.6571   20.5707 N   0  0  0  0  0  0
  -22.0552  -12.8237   22.0591 N   0  0  0  0  0  0
  -25.4163  -15.1940   20.4145 N   0  0  0  0  0  0
  -31.8358  -14.7496   20.2114 O   0  0  0  0  0  0
  -21.6643   -6.8898   21.4254 O   0  0  0  0  0  0
  -22.3445  -14.5434   20.6692 O   0  0  0  0  0  0
  -24.6238  -31.8635   23.2049 C   0  0  0  0  0  0
  -25.9107  -32.4794   23.8360 C   0  0  1  0  0  0
  -27.2220  -27.3305   20.1355 C   0  0  0  0  0  0
  -25.5962  -33.8587   24.2304 N   0  0  0  0  0  0
  -23.4188  -30.4801   21.5480 C   0  0  2  0  0  0
  -24.8687  -28.9341   20.1223 C   0  0  0  0  0  0
  -22.7474  -29.4609   22.4970 C   0  0  0  0  0  0
  -18.0287  -28.1385   22.8506 C   0  0  0  0  0  0
  -24.1495  -36.7284   23.2633 C   0  0  0  0  0  0
  -25.9542  -30.7968   21.3736 C   0  0  0  0  0  0
  -26.0345  -29.4176   20.7321 C   0  0  0  0  0  0
  -27.2204  -28.6247   20.7377 C   0  0  0  0  0  0
  -26.0382  -26.8896   19.5170 C   0  0  0  0  0  0
  -24.8694  -27.6716   19.5101 C   0  0  0  0  0  0
  -23.6368  -29.8137   20.1637 C   0  0  0  0  0  0
  -25.4117  -36.3075   24.0334 C   0  0  1  0  0  0
  -20.5878  -28.3679   23.1311 C   0  0  2  0  0  0
  -20.6764  -26.9406   22.5414 C   0  0  0  0  0  0
  -19.5746  -26.6406   21.5206 C   0  0  0  0  0  0
  -18.1946  -26.7930   22.1631 C   0  0  0  0  0  0
  -19.1538  -28.8851   23.2900 C   0  0  0  0  0  0
  -18.9452  -30.1449   23.8909 C   0  0  0  0  0  0
  -17.6452  -30.6586   24.0570 C   0  0  0  0  0  0
  -25.9067  -34.9460   23.5117 C   0  0  0  0  0  0
  -16.5345  -29.9093   23.6322 C   0  0  0  0  0  0
  -16.7269  -28.6507   23.0355 C   0  0  0  0  0  0
  -26.4519  -31.6553   25.0684 C   0  0  0  0  0  0
  -25.3770  -31.3670   26.1418 C   0  0  0  0  0  0
  -27.0325  -30.2985   24.6054 C   0  0  0  0  0  0
  -27.6096  -32.4228   25.7464 C   0  0  0  0  0  0
  -27.5582  -37.1794   24.8470 C   0  0  0  0  0  0
  -21.4199  -29.3040   22.3710 N   0  0  0  0  0  0
  -26.4284  -37.3770   23.9431 N   0  0  0  0  0  0
  -24.6838  -31.0631   22.1002 N   0  0  0  0  0  0
  -23.4183  -28.8165   23.3058 O   0  0  0  0  0  0
  -28.3038  -26.4587   20.0371 O   0  0  0  0  0  0
  -26.5605  -34.8912   22.4664 O   0  0  0  0  0  0
  -23.5399  -32.1450   23.7371 O   0  0  0  0  0  0
  -27.9357  -18.0150   21.2405 C   0  0  0  0  0  0
  -29.7357  -19.6366   20.9897 C   0  0  0  0  0  0
  -27.4355  -20.4207   21.1076 C   0  0  0  0  0  0
  -29.3184  -18.2549   21.0784 C   0  0  0  0  0  0
  -27.0098  -19.0828   21.2619 C   0  0  0  0  0  0
  -28.8070  -20.7403   21.0038 C   0  0  0  0  0  0
  -28.8328  -25.8410   21.1602 C   0  0  0  0  0  0
  -30.3239  -17.0834   21.0907 C   0  0  0  0  0  0
  -29.0565  -24.5082   21.4380 C   0  0  0  0  0  0
  -28.6339  -23.3046   20.6600 C   0  0  0  0  0  0
  -25.6562  -18.8200   21.4704 N   0  0  0  0  0  0
  -29.2297  -22.1389   21.0881 N   0  0  0  0  0  0
  -29.9016  -15.7894   20.8678 N   0  0  0  0  0  0
  -31.5069  -17.3670   21.3073 O   0  0  0  0  0  0
  -27.8341  -23.3203   19.7226 O   0  0  0  0  0  0
  -29.7229  -24.2595   22.5796 O   0  0  0  0  0  0
  -31.4693  -12.5473   19.1847 H   0  0  0  0  0  0
  -30.3593  -11.4531   19.9602 H   0  0  0  0  0  0
  -29.7900  -11.7379   17.5219 H   0  0  0  0  0  0
  -29.6592  -13.4656   17.7387 H   0  0  0  0  0  0
  -27.8507  -11.3048   18.8637 H   0  0  0  0  0  0
  -27.3969  -12.5957   17.7836 H   0  0  0  0  0  0
  -27.6455  -14.2639   19.5017 H   0  0  0  0  0  0
  -28.6960  -12.1307   21.4225 H   0  0  0  0  0  0
  -28.4105  -13.8025   21.8168 H   0  0  0  0  0  0
  -25.2798   -9.5703   22.4719 H   0  0  0  0  0  0
  -24.0021   -7.4653   22.7446 H   0  0  0  0  0  0
  -21.0798   -8.8862   19.9037 H   0  0  0  0  0  0
  -22.3701  -10.9703   19.6181 H   0  0  0  0  0  0
  -21.2026   -7.6156   23.9714 H   0  0  0  0  0  0
  -21.1452   -6.0543   25.9072 H   0  0  0  0  0  0
  -22.0579   -2.7621   23.2884 H   0  0  0  0  0  0
  -22.4265  -12.0017   22.5140 H   0  0  0  0  0  0
  -21.1228  -13.1339   22.2920 H   0  0  0  0  0  0
  -24.6466  -15.8449   20.5365 H   0  0  0  0  0  0
  -26.2351  -15.6407   20.0228 H   0  0  0  0  0  0
  -26.7153  -32.5490   23.1082 H   0  0  0  0  0  0
  -25.0139  -33.9744   25.0469 H   0  0  0  0  0  0
  -22.7092  -31.2970   21.4044 H   0  0  0  0  0  0
  -23.3758  -35.9615   23.3308 H   0  0  0  0  0  0
  -24.3581  -36.8882   22.2042 H   0  0  0  0  0  0
  -23.7233  -37.6497   23.6617 H   0  0  0  0  0  0
  -26.0678  -31.5535   20.5949 H   0  0  0  0  0  0
  -26.8412  -30.8648   21.9901 H   0  0  0  0  0  0
  -28.1234  -28.9980   21.1983 H   0  0  0  0  0  0
  -26.0208  -25.9132   19.0509 H   0  0  0  0  0  0
  -23.9760  -27.2924   19.0360 H   0  0  0  0  0  0
  -23.7573  -30.5911   19.4075 H   0  0  0  0  0  0
  -22.7574  -29.2410   19.8608 H   0  0  0  0  0  0
  -25.1271  -36.1946   25.0816 H   0  0  0  0  0  0
  -20.9953  -28.3241   24.1431 H   0  0  0  0  0  0
  -20.5693  -26.2276   23.3606 H   0  0  0  0  0  0
  -21.6646  -26.7468   22.1190 H   0  0  0  0  0  0
  -19.6941  -25.6335   21.1228 H   0  0  0  0  0  0
  -19.6689  -27.3225   20.6753 H   0  0  0  0  0  0
  -17.4200  -26.6677   21.4040 H   0  0  0  0  0  0
  -18.0351  -26.0044   22.9007 H   0  0  0  0  0  0
  -19.7919  -30.7272   24.2286 H   0  0  0  0  0  0
  -17.5002  -31.6267   24.5173 H   0  0  0  0  0  0
  -15.5350  -30.3003   23.7629 H   0  0  0  0  0  0
  -15.8667  -28.0834   22.7056 H   0  0  0  0  0  0
  -24.5972  -30.6975   25.7755 H   0  0  0  0  0  0
  -24.8934  -32.2829   26.4823 H   0  0  0  0  0  0
  -25.8146  -30.8885   27.0199 H   0  0  0  0  0  0
  -26.2869  -29.6770   24.1078 H   0  0  0  0  0  0
  -27.4066  -29.7166   25.4493 H   0  0  0  0  0  0
  -27.8718  -30.4287   23.9212 H   0  0  0  0  0  0
  -27.2755  -33.3528   26.2081 H   0  0  0  0  0  0
  -28.3925  -32.6796   25.0304 H   0  0  0  0  0  0
  -28.0752  -31.8310   26.5359 H   0  0  0  0  0  0
  -28.2588  -38.0101   24.7518 H   0  0  0  0  0  0
  -28.1087  -36.2636   24.6282 H   0  0  0  0  0  0
  -27.2309  -37.1416   25.8872 H   0  0  0  0  0  0
  -20.9373  -29.8719   21.6898 H   0  0  0  0  0  0
  -26.0187  -38.2849   24.1438 H   0  0  0  0  0  0
  -27.5812  -17.0024   21.3724 H   0  0  0  0  0  0
  -30.7935  -19.8515   20.9212 H   0  0  0  0  0  0
  -26.7030  -21.2162   21.1482 H   0  0  0  0  0  0
  -29.1421  -26.6029   21.8631 H   0  0  0  0  0  0
  -25.3958  -18.0031   22.0189 H   0  0  0  0  0  0
  -25.0299  -19.6054   21.6287 H   0  0  0  0  0  0
  -29.9890  -22.3256   21.7294 H   0  0  0  0  0  0
  -28.9074  -15.6495   20.8835 H   0  0  0  0  0  0
  -29.9327  -25.0951   22.9759 H   0  0  0  0  0  0
  1 25  1  0  0  0
  1 30  2  0  0  0
  1 83  1  0  0  0
  2  3  1  0  0  0
  2 25  1  0  0  0
  2 87  1  0  0  0
  2 88  1  0  0  0
  3  4  1  0  0  0
  3 89  1  0  0  0
  3 90  1  0  0  0
  4  5  1  0  0  0
  4 91  1  0  0  0
  4 92  1  0  0  0
  5  6  1  0  0  0
  5 26  1  0  0  0
  5 93  1  0  0  0
  6 25  1  0  0  0
  6 94  1  0  0  0
  6 95  1  0  0  0
  7  8  2  0  0  0
  7 26  1  0  0  0
  7 29  1  0  0  0
  8  9  1  0  0  0
  8 22  1  0  0  0
  9 10  1  0  0  0
  9 27  2  0  0  0
 10 11  2  0  0  0
 10 15  1  0  0  0
 11 12  1  0  0  0
 11 96  1  0  0  0
 12 13  2  0  0  0
 12 97  1  0  0  0
 13 14  1  0  0  0
 13 31  1  0  0  0
 14 15  2  0  0  0
 14 98  1  0  0  0
 15 99  1  0  0  0
 16 17  2  0  0  0
 16 21  1  0  0  0
 16 31  1  0  0  0
 17 18  1  0  0  0
 17100  1  0  0  0
 18 19  2  0  0  0
 18101  1  0  0  0
 19 20  1  0  0  0
 19 24  1  0  0  0
 20 21  2  0  0  0
 20102  1  0  0  0
 21 23  1  0  0  0
 22 28  1  0  0  0
 22 32  2  0  0  0
 26 27  1  0  0  0
 28103  1  0  0  0
 28104  1  0  0  0
 29105  1  0  0  0
 29106  1  0  0  0
 33 34  1  0  0  0
 33 66  1  0  0  0
 33 70  2  0  0  0
 34 36  1  0  0  0
 34 59  1  0  0  0
 34107  1  0  0  0
 35 44  2  0  0  0
 35 45  1  0  0  0
 35 68  1  0  0  0
 36 56  1  0  0  0
 36108  1  0  0  0
 37 39  1  0  0  0
 37 47  1  0  0  0
 37 66  1  0  0  0
 37109  1  0  0  0
 38 43  2  0  0  0
 38 46  1  0  0  0
 38 47  1  0  0  0
 39 64  1  0  0  0
 39 67  2  0  0  0
 40 52  1  0  0  0
 40 53  2  0  0  0
 40 58  1  0  0  0
 41110  1  0  0  0
 41111  1  0  0  0
 41112  1  0  0  0
 41 48  1  0  0  0
 42 43  1  0  0  0
 42 66  1  0  0  0
 42113  1  0  0  0
 42114  1  0  0  0
 43 44  1  0  0  0
 44115  1  0  0  0
 45 46  2  0  0  0
 45116  1  0  0  0
 46117  1  0  0  0
 47118  1  0  0  0
 47119  1  0  0  0
 48 56  1  0  0  0
 48 65  1  0  0  0
 48120  1  0  0  0
 49 50  1  0  0  0
 49 53  1  0  0  0
 49 64  1  0  0  0
 49121  1  0  0  0
 50 51  1  0  0  0
 50122  1  0  0  0
 50123  1  0  0  0
 51 52  1  0  0  0
 51124  1  0  0  0
 51125  1  0  0  0
 52126  1  0  0  0
 52127  1  0  0  0
 53 54  1  0  0  0
 54 55  2  0  0  0
 54128  1  0  0  0
 55 57  1  0  0  0
 55129  1  0  0  0
 56 69  2  0  0  0
 57 58  2  0  0  0
 57130  1  0  0  0
 58131  1  0  0  0
 59 60  1  0  0  0
 59 61  1  0  0  0
 59 62  1  0  0  0
 60132  1  0  0  0
 60133  1  0  0  0
 60134  1  0  0  0
 61135  1  0  0  0
 61136  1  0  0  0
 61137  1  0  0  0
 62138  1  0  0  0
 62139  1  0  0  0
 62140  1  0  0  0
 63 65  1  0  0  0
 63141  1  0  0  0
 63142  1  0  0  0
 63143  1  0  0  0
 64144  1  0  0  0
 65145  1  0  0  0
 68 77  1  0  0  0
 71 74  2  0  0  0
 71 75  1  0  0  0
 71146  1  0  0  0
 72 74  1  0  0  0
 72 76  2  0  0  0
 72147  1  0  0  0
 73 75  2  0  0  0
 73 76  1  0  0  0
 73148  1  0  0  0
 74 78  1  0  0  0
 75 81  1  0  0  0
 76 82  1  0  0  0
 77 79  2  0  0  0
 77149  1  0  0  0
 78 83  1  0  0  0
 78 84  2  0  0  0
 79 80  1  0  0  0
 79 86  1  0  0  0
 80 82  1  0  0  0
 80 85  2  0  0  0
 81150  1  0  0  0
 81151  1  0  0  0
 82152  1  0  0  0
 83153  1  0  0  0
 86154  1  0  0  0
M  ISO  4   1 100  68 101  77 101  83 100
M  END
> <chiral flag>
0

> <version>
0

> <s_m_source_file>
/data/baiqing/PycharmProjects/Reinvent-master-3.2/result/LINK_invent/BTK/process_docking_weight1_custom_product_contain_oxygen_bond_distance_aromatic_linkinvent_7_9_3/rearranged_h_0091.sdf

> <i_m_source_file_index>
46

> <r_mmod_Potential_Energy-OPLS-2005>
-71.8231201171875

> <r_mmod_Stretch_Energy-OPLS-2005>
76.087028503418

> <r_mmod_Bend_Energy-OPLS-2005>
150.742416381836

> <r_mmod_Torsional_Energy-OPLS-2005>
257.508666992188

> <r_mmod_Improper_Torsional_Energy-OPLS-2005>
9.68522644042969

> <r_mmod_Van_der_Waal_Energy-OPLS-2005>
143.248306274414

> <r_mmod_Electrostatic_Energy-OPLS-2005>
-506.509368896484

> <r_mmod_Solvation_Energy-OPLS-2005>
-256.962280273438

> <b_mmod_Minimization_Converged-OPLS-2005>
0

> <r_mmod_RMS_Derivative-OPLS-2005>
4.70310497283936

$$$$
46
                    3D
 Structure written by MMmdl.
159168  0  0  1  0            999 V2000
  -30.6888  -14.6522   20.5708 C   0  0  0  0  0  0
  -30.4251  -12.4223   19.4605 C   0  0  0  0  0  0
  -29.5054  -12.5251   18.2260 C   0  0  0  0  0  0
  -28.0305  -12.3504   18.6342 C   0  0  0  0  0  0
  -27.6479  -13.2284   19.8537 C   0  0  2  0  0  0
  -28.6867  -13.1126   20.9864 C   0  0  0  0  0  0
  -25.2531  -13.8188   20.5693 C   0  0  0  0  0  0
  -24.1801  -13.0439   20.9165 C   0  0  0  0  0  0
  -24.6386  -11.6915   20.8706 C   0  0  0  0  0  0
  -23.9058  -10.4293   21.0386 C   0  0  0  0  0  0
  -24.3613   -9.4215   21.9170 C   0  0  0  0  0  0
  -23.6289   -8.2247   22.0753 C   0  0  0  0  0  0
  -22.4268   -8.0282   21.3547 C   0  0  0  0  0  0
  -21.9901   -9.0250   20.4646 C   0  0  0  0  0  0
  -22.7225  -10.2129   20.3042 C   0  0  0  0  0  0
  -21.6854   -6.0731   22.5280 C   0  0  0  0  0  0
  -21.4009   -6.5633   23.8213 C   0  0  0  0  0  0
  -21.3657   -5.6787   24.9175 C   0  0  0  0  0  0
  -21.6049   -4.3051   24.7223 C   0  0  0  0  0  0
  -21.8821   -3.8143   23.4344 C   0  0  0  0  0  0
  -21.9195   -4.6960   22.3400 C   0  0  0  0  0  0
  -22.7828  -13.5231   21.1849 C   0  0  0  0  0  0
  -22.1666   -4.2145   21.0979 F   0  0  0  0  0  0
  -21.5631   -3.4533   25.7735 F   0  0  0  0  0  0
  -30.0091  -13.4579   20.4353 N   0  0  0  0  0  0
  -26.2964  -12.9395   20.3277 N   0  0  0  0  0  0
  -25.9318  -11.6536   20.5711 N   0  0  0  0  0  0
  -22.0490  -12.8218   22.0414 N   0  0  0  0  0  0
  -25.4234  -15.1914   20.4203 N   0  0  0  0  0  0
  -31.7870  -14.7986   20.0251 O   0  0  0  0  0  0
  -21.6640   -6.8874   21.4241 O   0  0  0  0  0  0
  -22.3503  -14.5536   20.6704 O   0  0  0  0  0  0
  -24.6292  -31.8595   23.2038 C   0  0  0  0  0  0
  -25.9133  -32.4775   23.8360 C   0  0  1  0  0  0
  -27.2130  -27.2926   20.1089 C   0  0  0  0  0  0
  -25.5943  -33.8572   24.2283 N   0  0  0  0  0  0
  -23.4233  -30.4883   21.5480 C   0  0  2  0  0  0
  -24.8670  -28.9491   20.1094 C   0  0  0  0  0  0
  -22.7488  -29.4633   22.4927 C   0  0  0  0  0  0
  -18.0291  -28.1396   22.8491 C   0  0  0  0  0  0
  -24.1473  -36.7257   23.2642 C   0  0  0  0  0  0
  -25.9695  -30.7830   21.3800 C   0  0  0  0  0  0
  -26.0418  -29.4107   20.7175 C   0  0  0  0  0  0
  -27.2184  -28.5949   20.7097 C   0  0  0  0  0  0
  -26.0100  -26.9058   19.4664 C   0  0  0  0  0  0
  -24.8552  -27.7023   19.4755 C   0  0  0  0  0  0
  -23.6383  -29.8326   20.1614 C   0  0  0  0  0  0
  -25.4105  -36.3067   24.0329 C   0  0  1  0  0  0
  -20.5897  -28.3690   23.1276 C   0  0  2  0  0  0
  -20.6766  -26.9406   22.5423 C   0  0  0  0  0  0
  -19.5743  -26.6398   21.5215 C   0  0  0  0  0  0
  -18.1923  -26.7945   22.1618 C   0  0  0  0  0  0
  -19.1549  -28.8860   23.2882 C   0  0  0  0  0  0
  -18.9469  -30.1465   23.8899 C   0  0  0  0  0  0
  -17.6468  -30.6594   24.0576 C   0  0  0  0  0  0
  -25.9052  -34.9443   23.5106 C   0  0  0  0  0  0
  -16.5357  -29.9091   23.6356 C   0  0  0  0  0  0
  -16.7278  -28.6512   23.0369 C   0  0  0  0  0  0
  -26.4499  -31.6586   25.0733 C   0  0  0  0  0  0
  -25.3715  -31.3747   26.1454 C   0  0  0  0  0  0
  -27.0331  -30.3003   24.6201 C   0  0  0  0  0  0
  -27.6076  -32.4302   25.7501 C   0  0  0  0  0  0
  -27.5571  -37.1784   24.8464 C   0  0  0  0  0  0
  -21.4199  -29.3036   22.3657 N   0  0  0  0  0  0
  -26.4269  -37.3776   23.9423 N   0  0  0  0  0  0
  -24.6936  -31.0595   22.1005 N   0  0  0  0  0  0
  -23.4199  -28.8164   23.3013 O   0  0  0  0  0  0
  -28.3003  -26.3891   20.1651 O   0  0  0  0  0  0
  -26.5621  -34.8917   22.4669 O   0  0  0  0  0  0
  -23.5452  -32.1401   23.7356 O   0  0  0  0  0  0
  -30.8557  -19.2839   20.0737 C   0  0  0  0  0  0
  -30.9722  -17.8684   20.2586 C   0  0  0  0  0  0
  -28.6721  -19.2440   21.0408 C   0  0  0  0  0  0
  -29.7187  -20.0446   20.4944 C   0  0  0  0  0  0
  -29.9541  -17.0907   20.8782 C   0  0  0  0  0  0
  -28.7829  -17.8284   21.2277 C   0  0  0  0  0  0
  -30.2783  -23.7423   20.4592 C   0  0  0  0  0  0
  -28.9637  -23.7549   20.2157 C   0  0  0  0  0  0
  -30.7284  -22.3601   20.5920 C   0  0  0  0  0  0
  -28.5593  -22.3304   20.1951 C   0  0  0  0  0  0
  -30.4560  -14.4976   23.4819 C   0  0  0  0  0  0
  -30.1020  -15.5594   22.7285 C   0  0  0  0  0  0
  -31.2309  -24.9230   20.5539 C   0  0  0  0  0  0
  -27.9774  -24.9484   19.9197 C   0  0  0  0  0  0
  -29.6597  -21.5399   20.4131 N   0  0  0  0  0  0
  -30.1368  -15.6818   21.3163 N   0  0  0  0  0  0
  -31.8863  -21.9996   20.8349 O   0  0  0  0  0  0
  -27.4157  -21.9028   19.9980 O   0  0  0  0  0  0
  -27.7465  -17.1738   21.8056 F   0  0  0  0  0  0
  -31.4689  -12.5256   19.1613 H   0  0  0  0  0  0
  -30.3479  -11.4317   19.9119 H   0  0  0  0  0  0
  -29.7788  -11.7721   17.4857 H   0  0  0  0  0  0
  -29.6433  -13.4944   17.7437 H   0  0  0  0  0  0
  -27.8761  -11.2977   18.8742 H   0  0  0  0  0  0
  -27.3751  -12.5674   17.7898 H   0  0  0  0  0  0
  -27.6586  -14.2616   19.5048 H   0  0  0  0  0  0
  -28.7029  -12.1020   21.3975 H   0  0  0  0  0  0
  -28.3913  -13.7637   21.8065 H   0  0  0  0  0  0
  -25.2763   -9.5695   22.4733 H   0  0  0  0  0  0
  -24.0006   -7.4645   22.7469 H   0  0  0  0  0  0
  -21.0837   -8.8760   19.8956 H   0  0  0  0  0  0
  -22.3681  -10.9660   19.6142 H   0  0  0  0  0  0
  -21.1990   -7.6139   23.9710 H   0  0  0  0  0  0
  -21.1480   -6.0517   25.9077 H   0  0  0  0  0  0
  -22.0597   -2.7605   23.2843 H   0  0  0  0  0  0
  -22.4127  -11.9882   22.4791 H   0  0  0  0  0  0
  -21.1118  -13.1248   22.2656 H   0  0  0  0  0  0
  -24.6692  -15.8494   20.5796 H   0  0  0  0  0  0
  -26.3117  -15.6436   20.2427 H   0  0  0  0  0  0
  -26.7197  -32.5442   23.1104 H   0  0  0  0  0  0
  -25.0073  -33.9703   25.0419 H   0  0  0  0  0  0
  -22.7203  -31.3125   21.4100 H   0  0  0  0  0  0
  -23.3749  -35.9575   23.3305 H   0  0  0  0  0  0
  -24.3561  -36.8873   22.2056 H   0  0  0  0  0  0
  -23.7199  -37.6448   23.6663 H   0  0  0  0  0  0
  -26.1057  -31.5487   20.6150 H   0  0  0  0  0  0
  -26.8480  -30.8288   22.0118 H   0  0  0  0  0  0
  -28.1148  -28.9441   21.2030 H   0  0  0  0  0  0
  -25.9106  -25.9628   18.9526 H   0  0  0  0  0  0
  -23.9562  -27.3447   18.9910 H   0  0  0  0  0  0
  -23.7599  -30.6132   19.4094 H   0  0  0  0  0  0
  -22.7556  -29.2675   19.8565 H   0  0  0  0  0  0
  -25.1282  -36.1914   25.0819 H   0  0  0  0  0  0
  -21.0011  -28.3271   24.1385 H   0  0  0  0  0  0
  -20.5638  -26.2299   23.3627 H   0  0  0  0  0  0
  -21.6638  -26.7415   22.1240 H   0  0  0  0  0  0
  -19.6895  -25.6309   21.1244 H   0  0  0  0  0  0
  -19.6699  -27.3213   20.6747 H   0  0  0  0  0  0
  -17.4207  -26.6724   21.4001 H   0  0  0  0  0  0
  -18.0298  -26.0079   22.9002 H   0  0  0  0  0  0
  -19.7944  -30.7286   24.2265 H   0  0  0  0  0  0
  -17.5024  -31.6272   24.5177 H   0  0  0  0  0  0
  -15.5357  -30.2988   23.7687 H   0  0  0  0  0  0
  -15.8677  -28.0831   22.7088 H   0  0  0  0  0  0
  -24.5973  -30.6973   25.7826 H   0  0  0  0  0  0
  -24.8785  -32.2899   26.4742 H   0  0  0  0  0  0
  -25.8045  -30.9084   27.0312 H   0  0  0  0  0  0
  -26.2902  -29.6763   24.1217 H   0  0  0  0  0  0
  -27.4002  -29.7257   25.4715 H   0  0  0  0  0  0
  -27.8791  -30.4271   23.9441 H   0  0  0  0  0  0
  -27.2727  -33.3623   26.2065 H   0  0  0  0  0  0
  -28.3905  -32.6819   25.0332 H   0  0  0  0  0  0
  -28.0721  -31.8414   26.5422 H   0  0  0  0  0  0
  -28.2612  -38.0063   24.7523 H   0  0  0  0  0  0
  -28.1044  -36.2603   24.6276 H   0  0  0  0  0  0
  -27.2299  -37.1424   25.8870 H   0  0  0  0  0  0
  -20.9377  -29.8742   21.6855 H   0  0  0  0  0  0
  -26.0145  -38.2838   24.1469 H   0  0  0  0  0  0
  -31.6986  -19.7900   19.6234 H   0  0  0  0  0  0
  -31.9014  -17.3957   19.9727 H   0  0  0  0  0  0
  -27.7627  -19.7170   21.3805 H   0  0  0  0  0  0
  -30.3816  -14.5508   24.5586 H   0  0  0  0  0  0
  -30.8219  -13.5677   23.0717 H   0  0  0  0  0  0
  -29.7537  -16.4503   23.2328 H   0  0  0  0  0  0
  -30.7210  -25.8740   20.4130 H   0  0  0  0  0  0
  -32.0080  -24.8421   19.7933 H   0  0  0  0  0  0
  -31.7121  -24.9389   21.5319 H   0  0  0  0  0  0
  -27.0741  -24.7075   20.4832 H   0  0  0  0  0  0
  -27.7320  -24.8406   18.8626 H   0  0  0  0  0  0
  1 25  1  0  0  0
  1 30  2  0  0  0
  1 86  1  0  0  0
  2  3  1  0  0  0
  2 25  1  0  0  0
  2 90  1  0  0  0
  2 91  1  0  0  0
  3  4  1  0  0  0
  3 92  1  0  0  0
  3 93  1  0  0  0
  4  5  1  0  0  0
  4 94  1  0  0  0
  4 95  1  0  0  0
  5  6  1  0  0  0
  5 26  1  0  0  0
  5 96  1  0  0  0
  6 25  1  0  0  0
  6 97  1  0  0  0
  6 98  1  0  0  0
  7  8  2  0  0  0
  7 26  1  0  0  0
  7 29  1  0  0  0
  8  9  1  0  0  0
  8 22  1  0  0  0
  9 10  1  0  0  0
  9 27  2  0  0  0
 10 11  2  0  0  0
 10 15  1  0  0  0
 11 12  1  0  0  0
 11 99  1  0  0  0
 12 13  2  0  0  0
 12100  1  0  0  0
 13 14  1  0  0  0
 13 31  1  0  0  0
 14 15  2  0  0  0
 14101  1  0  0  0
 15102  1  0  0  0
 16 17  2  0  0  0
 16 21  1  0  0  0
 16 31  1  0  0  0
 17 18  1  0  0  0
 17103  1  0  0  0
 18 19  2  0  0  0
 18104  1  0  0  0
 19 20  1  0  0  0
 19 24  1  0  0  0
 20 21  2  0  0  0
 20105  1  0  0  0
 21 23  1  0  0  0
 22 28  1  0  0  0
 22 32  2  0  0  0
 26 27  1  0  0  0
 28106  1  0  0  0
 28107  1  0  0  0
 29108  1  0  0  0
 29109  1  0  0  0
 33 34  1  0  0  0
 33 66  1  0  0  0
 33 70  2  0  0  0
 34 36  1  0  0  0
 34 59  1  0  0  0
 34110  1  0  0  0
 35 44  2  0  0  0
 35 45  1  0  0  0
 35 68  1  0  0  0
 36 56  1  0  0  0
 36111  1  0  0  0
 37 39  1  0  0  0
 37 47  1  0  0  0
 37 66  1  0  0  0
 37112  1  0  0  0
 38 43  2  0  0  0
 38 46  1  0  0  0
 38 47  1  0  0  0
 39 64  1  0  0  0
 39 67  2  0  0  0
 40 52  1  0  0  0
 40 53  2  0  0  0
 40 58  1  0  0  0
 41113  1  0  0  0
 41114  1  0  0  0
 41115  1  0  0  0
 41 48  1  0  0  0
 42 43  1  0  0  0
 42 66  1  0  0  0
 42116  1  0  0  0
 42117  1  0  0  0
 43 44  1  0  0  0
 44118  1  0  0  0
 45 46  2  0  0  0
 45119  1  0  0  0
 46120  1  0  0  0
 47121  1  0  0  0
 47122  1  0  0  0
 48 56  1  0  0  0
 48 65  1  0  0  0
 48123  1  0  0  0
 49 50  1  0  0  0
 49 53  1  0  0  0
 49 64  1  0  0  0
 49124  1  0  0  0
 50 51  1  0  0  0
 50125  1  0  0  0
 50126  1  0  0  0
 51 52  1  0  0  0
 51127  1  0  0  0
 51128  1  0  0  0
 52129  1  0  0  0
 52130  1  0  0  0
 53 54  1  0  0  0
 54 55  2  0  0  0
 54131  1  0  0  0
 55 57  1  0  0  0
 55132  1  0  0  0
 56 69  2  0  0  0
 57 58  2  0  0  0
 57133  1  0  0  0
 58134  1  0  0  0
 59 60  1  0  0  0
 59 61  1  0  0  0
 59 62  1  0  0  0
 60135  1  0  0  0
 60136  1  0  0  0
 60137  1  0  0  0
 61138  1  0  0  0
 61139  1  0  0  0
 61140  1  0  0  0
 62141  1  0  0  0
 62142  1  0  0  0
 62143  1  0  0  0
 63 65  1  0  0  0
 63144  1  0  0  0
 63145  1  0  0  0
 63146  1  0  0  0
 64147  1  0  0  0
 65148  1  0  0  0
 68 84  1  0  0  0
 71 72  2  0  0  0
 71 74  1  0  0  0
 71149  1  0  0  0
 72 75  1  0  0  0
 72150  1  0  0  0
 73 74  2  0  0  0
 73 76  1  0  0  0
 73151  1  0  0  0
 74 85  1  0  0  0
 75 76  2  0  0  0
 75 86  1  0  0  0
 76 89  1  0  0  0
 77 78  2  0  0  0
 77 79  1  0  0  0
 77 83  1  0  0  0
 78 80  1  0  0  0
 78 84  1  0  0  0
 79 85  1  0  0  0
 79 87  2  0  0  0
 80 85  1  0  0  0
 80 88  2  0  0  0
 81 82  2  0  0  0
 81152  1  0  0  0
 81153  1  0  0  0
 82 86  1  0  0  0
 82154  1  0  0  0
 83155  1  0  0  0
 83156  1  0  0  0
 83157  1  0  0  0
 84158  1  0  0  0
 84159  1  0  0  0
M  ISO  4   1 100  68 101  84 101  86 100
M  END
> <chiral flag>
0

> <version>
0

> <s_m_source_file>
/data/baiqing/PycharmProjects/Reinvent-master-3.2/result/LINK_invent/BTK/process_docking_weight1_custom_product_contain_oxygen_bond_distance_aromatic_linkinvent_7_9_3/rearranged_h_0091.sdf

> <i_m_source_file_index>
47

> <r_mmod_Potential_Energy-OPLS-2005>
349.768646240234

> <r_mmod_Stretch_Energy-OPLS-2005>
106.922416687012

> <r_mmod_Bend_Energy-OPLS-2005>
200.84147644043

> <r_mmod_Torsional_Energy-OPLS-2005>
315.853790283203

> <r_mmod_Improper_Torsional_Energy-OPLS-2005>
3.82344889640808

> <r_mmod_Van_der_Waal_Energy-OPLS-2005>
160.996276855469

> <r_mmod_Electrostatic_Energy-OPLS-2005>
-294.889007568359

> <r_mmod_Solvation_Energy-OPLS-2005>
-202.559494018555

> <b_mmod_Minimization_Converged-OPLS-2005>
0

> <r_mmod_RMS_Derivative-OPLS-2005>
1.25624203681946

$$$$
47
                    3D
 Structure written by MMmdl.
155163  0  0  1  0            999 V2000
  -30.7052  -14.6557   20.4671 C   0  0  0  0  0  0
  -30.4058  -12.4019   19.4660 C   0  0  0  0  0  0
  -29.4947  -12.4948   18.2269 C   0  0  0  0  0  0
  -28.0212  -12.3383   18.6432 C   0  0  0  0  0  0
  -27.6393  -13.2385   19.8496 C   0  0  2  0  0  0
  -28.6875  -13.1800   20.9830 C   0  0  0  0  0  0
  -25.2491  -13.8222   20.5719 C   0  0  0  0  0  0
  -24.1785  -13.0449   20.9201 C   0  0  0  0  0  0
  -24.6395  -11.6932   20.8750 C   0  0  0  0  0  0
  -23.9078  -10.4299   21.0404 C   0  0  0  0  0  0
  -24.3626   -9.4215   21.9181 C   0  0  0  0  0  0
  -23.6301   -8.2249   22.0753 C   0  0  0  0  0  0
  -22.4281   -8.0287   21.3545 C   0  0  0  0  0  0
  -21.9917   -9.0259   20.4645 C   0  0  0  0  0  0
  -22.7250  -10.2136   20.3051 C   0  0  0  0  0  0
  -21.6857   -6.0739   22.5278 C   0  0  0  0  0  0
  -21.4016   -6.5644   23.8211 C   0  0  0  0  0  0
  -21.3660   -5.6794   24.9173 C   0  0  0  0  0  0
  -21.6043   -4.3056   24.7224 C   0  0  0  0  0  0
  -21.8819   -3.8148   23.4346 C   0  0  0  0  0  0
  -21.9195   -4.6965   22.3403 C   0  0  0  0  0  0
  -22.7805  -13.5217   21.1864 C   0  0  0  0  0  0
  -22.1662   -4.2152   21.0981 F   0  0  0  0  0  0
  -21.5629   -3.4539   25.7735 F   0  0  0  0  0  0
  -29.9940  -13.4831   20.3897 N   0  0  0  0  0  0
  -26.2935  -12.9450   20.3320 N   0  0  0  0  0  0
  -25.9332  -11.6581   20.5778 N   0  0  0  0  0  0
  -22.0462  -12.8197   22.0421 N   0  0  0  0  0  0
  -25.4166  -15.1949   20.4183 N   0  0  0  0  0  0
  -31.8998  -14.6267   20.1636 O   0  0  0  0  0  0
  -21.6647   -6.8882   21.4240 O   0  0  0  0  0  0
  -22.3477  -14.5522   20.6720 O   0  0  0  0  0  0
  -24.6260  -31.8599   23.2040 C   0  0  0  0  0  0
  -25.9113  -32.4778   23.8362 C   0  0  1  0  0  0
  -27.2107  -27.3219   20.1231 C   0  0  0  0  0  0
  -25.5935  -33.8578   24.2293 N   0  0  0  0  0  0
  -23.4189  -30.4849   21.5463 C   0  0  2  0  0  0
  -24.8646  -28.9428   20.1085 C   0  0  0  0  0  0
  -22.7471  -29.4629   22.4941 C   0  0  0  0  0  0
  -18.0285  -28.1385   22.8492 C   0  0  0  0  0  0
  -24.1490  -36.7287   23.2639 C   0  0  0  0  0  0
  -25.9600  -30.7925   21.3743 C   0  0  0  0  0  0
  -26.0340  -29.4210   20.7158 C   0  0  0  0  0  0
  -27.2151  -28.6213   20.7141 C   0  0  0  0  0  0
  -26.0288  -26.9012   19.4784 C   0  0  0  0  0  0
  -24.8635  -27.6884   19.4793 C   0  0  0  0  0  0
  -23.6326  -29.8219   20.1604 C   0  0  0  0  0  0
  -25.4113  -36.3080   24.0336 C   0  0  1  0  0  0
  -20.5885  -28.3688   23.1288 C   0  0  2  0  0  0
  -20.6776  -26.9413   22.5412 C   0  0  0  0  0  0
  -19.5752  -26.6385   21.5216 C   0  0  0  0  0  0
  -18.1931  -26.7932   22.1624 C   0  0  0  0  0  0
  -19.1538  -28.8854   23.2886 C   0  0  0  0  0  0
  -18.9458  -30.1459   23.8898 C   0  0  0  0  0  0
  -17.6458  -30.6588   24.0565 C   0  0  0  0  0  0
  -25.9049  -34.9450   23.5110 C   0  0  0  0  0  0
  -16.5348  -29.9086   23.6337 C   0  0  0  0  0  0
  -16.7272  -28.6503   23.0358 C   0  0  0  0  0  0
  -26.4504  -31.6583   25.0726 C   0  0  0  0  0  0
  -25.3745  -31.3711   26.1457 C   0  0  0  0  0  0
  -27.0344  -30.3008   24.6173 C   0  0  0  0  0  0
  -27.6065  -32.4317   25.7491 C   0  0  0  0  0  0
  -27.5582  -37.1796   24.8465 C   0  0  0  0  0  0
  -21.4185  -29.3041   22.3679 N   0  0  0  0  0  0
  -26.4287  -37.3776   23.9417 N   0  0  0  0  0  0
  -24.6872  -31.0619   22.0985 N   0  0  0  0  0  0
  -23.4200  -28.8165   23.3012 O   0  0  0  0  0  0
  -28.2908  -26.4341   20.1682 O   0  0  0  0  0  0
  -26.5606  -34.8917   22.4669 O   0  0  0  0  0  0
  -23.5427  -32.1393   23.7376 O   0  0  0  0  0  0
  -30.4226  -19.5222   19.8580 C   0  0  0  0  0  0
  -29.9462  -20.8617   19.8760 C   0  0  0  0  0  0
  -29.8330  -18.4558   20.5982 C   0  0  0  0  0  0
  -28.1581  -20.1655   21.3368 C   0  0  0  0  0  0
  -28.8163  -21.2356   20.6397 C   0  0  0  0  0  0
  -28.6623  -18.8110   21.3396 C   0  0  0  0  0  0
  -30.6171  -17.1148   20.6690 C   0  0  0  0  0  0
  -28.7341  -23.8377   20.2637 C   0  0  0  0  0  0
  -26.9009  -20.4796   22.1478 C   0  0  0  0  0  0
  -27.9948  -25.1268   20.8080 C   0  0  0  0  0  0
  -28.0027  -17.8599   22.1290 N   0  0  0  0  0  0
  -28.3432  -22.6228   20.7777 N   0  0  0  0  0  0
  -30.0391  -15.8565   20.6499 N   0  0  0  0  0  0
  -31.8460  -17.2615   20.7147 O   0  0  0  0  0  0
  -29.6175  -23.9541   19.4095 O   0  0  0  0  0  0
  -31.4520  -12.4680   19.1628 H   0  0  0  0  0  0
  -30.3017  -11.4297   19.9506 H   0  0  0  0  0  0
  -29.7621  -11.7262   17.5004 H   0  0  0  0  0  0
  -29.6393  -13.4546   17.7279 H   0  0  0  0  0  0
  -27.8649  -11.2900   18.8996 H   0  0  0  0  0  0
  -27.3649  -12.5437   17.7970 H   0  0  0  0  0  0
  -27.6321  -14.2598   19.4682 H   0  0  0  0  0  0
  -28.7024  -12.1950   21.4514 H   0  0  0  0  0  0
  -28.4425  -13.8939   21.7714 H   0  0  0  0  0  0
  -25.2766   -9.5696   22.4763 H   0  0  0  0  0  0
  -24.0010   -7.4640   22.7472 H   0  0  0  0  0  0
  -21.0847   -8.8779   19.8951 H   0  0  0  0  0  0
  -22.3707  -10.9675   19.6161 H   0  0  0  0  0  0
  -21.2006   -7.6153   23.9716 H   0  0  0  0  0  0
  -21.1482   -6.0524   25.9075 H   0  0  0  0  0  0
  -22.0597   -2.7611   23.2844 H   0  0  0  0  0  0
  -22.4089  -11.9853   22.4789 H   0  0  0  0  0  0
  -21.1079  -13.1211   22.2645 H   0  0  0  0  0  0
  -24.6579  -15.8516   20.5635 H   0  0  0  0  0  0
  -26.2877  -15.6512   20.1783 H   0  0  0  0  0  0
  -26.7181  -32.5453   23.1111 H   0  0  0  0  0  0
  -25.0117  -33.9720   25.0462 H   0  0  0  0  0  0
  -22.7133  -31.3063   21.4056 H   0  0  0  0  0  0
  -23.3756  -35.9615   23.3293 H   0  0  0  0  0  0
  -24.3589  -36.8909   22.2055 H   0  0  0  0  0  0
  -23.7237  -37.6486   23.6660 H   0  0  0  0  0  0
  -26.0913  -31.5569   20.6071 H   0  0  0  0  0  0
  -26.8407  -30.8400   22.0032 H   0  0  0  0  0  0
  -28.1108  -28.9772   21.2039 H   0  0  0  0  0  0
  -25.9954  -25.9384   18.9878 H   0  0  0  0  0  0
  -23.9690  -27.3194   18.9964 H   0  0  0  0  0  0
  -23.7502  -30.6000   19.4052 H   0  0  0  0  0  0
  -22.7526  -29.2510   19.8579 H   0  0  0  0  0  0
  -25.1292  -36.1930   25.0827 H   0  0  0  0  0  0
  -20.9978  -28.3257   24.1408 H   0  0  0  0  0  0
  -20.5689  -26.2293   23.3607 H   0  0  0  0  0  0
  -21.6642  -26.7450   22.1195 H   0  0  0  0  0  0
  -19.6911  -25.6296   21.1242 H   0  0  0  0  0  0
  -19.6691  -27.3199   20.6750 H   0  0  0  0  0  0
  -17.4203  -26.6693   21.4021 H   0  0  0  0  0  0
  -18.0320  -26.0070   22.9012 H   0  0  0  0  0  0
  -19.7932  -30.7279   24.2261 H   0  0  0  0  0  0
  -17.5011  -31.6269   24.5162 H   0  0  0  0  0  0
  -15.5349  -30.2986   23.7664 H   0  0  0  0  0  0
  -15.8672  -28.0822   22.7075 H   0  0  0  0  0  0
  -24.5931  -30.7046   25.7791 H   0  0  0  0  0  0
  -24.8924  -32.2870   26.4888 H   0  0  0  0  0  0
  -25.8082  -30.8894   27.0229 H   0  0  0  0  0  0
  -26.2910  -29.6754   24.1216 H   0  0  0  0  0  0
  -27.4063  -29.7271   25.4673 H   0  0  0  0  0  0
  -27.8775  -30.4292   23.9380 H   0  0  0  0  0  0
  -27.2682  -33.3628   26.2051 H   0  0  0  0  0  0
  -28.3884  -32.6857   25.0321 H   0  0  0  0  0  0
  -28.0725  -31.8453   26.5420 H   0  0  0  0  0  0
  -28.2584  -38.0108   24.7529 H   0  0  0  0  0  0
  -28.1090  -36.2639   24.6261 H   0  0  0  0  0  0
  -27.2306  -37.1406   25.8869 H   0  0  0  0  0  0
  -20.9362  -29.8756   21.6885 H   0  0  0  0  0  0
  -26.0166  -38.2848   24.1429 H   0  0  0  0  0  0
  -31.3181  -19.3238   19.2856 H   0  0  0  0  0  0
  -30.4941  -21.6046   19.3145 H   0  0  0  0  0  0
  -26.3987  -21.3898   21.8239 H   0  0  0  0  0  0
  -27.1527  -20.5867   23.2030 H   0  0  0  0  0  0
  -26.1593  -19.6867   22.0511 H   0  0  0  0  0  0
  -28.2661  -25.2267   21.8592 H   0  0  0  0  0  0
  -26.9280  -24.9018   20.8133 H   0  0  0  0  0  0
  -28.5580  -17.1490   22.5909 H   0  0  0  0  0  0
  -27.2880  -18.2159   22.7550 H   0  0  0  0  0  0
  -27.5777  -22.7205   21.4299 H   0  0  0  0  0  0
  -29.0350  -15.8306   20.7122 H   0  0  0  0  0  0
  1 25  1  0  0  0
  1 30  2  0  0  0
  1 83  1  0  0  0
  2  3  1  0  0  0
  2 25  1  0  0  0
  2 86  1  0  0  0
  2 87  1  0  0  0
  3  4  1  0  0  0
  3 88  1  0  0  0
  3 89  1  0  0  0
  4  5  1  0  0  0
  4 90  1  0  0  0
  4 91  1  0  0  0
  5  6  1  0  0  0
  5 26  1  0  0  0
  5 92  1  0  0  0
  6 25  1  0  0  0
  6 93  1  0  0  0
  6 94  1  0  0  0
  7  8  2  0  0  0
  7 26  1  0  0  0
  7 29  1  0  0  0
  8  9  1  0  0  0
  8 22  1  0  0  0
  9 10  1  0  0  0
  9 27  2  0  0  0
 10 11  2  0  0  0
 10 15  1  0  0  0
 11 12  1  0  0  0
 11 95  1  0  0  0
 12 13  2  0  0  0
 12 96  1  0  0  0
 13 14  1  0  0  0
 13 31  1  0  0  0
 14 15  2  0  0  0
 14 97  1  0  0  0
 15 98  1  0  0  0
 16 17  2  0  0  0
 16 21  1  0  0  0
 16 31  1  0  0  0
 17 18  1  0  0  0
 17 99  1  0  0  0
 18 19  2  0  0  0
 18100  1  0  0  0
 19 20  1  0  0  0
 19 24  1  0  0  0
 20 21  2  0  0  0
 20101  1  0  0  0
 21 23  1  0  0  0
 22 28  1  0  0  0
 22 32  2  0  0  0
 26 27  1  0  0  0
 28102  1  0  0  0
 28103  1  0  0  0
 29104  1  0  0  0
 29105  1  0  0  0
 33 34  1  0  0  0
 33 66  1  0  0  0
 33 70  2  0  0  0
 34 36  1  0  0  0
 34 59  1  0  0  0
 34106  1  0  0  0
 35 44  2  0  0  0
 35 45  1  0  0  0
 35 68  1  0  0  0
 36 56  1  0  0  0
 36107  1  0  0  0
 37 39  1  0  0  0
 37 47  1  0  0  0
 37 66  1  0  0  0
 37108  1  0  0  0
 38 43  2  0  0  0
 38 46  1  0  0  0
 38 47  1  0  0  0
 39 64  1  0  0  0
 39 67  2  0  0  0
 40 52  1  0  0  0
 40 53  2  0  0  0
 40 58  1  0  0  0
 41109  1  0  0  0
 41110  1  0  0  0
 41111  1  0  0  0
 41 48  1  0  0  0
 42 43  1  0  0  0
 42 66  1  0  0  0
 42112  1  0  0  0
 42113  1  0  0  0
 43 44  1  0  0  0
 44114  1  0  0  0
 45 46  2  0  0  0
 45115  1  0  0  0
 46116  1  0  0  0
 47117  1  0  0  0
 47118  1  0  0  0
 48 56  1  0  0  0
 48 65  1  0  0  0
 48119  1  0  0  0
 49 50  1  0  0  0
 49 53  1  0  0  0
 49 64  1  0  0  0
 49120  1  0  0  0
 50 51  1  0  0  0
 50121  1  0  0  0
 50122  1  0  0  0
 51 52  1  0  0  0
 51123  1  0  0  0
 51124  1  0  0  0
 52125  1  0  0  0
 52126  1  0  0  0
 53 54  1  0  0  0
 54 55  2  0  0  0
 54127  1  0  0  0
 55 57  1  0  0  0
 55128  1  0  0  0
 56 69  2  0  0  0
 57 58  2  0  0  0
 57129  1  0  0  0
 58130  1  0  0  0
 59 60  1  0  0  0
 59 61  1  0  0  0
 59 62  1  0  0  0
 60131  1  0  0  0
 60132  1  0  0  0
 60133  1  0  0  0
 61134  1  0  0  0
 61135  1  0  0  0
 61136  1  0  0  0
 62137  1  0  0  0
 62138  1  0  0  0
 62139  1  0  0  0
 63 65  1  0  0  0
 63140  1  0  0  0
 63141  1  0  0  0
 63142  1  0  0  0
 64143  1  0  0  0
 65144  1  0  0  0
 68 80  1  0  0  0
 71 72  2  0  0  0
 71 73  1  0  0  0
 71145  1  0  0  0
 72 75  1  0  0  0
 72146  1  0  0  0
 73 76  2  0  0  0
 73 77  1  0  0  0
 74 75  2  0  0  0
 74 76  1  0  0  0
 74 79  1  0  0  0
 75 82  1  0  0  0
 76 81  1  0  0  0
 77 83  1  0  0  0
 77 84  2  0  0  0
 78 80  1  0  0  0
 78 82  1  0  0  0
 78 85  2  0  0  0
 79147  1  0  0  0
 79148  1  0  0  0
 79149  1  0  0  0
 80150  1  0  0  0
 80151  1  0  0  0
 81152  1  0  0  0
 81153  1  0  0  0
 82154  1  0  0  0
 83155  1  0  0  0
M  ISO  4   1 100  68 101  80 101  83 100
M  END
> <chiral flag>
0

> <version>
0

> <s_m_source_file>
/data/baiqing/PycharmProjects/Reinvent-master-3.2/result/LINK_invent/BTK/process_docking_weight1_custom_product_contain_oxygen_bond_distance_aromatic_linkinvent_7_9_3/rearranged_h_0091.sdf

> <i_m_source_file_index>
48

> <r_mmod_Potential_Energy-OPLS-2005>
110.772926330566

> <r_mmod_Stretch_Energy-OPLS-2005>
88.6886825561523

> <r_mmod_Bend_Energy-OPLS-2005>
159.778762817383

> <r_mmod_Torsional_Energy-OPLS-2005>
252.985626220703

> <r_mmod_Improper_Torsional_Energy-OPLS-2005>
10.2008247375488

> <r_mmod_Van_der_Waal_Energy-OPLS-2005>
164.865921020508

> <r_mmod_Electrostatic_Energy-OPLS-2005>
-367.298400878906

> <r_mmod_Solvation_Energy-OPLS-2005>
-259.471618652344

> <b_mmod_Minimization_Converged-OPLS-2005>
0

> <r_mmod_RMS_Derivative-OPLS-2005>
0.632357895374298

$$$$
48
                    3D
 Structure written by MMmdl.
153161  0  0  1  0            999 V2000
  -30.5598  -14.9563   20.3393 C   0  0  0  0  0  0
  -30.4447  -12.5792   19.4651 C   0  0  0  0  0  0
  -29.4992  -12.4199   18.2468 C   0  0  0  0  0  0
  -28.0401  -12.2531   18.6952 C   0  0  0  0  0  0
  -27.6271  -13.2266   19.8305 C   0  0  2  0  0  0
  -28.6866  -13.3026   20.9461 C   0  0  0  0  0  0
  -25.2508  -13.8163   20.5807 C   0  0  0  0  0  0
  -24.1780  -13.0430   20.9231 C   0  0  0  0  0  0
  -24.6374  -11.6896   20.8778 C   0  0  0  0  0  0
  -23.9056  -10.4274   21.0431 C   0  0  0  0  0  0
  -24.3588   -9.4190   21.9201 C   0  0  0  0  0  0
  -23.6264   -8.2242   22.0753 C   0  0  0  0  0  0
  -22.4243   -8.0301   21.3560 C   0  0  0  0  0  0
  -21.9916   -9.0262   20.4644 C   0  0  0  0  0  0
  -22.7257  -10.2136   20.3066 C   0  0  0  0  0  0
  -21.6857   -6.0754   22.5275 C   0  0  0  0  0  0
  -21.4037   -6.5664   23.8218 C   0  0  0  0  0  0
  -21.3638   -5.6799   24.9174 C   0  0  0  0  0  0
  -21.6013   -4.3057   24.7218 C   0  0  0  0  0  0
  -21.8824   -3.8173   23.4344 C   0  0  0  0  0  0
  -21.9205   -4.6991   22.3407 C   0  0  0  0  0  0
  -22.7822  -13.5270   21.1881 C   0  0  0  0  0  0
  -22.1683   -4.2172   21.0995 F   0  0  0  0  0  0
  -21.5567   -3.4548   25.7733 F   0  0  0  0  0  0
  -29.9470  -13.7026   20.3047 N   0  0  0  0  0  0
  -26.2919  -12.9360   20.3343 N   0  0  0  0  0  0
  -25.9303  -11.6518   20.5818 N   0  0  0  0  0  0
  -22.0461  -12.8198   22.0388 N   0  0  0  0  0  0
  -25.4203  -15.1864   20.4433 N   0  0  0  0  0  0
  -31.7938  -14.9793   20.2878 O   0  0  0  0  0  0
  -21.6638   -6.8886   21.4233 O   0  0  0  0  0  0
  -22.3529  -14.5620   20.6779 O   0  0  0  0  0  0
  -24.6462  -31.8415   23.1887 C   0  0  0  0  0  0
  -25.9222  -32.4708   23.8272 C   0  0  1  0  0  0
  -27.2358  -27.1397   20.1461 C   0  0  0  0  0  0
  -25.5973  -33.8503   24.2209 N   0  0  0  0  0  0
  -23.4507  -30.4613   21.5311 C   0  0  2  0  0  0
  -24.9110  -28.8952   20.1130 C   0  0  0  0  0  0
  -22.7574  -29.4532   22.4831 C   0  0  0  0  0  0
  -18.0297  -28.1378   22.8457 C   0  0  0  0  0  0
  -24.1503  -36.7252   23.2645 C   0  0  0  0  0  0
  -26.0120  -30.7213   21.3843 C   0  0  0  0  0  0
  -26.0932  -29.3338   20.7242 C   0  0  0  0  0  0
  -27.2618  -28.4796   20.7131 C   0  0  0  0  0  0
  -26.0174  -26.7998   19.5102 C   0  0  0  0  0  0
  -24.8859  -27.6405   19.4904 C   0  0  0  0  0  0
  -23.6821  -29.7938   20.1502 C   0  0  0  0  0  0
  -25.4134  -36.3038   24.0306 C   0  0  1  0  0  0
  -20.5927  -28.3706   23.1191 C   0  0  2  0  0  0
  -20.6782  -26.9396   22.5396 C   0  0  0  0  0  0
  -19.5785  -26.6357   21.5203 C   0  0  0  0  0  0
  -18.1933  -26.7939   22.1575 C   0  0  0  0  0  0
  -19.1565  -28.8851   23.2842 C   0  0  0  0  0  0
  -18.9455  -30.1433   23.8886 C   0  0  0  0  0  0
  -17.6448  -30.6549   24.0547 C   0  0  0  0  0  0
  -25.9074  -34.9421   23.5062 C   0  0  0  0  0  0
  -16.5337  -29.9039   23.6309 C   0  0  0  0  0  0
  -16.7289  -28.6470   23.0327 C   0  0  0  0  0  0
  -26.4545  -31.6558   25.0710 C   0  0  0  0  0  0
  -25.3725  -31.3716   26.1387 C   0  0  0  0  0  0
  -27.0406  -30.2967   24.6276 C   0  0  0  0  0  0
  -27.6071  -32.4350   25.7499 C   0  0  0  0  0  0
  -27.5576  -37.1782   24.8459 C   0  0  0  0  0  0
  -21.4258  -29.3047   22.3569 N   0  0  0  0  0  0
  -26.4307  -37.3739   23.9390 N   0  0  0  0  0  0
  -24.7225  -31.0286   22.0910 N   0  0  0  0  0  0
  -23.4230  -28.8047   23.2950 O   0  0  0  0  0  0
  -28.2873  -26.1443   20.2055 O   0  0  0  0  0  0
  -26.5669  -34.8917   22.4661 O   0  0  0  0  0  0
  -23.5563  -32.1252   23.7109 O   0  0  0  0  0  0
  -30.2990  -20.0636   20.0072 C   0  0  0  0  0  0
  -30.6203  -18.6357   19.9486 C   0  0  0  0  0  0
  -29.0042  -20.5975   20.3478 C   0  0  0  0  0  0
  -29.7066  -17.5627   20.2709 C   0  0  0  0  0  0
  -28.1153  -19.5140   20.6907 C   0  0  0  0  0  0
  -28.4407  -18.0956   20.6682 C   0  0  0  0  0  0
  -28.5903  -16.6487   17.7900 C   0  0  0  0  0  0
  -29.5024  -15.9429   18.4894 C   0  0  0  0  0  0
  -28.9019  -23.2786   20.2617 C   0  0  0  0  0  0
  -27.9217  -24.6272   20.1214 C   0  0  0  0  0  0
  -28.4576  -22.0033   20.2845 N   0  0  0  0  0  0
  -26.7944  -19.8423   21.0003 N   0  0  0  0  0  0
  -29.8392  -16.0908   19.8466 N   0  0  0  0  0  0
  -27.4391  -17.2155   20.9207 F   0  0  0  0  0  0
  -31.4621  -12.7563   19.1166 H   0  0  0  0  0  0
  -30.4838  -11.6625   20.0589 H   0  0  0  0  0  0
  -29.7992  -11.5516   17.6606 H   0  0  0  0  0  0
  -29.5523  -13.2568   17.5554 H   0  0  0  0  0  0
  -27.9392  -11.2251   19.0466 H   0  0  0  0  0  0
  -27.3632  -12.3471   17.8469 H   0  0  0  0  0  0
  -27.5684  -14.2137   19.3798 H   0  0  0  0  0  0
  -28.7859  -12.3475   21.4666 H   0  0  0  0  0  0
  -28.3964  -14.0408   21.6968 H   0  0  0  0  0  0
  -25.2731   -9.5678   22.4761 H   0  0  0  0  0  0
  -23.9994   -7.4645   22.7480 H   0  0  0  0  0  0
  -21.0847   -8.8812   19.8921 H   0  0  0  0  0  0
  -22.3755  -10.9679   19.6170 H   0  0  0  0  0  0
  -21.2069   -7.6175   23.9734 H   0  0  0  0  0  0
  -21.1428   -6.0533   25.9070 H   0  0  0  0  0  0
  -22.0617   -2.7634   23.2854 H   0  0  0  0  0  0
  -22.4130  -11.9852   22.4692 H   0  0  0  0  0  0
  -21.1089  -13.1182   22.2633 H   0  0  0  0  0  0
  -24.6723  -15.8391   20.6429 H   0  0  0  0  0  0
  -26.3172  -15.6452   20.3183 H   0  0  0  0  0  0
  -26.7313  -32.5312   23.0993 H   0  0  0  0  0  0
  -25.0069  -33.9579   25.0340 H   0  0  0  0  0  0
  -22.7540  -31.2887   21.3779 H   0  0  0  0  0  0
  -23.3751  -35.9589   23.3314 H   0  0  0  0  0  0
  -24.3593  -36.8881   22.2058 H   0  0  0  0  0  0
  -23.7266  -37.6463   23.6674 H   0  0  0  0  0  0
  -26.1718  -31.4680   20.6083 H   0  0  0  0  0  0
  -26.8826  -30.7761   22.0201 H   0  0  0  0  0  0
  -28.1685  -28.8222   21.1940 H   0  0  0  0  0  0
  -25.8937  -25.8408   19.0337 H   0  0  0  0  0  0
  -23.9873  -27.2976   18.9964 H   0  0  0  0  0  0
  -23.8093  -30.5719   19.3948 H   0  0  0  0  0  0
  -22.7997  -29.2256   19.8474 H   0  0  0  0  0  0
  -25.1319  -36.1870   25.0789 H   0  0  0  0  0  0
  -21.0056  -28.3250   24.1296 H   0  0  0  0  0  0
  -20.5607  -26.2336   23.3626 H   0  0  0  0  0  0
  -21.6641  -26.7356   22.1230 H   0  0  0  0  0  0
  -19.6977  -25.6269   21.1239 H   0  0  0  0  0  0
  -19.6783  -27.3172   20.6741 H   0  0  0  0  0  0
  -17.4217  -26.6748   21.3945 H   0  0  0  0  0  0
  -18.0217  -26.0089   22.8963 H   0  0  0  0  0  0
  -19.7915  -30.7259   24.2269 H   0  0  0  0  0  0
  -17.4969  -31.6208   24.5170 H   0  0  0  0  0  0
  -15.5326  -30.2926   23.7608 H   0  0  0  0  0  0
  -15.8702  -28.0778   22.7033 H   0  0  0  0  0  0
  -24.5895  -30.7101   25.7667 H   0  0  0  0  0  0
  -24.8900  -32.2866   26.4832 H   0  0  0  0  0  0
  -25.7975  -30.8845   27.0164 H   0  0  0  0  0  0
  -26.2995  -29.6711   24.1275 H   0  0  0  0  0  0
  -27.4025  -29.7271   25.4845 H   0  0  0  0  0  0
  -27.8919  -30.4229   23.9583 H   0  0  0  0  0  0
  -27.2642  -33.3624   26.2095 H   0  0  0  0  0  0
  -28.3850  -32.6968   25.0323 H   0  0  0  0  0  0
  -28.0772  -31.8477   26.5386 H   0  0  0  0  0  0
  -28.2592  -38.0088   24.7500 H   0  0  0  0  0  0
  -28.1087  -36.2604   24.6301 H   0  0  0  0  0  0
  -27.2279  -37.1442   25.8868 H   0  0  0  0  0  0
  -20.9479  -29.8761   21.6744 H   0  0  0  0  0  0
  -26.0166  -38.2809   24.1412 H   0  0  0  0  0  0
  -31.0717  -20.7660   19.7205 H   0  0  0  0  0  0
  -31.5966  -18.3583   19.5694 H   0  0  0  0  0  0
  -27.9782  -17.4364   18.2076 H   0  0  0  0  0  0
  -28.4357  -16.4242   16.7450 H   0  0  0  0  0  0
  -30.0819  -15.1918   17.9750 H   0  0  0  0  0  0
  -29.9702  -23.5067   20.3234 H   0  0  0  0  0  0
  -27.1439  -24.4937   20.8716 H   0  0  0  0  0  0
  -27.4357  -24.4809   19.1574 H   0  0  0  0  0  0
  -26.5022  -20.7137   20.5720 H   0  0  0  0  0  0
  -26.1422  -19.0829   20.8352 H   0  0  0  0  0  0
  1 25  1  0  0  0
  1 30  2  0  0  0
  1 83  1  0  0  0
  2  3  1  0  0  0
  2 25  1  0  0  0
  2 85  1  0  0  0
  2 86  1  0  0  0
  3  4  1  0  0  0
  3 87  1  0  0  0
  3 88  1  0  0  0
  4  5  1  0  0  0
  4 89  1  0  0  0
  4 90  1  0  0  0
  5  6  1  0  0  0
  5 26  1  0  0  0
  5 91  1  0  0  0
  6 25  1  0  0  0
  6 92  1  0  0  0
  6 93  1  0  0  0
  7  8  2  0  0  0
  7 26  1  0  0  0
  7 29  1  0  0  0
  8  9  1  0  0  0
  8 22  1  0  0  0
  9 10  1  0  0  0
  9 27  2  0  0  0
 10 11  2  0  0  0
 10 15  1  0  0  0
 11 12  1  0  0  0
 11 94  1  0  0  0
 12 13  2  0  0  0
 12 95  1  0  0  0
 13 14  1  0  0  0
 13 31  1  0  0  0
 14 15  2  0  0  0
 14 96  1  0  0  0
 15 97  1  0  0  0
 16 17  2  0  0  0
 16 21  1  0  0  0
 16 31  1  0  0  0
 17 18  1  0  0  0
 17 98  1  0  0  0
 18 19  2  0  0  0
 18 99  1  0  0  0
 19 20  1  0  0  0
 19 24  1  0  0  0
 20 21  2  0  0  0
 20100  1  0  0  0
 21 23  1  0  0  0
 22 28  1  0  0  0
 22 32  2  0  0  0
 26 27  1  0  0  0
 28101  1  0  0  0
 28102  1  0  0  0
 29103  1  0  0  0
 29104  1  0  0  0
 33 34  1  0  0  0
 33 66  1  0  0  0
 33 70  2  0  0  0
 34 36  1  0  0  0
 34 59  1  0  0  0
 34105  1  0  0  0
 35 44  2  0  0  0
 35 45  1  0  0  0
 35 68  1  0  0  0
 36 56  1  0  0  0
 36106  1  0  0  0
 37 39  1  0  0  0
 37 47  1  0  0  0
 37 66  1  0  0  0
 37107  1  0  0  0
 38 43  2  0  0  0
 38 46  1  0  0  0
 38 47  1  0  0  0
 39 64  1  0  0  0
 39 67  2  0  0  0
 40 52  1  0  0  0
 40 53  2  0  0  0
 40 58  1  0  0  0
 41108  1  0  0  0
 41109  1  0  0  0
 41110  1  0  0  0
 41 48  1  0  0  0
 42 43  1  0  0  0
 42 66  1  0  0  0
 42111  1  0  0  0
 42112  1  0  0  0
 43 44  1  0  0  0
 44113  1  0  0  0
 45 46  2  0  0  0
 45114  1  0  0  0
 46115  1  0  0  0
 47116  1  0  0  0
 47117  1  0  0  0
 48 56  1  0  0  0
 48 65  1  0  0  0
 48118  1  0  0  0
 49 50  1  0  0  0
 49 53  1  0  0  0
 49 64  1  0  0  0
 49119  1  0  0  0
 50 51  1  0  0  0
 50120  1  0  0  0
 50121  1  0  0  0
 51 52  1  0  0  0
 51122  1  0  0  0
 51123  1  0  0  0
 52124  1  0  0  0
 52125  1  0  0  0
 53 54  1  0  0  0
 54 55  2  0  0  0
 54126  1  0  0  0
 55 57  1  0  0  0
 55127  1  0  0  0
 56 69  2  0  0  0
 57 58  2  0  0  0
 57128  1  0  0  0
 58129  1  0  0  0
 59 60  1  0  0  0
 59 61  1  0  0  0
 59 62  1  0  0  0
 60130  1  0  0  0
 60131  1  0  0  0
 60132  1  0  0  0
 61133  1  0  0  0
 61134  1  0  0  0
 61135  1  0  0  0
 62136  1  0  0  0
 62137  1  0  0  0
 62138  1  0  0  0
 63 65  1  0  0  0
 63139  1  0  0  0
 63140  1  0  0  0
 63141  1  0  0  0
 64142  1  0  0  0
 65143  1  0  0  0
 68 80  1  0  0  0
 71 72  2  0  0  0
 71 73  1  0  0  0
 71144  1  0  0  0
 72 74  1  0  0  0
 72145  1  0  0  0
 73 75  2  0  0  0
 73 81  1  0  0  0
 74 76  2  0  0  0
 74 83  1  0  0  0
 75 76  1  0  0  0
 75 82  1  0  0  0
 76 84  1  0  0  0
 77 78  2  0  0  0
 77146  1  0  0  0
 77147  1  0  0  0
 78 83  1  0  0  0
 78148  1  0  0  0
 79 80  1  0  0  0
 79 81  2  0  0  0
 79149  1  0  0  0
 80150  1  0  0  0
 80151  1  0  0  0
 82152  1  0  0  0
 82153  1  0  0  0
M  ISO  4   1 100  68 101  80 101  83 100
M  END
> <chiral flag>
0

> <version>
0

> <s_m_source_file>
/data/baiqing/PycharmProjects/Reinvent-master-3.2/result/LINK_invent/BTK/process_docking_weight1_custom_product_contain_oxygen_bond_distance_aromatic_linkinvent_7_9_3/rearranged_h_0091.sdf

> <i_m_source_file_index>
49

> <r_mmod_Potential_Energy-OPLS-2005>
754.087219238281

> <r_mmod_Stretch_Energy-OPLS-2005>
244.152496337891

> <r_mmod_Bend_Energy-OPLS-2005>
293.482452392578

> <r_mmod_Torsional_Energy-OPLS-2005>
362.236907958984

> <r_mmod_Improper_Torsional_Energy-OPLS-2005>
32.1298637390137

> <r_mmod_Van_der_Waal_Energy-OPLS-2005>
148.084976196289

> <r_mmod_Electrostatic_Energy-OPLS-2005>
-330.777435302734

> <r_mmod_Solvation_Energy-OPLS-2005>
-200.673156738281

> <b_mmod_Minimization_Converged-OPLS-2005>
0

> <r_mmod_RMS_Derivative-OPLS-2005>
6.56140470504761

$$$$
49
                    3D
 Structure written by MMmdl.
158167  0  0  1  0            999 V2000
  -30.6475  -14.6200   20.4483 C   0  0  0  0  0  0
  -30.4120  -12.3727   19.4529 C   0  0  0  0  0  0
  -29.4927  -12.4992   18.2202 C   0  0  0  0  0  0
  -28.0129  -12.3570   18.6242 C   0  0  0  0  0  0
  -27.6377  -13.2277   19.8545 C   0  0  2  0  0  0
  -28.6835  -13.1046   20.9841 C   0  0  0  0  0  0
  -25.2454  -13.8180   20.5665 C   0  0  0  0  0  0
  -24.1752  -13.0423   20.9193 C   0  0  0  0  0  0
  -24.6345  -11.6898   20.8754 C   0  0  0  0  0  0
  -23.9027  -10.4287   21.0416 C   0  0  0  0  0  0
  -24.3597   -9.4204   21.9185 C   0  0  0  0  0  0
  -23.6285   -8.2231   22.0747 C   0  0  0  0  0  0
  -22.4270   -8.0268   21.3533 C   0  0  0  0  0  0
  -21.9895   -9.0241   20.4641 C   0  0  0  0  0  0
  -22.7209  -10.2126   20.3057 C   0  0  0  0  0  0
  -21.6849   -6.0716   22.5254 C   0  0  0  0  0  0
  -21.4028   -6.5632   23.8188 C   0  0  0  0  0  0
  -21.3664   -5.6790   24.9152 C   0  0  0  0  0  0
  -21.6034   -4.3050   24.7206 C   0  0  0  0  0  0
  -21.8825   -3.8133   23.4335 C   0  0  0  0  0  0
  -21.9196   -4.6943   22.3387 C   0  0  0  0  0  0
  -22.7780  -13.5208   21.1868 C   0  0  0  0  0  0
  -22.1655   -4.2131   21.0967 F   0  0  0  0  0  0
  -21.5625   -3.4541   25.7726 F   0  0  0  0  0  0
  -29.9962  -13.4191   20.4028 N   0  0  0  0  0  0
  -26.2887  -12.9387   20.3298 N   0  0  0  0  0  0
  -25.9266  -11.6533   20.5760 N   0  0  0  0  0  0
  -22.0443  -12.8203   22.0451 N   0  0  0  0  0  0
  -25.4107  -15.1907   20.4030 N   0  0  0  0  0  0
  -31.8397  -14.6984   20.1371 O   0  0  0  0  0  0
  -21.6636   -6.8862   21.4220 O   0  0  0  0  0  0
  -22.3453  -14.5493   20.6681 O   0  0  0  0  0  0
  -24.6215  -31.8677   23.2072 C   0  0  0  0  0  0
  -25.9102  -32.4838   23.8368 C   0  0  1  0  0  0
  -27.2292  -27.3731   20.1088 C   0  0  0  0  0  0
  -25.5942  -33.8628   24.2315 N   0  0  0  0  0  0
  -23.4136  -30.4884   21.5513 C   0  0  2  0  0  0
  -24.8620  -28.9388   20.1253 C   0  0  0  0  0  0
  -22.7429  -29.4685   22.5002 C   0  0  0  0  0  0
  -18.0267  -28.1431   22.8509 C   0  0  0  0  0  0
  -24.1470  -36.7300   23.2627 C   0  0  0  0  0  0
  -25.9458  -30.8087   21.3725 C   0  0  0  0  0  0
  -26.0264  -29.4334   20.7280 C   0  0  0  0  0  0
  -27.2168  -28.6559   20.7213 C   0  0  0  0  0  0
  -26.0494  -26.9068   19.5016 C   0  0  0  0  0  0
  -24.8693  -27.6774   19.5062 C   0  0  0  0  0  0
  -23.6307  -29.8197   20.1683 C   0  0  0  0  0  0
  -25.4108  -36.3123   24.0318 C   0  0  1  0  0  0
  -20.5856  -28.3761   23.1307 C   0  0  2  0  0  0
  -20.6776  -26.9509   22.5433 C   0  0  0  0  0  0
  -19.5759  -26.6459   21.5228 C   0  0  0  0  0  0
  -18.1931  -26.7980   22.1632 C   0  0  0  0  0  0
  -19.1512  -28.8904   23.2902 C   0  0  0  0  0  0
  -18.9456  -30.1476   23.8984 C   0  0  0  0  0  0
  -17.6464  -30.6652   24.0587 C   0  0  0  0  0  0
  -25.9050  -34.9481   23.5106 C   0  0  0  0  0  0
  -16.5349  -29.9173   23.6335 C   0  0  0  0  0  0
  -16.7254  -28.6553   23.0420 C   0  0  0  0  0  0
  -26.4497  -31.6631   25.0710 C   0  0  0  0  0  0
  -25.3725  -31.3769   26.1436 C   0  0  0  0  0  0
  -27.0262  -30.3047   24.6078 C   0  0  0  0  0  0
  -27.6071  -32.4330   25.7516 C   0  0  0  0  0  0
  -27.5576  -37.1799   24.8468 C   0  0  0  0  0  0
  -21.4162  -29.3094   22.3707 N   0  0  0  0  0  0
  -26.4297  -37.3816   23.9398 N   0  0  0  0  0  0
  -24.6785  -31.0705   22.1030 N   0  0  0  0  0  0
  -23.4125  -28.8249   23.3116 O   0  0  0  0  0  0
  -28.3373  -26.5408   20.0650 O   0  0  0  0  0  0
  -26.5583  -34.8932   22.4653 O   0  0  0  0  0  0
  -23.5399  -32.1470   23.7424 O   0  0  0  0  0  0
  -31.1514  -19.8698   20.4370 C   0  0  0  0  0  0
  -31.5993  -17.5289   20.9317 C   0  0  0  0  0  0
  -29.8172  -19.5799   20.0883 C   0  0  0  0  0  0
  -32.0262  -18.8695   20.8754 C   0  0  0  0  0  0
  -30.2931  -17.1498   20.5329 C   0  0  0  0  0  0
  -29.3966  -18.1993   20.1237 C   0  0  0  0  0  0
  -28.5471  -24.2362   20.9882 C   0  0  0  0  0  0
  -28.4341  -25.5975   21.0738 C   0  0  0  0  0  0
  -28.9719  -20.7514   19.5833 C   0  0  0  0  0  0
  -28.6620  -23.3676   22.2123 C   0  0  0  0  0  0
  -28.5807  -23.2857   19.7855 C   0  0  0  0  0  0
  -29.2104  -22.0149   21.7358 C   0  0  0  0  0  0
  -28.9695  -21.9325   20.2935 N   0  0  0  0  0  0
  -33.3219  -19.2202   21.2486 N   0  0  0  0  0  0
  -29.8792  -15.7463   20.5807 N   0  0  0  0  0  0
  -28.4072  -20.6627   18.4890 O   0  0  0  0  0  0
  -28.1329  -17.8616   19.7630 F   0  0  0  0  0  0
  -31.4574  -12.4719   19.1557 H   0  0  0  0  0  0
  -30.3235  -11.3866   19.9102 H   0  0  0  0  0  0
  -29.7536  -11.7450   17.4777 H   0  0  0  0  0  0
  -29.6467  -13.4686   17.7429 H   0  0  0  0  0  0
  -27.8315  -11.3044   18.8422 H   0  0  0  0  0  0
  -27.3699  -12.6067   17.7798 H   0  0  0  0  0  0
  -27.6448  -14.2619   19.5086 H   0  0  0  0  0  0
  -28.6837  -12.0930   21.3957 H   0  0  0  0  0  0
  -28.4422  -13.7731   21.8122 H   0  0  0  0  0  0
  -25.2736   -9.5668   22.4783 H   0  0  0  0  0  0
  -23.9980   -7.4611   22.7467 H   0  0  0  0  0  0
  -21.0827   -8.8748   19.8958 H   0  0  0  0  0  0
  -22.3651  -10.9664   19.6185 H   0  0  0  0  0  0
  -21.2037   -7.6145   23.9678 H   0  0  0  0  0  0
  -21.1479   -6.0531   25.9056 H   0  0  0  0  0  0
  -22.0611   -2.7598   23.2834 H   0  0  0  0  0  0
  -22.4104  -11.9891   22.4861 H   0  0  0  0  0  0
  -21.1056  -13.1213   22.2665 H   0  0  0  0  0  0
  -24.6338  -15.8378   20.4939 H   0  0  0  0  0  0
  -26.2439  -15.6339   20.0381 H   0  0  0  0  0  0
  -26.7175  -32.5566   23.1133 H   0  0  0  0  0  0
  -25.0118  -33.9803   25.0476 H   0  0  0  0  0  0
  -22.7077  -31.3089   21.4050 H   0  0  0  0  0  0
  -23.3755  -35.9616   23.3327 H   0  0  0  0  0  0
  -24.3524  -36.8900   22.2034 H   0  0  0  0  0  0
  -23.7218  -37.6499   23.6628 H   0  0  0  0  0  0
  -26.0495  -31.5681   20.5959 H   0  0  0  0  0  0
  -26.8338  -30.8761   21.9900 H   0  0  0  0  0  0
  -28.1147  -29.0211   21.2029 H   0  0  0  0  0  0
  -26.0465  -25.9351   19.0283 H   0  0  0  0  0  0
  -23.9800  -27.2931   19.0278 H   0  0  0  0  0  0
  -23.7570  -30.5924   19.4096 H   0  0  0  0  0  0
  -22.7546  -29.2474   19.8626 H   0  0  0  0  0  0
  -25.1286  -36.1982   25.0818 H   0  0  0  0  0  0
  -20.9909  -28.3388   24.1442 H   0  0  0  0  0  0
  -20.5763  -26.2398   23.3645 H   0  0  0  0  0  0
  -21.6642  -26.7641   22.1197 H   0  0  0  0  0  0
  -19.6963  -25.6366   21.1294 H   0  0  0  0  0  0
  -19.6678  -27.3245   20.6731 H   0  0  0  0  0  0
  -17.4209  -26.6748   21.4036 H   0  0  0  0  0  0
  -18.0340  -26.0101   22.9000 H   0  0  0  0  0  0
  -19.7930  -30.7224   24.2469 H   0  0  0  0  0  0
  -17.5047  -31.6351   24.5147 H   0  0  0  0  0  0
  -15.5369  -30.3132   23.7615 H   0  0  0  0  0  0
  -15.8629  -28.0861   22.7219 H   0  0  0  0  0  0
  -24.5931  -30.7082   25.7766 H   0  0  0  0  0  0
  -24.8879  -32.2931   26.4824 H   0  0  0  0  0  0
  -25.8058  -30.8997   27.0228 H   0  0  0  0  0  0
  -26.2771  -29.6905   24.1065 H   0  0  0  0  0  0
  -27.3910  -29.7232   25.4549 H   0  0  0  0  0  0
  -27.8676  -30.4283   23.9253 H   0  0  0  0  0  0
  -27.2675  -33.3620   26.2098 H   0  0  0  0  0  0
  -28.3907  -32.6917   25.0383 H   0  0  0  0  0  0
  -28.0677  -31.8431   26.5456 H   0  0  0  0  0  0
  -28.2599  -38.0085   24.7510 H   0  0  0  0  0  0
  -28.1051  -36.2611   24.6307 H   0  0  0  0  0  0
  -27.2259  -37.1485   25.8860 H   0  0  0  0  0  0
  -20.9420  -29.8739   21.6806 H   0  0  0  0  0  0
  -26.0197  -38.2885   24.1456 H   0  0  0  0  0  0
  -31.5073  -20.8873   20.3607 H   0  0  0  0  0  0
  -32.3008  -16.7950   21.2904 H   0  0  0  0  0  0
  -28.4307  -26.0891   22.0385 H   0  0  0  0  0  0
  -27.6631  -23.2337   22.6269 H   0  0  0  0  0  0
  -29.2893  -23.8179   22.9849 H   0  0  0  0  0  0
  -29.2962  -23.6437   19.0432 H   0  0  0  0  0  0
  -27.5950  -23.2569   19.3205 H   0  0  0  0  0  0
  -28.7364  -21.1860   22.2689 H   0  0  0  0  0  0
  -30.2800  -21.9673   21.9411 H   0  0  0  0  0  0
  -33.6636  -20.1735   21.1491 H   0  0  0  0  0  0
  -34.0500  -18.5261   21.3911 H   0  0  0  0  0  0
  -28.8844  -15.5934   20.6358 H   0  0  0  0  0  0
  1 25  1  0  0  0
  1 30  2  0  0  0
  1 85  1  0  0  0
  2  3  1  0  0  0
  2 25  1  0  0  0
  2 88  1  0  0  0
  2 89  1  0  0  0
  3  4  1  0  0  0
  3 90  1  0  0  0
  3 91  1  0  0  0
  4  5  1  0  0  0
  4 92  1  0  0  0
  4 93  1  0  0  0
  5  6  1  0  0  0
  5 26  1  0  0  0
  5 94  1  0  0  0
  6 25  1  0  0  0
  6 95  1  0  0  0
  6 96  1  0  0  0
  7  8  2  0  0  0
  7 26  1  0  0  0
  7 29  1  0  0  0
  8  9  1  0  0  0
  8 22  1  0  0  0
  9 10  1  0  0  0
  9 27  2  0  0  0
 10 11  2  0  0  0
 10 15  1  0  0  0
 11 12  1  0  0  0
 11 97  1  0  0  0
 12 13  2  0  0  0
 12 98  1  0  0  0
 13 14  1  0  0  0
 13 31  1  0  0  0
 14 15  2  0  0  0
 14 99  1  0  0  0
 15100  1  0  0  0
 16 17  2  0  0  0
 16 21  1  0  0  0
 16 31  1  0  0  0
 17 18  1  0  0  0
 17101  1  0  0  0
 18 19  2  0  0  0
 18102  1  0  0  0
 19 20  1  0  0  0
 19 24  1  0  0  0
 20 21  2  0  0  0
 20103  1  0  0  0
 21 23  1  0  0  0
 22 28  1  0  0  0
 22 32  2  0  0  0
 26 27  1  0  0  0
 28104  1  0  0  0
 28105  1  0  0  0
 29106  1  0  0  0
 29107  1  0  0  0
 33 34  1  0  0  0
 33 66  1  0  0  0
 33 70  2  0  0  0
 34 36  1  0  0  0
 34 59  1  0  0  0
 34108  1  0  0  0
 35 44  2  0  0  0
 35 45  1  0  0  0
 35 68  1  0  0  0
 36 56  1  0  0  0
 36109  1  0  0  0
 37 39  1  0  0  0
 37 47  1  0  0  0
 37 66  1  0  0  0
 37110  1  0  0  0
 38 43  2  0  0  0
 38 46  1  0  0  0
 38 47  1  0  0  0
 39 64  1  0  0  0
 39 67  2  0  0  0
 40 52  1  0  0  0
 40 53  2  0  0  0
 40 58  1  0  0  0
 41111  1  0  0  0
 41112  1  0  0  0
 41113  1  0  0  0
 41 48  1  0  0  0
 42 43  1  0  0  0
 42 66  1  0  0  0
 42114  1  0  0  0
 42115  1  0  0  0
 43 44  1  0  0  0
 44116  1  0  0  0
 45 46  2  0  0  0
 45117  1  0  0  0
 46118  1  0  0  0
 47119  1  0  0  0
 47120  1  0  0  0
 48 56  1  0  0  0
 48 65  1  0  0  0
 48121  1  0  0  0
 49 50  1  0  0  0
 49 53  1  0  0  0
 49 64  1  0  0  0
 49122  1  0  0  0
 50 51  1  0  0  0
 50123  1  0  0  0
 50124  1  0  0  0
 51 52  1  0  0  0
 51125  1  0  0  0
 51126  1  0  0  0
 52127  1  0  0  0
 52128  1  0  0  0
 53 54  1  0  0  0
 54 55  2  0  0  0
 54129  1  0  0  0
 55 57  1  0  0  0
 55130  1  0  0  0
 56 69  2  0  0  0
 57 58  2  0  0  0
 57131  1  0  0  0
 58132  1  0  0  0
 59 60  1  0  0  0
 59 61  1  0  0  0
 59 62  1  0  0  0
 60133  1  0  0  0
 60134  1  0  0  0
 60135  1  0  0  0
 61136  1  0  0  0
 61137  1  0  0  0
 61138  1  0  0  0
 62139  1  0  0  0
 62140  1  0  0  0
 62141  1  0  0  0
 63 65  1  0  0  0
 63142  1  0  0  0
 63143  1  0  0  0
 63144  1  0  0  0
 64145  1  0  0  0
 65146  1  0  0  0
 68 78  1  0  0  0
 71 73  2  0  0  0
 71 74  1  0  0  0
 71147  1  0  0  0
 72 74  2  0  0  0
 72 75  1  0  0  0
 72148  1  0  0  0
 73 76  1  0  0  0
 73 79  1  0  0  0
 74 84  1  0  0  0
 75 76  2  0  0  0
 75 85  1  0  0  0
 76 87  1  0  0  0
 77 78  2  0  0  0
 77 80  1  0  0  0
 77 81  1  0  0  0
 78149  1  0  0  0
 79 83  1  0  0  0
 79 86  2  0  0  0
 80 82  1  0  0  0
 80150  1  0  0  0
 80151  1  0  0  0
 81 83  1  0  0  0
 81152  1  0  0  0
 81153  1  0  0  0
 82 83  1  0  0  0
 82154  1  0  0  0
 82155  1  0  0  0
 84156  1  0  0  0
 84157  1  0  0  0
 85158  1  0  0  0
M  ISO  4   1 100  68 101  78 101  85 100
M  END
> <chiral flag>
0

> <version>
0

> <s_m_source_file>
/data/baiqing/PycharmProjects/Reinvent-master-3.2/result/LINK_invent/BTK/process_docking_weight1_custom_product_contain_oxygen_bond_distance_aromatic_linkinvent_7_9_3/rearranged_h_0091.sdf

> <i_m_source_file_index>
50

> <r_mmod_Potential_Energy-OPLS-2005>
51.9956855773926

> <r_mmod_Stretch_Energy-OPLS-2005>
61.506893157959

> <r_mmod_Bend_Energy-OPLS-2005>
145.3115234375

> <r_mmod_Torsional_Energy-OPLS-2005>
305.464569091797

> <r_mmod_Improper_Torsional_Energy-OPLS-2005>
8.94689273834229

> <r_mmod_Van_der_Waal_Energy-OPLS-2005>
143.164001464844

> <r_mmod_Electrostatic_Energy-OPLS-2005>
-424.776153564453

> <r_mmod_Solvation_Energy-OPLS-2005>
-226.909973144531

> <b_mmod_Minimization_Converged-OPLS-2005>
0

> <r_mmod_RMS_Derivative-OPLS-2005>
4.67374897003174

$$$$
50
                    3D
 Structure written by MMmdl.
155163  0  0  1  0            999 V2000
  -30.7308  -14.4562   20.6190 C   0  0  0  0  0  0
  -30.4184  -12.3191   19.4145 C   0  0  0  0  0  0
  -29.4886  -12.5150   18.2012 C   0  0  0  0  0  0
  -28.0124  -12.3682   18.6171 C   0  0  0  0  0  0
  -27.6595  -13.2091   19.8732 C   0  0  2  0  0  0
  -28.7013  -12.9941   20.9932 C   0  0  0  0  0  0
  -25.2577  -13.8165   20.5681 C   0  0  0  0  0  0
  -24.1829  -13.0436   20.9168 C   0  0  0  0  0  0
  -24.6387  -11.6905   20.8728 C   0  0  0  0  0  0
  -23.9056  -10.4290   21.0400 C   0  0  0  0  0  0
  -24.3612   -9.4209   21.9178 C   0  0  0  0  0  0
  -23.6290   -8.2244   22.0752 C   0  0  0  0  0  0
  -22.4272   -8.0277   21.3543 C   0  0  0  0  0  0
  -21.9903   -9.0248   20.4644 C   0  0  0  0  0  0
  -22.7228  -10.2127   20.3051 C   0  0  0  0  0  0
  -21.6855   -6.0730   22.5279 C   0  0  0  0  0  0
  -21.4016   -6.5636   23.8209 C   0  0  0  0  0  0
  -21.3659   -5.6790   24.9173 C   0  0  0  0  0  0
  -21.6042   -4.3052   24.7223 C   0  0  0  0  0  0
  -21.8819   -3.8142   23.4344 C   0  0  0  0  0  0
  -21.9194   -4.6958   22.3401 C   0  0  0  0  0  0
  -22.7853  -13.5235   21.1839 C   0  0  0  0  0  0
  -22.1659   -4.2143   21.0977 F   0  0  0  0  0  0
  -21.5630   -3.4538   25.7739 F   0  0  0  0  0  0
  -30.0317  -13.3013   20.4404 N   0  0  0  0  0  0
  -26.3012  -12.9339   20.3362 N   0  0  0  0  0  0
  -25.9314  -11.6495   20.5762 N   0  0  0  0  0  0
  -22.0500  -12.8228   22.0399 N   0  0  0  0  0  0
  -25.4308  -15.1884   20.4104 N   0  0  0  0  0  0
  -31.8275  -14.6573   20.0902 O   0  0  0  0  0  0
  -21.6640   -6.8873   21.4241 O   0  0  0  0  0  0
  -22.3539  -14.5545   20.6693 O   0  0  0  0  0  0
  -24.6152  -31.8677   23.2099 C   0  0  0  0  0  0
  -25.9042  -32.4822   23.8396 C   0  0  1  0  0  0
  -27.2310  -27.4279   20.0993 C   0  0  0  0  0  0
  -25.5902  -33.8622   24.2325 N   0  0  0  0  0  0
  -23.4039  -30.4915   21.5502 C   0  0  2  0  0  0
  -24.8511  -28.9583   20.1132 C   0  0  0  0  0  0
  -22.7414  -29.4659   22.4984 C   0  0  0  0  0  0
  -18.0267  -28.1380   22.8490 C   0  0  0  0  0  0
  -24.1489  -36.7312   23.2641 C   0  0  0  0  0  0
  -25.9342  -30.8310   21.3647 C   0  0  0  0  0  0
  -26.0125  -29.4657   20.7113 C   0  0  0  0  0  0
  -27.2081  -28.7075   20.7019 C   0  0  0  0  0  0
  -26.0548  -26.9402   19.4893 C   0  0  0  0  0  0
  -24.8671  -27.6945   19.4985 C   0  0  0  0  0  0
  -23.6130  -29.8253   20.1643 C   0  0  0  0  0  0
  -25.4112  -36.3114   24.0341 C   0  0  1  0  0  0
  -20.5861  -28.3668   23.1315 C   0  0  2  0  0  0
  -20.6762  -26.9405   22.5420 C   0  0  0  0  0  0
  -19.5745  -26.6386   21.5213 C   0  0  0  0  0  0
  -18.1917  -26.7928   22.1616 C   0  0  0  0  0  0
  -19.1518  -28.8839   23.2900 C   0  0  0  0  0  0
  -18.9447  -30.1442   23.8916 C   0  0  0  0  0  0
  -17.6453  -30.6592   24.0563 C   0  0  0  0  0  0
  -25.9038  -34.9479   23.5130 C   0  0  0  0  0  0
  -16.5341  -29.9095   23.6330 C   0  0  0  0  0  0
  -16.7256  -28.6509   23.0354 C   0  0  0  0  0  0
  -26.4468  -31.6607   25.0726 C   0  0  0  0  0  0
  -25.3739  -31.3717   26.1481 C   0  0  0  0  0  0
  -27.0291  -30.3049   24.6101 C   0  0  0  0  0  0
  -27.6049  -32.4326   25.7479 C   0  0  0  0  0  0
  -27.5582  -37.1814   24.8466 C   0  0  0  0  0  0
  -21.4141  -29.3037   22.3724 N   0  0  0  0  0  0
  -26.4297  -37.3798   23.9407 N   0  0  0  0  0  0
  -24.6693  -31.0776   22.0999 N   0  0  0  0  0  0
  -23.4183  -28.8199   23.3027 O   0  0  0  0  0  0
  -28.3692  -26.6478   20.1052 O   0  0  0  0  0  0
  -26.5600  -34.8930   22.4691 O   0  0  0  0  0  0
  -23.5343  -32.1430   23.7492 O   0  0  0  0  0  0
  -29.2216  -18.5906   21.9297 C   0  0  0  0  0  0
  -28.9198  -19.9286   21.5824 C   0  0  0  0  0  0
  -31.1655  -18.6504   20.4797 C   0  0  0  0  0  0
  -30.3671  -17.9501   21.4094 C   0  0  0  0  0  0
  -29.7565  -20.6571   20.6973 C   0  0  0  0  0  0
  -30.8616  -19.9838   20.1196 C   0  0  0  0  0  0
  -28.2211  -25.3666   20.6028 C   0  0  0  0  0  0
  -28.9923  -24.3140   20.2461 C   0  0  0  0  0  0
  -28.7376  -22.9848   20.8281 C   0  0  0  0  0  0
  -30.8153  -16.5815   21.9374 C   0  0  0  0  0  0
  -31.6841  -20.6415   19.2025 N   0  0  0  0  0  0
  -29.5876  -22.0447   20.3653 N   0  0  0  0  0  0
  -30.1469  -15.3939   21.3870 N   0  0  0  0  0  0
  -27.8426  -22.7469   21.6426 O   0  0  0  0  0  0
  -29.9847  -24.4870   19.3575 O   0  0  0  0  0  0
  -31.4625  -12.4160   19.1116 H   0  0  0  0  0  0
  -30.3199  -11.3079   19.8120 H   0  0  0  0  0  0
  -29.7307  -11.7931   17.4200 H   0  0  0  0  0  0
  -29.6516  -13.5027   17.7668 H   0  0  0  0  0  0
  -27.8287  -11.3114   18.8149 H   0  0  0  0  0  0
  -27.3584  -12.6381   17.7873 H   0  0  0  0  0  0
  -27.7031  -14.2573   19.5764 H   0  0  0  0  0  0
  -28.6808  -11.9582   21.3350 H   0  0  0  0  0  0
  -28.4532  -13.5917   21.8707 H   0  0  0  0  0  0
  -25.2761   -9.5687   22.4748 H   0  0  0  0  0  0
  -24.0002   -7.4636   22.7469 H   0  0  0  0  0  0
  -21.0837   -8.8757   19.8951 H   0  0  0  0  0  0
  -22.3685  -10.9660   19.6156 H   0  0  0  0  0  0
  -21.2006   -7.6145   23.9713 H   0  0  0  0  0  0
  -21.1482   -6.0520   25.9076 H   0  0  0  0  0  0
  -22.0598   -2.7605   23.2846 H   0  0  0  0  0  0
  -22.4111  -11.9883   22.4781 H   0  0  0  0  0  0
  -21.1118  -13.1254   22.2613 H   0  0  0  0  0  0
  -24.6691  -15.8482   20.5244 H   0  0  0  0  0  0
  -26.2909  -15.6264   20.1043 H   0  0  0  0  0  0
  -26.7115  -32.5531   23.1161 H   0  0  0  0  0  0
  -25.0066  -33.9789   25.0480 H   0  0  0  0  0  0
  -22.6931  -31.3085   21.4114 H   0  0  0  0  0  0
  -23.3751  -35.9646   23.3319 H   0  0  0  0  0  0
  -24.3584  -36.8907   22.2053 H   0  0  0  0  0  0
  -23.7241  -37.6523   23.6642 H   0  0  0  0  0  0
  -26.0487  -31.5971   20.5966 H   0  0  0  0  0  0
  -26.8215  -30.8836   21.9839 H   0  0  0  0  0  0
  -28.1043  -29.0904   21.1696 H   0  0  0  0  0  0
  -26.0548  -25.9697   19.0134 H   0  0  0  0  0  0
  -23.9755  -27.2982   19.0321 H   0  0  0  0  0  0
  -23.7210  -30.6010   19.4054 H   0  0  0  0  0  0
  -22.7368  -29.2456   19.8677 H   0  0  0  0  0  0
  -25.1292  -36.1983   25.0835 H   0  0  0  0  0  0
  -20.9945  -28.3233   24.1440 H   0  0  0  0  0  0
  -20.5659  -26.2279   23.3607 H   0  0  0  0  0  0
  -21.6634  -26.7450   22.1212 H   0  0  0  0  0  0
  -19.6908  -25.6300   21.1235 H   0  0  0  0  0  0
  -19.6690  -27.3205   20.6752 H   0  0  0  0  0  0
  -17.4191  -26.6678   21.4013 H   0  0  0  0  0  0
  -18.0311  -26.0066   22.9007 H   0  0  0  0  0  0
  -19.7924  -30.7242   24.2302 H   0  0  0  0  0  0
  -17.5014  -31.6279   24.5153 H   0  0  0  0  0  0
  -15.5344  -30.3005   23.7658 H   0  0  0  0  0  0
  -15.8650  -28.0837   22.7073 H   0  0  0  0  0  0
  -24.5906  -30.7067   25.7827 H   0  0  0  0  0  0
  -24.8939  -32.2873   26.4948 H   0  0  0  0  0  0
  -25.8099  -30.8876   27.0228 H   0  0  0  0  0  0
  -26.2829  -29.6815   24.1161 H   0  0  0  0  0  0
  -27.4066  -29.7285   25.4554 H   0  0  0  0  0  0
  -27.8663  -30.4366   23.9243 H   0  0  0  0  0  0
  -27.2675  -33.3622   26.2074 H   0  0  0  0  0  0
  -28.3846  -32.6888   25.0294 H   0  0  0  0  0  0
  -28.0728  -31.8439   26.5378 H   0  0  0  0  0  0
  -28.2616  -38.0097   24.7507 H   0  0  0  0  0  0
  -28.1061  -36.2631   24.6299 H   0  0  0  0  0  0
  -27.2300  -37.1472   25.8870 H   0  0  0  0  0  0
  -20.9301  -29.8770   21.6956 H   0  0  0  0  0  0
  -26.0187  -38.2877   24.1410 H   0  0  0  0  0  0
  -28.5944  -18.0746   22.6434 H   0  0  0  0  0  0
  -28.0532  -20.3820   22.0382 H   0  0  0  0  0  0
  -32.0416  -18.1655   20.0714 H   0  0  0  0  0  0
  -27.4099  -25.2902   21.3177 H   0  0  0  0  0  0
  -30.6488  -16.5707   23.0153 H   0  0  0  0  0  0
  -31.8988  -16.5013   21.8278 H   0  0  0  0  0  0
  -32.3514  -20.0625   18.7032 H   0  0  0  0  0  0
  -31.2319  -21.2895   18.5679 H   0  0  0  0  0  0
  -30.2821  -22.4175   19.7321 H   0  0  0  0  0  0
  -29.2307  -15.1765   21.7486 H   0  0  0  0  0  0
  -29.9748  -25.4049   19.1158 H   0  0  0  0  0  0
  1 25  1  0  0  0
  1 30  2  0  0  0
  1 83  1  0  0  0
  2  3  1  0  0  0
  2 25  1  0  0  0
  2 86  1  0  0  0
  2 87  1  0  0  0
  3  4  1  0  0  0
  3 88  1  0  0  0
  3 89  1  0  0  0
  4  5  1  0  0  0
  4 90  1  0  0  0
  4 91  1  0  0  0
  5  6  1  0  0  0
  5 26  1  0  0  0
  5 92  1  0  0  0
  6 25  1  0  0  0
  6 93  1  0  0  0
  6 94  1  0  0  0
  7  8  2  0  0  0
  7 26  1  0  0  0
  7 29  1  0  0  0
  8  9  1  0  0  0
  8 22  1  0  0  0
  9 10  1  0  0  0
  9 27  2  0  0  0
 10 11  2  0  0  0
 10 15  1  0  0  0
 11 12  1  0  0  0
 11 95  1  0  0  0
 12 13  2  0  0  0
 12 96  1  0  0  0
 13 14  1  0  0  0
 13 31  1  0  0  0
 14 15  2  0  0  0
 14 97  1  0  0  0
 15 98  1  0  0  0
 16 17  2  0  0  0
 16 21  1  0  0  0
 16 31  1  0  0  0
 17 18  1  0  0  0
 17 99  1  0  0  0
 18 19  2  0  0  0
 18100  1  0  0  0
 19 20  1  0  0  0
 19 24  1  0  0  0
 20 21  2  0  0  0
 20101  1  0  0  0
 21 23  1  0  0  0
 22 28  1  0  0  0
 22 32  2  0  0  0
 26 27  1  0  0  0
 28102  1  0  0  0
 28103  1  0  0  0
 29104  1  0  0  0
 29105  1  0  0  0
 33 34  1  0  0  0
 33 66  1  0  0  0
 33 70  2  0  0  0
 34 36  1  0  0  0
 34 59  1  0  0  0
 34106  1  0  0  0
 35 44  2  0  0  0
 35 45  1  0  0  0
 35 68  1  0  0  0
 36 56  1  0  0  0
 36107  1  0  0  0
 37 39  1  0  0  0
 37 47  1  0  0  0
 37 66  1  0  0  0
 37108  1  0  0  0
 38 43  2  0  0  0
 38 46  1  0  0  0
 38 47  1  0  0  0
 39 64  1  0  0  0
 39 67  2  0  0  0
 40 52  1  0  0  0
 40 53  2  0  0  0
 40 58  1  0  0  0
 41109  1  0  0  0
 41110  1  0  0  0
 41111  1  0  0  0
 41 48  1  0  0  0
 42 43  1  0  0  0
 42 66  1  0  0  0
 42112  1  0  0  0
 42113  1  0  0  0
 43 44  1  0  0  0
 44114  1  0  0  0
 45 46  2  0  0  0
 45115  1  0  0  0
 46116  1  0  0  0
 47117  1  0  0  0
 47118  1  0  0  0
 48 56  1  0  0  0
 48 65  1  0  0  0
 48119  1  0  0  0
 49 50  1  0  0  0
 49 53  1  0  0  0
 49 64  1  0  0  0
 49120  1  0  0  0
 50 51  1  0  0  0
 50121  1  0  0  0
 50122  1  0  0  0
 51 52  1  0  0  0
 51123  1  0  0  0
 51124  1  0  0  0
 52125  1  0  0  0
 52126  1  0  0  0
 53 54  1  0  0  0
 54 55  2  0  0  0
 54127  1  0  0  0
 55 57  1  0  0  0
 55128  1  0  0  0
 56 69  2  0  0  0
 57 58  2  0  0  0
 57129  1  0  0  0
 58130  1  0  0  0
 59 60  1  0  0  0
 59 61  1  0  0  0
 59 62  1  0  0  0
 60131  1  0  0  0
 60132  1  0  0  0
 60133  1  0  0  0
 61134  1  0  0  0
 61135  1  0  0  0
 61136  1  0  0  0
 62137  1  0  0  0
 62138  1  0  0  0
 62139  1  0  0  0
 63 65  1  0  0  0
 63140  1  0  0  0
 63141  1  0  0  0
 63142  1  0  0  0
 64143  1  0  0  0
 65144  1  0  0  0
 68 77  1  0  0  0
 71 72  2  0  0  0
 71 74  1  0  0  0
 71145  1  0  0  0
 72 75  1  0  0  0
 72146  1  0  0  0
 73 74  2  0  0  0
 73 76  1  0  0  0
 73147  1  0  0  0
 74 80  1  0  0  0
 75 76  2  0  0  0
 75 82  1  0  0  0
 76 81  1  0  0  0
 77 78  2  0  0  0
 77148  1  0  0  0
 78 79  1  0  0  0
 78 85  1  0  0  0
 79 82  1  0  0  0
 79 84  2  0  0  0
 80 83  1  0  0  0
 80149  1  0  0  0
 80150  1  0  0  0
 81151  1  0  0  0
 81152  1  0  0  0
 82153  1  0  0  0
 83154  1  0  0  0
 85155  1  0  0  0
M  ISO  4   1 100  68 101  77 101  83 100
M  END
> <chiral flag>
0

> <version>
0

> <s_m_source_file>
/data/baiqing/PycharmProjects/Reinvent-master-3.2/result/LINK_invent/BTK/process_docking_weight1_custom_product_contain_oxygen_bond_distance_aromatic_linkinvent_7_9_3/rearranged_h_0091.sdf

> <i_m_source_file_index>
51

> <r_mmod_Potential_Energy-OPLS-2005>
-272.220458984375

> <r_mmod_Stretch_Energy-OPLS-2005>
39.1281394958496

> <r_mmod_Bend_Energy-OPLS-2005>
103.005958557129

> <r_mmod_Torsional_Energy-OPLS-2005>
206.998809814453

> <r_mmod_Improper_Torsional_Energy-OPLS-2005>
7.0059928894043

> <r_mmod_Van_der_Waal_Energy-OPLS-2005>
165.889175415039

> <r_mmod_Electrostatic_Energy-OPLS-2005>
-577.173645019531

> <r_mmod_Solvation_Energy-OPLS-2005>
-229.468292236328

> <b_mmod_Minimization_Converged-OPLS-2005>
0

> <r_mmod_RMS_Derivative-OPLS-2005>
0.618755042552948

$$$$
51
                    3D
 Structure written by MMmdl.
149157  0  0  1  0            999 V2000
  -30.4874  -14.8238   20.5233 C   0  0  0  0  0  0
  -30.4572  -12.5342   19.4746 C   0  0  0  0  0  0
  -29.5138  -12.5018   18.2475 C   0  0  0  0  0  0
  -28.0465  -12.2817   18.6694 C   0  0  0  0  0  0
  -27.6288  -13.2027   19.8450 C   0  0  2  0  0  0
  -28.6631  -13.1392   20.9843 C   0  0  0  0  0  0
  -25.2439  -13.8093   20.5552 C   0  0  0  0  0  0
  -24.1750  -13.0411   20.9175 C   0  0  0  0  0  0
  -24.6299  -11.6873   20.8737 C   0  0  0  0  0  0
  -23.8988  -10.4284   21.0397 C   0  0  0  0  0  0
  -24.3570   -9.4200   21.9156 C   0  0  0  0  0  0
  -23.6254   -8.2243   22.0745 C   0  0  0  0  0  0
  -22.4238   -8.0261   21.3529 C   0  0  0  0  0  0
  -21.9866   -9.0232   20.4645 C   0  0  0  0  0  0
  -22.7172  -10.2116   20.3057 C   0  0  0  0  0  0
  -21.6846   -6.0701   22.5245 C   0  0  0  0  0  0
  -21.4016   -6.5623   23.8179 C   0  0  0  0  0  0
  -21.3659   -5.6778   24.9146 C   0  0  0  0  0  0
  -21.6045   -4.3042   24.7197 C   0  0  0  0  0  0
  -21.8827   -3.8122   23.4325 C   0  0  0  0  0  0
  -21.9196   -4.6931   22.3376 C   0  0  0  0  0  0
  -22.7780  -13.5189   21.1859 C   0  0  0  0  0  0
  -22.1653   -4.2124   21.0950 F   0  0  0  0  0  0
  -21.5634   -3.4531   25.7712 F   0  0  0  0  0  0
  -29.9449  -13.5608   20.4118 N   0  0  0  0  0  0
  -26.2822  -12.9235   20.3189 N   0  0  0  0  0  0
  -25.9226  -11.6421   20.5759 N   0  0  0  0  0  0
  -22.0437  -12.8225   22.0435 N   0  0  0  0  0  0
  -25.4178  -15.1800   20.3741 N   0  0  0  0  0  0
  -31.6906  -14.9878   20.2954 O   0  0  0  0  0  0
  -21.6632   -6.8841   21.4208 O   0  0  0  0  0  0
  -22.3496  -14.5498   20.6676 O   0  0  0  0  0  0
  -24.6350  -31.8521   23.2002 C   0  0  0  0  0  0
  -25.9155  -32.4744   23.8351 C   0  0  1  0  0  0
  -27.1966  -27.2129   20.1524 C   0  0  0  0  0  0
  -25.5906  -33.8542   24.2274 N   0  0  0  0  0  0
  -23.4371  -30.4808   21.5396 C   0  0  2  0  0  0
  -24.8833  -28.9329   20.1010 C   0  0  0  0  0  0
  -22.7548  -29.4601   22.4847 C   0  0  0  0  0  0
  -18.0346  -28.1330   22.8578 C   0  0  0  0  0  0
  -24.1497  -36.7284   23.2649 C   0  0  0  0  0  0
  -25.9867  -30.7523   21.3902 C   0  0  0  0  0  0
  -26.0565  -29.3750   20.7266 C   0  0  0  0  0  0
  -27.2175  -28.5278   20.7411 C   0  0  0  0  0  0
  -26.0034  -26.8601   19.4805 C   0  0  0  0  0  0
  -24.8698  -27.6924   19.4514 C   0  0  0  0  0  0
  -23.6581  -29.8272   20.1525 C   0  0  0  0  0  0
  -25.4115  -36.3068   24.0347 C   0  0  1  0  0  0
  -20.5966  -28.3706   23.1252 C   0  0  2  0  0  0
  -20.6825  -26.9454   22.5311 C   0  0  0  0  0  0
  -19.5719  -26.6488   21.5188 C   0  0  0  0  0  0
  -18.2026  -26.7806   22.1864 C   0  0  0  0  0  0
  -19.1594  -28.8860   23.2905 C   0  0  0  0  0  0
  -18.9494  -30.1497   23.8858 C   0  0  0  0  0  0
  -17.6474  -30.6604   24.0507 C   0  0  0  0  0  0
  -25.9025  -34.9422   23.5120 C   0  0  0  0  0  0
  -16.5388  -29.9057   23.6314 C   0  0  0  0  0  0
  -16.7323  -28.6432   23.0443 C   0  0  0  0  0  0
  -26.4503  -31.6579   25.0757 C   0  0  0  0  0  0
  -25.3715  -31.3732   26.1473 C   0  0  0  0  0  0
  -27.0373  -30.2991   24.6298 C   0  0  0  0  0  0
  -27.6066  -32.4304   25.7535 C   0  0  0  0  0  0
  -27.5590  -37.1810   24.8478 C   0  0  0  0  0  0
  -21.4249  -29.3076   22.3632 N   0  0  0  0  0  0
  -26.4300  -37.3760   23.9425 N   0  0  0  0  0  0
  -24.7056  -31.0474   22.0986 N   0  0  0  0  0  0
  -23.4253  -28.8111   23.2914 O   0  0  0  0  0  0
  -28.2485  -26.2549   20.2510 O   0  0  0  0  0  0
  -26.5611  -34.8889   22.4694 O   0  0  0  0  0  0
  -23.5476  -32.1322   23.7278 O   0  0  0  0  0  0
  -28.7428  -19.7132   22.4652 C   0  0  0  0  0  0
  -28.4915  -18.4641   23.0697 C   0  0  0  0  0  0
  -29.6794  -18.5403   20.5400 C   0  0  0  0  0  0
  -29.3098  -19.8110   21.1750 C   0  0  0  0  0  0
  -29.4666  -17.2280   21.1560 C   0  0  0  0  0  0
  -28.8253  -17.2522   22.4227 C   0  0  0  0  0  0
  -28.9114  -23.5663   20.4487 C   0  0  0  0  0  0
  -29.6026  -21.2487   20.6158 C   0  0  0  0  0  0
  -27.8862  -24.7786   20.1445 C   0  0  0  0  0  0
  -28.6000  -22.2838   20.6247 N   0  0  0  0  0  0
  -29.5735  -15.8841   20.5066 N   0  0  0  0  0  0
  -30.7359  -21.4152   20.1659 O   0  0  0  0  0  0
  -28.4764  -16.0879   23.0203 F   0  0  0  0  0  0
  -31.4761  -12.7617   19.1547 H   0  0  0  0  0  0
  -30.4987  -11.5641   19.9728 H   0  0  0  0  0  0
  -29.8262  -11.7127   17.5633 H   0  0  0  0  0  0
  -29.5964  -13.4383   17.6946 H   0  0  0  0  0  0
  -27.9509  -11.2392   18.9772 H   0  0  0  0  0  0
  -27.3764  -12.4044   17.8171 H   0  0  0  0  0  0
  -27.6185  -14.2156   19.4445 H   0  0  0  0  0  0
  -28.7375  -12.1274   21.3903 H   0  0  0  0  0  0
  -28.3679  -13.7812   21.8158 H   0  0  0  0  0  0
  -25.2716   -9.5699   22.4711 H   0  0  0  0  0  0
  -23.9968   -7.4671   22.7500 H   0  0  0  0  0  0
  -21.0787   -8.8764   19.8973 H   0  0  0  0  0  0
  -22.3609  -10.9668   19.6196 H   0  0  0  0  0  0
  -21.2016   -7.6141   23.9664 H   0  0  0  0  0  0
  -21.1469   -6.0515   25.9046 H   0  0  0  0  0  0
  -22.0613   -2.7596   23.2822 H   0  0  0  0  0  0
  -22.4078  -11.9910   22.4833 H   0  0  0  0  0  0
  -21.1117  -13.1314   22.2758 H   0  0  0  0  0  0
  -24.6325  -15.8192   20.4337 H   0  0  0  0  0  0
  -26.2207  -15.5922   19.9175 H   0  0  0  0  0  0
  -26.7240  -32.5390   23.1108 H   0  0  0  0  0  0
  -25.0084  -33.9692   25.0446 H   0  0  0  0  0  0
  -22.7389  -31.3076   21.3996 H   0  0  0  0  0  0
  -23.3743  -35.9634   23.3310 H   0  0  0  0  0  0
  -24.3602  -36.8885   22.2066 H   0  0  0  0  0  0
  -23.7260  -37.6500   23.6639 H   0  0  0  0  0  0
  -26.1406  -31.5111   20.6221 H   0  0  0  0  0  0
  -26.8596  -30.7953   22.0286 H   0  0  0  0  0  0
  -28.1073  -28.8489   21.2682 H   0  0  0  0  0  0
  -25.8949  -25.9080   18.9848 H   0  0  0  0  0  0
  -23.9822  -27.3619   18.9301 H   0  0  0  0  0  0
  -23.7901  -30.6075   19.4019 H   0  0  0  0  0  0
  -22.7709  -29.2732   19.8391 H   0  0  0  0  0  0
  -25.1300  -36.1937   25.0839 H   0  0  0  0  0  0
  -21.0129  -28.3210   24.1350 H   0  0  0  0  0  0
  -20.5852  -26.2294   23.3489 H   0  0  0  0  0  0
  -21.6637  -26.7488   22.0996 H   0  0  0  0  0  0
  -19.6895  -25.6461   21.0990 H   0  0  0  0  0  0
  -19.6426  -27.3571   20.6903 H   0  0  0  0  0  0
  -17.4112  -26.6301   21.4491 H   0  0  0  0  0  0
  -18.0761  -26.0017   22.9400 H   0  0  0  0  0  0
  -19.7944  -30.7333   24.2254 H   0  0  0  0  0  0
  -17.5005  -31.6338   24.5023 H   0  0  0  0  0  0
  -15.5382  -30.2948   23.7619 H   0  0  0  0  0  0
  -15.8724  -28.0690   22.7265 H   0  0  0  0  0  0
  -24.5886  -30.7091   25.7801 H   0  0  0  0  0  0
  -24.8891  -32.2883   26.4892 H   0  0  0  0  0  0
  -25.7987  -30.8902   27.0270 H   0  0  0  0  0  0
  -26.2981  -29.6728   24.1286 H   0  0  0  0  0  0
  -27.4011  -29.7270   25.4847 H   0  0  0  0  0  0
  -27.8875  -30.4281   23.9604 H   0  0  0  0  0  0
  -27.2708  -33.3617   26.2116 H   0  0  0  0  0  0
  -28.3877  -32.6845   25.0355 H   0  0  0  0  0  0
  -28.0746  -31.8421   26.5447 H   0  0  0  0  0  0
  -28.2619  -38.0096   24.7474 H   0  0  0  0  0  0
  -28.1058  -36.2609   24.6337 H   0  0  0  0  0  0
  -27.2294  -37.1527   25.8879 H   0  0  0  0  0  0
  -20.9435  -29.8824   21.6862 H   0  0  0  0  0  0
  -26.0173  -38.2850   24.1348 H   0  0  0  0  0  0
  -28.5006  -20.6159   23.0129 H   0  0  0  0  0  0
  -28.0221  -18.4377   24.0484 H   0  0  0  0  0  0
  -30.1193  -18.5679   19.5516 H   0  0  0  0  0  0
  -29.9515  -23.8953   20.4669 H   0  0  0  0  0  0
  -26.9906  -24.5970   20.7447 H   0  0  0  0  0  0
  -27.5822  -24.6101   19.1087 H   0  0  0  0  0  0
  -28.6530  -15.5023   20.3555 H   0  0  0  0  0  0
  1 25  1  0  0  0
  1 30  2  0  0  0
  1 81  1  0  0  0
  2  3  1  0  0  0
  2 25  1  0  0  0
  2 84  1  0  0  0
  2 85  1  0  0  0
  3  4  1  0  0  0
  3 86  1  0  0  0
  3 87  1  0  0  0
  4  5  1  0  0  0
  4 88  1  0  0  0
  4 89  1  0  0  0
  5  6  1  0  0  0
  5 26  1  0  0  0
  5 90  1  0  0  0
  6 25  1  0  0  0
  6 91  1  0  0  0
  6 92  1  0  0  0
  7  8  2  0  0  0
  7 26  1  0  0  0
  7 29  1  0  0  0
  8  9  1  0  0  0
  8 22  1  0  0  0
  9 10  1  0  0  0
  9 27  2  0  0  0
 10 11  2  0  0  0
 10 15  1  0  0  0
 11 12  1  0  0  0
 11 93  1  0  0  0
 12 13  2  0  0  0
 12 94  1  0  0  0
 13 14  1  0  0  0
 13 31  1  0  0  0
 14 15  2  0  0  0
 14 95  1  0  0  0
 15 96  1  0  0  0
 16 17  2  0  0  0
 16 21  1  0  0  0
 16 31  1  0  0  0
 17 18  1  0  0  0
 17 97  1  0  0  0
 18 19  2  0  0  0
 18 98  1  0  0  0
 19 20  1  0  0  0
 19 24  1  0  0  0
 20 21  2  0  0  0
 20 99  1  0  0  0
 21 23  1  0  0  0
 22 28  1  0  0  0
 22 32  2  0  0  0
 26 27  1  0  0  0
 28100  1  0  0  0
 28101  1  0  0  0
 29102  1  0  0  0
 29103  1  0  0  0
 33 34  1  0  0  0
 33 66  1  0  0  0
 33 70  2  0  0  0
 34 36  1  0  0  0
 34 59  1  0  0  0
 34104  1  0  0  0
 35 44  2  0  0  0
 35 45  1  0  0  0
 35 68  1  0  0  0
 36 56  1  0  0  0
 36105  1  0  0  0
 37 39  1  0  0  0
 37 47  1  0  0  0
 37 66  1  0  0  0
 37106  1  0  0  0
 38 43  2  0  0  0
 38 46  1  0  0  0
 38 47  1  0  0  0
 39 64  1  0  0  0
 39 67  2  0  0  0
 40 52  1  0  0  0
 40 53  2  0  0  0
 40 58  1  0  0  0
 41107  1  0  0  0
 41108  1  0  0  0
 41109  1  0  0  0
 41 48  1  0  0  0
 42 43  1  0  0  0
 42 66  1  0  0  0
 42110  1  0  0  0
 42111  1  0  0  0
 43 44  1  0  0  0
 44112  1  0  0  0
 45 46  2  0  0  0
 45113  1  0  0  0
 46114  1  0  0  0
 47115  1  0  0  0
 47116  1  0  0  0
 48 56  1  0  0  0
 48 65  1  0  0  0
 48117  1  0  0  0
 49 50  1  0  0  0
 49 53  1  0  0  0
 49 64  1  0  0  0
 49118  1  0  0  0
 50 51  1  0  0  0
 50119  1  0  0  0
 50120  1  0  0  0
 51 52  1  0  0  0
 51121  1  0  0  0
 51122  1  0  0  0
 52123  1  0  0  0
 52124  1  0  0  0
 53 54  1  0  0  0
 54 55  2  0  0  0
 54125  1  0  0  0
 55 57  1  0  0  0
 55126  1  0  0  0
 56 69  2  0  0  0
 57 58  2  0  0  0
 57127  1  0  0  0
 58128  1  0  0  0
 59 60  1  0  0  0
 59 61  1  0  0  0
 59 62  1  0  0  0
 60129  1  0  0  0
 60130  1  0  0  0
 60131  1  0  0  0
 61132  1  0  0  0
 61133  1  0  0  0
 61134  1  0  0  0
 62135  1  0  0  0
 62136  1  0  0  0
 62137  1  0  0  0
 63 65  1  0  0  0
 63138  1  0  0  0
 63139  1  0  0  0
 63140  1  0  0  0
 64141  1  0  0  0
 65142  1  0  0  0
 68 79  1  0  0  0
 71 72  2  0  0  0
 71 74  1  0  0  0
 71143  1  0  0  0
 72 76  1  0  0  0
 72144  1  0  0  0
 73 74  2  0  0  0
 73 75  1  0  0  0
 73145  1  0  0  0
 74 78  1  0  0  0
 75 76  2  0  0  0
 75 81  1  0  0  0
 76 83  1  0  0  0
 77 79  1  0  0  0
 77 80  2  0  0  0
 77146  1  0  0  0
 78 80  1  0  0  0
 78 82  2  0  0  0
 79147  1  0  0  0
 79148  1  0  0  0
 81149  1  0  0  0
M  ISO  4   1 100  68 101  79 101  81 100
M  END
> <chiral flag>
0

> <version>
0

> <s_m_source_file>
/data/baiqing/PycharmProjects/Reinvent-master-3.2/result/LINK_invent/BTK/process_docking_weight1_custom_product_contain_oxygen_bond_distance_aromatic_linkinvent_7_9_3/rearranged_h_0091.sdf

> <i_m_source_file_index>
52

> <r_mmod_Potential_Energy-OPLS-2005>
242.764007568359

> <r_mmod_Stretch_Energy-OPLS-2005>
148.506866455078

> <r_mmod_Bend_Energy-OPLS-2005>
177.832885742188

> <r_mmod_Torsional_Energy-OPLS-2005>
260.489074707031

> <r_mmod_Improper_Torsional_Energy-OPLS-2005>
16.1272506713867

> <r_mmod_Van_der_Waal_Energy-OPLS-2005>
139.863327026367

> <r_mmod_Electrostatic_Energy-OPLS-2005>
-430.719543457031

> <r_mmod_Solvation_Energy-OPLS-2005>
-207.027496337891

> <b_mmod_Minimization_Converged-OPLS-2005>
0

> <r_mmod_RMS_Derivative-OPLS-2005>
6.60615682601929

$$$$
52
                    3D
 Structure written by MMmdl.
150158  0  0  1  0            999 V2000
  -30.6227  -14.8209   20.4383 C   0  0  0  0  0  0
  -30.4280  -12.5029   19.4892 C   0  0  0  0  0  0
  -29.5120  -12.5084   18.2464 C   0  0  0  0  0  0
  -28.0412  -12.3250   18.6615 C   0  0  0  0  0  0
  -27.6357  -13.2449   19.8447 C   0  0  2  0  0  0
  -28.6817  -13.2353   20.9815 C   0  0  0  0  0  0
  -25.2480  -13.8221   20.5703 C   0  0  0  0  0  0
  -24.1791  -13.0443   20.9213 C   0  0  0  0  0  0
  -24.6400  -11.6928   20.8754 C   0  0  0  0  0  0
  -23.9081  -10.4294   21.0405 C   0  0  0  0  0  0
  -24.3627   -9.4209   21.9183 C   0  0  0  0  0  0
  -23.6297   -8.2248   22.0757 C   0  0  0  0  0  0
  -22.4281   -8.0283   21.3546 C   0  0  0  0  0  0
  -21.9918   -9.0257   20.4649 C   0  0  0  0  0  0
  -22.7252  -10.2134   20.3052 C   0  0  0  0  0  0
  -21.6854   -6.0736   22.5274 C   0  0  0  0  0  0
  -21.4016   -6.5637   23.8210 C   0  0  0  0  0  0
  -21.3660   -5.6790   24.9173 C   0  0  0  0  0  0
  -21.6041   -4.3051   24.7225 C   0  0  0  0  0  0
  -21.8824   -3.8145   23.4344 C   0  0  0  0  0  0
  -21.9197   -4.6962   22.3401 C   0  0  0  0  0  0
  -22.7805  -13.5212   21.1863 C   0  0  0  0  0  0
  -22.1664   -4.2143   21.0978 F   0  0  0  0  0  0
  -21.5629   -3.4539   25.7741 F   0  0  0  0  0  0
  -29.9739  -13.5983   20.3874 N   0  0  0  0  0  0
  -26.2917  -12.9453   20.3285 N   0  0  0  0  0  0
  -25.9334  -11.6581   20.5762 N   0  0  0  0  0  0
  -22.0459  -12.8210   22.0426 N   0  0  0  0  0  0
  -25.4136  -15.1945   20.4111 N   0  0  0  0  0  0
  -31.8200  -14.8330   20.1476 O   0  0  0  0  0  0
  -21.6646   -6.8876   21.4237 O   0  0  0  0  0  0
  -22.3488  -14.5516   20.6705 O   0  0  0  0  0  0
  -24.6359  -31.8513   23.1951 C   0  0  0  0  0  0
  -25.9161  -32.4732   23.8314 C   0  0  1  0  0  0
  -27.2224  -27.2206   20.1392 C   0  0  0  0  0  0
  -25.5943  -33.8529   24.2243 N   0  0  0  0  0  0
  -23.4368  -30.4714   21.5388 C   0  0  2  0  0  0
  -24.8913  -28.9174   20.1062 C   0  0  0  0  0  0
  -22.7535  -29.4570   22.4877 C   0  0  0  0  0  0
  -18.0294  -28.1389   22.8490 C   0  0  0  0  0  0
  -24.1482  -36.7263   23.2640 C   0  0  0  0  0  0
  -25.9872  -30.7509   21.3851 C   0  0  0  0  0  0
  -26.0644  -29.3699   20.7267 C   0  0  0  0  0  0
  -27.2356  -28.5331   20.7375 C   0  0  0  0  0  0
  -26.0338  -26.8584   19.4704 C   0  0  0  0  0  0
  -24.8844  -27.6714   19.4628 C   0  0  0  0  0  0
  -23.6607  -29.8048   20.1555 C   0  0  0  0  0  0
  -25.4110  -36.3056   24.0335 C   0  0  1  0  0  0
  -20.5904  -28.3704   23.1254 C   0  0  2  0  0  0
  -20.6769  -26.9414   22.5410 C   0  0  0  0  0  0
  -19.5739  -26.6382   21.5214 C   0  0  0  0  0  0
  -18.1931  -26.7927   22.1635 C   0  0  0  0  0  0
  -19.1548  -28.8871   23.2859 C   0  0  0  0  0  0
  -18.9470  -30.1468   23.8874 C   0  0  0  0  0  0
  -17.6465  -30.6590   24.0571 C   0  0  0  0  0  0
  -25.9052  -34.9425   23.5093 C   0  0  0  0  0  0
  -16.5355  -29.9084   23.6345 C   0  0  0  0  0  0
  -16.7278  -28.6506   23.0366 C   0  0  0  0  0  0
  -26.4514  -31.6565   25.0718 C   0  0  0  0  0  0
  -25.3733  -31.3748   26.1444 C   0  0  0  0  0  0
  -27.0372  -30.2969   24.6246 C   0  0  0  0  0  0
  -27.6049  -32.4322   25.7498 C   0  0  0  0  0  0
  -27.5565  -37.1801   24.8475 C   0  0  0  0  0  0
  -21.4233  -29.3031   22.3633 N   0  0  0  0  0  0
  -26.4281  -37.3762   23.9415 N   0  0  0  0  0  0
  -24.7055  -31.0437   22.0953 N   0  0  0  0  0  0
  -23.4218  -28.8108   23.2991 O   0  0  0  0  0  0
  -28.2250  -26.2098   20.2266 O   0  0  0  0  0  0
  -26.5624  -34.8911   22.4663 O   0  0  0  0  0  0
  -23.5495  -32.1348   23.7216 O   0  0  0  0  0  0
  -27.2014  -22.9359   21.8312 C   0  0  0  0  0  0
  -32.0665  -19.1578   20.0665 C   0  0  0  0  0  0
  -31.1751  -20.2420   20.1614 C   0  0  0  0  0  0
  -31.6416  -17.8226   20.2146 C   0  0  0  0  0  0
  -29.8019  -20.0469   20.4226 C   0  0  0  0  0  0
  -30.2906  -17.4777   20.4687 C   0  0  0  0  0  0
  -29.3870  -18.6382   20.5779 C   0  0  0  0  0  0
  -27.7990  -24.9933   20.8667 C   0  0  0  0  0  0
  -28.0794  -23.6108   20.9296 C   0  0  0  0  0  0
  -29.0721  -22.6387   20.3071 C   0  0  0  0  0  0
  -26.4876  -22.3700   22.5518 N   0  0  0  0  0  0
  -28.9248  -21.2606   20.6035 N   0  0  0  0  0  0
  -29.8991  -16.0174   20.6076 N   0  0  0  0  0  0
  -29.9690  -23.0230   19.5513 O   0  0  0  0  0  0
  -28.0817  -18.3921   20.8457 F   0  0  0  0  0  0
  -31.4684  -12.6165   19.1806 H   0  0  0  0  0  0
  -30.3777  -11.5420   20.0043 H   0  0  0  0  0  0
  -29.8069  -11.7153   17.5574 H   0  0  0  0  0  0
  -29.6301  -13.4479   17.7036 H   0  0  0  0  0  0
  -27.9116  -11.2795   18.9462 H   0  0  0  0  0  0
  -27.3823  -12.4912   17.8084 H   0  0  0  0  0  0
  -27.6131  -14.2559   19.4372 H   0  0  0  0  0  0
  -28.7363  -12.2545   21.4561 H   0  0  0  0  0  0
  -28.4056  -13.9436   21.7642 H   0  0  0  0  0  0
  -25.2768   -9.5686   22.4763 H   0  0  0  0  0  0
  -24.0000   -7.4643   22.7482 H   0  0  0  0  0  0
  -21.0849   -8.8780   19.8958 H   0  0  0  0  0  0
  -22.3709  -10.9672   19.6164 H   0  0  0  0  0  0
  -21.2009   -7.6146   23.9708 H   0  0  0  0  0  0
  -21.1474   -6.0523   25.9075 H   0  0  0  0  0  0
  -22.0603   -2.7604   23.2851 H   0  0  0  0  0  0
  -22.4080  -11.9871   22.4805 H   0  0  0  0  0  0
  -21.1072  -13.1228   22.2626 H   0  0  0  0  0  0
  -24.6425  -15.8440   20.5230 H   0  0  0  0  0  0
  -26.2582  -15.6413   20.0779 H   0  0  0  0  0  0
  -26.7225  -32.5381   23.1053 H   0  0  0  0  0  0
  -25.0103  -33.9660   25.0398 H   0  0  0  0  0  0
  -22.7335  -31.2943   21.3890 H   0  0  0  0  0  0
  -23.3742  -35.9598   23.3322 H   0  0  0  0  0  0
  -24.3545  -36.8856   22.2046 H   0  0  0  0  0  0
  -23.7252  -37.6474   23.6649 H   0  0  0  0  0  0
  -26.1324  -31.5079   20.6134 H   0  0  0  0  0  0
  -26.8611  -30.7998   22.0232 H   0  0  0  0  0  0
  -28.1238  -28.8629   21.2586 H   0  0  0  0  0  0
  -25.9778  -25.8943   18.9851 H   0  0  0  0  0  0
  -23.9919  -27.3210   18.9637 H   0  0  0  0  0  0
  -23.7831  -30.5810   19.3986 H   0  0  0  0  0  0
  -22.7815  -29.2347   19.8510 H   0  0  0  0  0  0
  -25.1294  -36.1890   25.0831 H   0  0  0  0  0  0
  -21.0002  -28.3287   24.1375 H   0  0  0  0  0  0
  -20.5652  -26.2311   23.3612 H   0  0  0  0  0  0
  -21.6631  -26.7414   22.1212 H   0  0  0  0  0  0
  -19.6888  -25.6297   21.1239 H   0  0  0  0  0  0
  -19.6674  -27.3190   20.6746 H   0  0  0  0  0  0
  -17.4190  -26.6680   21.4044 H   0  0  0  0  0  0
  -18.0336  -26.0061   22.9022 H   0  0  0  0  0  0
  -19.7941  -30.7308   24.2214 H   0  0  0  0  0  0
  -17.5018  -31.6268   24.5178 H   0  0  0  0  0  0
  -15.5356  -30.2988   23.7680 H   0  0  0  0  0  0
  -15.8673  -28.0829   22.7091 H   0  0  0  0  0  0
  -24.5899  -30.7094   25.7790 H   0  0  0  0  0  0
  -24.8936  -32.2930   26.4847 H   0  0  0  0  0  0
  -25.8051  -30.8948   27.0236 H   0  0  0  0  0  0
  -26.2976  -29.6704   24.1245 H   0  0  0  0  0  0
  -27.3995  -29.7246   25.4791 H   0  0  0  0  0  0
  -27.8879  -30.4201   23.9539 H   0  0  0  0  0  0
  -27.2650  -33.3643   26.2030 H   0  0  0  0  0  0
  -28.3903  -32.6860   25.0362 H   0  0  0  0  0  0
  -28.0676  -31.8478   26.5463 H   0  0  0  0  0  0
  -28.2621  -38.0059   24.7487 H   0  0  0  0  0  0
  -28.1030  -36.2597   24.6355 H   0  0  0  0  0  0
  -27.2276  -37.1518   25.8876 H   0  0  0  0  0  0
  -20.9424  -29.8772   21.6846 H   0  0  0  0  0  0
  -26.0153  -38.2832   24.1397 H   0  0  0  0  0  0
  -33.1138  -19.3584   19.8876 H   0  0  0  0  0  0
  -31.5853  -21.2355   20.0603 H   0  0  0  0  0  0
  -32.4128  -17.0757   20.1305 H   0  0  0  0  0  0
  -26.9811  -25.2732   21.5187 H   0  0  0  0  0  0
  -28.0692  -21.0372   21.0943 H   0  0  0  0  0  0
  -28.9192  -15.8731   20.8001 H   0  0  0  0  0  0
  1 25  1  0  0  0
  1 30  2  0  0  0
  1 83  1  0  0  0
  2  3  1  0  0  0
  2 25  1  0  0  0
  2 86  1  0  0  0
  2 87  1  0  0  0
  3  4  1  0  0  0
  3 88  1  0  0  0
  3 89  1  0  0  0
  4  5  1  0  0  0
  4 90  1  0  0  0
  4 91  1  0  0  0
  5  6  1  0  0  0
  5 26  1  0  0  0
  5 92  1  0  0  0
  6 25  1  0  0  0
  6 93  1  0  0  0
  6 94  1  0  0  0
  7  8  2  0  0  0
  7 26  1  0  0  0
  7 29  1  0  0  0
  8  9  1  0  0  0
  8 22  1  0  0  0
  9 10  1  0  0  0
  9 27  2  0  0  0
 10 11  2  0  0  0
 10 15  1  0  0  0
 11 12  1  0  0  0
 11 95  1  0  0  0
 12 13  2  0  0  0
 12 96  1  0  0  0
 13 14  1  0  0  0
 13 31  1  0  0  0
 14 15  2  0  0  0
 14 97  1  0  0  0
 15 98  1  0  0  0
 16 17  2  0  0  0
 16 21  1  0  0  0
 16 31  1  0  0  0
 17 18  1  0  0  0
 17 99  1  0  0  0
 18 19  2  0  0  0
 18100  1  0  0  0
 19 20  1  0  0  0
 19 24  1  0  0  0
 20 21  2  0  0  0
 20101  1  0  0  0
 21 23  1  0  0  0
 22 28  1  0  0  0
 22 32  2  0  0  0
 26 27  1  0  0  0
 28102  1  0  0  0
 28103  1  0  0  0
 29104  1  0  0  0
 29105  1  0  0  0
 33 34  1  0  0  0
 33 66  1  0  0  0
 33 70  2  0  0  0
 34 36  1  0  0  0
 34 59  1  0  0  0
 34106  1  0  0  0
 35 44  2  0  0  0
 35 45  1  0  0  0
 35 68  1  0  0  0
 36 56  1  0  0  0
 36107  1  0  0  0
 37 39  1  0  0  0
 37 47  1  0  0  0
 37 66  1  0  0  0
 37108  1  0  0  0
 38 43  2  0  0  0
 38 46  1  0  0  0
 38 47  1  0  0  0
 39 64  1  0  0  0
 39 67  2  0  0  0
 40 52  1  0  0  0
 40 53  2  0  0  0
 40 58  1  0  0  0
 41109  1  0  0  0
 41110  1  0  0  0
 41111  1  0  0  0
 41 48  1  0  0  0
 42 43  1  0  0  0
 42 66  1  0  0  0
 42112  1  0  0  0
 42113  1  0  0  0
 43 44  1  0  0  0
 44114  1  0  0  0
 45 46  2  0  0  0
 45115  1  0  0  0
 46116  1  0  0  0
 47117  1  0  0  0
 47118  1  0  0  0
 48 56  1  0  0  0
 48 65  1  0  0  0
 48119  1  0  0  0
 49 50  1  0  0  0
 49 53  1  0  0  0
 49 64  1  0  0  0
 49120  1  0  0  0
 50 51  1  0  0  0
 50121  1  0  0  0
 50122  1  0  0  0
 51 52  1  0  0  0
 51123  1  0  0  0
 51124  1  0  0  0
 52125  1  0  0  0
 52126  1  0  0  0
 53 54  1  0  0  0
 54 55  2  0  0  0
 54127  1  0  0  0
 55 57  1  0  0  0
 55128  1  0  0  0
 56 69  2  0  0  0
 57 58  2  0  0  0
 57129  1  0  0  0
 58130  1  0  0  0
 59 60  1  0  0  0
 59 61  1  0  0  0
 59 62  1  0  0  0
 60131  1  0  0  0
 60132  1  0  0  0
 60133  1  0  0  0
 61134  1  0  0  0
 61135  1  0  0  0
 61136  1  0  0  0
 62137  1  0  0  0
 62138  1  0  0  0
 62139  1  0  0  0
 63 65  1  0  0  0
 63140  1  0  0  0
 63141  1  0  0  0
 63142  1  0  0  0
 64143  1  0  0  0
 65144  1  0  0  0
 68 78  1  0  0  0
 71 79  1  0  0  0
 71 81  3  0  0  0
 72 73  2  0  0  0
 72 74  1  0  0  0
 72145  1  0  0  0
 73 75  1  0  0  0
 73146  1  0  0  0
 74 76  2  0  0  0
 74147  1  0  0  0
 75 77  2  0  0  0
 75 82  1  0  0  0
 76 77  1  0  0  0
 76 83  1  0  0  0
 77 85  1  0  0  0
 78 79  2  0  0  0
 78148  1  0  0  0
 79 80  1  0  0  0
 80 82  1  0  0  0
 80 84  2  0  0  0
 82149  1  0  0  0
 83150  1  0  0  0
M  ISO  4   1 100  68 101  78 101  83 100
M  END
> <chiral flag>
0

> <version>
0

> <s_m_source_file>
/data/baiqing/PycharmProjects/Reinvent-master-3.2/result/LINK_invent/BTK/process_docking_weight1_custom_product_contain_oxygen_bond_distance_aromatic_linkinvent_7_9_3/rearranged_h_0091.sdf

> <i_m_source_file_index>
53

> <r_mmod_Potential_Energy-OPLS-2005>
310.606231689453

> <r_mmod_Stretch_Energy-OPLS-2005>
168.625671386719

> <r_mmod_Bend_Energy-OPLS-2005>
249.166641235352

> <r_mmod_Torsional_Energy-OPLS-2005>
229.348526000977

> <r_mmod_Improper_Torsional_Energy-OPLS-2005>
4.91519546508789

> <r_mmod_Van_der_Waal_Energy-OPLS-2005>
150.1611328125

> <r_mmod_Electrostatic_Energy-OPLS-2005>
-396.493072509766

> <r_mmod_Solvation_Energy-OPLS-2005>
-224.398208618164

> <b_mmod_Minimization_Converged-OPLS-2005>
0

> <r_mmod_RMS_Derivative-OPLS-2005>
1.69310259819031

$$$$
53
                    3D
 Structure written by MMmdl.
147155  0  0  1  0            999 V2000
  -30.3651  -15.4731   20.3442 C   0  0  0  0  0  0
  -30.4293  -12.9668   19.4998 C   0  0  0  0  0  0
  -29.5373  -12.6103   18.2831 C   0  0  0  0  0  0
  -28.0993  -12.2932   18.7296 C   0  0  0  0  0  0
  -27.5951  -13.2936   19.7975 C   0  0  2  0  0  0
  -28.6285  -13.5714   20.9083 C   0  0  0  0  0  0
  -25.2383  -13.8300   20.5809 C   0  0  0  0  0  0
  -24.1744  -13.0465   20.9307 C   0  0  0  0  0  0
  -24.6416  -11.6972   20.8813 C   0  0  0  0  0  0
  -23.9098  -10.4314   21.0428 C   0  0  0  0  0  0
  -24.3639   -9.4211   21.9187 C   0  0  0  0  0  0
  -23.6308   -8.2247   22.0753 C   0  0  0  0  0  0
  -22.4291   -8.0289   21.3543 C   0  0  0  0  0  0
  -21.9944   -9.0271   20.4644 C   0  0  0  0  0  0
  -22.7286  -10.2141   20.3053 C   0  0  0  0  0  0
  -21.6858   -6.0742   22.5277 C   0  0  0  0  0  0
  -21.4019   -6.5634   23.8213 C   0  0  0  0  0  0
  -21.3665   -5.6785   24.9173 C   0  0  0  0  0  0
  -21.6052   -4.3046   24.7218 C   0  0  0  0  0  0
  -21.8816   -3.8150   23.4329 C   0  0  0  0  0  0
  -21.9190   -4.6975   22.3396 C   0  0  0  0  0  0
  -22.7748  -13.5189   21.1923 C   0  0  0  0  0  0
  -22.1655   -4.2155   21.0972 F   0  0  0  0  0  0
  -21.5615   -3.4527   25.7725 F   0  0  0  0  0  0
  -29.8146  -14.1422   20.2399 N   0  0  0  0  0  0
  -26.2782  -12.9586   20.3188 N   0  0  0  0  0  0
  -25.9344  -11.6663   20.5686 N   0  0  0  0  0  0
  -22.0379  -12.8187   22.0461 N   0  0  0  0  0  0
  -25.4080  -15.2035   20.4288 N   0  0  0  0  0  0
  -31.6054  -15.4113   20.2893 O   0  0  0  0  0  0
  -21.6637   -6.8898   21.4243 O   0  0  0  0  0  0
  -22.3432  -14.5485   20.6735 O   0  0  0  0  0  0
  -24.6729  -31.8092   23.1594 C   0  0  0  0  0  0
  -25.9355  -32.4522   23.8107 C   0  0  1  0  0  0
  -27.2177  -26.7902   20.2093 C   0  0  0  0  0  0
  -25.5967  -33.8345   24.2013 N   0  0  0  0  0  0
  -23.4955  -30.4126   21.5127 C   0  0  2  0  0  0
  -24.9467  -28.7643   20.1294 C   0  0  0  0  0  0
  -22.7708  -29.4356   22.4757 C   0  0  0  0  0  0
  -18.0327  -28.1398   22.8467 C   0  0  0  0  0  0
  -24.1493  -36.7187   23.2655 C   0  0  0  0  0  0
  -26.0716  -30.5673   21.4121 C   0  0  0  0  0  0
  -26.1342  -29.1371   20.7740 C   0  0  0  0  0  0
  -27.2602  -28.1743   20.7857 C   0  0  0  0  0  0
  -25.9995  -26.6013   19.5170 C   0  0  0  0  0  0
  -24.9100  -27.5157   19.4856 C   0  0  0  0  0  0
  -23.7443  -29.7128   20.1479 C   0  0  0  0  0  0
  -25.4142  -36.2948   24.0302 C   0  0  1  0  0  0
  -20.5953  -28.3760   23.1175 C   0  0  2  0  0  0
  -20.6789  -26.9434   22.5401 C   0  0  0  0  0  0
  -19.5764  -26.6371   21.5209 C   0  0  0  0  0  0
  -18.1954  -26.7929   22.1622 C   0  0  0  0  0  0
  -19.1587  -28.8903   23.2801 C   0  0  0  0  0  0
  -18.9493  -30.1487   23.8845 C   0  0  0  0  0  0
  -17.6483  -30.6595   24.0548 C   0  0  0  0  0  0
  -25.9113  -34.9328   23.5004 C   0  0  0  0  0  0
  -16.5374  -29.9077   23.6338 C   0  0  0  0  0  0
  -16.7304  -28.6486   23.0375 C   0  0  0  0  0  0
  -26.4560  -31.6509   25.0690 C   0  0  0  0  0  0
  -25.3652  -31.3790   26.1329 C   0  0  0  0  0  0
  -27.0485  -30.2858   24.6520 C   0  0  0  0  0  0
  -27.6039  -32.4333   25.7490 C   0  0  0  0  0  0
  -27.5571  -37.1760   24.8476 C   0  0  0  0  0  0
  -21.4364  -29.3034   22.3523 N   0  0  0  0  0  0
  -26.4286  -37.3684   23.9406 N   0  0  0  0  0  0
  -24.7701  -30.9614   22.0803 N   0  0  0  0  0  0
  -23.4191  -28.7954   23.3069 O   0  0  0  0  0  0
  -28.2440  -25.6672   20.1185 O   0  0  0  0  0  0
  -26.5758  -34.8884   22.4623 O   0  0  0  0  0  0
  -23.5767  -32.1138   23.6590 O   0  0  0  0  0  0
  -28.1897  -22.3959   18.6844 C   0  0  0  0  0  0
  -28.2663  -21.1276   18.0372 C   0  0  0  0  0  0
  -28.9679  -21.1973   20.6222 C   0  0  0  0  0  0
  -29.1212  -19.7609   19.9737 C   0  0  0  0  0  0
  -28.4839  -22.5913   20.0494 C   0  0  0  0  0  0
  -28.6882  -19.8870   18.6152 C   0  0  0  0  0  0
  -29.8562  -18.2798   20.5010 C   0  0  0  0  0  0
  -28.6859  -18.7953   17.7386 N   0  0  0  0  0  0
  -28.1406  -24.0203   20.6599 N   0  0  0  0  0  0
  -29.6144  -16.7986   20.2438 N   0  0  0  0  0  0
  -30.8137  -18.5079   21.2470 O   0  0  0  0  0  0
  -31.4299  -13.2072   19.1428 H   0  0  0  0  0  0
  -30.5508  -12.1015   20.1540 H   0  0  0  0  0  0
  -29.9614  -11.7696   17.7308 H   0  0  0  0  0  0
  -29.5265  -13.4544   17.5929 H   0  0  0  0  0  0
  -28.0977  -11.2865   19.1463 H   0  0  0  0  0  0
  -27.4281  -12.2708   17.8700 H   0  0  0  0  0  0
  -27.4692  -14.2279   19.2490 H   0  0  0  0  0  0
  -28.8587  -12.6741   21.4855 H   0  0  0  0  0  0
  -28.2333  -14.3049   21.6134 H   0  0  0  0  0  0
  -25.2778   -9.5660   22.4770 H   0  0  0  0  0  0
  -24.0010   -7.4617   22.7473 H   0  0  0  0  0  0
  -21.0867   -8.8804   19.8953 H   0  0  0  0  0  0
  -22.3766  -10.9674   19.6153 H   0  0  0  0  0  0
  -21.2025   -7.6146   23.9729 H   0  0  0  0  0  0
  -21.1491   -6.0501   25.9072 H   0  0  0  0  0  0
  -22.0606   -2.7611   23.2827 H   0  0  0  0  0  0
  -22.3987  -11.9828   22.4839 H   0  0  0  0  0  0
  -21.0992  -13.1234   22.2656 H   0  0  0  0  0  0
  -24.6513  -15.8711   20.5325 H   0  0  0  0  0  0
  -26.2635  -15.6292   20.1005 H   0  0  0  0  0  0
  -26.7425  -32.5018   23.0814 H   0  0  0  0  0  0
  -25.0004  -33.9382   25.0090 H   0  0  0  0  0  0
  -22.8153  -31.2467   21.3276 H   0  0  0  0  0  0
  -23.3768  -35.9503   23.3295 H   0  0  0  0  0  0
  -24.3563  -36.8851   22.2072 H   0  0  0  0  0  0
  -23.7236  -37.6363   23.6725 H   0  0  0  0  0  0
  -26.2669  -31.2856   20.6160 H   0  0  0  0  0  0
  -26.9263  -30.6361   22.0714 H   0  0  0  0  0  0
  -28.1702  -28.4696   21.2873 H   0  0  0  0  0  0
  -25.8719  -25.6591   19.0001 H   0  0  0  0  0  0
  -24.0134  -27.2195   18.9596 H   0  0  0  0  0  0
  -23.9212  -30.4744   19.3852 H   0  0  0  0  0  0
  -22.8492  -29.1800   19.8262 H   0  0  0  0  0  0
  -25.1340  -36.1749   25.0789 H   0  0  0  0  0  0
  -21.0025  -28.3368   24.1299 H   0  0  0  0  0  0
  -20.5644  -26.2384   23.3650 H   0  0  0  0  0  0
  -21.6657  -26.7386   22.1229 H   0  0  0  0  0  0
  -19.6924  -25.6270   21.1279 H   0  0  0  0  0  0
  -19.6692  -27.3144   20.6719 H   0  0  0  0  0  0
  -17.4214  -26.6671   21.4033 H   0  0  0  0  0  0
  -18.0343  -26.0085   22.9032 H   0  0  0  0  0  0
  -19.7977  -30.7309   24.2187 H   0  0  0  0  0  0
  -17.5046  -31.6271   24.5157 H   0  0  0  0  0  0
  -15.5374  -30.2963   23.7685 H   0  0  0  0  0  0
  -15.8708  -28.0779   22.7131 H   0  0  0  0  0  0
  -24.5852  -30.7120   25.7627 H   0  0  0  0  0  0
  -24.8811  -32.2994   26.4603 H   0  0  0  0  0  0
  -25.7844  -30.9050   27.0216 H   0  0  0  0  0  0
  -26.3185  -29.6487   24.1510 H   0  0  0  0  0  0
  -27.3948  -29.7273   25.5226 H   0  0  0  0  0  0
  -27.9151  -30.4000   24.0008 H   0  0  0  0  0  0
  -27.2618  -33.3695   26.1909 H   0  0  0  0  0  0
  -28.3930  -32.6789   25.0372 H   0  0  0  0  0  0
  -28.0635  -31.8572   26.5531 H   0  0  0  0  0  0
  -28.2592  -38.0050   24.7509 H   0  0  0  0  0  0
  -28.1071  -36.2585   24.6333 H   0  0  0  0  0  0
  -27.2298  -37.1438   25.8879 H   0  0  0  0  0  0
  -20.9636  -29.8706   21.6629 H   0  0  0  0  0  0
  -26.0145  -38.2753   24.1358 H   0  0  0  0  0  0
  -27.8438  -23.2421   18.1088 H   0  0  0  0  0  0
  -27.9796  -21.1218   16.9944 H   0  0  0  0  0  0
  -29.2558  -21.2248   21.6627 H   0  0  0  0  0  0
  -28.5422  -18.9784   16.7498 H   0  0  0  0  0  0
  -29.3132  -18.0131   17.8871 H   0  0  0  0  0  0
  -28.1858  -24.0461   21.6771 H   0  0  0  0  0  0
  -28.6881  -16.6637   19.8725 H   0  0  0  0  0  0
  1 25  1  0  0  0
  1 30  2  0  0  0
  1 80  1  0  0  0
  2  3  1  0  0  0
  2 25  1  0  0  0
  2 82  1  0  0  0
  2 83  1  0  0  0
  3  4  1  0  0  0
  3 84  1  0  0  0
  3 85  1  0  0  0
  4  5  1  0  0  0
  4 86  1  0  0  0
  4 87  1  0  0  0
  5  6  1  0  0  0
  5 26  1  0  0  0
  5 88  1  0  0  0
  6 25  1  0  0  0
  6 89  1  0  0  0
  6 90  1  0  0  0
  7  8  2  0  0  0
  7 26  1  0  0  0
  7 29  1  0  0  0
  8  9  1  0  0  0
  8 22  1  0  0  0
  9 10  1  0  0  0
  9 27  2  0  0  0
 10 11  2  0  0  0
 10 15  1  0  0  0
 11 12  1  0  0  0
 11 91  1  0  0  0
 12 13  2  0  0  0
 12 92  1  0  0  0
 13 14  1  0  0  0
 13 31  1  0  0  0
 14 15  2  0  0  0
 14 93  1  0  0  0
 15 94  1  0  0  0
 16 17  2  0  0  0
 16 21  1  0  0  0
 16 31  1  0  0  0
 17 18  1  0  0  0
 17 95  1  0  0  0
 18 19  2  0  0  0
 18 96  1  0  0  0
 19 20  1  0  0  0
 19 24  1  0  0  0
 20 21  2  0  0  0
 20 97  1  0  0  0
 21 23  1  0  0  0
 22 28  1  0  0  0
 22 32  2  0  0  0
 26 27  1  0  0  0
 28 98  1  0  0  0
 28 99  1  0  0  0
 29100  1  0  0  0
 29101  1  0  0  0
 33 34  1  0  0  0
 33 66  1  0  0  0
 33 70  2  0  0  0
 34 36  1  0  0  0
 34 59  1  0  0  0
 34102  1  0  0  0
 35 44  2  0  0  0
 35 45  1  0  0  0
 35 68  1  0  0  0
 36 56  1  0  0  0
 36103  1  0  0  0
 37 39  1  0  0  0
 37 47  1  0  0  0
 37 66  1  0  0  0
 37104  1  0  0  0
 38 43  2  0  0  0
 38 46  1  0  0  0
 38 47  1  0  0  0
 39 64  1  0  0  0
 39 67  2  0  0  0
 40 52  1  0  0  0
 40 53  2  0  0  0
 40 58  1  0  0  0
 41105  1  0  0  0
 41106  1  0  0  0
 41107  1  0  0  0
 41 48  1  0  0  0
 42 43  1  0  0  0
 42 66  1  0  0  0
 42108  1  0  0  0
 42109  1  0  0  0
 43 44  1  0  0  0
 44110  1  0  0  0
 45 46  2  0  0  0
 45111  1  0  0  0
 46112  1  0  0  0
 47113  1  0  0  0
 47114  1  0  0  0
 48 56  1  0  0  0
 48 65  1  0  0  0
 48115  1  0  0  0
 49 50  1  0  0  0
 49 53  1  0  0  0
 49 64  1  0  0  0
 49116  1  0  0  0
 50 51  1  0  0  0
 50117  1  0  0  0
 50118  1  0  0  0
 51 52  1  0  0  0
 51119  1  0  0  0
 51120  1  0  0  0
 52121  1  0  0  0
 52122  1  0  0  0
 53 54  1  0  0  0
 54 55  2  0  0  0
 54123  1  0  0  0
 55 57  1  0  0  0
 55124  1  0  0  0
 56 69  2  0  0  0
 57 58  2  0  0  0
 57125  1  0  0  0
 58126  1  0  0  0
 59 60  1  0  0  0
 59 61  1  0  0  0
 59 62  1  0  0  0
 60127  1  0  0  0
 60128  1  0  0  0
 60129  1  0  0  0
 61130  1  0  0  0
 61131  1  0  0  0
 61132  1  0  0  0
 62133  1  0  0  0
 62134  1  0  0  0
 62135  1  0  0  0
 63 65  1  0  0  0
 63136  1  0  0  0
 63137  1  0  0  0
 63138  1  0  0  0
 64139  1  0  0  0
 65140  1  0  0  0
 68 79  1  0  0  0
 71 72  2  0  0  0
 71 75  1  0  0  0
 71141  1  0  0  0
 72 76  1  0  0  0
 72142  1  0  0  0
 73 74  1  0  0  0
 73 75  2  0  0  0
 73143  1  0  0  0
 74 76  2  0  0  0
 74 77  1  0  0  0
 75 79  1  0  0  0
 76 78  1  0  0  0
 77 80  1  0  0  0
 77 81  2  0  0  0
 78144  1  0  0  0
 78145  1  0  0  0
 79146  1  0  0  0
 80147  1  0  0  0
M  ISO  4   1 100  68 101  79 101  80 100
M  END
> <chiral flag>
0

> <version>
0

> <s_m_source_file>
/data/baiqing/PycharmProjects/Reinvent-master-3.2/result/LINK_invent/BTK/process_docking_weight1_custom_product_contain_oxygen_bond_distance_aromatic_linkinvent_7_9_3/rearranged_h_0091.sdf

> <i_m_source_file_index>
54

> <r_mmod_Potential_Energy-OPLS-2005>
1668.302734375

> <r_mmod_Stretch_Energy-OPLS-2005>
745.434326171875

> <r_mmod_Bend_Energy-OPLS-2005>
513.657470703125

> <r_mmod_Torsional_Energy-OPLS-2005>
237.203460693359

> <r_mmod_Improper_Torsional_Energy-OPLS-2005>
13.3186378479004

> <r_mmod_Van_der_Waal_Energy-OPLS-2005>
123.666366577148

> <r_mmod_Electrostatic_Energy-OPLS-2005>
-405.269836425781

> <r_mmod_Solvation_Energy-OPLS-2005>
-245.447509765625

> <b_mmod_Minimization_Converged-OPLS-2005>
0

> <r_mmod_RMS_Derivative-OPLS-2005>
3.74205636978149

$$$$
54
                    3D
 Structure written by MMmdl.
163172  0  0  1  0            999 V2000
  -30.5912  -14.8020   20.5543 C   0  0  0  0  0  0
  -30.4442  -12.5192   19.4764 C   0  0  0  0  0  0
  -29.5190  -12.5699   18.2359 C   0  0  0  0  0  0
  -28.0376  -12.3776   18.6255 C   0  0  0  0  0  0
  -27.6437  -13.2304   19.8596 C   0  0  2  0  0  0
  -28.6858  -13.0521   20.9777 C   0  0  0  0  0  0
  -25.2487  -13.8183   20.5676 C   0  0  0  0  0  0
  -24.1785  -13.0411   20.9171 C   0  0  0  0  0  0
  -24.6399  -11.6897   20.8716 C   0  0  0  0  0  0
  -23.9091  -10.4275   21.0409 C   0  0  0  0  0  0
  -24.3645   -9.4191   21.9187 C   0  0  0  0  0  0
  -23.6317   -8.2230   22.0755 C   0  0  0  0  0  0
  -22.4290   -8.0279   21.3553 C   0  0  0  0  0  0
  -21.9928   -9.0248   20.4652 C   0  0  0  0  0  0
  -22.7264  -10.2118   20.3058 C   0  0  0  0  0  0
  -21.6854   -6.0746   22.5287 C   0  0  0  0  0  0
  -21.4019   -6.5649   23.8222 C   0  0  0  0  0  0
  -21.3653   -5.6796   24.9179 C   0  0  0  0  0  0
  -21.6043   -4.3060   24.7226 C   0  0  0  0  0  0
  -21.8818   -3.8156   23.4347 C   0  0  0  0  0  0
  -21.9194   -4.6975   22.3406 C   0  0  0  0  0  0
  -22.7808  -13.5181   21.1875 C   0  0  0  0  0  0
  -22.1657   -4.2164   21.0984 F   0  0  0  0  0  0
  -21.5628   -3.4540   25.7735 F   0  0  0  0  0  0
  -29.9731  -13.5501   20.4486 N   0  0  0  0  0  0
  -26.2924  -12.9394   20.3254 N   0  0  0  0  0  0
  -25.9324  -11.6529   20.5687 N   0  0  0  0  0  0
  -22.0489  -12.8139   22.0439 N   0  0  0  0  0  0
  -25.4148  -15.1929   20.4188 N   0  0  0  0  0  0
  -31.7390  -14.8844   20.1008 O   0  0  0  0  0  0
  -21.6644   -6.8884   21.4250 O   0  0  0  0  0  0
  -22.3466  -14.5498   20.6762 O   0  0  0  0  0  0
  -24.6351  -31.8532   23.1952 C   0  0  0  0  0  0
  -25.9155  -32.4746   23.8318 C   0  0  1  0  0  0
  -27.2248  -27.2420   20.1310 C   0  0  0  0  0  0
  -25.5933  -33.8544   24.2239 N   0  0  0  0  0  0
  -23.4340  -30.4730   21.5409 C   0  0  2  0  0  0
  -24.8815  -28.9102   20.1171 C   0  0  0  0  0  0
  -22.7524  -29.4598   22.4918 C   0  0  0  0  0  0
  -18.0293  -28.1409   22.8486 C   0  0  0  0  0  0
  -24.1492  -36.7274   23.2643 C   0  0  0  0  0  0
  -25.9820  -30.7587   21.3779 C   0  0  0  0  0  0
  -26.0561  -29.3778   20.7220 C   0  0  0  0  0  0
  -27.2348  -28.5591   20.7098 C   0  0  0  0  0  0
  -26.0244  -26.8393   19.5133 C   0  0  0  0  0  0
  -24.8714  -27.6495   19.5024 C   0  0  0  0  0  0
  -23.6536  -29.8010   20.1600 C   0  0  0  0  0  0
  -25.4116  -36.3059   24.0325 C   0  0  1  0  0  0
  -20.5902  -28.3725   23.1269 C   0  0  2  0  0  0
  -20.6790  -26.9437   22.5425 C   0  0  0  0  0  0
  -19.5761  -26.6390   21.5237 C   0  0  0  0  0  0
  -18.1932  -26.7953   22.1628 C   0  0  0  0  0  0
  -19.1544  -28.8878   23.2878 C   0  0  0  0  0  0
  -18.9471  -30.1479   23.8900 C   0  0  0  0  0  0
  -17.6466  -30.6608   24.0572 C   0  0  0  0  0  0
  -25.9062  -34.9436   23.5085 C   0  0  0  0  0  0
  -16.5359  -29.9101   23.6345 C   0  0  0  0  0  0
  -16.7277  -28.6522   23.0361 C   0  0  0  0  0  0
  -26.4504  -31.6587   25.0724 C   0  0  0  0  0  0
  -25.3701  -31.3739   26.1431 C   0  0  0  0  0  0
  -27.0368  -30.3001   24.6243 C   0  0  0  0  0  0
  -27.6066  -32.4334   25.7478 C   0  0  0  0  0  0
  -27.5585  -37.1783   24.8454 C   0  0  0  0  0  0
  -21.4226  -29.3061   22.3656 N   0  0  0  0  0  0
  -26.4278  -37.3772   23.9421 N   0  0  0  0  0  0
  -24.7033  -31.0465   22.0943 N   0  0  0  0  0  0
  -23.4197  -28.8144   23.3041 O   0  0  0  0  0  0
  -28.3181  -26.3411   20.1002 O   0  0  0  0  0  0
  -26.5644  -34.8913   22.4661 O   0  0  0  0  0  0
  -23.5486  -32.1367   23.7218 O   0  0  0  0  0  0
  -32.0281  -19.1551   20.9278 C   0  0  0  0  0  0
  -31.1033  -20.1934   20.6942 C   0  0  0  0  0  0
  -31.6424  -17.7985   20.9265 C   0  0  0  0  0  0
  -29.7516  -19.9288   20.3950 C   0  0  0  0  0  0
  -30.3036  -17.4059   20.6881 C   0  0  0  0  0  0
  -29.3815  -18.5035   20.3750 C   0  0  0  0  0  0
  -28.9803  -22.4397   20.6334 C   0  0  0  0  0  0
  -28.4347  -23.5855   20.0616 C   0  0  0  0  0  0
  -27.2026  -22.0767   18.4826 C   0  0  0  0  0  0
  -29.2357  -17.2039   24.2537 C   0  0  0  0  0  0
  -28.7481  -17.0695   23.0108 C   0  0  0  0  0  0
  -27.8801  -23.4464   18.6513 C   0  0  0  0  0  0
  -27.9543  -20.8313   19.0085 C   0  0  0  0  0  0
  -28.1956  -25.0010   20.7843 C   0  0  0  0  0  0
  -28.9653  -15.8501   22.1193 C   0  0  0  0  0  0
  -28.9092  -21.0922   20.1001 N   0  0  0  0  0  0
  -29.9085  -15.9776   20.9801 N   0  0  0  0  0  0
  -26.1021  -21.9775   17.9336 O   0  0  0  0  0  0
  -28.0932  -18.1691   20.1168 F   0  0  0  0  0  0
  -31.4814  -12.6683   19.1730 H   0  0  0  0  0  0
  -30.4280  -11.5230   19.9215 H   0  0  0  0  0  0
  -29.8193  -11.8186   17.5049 H   0  0  0  0  0  0
  -29.6390  -13.5372   17.7460 H   0  0  0  0  0  0
  -27.8825  -11.3197   18.8424 H   0  0  0  0  0  0
  -27.3901  -12.6144   17.7806 H   0  0  0  0  0  0
  -27.6609  -14.2742   19.5438 H   0  0  0  0  0  0
  -28.7595  -11.9935   21.2286 H   0  0  0  0  0  0
  -28.3530  -13.4749   21.9162 H   0  0  0  0  0  0
  -25.2795   -9.5664   22.4754 H   0  0  0  0  0  0
  -24.0030   -7.4620   22.7466 H   0  0  0  0  0  0
  -21.0856   -8.8775   19.8963 H   0  0  0  0  0  0
  -22.3738  -10.9663   19.6165 H   0  0  0  0  0  0
  -21.2017   -7.6156   23.9733 H   0  0  0  0  0  0
  -21.1475   -6.0524   25.9081 H   0  0  0  0  0  0
  -22.0609   -2.7624   23.2843 H   0  0  0  0  0  0
  -22.4103  -11.9752   22.4739 H   0  0  0  0  0  0
  -21.1132  -13.1169   22.2748 H   0  0  0  0  0  0
  -24.6533  -15.8439   20.5720 H   0  0  0  0  0  0
  -26.2707  -15.6507   20.1323 H   0  0  0  0  0  0
  -26.7225  -32.5388   23.1063 H   0  0  0  0  0  0
  -25.0066  -33.9688   25.0369 H   0  0  0  0  0  0
  -22.7330  -31.2960   21.3888 H   0  0  0  0  0  0
  -23.3771  -35.9591   23.3268 H   0  0  0  0  0  0
  -24.3586  -36.8934   22.2067 H   0  0  0  0  0  0
  -23.7224  -37.6450   23.6696 H   0  0  0  0  0  0
  -26.1240  -31.5166   20.6064 H   0  0  0  0  0  0
  -26.8583  -30.8084   22.0128 H   0  0  0  0  0  0
  -28.1401  -28.9187   21.1782 H   0  0  0  0  0  0
  -25.9661  -25.8720   19.0395 H   0  0  0  0  0  0
  -23.9716  -27.2847   19.0268 H   0  0  0  0  0  0
  -23.7797  -30.5752   19.4024 H   0  0  0  0  0  0
  -22.7716  -29.2345   19.8573 H   0  0  0  0  0  0
  -25.1295  -36.1900   25.0815 H   0  0  0  0  0  0
  -20.9990  -28.3319   24.1392 H   0  0  0  0  0  0
  -20.5727  -26.2333   23.3638 H   0  0  0  0  0  0
  -21.6652  -26.7483   22.1193 H   0  0  0  0  0  0
  -19.6935  -25.6300   21.1274 H   0  0  0  0  0  0
  -19.6703  -27.3202   20.6772 H   0  0  0  0  0  0
  -17.4217  -26.6727   21.4014 H   0  0  0  0  0  0
  -18.0303  -26.0096   22.9013 H   0  0  0  0  0  0
  -19.7948  -30.7304   24.2263 H   0  0  0  0  0  0
  -17.5019  -31.6290   24.5180 H   0  0  0  0  0  0
  -15.5360  -30.3002   23.7675 H   0  0  0  0  0  0
  -15.8680  -28.0845   22.7075 H   0  0  0  0  0  0
  -24.5910  -30.7055   25.7745 H   0  0  0  0  0  0
  -24.8850  -32.2899   26.4817 H   0  0  0  0  0  0
  -25.7992  -30.8947   27.0239 H   0  0  0  0  0  0
  -26.2977  -29.6723   24.1262 H   0  0  0  0  0  0
  -27.4033  -29.7295   25.4786 H   0  0  0  0  0  0
  -27.8845  -30.4265   23.9507 H   0  0  0  0  0  0
  -27.2711  -33.3667   26.2009 H   0  0  0  0  0  0
  -28.3886  -32.6848   25.0298 H   0  0  0  0  0  0
  -28.0728  -31.8490   26.5421 H   0  0  0  0  0  0
  -28.2572  -38.0118   24.7556 H   0  0  0  0  0  0
  -28.1118  -36.2652   24.6200 H   0  0  0  0  0  0
  -27.2310  -37.1318   25.8857 H   0  0  0  0  0  0
  -20.9435  -29.8740   21.6809 H   0  0  0  0  0  0
  -26.0154  -38.2834   24.1460 H   0  0  0  0  0  0
  -33.0569  -19.4130   21.1410 H   0  0  0  0  0  0
  -31.4546  -21.2149   20.7174 H   0  0  0  0  0  0
  -32.3918  -17.0613   21.1768 H   0  0  0  0  0  0
  -29.3517  -22.4662   21.6497 H   0  0  0  0  0  0
  -29.0323  -18.0927   24.8361 H   0  0  0  0  0  0
  -29.8432  -16.4369   24.7116 H   0  0  0  0  0  0
  -28.1395  -17.8696   22.6117 H   0  0  0  0  0  0
  -28.6855  -23.5499   17.9250 H   0  0  0  0  0  0
  -27.1523  -24.2275   18.4512 H   0  0  0  0  0  0
  -28.4692  -20.3611   18.1693 H   0  0  0  0  0  0
  -27.1964  -20.1296   19.3556 H   0  0  0  0  0  0
  -28.8674  -25.0327   21.6425 H   0  0  0  0  0  0
  -27.1975  -24.9371   21.2189 H   0  0  0  0  0  0
  -27.9800  -15.5749   21.7447 H   0  0  0  0  0  0
  -29.3267  -15.0741   22.7960 H   0  0  0  0  0  0
  1 25  1  0  0  0
  1 30  2  0  0  0
  1 87  1  0  0  0
  2  3  1  0  0  0
  2 25  1  0  0  0
  2 90  1  0  0  0
  2 91  1  0  0  0
  3  4  1  0  0  0
  3 92  1  0  0  0
  3 93  1  0  0  0
  4  5  1  0  0  0
  4 94  1  0  0  0
  4 95  1  0  0  0
  5  6  1  0  0  0
  5 26  1  0  0  0
  5 96  1  0  0  0
  6 25  1  0  0  0
  6 97  1  0  0  0
  6 98  1  0  0  0
  7  8  2  0  0  0
  7 26  1  0  0  0
  7 29  1  0  0  0
  8  9  1  0  0  0
  8 22  1  0  0  0
  9 10  1  0  0  0
  9 27  2  0  0  0
 10 11  2  0  0  0
 10 15  1  0  0  0
 11 12  1  0  0  0
 11 99  1  0  0  0
 12 13  2  0  0  0
 12100  1  0  0  0
 13 14  1  0  0  0
 13 31  1  0  0  0
 14 15  2  0  0  0
 14101  1  0  0  0
 15102  1  0  0  0
 16 17  2  0  0  0
 16 21  1  0  0  0
 16 31  1  0  0  0
 17 18  1  0  0  0
 17103  1  0  0  0
 18 19  2  0  0  0
 18104  1  0  0  0
 19 20  1  0  0  0
 19 24  1  0  0  0
 20 21  2  0  0  0
 20105  1  0  0  0
 21 23  1  0  0  0
 22 28  1  0  0  0
 22 32  2  0  0  0
 26 27  1  0  0  0
 28106  1  0  0  0
 28107  1  0  0  0
 29108  1  0  0  0
 29109  1  0  0  0
 33 34  1  0  0  0
 33 66  1  0  0  0
 33 70  2  0  0  0
 34 36  1  0  0  0
 34 59  1  0  0  0
 34110  1  0  0  0
 35 44  2  0  0  0
 35 45  1  0  0  0
 35 68  1  0  0  0
 36 56  1  0  0  0
 36111  1  0  0  0
 37 39  1  0  0  0
 37 47  1  0  0  0
 37 66  1  0  0  0
 37112  1  0  0  0
 38 43  2  0  0  0
 38 46  1  0  0  0
 38 47  1  0  0  0
 39 64  1  0  0  0
 39 67  2  0  0  0
 40 52  1  0  0  0
 40 53  2  0  0  0
 40 58  1  0  0  0
 41113  1  0  0  0
 41114  1  0  0  0
 41115  1  0  0  0
 41 48  1  0  0  0
 42 43  1  0  0  0
 42 66  1  0  0  0
 42116  1  0  0  0
 42117  1  0  0  0
 43 44  1  0  0  0
 44118  1  0  0  0
 45 46  2  0  0  0
 45119  1  0  0  0
 46120  1  0  0  0
 47121  1  0  0  0
 47122  1  0  0  0
 48 56  1  0  0  0
 48 65  1  0  0  0
 48123  1  0  0  0
 49 50  1  0  0  0
 49 53  1  0  0  0
 49 64  1  0  0  0
 49124  1  0  0  0
 50 51  1  0  0  0
 50125  1  0  0  0
 50126  1  0  0  0
 51 52  1  0  0  0
 51127  1  0  0  0
 51128  1  0  0  0
 52129  1  0  0  0
 52130  1  0  0  0
 53 54  1  0  0  0
 54 55  2  0  0  0
 54131  1  0  0  0
 55 57  1  0  0  0
 55132  1  0  0  0
 56 69  2  0  0  0
 57 58  2  0  0  0
 57133  1  0  0  0
 58134  1  0  0  0
 59 60  1  0  0  0
 59 61  1  0  0  0
 59 62  1  0  0  0
 60135  1  0  0  0
 60136  1  0  0  0
 60137  1  0  0  0
 61138  1  0  0  0
 61139  1  0  0  0
 61140  1  0  0  0
 62141  1  0  0  0
 62142  1  0  0  0
 62143  1  0  0  0
 63 65  1  0  0  0
 63144  1  0  0  0
 63145  1  0  0  0
 63146  1  0  0  0
 64147  1  0  0  0
 65148  1  0  0  0
 68 84  1  0  0  0
 71 72  2  0  0  0
 71 73  1  0  0  0
 71149  1  0  0  0
 72 74  1  0  0  0
 72150  1  0  0  0
 73 75  2  0  0  0
 73151  1  0  0  0
 74 76  2  0  0  0
 74 86  1  0  0  0
 75 76  1  0  0  0
 75 87  1  0  0  0
 76 89  1  0  0  0
 77 78  2  0  0  0
 77 86  1  0  0  0
 77152  1  0  0  0
 78 82  1  0  0  0
 78 84  1  0  0  0
 79 82  1  0  0  0
 79 83  1  0  0  0
 79 88  2  0  0  0
 80 81  2  0  0  0
 80153  1  0  0  0
 80154  1  0  0  0
 81 85  1  0  0  0
 81155  1  0  0  0
 82156  1  0  0  0
 82157  1  0  0  0
 83 86  1  0  0  0
 83158  1  0  0  0
 83159  1  0  0  0
 84160  1  0  0  0
 84161  1  0  0  0
 85 87  1  0  0  0
 85162  1  0  0  0
 85163  1  0  0  0
M  ISO  4   1 100  68 101  84 101  87 100
M  END
> <chiral flag>
0

> <version>
0

> <s_m_source_file>
/data/baiqing/PycharmProjects/Reinvent-master-3.2/result/LINK_invent/BTK/process_docking_weight1_custom_product_contain_oxygen_bond_distance_aromatic_linkinvent_7_9_3/rearranged_h_0091.sdf

> <i_m_source_file_index>
55

> <r_mmod_Potential_Energy-OPLS-2005>
511.854370117188

> <r_mmod_Stretch_Energy-OPLS-2005>
161.964782714844

> <r_mmod_Bend_Energy-OPLS-2005>
194.378158569336

> <r_mmod_Torsional_Energy-OPLS-2005>
331.611907958984

> <r_mmod_Improper_Torsional_Energy-OPLS-2005>
6.37812471389771

> <r_mmod_Van_der_Waal_Energy-OPLS-2005>
170.275421142578

> <r_mmod_Electrostatic_Energy-OPLS-2005>
-251.928573608398

> <r_mmod_Solvation_Energy-OPLS-2005>
-194.541763305664

> <b_mmod_Minimization_Converged-OPLS-2005>
0

> <r_mmod_RMS_Derivative-OPLS-2005>
1.85572695732117

$$$$
55
                    3D
 Structure written by MMmdl.
152160  0  0  1  0            999 V2000
  -30.7065  -14.6524   20.4693 C   0  0  0  0  0  0
  -30.4061  -12.4009   19.4638 C   0  0  0  0  0  0
  -29.4938  -12.4931   18.2257 C   0  0  0  0  0  0
  -28.0208  -12.3371   18.6435 C   0  0  0  0  0  0
  -27.6392  -13.2375   19.8498 C   0  0  2  0  0  0
  -28.6878  -13.1768   20.9826 C   0  0  0  0  0  0
  -25.2493  -13.8219   20.5722 C   0  0  0  0  0  0
  -24.1785  -13.0447   20.9205 C   0  0  0  0  0  0
  -24.6393  -11.6931   20.8753 C   0  0  0  0  0  0
  -23.9076  -10.4298   21.0405 C   0  0  0  0  0  0
  -24.3625   -9.4213   21.9184 C   0  0  0  0  0  0
  -23.6299   -8.2248   22.0753 C   0  0  0  0  0  0
  -22.4280   -8.0286   21.3545 C   0  0  0  0  0  0
  -21.9917   -9.0258   20.4646 C   0  0  0  0  0  0
  -22.7248  -10.2136   20.3053 C   0  0  0  0  0  0
  -21.6856   -6.0739   22.5279 C   0  0  0  0  0  0
  -21.4015   -6.5644   23.8211 C   0  0  0  0  0  0
  -21.3661   -5.6795   24.9174 C   0  0  0  0  0  0
  -21.6043   -4.3057   24.7223 C   0  0  0  0  0  0
  -21.8820   -3.8148   23.4345 C   0  0  0  0  0  0
  -21.9194   -4.6965   22.3403 C   0  0  0  0  0  0
  -22.7805  -13.5216   21.1864 C   0  0  0  0  0  0
  -22.1662   -4.2152   21.0981 F   0  0  0  0  0  0
  -21.5629   -3.4539   25.7736 F   0  0  0  0  0  0
  -29.9937  -13.4811   20.3886 N   0  0  0  0  0  0
  -26.2934  -12.9445   20.3323 N   0  0  0  0  0  0
  -25.9329  -11.6577   20.5780 N   0  0  0  0  0  0
  -22.0458  -12.8199   22.0419 N   0  0  0  0  0  0
  -25.4169  -15.1946   20.4185 N   0  0  0  0  0  0
  -31.9007  -14.6235   20.1640 O   0  0  0  0  0  0
  -21.6645   -6.8881   21.4240 O   0  0  0  0  0  0
  -22.3479  -14.5523   20.6718 O   0  0  0  0  0  0
  -24.6258  -31.8601   23.2034 C   0  0  0  0  0  0
  -25.9110  -32.4778   23.8358 C   0  0  1  0  0  0
  -27.2129  -27.3221   20.1247 C   0  0  0  0  0  0
  -25.5931  -33.8579   24.2290 N   0  0  0  0  0  0
  -23.4187  -30.4848   21.5456 C   0  0  2  0  0  0
  -24.8653  -28.9425   20.1084 C   0  0  0  0  0  0
  -22.7469  -29.4630   22.4937 C   0  0  0  0  0  0
  -18.0284  -28.1384   22.8491 C   0  0  0  0  0  0
  -24.1490  -36.7290   23.2636 C   0  0  0  0  0  0
  -25.9595  -30.7937   21.3728 C   0  0  0  0  0  0
  -26.0344  -29.4213   20.7158 C   0  0  0  0  0  0
  -27.2160  -28.6221   20.7150 C   0  0  0  0  0  0
  -26.0314  -26.9016   19.4790 C   0  0  0  0  0  0
  -24.8655  -27.6881   19.4790 C   0  0  0  0  0  0
  -23.6327  -29.8213   20.1598 C   0  0  0  0  0  0
  -25.4109  -36.3081   24.0334 C   0  0  1  0  0  0
  -20.5884  -28.3689   23.1284 C   0  0  2  0  0  0
  -20.6776  -26.9414   22.5409 C   0  0  0  0  0  0
  -19.5752  -26.6387   21.5213 C   0  0  0  0  0  0
  -18.1931  -26.7930   22.1625 C   0  0  0  0  0  0
  -19.1537  -28.8853   23.2884 C   0  0  0  0  0  0
  -18.9459  -30.1457   23.8898 C   0  0  0  0  0  0
  -17.6459  -30.6589   24.0565 C   0  0  0  0  0  0
  -25.9050  -34.9452   23.5110 C   0  0  0  0  0  0
  -16.5350  -29.9087   23.6333 C   0  0  0  0  0  0
  -16.7272  -28.6503   23.0355 C   0  0  0  0  0  0
  -26.4500  -31.6579   25.0719 C   0  0  0  0  0  0
  -25.3744  -31.3710   26.1452 C   0  0  0  0  0  0
  -27.0338  -30.3004   24.6161 C   0  0  0  0  0  0
  -27.6065  -32.4308   25.7488 C   0  0  0  0  0  0
  -27.5585  -37.1789   24.8457 C   0  0  0  0  0  0
  -21.4183  -29.3043   22.3677 N   0  0  0  0  0  0
  -26.4281  -37.3782   23.9425 N   0  0  0  0  0  0
  -24.6868  -31.0622   22.0978 N   0  0  0  0  0  0
  -23.4197  -28.8167   23.3010 O   0  0  0  0  0  0
  -28.2938  -26.4347   20.1707 O   0  0  0  0  0  0
  -26.5611  -34.8920   22.4672 O   0  0  0  0  0  0
  -23.5424  -32.1394   23.7370 O   0  0  0  0  0  0
  -30.4824  -19.5218   19.8879 C   0  0  0  0  0  0
  -30.0159  -20.8679   19.8908 C   0  0  0  0  0  0
  -28.2053  -20.1798   21.3054 C   0  0  0  0  0  0
  -29.8615  -18.4555   20.6082 C   0  0  0  0  0  0
  -28.8699  -21.2464   20.6290 C   0  0  0  0  0  0
  -28.6737  -18.8226   21.3164 C   0  0  0  0  0  0
  -30.6298  -17.1072   20.6988 C   0  0  0  0  0  0
  -28.7684  -23.8437   20.2815 C   0  0  0  0  0  0
  -27.9957  -25.1231   20.8020 C   0  0  0  0  0  0
  -27.9452  -17.9028   22.0788 N   0  0  0  0  0  0
  -28.3669  -22.6203   20.7667 N   0  0  0  0  0  0
  -30.0433  -15.8539   20.6552 N   0  0  0  0  0  0
  -31.8577  -17.2431   20.7875 O   0  0  0  0  0  0
  -29.6901  -23.9734   19.4712 O   0  0  0  0  0  0
  -31.4512  -12.4698   19.1581 H   0  0  0  0  0  0
  -30.3053  -11.4277   19.9472 H   0  0  0  0  0  0
  -29.7603  -11.7235   17.5000 H   0  0  0  0  0  0
  -29.6386  -13.4523   17.7255 H   0  0  0  0  0  0
  -27.8657  -11.2891   18.9016 H   0  0  0  0  0  0
  -27.3633  -12.5411   17.7977 H   0  0  0  0  0  0
  -27.6332  -14.2592   19.4695 H   0  0  0  0  0  0
  -28.7023  -12.1904   21.4488 H   0  0  0  0  0  0
  -28.4428  -13.8885   21.7729 H   0  0  0  0  0  0
  -25.2765   -9.5694   22.4764 H   0  0  0  0  0  0
  -24.0009   -7.4639   22.7473 H   0  0  0  0  0  0
  -21.0847   -8.8780   19.8951 H   0  0  0  0  0  0
  -22.3706  -10.9676   19.6165 H   0  0  0  0  0  0
  -21.2005   -7.6153   23.9716 H   0  0  0  0  0  0
  -21.1483   -6.0524   25.9075 H   0  0  0  0  0  0
  -22.0596   -2.7610   23.2844 H   0  0  0  0  0  0
  -22.4083  -11.9858   22.4796 H   0  0  0  0  0  0
  -21.1075  -13.1216   22.2633 H   0  0  0  0  0  0
  -24.6584  -15.8514   20.5645 H   0  0  0  0  0  0
  -26.2865  -15.6508   20.1731 H   0  0  0  0  0  0
  -26.7179  -32.5459   23.1109 H   0  0  0  0  0  0
  -25.0100  -33.9721   25.0450 H   0  0  0  0  0  0
  -22.7127  -31.3057   21.4042 H   0  0  0  0  0  0
  -23.3761  -35.9610   23.3267 H   0  0  0  0  0  0
  -24.3596  -36.8936   22.2057 H   0  0  0  0  0  0
  -23.7225  -37.6477   23.6671 H   0  0  0  0  0  0
  -26.0878  -31.5572   20.6041 H   0  0  0  0  0  0
  -26.8411  -30.8438   22.0001 H   0  0  0  0  0  0
  -28.1112  -28.9791   21.2049 H   0  0  0  0  0  0
  -25.9989  -25.9393   18.9878 H   0  0  0  0  0  0
  -23.9719  -27.3180   18.9954 H   0  0  0  0  0  0
  -23.7497  -30.5988   19.4041 H   0  0  0  0  0  0
  -22.7531  -29.2497   19.8580 H   0  0  0  0  0  0
  -25.1284  -36.1926   25.0824 H   0  0  0  0  0  0
  -20.9980  -28.3262   24.1403 H   0  0  0  0  0  0
  -20.5684  -26.2297   23.3605 H   0  0  0  0  0  0
  -21.6643  -26.7450   22.1195 H   0  0  0  0  0  0
  -19.6913  -25.6298   21.1238 H   0  0  0  0  0  0
  -19.6688  -27.3200   20.6745 H   0  0  0  0  0  0
  -17.4202  -26.6681   21.4026 H   0  0  0  0  0  0
  -18.0330  -26.0069   22.9017 H   0  0  0  0  0  0
  -19.7934  -30.7274   24.2264 H   0  0  0  0  0  0
  -17.5014  -31.6268   24.5163 H   0  0  0  0  0  0
  -15.5351  -30.2989   23.7658 H   0  0  0  0  0  0
  -15.8672  -28.0822   22.7071 H   0  0  0  0  0  0
  -24.5918  -30.7057   25.7784 H   0  0  0  0  0  0
  -24.8935  -32.2872   26.4890 H   0  0  0  0  0  0
  -25.8077  -30.8882   27.0219 H   0  0  0  0  0  0
  -26.2901  -29.6754   24.1202 H   0  0  0  0  0  0
  -27.4056  -29.7261   25.4656 H   0  0  0  0  0  0
  -27.8765  -30.4288   23.9364 H   0  0  0  0  0  0
  -27.2684  -33.3619   26.2048 H   0  0  0  0  0  0
  -28.3886  -32.6844   25.0319 H   0  0  0  0  0  0
  -28.0719  -31.8439   26.5416 H   0  0  0  0  0  0
  -28.2560  -38.0130   24.7564 H   0  0  0  0  0  0
  -28.1122  -36.2664   24.6195 H   0  0  0  0  0  0
  -27.2318  -37.1330   25.8861 H   0  0  0  0  0  0
  -20.9356  -29.8764   21.6889 H   0  0  0  0  0  0
  -26.0157  -38.2846   24.1464 H   0  0  0  0  0  0
  -31.3917  -19.3146   19.3407 H   0  0  0  0  0  0
  -30.5786  -21.6090   19.3414 H   0  0  0  0  0  0
  -27.3181  -20.4214   21.8736 H   0  0  0  0  0  0
  -28.2334  -25.2264   21.8611 H   0  0  0  0  0  0
  -26.9330  -24.8829   20.7737 H   0  0  0  0  0  0
  -27.2075  -18.2743   22.6698 H   0  0  0  0  0  0
  -28.4442  -17.1572   22.5518 H   0  0  0  0  0  0
  -27.5729  -22.7022   21.3876 H   0  0  0  0  0  0
  -29.0382  -15.8319   20.6977 H   0  0  0  0  0  0
  1 25  1  0  0  0
  1 30  2  0  0  0
  1 82  1  0  0  0
  2  3  1  0  0  0
  2 25  1  0  0  0
  2 85  1  0  0  0
  2 86  1  0  0  0
  3  4  1  0  0  0
  3 87  1  0  0  0
  3 88  1  0  0  0
  4  5  1  0  0  0
  4 89  1  0  0  0
  4 90  1  0  0  0
  5  6  1  0  0  0
  5 26  1  0  0  0
  5 91  1  0  0  0
  6 25  1  0  0  0
  6 92  1  0  0  0
  6 93  1  0  0  0
  7  8  2  0  0  0
  7 26  1  0  0  0
  7 29  1  0  0  0
  8  9  1  0  0  0
  8 22  1  0  0  0
  9 10  1  0  0  0
  9 27  2  0  0  0
 10 11  2  0  0  0
 10 15  1  0  0  0
 11 12  1  0  0  0
 11 94  1  0  0  0
 12 13  2  0  0  0
 12 95  1  0  0  0
 13 14  1  0  0  0
 13 31  1  0  0  0
 14 15  2  0  0  0
 14 96  1  0  0  0
 15 97  1  0  0  0
 16 17  2  0  0  0
 16 21  1  0  0  0
 16 31  1  0  0  0
 17 18  1  0  0  0
 17 98  1  0  0  0
 18 19  2  0  0  0
 18 99  1  0  0  0
 19 20  1  0  0  0
 19 24  1  0  0  0
 20 21  2  0  0  0
 20100  1  0  0  0
 21 23  1  0  0  0
 22 28  1  0  0  0
 22 32  2  0  0  0
 26 27  1  0  0  0
 28101  1  0  0  0
 28102  1  0  0  0
 29103  1  0  0  0
 29104  1  0  0  0
 33 34  1  0  0  0
 33 66  1  0  0  0
 33 70  2  0  0  0
 34 36  1  0  0  0
 34 59  1  0  0  0
 34105  1  0  0  0
 35 44  2  0  0  0
 35 45  1  0  0  0
 35 68  1  0  0  0
 36 56  1  0  0  0
 36106  1  0  0  0
 37 39  1  0  0  0
 37 47  1  0  0  0
 37 66  1  0  0  0
 37107  1  0  0  0
 38 43  2  0  0  0
 38 46  1  0  0  0
 38 47  1  0  0  0
 39 64  1  0  0  0
 39 67  2  0  0  0
 40 52  1  0  0  0
 40 53  2  0  0  0
 40 58  1  0  0  0
 41108  1  0  0  0
 41109  1  0  0  0
 41110  1  0  0  0
 41 48  1  0  0  0
 42 43  1  0  0  0
 42 66  1  0  0  0
 42111  1  0  0  0
 42112  1  0  0  0
 43 44  1  0  0  0
 44113  1  0  0  0
 45 46  2  0  0  0
 45114  1  0  0  0
 46115  1  0  0  0
 47116  1  0  0  0
 47117  1  0  0  0
 48 56  1  0  0  0
 48 65  1  0  0  0
 48118  1  0  0  0
 49 50  1  0  0  0
 49 53  1  0  0  0
 49 64  1  0  0  0
 49119  1  0  0  0
 50 51  1  0  0  0
 50120  1  0  0  0
 50121  1  0  0  0
 51 52  1  0  0  0
 51122  1  0  0  0
 51123  1  0  0  0
 52124  1  0  0  0
 52125  1  0  0  0
 53 54  1  0  0  0
 54 55  2  0  0  0
 54126  1  0  0  0
 55 57  1  0  0  0
 55127  1  0  0  0
 56 69  2  0  0  0
 57 58  2  0  0  0
 57128  1  0  0  0
 58129  1  0  0  0
 59 60  1  0  0  0
 59 61  1  0  0  0
 59 62  1  0  0  0
 60130  1  0  0  0
 60131  1  0  0  0
 60132  1  0  0  0
 61133  1  0  0  0
 61134  1  0  0  0
 61135  1  0  0  0
 62136  1  0  0  0
 62137  1  0  0  0
 62138  1  0  0  0
 63 65  1  0  0  0
 63139  1  0  0  0
 63140  1  0  0  0
 63141  1  0  0  0
 64142  1  0  0  0
 65143  1  0  0  0
 68 79  1  0  0  0
 71 72  2  0  0  0
 71 74  1  0  0  0
 71144  1  0  0  0
 72 75  1  0  0  0
 72145  1  0  0  0
 73 75  2  0  0  0
 73 76  1  0  0  0
 73146  1  0  0  0
 74 76  2  0  0  0
 74 77  1  0  0  0
 75 81  1  0  0  0
 76 80  1  0  0  0
 77 82  1  0  0  0
 77 83  2  0  0  0
 78 79  1  0  0  0
 78 81  1  0  0  0
 78 84  2  0  0  0
 79147  1  0  0  0
 79148  1  0  0  0
 80149  1  0  0  0
 80150  1  0  0  0
 81151  1  0  0  0
 82152  1  0  0  0
M  ISO  4   1 100  68 101  79 101  82 100
M  END
> <chiral flag>
0

> <version>
0

> <s_m_source_file>
/data/baiqing/PycharmProjects/Reinvent-master-3.2/result/LINK_invent/BTK/process_docking_weight1_custom_product_contain_oxygen_bond_distance_aromatic_linkinvent_7_9_3/rearranged_h_0091.sdf

> <i_m_source_file_index>
56

> <r_mmod_Potential_Energy-OPLS-2005>
141.702117919922

> <r_mmod_Stretch_Energy-OPLS-2005>
85.5915908813477

> <r_mmod_Bend_Energy-OPLS-2005>
161.294494628906

> <r_mmod_Torsional_Energy-OPLS-2005>
252.531646728516

> <r_mmod_Improper_Torsional_Energy-OPLS-2005>
9.89860153198242

> <r_mmod_Van_der_Waal_Energy-OPLS-2005>
156.295196533203

> <r_mmod_Electrostatic_Energy-OPLS-2005>
-321.044586181641

> <r_mmod_Solvation_Energy-OPLS-2005>
-263.200653076172

> <b_mmod_Minimization_Converged-OPLS-2005>
0

> <r_mmod_RMS_Derivative-OPLS-2005>
0.502435922622681

$$$$
56
                    3D
 Structure written by MMmdl.
152160  0  0  1  0            999 V2000
  -30.5650  -14.9320   20.5031 C   0  0  0  0  0  0
  -30.4409  -12.5898   19.5057 C   0  0  0  0  0  0
  -29.5248  -12.5502   18.2594 C   0  0  0  0  0  0
  -28.0565  -12.3291   18.6657 C   0  0  0  0  0  0
  -27.6345  -13.2448   19.8417 C   0  0  2  0  0  0
  -28.6685  -13.2315   20.9828 C   0  0  0  0  0  0
  -25.2487  -13.8211   20.5699 C   0  0  0  0  0  0
  -24.1791  -13.0439   20.9195 C   0  0  0  0  0  0
  -24.6399  -11.6921   20.8723 C   0  0  0  0  0  0
  -23.9079  -10.4294   21.0393 C   0  0  0  0  0  0
  -24.3627   -9.4212   21.9176 C   0  0  0  0  0  0
  -23.6299   -8.2249   22.0753 C   0  0  0  0  0  0
  -22.4279   -8.0284   21.3545 C   0  0  0  0  0  0
  -21.9914   -9.0258   20.4648 C   0  0  0  0  0  0
  -22.7246  -10.2134   20.3050 C   0  0  0  0  0  0
  -21.6857   -6.0736   22.5279 C   0  0  0  0  0  0
  -21.4018   -6.5639   23.8212 C   0  0  0  0  0  0
  -21.3661   -5.6793   24.9175 C   0  0  0  0  0  0
  -21.6043   -4.3056   24.7226 C   0  0  0  0  0  0
  -21.8819   -3.8146   23.4348 C   0  0  0  0  0  0
  -21.9195   -4.6964   22.3404 C   0  0  0  0  0  0
  -22.7814  -13.5216   21.1868 C   0  0  0  0  0  0
  -22.1662   -4.2148   21.0981 F   0  0  0  0  0  0
  -21.5626   -3.4539   25.7738 F   0  0  0  0  0  0
  -29.9585  -13.6696   20.4212 N   0  0  0  0  0  0
  -26.2900  -12.9432   20.3215 N   0  0  0  0  0  0
  -25.9327  -11.6562   20.5694 N   0  0  0  0  0  0
  -22.0470  -12.8205   22.0430 N   0  0  0  0  0  0
  -25.4191  -15.1941   20.4189 N   0  0  0  0  0  0
  -31.7003  -15.0321   20.0229 O   0  0  0  0  0  0
  -21.6644   -6.8881   21.4242 O   0  0  0  0  0  0
  -22.3492  -14.5521   20.6720 O   0  0  0  0  0  0
  -24.6445  -31.8435   23.1886 C   0  0  0  0  0  0
  -25.9213  -32.4693   23.8276 C   0  0  1  0  0  0
  -27.2171  -27.1270   20.1481 C   0  0  0  0  0  0
  -25.5955  -33.8500   24.2191 N   0  0  0  0  0  0
  -23.4490  -30.4633   21.5340 C   0  0  2  0  0  0
  -24.8997  -28.8923   20.1075 C   0  0  0  0  0  0
  -22.7577  -29.4543   22.4852 C   0  0  0  0  0  0
  -18.0307  -28.1397   22.8477 C   0  0  0  0  0  0
  -24.1493  -36.7255   23.2641 C   0  0  0  0  0  0
  -26.0064  -30.7129   21.3915 C   0  0  0  0  0  0
  -26.0769  -29.3242   20.7316 C   0  0  0  0  0  0
  -27.2349  -28.4563   20.7387 C   0  0  0  0  0  0
  -26.0171  -26.8090   19.4712 C   0  0  0  0  0  0
  -24.8836  -27.6486   19.4617 C   0  0  0  0  0  0
  -23.6766  -29.7949   20.1524 C   0  0  0  0  0  0
  -25.4125  -36.3032   24.0315 C   0  0  1  0  0  0
  -20.5923  -28.3724   23.1231 C   0  0  2  0  0  0
  -20.6792  -26.9425   22.5402 C   0  0  0  0  0  0
  -19.5762  -26.6380   21.5214 C   0  0  0  0  0  0
  -18.1945  -26.7932   22.1629 C   0  0  0  0  0  0
  -19.1565  -28.8880   23.2845 C   0  0  0  0  0  0
  -18.9479  -30.1476   23.8870 C   0  0  0  0  0  0
  -17.6474  -30.6591   24.0560 C   0  0  0  0  0  0
  -25.9075  -34.9406   23.5062 C   0  0  0  0  0  0
  -16.5366  -29.9083   23.6336 C   0  0  0  0  0  0
  -16.7291  -28.6504   23.0354 C   0  0  0  0  0  0
  -26.4526  -31.6565   25.0724 C   0  0  0  0  0  0
  -25.3707  -31.3764   26.1420 C   0  0  0  0  0  0
  -27.0389  -30.2954   24.6323 C   0  0  0  0  0  0
  -27.6057  -32.4331   25.7508 C   0  0  0  0  0  0
  -27.5575  -37.1786   24.8465 C   0  0  0  0  0  0
  -21.4268  -29.3048   22.3601 N   0  0  0  0  0  0
  -26.4289  -37.3744   23.9405 N   0  0  0  0  0  0
  -24.7197  -31.0280   22.0929 N   0  0  0  0  0  0
  -23.4214  -28.8086   23.3004 O   0  0  0  0  0  0
  -28.2520  -26.1192   20.2391 O   0  0  0  0  0  0
  -26.5661  -34.8904   22.4641 O   0  0  0  0  0  0
  -23.5560  -32.1318   23.7096 O   0  0  0  0  0  0
  -30.2572  -18.6560   21.4953 C   0  0  0  0  0  0
  -29.9455  -20.0662   21.2914 C   0  0  0  0  0  0
  -28.9781  -18.0556   19.6170 C   0  0  0  0  0  0
  -29.7846  -17.5475   20.6904 C   0  0  0  0  0  0
  -29.0963  -20.5568   20.2462 C   0  0  0  0  0  0
  -28.6514  -19.4640   19.4154 C   0  0  0  0  0  0
  -30.1437  -15.0532   23.3846 C   0  0  0  0  0  0
  -29.6789  -15.9674   22.5069 C   0  0  0  0  0  0
  -28.8470  -23.3184   20.4382 C   0  0  0  0  0  0
  -27.9458  -24.6190   19.9231 C   0  0  0  0  0  0
  -28.6077  -21.9931   19.9830 N   0  0  0  0  0  0
  -29.9316  -16.0635   21.1164 N   0  0  0  0  0  0
  -29.7465  -23.5286   21.2563 O   0  0  0  0  0  0
  -27.8350  -19.7740   18.3792 F   0  0  0  0  0  0
  -31.4758  -12.7438   19.1967 H   0  0  0  0  0  0
  -30.4338  -11.6264   20.0176 H   0  0  0  0  0  0
  -29.8467  -11.7629   17.5766 H   0  0  0  0  0  0
  -29.6155  -13.4888   17.7103 H   0  0  0  0  0  0
  -27.9478  -11.2836   18.9563 H   0  0  0  0  0  0
  -27.3975  -12.4783   17.8096 H   0  0  0  0  0  0
  -27.6123  -14.2580   19.4390 H   0  0  0  0  0  0
  -28.7522  -12.2380   21.4251 H   0  0  0  0  0  0
  -28.3209  -13.8840   21.7798 H   0  0  0  0  0  0
  -25.2773   -9.5688   22.4750 H   0  0  0  0  0  0
  -24.0008   -7.4642   22.7474 H   0  0  0  0  0  0
  -21.0841   -8.8779   19.8957 H   0  0  0  0  0  0
  -22.3702  -10.9672   19.6159 H   0  0  0  0  0  0
  -21.2011   -7.6147   23.9716 H   0  0  0  0  0  0
  -21.1481   -6.0522   25.9078 H   0  0  0  0  0  0
  -22.0596   -2.7608   23.2850 H   0  0  0  0  0  0
  -22.4098  -11.9874   22.4822 H   0  0  0  0  0  0
  -21.1087  -13.1225   22.2640 H   0  0  0  0  0  0
  -24.6592  -15.8526   20.5499 H   0  0  0  0  0  0
  -26.2840  -15.6374   20.1365 H   0  0  0  0  0  0
  -26.7279  -32.5296   23.1004 H   0  0  0  0  0  0
  -25.0074  -33.9612   25.0320 H   0  0  0  0  0  0
  -22.7520  -31.2897   21.3798 H   0  0  0  0  0  0
  -23.3759  -35.9584   23.3298 H   0  0  0  0  0  0
  -24.3575  -36.8894   22.2057 H   0  0  0  0  0  0
  -23.7250  -37.6450   23.6682 H   0  0  0  0  0  0
  -26.1657  -31.4678   20.6202 H   0  0  0  0  0  0
  -26.8752  -30.7615   22.0361 H   0  0  0  0  0  0
  -28.1272  -28.7780   21.2571 H   0  0  0  0  0  0
  -25.9129  -25.8653   18.9579 H   0  0  0  0  0  0
  -23.9877  -27.3162   18.9553 H   0  0  0  0  0  0
  -23.8146  -30.5706   19.3983 H   0  0  0  0  0  0
  -22.7913  -29.2382   19.8401 H   0  0  0  0  0  0
  -25.1316  -36.1859   25.0807 H   0  0  0  0  0  0
  -21.0016  -28.3315   24.1352 H   0  0  0  0  0  0
  -20.5689  -26.2336   23.3623 H   0  0  0  0  0  0
  -21.6655  -26.7429   22.1197 H   0  0  0  0  0  0
  -19.6920  -25.6285   21.1258 H   0  0  0  0  0  0
  -19.6694  -27.3179   20.6735 H   0  0  0  0  0  0
  -17.4211  -26.6673   21.4037 H   0  0  0  0  0  0
  -18.0347  -26.0083   22.9035 H   0  0  0  0  0  0
  -19.7953  -30.7301   24.2224 H   0  0  0  0  0  0
  -17.5025  -31.6266   24.5169 H   0  0  0  0  0  0
  -15.5364  -30.2975   23.7672 H   0  0  0  0  0  0
  -15.8694  -28.0814   22.7081 H   0  0  0  0  0  0
  -24.5869  -30.7134   25.7734 H   0  0  0  0  0  0
  -24.8916  -32.2953   26.4809 H   0  0  0  0  0  0
  -25.7980  -30.8946   27.0222 H   0  0  0  0  0  0
  -26.3008  -29.6675   24.1318 H   0  0  0  0  0  0
  -27.3974  -29.7261   25.4909 H   0  0  0  0  0  0
  -27.8932  -30.4178   23.9663 H   0  0  0  0  0  0
  -27.2649  -33.3650   26.2033 H   0  0  0  0  0  0
  -28.3892  -32.6864   25.0353 H   0  0  0  0  0  0
  -28.0696  -31.8492   26.5467 H   0  0  0  0  0  0
  -28.2591  -38.0083   24.7505 H   0  0  0  0  0  0
  -28.1073  -36.2614   24.6303 H   0  0  0  0  0  0
  -27.2288  -37.1446   25.8866 H   0  0  0  0  0  0
  -20.9481  -29.8760   21.6779 H   0  0  0  0  0  0
  -26.0156  -38.2814   24.1403 H   0  0  0  0  0  0
  -30.8697  -18.4242   22.3555 H   0  0  0  0  0  0
  -30.3508  -20.7805   21.9937 H   0  0  0  0  0  0
  -28.5255  -17.3437   18.9432 H   0  0  0  0  0  0
  -29.8537  -15.1082   24.4245 H   0  0  0  0  0  0
  -30.8086  -14.2457   23.1128 H   0  0  0  0  0  0
  -29.0171  -16.7432   22.8684 H   0  0  0  0  0  0
  -26.9476  -24.4074   20.3068 H   0  0  0  0  0  0
  -27.8736  -24.5316   18.8388 H   0  0  0  0  0  0
  -27.8911  -21.9957   19.2688 H   0  0  0  0  0  0
  1 25  1  0  0  0
  1 30  2  0  0  0
  1 82  1  0  0  0
  2  3  1  0  0  0
  2 25  1  0  0  0
  2 85  1  0  0  0
  2 86  1  0  0  0
  3  4  1  0  0  0
  3 87  1  0  0  0
  3 88  1  0  0  0
  4  5  1  0  0  0
  4 89  1  0  0  0
  4 90  1  0  0  0
  5  6  1  0  0  0
  5 26  1  0  0  0
  5 91  1  0  0  0
  6 25  1  0  0  0
  6 92  1  0  0  0
  6 93  1  0  0  0
  7  8  2  0  0  0
  7 26  1  0  0  0
  7 29  1  0  0  0
  8  9  1  0  0  0
  8 22  1  0  0  0
  9 10  1  0  0  0
  9 27  2  0  0  0
 10 11  2  0  0  0
 10 15  1  0  0  0
 11 12  1  0  0  0
 11 94  1  0  0  0
 12 13  2  0  0  0
 12 95  1  0  0  0
 13 14  1  0  0  0
 13 31  1  0  0  0
 14 15  2  0  0  0
 14 96  1  0  0  0
 15 97  1  0  0  0
 16 17  2  0  0  0
 16 21  1  0  0  0
 16 31  1  0  0  0
 17 18  1  0  0  0
 17 98  1  0  0  0
 18 19  2  0  0  0
 18 99  1  0  0  0
 19 20  1  0  0  0
 19 24  1  0  0  0
 20 21  2  0  0  0
 20100  1  0  0  0
 21 23  1  0  0  0
 22 28  1  0  0  0
 22 32  2  0  0  0
 26 27  1  0  0  0
 28101  1  0  0  0
 28102  1  0  0  0
 29103  1  0  0  0
 29104  1  0  0  0
 33 34  1  0  0  0
 33 66  1  0  0  0
 33 70  2  0  0  0
 34 36  1  0  0  0
 34 59  1  0  0  0
 34105  1  0  0  0
 35 44  2  0  0  0
 35 45  1  0  0  0
 35 68  1  0  0  0
 36 56  1  0  0  0
 36106  1  0  0  0
 37 39  1  0  0  0
 37 47  1  0  0  0
 37 66  1  0  0  0
 37107  1  0  0  0
 38 43  2  0  0  0
 38 46  1  0  0  0
 38 47  1  0  0  0
 39 64  1  0  0  0
 39 67  2  0  0  0
 40 52  1  0  0  0
 40 53  2  0  0  0
 40 58  1  0  0  0
 41108  1  0  0  0
 41109  1  0  0  0
 41110  1  0  0  0
 41 48  1  0  0  0
 42 43  1  0  0  0
 42 66  1  0  0  0
 42111  1  0  0  0
 42112  1  0  0  0
 43 44  1  0  0  0
 44113  1  0  0  0
 45 46  2  0  0  0
 45114  1  0  0  0
 46115  1  0  0  0
 47116  1  0  0  0
 47117  1  0  0  0
 48 56  1  0  0  0
 48 65  1  0  0  0
 48118  1  0  0  0
 49 50  1  0  0  0
 49 53  1  0  0  0
 49 64  1  0  0  0
 49119  1  0  0  0
 50 51  1  0  0  0
 50120  1  0  0  0
 50121  1  0  0  0
 51 52  1  0  0  0
 51122  1  0  0  0
 51123  1  0  0  0
 52124  1  0  0  0
 52125  1  0  0  0
 53 54  1  0  0  0
 54 55  2  0  0  0
 54126  1  0  0  0
 55 57  1  0  0  0
 55127  1  0  0  0
 56 69  2  0  0  0
 57 58  2  0  0  0
 57128  1  0  0  0
 58129  1  0  0  0
 59 60  1  0  0  0
 59 61  1  0  0  0
 59 62  1  0  0  0
 60130  1  0  0  0
 60131  1  0  0  0
 60132  1  0  0  0
 61133  1  0  0  0
 61134  1  0  0  0
 61135  1  0  0  0
 62136  1  0  0  0
 62137  1  0  0  0
 62138  1  0  0  0
 63 65  1  0  0  0
 63139  1  0  0  0
 63140  1  0  0  0
 63141  1  0  0  0
 64142  1  0  0  0
 65143  1  0  0  0
 68 80  1  0  0  0
 71 72  2  0  0  0
 71 74  1  0  0  0
 71144  1  0  0  0
 72 75  1  0  0  0
 72145  1  0  0  0
 73 74  2  0  0  0
 73 76  1  0  0  0
 73146  1  0  0  0
 74 82  1  0  0  0
 75 76  2  0  0  0
 75 81  1  0  0  0
 76 84  1  0  0  0
 77 78  2  0  0  0
 77147  1  0  0  0
 77148  1  0  0  0
 78 82  1  0  0  0
 78149  1  0  0  0
 79 80  1  0  0  0
 79 81  1  0  0  0
 79 83  2  0  0  0
 80150  1  0  0  0
 80151  1  0  0  0
 81152  1  0  0  0
M  ISO  4   1 100  68 101  80 101  82 100
M  END
> <chiral flag>
0

> <version>
0

> <s_m_source_file>
/data/baiqing/PycharmProjects/Reinvent-master-3.2/result/LINK_invent/BTK/process_docking_weight1_custom_product_contain_oxygen_bond_distance_aromatic_linkinvent_7_9_3/rearranged_h_0091.sdf

> <i_m_source_file_index>
57

> <r_mmod_Potential_Energy-OPLS-2005>
633.227172851562

> <r_mmod_Stretch_Energy-OPLS-2005>
249.572006225586

> <r_mmod_Bend_Energy-OPLS-2005>
270.237884521484

> <r_mmod_Torsional_Energy-OPLS-2005>
305.594696044922

> <r_mmod_Improper_Torsional_Energy-OPLS-2005>
4.19865655899048

> <r_mmod_Van_der_Waal_Energy-OPLS-2005>
146.20964050293

> <r_mmod_Electrostatic_Energy-OPLS-2005>
-307.4267578125

> <r_mmod_Solvation_Energy-OPLS-2005>
-224.592834472656

> <b_mmod_Minimization_Converged-OPLS-2005>
0

> <r_mmod_RMS_Derivative-OPLS-2005>
0.355818182229996

$$$$
57
                    3D
 Structure written by MMmdl.
151159  0  0  1  0            999 V2000
  -30.5256  -14.8894   20.4787 C   0  0  0  0  0  0
  -30.4609  -12.5587   19.4902 C   0  0  0  0  0  0
  -29.5271  -12.5546   18.2528 C   0  0  0  0  0  0
  -28.0518  -12.3479   18.6562 C   0  0  0  0  0  0
  -27.6475  -13.2292   19.8663 C   0  0  2  0  0  0
  -28.6949  -13.1155   20.9915 C   0  0  0  0  0  0
  -25.2536  -13.8171   20.5718 C   0  0  0  0  0  0
  -24.1803  -13.0419   20.9167 C   0  0  0  0  0  0
  -24.6396  -11.6897   20.8721 C   0  0  0  0  0  0
  -23.9068  -10.4282   21.0395 C   0  0  0  0  0  0
  -24.3617   -9.4202   21.9179 C   0  0  0  0  0  0
  -23.6288   -8.2240   22.0757 C   0  0  0  0  0  0
  -22.4271   -8.0278   21.3546 C   0  0  0  0  0  0
  -21.9905   -9.0250   20.4647 C   0  0  0  0  0  0
  -22.7236  -10.2127   20.3051 C   0  0  0  0  0  0
  -21.6850   -6.0735   22.5279 C   0  0  0  0  0  0
  -21.4013   -6.5641   23.8211 C   0  0  0  0  0  0
  -21.3657   -5.6795   24.9174 C   0  0  0  0  0  0
  -21.6043   -4.3057   24.7225 C   0  0  0  0  0  0
  -21.8819   -3.8149   23.4346 C   0  0  0  0  0  0
  -21.9192   -4.6964   22.3402 C   0  0  0  0  0  0
  -22.7830  -13.5212   21.1839 C   0  0  0  0  0  0
  -22.1660   -4.2151   21.0979 F   0  0  0  0  0  0
  -21.5627   -3.4540   25.7737 F   0  0  0  0  0  0
  -29.9753  -13.6008   20.4419 N   0  0  0  0  0  0
  -26.2970  -12.9367   20.3350 N   0  0  0  0  0  0
  -25.9332  -11.6506   20.5746 N   0  0  0  0  0  0
  -22.0483  -12.8209   22.0410 N   0  0  0  0  0  0
  -25.4256  -15.1896   20.4213 N   0  0  0  0  0  0
  -31.6788  -15.0295   20.0493 O   0  0  0  0  0  0
  -21.6635   -6.8876   21.4240 O   0  0  0  0  0  0
  -22.3511  -14.5520   20.6696 O   0  0  0  0  0  0
  -24.6407  -31.8470   23.1918 C   0  0  0  0  0  0
  -25.9194  -32.4707   23.8290 C   0  0  1  0  0  0
  -27.2216  -27.1712   20.1361 C   0  0  0  0  0  0
  -25.5954  -33.8514   24.2205 N   0  0  0  0  0  0
  -23.4423  -30.4690   21.5364 C   0  0  2  0  0  0
  -24.8922  -28.9048   20.1077 C   0  0  0  0  0  0
  -22.7553  -29.4567   22.4864 C   0  0  0  0  0  0
  -18.0302  -28.1398   22.8478 C   0  0  0  0  0  0
  -24.1489  -36.7260   23.2644 C   0  0  0  0  0  0
  -25.9974  -30.7287   21.3893 C   0  0  0  0  0  0
  -26.0682  -29.3448   20.7284 C   0  0  0  0  0  0
  -27.2320  -28.4922   20.7316 C   0  0  0  0  0  0
  -26.0224  -26.8347   19.4650 C   0  0  0  0  0  0
  -24.8804  -27.6608   19.4625 C   0  0  0  0  0  0
  -23.6669  -29.8023   20.1541 C   0  0  0  0  0  0
  -25.4121  -36.3039   24.0317 C   0  0  1  0  0  0
  -20.5914  -28.3724   23.1235 C   0  0  2  0  0  0
  -20.6787  -26.9428   22.5401 C   0  0  0  0  0  0
  -19.5758  -26.6383   21.5210 C   0  0  0  0  0  0
  -18.1939  -26.7936   22.1623 C   0  0  0  0  0  0
  -19.1559  -28.8878   23.2849 C   0  0  0  0  0  0
  -18.9479  -30.1473   23.8875 C   0  0  0  0  0  0
  -17.6478  -30.6594   24.0563 C   0  0  0  0  0  0
  -25.9073  -34.9414   23.5067 C   0  0  0  0  0  0
  -16.5368  -29.9089   23.6340 C   0  0  0  0  0  0
  -16.7288  -28.6508   23.0358 C   0  0  0  0  0  0
  -26.4525  -31.6573   25.0724 C   0  0  0  0  0  0
  -25.3709  -31.3758   26.1420 C   0  0  0  0  0  0
  -27.0400  -30.2972   24.6303 C   0  0  0  0  0  0
  -27.6054  -32.4347   25.7504 C   0  0  0  0  0  0
  -27.5573  -37.1785   24.8468 C   0  0  0  0  0  0
  -21.4249  -29.3054   22.3611 N   0  0  0  0  0  0
  -26.4286  -37.3750   23.9410 N   0  0  0  0  0  0
  -24.7129  -31.0352   22.0942 N   0  0  0  0  0  0
  -23.4209  -28.8105   23.2999 O   0  0  0  0  0  0
  -28.2759  -26.1961   20.2219 O   0  0  0  0  0  0
  -26.5654  -34.8905   22.4643 O   0  0  0  0  0  0
  -23.5533  -32.1341   23.7150 O   0  0  0  0  0  0
  -29.9817  -18.7854   21.5851 C   0  0  0  0  0  0
  -29.7326  -20.2021   21.3798 C   0  0  0  0  0  0
  -29.2849  -18.3023   19.3847 C   0  0  0  0  0  0
  -29.7539  -17.7418   20.6157 C   0  0  0  0  0  0
  -29.2020  -20.7389   20.1660 C   0  0  0  0  0  0
  -29.0235  -19.7150   19.1721 C   0  0  0  0  0  0
  -29.6607  -16.1940   21.0265 C   0  0  0  0  0  0
  -28.8965  -23.4522   20.4182 C   0  0  0  0  0  0
  -27.9978  -24.7169   19.8741 C   0  0  0  0  0  0
  -28.7958  -16.0154   21.9326 N   0  0  0  0  0  0
  -28.5290  -20.1090   17.9283 N   0  0  0  0  0  0
  -28.7252  -22.1568   19.8913 N   0  0  0  0  0  0
  -29.7231  -23.6576   21.3111 O   0  0  0  0  0  0
  -31.4895  -12.7391   19.1746 H   0  0  0  0  0  0
  -30.4770  -11.5763   19.9649 H   0  0  0  0  0  0
  -29.8352  -11.7807   17.5487 H   0  0  0  0  0  0
  -29.6268  -13.5042   17.7251 H   0  0  0  0  0  0
  -27.9222  -11.2952   18.9104 H   0  0  0  0  0  0
  -27.3939  -12.5390   17.8078 H   0  0  0  0  0  0
  -27.6494  -14.2607   19.5140 H   0  0  0  0  0  0
  -28.7839  -12.0762   21.3114 H   0  0  0  0  0  0
  -28.3828  -13.6340   21.8930 H   0  0  0  0  0  0
  -25.2762   -9.5677   22.4753 H   0  0  0  0  0  0
  -23.9993   -7.4634   22.7482 H   0  0  0  0  0  0
  -21.0833   -8.8768   19.8958 H   0  0  0  0  0  0
  -22.3693  -10.9664   19.6161 H   0  0  0  0  0  0
  -21.2006   -7.6149   23.9713 H   0  0  0  0  0  0
  -21.1478   -6.0526   25.9075 H   0  0  0  0  0  0
  -22.0601   -2.7611   23.2846 H   0  0  0  0  0  0
  -22.4097  -11.9860   22.4778 H   0  0  0  0  0  0
  -21.1117  -13.1255   22.2649 H   0  0  0  0  0  0
  -24.6770  -15.8551   20.5785 H   0  0  0  0  0  0
  -26.3187  -15.6301   20.2368 H   0  0  0  0  0  0
  -26.7257  -32.5311   23.1018 H   0  0  0  0  0  0
  -25.0088  -33.9637   25.0342 H   0  0  0  0  0  0
  -22.7435  -31.2944   21.3850 H   0  0  0  0  0  0
  -23.3754  -35.9588   23.3300 H   0  0  0  0  0  0
  -24.3575  -36.8898   22.2061 H   0  0  0  0  0  0
  -23.7241  -37.6452   23.6686 H   0  0  0  0  0  0
  -26.1539  -31.4853   20.6193 H   0  0  0  0  0  0
  -26.8682  -30.7733   22.0319 H   0  0  0  0  0  0
  -28.1249  -28.8218   21.2443 H   0  0  0  0  0  0
  -25.9241  -25.8940   18.9455 H   0  0  0  0  0  0
  -23.9848  -27.3217   18.9600 H   0  0  0  0  0  0
  -23.7996  -30.5789   19.4000 H   0  0  0  0  0  0
  -22.7820  -29.2435   19.8438 H   0  0  0  0  0  0
  -25.1305  -36.1870   25.0809 H   0  0  0  0  0  0
  -21.0010  -28.3316   24.1354 H   0  0  0  0  0  0
  -20.5684  -26.2339   23.3621 H   0  0  0  0  0  0
  -21.6652  -26.7435   22.1195 H   0  0  0  0  0  0
  -19.6922  -25.6288   21.1255 H   0  0  0  0  0  0
  -19.6693  -27.3182   20.6730 H   0  0  0  0  0  0
  -17.4208  -26.6683   21.4027 H   0  0  0  0  0  0
  -18.0341  -26.0080   22.9022 H   0  0  0  0  0  0
  -19.7957  -30.7294   24.2233 H   0  0  0  0  0  0
  -17.5032  -31.6271   24.5172 H   0  0  0  0  0  0
  -15.5368  -30.2986   23.7679 H   0  0  0  0  0  0
  -15.8687  -28.0822   22.7088 H   0  0  0  0  0  0
  -24.5889  -30.7111   25.7733 H   0  0  0  0  0  0
  -24.8899  -32.2941   26.4798 H   0  0  0  0  0  0
  -25.7987  -30.8955   27.0229 H   0  0  0  0  0  0
  -26.3024  -29.6682   24.1309 H   0  0  0  0  0  0
  -27.4019  -29.7280   25.4876 H   0  0  0  0  0  0
  -27.8923  -30.4213   23.9620 H   0  0  0  0  0  0
  -27.2649  -33.3672   26.2019 H   0  0  0  0  0  0
  -28.3894  -32.6877   25.0352 H   0  0  0  0  0  0
  -28.0692  -31.8517   26.5471 H   0  0  0  0  0  0
  -28.2586  -38.0084   24.7513 H   0  0  0  0  0  0
  -28.1073  -36.2615   24.6298 H   0  0  0  0  0  0
  -27.2289  -37.1436   25.8869 H   0  0  0  0  0  0
  -20.9457  -29.8778   21.6801 H   0  0  0  0  0  0
  -26.0152  -38.2816   24.1417 H   0  0  0  0  0  0
  -30.2947  -18.4818   22.5745 H   0  0  0  0  0  0
  -29.8956  -20.8766   22.2082 H   0  0  0  0  0  0
  -29.0362  -17.6073   18.5953 H   0  0  0  0  0  0
  -26.9953  -24.4773   20.2285 H   0  0  0  0  0  0
  -27.9648  -24.6405   18.7870 H   0  0  0  0  0  0
  -28.3520  -16.8919   22.1791 H   0  0  0  0  0  0
  -28.6058  -19.4317   17.1765 H   0  0  0  0  0  0
  -28.8024  -21.0320   17.6092 H   0  0  0  0  0  0
  -28.0829  -22.1668   19.1106 H   0  0  0  0  0  0
  1 25  1  0  0  0
  1 30  2  0  0  0
  1 77  1  0  0  0
  2  3  1  0  0  0
  2 25  1  0  0  0
  2 84  1  0  0  0
  2 85  1  0  0  0
  3  4  1  0  0  0
  3 86  1  0  0  0
  3 87  1  0  0  0
  4  5  1  0  0  0
  4 88  1  0  0  0
  4 89  1  0  0  0
  5  6  1  0  0  0
  5 26  1  0  0  0
  5 90  1  0  0  0
  6 25  1  0  0  0
  6 91  1  0  0  0
  6 92  1  0  0  0
  7  8  2  0  0  0
  7 26  1  0  0  0
  7 29  1  0  0  0
  8  9  1  0  0  0
  8 22  1  0  0  0
  9 10  1  0  0  0
  9 27  2  0  0  0
 10 11  2  0  0  0
 10 15  1  0  0  0
 11 12  1  0  0  0
 11 93  1  0  0  0
 12 13  2  0  0  0
 12 94  1  0  0  0
 13 14  1  0  0  0
 13 31  1  0  0  0
 14 15  2  0  0  0
 14 95  1  0  0  0
 15 96  1  0  0  0
 16 17  2  0  0  0
 16 21  1  0  0  0
 16 31  1  0  0  0
 17 18  1  0  0  0
 17 97  1  0  0  0
 18 19  2  0  0  0
 18 98  1  0  0  0
 19 20  1  0  0  0
 19 24  1  0  0  0
 20 21  2  0  0  0
 20 99  1  0  0  0
 21 23  1  0  0  0
 22 28  1  0  0  0
 22 32  2  0  0  0
 26 27  1  0  0  0
 28100  1  0  0  0
 28101  1  0  0  0
 29102  1  0  0  0
 29103  1  0  0  0
 33 34  1  0  0  0
 33 66  1  0  0  0
 33 70  2  0  0  0
 34 36  1  0  0  0
 34 59  1  0  0  0
 34104  1  0  0  0
 35 44  2  0  0  0
 35 45  1  0  0  0
 35 68  1  0  0  0
 36 56  1  0  0  0
 36105  1  0  0  0
 37 39  1  0  0  0
 37 47  1  0  0  0
 37 66  1  0  0  0
 37106  1  0  0  0
 38 43  2  0  0  0
 38 46  1  0  0  0
 38 47  1  0  0  0
 39 64  1  0  0  0
 39 67  2  0  0  0
 40 52  1  0  0  0
 40 53  2  0  0  0
 40 58  1  0  0  0
 41107  1  0  0  0
 41108  1  0  0  0
 41109  1  0  0  0
 41 48  1  0  0  0
 42 43  1  0  0  0
 42 66  1  0  0  0
 42110  1  0  0  0
 42111  1  0  0  0
 43 44  1  0  0  0
 44112  1  0  0  0
 45 46  2  0  0  0
 45113  1  0  0  0
 46114  1  0  0  0
 47115  1  0  0  0
 47116  1  0  0  0
 48 56  1  0  0  0
 48 65  1  0  0  0
 48117  1  0  0  0
 49 50  1  0  0  0
 49 53  1  0  0  0
 49 64  1  0  0  0
 49118  1  0  0  0
 50 51  1  0  0  0
 50119  1  0  0  0
 50120  1  0  0  0
 51 52  1  0  0  0
 51121  1  0  0  0
 51122  1  0  0  0
 52123  1  0  0  0
 52124  1  0  0  0
 53 54  1  0  0  0
 54 55  2  0  0  0
 54125  1  0  0  0
 55 57  1  0  0  0
 55126  1  0  0  0
 56 69  2  0  0  0
 57 58  2  0  0  0
 57127  1  0  0  0
 58128  1  0  0  0
 59 60  1  0  0  0
 59 61  1  0  0  0
 59 62  1  0  0  0
 60129  1  0  0  0
 60130  1  0  0  0
 60131  1  0  0  0
 61132  1  0  0  0
 61133  1  0  0  0
 61134  1  0  0  0
 62135  1  0  0  0
 62136  1  0  0  0
 62137  1  0  0  0
 63 65  1  0  0  0
 63138  1  0  0  0
 63139  1  0  0  0
 63140  1  0  0  0
 64141  1  0  0  0
 65142  1  0  0  0
 68 79  1  0  0  0
 71 72  2  0  0  0
 71 74  1  0  0  0
 71143  1  0  0  0
 72 75  1  0  0  0
 72144  1  0  0  0
 73 74  2  0  0  0
 73 76  1  0  0  0
 73145  1  0  0  0
 74 77  1  0  0  0
 75 76  2  0  0  0
 75 82  1  0  0  0
 76 81  1  0  0  0
 77 80  2  0  0  0
 78 79  1  0  0  0
 78 82  1  0  0  0
 78 83  2  0  0  0
 79146  1  0  0  0
 79147  1  0  0  0
 80148  1  0  0  0
 81149  1  0  0  0
 81150  1  0  0  0
 82151  1  0  0  0
M  ISO  4   1 100  68 101  77 100  79 101
M  END
> <chiral flag>
0

> <version>
0

> <s_m_source_file>
/data/baiqing/PycharmProjects/Reinvent-master-3.2/result/LINK_invent/BTK/process_docking_weight1_custom_product_contain_oxygen_bond_distance_aromatic_linkinvent_7_9_3/rearranged_h_0091.sdf

> <i_m_source_file_index>
58

> <r_mmod_Potential_Energy-OPLS-2005>
424.472625732422

> <r_mmod_Stretch_Energy-OPLS-2005>
215.786926269531

> <r_mmod_Bend_Energy-OPLS-2005>
255.771362304688

> <r_mmod_Torsional_Energy-OPLS-2005>
225.786468505859

> <r_mmod_Improper_Torsional_Energy-OPLS-2005>
10.2868709564209

> <r_mmod_Van_der_Waal_Energy-OPLS-2005>
144.25276184082

> <r_mmod_Electrostatic_Energy-OPLS-2005>
-338.353363037109

> <r_mmod_Solvation_Energy-OPLS-2005>
-243.047012329102

> <b_mmod_Minimization_Converged-OPLS-2005>
0

> <r_mmod_RMS_Derivative-OPLS-2005>
0.509174048900604

$$$$
58
                    3D
 Structure written by MMmdl.
162170  0  0  1  0            999 V2000
  -30.6968  -14.5185   20.4979 C   0  0  0  0  0  0
  -30.4242  -12.3101   19.4399 C   0  0  0  0  0  0
  -29.4964  -12.4338   18.2127 C   0  0  0  0  0  0
  -28.0157  -12.3265   18.6292 C   0  0  0  0  0  0
  -27.6527  -13.2057   19.8565 C   0  0  2  0  0  0
  -28.6973  -13.0593   20.9842 C   0  0  0  0  0  0
  -25.2587  -13.8164   20.5667 C   0  0  0  0  0  0
  -24.1842  -13.0450   20.9197 C   0  0  0  0  0  0
  -24.6384  -11.6912   20.8755 C   0  0  0  0  0  0
  -23.9051  -10.4299   21.0420 C   0  0  0  0  0  0
  -24.3611   -9.4212   21.9196 C   0  0  0  0  0  0
  -23.6283   -8.2249   22.0760 C   0  0  0  0  0  0
  -22.4270   -8.0286   21.3546 C   0  0  0  0  0  0
  -21.9902   -9.0265   20.4655 C   0  0  0  0  0  0
  -22.7224  -10.2147   20.3064 C   0  0  0  0  0  0
  -21.6856   -6.0735   22.5276 C   0  0  0  0  0  0
  -21.4022   -6.5640   23.8210 C   0  0  0  0  0  0
  -21.3653   -5.6792   24.9172 C   0  0  0  0  0  0
  -21.6035   -4.3054   24.7225 C   0  0  0  0  0  0
  -21.8818   -3.8145   23.4349 C   0  0  0  0  0  0
  -21.9196   -4.6961   22.3404 C   0  0  0  0  0  0
  -22.7868  -13.5263   21.1848 C   0  0  0  0  0  0
  -22.1660   -4.2143   21.0980 F   0  0  0  0  0  0
  -21.5626   -3.4537   25.7739 F   0  0  0  0  0  0
  -30.0181  -13.3408   20.4079 N   0  0  0  0  0  0
  -26.2989  -12.9319   20.3301 N   0  0  0  0  0  0
  -25.9306  -11.6490   20.5777 N   0  0  0  0  0  0
  -22.0487  -12.8274   22.0399 N   0  0  0  0  0  0
  -25.4344  -15.1869   20.4012 N   0  0  0  0  0  0
  -31.8880  -14.6078   20.1874 O   0  0  0  0  0  0
  -21.6636   -6.8880   21.4237 O   0  0  0  0  0  0
  -22.3572  -14.5567   20.6679 O   0  0  0  0  0  0
  -24.6148  -31.8702   23.2107 C   0  0  0  0  0  0
  -25.9044  -32.4834   23.8399 C   0  0  1  0  0  0
  -27.2323  -27.4357   20.1032 C   0  0  0  0  0  0
  -25.5901  -33.8629   24.2336 N   0  0  0  0  0  0
  -23.4028  -30.4929   21.5514 C   0  0  2  0  0  0
  -24.8509  -28.9568   20.1183 C   0  0  0  0  0  0
  -22.7405  -29.4680   22.5003 C   0  0  0  0  0  0
  -18.0278  -28.1376   22.8488 C   0  0  0  0  0  0
  -24.1482  -36.7320   23.2637 C   0  0  0  0  0  0
  -25.9312  -30.8329   21.3666 C   0  0  0  0  0  0
  -26.0096  -29.4648   20.7216 C   0  0  0  0  0  0
  -27.2060  -28.7086   20.7200 C   0  0  0  0  0  0
  -26.0631  -26.9471   19.4892 C   0  0  0  0  0  0
  -24.8709  -27.6942   19.5011 C   0  0  0  0  0  0
  -23.6125  -29.8240   20.1664 C   0  0  0  0  0  0
  -25.4101  -36.3120   24.0342 C   0  0  1  0  0  0
  -20.5866  -28.3683   23.1315 C   0  0  2  0  0  0
  -20.6778  -26.9421   22.5415 C   0  0  0  0  0  0
  -19.5759  -26.6386   21.5213 C   0  0  0  0  0  0
  -18.1934  -26.7925   22.1616 C   0  0  0  0  0  0
  -19.1520  -28.8840   23.2904 C   0  0  0  0  0  0
  -18.9444  -30.1444   23.8922 C   0  0  0  0  0  0
  -17.6446  -30.6587   24.0564 C   0  0  0  0  0  0
  -25.9029  -34.9486   23.5137 C   0  0  0  0  0  0
  -16.5342  -29.9084   23.6320 C   0  0  0  0  0  0
  -16.7264  -28.6500   23.0346 C   0  0  0  0  0  0
  -26.4473  -31.6600   25.0716 C   0  0  0  0  0  0
  -25.3740  -31.3698   26.1462 C   0  0  0  0  0  0
  -27.0302  -30.3047   24.6084 C   0  0  0  0  0  0
  -27.6063  -32.4308   25.7470 C   0  0  0  0  0  0
  -27.5580  -37.1814   24.8469 C   0  0  0  0  0  0
  -21.4136  -29.3056   22.3727 N   0  0  0  0  0  0
  -26.4297  -37.3799   23.9409 N   0  0  0  0  0  0
  -24.6677  -31.0796   22.1019 N   0  0  0  0  0  0
  -23.4166  -28.8229   23.3058 O   0  0  0  0  0  0
  -28.3585  -26.6480   20.0464 O   0  0  0  0  0  0
  -26.5586  -34.8941   22.4694 O   0  0  0  0  0  0
  -23.5336  -32.1463   23.7500 O   0  0  0  0  0  0
  -30.7414  -18.7574   20.7942 C   0  0  0  0  0  0
  -30.2244  -20.0760   20.6741 C   0  0  0  0  0  0
  -29.7423  -17.9446   21.2555 C   0  0  0  0  0  0
  -28.9118  -20.0643   21.0606 C   0  0  0  0  0  0
  -28.8302  -26.1385   21.2303 C   0  0  0  0  0  0
  -29.7767  -16.4589   21.5057 C   0  0  0  0  0  0
  -28.8194  -24.8344   21.6099 C   0  0  0  0  0  0
  -28.2228  -23.7543   20.8040 C   0  0  0  0  0  0
  -27.0387  -21.0979   19.7606 C   0  0  0  0  0  0
  -27.3276  -18.2770   21.9692 C   0  0  0  0  0  0
  -29.7815  -16.2090   19.0749 C   0  0  0  0  0  0
  -27.8997  -21.1954   21.0368 C   0  0  2  0  0  0
  -28.6117  -18.7477   21.4564 N   0  0  0  0  0  0
  -28.5306  -22.5172   21.2669 N   0  0  0  0  0  0
  -29.9328  -15.6398   20.4290 N   0  0  0  0  0  0
  -29.6727  -16.0473   22.6661 O   0  0  0  0  0  0
  -27.4773  -23.9396   19.8433 O   0  0  0  0  0  0
  -29.3419  -24.5268   22.8083 O   0  0  0  0  0  0
  -31.4660  -12.4083   19.1296 H   0  0  0  0  0  0
  -30.3398  -11.3209   19.8916 H   0  0  0  0  0  0
  -29.7313  -11.6477   17.4929 H   0  0  0  0  0  0
  -29.6752  -13.3700   17.6875 H   0  0  0  0  0  0
  -27.8242  -11.2786   18.8616 H   0  0  0  0  0  0
  -27.3677  -12.5691   17.7866 H   0  0  0  0  0  0
  -27.6742  -14.2386   19.5122 H   0  0  0  0  0  0
  -28.6785  -12.0510   21.3994 H   0  0  0  0  0  0
  -28.4695  -13.7345   21.8104 H   0  0  0  0  0  0
  -25.2759   -9.5678   22.4774 H   0  0  0  0  0  0
  -23.9983   -7.4644   22.7484 H   0  0  0  0  0  0
  -21.0826   -8.8791   19.8969 H   0  0  0  0  0  0
  -22.3687  -10.9692   19.6176 H   0  0  0  0  0  0
  -21.2019   -7.6150   23.9710 H   0  0  0  0  0  0
  -21.1468   -6.0527   25.9075 H   0  0  0  0  0  0
  -22.0602   -2.7605   23.2854 H   0  0  0  0  0  0
  -22.4078  -11.9930   22.4796 H   0  0  0  0  0  0
  -21.1111  -13.1327   22.2590 H   0  0  0  0  0  0
  -24.6588  -15.8363   20.4721 H   0  0  0  0  0  0
  -26.2650  -15.6002   19.9987 H   0  0  0  0  0  0
  -26.7117  -32.5557   23.1164 H   0  0  0  0  0  0
  -25.0065  -33.9787   25.0491 H   0  0  0  0  0  0
  -22.6929  -31.3108   21.4115 H   0  0  0  0  0  0
  -23.3745  -35.9654   23.3317 H   0  0  0  0  0  0
  -24.3578  -36.8912   22.2049 H   0  0  0  0  0  0
  -23.7239  -37.6537   23.6631 H   0  0  0  0  0  0
  -26.0398  -31.5946   20.5939 H   0  0  0  0  0  0
  -26.8213  -30.8913   21.9811 H   0  0  0  0  0  0
  -28.1012  -29.0978   21.1843 H   0  0  0  0  0  0
  -26.0779  -25.9800   19.0077 H   0  0  0  0  0  0
  -23.9818  -27.2976   19.0299 H   0  0  0  0  0  0
  -23.7224  -30.5991   19.4071 H   0  0  0  0  0  0
  -22.7360  -29.2449   19.8690 H   0  0  0  0  0  0
  -25.1277  -36.1992   25.0838 H   0  0  0  0  0  0
  -20.9950  -28.3252   24.1438 H   0  0  0  0  0  0
  -20.5703  -26.2289   23.3602 H   0  0  0  0  0  0
  -21.6650  -26.7492   22.1197 H   0  0  0  0  0  0
  -19.6928  -25.6295   21.1246 H   0  0  0  0  0  0
  -19.6688  -27.3197   20.6742 H   0  0  0  0  0  0
  -17.4207  -26.6676   21.4013 H   0  0  0  0  0  0
  -18.0334  -26.0067   22.9010 H   0  0  0  0  0  0
  -19.7918  -30.7251   24.2305 H   0  0  0  0  0  0
  -17.4999  -31.6263   24.5169 H   0  0  0  0  0  0
  -15.5342  -30.2990   23.7635 H   0  0  0  0  0  0
  -15.8663  -28.0826   22.7054 H   0  0  0  0  0  0
  -24.5914  -30.7048   25.7786 H   0  0  0  0  0  0
  -24.8926  -32.2848   26.4924 H   0  0  0  0  0  0
  -25.8092  -30.8850   27.0209 H   0  0  0  0  0  0
  -26.2838  -29.6805   24.1155 H   0  0  0  0  0  0
  -27.4099  -29.7287   25.4534 H   0  0  0  0  0  0
  -27.8662  -30.4376   23.9213 H   0  0  0  0  0  0
  -27.2702  -33.3595   26.2093 H   0  0  0  0  0  0
  -28.3845  -32.6884   25.0271 H   0  0  0  0  0  0
  -28.0764  -31.8399   26.5344 H   0  0  0  0  0  0
  -28.2618  -38.0093   24.7502 H   0  0  0  0  0  0
  -28.1056  -36.2629   24.6307 H   0  0  0  0  0  0
  -27.2301  -37.1484   25.8874 H   0  0  0  0  0  0
  -20.9314  -29.8767   21.6930 H   0  0  0  0  0  0
  -26.0195  -38.2885   24.1394 H   0  0  0  0  0  0
  -31.7423  -18.4283   20.5494 H   0  0  0  0  0  0
  -30.7551  -20.9469   20.3133 H   0  0  0  0  0  0
  -29.2445  -26.9201   21.8523 H   0  0  0  0  0  0
  -27.6203  -21.3288   18.8673 H   0  0  0  0  0  0
  -26.1824  -21.7708   19.7963 H   0  0  0  0  0  0
  -26.6369  -20.0931   19.6332 H   0  0  0  0  0  0
  -27.0984  -17.2854   21.5800 H   0  0  0  0  0  0
  -26.5116  -18.9351   21.6762 H   0  0  0  0  0  0
  -27.3631  -18.2290   23.0581 H   0  0  0  0  0  0
  -30.6557  -16.7988   18.7946 H   0  0  0  0  0  0
  -28.8969  -16.8439   18.9991 H   0  0  0  0  0  0
  -29.6601  -15.4389   18.3165 H   0  0  0  0  0  0
  -27.2291  -21.0710   21.8873 H   0  0  0  0  0  0
  -29.2827  -22.4880   21.9382 H   0  0  0  0  0  0
  -28.9942  -23.6791   23.0537 H   0  0  0  0  0  0
  1 25  1  0  0  0
  1 30  2  0  0  0
  1 85  1  0  0  0
  2  3  1  0  0  0
  2 25  1  0  0  0
  2 89  1  0  0  0
  2 90  1  0  0  0
  3  4  1  0  0  0
  3 91  1  0  0  0
  3 92  1  0  0  0
  4  5  1  0  0  0
  4 93  1  0  0  0
  4 94  1  0  0  0
  5  6  1  0  0  0
  5 26  1  0  0  0
  5 95  1  0  0  0
  6 25  1  0  0  0
  6 96  1  0  0  0
  6 97  1  0  0  0
  7  8  2  0  0  0
  7 26  1  0  0  0
  7 29  1  0  0  0
  8  9  1  0  0  0
  8 22  1  0  0  0
  9 10  1  0  0  0
  9 27  2  0  0  0
 10 11  2  0  0  0
 10 15  1  0  0  0
 11 12  1  0  0  0
 11 98  1  0  0  0
 12 13  2  0  0  0
 12 99  1  0  0  0
 13 14  1  0  0  0
 13 31  1  0  0  0
 14 15  2  0  0  0
 14100  1  0  0  0
 15101  1  0  0  0
 16 17  2  0  0  0
 16 21  1  0  0  0
 16 31  1  0  0  0
 17 18  1  0  0  0
 17102  1  0  0  0
 18 19  2  0  0  0
 18103  1  0  0  0
 19 20  1  0  0  0
 19 24  1  0  0  0
 20 21  2  0  0  0
 20104  1  0  0  0
 21 23  1  0  0  0
 22 28  1  0  0  0
 22 32  2  0  0  0
 26 27  1  0  0  0
 28105  1  0  0  0
 28106  1  0  0  0
 29107  1  0  0  0
 29108  1  0  0  0
 33 34  1  0  0  0
 33 66  1  0  0  0
 33 70  2  0  0  0
 34 36  1  0  0  0
 34 59  1  0  0  0
 34109  1  0  0  0
 35 44  2  0  0  0
 35 45  1  0  0  0
 35 68  1  0  0  0
 36 56  1  0  0  0
 36110  1  0  0  0
 37 39  1  0  0  0
 37 47  1  0  0  0
 37 66  1  0  0  0
 37111  1  0  0  0
 38 43  2  0  0  0
 38 46  1  0  0  0
 38 47  1  0  0  0
 39 64  1  0  0  0
 39 67  2  0  0  0
 40 52  1  0  0  0
 40 53  2  0  0  0
 40 58  1  0  0  0
 41112  1  0  0  0
 41113  1  0  0  0
 41114  1  0  0  0
 41 48  1  0  0  0
 42 43  1  0  0  0
 42 66  1  0  0  0
 42115  1  0  0  0
 42116  1  0  0  0
 43 44  1  0  0  0
 44117  1  0  0  0
 45 46  2  0  0  0
 45118  1  0  0  0
 46119  1  0  0  0
 47120  1  0  0  0
 47121  1  0  0  0
 48 56  1  0  0  0
 48 65  1  0  0  0
 48122  1  0  0  0
 49 50  1  0  0  0
 49 53  1  0  0  0
 49 64  1  0  0  0
 49123  1  0  0  0
 50 51  1  0  0  0
 50124  1  0  0  0
 50125  1  0  0  0
 51 52  1  0  0  0
 51126  1  0  0  0
 51127  1  0  0  0
 52128  1  0  0  0
 52129  1  0  0  0
 53 54  1  0  0  0
 54 55  2  0  0  0
 54130  1  0  0  0
 55 57  1  0  0  0
 55131  1  0  0  0
 56 69  2  0  0  0
 57 58  2  0  0  0
 57132  1  0  0  0
 58133  1  0  0  0
 59 60  1  0  0  0
 59 61  1  0  0  0
 59 62  1  0  0  0
 60134  1  0  0  0
 60135  1  0  0  0
 60136  1  0  0  0
 61137  1  0  0  0
 61138  1  0  0  0
 61139  1  0  0  0
 62140  1  0  0  0
 62141  1  0  0  0
 62142  1  0  0  0
 63 65  1  0  0  0
 63143  1  0  0  0
 63144  1  0  0  0
 63145  1  0  0  0
 64146  1  0  0  0
 65147  1  0  0  0
 68 75  1  0  0  0
 71 72  1  0  0  0
 71 73  2  0  0  0
 71148  1  0  0  0
 72 74  2  0  0  0
 72149  1  0  0  0
 73 76  1  0  0  0
 73 83  1  0  0  0
 74 82  1  0  0  0
 74 83  1  0  0  0
 75 77  2  0  0  0
 75150  1  0  0  0
 76 85  1  0  0  0
 76 86  2  0  0  0
 77 78  1  0  0  0
 77 88  1  0  0  0
 78 84  1  0  0  0
 78 87  2  0  0  0
 79151  1  0  0  0
 79152  1  0  0  0
 79153  1  0  0  0
 79 82  1  0  0  0
 80 83  1  0  0  0
 80154  1  0  0  0
 80155  1  0  0  0
 80156  1  0  0  0
 81 85  1  0  0  0
 81157  1  0  0  0
 81158  1  0  0  0
 81159  1  0  0  0
 82 84  1  0  0  0
 82160  1  0  0  0
 84161  1  0  0  0
 88162  1  0  0  0
M  ISO  4   1 100  68 101  75 101  85 100
M  END
> <chiral flag>
0

> <version>
0

> <s_m_source_file>
/data/baiqing/PycharmProjects/Reinvent-master-3.2/result/LINK_invent/BTK/process_docking_weight1_custom_product_contain_oxygen_bond_distance_aromatic_linkinvent_7_9_3/rearranged_h_0091.sdf

> <i_m_source_file_index>
59

> <r_mmod_Potential_Energy-OPLS-2005>
94.4143753051758

> <r_mmod_Stretch_Energy-OPLS-2005>
43.941463470459

> <r_mmod_Bend_Energy-OPLS-2005>
113.570922851562

> <r_mmod_Torsional_Energy-OPLS-2005>
367.784301757812

> <r_mmod_Improper_Torsional_Energy-OPLS-2005>
18.5663948059082

> <r_mmod_Van_der_Waal_Energy-OPLS-2005>
136.201721191406

> <r_mmod_Electrostatic_Energy-OPLS-2005>
-382.122314453125

> <r_mmod_Solvation_Energy-OPLS-2005>
-225.915863037109

> <b_mmod_Minimization_Converged-OPLS-2005>
0

> <r_mmod_RMS_Derivative-OPLS-2005>
1.29995095729828

$$$$
59
                    3D
 Structure written by MMmdl.
155163  0  0  1  0            999 V2000
  -30.7071  -14.6497   20.4989 C   0  0  0  0  0  0
  -30.4113  -12.4093   19.4543 C   0  0  0  0  0  0
  -29.4945  -12.4948   18.2195 C   0  0  0  0  0  0
  -28.0225  -12.3326   18.6404 C   0  0  0  0  0  0
  -27.6399  -13.2331   19.8464 C   0  0  2  0  0  0
  -28.6896  -13.1699   20.9774 C   0  0  0  0  0  0
  -25.2511  -13.8207   20.5708 C   0  0  0  0  0  0
  -24.1803  -13.0448   20.9217 C   0  0  0  0  0  0
  -24.6397  -11.6926   20.8760 C   0  0  0  0  0  0
  -23.9075  -10.4299   21.0415 C   0  0  0  0  0  0
  -24.3626   -9.4210   21.9189 C   0  0  0  0  0  0
  -23.6299   -8.2245   22.0754 C   0  0  0  0  0  0
  -22.4280   -8.0284   21.3544 C   0  0  0  0  0  0
  -21.9918   -9.0262   20.4648 C   0  0  0  0  0  0
  -22.7249  -10.2141   20.3061 C   0  0  0  0  0  0
  -21.6855   -6.0739   22.5278 C   0  0  0  0  0  0
  -21.4014   -6.5643   23.8212 C   0  0  0  0  0  0
  -21.3656   -5.6795   24.9173 C   0  0  0  0  0  0
  -21.6041   -4.3057   24.7222 C   0  0  0  0  0  0
  -21.8820   -3.8148   23.4346 C   0  0  0  0  0  0
  -21.9195   -4.6967   22.3403 C   0  0  0  0  0  0
  -22.7820  -13.5227   21.1863 C   0  0  0  0  0  0
  -22.1663   -4.2153   21.0981 F   0  0  0  0  0  0
  -21.5628   -3.4541   25.7734 F   0  0  0  0  0  0
  -29.9923  -13.4836   20.3809 N   0  0  0  0  0  0
  -26.2938  -12.9419   20.3295 N   0  0  0  0  0  0
  -25.9329  -11.6558   20.5770 N   0  0  0  0  0  0
  -22.0466  -12.8221   22.0421 N   0  0  0  0  0  0
  -25.4205  -15.1927   20.4101 N   0  0  0  0  0  0
  -31.9013  -14.6438   20.1902 O   0  0  0  0  0  0
  -21.6640   -6.8883   21.4239 O   0  0  0  0  0  0
  -22.3506  -14.5531   20.6707 O   0  0  0  0  0  0
  -24.6294  -31.8606   23.2058 C   0  0  0  0  0  0
  -25.9144  -32.4776   23.8371 C   0  0  1  0  0  0
  -27.2027  -27.3004   20.1059 C   0  0  0  0  0  0
  -25.5961  -33.8578   24.2294 N   0  0  0  0  0  0
  -23.4208  -30.4905   21.5500 C   0  0  2  0  0  0
  -24.8620  -28.9550   20.1090 C   0  0  0  0  0  0
  -22.7481  -29.4643   22.4936 C   0  0  0  0  0  0
  -18.0292  -28.1381   22.8482 C   0  0  0  0  0  0
  -24.1491  -36.7282   23.2634 C   0  0  0  0  0  0
  -25.9681  -30.7839   21.3835 C   0  0  0  0  0  0
  -26.0371  -29.4144   20.7177 C   0  0  0  0  0  0
  -27.2119  -28.5990   20.7102 C   0  0  0  0  0  0
  -26.0018  -26.9162   19.4583 C   0  0  0  0  0  0
  -24.8475  -27.7112   19.4712 C   0  0  0  0  0  0
  -23.6337  -29.8374   20.1622 C   0  0  0  0  0  0
  -25.4115  -36.3077   24.0328 C   0  0  1  0  0  0
  -20.5894  -28.3693   23.1269 C   0  0  2  0  0  0
  -20.6781  -26.9412   22.5403 C   0  0  0  0  0  0
  -19.5757  -26.6381   21.5207 C   0  0  0  0  0  0
  -18.1937  -26.7926   22.1617 C   0  0  0  0  0  0
  -19.1544  -28.8854   23.2872 C   0  0  0  0  0  0
  -18.9466  -30.1455   23.8888 C   0  0  0  0  0  0
  -17.6465  -30.6584   24.0561 C   0  0  0  0  0  0
  -25.9057  -34.9449   23.5105 C   0  0  0  0  0  0
  -16.5356  -29.9077   23.6337 C   0  0  0  0  0  0
  -16.7278  -28.6495   23.0357 C   0  0  0  0  0  0
  -26.4513  -31.6587   25.0747 C   0  0  0  0  0  0
  -25.3737  -31.3742   26.1469 C   0  0  0  0  0  0
  -27.0351  -30.2996   24.6234 C   0  0  0  0  0  0
  -27.6075  -32.4319   25.7512 C   0  0  0  0  0  0
  -27.5581  -37.1794   24.8461 C   0  0  0  0  0  0
  -21.4196  -29.3050   22.3666 N   0  0  0  0  0  0
  -26.4290  -37.3774   23.9411 N   0  0  0  0  0  0
  -24.6917  -31.0614   22.1019 N   0  0  0  0  0  0
  -23.4204  -28.8168   23.3007 O   0  0  0  0  0  0
  -28.2824  -26.3934   20.1692 O   0  0  0  0  0  0
  -26.5609  -34.8914   22.4661 O   0  0  0  0  0  0
  -23.5457  -32.1415   23.7381 O   0  0  0  0  0  0
  -28.7068  -18.7857   21.0887 C   0  0  0  0  0  0
  -30.3213  -20.8558   20.0889 C   0  0  0  0  0  0
  -30.0270  -18.4376   20.7010 C   0  0  0  0  0  0
  -30.8168  -19.5176   20.1683 C   0  0  0  0  0  0
  -28.2163  -20.1259   20.9936 C   0  0  0  0  0  0
  -29.0166  -21.2014   20.5097 C   0  0  0  0  0  0
  -30.6484  -17.0471   21.0004 C   0  0  0  0  0  0
  -28.9448  -23.8065   20.2878 C   0  0  0  0  0  0
  -32.2335  -19.2920   19.6524 C   0  0  0  0  0  0
  -27.9185  -24.9617   19.9603 C   0  0  0  0  0  0
  -26.9123  -20.3938   21.4112 N   0  0  0  0  0  0
  -28.4292  -22.5358   20.3799 N   0  0  0  0  0  0
  -30.0429  -15.8434   20.7091 N   0  0  0  0  0  0
  -31.7625  -17.0770   21.5369 O   0  0  0  0  0  0
  -30.1437  -24.0591   20.4354 O   0  0  0  0  0  0
  -31.4556  -12.4899   19.1478 H   0  0  0  0  0  0
  -30.3203  -11.4346   19.9367 H   0  0  0  0  0  0
  -29.7630  -11.7259   17.4937 H   0  0  0  0  0  0
  -29.6334  -13.4537   17.7176 H   0  0  0  0  0  0
  -27.8714  -11.2843   18.8998 H   0  0  0  0  0  0
  -27.3626  -12.5324   17.7952 H   0  0  0  0  0  0
  -27.6347  -14.2545   19.4656 H   0  0  0  0  0  0
  -28.7102  -12.1801   21.4365 H   0  0  0  0  0  0
  -28.4428  -13.8744   21.7733 H   0  0  0  0  0  0
  -25.2770   -9.5683   22.4765 H   0  0  0  0  0  0
  -24.0006   -7.4635   22.7473 H   0  0  0  0  0  0
  -21.0848   -8.8783   19.8954 H   0  0  0  0  0  0
  -22.3709  -10.9682   19.6171 H   0  0  0  0  0  0
  -21.2004   -7.6150   23.9717 H   0  0  0  0  0  0
  -21.1475   -6.0523   25.9077 H   0  0  0  0  0  0
  -22.0603   -2.7610   23.2844 H   0  0  0  0  0  0
  -22.4084  -11.9888   22.4815 H   0  0  0  0  0  0
  -21.1082  -13.1243   22.2617 H   0  0  0  0  0  0
  -24.6514  -15.8459   20.5142 H   0  0  0  0  0  0
  -26.2622  -15.6294   20.0580 H   0  0  0  0  0  0
  -26.7211  -32.5429   23.1113 H   0  0  0  0  0  0
  -25.0142  -33.9722   25.0463 H   0  0  0  0  0  0
  -22.7160  -31.3131   21.4130 H   0  0  0  0  0  0
  -23.3759  -35.9609   23.3293 H   0  0  0  0  0  0
  -24.3585  -36.8903   22.2050 H   0  0  0  0  0  0
  -23.7238  -37.6482   23.6656 H   0  0  0  0  0  0
  -26.1113  -31.5510   20.6213 H   0  0  0  0  0  0
  -26.8449  -30.8210   22.0184 H   0  0  0  0  0  0
  -28.1085  -28.9421   21.2072 H   0  0  0  0  0  0
  -25.8975  -25.9764   18.9398 H   0  0  0  0  0  0
  -23.9487  -27.3553   18.9865 H   0  0  0  0  0  0
  -23.7554  -30.6189   19.4113 H   0  0  0  0  0  0
  -22.7514  -29.2720   19.8562 H   0  0  0  0  0  0
  -25.1296  -36.1925   25.0820 H   0  0  0  0  0  0
  -20.9989  -28.3268   24.1389 H   0  0  0  0  0  0
  -20.5683  -26.2303   23.3605 H   0  0  0  0  0  0
  -21.6650  -26.7440   22.1196 H   0  0  0  0  0  0
  -19.6919  -25.6290   21.1241 H   0  0  0  0  0  0
  -19.6696  -27.3188   20.6734 H   0  0  0  0  0  0
  -17.4209  -26.6680   21.4017 H   0  0  0  0  0  0
  -18.0331  -26.0062   22.9006 H   0  0  0  0  0  0
  -19.7941  -30.7275   24.2250 H   0  0  0  0  0  0
  -17.5019  -31.6265   24.5158 H   0  0  0  0  0  0
  -15.5356  -30.2977   23.7664 H   0  0  0  0  0  0
  -15.8677  -28.0807   22.7085 H   0  0  0  0  0  0
  -24.5940  -30.7048   25.7816 H   0  0  0  0  0  0
  -24.8895  -32.2912   26.4839 H   0  0  0  0  0  0
  -25.8063  -30.8980   27.0276 H   0  0  0  0  0  0
  -26.2936  -29.6746   24.1246 H   0  0  0  0  0  0
  -27.4008  -29.7259   25.4760 H   0  0  0  0  0  0
  -27.8828  -30.4255   23.9493 H   0  0  0  0  0  0
  -27.2694  -33.3627   26.2074 H   0  0  0  0  0  0
  -28.3893  -32.6861   25.0342 H   0  0  0  0  0  0
  -28.0733  -31.8450   26.5439 H   0  0  0  0  0  0
  -28.2594  -38.0097   24.7523 H   0  0  0  0  0  0
  -28.1084  -36.2633   24.6268 H   0  0  0  0  0  0
  -27.2303  -37.1415   25.8863 H   0  0  0  0  0  0
  -20.9375  -29.8777   21.6880 H   0  0  0  0  0  0
  -26.0170  -38.2845   24.1425 H   0  0  0  0  0  0
  -28.0762  -18.0160   21.5101 H   0  0  0  0  0  0
  -30.9560  -21.6294   19.6806 H   0  0  0  0  0  0
  -32.5475  -20.0985   18.9883 H   0  0  0  0  0  0
  -32.3075  -18.3656   19.0821 H   0  0  0  0  0  0
  -32.9440  -19.2505   20.4787 H   0  0  0  0  0  0
  -27.0221  -24.7353   20.5411 H   0  0  0  0  0  0
  -27.6752  -24.8204   18.9067 H   0  0  0  0  0  0
  -26.4460  -19.6674   21.9447 H   0  0  0  0  0  0
  -26.7417  -21.3066   21.8176 H   0  0  0  0  0  0
  -27.4201  -22.5063   20.3371 H   0  0  0  0  0  0
  -29.0485  -15.8512   20.5633 H   0  0  0  0  0  0
  1 25  1  0  0  0
  1 30  2  0  0  0
  1 83  1  0  0  0
  2  3  1  0  0  0
  2 25  1  0  0  0
  2 86  1  0  0  0
  2 87  1  0  0  0
  3  4  1  0  0  0
  3 88  1  0  0  0
  3 89  1  0  0  0
  4  5  1  0  0  0
  4 90  1  0  0  0
  4 91  1  0  0  0
  5  6  1  0  0  0
  5 26  1  0  0  0
  5 92  1  0  0  0
  6 25  1  0  0  0
  6 93  1  0  0  0
  6 94  1  0  0  0
  7  8  2  0  0  0
  7 26  1  0  0  0
  7 29  1  0  0  0
  8  9  1  0  0  0
  8 22  1  0  0  0
  9 10  1  0  0  0
  9 27  2  0  0  0
 10 11  2  0  0  0
 10 15  1  0  0  0
 11 12  1  0  0  0
 11 95  1  0  0  0
 12 13  2  0  0  0
 12 96  1  0  0  0
 13 14  1  0  0  0
 13 31  1  0  0  0
 14 15  2  0  0  0
 14 97  1  0  0  0
 15 98  1  0  0  0
 16 17  2  0  0  0
 16 21  1  0  0  0
 16 31  1  0  0  0
 17 18  1  0  0  0
 17 99  1  0  0  0
 18 19  2  0  0  0
 18100  1  0  0  0
 19 20  1  0  0  0
 19 24  1  0  0  0
 20 21  2  0  0  0
 20101  1  0  0  0
 21 23  1  0  0  0
 22 28  1  0  0  0
 22 32  2  0  0  0
 26 27  1  0  0  0
 28102  1  0  0  0
 28103  1  0  0  0
 29104  1  0  0  0
 29105  1  0  0  0
 33 34  1  0  0  0
 33 66  1  0  0  0
 33 70  2  0  0  0
 34 36  1  0  0  0
 34 59  1  0  0  0
 34106  1  0  0  0
 35 44  2  0  0  0
 35 45  1  0  0  0
 35 68  1  0  0  0
 36 56  1  0  0  0
 36107  1  0  0  0
 37 39  1  0  0  0
 37 47  1  0  0  0
 37 66  1  0  0  0
 37108  1  0  0  0
 38 43  2  0  0  0
 38 46  1  0  0  0
 38 47  1  0  0  0
 39 64  1  0  0  0
 39 67  2  0  0  0
 40 52  1  0  0  0
 40 53  2  0  0  0
 40 58  1  0  0  0
 41109  1  0  0  0
 41110  1  0  0  0
 41111  1  0  0  0
 41 48  1  0  0  0
 42 43  1  0  0  0
 42 66  1  0  0  0
 42112  1  0  0  0
 42113  1  0  0  0
 43 44  1  0  0  0
 44114  1  0  0  0
 45 46  2  0  0  0
 45115  1  0  0  0
 46116  1  0  0  0
 47117  1  0  0  0
 47118  1  0  0  0
 48 56  1  0  0  0
 48 65  1  0  0  0
 48119  1  0  0  0
 49 50  1  0  0  0
 49 53  1  0  0  0
 49 64  1  0  0  0
 49120  1  0  0  0
 50 51  1  0  0  0
 50121  1  0  0  0
 50122  1  0  0  0
 51 52  1  0  0  0
 51123  1  0  0  0
 51124  1  0  0  0
 52125  1  0  0  0
 52126  1  0  0  0
 53 54  1  0  0  0
 54 55  2  0  0  0
 54127  1  0  0  0
 55 57  1  0  0  0
 55128  1  0  0  0
 56 69  2  0  0  0
 57 58  2  0  0  0
 57129  1  0  0  0
 58130  1  0  0  0
 59 60  1  0  0  0
 59 61  1  0  0  0
 59 62  1  0  0  0
 60131  1  0  0  0
 60132  1  0  0  0
 60133  1  0  0  0
 61134  1  0  0  0
 61135  1  0  0  0
 61136  1  0  0  0
 62137  1  0  0  0
 62138  1  0  0  0
 62139  1  0  0  0
 63 65  1  0  0  0
 63140  1  0  0  0
 63141  1  0  0  0
 63142  1  0  0  0
 64143  1  0  0  0
 65144  1  0  0  0
 68 80  1  0  0  0
 71 73  2  0  0  0
 71 75  1  0  0  0
 71145  1  0  0  0
 72 74  2  0  0  0
 72 76  1  0  0  0
 72146  1  0  0  0
 73 74  1  0  0  0
 73 77  1  0  0  0
 74 79  1  0  0  0
 75 76  2  0  0  0
 75 81  1  0  0  0
 76 82  1  0  0  0
 77 83  1  0  0  0
 77 84  2  0  0  0
 78 80  1  0  0  0
 78 82  1  0  0  0
 78 85  2  0  0  0
 79147  1  0  0  0
 79148  1  0  0  0
 79149  1  0  0  0
 80150  1  0  0  0
 80151  1  0  0  0
 81152  1  0  0  0
 81153  1  0  0  0
 82154  1  0  0  0
 83155  1  0  0  0
M  ISO  4   1 100  68 101  80 101  83 100
M  END
> <chiral flag>
0

> <version>
0

> <s_m_source_file>
/data/baiqing/PycharmProjects/Reinvent-master-3.2/result/LINK_invent/BTK/process_docking_weight1_custom_product_contain_oxygen_bond_distance_aromatic_linkinvent_7_9_3/rearranged_h_0091.sdf

> <i_m_source_file_index>
60

> <r_mmod_Potential_Energy-OPLS-2005>
-54.9307861328125

> <r_mmod_Stretch_Energy-OPLS-2005>
85.8177490234375

> <r_mmod_Bend_Energy-OPLS-2005>
156.319595336914

> <r_mmod_Torsional_Energy-OPLS-2005>
254.869476318359

> <r_mmod_Improper_Torsional_Energy-OPLS-2005>
10.9922790527344

> <r_mmod_Van_der_Waal_Energy-OPLS-2005>
166.702819824219

> <r_mmod_Electrostatic_Energy-OPLS-2005>
-530.828918457031

> <r_mmod_Solvation_Energy-OPLS-2005>
-264.438262939453

> <b_mmod_Minimization_Converged-OPLS-2005>
0

> <r_mmod_RMS_Derivative-OPLS-2005>
0.632001876831055

$$$$
60
                    3D
 Structure written by MMmdl.
156164  0  0  1  0            999 V2000
  -30.7007  -14.6538   20.4887 C   0  0  0  0  0  0
  -30.4110  -12.4066   19.4565 C   0  0  0  0  0  0
  -29.4977  -12.4968   18.2198 C   0  0  0  0  0  0
  -28.0234  -12.3395   18.6356 C   0  0  0  0  0  0
  -27.6405  -13.2349   19.8456 C   0  0  2  0  0  0
  -28.6890  -13.1700   20.9774 C   0  0  0  0  0  0
  -25.2517  -13.8203   20.5712 C   0  0  0  0  0  0
  -24.1813  -13.0437   20.9201 C   0  0  0  0  0  0
  -24.6409  -11.6918   20.8736 C   0  0  0  0  0  0
  -23.9086  -10.4290   21.0393 C   0  0  0  0  0  0
  -24.3627   -9.4208   21.9174 C   0  0  0  0  0  0
  -23.6297   -8.2247   22.0751 C   0  0  0  0  0  0
  -22.4284   -8.0281   21.3545 C   0  0  0  0  0  0
  -21.9918   -9.0250   20.4649 C   0  0  0  0  0  0
  -22.7249  -10.2131   20.3050 C   0  0  0  0  0  0
  -21.6858   -6.0739   22.5274 C   0  0  0  0  0  0
  -21.4019   -6.5643   23.8208 C   0  0  0  0  0  0
  -21.3659   -5.6798   24.9169 C   0  0  0  0  0  0
  -21.6040   -4.3058   24.7227 C   0  0  0  0  0  0
  -21.8819   -3.8151   23.4345 C   0  0  0  0  0  0
  -21.9197   -4.6964   22.3402 C   0  0  0  0  0  0
  -22.7833  -13.5217   21.1851 C   0  0  0  0  0  0
  -22.1666   -4.2152   21.0978 F   0  0  0  0  0  0
  -21.5623   -3.4538   25.7741 F   0  0  0  0  0  0
  -29.9926  -13.4821   20.3814 N   0  0  0  0  0  0
  -26.2946  -12.9425   20.3283 N   0  0  0  0  0  0
  -25.9341  -11.6558   20.5739 N   0  0  0  0  0  0
  -22.0493  -12.8202   22.0407 N   0  0  0  0  0  0
  -25.4190  -15.1931   20.4138 N   0  0  0  0  0  0
  -31.8959  -14.6524   20.1847 O   0  0  0  0  0  0
  -21.6648   -6.8880   21.4243 O   0  0  0  0  0  0
  -22.3518  -14.5524   20.6705 O   0  0  0  0  0  0
  -24.6285  -31.8615   23.2084 C   0  0  0  0  0  0
  -25.9141  -32.4784   23.8394 C   0  0  1  0  0  0
  -27.2003  -27.2967   20.1014 C   0  0  0  0  0  0
  -25.5976  -33.8589   24.2310 N   0  0  0  0  0  0
  -23.4203  -30.4926   21.5505 C   0  0  2  0  0  0
  -24.8623  -28.9598   20.1052 C   0  0  0  0  0  0
  -22.7475  -29.4637   22.4914 C   0  0  0  0  0  0
  -18.0298  -28.1366   22.8489 C   0  0  0  0  0  0
  -24.1492  -36.7293   23.2630 C   0  0  0  0  0  0
  -25.9669  -30.7800   21.3897 C   0  0  0  0  0  0
  -26.0328  -29.4086   20.7278 C   0  0  0  0  0  0
  -27.2014  -28.5846   20.7286 C   0  0  0  0  0  0
  -26.0110  -26.9362   19.4193 C   0  0  0  0  0  0
  -24.8545  -27.7280   19.4453 C   0  0  0  0  0  0
  -23.6349  -29.8441   20.1599 C   0  0  0  0  0  0
  -25.4120  -36.3089   24.0324 C   0  0  1  0  0  0
  -20.5897  -28.3691   23.1268 C   0  0  2  0  0  0
  -20.6788  -26.9411   22.5402 C   0  0  0  0  0  0
  -19.5759  -26.6366   21.5212 C   0  0  0  0  0  0
  -18.1936  -26.7917   22.1616 C   0  0  0  0  0  0
  -19.1545  -28.8845   23.2879 C   0  0  0  0  0  0
  -18.9464  -30.1448   23.8897 C   0  0  0  0  0  0
  -17.6462  -30.6579   24.0563 C   0  0  0  0  0  0
  -25.9061  -34.9455   23.5105 C   0  0  0  0  0  0
  -16.5355  -29.9079   23.6329 C   0  0  0  0  0  0
  -16.7282  -28.6491   23.0360 C   0  0  0  0  0  0
  -26.4521  -31.6584   25.0759 C   0  0  0  0  0  0
  -25.3746  -31.3739   26.1488 C   0  0  0  0  0  0
  -27.0355  -30.2998   24.6233 C   0  0  0  0  0  0
  -27.6078  -32.4318   25.7526 C   0  0  0  0  0  0
  -27.5579  -37.1803   24.8456 C   0  0  0  0  0  0
  -21.4185  -29.3053   22.3652 N   0  0  0  0  0  0
  -26.4286  -37.3787   23.9412 N   0  0  0  0  0  0
  -24.6908  -31.0615   22.1051 N   0  0  0  0  0  0
  -23.4201  -28.8147   23.2973 O   0  0  0  0  0  0
  -28.2906  -26.4021   20.1844 O   0  0  0  0  0  0
  -26.5591  -34.8910   22.4654 O   0  0  0  0  0  0
  -23.5443  -32.1440   23.7393 O   0  0  0  0  0  0
  -29.3329  -18.8054   19.4977 C   0  0  0  0  0  0
  -29.5463  -20.8032   21.4539 C   0  0  0  0  0  0
  -29.8823  -18.4237   20.7482 C   0  0  0  0  0  0
  -28.9262  -20.1496   19.2197 C   0  0  0  0  0  0
  -29.0445  -21.1970   20.1861 C   0  0  0  0  0  0
  -29.9604  -19.4630   21.7244 C   0  0  0  0  0  0
  -30.5988  -17.0684   20.9584 C   0  0  0  0  0  0
  -28.8532  -23.8141   20.3569 C   0  0  0  0  0  0
  -28.4119  -20.4596   17.8231 C   0  0  0  0  0  0
  -28.6430  -25.1150   18.1528 C   0  0  0  0  0  0
  -28.1576  -25.0298   19.6096 C   0  0  2  0  0  0
  -28.6239  -22.5607   19.8363 N   0  0  0  0  0  0
  -30.0233  -15.8428   20.6872 N   0  0  0  0  0  0
  -31.7531  -17.1485   21.3961 O   0  0  0  0  0  0
  -29.5430  -24.0102   21.3613 O   0  0  0  0  0  0
  -30.4637  -19.1954   22.9540 F   0  0  0  0  0  0
  -31.4572  -12.4833   19.1562 H   0  0  0  0  0  0
  -30.3129  -11.4313   19.9369 H   0  0  0  0  0  0
  -29.7663  -11.7288   17.4942 H   0  0  0  0  0  0
  -29.6465  -13.4557   17.7196 H   0  0  0  0  0  0
  -27.8670  -11.2902   18.8869 H   0  0  0  0  0  0
  -27.3697  -12.5485   17.7885 H   0  0  0  0  0  0
  -27.6355  -14.2584   19.4691 H   0  0  0  0  0  0
  -28.7058  -12.1818   21.4387 H   0  0  0  0  0  0
  -28.4418  -13.8763   21.7710 H   0  0  0  0  0  0
  -25.2770   -9.5692   22.4743 H   0  0  0  0  0  0
  -24.0007   -7.4652   22.7477 H   0  0  0  0  0  0
  -21.0843   -8.8767   19.8957 H   0  0  0  0  0  0
  -22.3695  -10.9667   19.6157 H   0  0  0  0  0  0
  -21.2014   -7.6152   23.9712 H   0  0  0  0  0  0
  -21.1478   -6.0529   25.9074 H   0  0  0  0  0  0
  -22.0597   -2.7612   23.2846 H   0  0  0  0  0  0
  -22.4128  -11.9863   22.4788 H   0  0  0  0  0  0
  -21.1109  -13.1211   22.2615 H   0  0  0  0  0  0
  -24.6483  -15.8423   20.5254 H   0  0  0  0  0  0
  -26.2618  -15.6361   20.0726 H   0  0  0  0  0  0
  -26.7194  -32.5441   23.1119 H   0  0  0  0  0  0
  -25.0219  -33.9766   25.0521 H   0  0  0  0  0  0
  -22.7167  -31.3169   21.4156 H   0  0  0  0  0  0
  -23.3764  -35.9607   23.3276 H   0  0  0  0  0  0
  -24.3589  -36.8942   22.2046 H   0  0  0  0  0  0
  -23.7219  -37.6479   23.6666 H   0  0  0  0  0  0
  -26.1102  -31.5437   20.6242 H   0  0  0  0  0  0
  -26.8443  -30.8198   22.0234 H   0  0  0  0  0  0
  -28.0934  -28.9142   21.2429 H   0  0  0  0  0  0
  -25.9116  -26.0348   18.8393 H   0  0  0  0  0  0
  -23.9643  -27.3903   18.9330 H   0  0  0  0  0  0
  -23.7637  -30.6306   19.4157 H   0  0  0  0  0  0
  -22.7514  -29.2869   19.8431 H   0  0  0  0  0  0
  -25.1287  -36.1944   25.0808 H   0  0  0  0  0  0
  -21.0010  -28.3275   24.1383 H   0  0  0  0  0  0
  -20.5710  -26.2297   23.3601 H   0  0  0  0  0  0
  -21.6651  -26.7449   22.1178 H   0  0  0  0  0  0
  -19.6937  -25.6281   21.1234 H   0  0  0  0  0  0
  -19.6699  -27.3187   20.6753 H   0  0  0  0  0  0
  -17.4211  -26.6683   21.4005 H   0  0  0  0  0  0
  -18.0336  -26.0040   22.8993 H   0  0  0  0  0  0
  -19.7943  -30.7265   24.2254 H   0  0  0  0  0  0
  -17.5023  -31.6259   24.5157 H   0  0  0  0  0  0
  -15.5360  -30.2982   23.7652 H   0  0  0  0  0  0
  -15.8676  -28.0808   22.7081 H   0  0  0  0  0  0
  -24.5937  -30.7059   25.7836 H   0  0  0  0  0  0
  -24.8912  -32.2901   26.4879 H   0  0  0  0  0  0
  -25.8071  -30.8951   27.0281 H   0  0  0  0  0  0
  -26.2923  -29.6764   24.1256 H   0  0  0  0  0  0
  -27.4023  -29.7256   25.4755 H   0  0  0  0  0  0
  -27.8815  -30.4273   23.9480 H   0  0  0  0  0  0
  -27.2706  -33.3650   26.2060 H   0  0  0  0  0  0
  -28.3917  -32.6840   25.0358 H   0  0  0  0  0  0
  -28.0713  -31.8461   26.5481 H   0  0  0  0  0  0
  -28.2578  -38.0120   24.7544 H   0  0  0  0  0  0
  -28.1093  -36.2655   24.6231 H   0  0  0  0  0  0
  -27.2303  -37.1392   25.8857 H   0  0  0  0  0  0
  -20.9348  -29.8814   21.6901 H   0  0  0  0  0  0
  -26.0170  -38.2849   24.1448 H   0  0  0  0  0  0
  -29.2926  -18.0680   18.7078 H   0  0  0  0  0  0
  -29.6372  -21.5361   22.2415 H   0  0  0  0  0  0
  -28.2299  -19.5479   17.2527 H   0  0  0  0  0  0
  -29.1466  -21.0503   17.2742 H   0  0  0  0  0  0
  -27.4726  -21.0111   17.8567 H   0  0  0  0  0  0
  -28.3265  -24.2490   17.5717 H   0  0  0  0  0  0
  -29.7313  -25.1698   18.1093 H   0  0  0  0  0  0
  -28.2492  -26.0009   17.6547 H   0  0  0  0  0  0
  -27.1253  -24.6939   19.6414 H   0  0  0  0  0  0
  -28.0730  -22.6021   18.9904 H   0  0  0  0  0  0
  -29.0231  -15.8273   20.5867 H   0  0  0  0  0  0
  1 25  1  0  0  0
  1 30  2  0  0  0
  1 83  1  0  0  0
  2  3  1  0  0  0
  2 25  1  0  0  0
  2 87  1  0  0  0
  2 88  1  0  0  0
  3  4  1  0  0  0
  3 89  1  0  0  0
  3 90  1  0  0  0
  4  5  1  0  0  0
  4 91  1  0  0  0
  4 92  1  0  0  0
  5  6  1  0  0  0
  5 26  1  0  0  0
  5 93  1  0  0  0
  6 25  1  0  0  0
  6 94  1  0  0  0
  6 95  1  0  0  0
  7  8  2  0  0  0
  7 26  1  0  0  0
  7 29  1  0  0  0
  8  9  1  0  0  0
  8 22  1  0  0  0
  9 10  1  0  0  0
  9 27  2  0  0  0
 10 11  2  0  0  0
 10 15  1  0  0  0
 11 12  1  0  0  0
 11 96  1  0  0  0
 12 13  2  0  0  0
 12 97  1  0  0  0
 13 14  1  0  0  0
 13 31  1  0  0  0
 14 15  2  0  0  0
 14 98  1  0  0  0
 15 99  1  0  0  0
 16 17  2  0  0  0
 16 21  1  0  0  0
 16 31  1  0  0  0
 17 18  1  0  0  0
 17100  1  0  0  0
 18 19  2  0  0  0
 18101  1  0  0  0
 19 20  1  0  0  0
 19 24  1  0  0  0
 20 21  2  0  0  0
 20102  1  0  0  0
 21 23  1  0  0  0
 22 28  1  0  0  0
 22 32  2  0  0  0
 26 27  1  0  0  0
 28103  1  0  0  0
 28104  1  0  0  0
 29105  1  0  0  0
 29106  1  0  0  0
 33 34  1  0  0  0
 33 66  1  0  0  0
 33 70  2  0  0  0
 34 36  1  0  0  0
 34 59  1  0  0  0
 34107  1  0  0  0
 35 44  2  0  0  0
 35 45  1  0  0  0
 35 68  1  0  0  0
 36 56  1  0  0  0
 36108  1  0  0  0
 37 39  1  0  0  0
 37 47  1  0  0  0
 37 66  1  0  0  0
 37109  1  0  0  0
 38 43  2  0  0  0
 38 46  1  0  0  0
 38 47  1  0  0  0
 39 64  1  0  0  0
 39 67  2  0  0  0
 40 52  1  0  0  0
 40 53  2  0  0  0
 40 58  1  0  0  0
 41110  1  0  0  0
 41111  1  0  0  0
 41112  1  0  0  0
 41 48  1  0  0  0
 42 43  1  0  0  0
 42 66  1  0  0  0
 42113  1  0  0  0
 42114  1  0  0  0
 43 44  1  0  0  0
 44115  1  0  0  0
 45 46  2  0  0  0
 45116  1  0  0  0
 46117  1  0  0  0
 47118  1  0  0  0
 47119  1  0  0  0
 48 56  1  0  0  0
 48 65  1  0  0  0
 48120  1  0  0  0
 49 50  1  0  0  0
 49 53  1  0  0  0
 49 64  1  0  0  0
 49121  1  0  0  0
 50 51  1  0  0  0
 50122  1  0  0  0
 50123  1  0  0  0
 51 52  1  0  0  0
 51124  1  0  0  0
 51125  1  0  0  0
 52126  1  0  0  0
 52127  1  0  0  0
 53 54  1  0  0  0
 54 55  2  0  0  0
 54128  1  0  0  0
 55 57  1  0  0  0
 55129  1  0  0  0
 56 69  2  0  0  0
 57 58  2  0  0  0
 57130  1  0  0  0
 58131  1  0  0  0
 59 60  1  0  0  0
 59 61  1  0  0  0
 59 62  1  0  0  0
 60132  1  0  0  0
 60133  1  0  0  0
 60134  1  0  0  0
 61135  1  0  0  0
 61136  1  0  0  0
 61137  1  0  0  0
 62138  1  0  0  0
 62139  1  0  0  0
 62140  1  0  0  0
 63 65  1  0  0  0
 63141  1  0  0  0
 63142  1  0  0  0
 63143  1  0  0  0
 64144  1  0  0  0
 65145  1  0  0  0
 68 81  1  0  0  0
 71 73  2  0  0  0
 71 74  1  0  0  0
 71146  1  0  0  0
 72 75  1  0  0  0
 72 76  2  0  0  0
 72147  1  0  0  0
 73 76  1  0  0  0
 73 77  1  0  0  0
 74 75  2  0  0  0
 74 79  1  0  0  0
 75 82  1  0  0  0
 76 86  1  0  0  0
 77 83  1  0  0  0
 77 84  2  0  0  0
 78 81  1  0  0  0
 78 82  1  0  0  0
 78 85  2  0  0  0
 79148  1  0  0  0
 79149  1  0  0  0
 79150  1  0  0  0
 80151  1  0  0  0
 80152  1  0  0  0
 80153  1  0  0  0
 80 81  1  0  0  0
 81154  1  0  0  0
 82155  1  0  0  0
 83156  1  0  0  0
M  ISO  4   1 100  68 101  81 101  83 100
M  END
> <chiral flag>
0

> <version>
0

> <s_m_source_file>
/data/baiqing/PycharmProjects/Reinvent-master-3.2/result/LINK_invent/BTK/process_docking_weight1_custom_product_contain_oxygen_bond_distance_aromatic_linkinvent_7_9_3/rearranged_h_0091.sdf

> <i_m_source_file_index>
61

> <r_mmod_Potential_Energy-OPLS-2005>
51.6864776611328

> <r_mmod_Stretch_Energy-OPLS-2005>
87.9013595581055

> <r_mmod_Bend_Energy-OPLS-2005>
159.093612670898

> <r_mmod_Torsional_Energy-OPLS-2005>
250.269180297852

> <r_mmod_Improper_Torsional_Energy-OPLS-2005>
7.18473386764526

> <r_mmod_Van_der_Waal_Energy-OPLS-2005>
159.484619140625

> <r_mmod_Electrostatic_Energy-OPLS-2005>
-417.296783447266

> <r_mmod_Solvation_Energy-OPLS-2005>
-261.832672119141

> <b_mmod_Minimization_Converged-OPLS-2005>
0

> <r_mmod_RMS_Derivative-OPLS-2005>
2.01203966140747

$$$$
61
                    3D
 Structure written by MMmdl.
158167  0  0  1  0            999 V2000
  -30.6692  -14.6343   20.6058 C   0  0  0  0  0  0
  -30.4343  -12.4228   19.4510 C   0  0  0  0  0  0
  -29.5043  -12.5372   18.2212 C   0  0  0  0  0  0
  -28.0294  -12.3522   18.6275 C   0  0  0  0  0  0
  -27.6535  -13.2130   19.8575 C   0  0  2  0  0  0
  -28.6889  -13.0309   20.9805 C   0  0  0  0  0  0
  -25.2596  -13.8162   20.5680 C   0  0  0  0  0  0
  -24.1842  -13.0451   20.9169 C   0  0  0  0  0  0
  -24.6379  -11.6913   20.8701 C   0  0  0  0  0  0
  -23.9052  -10.4291   21.0384 C   0  0  0  0  0  0
  -24.3620   -9.4224   21.9159 C   0  0  0  0  0  0
  -23.6297   -8.2255   22.0743 C   0  0  0  0  0  0
  -22.4261   -8.0300   21.3551 C   0  0  0  0  0  0
  -21.9895   -9.0265   20.4642 C   0  0  0  0  0  0
  -22.7220  -10.2130   20.3029 C   0  0  0  0  0  0
  -21.6848   -6.0737   22.5287 C   0  0  0  0  0  0
  -21.4007   -6.5645   23.8221 C   0  0  0  0  0  0
  -21.3647   -5.6802   24.9193 C   0  0  0  0  0  0
  -21.6032   -4.3066   24.7237 C   0  0  0  0  0  0
  -21.8808   -3.8157   23.4354 C   0  0  0  0  0  0
  -21.9198   -4.6967   22.3419 C   0  0  0  0  0  0
  -22.7876  -13.5272   21.1873 C   0  0  0  0  0  0
  -22.1670   -4.2163   21.0987 F   0  0  0  0  0  0
  -21.5618   -3.4533   25.7742 F   0  0  0  0  0  0
  -30.0076  -13.4288   20.4556 N   0  0  0  0  0  0
  -26.2988  -12.9314   20.3259 N   0  0  0  0  0  0
  -25.9299  -11.6475   20.5670 N   0  0  0  0  0  0
  -22.0523  -12.8242   22.0405 N   0  0  0  0  0  0
  -25.4378  -15.1882   20.4154 N   0  0  0  0  0  0
  -31.7807  -14.7813   20.0831 O   0  0  0  0  0  0
  -21.6632   -6.8883   21.4243 O   0  0  0  0  0  0
  -22.3557  -14.5597   20.6757 O   0  0  0  0  0  0
  -24.6305  -31.8592   23.2040 C   0  0  0  0  0  0
  -25.9156  -32.4753   23.8363 C   0  0  1  0  0  0
  -27.2205  -27.3021   20.1008 C   0  0  0  0  0  0
  -25.5985  -33.8558   24.2280 N   0  0  0  0  0  0
  -23.4224  -30.4861   21.5490 C   0  0  2  0  0  0
  -24.8627  -28.9461   20.1107 C   0  0  0  0  0  0
  -22.7493  -29.4634   22.4950 C   0  0  0  0  0  0
  -18.0280  -28.1434   22.8465 C   0  0  0  0  0  0
  -24.1481  -36.7272   23.2637 C   0  0  0  0  0  0
  -25.9667  -30.7850   21.3755 C   0  0  0  0  0  0
  -26.0366  -29.4119   20.7156 C   0  0  0  0  0  0
  -27.2130  -28.6007   20.7069 C   0  0  0  0  0  0
  -26.0085  -26.8957   19.4865 C   0  0  0  0  0  0
  -24.8523  -27.6920   19.4906 C   0  0  0  0  0  0
  -23.6327  -29.8268   20.1622 C   0  0  0  0  0  0
  -25.4103  -36.3053   24.0326 C   0  0  1  0  0  0
  -20.5887  -28.3710   23.1286 C   0  0  2  0  0  0
  -20.6768  -26.9429   22.5420 C   0  0  0  0  0  0
  -19.5755  -26.6410   21.5214 C   0  0  0  0  0  0
  -18.1920  -26.7983   22.1599 C   0  0  0  0  0  0
  -19.1531  -28.8894   23.2870 C   0  0  0  0  0  0
  -18.9459  -30.1496   23.8886 C   0  0  0  0  0  0
  -17.6456  -30.6617   24.0580 C   0  0  0  0  0  0
  -25.9062  -34.9431   23.5089 C   0  0  0  0  0  0
  -16.5340  -29.9105   23.6372 C   0  0  0  0  0  0
  -16.7262  -28.6544   23.0340 C   0  0  0  0  0  0
  -26.4532  -31.6574   25.0753 C   0  0  0  0  0  0
  -25.3775  -31.3789   26.1501 C   0  0  0  0  0  0
  -27.0311  -30.2962   24.6244 C   0  0  0  0  0  0
  -27.6140  -32.4270   25.7501 C   0  0  0  0  0  0
  -27.5570  -37.1781   24.8449 C   0  0  0  0  0  0
  -21.4205  -29.3052   22.3685 N   0  0  0  0  0  0
  -26.4255  -37.3755   23.9434 N   0  0  0  0  0  0
  -24.6928  -31.0598   22.0995 N   0  0  0  0  0  0
  -23.4205  -28.8173   23.3032 O   0  0  0  0  0  0
  -28.3441  -26.4497   20.1749 O   0  0  0  0  0  0
  -26.5613  -34.8906   22.4637 O   0  0  0  0  0  0
  -23.5473  -32.1393   23.7367 O   0  0  0  0  0  0
  -31.4460  -17.7371   20.9035 C   0  0  0  0  0  0
  -31.3559  -19.1713   20.7839 C   0  0  0  0  0  0
  -30.0770  -19.6854   20.6160 C   0  0  0  0  0  0
  -30.2501  -17.0567   20.9051 C   0  0  0  0  0  0
  -29.7942  -23.0991   19.0854 C   0  0  0  0  0  0
  -28.9910  -23.8521   19.8720 C   0  0  0  0  0  0
  -30.2357  -21.7141   19.3322 C   0  0  0  0  0  0
  -28.4717  -23.2185   21.1572 C   0  0  0  0  0  0
  -28.6309  -21.6456   21.2154 C   0  0  0  0  0  0
  -29.5883  -15.5587   22.6085 C   0  0  0  0  0  0
  -28.4426  -25.2315   19.3359 C   0  0  0  0  0  0
  -29.7027  -21.0201   20.3893 N   0  0  0  0  0  0
  -32.5378  -19.9279   20.8732 N   0  0  0  0  0  0
  -30.0396  -15.7133   21.2207 N   0  0  0  0  0  0
  -31.0546  -21.1947   18.5681 O   0  0  0  0  0  0
  -28.9681  -18.2883   20.7087 S   0  0  0  0  0  0
  -31.4708  -12.5579   19.1403 H   0  0  0  0  0  0
  -30.3894  -11.4181   19.8733 H   0  0  0  0  0  0
  -29.7777  -11.7979   17.4654 H   0  0  0  0  0  0
  -29.6294  -13.5171   17.7559 H   0  0  0  0  0  0
  -27.8755  -11.2948   18.8536 H   0  0  0  0  0  0
  -27.3731  -12.5813   17.7874 H   0  0  0  0  0  0
  -27.6847  -14.2550   19.5386 H   0  0  0  0  0  0
  -28.7136  -11.9888   21.3020 H   0  0  0  0  0  0
  -28.3609  -13.5707   21.8593 H   0  0  0  0  0  0
  -25.2771   -9.5697   22.4726 H   0  0  0  0  0  0
  -24.0020   -7.4620   22.7433 H   0  0  0  0  0  0
  -21.0824   -8.8759   19.8934 H   0  0  0  0  0  0
  -22.3689  -10.9659   19.6131 H   0  0  0  0  0  0
  -21.1968   -7.6154   23.9734 H   0  0  0  0  0  0
  -21.1478   -6.0532   25.9093 H   0  0  0  0  0  0
  -22.0579   -2.7621   23.2850 H   0  0  0  0  0  0
  -22.4119  -11.9868   22.4742 H   0  0  0  0  0  0
  -21.1167  -13.1288   22.2661 H   0  0  0  0  0  0
  -24.6822  -15.8554   20.5234 H   0  0  0  0  0  0
  -26.3089  -15.6202   20.1321 H   0  0  0  0  0  0
  -26.7224  -32.5404   23.1112 H   0  0  0  0  0  0
  -25.0163  -33.9699   25.0450 H   0  0  0  0  0  0
  -22.7175  -31.3076   21.4103 H   0  0  0  0  0  0
  -23.3761  -35.9576   23.3224 H   0  0  0  0  0  0
  -24.3602  -36.8983   22.2071 H   0  0  0  0  0  0
  -23.7197  -37.6438   23.6703 H   0  0  0  0  0  0
  -26.0968  -31.5449   20.6038 H   0  0  0  0  0  0
  -26.8483  -30.8302   22.0041 H   0  0  0  0  0  0
  -28.1121  -28.9549   21.1916 H   0  0  0  0  0  0
  -25.8652  -25.9409   19.0130 H   0  0  0  0  0  0
  -23.9509  -27.3210   19.0193 H   0  0  0  0  0  0
  -23.7507  -30.6045   19.4077 H   0  0  0  0  0  0
  -22.7513  -29.2577   19.8610 H   0  0  0  0  0  0
  -25.1276  -36.1862   25.0812 H   0  0  0  0  0  0
  -20.9955  -28.3274   24.1419 H   0  0  0  0  0  0
  -20.5669  -26.2320   23.3627 H   0  0  0  0  0  0
  -21.6639  -26.7468   22.1215 H   0  0  0  0  0  0
  -19.6912  -25.6315   21.1267 H   0  0  0  0  0  0
  -19.6737  -27.3207   20.6741 H   0  0  0  0  0  0
  -17.4212  -26.6761   21.3976 H   0  0  0  0  0  0
  -18.0287  -26.0131   22.8996 H   0  0  0  0  0  0
  -19.7930  -30.7331   24.2241 H   0  0  0  0  0  0
  -17.5007  -31.6305   24.5161 H   0  0  0  0  0  0
  -15.5341  -30.2994   23.7745 H   0  0  0  0  0  0
  -15.8661  -28.0884   22.7033 H   0  0  0  0  0  0
  -24.5879  -30.7209   25.7859 H   0  0  0  0  0  0
  -24.9073  -32.2999   26.4954 H   0  0  0  0  0  0
  -25.8104  -30.8938   27.0257 H   0  0  0  0  0  0
  -26.2866  -29.6738   24.1280 H   0  0  0  0  0  0
  -27.3950  -29.7213   25.4767 H   0  0  0  0  0  0
  -27.8770  -30.4173   23.9481 H   0  0  0  0  0  0
  -27.2817  -33.3623   26.2005 H   0  0  0  0  0  0
  -28.4002  -32.6710   25.0345 H   0  0  0  0  0  0
  -28.0715  -31.8406   26.5482 H   0  0  0  0  0  0
  -28.2540  -38.0120   24.7504 H   0  0  0  0  0  0
  -28.1103  -36.2653   24.6199 H   0  0  0  0  0  0
  -27.2336  -37.1332   25.8864 H   0  0  0  0  0  0
  -20.9387  -29.8780   21.6906 H   0  0  0  0  0  0
  -26.0123  -38.2807   24.1494 H   0  0  0  0  0  0
  -32.3981  -17.2463   21.0506 H   0  0  0  0  0  0
  -30.1087  -23.5237   18.1429 H   0  0  0  0  0  0
  -27.4232  -23.4844   21.2938 H   0  0  0  0  0  0
  -29.0118  -23.6790   21.9857 H   0  0  0  0  0  0
  -27.6850  -21.2043   20.8994 H   0  0  0  0  0  0
  -28.7587  -21.3432   22.2579 H   0  0  0  0  0  0
  -28.5055  -15.6769   22.6807 H   0  0  0  0  0  0
  -30.0394  -16.3168   23.2508 H   0  0  0  0  0  0
  -29.8716  -14.5990   23.0494 H   0  0  0  0  0  0
  -27.5214  -24.9398   18.8531 H   0  0  0  0  0  0
  -29.0786  -25.5302   18.5013 H   0  0  0  0  0  0
  -33.4090  -19.4346   20.7066 H   0  0  0  0  0  0
  -32.5255  -20.8274   20.4038 H   0  0  0  0  0  0
  1 25  1  0  0  0
  1 30  2  0  0  0
  1 84  1  0  0  0
  2  3  1  0  0  0
  2 25  1  0  0  0
  2 87  1  0  0  0
  2 88  1  0  0  0
  3  4  1  0  0  0
  3 89  1  0  0  0
  3 90  1  0  0  0
  4  5  1  0  0  0
  4 91  1  0  0  0
  4 92  1  0  0  0
  5  6  1  0  0  0
  5 26  1  0  0  0
  5 93  1  0  0  0
  6 25  1  0  0  0
  6 94  1  0  0  0
  6 95  1  0  0  0
  7  8  2  0  0  0
  7 26  1  0  0  0
  7 29  1  0  0  0
  8  9  1  0  0  0
  8 22  1  0  0  0
  9 10  1  0  0  0
  9 27  2  0  0  0
 10 11  2  0  0  0
 10 15  1  0  0  0
 11 12  1  0  0  0
 11 96  1  0  0  0
 12 13  2  0  0  0
 12 97  1  0  0  0
 13 14  1  0  0  0
 13 31  1  0  0  0
 14 15  2  0  0  0
 14 98  1  0  0  0
 15 99  1  0  0  0
 16 17  2  0  0  0
 16 21  1  0  0  0
 16 31  1  0  0  0
 17 18  1  0  0  0
 17100  1  0  0  0
 18 19  2  0  0  0
 18101  1  0  0  0
 19 20  1  0  0  0
 19 24  1  0  0  0
 20 21  2  0  0  0
 20102  1  0  0  0
 21 23  1  0  0  0
 22 28  1  0  0  0
 22 32  2  0  0  0
 26 27  1  0  0  0
 28103  1  0  0  0
 28104  1  0  0  0
 29105  1  0  0  0
 29106  1  0  0  0
 33 34  1  0  0  0
 33 66  1  0  0  0
 33 70  2  0  0  0
 34 36  1  0  0  0
 34 59  1  0  0  0
 34107  1  0  0  0
 35 44  2  0  0  0
 35 45  1  0  0  0
 35 68  1  0  0  0
 36 56  1  0  0  0
 36108  1  0  0  0
 37 39  1  0  0  0
 37 47  1  0  0  0
 37 66  1  0  0  0
 37109  1  0  0  0
 38 43  2  0  0  0
 38 46  1  0  0  0
 38 47  1  0  0  0
 39 64  1  0  0  0
 39 67  2  0  0  0
 40 52  1  0  0  0
 40 53  2  0  0  0
 40 58  1  0  0  0
 41110  1  0  0  0
 41111  1  0  0  0
 41112  1  0  0  0
 41 48  1  0  0  0
 42 43  1  0  0  0
 42 66  1  0  0  0
 42113  1  0  0  0
 42114  1  0  0  0
 43 44  1  0  0  0
 44115  1  0  0  0
 45 46  2  0  0  0
 45116  1  0  0  0
 46117  1  0  0  0
 47118  1  0  0  0
 47119  1  0  0  0
 48 56  1  0  0  0
 48 65  1  0  0  0
 48120  1  0  0  0
 49 50  1  0  0  0
 49 53  1  0  0  0
 49 64  1  0  0  0
 49121  1  0  0  0
 50 51  1  0  0  0
 50122  1  0  0  0
 50123  1  0  0  0
 51 52  1  0  0  0
 51124  1  0  0  0
 51125  1  0  0  0
 52126  1  0  0  0
 52127  1  0  0  0
 53 54  1  0  0  0
 54 55  2  0  0  0
 54128  1  0  0  0
 55 57  1  0  0  0
 55129  1  0  0  0
 56 69  2  0  0  0
 57 58  2  0  0  0
 57130  1  0  0  0
 58131  1  0  0  0
 59 60  1  0  0  0
 59 61  1  0  0  0
 59 62  1  0  0  0
 60132  1  0  0  0
 60133  1  0  0  0
 60134  1  0  0  0
 61135  1  0  0  0
 61136  1  0  0  0
 61137  1  0  0  0
 62138  1  0  0  0
 62139  1  0  0  0
 62140  1  0  0  0
 63 65  1  0  0  0
 63141  1  0  0  0
 63142  1  0  0  0
 63143  1  0  0  0
 64144  1  0  0  0
 65145  1  0  0  0
 68 81  1  0  0  0
 71 72  1  0  0  0
 71 74  2  0  0  0
 71146  1  0  0  0
 72 73  2  0  0  0
 72 83  1  0  0  0
 73 82  1  0  0  0
 73 86  1  0  0  0
 74 84  1  0  0  0
 74 86  1  0  0  0
 75 76  2  0  0  0
 75 77  1  0  0  0
 75147  1  0  0  0
 76 78  1  0  0  0
 76 81  1  0  0  0
 77 82  1  0  0  0
 77 85  2  0  0  0
 78 79  1  0  0  0
 78148  1  0  0  0
 78149  1  0  0  0
 79 82  1  0  0  0
 79150  1  0  0  0
 79151  1  0  0  0
 80 84  1  0  0  0
 80152  1  0  0  0
 80153  1  0  0  0
 80154  1  0  0  0
 81155  1  0  0  0
 81156  1  0  0  0
 83157  1  0  0  0
 83158  1  0  0  0
M  ISO  4   1 100  68 101  81 101  84 100
M  END
> <chiral flag>
0

> <version>
0

> <s_m_source_file>
/data/baiqing/PycharmProjects/Reinvent-master-3.2/result/LINK_invent/BTK/process_docking_weight1_custom_product_contain_oxygen_bond_distance_aromatic_linkinvent_7_9_3/rearranged_h_0091.sdf

> <i_m_source_file_index>
62

> <r_mmod_Potential_Energy-OPLS-2005>
291.212097167969

> <r_mmod_Stretch_Energy-OPLS-2005>
91.7299880981445

> <r_mmod_Bend_Energy-OPLS-2005>
189.549179077148

> <r_mmod_Torsional_Energy-OPLS-2005>
338.818145751953

> <r_mmod_Improper_Torsional_Energy-OPLS-2005>
10.3941249847412

> <r_mmod_Van_der_Waal_Energy-OPLS-2005>
154.751205444336

> <r_mmod_Electrostatic_Energy-OPLS-2005>
-336.136962890625

> <r_mmod_Solvation_Energy-OPLS-2005>
-206.530334472656

> <b_mmod_Minimization_Converged-OPLS-2005>
0

> <r_mmod_RMS_Derivative-OPLS-2005>
3.3351902961731

$$$$
62
                    3D
 Structure written by MMmdl.
163171  0  0  1  0            999 V2000
  -30.6523  -14.5570   20.5369 C   0  0  0  0  0  0
  -30.4418  -12.3464   19.4406 C   0  0  0  0  0  0
  -29.5127  -12.4976   18.2163 C   0  0  0  0  0  0
  -28.0333  -12.3434   18.6242 C   0  0  0  0  0  0
  -27.6611  -13.2039   19.8622 C   0  0  2  0  0  0
  -28.7039  -13.0219   20.9905 C   0  0  0  0  0  0
  -25.2618  -13.8143   20.5625 C   0  0  0  0  0  0
  -24.1867  -13.0429   20.9150 C   0  0  0  0  0  0
  -24.6421  -11.6896   20.8716 C   0  0  0  0  0  0
  -23.9090  -10.4284   21.0404 C   0  0  0  0  0  0
  -24.3639   -9.4203   21.9185 C   0  0  0  0  0  0
  -23.6297   -8.2252   22.0773 C   0  0  0  0  0  0
  -22.4273   -8.0294   21.3569 C   0  0  0  0  0  0
  -21.9916   -9.0272   20.4672 C   0  0  0  0  0  0
  -22.7259  -10.2138   20.3061 C   0  0  0  0  0  0
  -21.6853   -6.0740   22.5283 C   0  0  0  0  0  0
  -21.4020   -6.5637   23.8216 C   0  0  0  0  0  0
  -21.3654   -5.6789   24.9180 C   0  0  0  0  0  0
  -21.6041   -4.3054   24.7228 C   0  0  0  0  0  0
  -21.8819   -3.8149   23.4347 C   0  0  0  0  0  0
  -21.9195   -4.6969   22.3403 C   0  0  0  0  0  0
  -22.7892  -13.5244   21.1803 C   0  0  0  0  0  0
  -22.1657   -4.2153   21.0976 F   0  0  0  0  0  0
  -21.5632   -3.4535   25.7736 F   0  0  0  0  0  0
  -30.0268  -13.3498   20.4346 N   0  0  0  0  0  0
  -26.3031  -12.9298   20.3277 N   0  0  0  0  0  0
  -25.9346  -11.6466   20.5727 N   0  0  0  0  0  0
  -22.0522  -12.8267   22.0372 N   0  0  0  0  0  0
  -25.4341  -15.1867   20.4011 N   0  0  0  0  0  0
  -31.8048  -14.7422   20.1346 O   0  0  0  0  0  0
  -21.6638   -6.8882   21.4249 O   0  0  0  0  0  0
  -22.3580  -14.5529   20.6611 O   0  0  0  0  0  0
  -24.6203  -31.8645   23.2071 C   0  0  0  0  0  0
  -25.9076  -32.4801   23.8369 C   0  0  1  0  0  0
  -27.2273  -27.3727   20.0964 C   0  0  0  0  0  0
  -25.5901  -33.8599   24.2287 N   0  0  0  0  0  0
  -23.4092  -30.4908   21.5492 C   0  0  2  0  0  0
  -24.8529  -28.9486   20.1164 C   0  0  0  0  0  0
  -22.7427  -29.4649   22.4957 C   0  0  0  0  0  0
  -18.0273  -28.1392   22.8472 C   0  0  0  0  0  0
  -24.1487  -36.7309   23.2641 C   0  0  0  0  0  0
  -25.9463  -30.8099   21.3699 C   0  0  0  0  0  0
  -26.0207  -29.4414   20.7112 C   0  0  0  0  0  0
  -27.2102  -28.6651   20.6919 C   0  0  0  0  0  0
  -26.0299  -26.9094   19.5024 C   0  0  0  0  0  0
  -24.8557  -27.6839   19.5089 C   0  0  0  0  0  0
  -23.6209  -29.8276   20.1633 C   0  0  0  0  0  0
  -25.4112  -36.3104   24.0332 C   0  0  1  0  0  0
  -20.5868  -28.3677   23.1288 C   0  0  2  0  0  0
  -20.6760  -26.9404   22.5410 C   0  0  0  0  0  0
  -19.5748  -26.6389   21.5201 C   0  0  0  0  0  0
  -18.1925  -26.7932   22.1614 C   0  0  0  0  0  0
  -19.1526  -28.8851   23.2876 C   0  0  0  0  0  0
  -18.9459  -30.1453   23.8894 C   0  0  0  0  0  0
  -17.6465  -30.6596   24.0559 C   0  0  0  0  0  0
  -25.9045  -34.9467   23.5112 C   0  0  0  0  0  0
  -16.5352  -29.9098   23.6329 C   0  0  0  0  0  0
  -16.7262  -28.6518   23.0338 C   0  0  0  0  0  0
  -26.4475  -31.6603   25.0720 C   0  0  0  0  0  0
  -25.3723  -31.3737   26.1462 C   0  0  0  0  0  0
  -27.0305  -30.3028   24.6154 C   0  0  0  0  0  0
  -27.6041  -32.4328   25.7497 C   0  0  0  0  0  0
  -27.5578  -37.1810   24.8458 C   0  0  0  0  0  0
  -21.4149  -29.3043   22.3700 N   0  0  0  0  0  0
  -26.4287  -37.3793   23.9411 N   0  0  0  0  0  0
  -24.6774  -31.0702   22.0999 N   0  0  0  0  0  0
  -23.4181  -28.8177   23.3009 O   0  0  0  0  0  0
  -28.3843  -26.5954   20.0981 O   0  0  0  0  0  0
  -26.5627  -34.8930   22.4686 O   0  0  0  0  0  0
  -23.5383  -32.1423   23.7437 O   0  0  0  0  0  0
  -29.2961  -17.9595   20.3110 C   0  0  0  0  0  0
  -30.7495  -19.7118   21.0776 C   0  0  0  0  0  0
  -29.5775  -19.3601   20.3763 C   0  0  0  0  0  0
  -30.1573  -17.0011   20.9138 C   0  0  0  0  0  0
  -31.2854  -17.4996   21.5975 C   0  0  0  0  0  0
  -29.5982  -24.3898   19.8909 C   0  0  0  0  0  0
  -29.7812  -22.8326   19.6678 C   0  0  0  0  0  0
  -28.0735  -21.1265   17.1744 C   0  0  0  0  0  0
  -27.1905  -20.0843   19.9631 C   0  0  0  0  0  0
  -28.2378  -25.1385   20.0093 C   0  0  0  0  0  0
  -28.8998  -20.2396   18.1275 C   0  0  0  0  0  0
  -28.6708  -20.4312   19.6596 C   0  0  2  0  0  0
  -31.5710  -18.8171   21.6720 N   0  0  0  0  0  0
  -30.9713  -22.5017   19.1014 N   0  0  0  0  0  0
  -29.8480  -15.5898   20.8951 N   0  0  0  0  0  0
  -28.8390  -21.8994   20.0131 N   0  3  0  0  0  0
  -30.6418  -25.0605   19.8821 O   0  0  0  0  0  0
  -32.0993  -16.6498   22.2691 F   0  0  0  0  0  0
  -31.4856  -12.4654   19.1458 H   0  0  0  0  0  0
  -30.3633  -11.3432   19.8613 H   0  0  0  0  0  0
  -29.7715  -11.7593   17.4565 H   0  0  0  0  0  0
  -29.6669  -13.4752   17.7565 H   0  0  0  0  0  0
  -27.8630  -11.2877   18.8433 H   0  0  0  0  0  0
  -27.3837  -12.5872   17.7823 H   0  0  0  0  0  0
  -27.6918  -14.2427   19.5362 H   0  0  0  0  0  0
  -28.7027  -11.9908   21.3450 H   0  0  0  0  0  0
  -28.4575  -13.6343   21.8602 H   0  0  0  0  0  0
  -25.2803   -9.5659   22.4747 H   0  0  0  0  0  0
  -24.0008   -7.4638   22.7489 H   0  0  0  0  0  0
  -21.0845   -8.8784   19.8979 H   0  0  0  0  0  0
  -22.3730  -10.9671   19.6154 H   0  0  0  0  0  0
  -21.2008   -7.6146   23.9720 H   0  0  0  0  0  0
  -21.1474   -6.0522   25.9082 H   0  0  0  0  0  0
  -22.0603   -2.7615   23.2844 H   0  0  0  0  0  0
  -22.4118  -11.9934   22.4768 H   0  0  0  0  0  0
  -21.1148  -13.1332   22.2555 H   0  0  0  0  0  0
  -24.6625  -15.8369   20.4986 H   0  0  0  0  0  0
  -26.2698  -15.6219   20.0342 H   0  0  0  0  0  0
  -26.7132  -32.5489   23.1111 H   0  0  0  0  0  0
  -24.9978  -33.9748   25.0385 H   0  0  0  0  0  0
  -22.7002  -31.3103   21.4120 H   0  0  0  0  0  0
  -23.3750  -35.9636   23.3305 H   0  0  0  0  0  0
  -24.3569  -36.8940   22.2052 H   0  0  0  0  0  0
  -23.7247  -37.6514   23.6662 H   0  0  0  0  0  0
  -26.0729  -31.5771   20.6051 H   0  0  0  0  0  0
  -26.8282  -30.8550   21.9968 H   0  0  0  0  0  0
  -28.1108  -29.0440   21.1537 H   0  0  0  0  0  0
  -25.9685  -25.9477   19.0185 H   0  0  0  0  0  0
  -23.9576  -27.2974   19.0466 H   0  0  0  0  0  0
  -23.7392  -30.6084   19.4116 H   0  0  0  0  0  0
  -22.7397  -29.2604   19.8574 H   0  0  0  0  0  0
  -25.1298  -36.1945   25.0822 H   0  0  0  0  0  0
  -20.9948  -28.3253   24.1416 H   0  0  0  0  0  0
  -20.5642  -26.2290   23.3604 H   0  0  0  0  0  0
  -21.6633  -26.7430   22.1219 H   0  0  0  0  0  0
  -19.6901  -25.6297   21.1240 H   0  0  0  0  0  0
  -19.6702  -27.3190   20.6724 H   0  0  0  0  0  0
  -17.4185  -26.6655   21.4024 H   0  0  0  0  0  0
  -18.0333  -26.0082   22.9022 H   0  0  0  0  0  0
  -19.7944  -30.7259   24.2263 H   0  0  0  0  0  0
  -17.5035  -31.6278   24.5160 H   0  0  0  0  0  0
  -15.5357  -30.3008   23.7677 H   0  0  0  0  0  0
  -15.8652  -28.0857   22.7044 H   0  0  0  0  0  0
  -24.5872  -30.7111   25.7798 H   0  0  0  0  0  0
  -24.8940  -32.2903   26.4917 H   0  0  0  0  0  0
  -25.8054  -30.8889   27.0219 H   0  0  0  0  0  0
  -26.2862  -29.6803   24.1167 H   0  0  0  0  0  0
  -27.3997  -29.7264   25.4652 H   0  0  0  0  0  0
  -27.8739  -30.4332   23.9368 H   0  0  0  0  0  0
  -27.2637  -33.3601   26.2121 H   0  0  0  0  0  0
  -28.3826  -32.6940   25.0314 H   0  0  0  0  0  0
  -28.0726  -31.8422   26.5383 H   0  0  0  0  0  0
  -28.2599  -38.0108   24.7510 H   0  0  0  0  0  0
  -28.1081  -36.2643   24.6275 H   0  0  0  0  0  0
  -27.2295  -37.1444   25.8862 H   0  0  0  0  0  0
  -20.9300  -29.8803   21.6960 H   0  0  0  0  0  0
  -26.0176  -38.2868   24.1427 H   0  0  0  0  0  0
  -28.4228  -17.6026   19.7840 H   0  0  0  0  0  0
  -31.0527  -20.7423   21.1717 H   0  0  0  0  0  0
  -28.2904  -20.8637   16.1394 H   0  0  0  0  0  0
  -28.3093  -22.1843   17.2861 H   0  0  0  0  0  0
  -27.0004  -20.9964   17.3124 H   0  0  0  0  0  0
  -26.8717  -19.1662   19.4706 H   0  0  0  0  0  0
  -26.5040  -20.8571   19.6189 H   0  0  0  0  0  0
  -27.0220  -19.9574   21.0333 H   0  0  0  0  0  0
  -27.6969  -24.7736   20.8819 H   0  0  0  0  0  0
  -27.6732  -24.8629   19.1206 H   0  0  0  0  0  0
  -29.9573  -20.3505   17.8893 H   0  0  0  0  0  0
  -28.6688  -19.2062   17.8663 H   0  0  0  0  0  0
  -31.6006  -23.2836   18.9315 H   0  0  0  0  0  0
  -31.2304  -21.5755   18.7900 H   0  0  0  0  0  0
  -28.8916  -15.3308   21.0809 H   0  0  0  0  0  0
  -28.0621  -22.2596   20.5445 H   0  0  0  0  0  0
  1 25  1  0  0  0
  1 30  2  0  0  0
  1 85  1  0  0  0
  2  3  1  0  0  0
  2 25  1  0  0  0
  2 89  1  0  0  0
  2 90  1  0  0  0
  3  4  1  0  0  0
  3 91  1  0  0  0
  3 92  1  0  0  0
  4  5  1  0  0  0
  4 93  1  0  0  0
  4 94  1  0  0  0
  5  6  1  0  0  0
  5 26  1  0  0  0
  5 95  1  0  0  0
  6 25  1  0  0  0
  6 96  1  0  0  0
  6 97  1  0  0  0
  7  8  2  0  0  0
  7 26  1  0  0  0
  7 29  1  0  0  0
  8  9  1  0  0  0
  8 22  1  0  0  0
  9 10  1  0  0  0
  9 27  2  0  0  0
 10 11  2  0  0  0
 10 15  1  0  0  0
 11 12  1  0  0  0
 11 98  1  0  0  0
 12 13  2  0  0  0
 12 99  1  0  0  0
 13 14  1  0  0  0
 13 31  1  0  0  0
 14 15  2  0  0  0
 14100  1  0  0  0
 15101  1  0  0  0
 16 17  2  0  0  0
 16 21  1  0  0  0
 16 31  1  0  0  0
 17 18  1  0  0  0
 17102  1  0  0  0
 18 19  2  0  0  0
 18103  1  0  0  0
 19 20  1  0  0  0
 19 24  1  0  0  0
 20 21  2  0  0  0
 20104  1  0  0  0
 21 23  1  0  0  0
 22 28  1  0  0  0
 22 32  2  0  0  0
 26 27  1  0  0  0
 28105  1  0  0  0
 28106  1  0  0  0
 29107  1  0  0  0
 29108  1  0  0  0
 33 34  1  0  0  0
 33 66  1  0  0  0
 33 70  2  0  0  0
 34 36  1  0  0  0
 34 59  1  0  0  0
 34109  1  0  0  0
 35 44  2  0  0  0
 35 45  1  0  0  0
 35 68  1  0  0  0
 36 56  1  0  0  0
 36110  1  0  0  0
 37 39  1  0  0  0
 37 47  1  0  0  0
 37 66  1  0  0  0
 37111  1  0  0  0
 38 43  2  0  0  0
 38 46  1  0  0  0
 38 47  1  0  0  0
 39 64  1  0  0  0
 39 67  2  0  0  0
 40 52  1  0  0  0
 40 53  2  0  0  0
 40 58  1  0  0  0
 41112  1  0  0  0
 41113  1  0  0  0
 41114  1  0  0  0
 41 48  1  0  0  0
 42 43  1  0  0  0
 42 66  1  0  0  0
 42115  1  0  0  0
 42116  1  0  0  0
 43 44  1  0  0  0
 44117  1  0  0  0
 45 46  2  0  0  0
 45118  1  0  0  0
 46119  1  0  0  0
 47120  1  0  0  0
 47121  1  0  0  0
 48 56  1  0  0  0
 48 65  1  0  0  0
 48122  1  0  0  0
 49 50  1  0  0  0
 49 53  1  0  0  0
 49 64  1  0  0  0
 49123  1  0  0  0
 50 51  1  0  0  0
 50124  1  0  0  0
 50125  1  0  0  0
 51 52  1  0  0  0
 51126  1  0  0  0
 51127  1  0  0  0
 52128  1  0  0  0
 52129  1  0  0  0
 53 54  1  0  0  0
 54 55  2  0  0  0
 54130  1  0  0  0
 55 57  1  0  0  0
 55131  1  0  0  0
 56 69  2  0  0  0
 57 58  2  0  0  0
 57132  1  0  0  0
 58133  1  0  0  0
 59 60  1  0  0  0
 59 61  1  0  0  0
 59 62  1  0  0  0
 60134  1  0  0  0
 60135  1  0  0  0
 60136  1  0  0  0
 61137  1  0  0  0
 61138  1  0  0  0
 61139  1  0  0  0
 62140  1  0  0  0
 62141  1  0  0  0
 62142  1  0  0  0
 63 65  1  0  0  0
 63143  1  0  0  0
 63144  1  0  0  0
 63145  1  0  0  0
 64146  1  0  0  0
 65147  1  0  0  0
 68 80  1  0  0  0
 71 73  2  0  0  0
 71 74  1  0  0  0
 71148  1  0  0  0
 72 73  1  0  0  0
 72 83  2  0  0  0
 72149  1  0  0  0
 73 82  1  0  0  0
 74 75  2  0  0  0
 74 85  1  0  0  0
 75 83  1  0  0  0
 75 88  1  0  0  0
 76 77  1  0  0  0
 76 80  1  0  0  0
 76 87  2  0  0  0
 77 84  1  0  0  0
 77 86  2  0  0  0
 78 81  1  0  0  0
 78150  1  0  0  0
 78151  1  0  0  0
 78152  1  0  0  0
 79153  1  0  0  0
 79154  1  0  0  0
 79155  1  0  0  0
 79 82  1  0  0  0
 80156  1  0  0  0
 80157  1  0  0  0
 81 82  1  0  0  0
 81158  1  0  0  0
 81159  1  0  0  0
 82 86  1  0  0  0
 84160  1  0  0  0
 84161  1  0  0  0
 85162  1  0  0  0
 86163  1  0  0  0
M  CHG  1  86   1
M  ISO  4   1 100  68 101  80 101  85 100
M  END
> <chiral flag>
0

> <version>
0

> <s_m_source_file>
/data/baiqing/PycharmProjects/Reinvent-master-3.2/result/LINK_invent/BTK/process_docking_weight1_custom_product_contain_oxygen_bond_distance_aromatic_linkinvent_7_9_3/rearranged_h_0091.sdf

> <i_m_source_file_index>
63

> <r_mmod_Potential_Energy-OPLS-2005>
-230.012390136719

> <r_mmod_Stretch_Energy-OPLS-2005>
66.9858322143555

> <r_mmod_Bend_Energy-OPLS-2005>
134.960098266602

> <r_mmod_Torsional_Energy-OPLS-2005>
243.110412597656

> <r_mmod_Improper_Torsional_Energy-OPLS-2005>
6.37186145782471

> <r_mmod_Van_der_Waal_Energy-OPLS-2005>
155.175170898438

> <r_mmod_Electrostatic_Energy-OPLS-2005>
-307.860198974609

> <r_mmod_Solvation_Energy-OPLS-2005>
-554.861633300781

> <b_mmod_Minimization_Converged-OPLS-2005>
0

> <r_mmod_RMS_Derivative-OPLS-2005>
2.17815637588501

$$$$
63
                    3D
 Structure written by MMmdl.
155164  0  0  1  0            999 V2000
  -30.6185  -14.6736   20.4709 C   0  0  0  0  0  0
  -30.4431  -12.4094   19.4511 C   0  0  0  0  0  0
  -29.5079  -12.5054   18.2246 C   0  0  0  0  0  0
  -28.0314  -12.3417   18.6408 C   0  0  0  0  0  0
  -27.6502  -13.2209   19.8623 C   0  0  2  0  0  0
  -28.7026  -13.0985   20.9882 C   0  0  0  0  0  0
  -25.2507  -13.8131   20.5757 C   0  0  0  0  0  0
  -24.1783  -13.0370   20.9170 C   0  0  0  0  0  0
  -24.6394  -11.6866   20.8720 C   0  0  0  0  0  0
  -23.9071  -10.4257   21.0388 C   0  0  0  0  0  0
  -24.3619   -9.4183   21.9176 C   0  0  0  0  0  0
  -23.6287   -8.2226   22.0754 C   0  0  0  0  0  0
  -22.4268   -8.0269   21.3544 C   0  0  0  0  0  0
  -21.9904   -9.0240   20.4643 C   0  0  0  0  0  0
  -22.7240  -10.2110   20.3043 C   0  0  0  0  0  0
  -21.6848   -6.0729   22.5281 C   0  0  0  0  0  0
  -21.4012   -6.5635   23.8214 C   0  0  0  0  0  0
  -21.3658   -5.6789   24.9176 C   0  0  0  0  0  0
  -21.6044   -4.3052   24.7227 C   0  0  0  0  0  0
  -21.8820   -3.8143   23.4349 C   0  0  0  0  0  0
  -21.9191   -4.6958   22.3404 C   0  0  0  0  0  0
  -22.7808  -13.5166   21.1846 C   0  0  0  0  0  0
  -22.1660   -4.2145   21.0981 F   0  0  0  0  0  0
  -21.5629   -3.4536   25.7740 F   0  0  0  0  0  0
  -30.0141  -13.4425   20.4138 N   0  0  0  0  0  0
  -26.2984  -12.9362   20.3373 N   0  0  0  0  0  0
  -25.9335  -11.6500   20.5767 N   0  0  0  0  0  0
  -22.0462  -12.8170   22.0420 N   0  0  0  0  0  0
  -25.4016  -15.1872   20.4385 N   0  0  0  0  0  0
  -31.7988  -14.8262   20.1443 O   0  0  0  0  0  0
  -21.6630   -6.8870   21.4243 O   0  0  0  0  0  0
  -22.3489  -14.5481   20.6711 O   0  0  0  0  0  0
  -24.6267  -31.8592   23.2035 C   0  0  0  0  0  0
  -25.9112  -32.4777   23.8363 C   0  0  1  0  0  0
  -27.2262  -27.3111   20.1186 C   0  0  0  0  0  0
  -25.5923  -33.8579   24.2285 N   0  0  0  0  0  0
  -23.4221  -30.4829   21.5454 C   0  0  2  0  0  0
  -24.8717  -28.9406   20.1088 C   0  0  0  0  0  0
  -22.7483  -29.4615   22.4929 C   0  0  0  0  0  0
  -18.0287  -28.1385   22.8487 C   0  0  0  0  0  0
  -24.1490  -36.7294   23.2640 C   0  0  0  0  0  0
  -25.9650  -30.7846   21.3808 C   0  0  0  0  0  0
  -26.0396  -29.4115   20.7236 C   0  0  0  0  0  0
  -27.2189  -28.6054   20.7267 C   0  0  0  0  0  0
  -26.0431  -26.9101   19.4553 C   0  0  0  0  0  0
  -24.8752  -27.6940   19.4664 C   0  0  0  0  0  0
  -23.6391  -29.8204   20.1598 C   0  0  0  0  0  0
  -25.4114  -36.3083   24.0331 C   0  0  1  0  0  0
  -20.5889  -28.3690   23.1279 C   0  0  2  0  0  0
  -20.6775  -26.9410   22.5410 C   0  0  0  0  0  0
  -19.5750  -26.6383   21.5214 C   0  0  0  0  0  0
  -18.1931  -26.7928   22.1626 C   0  0  0  0  0  0
  -19.1540  -28.8855   23.2878 C   0  0  0  0  0  0
  -18.9464  -30.1457   23.8895 C   0  0  0  0  0  0
  -17.6463  -30.6587   24.0564 C   0  0  0  0  0  0
  -25.9049  -34.9451   23.5108 C   0  0  0  0  0  0
  -16.5354  -29.9086   23.6330 C   0  0  0  0  0  0
  -16.7274  -28.6504   23.0352 C   0  0  0  0  0  0
  -26.4496  -31.6589   25.0735 C   0  0  0  0  0  0
  -25.3727  -31.3730   26.1461 C   0  0  0  0  0  0
  -27.0345  -30.3010   24.6205 C   0  0  0  0  0  0
  -27.6051  -32.4332   25.7504 C   0  0  0  0  0  0
  -27.5578  -37.1805   24.8466 C   0  0  0  0  0  0
  -21.4194  -29.3041   22.3671 N   0  0  0  0  0  0
  -26.4294  -37.3775   23.9404 N   0  0  0  0  0  0
  -24.6897  -31.0592   22.0996 N   0  0  0  0  0  0
  -23.4200  -28.8150   23.3010 O   0  0  0  0  0  0
  -28.3180  -26.4232   20.1648 O   0  0  0  0  0  0
  -26.5618  -34.8916   22.4675 O   0  0  0  0  0  0
  -23.5427  -32.1398   23.7351 O   0  0  0  0  0  0
  -28.6335  -19.3319   20.2474 C   0  0  0  0  0  0
  -31.0384  -17.9852   20.7528 C   0  0  0  0  0  0
  -29.7775  -20.1468   20.4594 C   0  0  0  0  0  0
  -28.6909  -17.9050   20.2624 C   0  0  0  0  0  0
  -29.8821  -17.1881   20.5493 C   0  0  0  0  0  0
  -30.9904  -19.4171   20.6975 C   0  0  0  0  0  0
  -28.8688  -23.9382   20.2993 C   0  0  0  0  0  0
  -30.3107  -23.9117   20.0478 C   0  0  0  0  0  0
  -28.0473  -25.0444   20.3627 C   0  0  0  0  0  0
  -28.4783  -22.4451   20.4890 C   0  0  0  0  0  0
  -30.8510  -22.4721   20.1699 C   0  0  0  0  0  0
  -29.6983  -21.5960   20.4176 N   0  0  0  0  0  0
  -27.5478  -17.1744   19.9418 N   0  0  0  0  0  0
  -29.7758  -15.7308   20.6916 N   0  0  0  0  0  0
  -31.0331  -24.8765   19.7800 O   0  0  0  0  0  0
  -32.1470  -20.0915   20.9099 F   0  0  0  0  0  0
  -31.4824  -12.5407   19.1448 H   0  0  0  0  0  0
  -30.3861  -11.4195   19.9062 H   0  0  0  0  0  0
  -29.7741  -11.7465   17.4876 H   0  0  0  0  0  0
  -29.6448  -13.4697   17.7324 H   0  0  0  0  0  0
  -27.8736  -11.2896   18.8812 H   0  0  0  0  0  0
  -27.3748  -12.5613   17.7981 H   0  0  0  0  0  0
  -27.6536  -14.2512   19.5084 H   0  0  0  0  0  0
  -28.7215  -12.0838   21.3884 H   0  0  0  0  0  0
  -28.4513  -13.7473   21.8288 H   0  0  0  0  0  0
  -25.2765   -9.5658   22.4749 H   0  0  0  0  0  0
  -23.9991   -7.4619   22.7477 H   0  0  0  0  0  0
  -21.0832   -8.8762   19.8953 H   0  0  0  0  0  0
  -22.3704  -10.9648   19.6149 H   0  0  0  0  0  0
  -21.2004   -7.6143   23.9717 H   0  0  0  0  0  0
  -21.1479   -6.0518   25.9079 H   0  0  0  0  0  0
  -22.0602   -2.7605   23.2851 H   0  0  0  0  0  0
  -22.4081  -11.9829   22.4803 H   0  0  0  0  0  0
  -21.1087  -13.1206   22.2644 H   0  0  0  0  0  0
  -24.6211  -15.8125   20.6018 H   0  0  0  0  0  0
  -26.2747  -15.6981   20.3114 H   0  0  0  0  0  0
  -26.7179  -32.5446   23.1109 H   0  0  0  0  0  0
  -25.0067  -33.9727   25.0427 H   0  0  0  0  0  0
  -22.7163  -31.3038   21.4027 H   0  0  0  0  0  0
  -23.3748  -35.9631   23.3313 H   0  0  0  0  0  0
  -24.3576  -36.8903   22.2051 H   0  0  0  0  0  0
  -23.7251  -37.6503   23.6655 H   0  0  0  0  0  0
  -26.1007  -31.5477   20.6131 H   0  0  0  0  0  0
  -26.8435  -30.8320   22.0125 H   0  0  0  0  0  0
  -28.1113  -28.9561   21.2257 H   0  0  0  0  0  0
  -26.0037  -25.9617   18.9388 H   0  0  0  0  0  0
  -23.9844  -27.3318   18.9716 H   0  0  0  0  0  0
  -23.7584  -30.5987   19.4053 H   0  0  0  0  0  0
  -22.7595  -29.2502   19.8557 H   0  0  0  0  0  0
  -25.1296  -36.1938   25.0825 H   0  0  0  0  0  0
  -20.9982  -28.3266   24.1399 H   0  0  0  0  0  0
  -20.5676  -26.2299   23.3611 H   0  0  0  0  0  0
  -21.6643  -26.7437   22.1203 H   0  0  0  0  0  0
  -19.6910  -25.6294   21.1244 H   0  0  0  0  0  0
  -19.6687  -27.3193   20.6744 H   0  0  0  0  0  0
  -17.4199  -26.6675   21.4030 H   0  0  0  0  0  0
  -18.0330  -26.0071   22.9024 H   0  0  0  0  0  0
  -19.7940  -30.7275   24.2262 H   0  0  0  0  0  0
  -17.5018  -31.6267   24.5166 H   0  0  0  0  0  0
  -15.5354  -30.2988   23.7656 H   0  0  0  0  0  0
  -15.8674  -28.0823   22.7068 H   0  0  0  0  0  0
  -24.5900  -30.7081   25.7790 H   0  0  0  0  0  0
  -24.8922  -32.2898   26.4885 H   0  0  0  0  0  0
  -25.8050  -30.8908   27.0237 H   0  0  0  0  0  0
  -26.2929  -29.6756   24.1221 H   0  0  0  0  0  0
  -27.4027  -29.7271   25.4719 H   0  0  0  0  0  0
  -27.8806  -30.4291   23.9449 H   0  0  0  0  0  0
  -27.2654  -33.3629   26.2080 H   0  0  0  0  0  0
  -28.3858  -32.6898   25.0331 H   0  0  0  0  0  0
  -28.0723  -31.8463   26.5421 H   0  0  0  0  0  0
  -28.2606  -38.0092   24.7498 H   0  0  0  0  0  0
  -28.1066  -36.2623   24.6315 H   0  0  0  0  0  0
  -27.2294  -37.1481   25.8869 H   0  0  0  0  0  0
  -20.9373  -29.8768   21.6885 H   0  0  0  0  0  0
  -26.0178  -38.2854   24.1394 H   0  0  0  0  0  0
  -27.6892  -19.8099   20.0356 H   0  0  0  0  0  0
  -31.9805  -17.5081   20.9761 H   0  0  0  0  0  0
  -27.0091  -24.8752   20.6083 H   0  0  0  0  0  0
  -27.7716  -22.1622   19.7074 H   0  0  0  0  0  0
  -27.9818  -22.3136   21.4517 H   0  0  0  0  0  0
  -31.5600  -22.4255   20.9968 H   0  0  0  0  0  0
  -31.3678  -22.1881   19.2526 H   0  0  0  0  0  0
  -26.7619  -17.7492   19.6552 H   0  0  0  0  0  0
  -27.7285  -16.4896   19.2160 H   0  0  0  0  0  0
  -28.8204  -15.4428   20.8413 H   0  0  0  0  0  0
  1 25  1  0  0  0
  1 30  2  0  0  0
  1 84  1  0  0  0
  2  3  1  0  0  0
  2 25  1  0  0  0
  2 87  1  0  0  0
  2 88  1  0  0  0
  3  4  1  0  0  0
  3 89  1  0  0  0
  3 90  1  0  0  0
  4  5  1  0  0  0
  4 91  1  0  0  0
  4 92  1  0  0  0
  5  6  1  0  0  0
  5 26  1  0  0  0
  5 93  1  0  0  0
  6 25  1  0  0  0
  6 94  1  0  0  0
  6 95  1  0  0  0
  7  8  2  0  0  0
  7 26  1  0  0  0
  7 29  1  0  0  0
  8  9  1  0  0  0
  8 22  1  0  0  0
  9 10  1  0  0  0
  9 27  2  0  0  0
 10 11  2  0  0  0
 10 15  1  0  0  0
 11 12  1  0  0  0
 11 96  1  0  0  0
 12 13  2  0  0  0
 12 97  1  0  0  0
 13 14  1  0  0  0
 13 31  1  0  0  0
 14 15  2  0  0  0
 14 98  1  0  0  0
 15 99  1  0  0  0
 16 17  2  0  0  0
 16 21  1  0  0  0
 16 31  1  0  0  0
 17 18  1  0  0  0
 17100  1  0  0  0
 18 19  2  0  0  0
 18101  1  0  0  0
 19 20  1  0  0  0
 19 24  1  0  0  0
 20 21  2  0  0  0
 20102  1  0  0  0
 21 23  1  0  0  0
 22 28  1  0  0  0
 22 32  2  0  0  0
 26 27  1  0  0  0
 28103  1  0  0  0
 28104  1  0  0  0
 29105  1  0  0  0
 29106  1  0  0  0
 33 34  1  0  0  0
 33 66  1  0  0  0
 33 70  2  0  0  0
 34 36  1  0  0  0
 34 59  1  0  0  0
 34107  1  0  0  0
 35 44  2  0  0  0
 35 45  1  0  0  0
 35 68  1  0  0  0
 36 56  1  0  0  0
 36108  1  0  0  0
 37 39  1  0  0  0
 37 47  1  0  0  0
 37 66  1  0  0  0
 37109  1  0  0  0
 38 43  2  0  0  0
 38 46  1  0  0  0
 38 47  1  0  0  0
 39 64  1  0  0  0
 39 67  2  0  0  0
 40 52  1  0  0  0
 40 53  2  0  0  0
 40 58  1  0  0  0
 41110  1  0  0  0
 41111  1  0  0  0
 41112  1  0  0  0
 41 48  1  0  0  0
 42 43  1  0  0  0
 42 66  1  0  0  0
 42113  1  0  0  0
 42114  1  0  0  0
 43 44  1  0  0  0
 44115  1  0  0  0
 45 46  2  0  0  0
 45116  1  0  0  0
 46117  1  0  0  0
 47118  1  0  0  0
 47119  1  0  0  0
 48 56  1  0  0  0
 48 65  1  0  0  0
 48120  1  0  0  0
 49 50  1  0  0  0
 49 53  1  0  0  0
 49 64  1  0  0  0
 49121  1  0  0  0
 50 51  1  0  0  0
 50122  1  0  0  0
 50123  1  0  0  0
 51 52  1  0  0  0
 51124  1  0  0  0
 51125  1  0  0  0
 52126  1  0  0  0
 52127  1  0  0  0
 53 54  1  0  0  0
 54 55  2  0  0  0
 54128  1  0  0  0
 55 57  1  0  0  0
 55129  1  0  0  0
 56 69  2  0  0  0
 57 58  2  0  0  0
 57130  1  0  0  0
 58131  1  0  0  0
 59 60  1  0  0  0
 59 61  1  0  0  0
 59 62  1  0  0  0
 60132  1  0  0  0
 60133  1  0  0  0
 60134  1  0  0  0
 61135  1  0  0  0
 61136  1  0  0  0
 61137  1  0  0  0
 62138  1  0  0  0
 62139  1  0  0  0
 62140  1  0  0  0
 63 65  1  0  0  0
 63141  1  0  0  0
 63142  1  0  0  0
 63143  1  0  0  0
 64144  1  0  0  0
 65145  1  0  0  0
 68 79  1  0  0  0
 71 73  2  0  0  0
 71 74  1  0  0  0
 71146  1  0  0  0
 72 75  1  0  0  0
 72 76  2  0  0  0
 72147  1  0  0  0
 73 76  1  0  0  0
 73 82  1  0  0  0
 74 75  2  0  0  0
 74 83  1  0  0  0
 75 84  1  0  0  0
 76 86  1  0  0  0
 77 78  1  0  0  0
 77 79  2  0  0  0
 77 80  1  0  0  0
 78 81  1  0  0  0
 78 85  2  0  0  0
 79148  1  0  0  0
 80 82  1  0  0  0
 80149  1  0  0  0
 80150  1  0  0  0
 81 82  1  0  0  0
 81151  1  0  0  0
 81152  1  0  0  0
 83153  1  0  0  0
 83154  1  0  0  0
 84155  1  0  0  0
M  ISO  4   1 100  68 101  79 101  84 100
M  END
> <chiral flag>
0

> <version>
0

> <s_m_source_file>
/data/baiqing/PycharmProjects/Reinvent-master-3.2/result/LINK_invent/BTK/process_docking_weight1_custom_product_contain_oxygen_bond_distance_aromatic_linkinvent_7_9_3/rearranged_h_0091.sdf

> <i_m_source_file_index>
64

> <r_mmod_Potential_Energy-OPLS-2005>
80.9843215942383

> <r_mmod_Stretch_Energy-OPLS-2005>
79.5626983642578

> <r_mmod_Bend_Energy-OPLS-2005>
193.957794189453

> <r_mmod_Torsional_Energy-OPLS-2005>
223.060638427734

> <r_mmod_Improper_Torsional_Energy-OPLS-2005>
11.546685218811

> <r_mmod_Van_der_Waal_Energy-OPLS-2005>
147.973968505859

> <r_mmod_Electrostatic_Energy-OPLS-2005>
-395.150695800781

> <r_mmod_Solvation_Energy-OPLS-2005>
-239.981506347656

> <b_mmod_Minimization_Converged-OPLS-2005>
0

> <r_mmod_RMS_Derivative-OPLS-2005>
0.209199070930481

$$$$
64
                    3D
 Structure written by MMmdl.
158167  0  0  1  0            999 V2000
  -30.6305  -14.7171   20.3785 C   0  0  0  0  0  0
  -30.4243  -12.4187   19.4536 C   0  0  0  0  0  0
  -29.4825  -12.4256   18.2276 C   0  0  0  0  0  0
  -28.0165  -12.2748   18.6673 C   0  0  0  0  0  0
  -27.6326  -13.2094   19.8449 C   0  0  2  0  0  0
  -28.6913  -13.1836   20.9682 C   0  0  0  0  0  0
  -25.2484  -13.8142   20.5843 C   0  0  0  0  0  0
  -24.1756  -13.0400   20.9308 C   0  0  0  0  0  0
  -24.6328  -11.6880   20.8815 C   0  0  0  0  0  0
  -23.9013  -10.4258   21.0445 C   0  0  0  0  0  0
  -24.3574   -9.4168   21.9218 C   0  0  0  0  0  0
  -23.6267   -8.2187   22.0758 C   0  0  0  0  0  0
  -22.4262   -8.0228   21.3532 C   0  0  0  0  0  0
  -21.9887   -9.0205   20.4646 C   0  0  0  0  0  0
  -22.7192  -10.2101   20.3080 C   0  0  0  0  0  0
  -21.6838   -6.0687   22.5252 C   0  0  0  0  0  0
  -21.3997   -6.5606   23.8178 C   0  0  0  0  0  0
  -21.3661   -5.6770   24.9149 C   0  0  0  0  0  0
  -21.6057   -4.3035   24.7208 C   0  0  0  0  0  0
  -21.8826   -3.8120   23.4321 C   0  0  0  0  0  0
  -21.9189   -4.6925   22.3374 C   0  0  0  0  0  0
  -22.7773  -13.5205   21.1919 C   0  0  0  0  0  0
  -22.1654   -4.2104   21.0957 F   0  0  0  0  0  0
  -21.5656   -3.4530   25.7722 F   0  0  0  0  0  0
  -29.9807  -13.5054   20.3458 N   0  0  0  0  0  0
  -26.2888  -12.9315   20.3365 N   0  0  0  0  0  0
  -25.9244  -11.6473   20.5838 N   0  0  0  0  0  0
  -22.0386  -12.8203   22.0454 N   0  0  0  0  0  0
  -25.4109  -15.1863   20.4369 N   0  0  0  0  0  0
  -31.8640  -14.7460   20.3663 O   0  0  0  0  0  0
  -21.6626   -6.8826   21.4212 O   0  0  0  0  0  0
  -22.3459  -14.5491   20.6728 O   0  0  0  0  0  0
  -24.6255  -31.8568   23.2004 C   0  0  0  0  0  0
  -25.9087  -32.4776   23.8341 C   0  0  1  0  0  0
  -27.2145  -27.3007   20.1343 C   0  0  0  0  0  0
  -25.5917  -33.8579   24.2267 N   0  0  0  0  0  0
  -23.4206  -30.4779   21.5448 C   0  0  2  0  0  0
  -24.8668  -28.9277   20.1164 C   0  0  0  0  0  0
  -22.7461  -29.4574   22.4938 C   0  0  0  0  0  0
  -18.0259  -28.1339   22.8561 C   0  0  0  0  0  0
  -24.1488  -36.7308   23.2638 C   0  0  0  0  0  0
  -25.9619  -30.7851   21.3705 C   0  0  0  0  0  0
  -26.0362  -29.4075   20.7217 C   0  0  0  0  0  0
  -27.2181  -28.6047   20.7199 C   0  0  0  0  0  0
  -26.0309  -26.8778   19.5006 C   0  0  0  0  0  0
  -24.8661  -27.6692   19.4960 C   0  0  0  0  0  0
  -23.6366  -29.8109   20.1613 C   0  0  0  0  0  0
  -25.4116  -36.3097   24.0329 C   0  0  1  0  0  0
  -20.5867  -28.3620   23.1294 C   0  0  2  0  0  0
  -20.6740  -26.9297   22.5490 C   0  0  0  0  0  0
  -19.5636  -26.6118   21.5422 C   0  0  0  0  0  0
  -18.1853  -26.7793   22.1878 C   0  0  0  0  0  0
  -19.1528  -28.8803   23.2911 C   0  0  0  0  0  0
  -18.9482  -30.1370   23.8984 C   0  0  0  0  0  0
  -17.6487  -30.6519   24.0673 C   0  0  0  0  0  0
  -25.9051  -34.9459   23.5094 C   0  0  0  0  0  0
  -16.5367  -29.9073   23.6395 C   0  0  0  0  0  0
  -16.7253  -28.6489   23.0420 C   0  0  0  0  0  0
  -26.4474  -31.6604   25.0716 C   0  0  0  0  0  0
  -25.3702  -31.3742   26.1442 C   0  0  0  0  0  0
  -27.0314  -30.3029   24.6157 C   0  0  0  0  0  0
  -27.6023  -32.4338   25.7494 C   0  0  0  0  0  0
  -27.5584  -37.1822   24.8470 C   0  0  0  0  0  0
  -21.4177  -29.2952   22.3656 N   0  0  0  0  0  0
  -26.4302  -37.3783   23.9396 N   0  0  0  0  0  0
  -24.6895  -31.0562   22.0969 N   0  0  0  0  0  0
  -23.4181  -28.8150   23.3056 O   0  0  0  0  0  0
  -28.3125  -26.4307   20.1201 O   0  0  0  0  0  0
  -26.5608  -34.8935   22.4655 O   0  0  0  0  0  0
  -23.5407  -32.1368   23.7324 O   0  0  0  0  0  0
  -30.0984  -19.4623   20.7757 C   0  0  0  0  0  0
  -30.4387  -18.0643   20.7087 C   0  0  0  0  0  0
  -27.9695  -18.9740   19.8037 C   0  0  0  0  0  0
  -28.8573  -19.9768   20.2821 C   0  0  0  0  0  0
  -29.5670  -17.0866   20.1443 C   0  0  0  0  0  0
  -28.3144  -17.5984   19.7052 C   0  0  0  0  0  0
  -27.2281  -23.2804   19.5130 C   0  0  0  0  0  0
  -28.1920  -23.7567   20.3014 C   0  0  0  0  0  0
  -28.9974  -22.5684   20.7110 C   0  0  0  0  0  0
  -27.3195  -21.7926   19.3321 C   0  0  0  0  0  0
  -30.3830  -15.8062   18.2734 C   0  0  0  0  0  0
  -28.2311  -25.1987   20.9468 C   0  0  0  0  0  0
  -28.4658  -21.4108   20.1691 N   0  0  0  0  0  0
  -27.4224  -16.7628   19.0408 N   0  0  0  0  0  0
  -29.9890  -15.7408   19.6966 N   0  0  0  0  0  0
  -29.9926  -22.5987   21.4407 O   0  0  0  0  0  0
  -31.4602  -12.5476   19.1357 H   0  0  0  0  0  0
  -30.3810  -11.4602   19.9719 H   0  0  0  0  0  0
  -29.7442  -11.6169   17.5450 H   0  0  0  0  0  0
  -29.5870  -13.3408   17.6514 H   0  0  0  0  0  0
  -27.8887  -11.2370   18.9771 H   0  0  0  0  0  0
  -27.3391  -12.4244   17.8260 H   0  0  0  0  0  0
  -27.6162  -14.2130   19.4326 H   0  0  0  0  0  0
  -28.7308  -12.2044   21.4502 H   0  0  0  0  0  0
  -28.4405  -13.9065   21.7450 H   0  0  0  0  0  0
  -25.2709   -9.5631   22.4813 H   0  0  0  0  0  0
  -23.9977   -7.4555   22.7463 H   0  0  0  0  0  0
  -21.0826   -8.8688   19.8943 H   0  0  0  0  0  0
  -22.3644  -10.9634   19.6192 H   0  0  0  0  0  0
  -21.1970   -7.6119   23.9661 H   0  0  0  0  0  0
  -21.1508   -6.0506   25.9044 H   0  0  0  0  0  0
  -22.0629   -2.7580   23.2825 H   0  0  0  0  0  0
  -22.4011  -11.9892   22.4892 H   0  0  0  0  0  0
  -21.0979  -13.1209   22.2612 H   0  0  0  0  0  0
  -24.6480  -15.8397   20.5646 H   0  0  0  0  0  0
  -26.2383  -15.6462   20.0407 H   0  0  0  0  0  0
  -26.7163  -32.5429   23.1097 H   0  0  0  0  0  0
  -25.0130  -33.9744   25.0456 H   0  0  0  0  0  0
  -22.7141  -31.2987   21.4001 H   0  0  0  0  0  0
  -23.3748  -35.9642   23.3299 H   0  0  0  0  0  0
  -24.3586  -36.8917   22.2055 H   0  0  0  0  0  0
  -23.7250  -37.6514   23.6653 H   0  0  0  0  0  0
  -26.0807  -31.5432   20.5949 H   0  0  0  0  0  0
  -26.8472  -30.8444   21.9934 H   0  0  0  0  0  0
  -28.1209  -28.9662   21.1926 H   0  0  0  0  0  0
  -26.0036  -25.9224   19.0033 H   0  0  0  0  0  0
  -23.9737  -27.2964   19.0089 H   0  0  0  0  0  0
  -23.7576  -30.5833   19.4007 H   0  0  0  0  0  0
  -22.7566  -29.2401   19.8597 H   0  0  0  0  0  0
  -25.1295  -36.1962   25.0825 H   0  0  0  0  0  0
  -20.9967  -28.3240   24.1401 H   0  0  0  0  0  0
  -20.5798  -26.2256   23.3786 H   0  0  0  0  0  0
  -21.6558  -26.7326   22.1168 H   0  0  0  0  0  0
  -19.6486  -27.2753   20.6816 H   0  0  0  0  0  0
  -19.6750  -25.5922   21.1676 H   0  0  0  0  0  0
  -17.4027  -26.6366   21.4407 H   0  0  0  0  0  0
  -18.0332  -26.0095   22.9464 H   0  0  0  0  0  0
  -19.7965  -30.7151   24.2402 H   0  0  0  0  0  0
  -17.5090  -31.6147   24.5388 H   0  0  0  0  0  0
  -15.5371  -30.2979   23.7754 H   0  0  0  0  0  0
  -15.8648  -28.0784   22.7197 H   0  0  0  0  0  0
  -24.5881  -30.7084   25.7769 H   0  0  0  0  0  0
  -24.8891  -32.2909   26.4861 H   0  0  0  0  0  0
  -25.8029  -30.8932   27.0221 H   0  0  0  0  0  0
  -26.2889  -29.6792   24.1159 H   0  0  0  0  0  0
  -27.3990  -29.7275   25.4662 H   0  0  0  0  0  0
  -27.8761  -30.4311   23.9381 H   0  0  0  0  0  0
  -27.2623  -33.3634   26.2065 H   0  0  0  0  0  0
  -28.3846  -32.6896   25.0340 H   0  0  0  0  0  0
  -28.0666  -31.8463   26.5423 H   0  0  0  0  0  0
  -28.2614  -38.0108   24.7497 H   0  0  0  0  0  0
  -28.1071  -36.2638   24.6322 H   0  0  0  0  0  0
  -27.2301  -37.1510   25.8875 H   0  0  0  0  0  0
  -20.9358  -29.8561   21.6771 H   0  0  0  0  0  0
  -26.0188  -38.2858   24.1379 H   0  0  0  0  0  0
  -30.8376  -20.1508   21.1578 H   0  0  0  0  0  0
  -31.4306  -17.7549   21.0075 H   0  0  0  0  0  0
  -26.9993  -19.2609   19.4286 H   0  0  0  0  0  0
  -26.3924  -23.8377   19.1201 H   0  0  0  0  0  0
  -27.4788  -21.5250   18.2872 H   0  0  0  0  0  0
  -26.3908  -21.3375   19.6796 H   0  0  0  0  0  0
  -30.9283  -16.7284   18.0692 H   0  0  0  0  0  0
  -29.5049  -15.7929   17.6297 H   0  0  0  0  0  0
  -31.0350  -14.9954   17.9401 H   0  0  0  0  0  0
  -29.0877  -25.2240   21.6196 H   0  0  0  0  0  0
  -27.3651  -25.2611   21.6078 H   0  0  0  0  0  0
  -27.8833  -16.0009   18.5573 H   0  0  0  0  0  0
  -26.7687  -17.2328   18.4240 H   0  0  0  0  0  0
  1 25  1  0  0  0
  1 30  2  0  0  0
  1 85  1  0  0  0
  2  3  1  0  0  0
  2 25  1  0  0  0
  2 87  1  0  0  0
  2 88  1  0  0  0
  3  4  1  0  0  0
  3 89  1  0  0  0
  3 90  1  0  0  0
  4  5  1  0  0  0
  4 91  1  0  0  0
  4 92  1  0  0  0
  5  6  1  0  0  0
  5 26  1  0  0  0
  5 93  1  0  0  0
  6 25  1  0  0  0
  6 94  1  0  0  0
  6 95  1  0  0  0
  7  8  2  0  0  0
  7 26  1  0  0  0
  7 29  1  0  0  0
  8  9  1  0  0  0
  8 22  1  0  0  0
  9 10  1  0  0  0
  9 27  2  0  0  0
 10 11  2  0  0  0
 10 15  1  0  0  0
 11 12  1  0  0  0
 11 96  1  0  0  0
 12 13  2  0  0  0
 12 97  1  0  0  0
 13 14  1  0  0  0
 13 31  1  0  0  0
 14 15  2  0  0  0
 14 98  1  0  0  0
 15 99  1  0  0  0
 16 17  2  0  0  0
 16 21  1  0  0  0
 16 31  1  0  0  0
 17 18  1  0  0  0
 17100  1  0  0  0
 18 19  2  0  0  0
 18101  1  0  0  0
 19 20  1  0  0  0
 19 24  1  0  0  0
 20 21  2  0  0  0
 20102  1  0  0  0
 21 23  1  0  0  0
 22 28  1  0  0  0
 22 32  2  0  0  0
 26 27  1  0  0  0
 28103  1  0  0  0
 28104  1  0  0  0
 29105  1  0  0  0
 29106  1  0  0  0
 33 34  1  0  0  0
 33 66  1  0  0  0
 33 70  2  0  0  0
 34 36  1  0  0  0
 34 59  1  0  0  0
 34107  1  0  0  0
 35 44  2  0  0  0
 35 45  1  0  0  0
 35 68  1  0  0  0
 36 56  1  0  0  0
 36108  1  0  0  0
 37 39  1  0  0  0
 37 47  1  0  0  0
 37 66  1  0  0  0
 37109  1  0  0  0
 38 43  2  0  0  0
 38 46  1  0  0  0
 38 47  1  0  0  0
 39 64  1  0  0  0
 39 67  2  0  0  0
 40 52  1  0  0  0
 40 53  2  0  0  0
 40 58  1  0  0  0
 41110  1  0  0  0
 41111  1  0  0  0
 41112  1  0  0  0
 41 48  1  0  0  0
 42 43  1  0  0  0
 42 66  1  0  0  0
 42113  1  0  0  0
 42114  1  0  0  0
 43 44  1  0  0  0
 44115  1  0  0  0
 45 46  2  0  0  0
 45116  1  0  0  0
 46117  1  0  0  0
 47118  1  0  0  0
 47119  1  0  0  0
 48 56  1  0  0  0
 48 65  1  0  0  0
 48120  1  0  0  0
 49 50  1  0  0  0
 49 53  1  0  0  0
 49 64  1  0  0  0
 49121  1  0  0  0
 50 51  1  0  0  0
 50122  1  0  0  0
 50123  1  0  0  0
 51 52  1  0  0  0
 51124  1  0  0  0
 51125  1  0  0  0
 52126  1  0  0  0
 52127  1  0  0  0
 53 54  1  0  0  0
 54 55  2  0  0  0
 54128  1  0  0  0
 55 57  1  0  0  0
 55129  1  0  0  0
 56 69  2  0  0  0
 57 58  2  0  0  0
 57130  1  0  0  0
 58131  1  0  0  0
 59 60  1  0  0  0
 59 61  1  0  0  0
 59 62  1  0  0  0
 60132  1  0  0  0
 60133  1  0  0  0
 60134  1  0  0  0
 61135  1  0  0  0
 61136  1  0  0  0
 61137  1  0  0  0
 62138  1  0  0  0
 62139  1  0  0  0
 62140  1  0  0  0
 63 65  1  0  0  0
 63141  1  0  0  0
 63142  1  0  0  0
 63143  1  0  0  0
 64144  1  0  0  0
 65145  1  0  0  0
 68 82  1  0  0  0
 71 72  2  0  0  0
 71 74  1  0  0  0
 71146  1  0  0  0
 72 75  1  0  0  0
 72147  1  0  0  0
 73 74  2  0  0  0
 73 76  1  0  0  0
 73148  1  0  0  0
 74 83  1  0  0  0
 75 76  2  0  0  0
 75 85  1  0  0  0
 76 84  1  0  0  0
 77 78  2  0  0  0
 77 80  1  0  0  0
 77149  1  0  0  0
 78 79  1  0  0  0
 78 82  1  0  0  0
 79 83  1  0  0  0
 79 86  2  0  0  0
 80 83  1  0  0  0
 80150  1  0  0  0
 80151  1  0  0  0
 81 85  1  0  0  0
 81152  1  0  0  0
 81153  1  0  0  0
 81154  1  0  0  0
 82155  1  0  0  0
 82156  1  0  0  0
 84157  1  0  0  0
 84158  1  0  0  0
M  ISO  4   1 100  68 101  82 101  85 100
M  END
> <chiral flag>
0

> <version>
0

> <s_m_source_file>
/data/baiqing/PycharmProjects/Reinvent-master-3.2/result/LINK_invent/BTK/process_docking_weight1_custom_product_contain_oxygen_bond_distance_aromatic_linkinvent_7_9_3/rearranged_h_0091.sdf

> <i_m_source_file_index>
65

> <r_mmod_Potential_Energy-OPLS-2005>
421.030639648438

> <r_mmod_Stretch_Energy-OPLS-2005>
98.1576538085938

> <r_mmod_Bend_Energy-OPLS-2005>
213.700393676758

> <r_mmod_Torsional_Energy-OPLS-2005>
390.161956787109

> <r_mmod_Improper_Torsional_Energy-OPLS-2005>
40.9047241210938

> <r_mmod_Van_der_Waal_Energy-OPLS-2005>
146.147842407227

> <r_mmod_Electrostatic_Energy-OPLS-2005>
-351.135589599609

> <r_mmod_Solvation_Energy-OPLS-2005>
-202.018096923828

> <b_mmod_Minimization_Converged-OPLS-2005>
0

> <r_mmod_RMS_Derivative-OPLS-2005>
3.60391020774841

$$$$
65
                    3D
 Structure written by MMmdl.
165174  0  0  1  0            999 V2000
  -30.6716  -14.6805   20.5791 C   0  0  0  0  0  0
  -30.4323  -12.4374   19.4799 C   0  0  0  0  0  0
  -29.5197  -12.5374   18.2372 C   0  0  0  0  0  0
  -28.0428  -12.3473   18.6309 C   0  0  0  0  0  0
  -27.6496  -13.2231   19.8443 C   0  0  2  0  0  0
  -28.6772  -13.0981   20.9835 C   0  0  0  0  0  0
  -25.2577  -13.8188   20.5675 C   0  0  0  0  0  0
  -24.1861  -13.0452   20.9194 C   0  0  0  0  0  0
  -24.6437  -11.6916   20.8731 C   0  0  0  0  0  0
  -23.9111  -10.4301   21.0424 C   0  0  0  0  0  0
  -24.3656   -9.4212   21.9201 C   0  0  0  0  0  0
  -23.6325   -8.2248   22.0761 C   0  0  0  0  0  0
  -22.4294   -8.0298   21.3557 C   0  0  0  0  0  0
  -21.9950   -9.0276   20.4654 C   0  0  0  0  0  0
  -22.7290  -10.2149   20.3065 C   0  0  0  0  0  0
  -21.6856   -6.0744   22.5285 C   0  0  0  0  0  0
  -21.4020   -6.5654   23.8215 C   0  0  0  0  0  0
  -21.3671   -5.6804   24.9177 C   0  0  0  0  0  0
  -21.6034   -4.3065   24.7222 C   0  0  0  0  0  0
  -21.8822   -3.8160   23.4344 C   0  0  0  0  0  0
  -21.9209   -4.6980   22.3405 C   0  0  0  0  0  0
  -22.7879  -13.5221   21.1878 C   0  0  0  0  0  0
  -22.1670   -4.2166   21.0976 F   0  0  0  0  0  0
  -21.5636   -3.4544   25.7736 F   0  0  0  0  0  0
  -30.0133  -13.4633   20.4688 N   0  0  0  0  0  0
  -26.2964  -12.9365   20.3154 N   0  0  0  0  0  0
  -25.9341  -11.6515   20.5653 N   0  0  0  0  0  0
  -22.0527  -12.8197   22.0415 N   0  0  0  0  0  0
  -25.4341  -15.1912   20.4152 N   0  0  0  0  0  0
  -31.7358  -14.8460   19.9758 O   0  0  0  0  0  0
  -21.6653   -6.8902   21.4244 O   0  0  0  0  0  0
  -22.3557  -14.5538   20.6756 O   0  0  0  0  0  0
  -24.6289  -31.8593   23.2028 C   0  0  0  0  0  0
  -25.9124  -32.4780   23.8360 C   0  0  1  0  0  0
  -27.2099  -27.2844   20.1148 C   0  0  0  0  0  0
  -25.5927  -33.8583   24.2263 N   0  0  0  0  0  0
  -23.4237  -30.4854   21.5479 C   0  0  2  0  0  0
  -24.8695  -28.9418   20.1100 C   0  0  0  0  0  0
  -22.7500  -29.4623   22.4927 C   0  0  0  0  0  0
  -18.0287  -28.1408   22.8493 C   0  0  0  0  0  0
  -24.1501  -36.7288   23.2642 C   0  0  0  0  0  0
  -25.9713  -30.7771   21.3828 C   0  0  0  0  0  0
  -26.0428  -29.4034   20.7207 C   0  0  0  0  0  0
  -27.2195  -28.5866   20.7149 C   0  0  0  0  0  0
  -26.0203  -26.9020   19.4534 C   0  0  0  0  0  0
  -24.8611  -27.6959   19.4690 C   0  0  0  0  0  0
  -23.6405  -29.8286   20.1612 C   0  0  0  0  0  0
  -25.4129  -36.3083   24.0322 C   0  0  1  0  0  0
  -20.5896  -28.3719   23.1284 C   0  0  2  0  0  0
  -20.6772  -26.9433   22.5422 C   0  0  0  0  0  0
  -19.5735  -26.6405   21.5228 C   0  0  0  0  0  0
  -18.1923  -26.7951   22.1642 C   0  0  0  0  0  0
  -19.1545  -28.8883   23.2883 C   0  0  0  0  0  0
  -18.9468  -30.1489   23.8893 C   0  0  0  0  0  0
  -17.6466  -30.6609   24.0587 C   0  0  0  0  0  0
  -25.9076  -34.9459   23.5095 C   0  0  0  0  0  0
  -16.5356  -29.9118   23.6338 C   0  0  0  0  0  0
  -16.7278  -28.6540   23.0354 C   0  0  0  0  0  0
  -26.4488  -31.6613   25.0755 C   0  0  0  0  0  0
  -25.3694  -31.3743   26.1458 C   0  0  0  0  0  0
  -27.0356  -30.3036   24.6241 C   0  0  0  0  0  0
  -27.6027  -32.4379   25.7538 C   0  0  0  0  0  0
  -27.5594  -37.1791   24.8459 C   0  0  0  0  0  0
  -21.4211  -29.3059   22.3662 N   0  0  0  0  0  0
  -26.4290  -37.3798   23.9424 N   0  0  0  0  0  0
  -24.6949  -31.0564   22.1011 N   0  0  0  0  0  0
  -23.4216  -28.8151   23.3010 O   0  0  0  0  0  0
  -28.2798  -26.3644   20.1573 O   0  0  0  0  0  0
  -26.5672  -34.8927   22.4681 O   0  0  0  0  0  0
  -23.5449  -32.1425   23.7326 O   0  0  0  0  0  0
  -30.6233  -19.5346   21.5302 C   0  0  0  0  0  0
  -30.8077  -18.1387   21.7479 C   0  0  0  0  0  0
  -30.1347  -23.6382   19.8122 C   0  0  0  0  0  0
  -29.0572  -19.0423   19.7850 C   0  0  0  0  0  0
  -28.8174  -23.7036   20.3541 C   0  0  0  0  0  0
  -29.7230  -20.0372   20.5592 C   0  0  0  0  0  0
  -30.1063  -17.1290   21.0173 C   0  0  0  0  0  0
  -29.2534  -17.6222   19.9819 C   0  0  0  0  0  0
  -28.5068  -22.3677   20.6551 C   0  0  0  0  0  0
  -30.5603  -22.3329   19.8407 C   0  0  0  0  0  0
  -30.0146  -15.4442   22.7438 C   0  0  0  0  0  0
  -27.2561  -21.8104   21.2639 C   0  0  0  0  0  0
  -30.6606  -14.2341   23.4388 C   0  0  0  0  0  0
  -28.3343  -17.0590   17.8578 C   0  0  0  0  0  0
  -27.9107  -24.9789   20.5932 C   0  0  0  0  0  0
  -29.5792  -21.4904   20.3503 N   0  0  0  0  0  0
  -30.2032  -15.6910   21.4134 N   0  0  0  0  0  0
  -29.3022  -16.1679   23.4507 O   0  0  0  0  0  0
  -31.7659  -21.8305   19.4610 O   0  0  0  0  0  0
  -28.6102  -16.6836   19.2039 O   0  0  0  0  0  0
  -31.4760  -12.5431   19.1849 H   0  0  0  0  0  0
  -30.3576  -11.4451   19.9265 H   0  0  0  0  0  0
  -29.8070  -11.7909   17.4956 H   0  0  0  0  0  0
  -29.6524  -13.5113   17.7625 H   0  0  0  0  0  0
  -27.8978  -11.2944   18.8735 H   0  0  0  0  0  0
  -27.3901  -12.5550   17.7824 H   0  0  0  0  0  0
  -27.6622  -14.2560   19.4987 H   0  0  0  0  0  0
  -28.6908  -12.0787   21.3725 H   0  0  0  0  0  0
  -28.3327  -13.7167   21.8072 H   0  0  0  0  0  0
  -25.2804   -9.5670   22.4778 H   0  0  0  0  0  0
  -24.0047   -7.4624   22.7465 H   0  0  0  0  0  0
  -21.0903   -8.8804   19.8938 H   0  0  0  0  0  0
  -22.3778  -10.9698   19.6178 H   0  0  0  0  0  0
  -21.1996   -7.6157   23.9724 H   0  0  0  0  0  0
  -21.1491   -6.0528   25.9084 H   0  0  0  0  0  0
  -22.0595   -2.7622   23.2836 H   0  0  0  0  0  0
  -22.4145  -11.9858   22.4797 H   0  0  0  0  0  0
  -21.1130  -13.1186   22.2580 H   0  0  0  0  0  0
  -24.6820  -15.8549   20.5586 H   0  0  0  0  0  0
  -26.2957  -15.6278   20.1103 H   0  0  0  0  0  0
  -26.7190  -32.5441   23.1109 H   0  0  0  0  0  0
  -24.9998  -33.9723   25.0352 H   0  0  0  0  0  0
  -22.7183  -31.3080   21.4084 H   0  0  0  0  0  0
  -23.3791  -35.9589   23.3254 H   0  0  0  0  0  0
  -24.3593  -36.8974   22.2062 H   0  0  0  0  0  0
  -23.7206  -37.6446   23.6718 H   0  0  0  0  0  0
  -26.1116  -31.5411   20.6168 H   0  0  0  0  0  0
  -26.8480  -30.8226   22.0168 H   0  0  0  0  0  0
  -28.1171  -28.9311   21.2091 H   0  0  0  0  0  0
  -25.9613  -25.9681   18.9148 H   0  0  0  0  0  0
  -23.9651  -27.3440   18.9757 H   0  0  0  0  0  0
  -23.7685  -30.6115   19.4127 H   0  0  0  0  0  0
  -22.7559  -29.2703   19.8501 H   0  0  0  0  0  0
  -25.1298  -36.1924   25.0807 H   0  0  0  0  0  0
  -20.9995  -28.3313   24.1404 H   0  0  0  0  0  0
  -20.5700  -26.2329   23.3628 H   0  0  0  0  0  0
  -21.6637  -26.7463   22.1209 H   0  0  0  0  0  0
  -19.6899  -25.6324   21.1242 H   0  0  0  0  0  0
  -19.6663  -27.3225   20.6768 H   0  0  0  0  0  0
  -17.4190  -26.6723   21.4048 H   0  0  0  0  0  0
  -18.0301  -26.0104   22.9043 H   0  0  0  0  0  0
  -19.7949  -30.7308   24.2262 H   0  0  0  0  0  0
  -17.5026  -31.6272   24.5212 H   0  0  0  0  0  0
  -15.5360  -30.3025   23.7653 H   0  0  0  0  0  0
  -15.8682  -28.0864   22.7056 H   0  0  0  0  0  0
  -24.5855  -30.7125   25.7756 H   0  0  0  0  0  0
  -24.8911  -32.2916   26.4901 H   0  0  0  0  0  0
  -25.7990  -30.8884   27.0225 H   0  0  0  0  0  0
  -26.2958  -29.6783   24.1224 H   0  0  0  0  0  0
  -27.3999  -29.7290   25.4767 H   0  0  0  0  0  0
  -27.8856  -30.4333   23.9534 H   0  0  0  0  0  0
  -27.2595  -33.3653   26.2138 H   0  0  0  0  0  0
  -28.3812  -32.6984   25.0359 H   0  0  0  0  0  0
  -28.0733  -31.8511   26.5433 H   0  0  0  0  0  0
  -28.2552  -38.0151   24.7592 H   0  0  0  0  0  0
  -28.1143  -36.2670   24.6186 H   0  0  0  0  0  0
  -27.2313  -37.1326   25.8862 H   0  0  0  0  0  0
  -20.9395  -29.8806   21.6883 H   0  0  0  0  0  0
  -26.0157  -38.2851   24.1515 H   0  0  0  0  0  0
  -31.1836  -20.2370   22.1307 H   0  0  0  0  0  0
  -31.4943  -17.8471   22.5297 H   0  0  0  0  0  0
  -30.7151  -24.4782   19.4572 H   0  0  0  0  0  0
  -28.3786  -19.3976   19.0235 H   0  0  0  0  0  0
  -26.4987  -22.5815   21.4051 H   0  0  0  0  0  0
  -27.4650  -21.3719   22.2402 H   0  0  0  0  0  0
  -26.8199  -21.0356   20.6332 H   0  0  0  0  0  0
  -31.6512  -14.0219   23.0377 H   0  0  0  0  0  0
  -30.0440  -13.3418   23.3491 H   0  0  0  0  0  0
  -30.7843  -14.4354   24.5022 H   0  0  0  0  0  0
  -27.5263  -17.7871   17.7906 H   0  0  0  0  0  0
  -28.0315  -16.1839   17.2818 H   0  0  0  0  0  0
  -29.2224  -17.4722   17.3751 H   0  0  0  0  0  0
  -27.7660  -25.0364   21.6730 H   0  0  0  0  0  0
  -26.9407  -24.6780   20.2042 H   0  0  0  0  0  0
  -32.3707  -22.5615   19.3878 H   0  0  0  0  0  0
  1 25  1  0  0  0
  1 30  2  0  0  0
  1 87  1  0  0  0
  2  3  1  0  0  0
  2 25  1  0  0  0
  2 91  1  0  0  0
  2 92  1  0  0  0
  3  4  1  0  0  0
  3 93  1  0  0  0
  3 94  1  0  0  0
  4  5  1  0  0  0
  4 95  1  0  0  0
  4 96  1  0  0  0
  5  6  1  0  0  0
  5 26  1  0  0  0
  5 97  1  0  0  0
  6 25  1  0  0  0
  6 98  1  0  0  0
  6 99  1  0  0  0
  7  8  2  0  0  0
  7 26  1  0  0  0
  7 29  1  0  0  0
  8  9  1  0  0  0
  8 22  1  0  0  0
  9 10  1  0  0  0
  9 27  2  0  0  0
 10 11  2  0  0  0
 10 15  1  0  0  0
 11 12  1  0  0  0
 11100  1  0  0  0
 12 13  2  0  0  0
 12101  1  0  0  0
 13 14  1  0  0  0
 13 31  1  0  0  0
 14 15  2  0  0  0
 14102  1  0  0  0
 15103  1  0  0  0
 16 17  2  0  0  0
 16 21  1  0  0  0
 16 31  1  0  0  0
 17 18  1  0  0  0
 17104  1  0  0  0
 18 19  2  0  0  0
 18105  1  0  0  0
 19 20  1  0  0  0
 19 24  1  0  0  0
 20 21  2  0  0  0
 20106  1  0  0  0
 21 23  1  0  0  0
 22 28  1  0  0  0
 22 32  2  0  0  0
 26 27  1  0  0  0
 28107  1  0  0  0
 28108  1  0  0  0
 29109  1  0  0  0
 29110  1  0  0  0
 33 34  1  0  0  0
 33 66  1  0  0  0
 33 70  2  0  0  0
 34 36  1  0  0  0
 34 59  1  0  0  0
 34111  1  0  0  0
 35 44  2  0  0  0
 35 45  1  0  0  0
 35 68  1  0  0  0
 36 56  1  0  0  0
 36112  1  0  0  0
 37 39  1  0  0  0
 37 47  1  0  0  0
 37 66  1  0  0  0
 37113  1  0  0  0
 38 43  2  0  0  0
 38 46  1  0  0  0
 38 47  1  0  0  0
 39 64  1  0  0  0
 39 67  2  0  0  0
 40 52  1  0  0  0
 40 53  2  0  0  0
 40 58  1  0  0  0
 41114  1  0  0  0
 41115  1  0  0  0
 41116  1  0  0  0
 41 48  1  0  0  0
 42 43  1  0  0  0
 42 66  1  0  0  0
 42117  1  0  0  0
 42118  1  0  0  0
 43 44  1  0  0  0
 44119  1  0  0  0
 45 46  2  0  0  0
 45120  1  0  0  0
 46121  1  0  0  0
 47122  1  0  0  0
 47123  1  0  0  0
 48 56  1  0  0  0
 48 65  1  0  0  0
 48124  1  0  0  0
 49 50  1  0  0  0
 49 53  1  0  0  0
 49 64  1  0  0  0
 49125  1  0  0  0
 50 51  1  0  0  0
 50126  1  0  0  0
 50127  1  0  0  0
 51 52  1  0  0  0
 51128  1  0  0  0
 51129  1  0  0  0
 52130  1  0  0  0
 52131  1  0  0  0
 53 54  1  0  0  0
 54 55  2  0  0  0
 54132  1  0  0  0
 55 57  1  0  0  0
 55133  1  0  0  0
 56 69  2  0  0  0
 57 58  2  0  0  0
 57134  1  0  0  0
 58135  1  0  0  0
 59 60  1  0  0  0
 59 61  1  0  0  0
 59 62  1  0  0  0
 60136  1  0  0  0
 60137  1  0  0  0
 60138  1  0  0  0
 61139  1  0  0  0
 61140  1  0  0  0
 61141  1  0  0  0
 62142  1  0  0  0
 62143  1  0  0  0
 62144  1  0  0  0
 63 65  1  0  0  0
 63145  1  0  0  0
 63146  1  0  0  0
 63147  1  0  0  0
 64148  1  0  0  0
 65149  1  0  0  0
 68 85  1  0  0  0
 71 72  2  0  0  0
 71 76  1  0  0  0
 71150  1  0  0  0
 72 77  1  0  0  0
 72151  1  0  0  0
 73 75  1  0  0  0
 73 80  2  0  0  0
 73152  1  0  0  0
 74 76  2  0  0  0
 74 78  1  0  0  0
 74153  1  0  0  0
 75 79  2  0  0  0
 75 85  1  0  0  0
 76 86  1  0  0  0
 77 78  2  0  0  0
 77 87  1  0  0  0
 78 90  1  0  0  0
 79 82  1  0  0  0
 79 86  1  0  0  0
 80 86  1  0  0  0
 80 89  1  0  0  0
 81 83  1  0  0  0
 81 87  1  0  0  0
 81 88  2  0  0  0
 82154  1  0  0  0
 82155  1  0  0  0
 82156  1  0  0  0
 83157  1  0  0  0
 83158  1  0  0  0
 83159  1  0  0  0
 84 90  1  0  0  0
 84160  1  0  0  0
 84161  1  0  0  0
 84162  1  0  0  0
 85163  1  0  0  0
 85164  1  0  0  0
 89165  1  0  0  0
M  ISO  4   1 100  68 101  85 101  87 100
M  END
> <chiral flag>
0

> <version>
0

> <s_m_source_file>
/data/baiqing/PycharmProjects/Reinvent-master-3.2/result/LINK_invent/BTK/process_docking_weight1_custom_product_contain_oxygen_bond_distance_aromatic_linkinvent_7_9_3/rearranged_h_0091.sdf

> <i_m_source_file_index>
66

> <r_mmod_Potential_Energy-OPLS-2005>
208.067855834961

> <r_mmod_Stretch_Energy-OPLS-2005>
110.250854492188

> <r_mmod_Bend_Energy-OPLS-2005>
158.100646972656

> <r_mmod_Torsional_Energy-OPLS-2005>
328.692626953125

> <r_mmod_Improper_Torsional_Energy-OPLS-2005>
3.16032123565674

> <r_mmod_Van_der_Waal_Energy-OPLS-2005>
155.151153564453

> <r_mmod_Electrostatic_Energy-OPLS-2005>
-410.702239990234

> <r_mmod_Solvation_Energy-OPLS-2005>
-203.602142333984

> <b_mmod_Minimization_Converged-OPLS-2005>
0

> <r_mmod_RMS_Derivative-OPLS-2005>
2.67331051826477

$$$$
66
                    3D
 Structure written by MMmdl.
153161  0  0  1  0            999 V2000
  -30.4360  -15.0590   20.4145 C   0  0  0  0  0  0
  -30.4672  -12.6631   19.5032 C   0  0  0  0  0  0
  -29.5390  -12.5495   18.2656 C   0  0  0  0  0  0
  -28.0744  -12.3081   18.6823 C   0  0  0  0  0  0
  -27.6349  -13.2421   19.8370 C   0  0  2  0  0  0
  -28.6765  -13.2760   20.9775 C   0  0  0  0  0  0
  -25.2515  -13.8207   20.5700 C   0  0  0  0  0  0
  -24.1830  -13.0455   20.9283 C   0  0  0  0  0  0
  -24.6416  -11.6926   20.8775 C   0  0  0  0  0  0
  -23.9096  -10.4294   21.0419 C   0  0  0  0  0  0
  -24.3633   -9.4203   21.9199 C   0  0  0  0  0  0
  -23.6295   -8.2245   22.0769 C   0  0  0  0  0  0
  -22.4281   -8.0290   21.3552 C   0  0  0  0  0  0
  -21.9918   -9.0275   20.4664 C   0  0  0  0  0  0
  -22.7262  -10.2146   20.3074 C   0  0  0  0  0  0
  -21.6851   -6.0746   22.5280 C   0  0  0  0  0  0
  -21.4016   -6.5647   23.8214 C   0  0  0  0  0  0
  -21.3653   -5.6799   24.9177 C   0  0  0  0  0  0
  -21.6043   -4.3060   24.7231 C   0  0  0  0  0  0
  -21.8813   -3.8154   23.4347 C   0  0  0  0  0  0
  -21.9190   -4.6974   22.3403 C   0  0  0  0  0  0
  -22.7839  -13.5236   21.1900 C   0  0  0  0  0  0
  -22.1660   -4.2164   21.0981 F   0  0  0  0  0  0
  -21.5622   -3.4536   25.7738 F   0  0  0  0  0  0
  -29.9424  -13.7451   20.3910 N   0  0  0  0  0  0
  -26.2904  -12.9404   20.3181 N   0  0  0  0  0  0
  -25.9333  -11.6548   20.5707 N   0  0  0  0  0  0
  -22.0445  -12.8246   22.0437 N   0  0  0  0  0  0
  -25.4233  -15.1936   20.4021 N   0  0  0  0  0  0
  -31.6179  -15.2360   20.0849 O   0  0  0  0  0  0
  -21.6635   -6.8897   21.4244 O   0  0  0  0  0  0
  -22.3555  -14.5544   20.6721 O   0  0  0  0  0  0
  -24.6511  -31.8348   23.1823 C   0  0  0  0  0  0
  -25.9244  -32.4658   23.8238 C   0  0  1  0  0  0
  -27.2329  -27.0620   20.1570 C   0  0  0  0  0  0
  -25.5961  -33.8470   24.2148 N   0  0  0  0  0  0
  -23.4609  -30.4490   21.5272 C   0  0  2  0  0  0
  -24.9148  -28.8630   20.1055 C   0  0  0  0  0  0
  -22.7607  -29.4495   22.4830 C   0  0  0  0  0  0
  -18.0304  -28.1405   22.8474 C   0  0  0  0  0  0
  -24.1478  -36.7230   23.2647 C   0  0  0  0  0  0
  -26.0210  -30.6842   21.3936 C   0  0  0  0  0  0
  -26.0921  -29.2881   20.7328 C   0  0  0  0  0  0
  -27.2442  -28.4033   20.7432 C   0  0  0  0  0  0
  -26.0256  -26.7553   19.4865 C   0  0  0  0  0  0
  -24.8995  -27.6137   19.4649 C   0  0  0  0  0  0
  -23.6921  -29.7713   20.1482 C   0  0  0  0  0  0
  -25.4125  -36.3014   24.0306 C   0  0  1  0  0  0
  -20.5923  -28.3732   23.1219 C   0  0  2  0  0  0
  -20.6783  -26.9427   22.5406 C   0  0  0  0  0  0
  -19.5761  -26.6380   21.5210 C   0  0  0  0  0  0
  -18.1945  -26.7942   22.1626 C   0  0  0  0  0  0
  -19.1567  -28.8889   23.2833 C   0  0  0  0  0  0
  -18.9483  -30.1479   23.8867 C   0  0  0  0  0  0
  -17.6483  -30.6599   24.0557 C   0  0  0  0  0  0
  -25.9088  -34.9392   23.5038 C   0  0  0  0  0  0
  -16.5369  -29.9091   23.6346 C   0  0  0  0  0  0
  -16.7288  -28.6508   23.0368 C   0  0  0  0  0  0
  -26.4538  -31.6569   25.0716 C   0  0  0  0  0  0
  -25.3685  -31.3796   26.1387 C   0  0  0  0  0  0
  -27.0432  -30.2958   24.6372 C   0  0  0  0  0  0
  -27.6056  -32.4344   25.7513 C   0  0  0  0  0  0
  -27.5569  -37.1778   24.8471 C   0  0  0  0  0  0
  -21.4289  -29.3038   22.3575 N   0  0  0  0  0  0
  -26.4286  -37.3732   23.9407 N   0  0  0  0  0  0
  -24.7308  -31.0126   22.0890 N   0  0  0  0  0  0
  -23.4211  -28.8048   23.3018 O   0  0  0  0  0  0
  -28.2682  -26.0366   20.2899 O   0  0  0  0  0  0
  -26.5682  -34.8904   22.4621 O   0  0  0  0  0  0
  -23.5598  -32.1252   23.6985 O   0  0  0  0  0  0
  -28.9776  -20.4630   20.5579 C   0  0  0  0  0  0
  -30.6331  -19.2163   19.2737 C   0  0  0  0  0  0
  -29.5975  -19.1194   20.2165 C   0  0  0  0  0  0
  -29.3139  -21.8223   20.0011 C   0  0  0  0  0  0
  -31.0084  -20.4674   18.7242 C   0  0  0  0  0  0
  -30.3749  -21.7065   19.0550 C   0  0  0  0  0  0
  -28.7355  -23.3541   20.2533 C   0  0  0  0  0  0
  -28.2397  -24.6359   19.7781 C   0  0  0  0  0  0
  -29.1046  -17.6566   20.6809 C   0  0  0  0  0  0
  -32.0668  -20.4998   17.8122 N   0  0  0  0  0  0
  -30.8661  -22.8448   18.4070 N   0  0  0  0  0  0
  -29.4370  -16.2323   20.6936 N   0  0  0  0  0  0
  -27.8838  -17.8219   21.2082 N   0  3  0  0  0  0
  -31.4887  -12.8748   19.1813 H   0  0  0  0  0  0
  -30.5169  -11.7167   20.0447 H   0  0  0  0  0  0
  -29.8812  -11.7472   17.6102 H   0  0  0  0  0  0
  -29.6017  -13.4677   17.6788 H   0  0  0  0  0  0
  -27.9881  -11.2694   19.0026 H   0  0  0  0  0  0
  -27.4099  -12.4184   17.8250 H   0  0  0  0  0  0
  -27.5950  -14.2400   19.3995 H   0  0  0  0  0  0
  -28.7923  -12.2920   21.4331 H   0  0  0  0  0  0
  -28.3501  -13.9422   21.7776 H   0  0  0  0  0  0
  -25.2779   -9.5666   22.4781 H   0  0  0  0  0  0
  -24.0003   -7.4623   22.7473 H   0  0  0  0  0  0
  -21.0859   -8.8805   19.8960 H   0  0  0  0  0  0
  -22.3734  -10.9694   19.6185 H   0  0  0  0  0  0
  -21.2014   -7.6156   23.9735 H   0  0  0  0  0  0
  -21.1477   -6.0522   25.9088 H   0  0  0  0  0  0
  -22.0598   -2.7621   23.2838 H   0  0  0  0  0  0
  -22.4020  -11.9895   22.4843 H   0  0  0  0  0  0
  -21.1056  -13.1292   22.2614 H   0  0  0  0  0  0
  -24.5698  -15.7427   20.3942 H   0  0  0  0  0  0
  -26.0660  -15.5059   19.6855 H   0  0  0  0  0  0
  -26.7312  -32.5234   23.0961 H   0  0  0  0  0  0
  -25.0078  -33.9565   25.0279 H   0  0  0  0  0  0
  -22.7685  -31.2776   21.3676 H   0  0  0  0  0  0
  -23.3754  -35.9548   23.3303 H   0  0  0  0  0  0
  -24.3556  -36.8868   22.2063 H   0  0  0  0  0  0
  -23.7219  -37.6416   23.6687 H   0  0  0  0  0  0
  -26.1895  -31.4364   20.6209 H   0  0  0  0  0  0
  -26.8855  -30.7343   22.0440 H   0  0  0  0  0  0
  -28.1360  -28.7216   21.2644 H   0  0  0  0  0  0
  -25.9102  -25.7931   19.0118 H   0  0  0  0  0  0
  -24.0005  -27.2833   18.9602 H   0  0  0  0  0  0
  -23.8333  -30.5431   19.3914 H   0  0  0  0  0  0
  -22.8056  -29.2149   19.8368 H   0  0  0  0  0  0
  -25.1318  -36.1834   25.0798 H   0  0  0  0  0  0
  -21.0014  -28.3322   24.1343 H   0  0  0  0  0  0
  -20.5663  -26.2351   23.3627 H   0  0  0  0  0  0
  -21.6648  -26.7417   22.1213 H   0  0  0  0  0  0
  -19.6920  -25.6277   21.1265 H   0  0  0  0  0  0
  -19.6699  -27.3162   20.6710 H   0  0  0  0  0  0
  -17.4207  -26.6666   21.4031 H   0  0  0  0  0  0
  -18.0354  -26.0095   22.9038 H   0  0  0  0  0  0
  -19.7957  -30.7297   24.2228 H   0  0  0  0  0  0
  -17.5037  -31.6280   24.5151 H   0  0  0  0  0  0
  -15.5366  -30.2988   23.7690 H   0  0  0  0  0  0
  -15.8686  -28.0810   22.7125 H   0  0  0  0  0  0
  -24.5869  -30.7145   25.7687 H   0  0  0  0  0  0
  -24.8883  -32.2999   26.4717 H   0  0  0  0  0  0
  -25.7934  -30.9018   27.0225 H   0  0  0  0  0  0
  -26.3088  -29.6662   24.1343 H   0  0  0  0  0  0
  -27.3970  -29.7287   25.4998 H   0  0  0  0  0  0
  -27.9018  -30.4185   23.9769 H   0  0  0  0  0  0
  -27.2639  -33.3656   26.2042 H   0  0  0  0  0  0
  -28.3901  -32.6884   25.0370 H   0  0  0  0  0  0
  -28.0691  -31.8509   26.5476 H   0  0  0  0  0  0
  -28.2591  -38.0069   24.7515 H   0  0  0  0  0  0
  -28.1054  -36.2606   24.6304 H   0  0  0  0  0  0
  -27.2288  -37.1432   25.8872 H   0  0  0  0  0  0
  -20.9521  -29.8742   21.6737 H   0  0  0  0  0  0
  -26.0143  -38.2792   24.1416 H   0  0  0  0  0  0
  -28.1724  -20.4565   21.2756 H   0  0  0  0  0  0
  -31.1319  -18.3121   18.9529 H   0  0  0  0  0  0
  -28.1182  -22.9860   19.4471 H   0  0  0  0  0  0
  -27.7924  -24.6909   18.7898 H   0  0  0  0  0  0
  -32.4988  -21.4182   17.7781 H   0  0  0  0  0  0
  -32.7646  -19.7743   17.9320 H   0  0  0  0  0  0
  -30.2611  -23.6545   18.4418 H   0  0  0  0  0  0
  -31.1925  -22.6482   17.4691 H   0  0  0  0  0  0
  -28.5704  -15.8445   21.0025 H   0  0  0  0  0  0
  -27.2865  -17.1028   21.5876 H   0  0  0  0  0  0
  -27.5107  -18.7582   21.1976 H   0  0  0  0  0  0
  1 25  1  0  0  0
  1 30  2  0  0  0
  1 82  1  0  0  0
  2  3  1  0  0  0
  2 25  1  0  0  0
  2 84  1  0  0  0
  2 85  1  0  0  0
  3  4  1  0  0  0
  3 86  1  0  0  0
  3 87  1  0  0  0
  4  5  1  0  0  0
  4 88  1  0  0  0
  4 89  1  0  0  0
  5  6  1  0  0  0
  5 26  1  0  0  0
  5 90  1  0  0  0
  6 25  1  0  0  0
  6 91  1  0  0  0
  6 92  1  0  0  0
  7  8  2  0  0  0
  7 26  1  0  0  0
  7 29  1  0  0  0
  8  9  1  0  0  0
  8 22  1  0  0  0
  9 10  1  0  0  0
  9 27  2  0  0  0
 10 11  2  0  0  0
 10 15  1  0  0  0
 11 12  1  0  0  0
 11 93  1  0  0  0
 12 13  2  0  0  0
 12 94  1  0  0  0
 13 14  1  0  0  0
 13 31  1  0  0  0
 14 15  2  0  0  0
 14 95  1  0  0  0
 15 96  1  0  0  0
 16 17  2  0  0  0
 16 21  1  0  0  0
 16 31  1  0  0  0
 17 18  1  0  0  0
 17 97  1  0  0  0
 18 19  2  0  0  0
 18 98  1  0  0  0
 19 20  1  0  0  0
 19 24  1  0  0  0
 20 21  2  0  0  0
 20 99  1  0  0  0
 21 23  1  0  0  0
 22 28  1  0  0  0
 22 32  2  0  0  0
 26 27  1  0  0  0
 28100  1  0  0  0
 28101  1  0  0  0
 29102  1  0  0  0
 29103  1  0  0  0
 33 34  1  0  0  0
 33 66  1  0  0  0
 33 70  2  0  0  0
 34 36  1  0  0  0
 34 59  1  0  0  0
 34104  1  0  0  0
 35 44  2  0  0  0
 35 45  1  0  0  0
 35 68  1  0  0  0
 36 56  1  0  0  0
 36105  1  0  0  0
 37 39  1  0  0  0
 37 47  1  0  0  0
 37 66  1  0  0  0
 37106  1  0  0  0
 38 43  2  0  0  0
 38 46  1  0  0  0
 38 47  1  0  0  0
 39 64  1  0  0  0
 39 67  2  0  0  0
 40 52  1  0  0  0
 40 53  2  0  0  0
 40 58  1  0  0  0
 41107  1  0  0  0
 41108  1  0  0  0
 41109  1  0  0  0
 41 48  1  0  0  0
 42 43  1  0  0  0
 42 66  1  0  0  0
 42110  1  0  0  0
 42111  1  0  0  0
 43 44  1  0  0  0
 44112  1  0  0  0
 45 46  2  0  0  0
 45113  1  0  0  0
 46114  1  0  0  0
 47115  1  0  0  0
 47116  1  0  0  0
 48 56  1  0  0  0
 48 65  1  0  0  0
 48117  1  0  0  0
 49 50  1  0  0  0
 49 53  1  0  0  0
 49 64  1  0  0  0
 49118  1  0  0  0
 50 51  1  0  0  0
 50119  1  0  0  0
 50120  1  0  0  0
 51 52  1  0  0  0
 51121  1  0  0  0
 51122  1  0  0  0
 52123  1  0  0  0
 52124  1  0  0  0
 53 54  1  0  0  0
 54 55  2  0  0  0
 54125  1  0  0  0
 55 57  1  0  0  0
 55126  1  0  0  0
 56 69  2  0  0  0
 57 58  2  0  0  0
 57127  1  0  0  0
 58128  1  0  0  0
 59 60  1  0  0  0
 59 61  1  0  0  0
 59 62  1  0  0  0
 60129  1  0  0  0
 60130  1  0  0  0
 60131  1  0  0  0
 61132  1  0  0  0
 61133  1  0  0  0
 61134  1  0  0  0
 62135  1  0  0  0
 62136  1  0  0  0
 62137  1  0  0  0
 63 65  1  0  0  0
 63138  1  0  0  0
 63139  1  0  0  0
 63140  1  0  0  0
 64141  1  0  0  0
 65142  1  0  0  0
 68 78  1  0  0  0
 71 73  2  0  0  0
 71 74  1  0  0  0
 71143  1  0  0  0
 72 73  1  0  0  0
 72 75  2  0  0  0
 72144  1  0  0  0
 73 79  1  0  0  0
 74 76  2  0  0  0
 74 77  1  0  0  0
 75 76  1  0  0  0
 75 80  1  0  0  0
 76 81  1  0  0  0
 77 78  2  0  0  0
 77145  1  0  0  0
 78146  1  0  0  0
 79 82  1  0  0  0
 79 83  2  0  0  0
 80147  1  0  0  0
 80148  1  0  0  0
 81149  1  0  0  0
 81150  1  0  0  0
 82151  1  0  0  0
 83152  1  0  0  0
 83153  1  0  0  0
M  CHG  1  83   1
M  ISO  4   1 100  68 101  78 101  82 100
M  END
> <chiral flag>
0

> <version>
0

> <s_m_source_file>
/data/baiqing/PycharmProjects/Reinvent-master-3.2/result/LINK_invent/BTK/process_docking_weight1_custom_product_contain_oxygen_bond_distance_aromatic_linkinvent_7_9_3/rearranged_h_0091.sdf

> <i_m_source_file_index>
67

> <r_mmod_Potential_Energy-OPLS-2005>
698.595947265625

> <r_mmod_Stretch_Energy-OPLS-2005>
342.126434326172

> <r_mmod_Bend_Energy-OPLS-2005>
596.7353515625

> <r_mmod_Torsional_Energy-OPLS-2005>
271.774993896484

> <r_mmod_Improper_Torsional_Energy-OPLS-2005>
31.7183322906494

> <r_mmod_Van_der_Waal_Energy-OPLS-2005>
143.614456176758

> <r_mmod_Electrostatic_Energy-OPLS-2005>
-504.896667480469

> <r_mmod_Solvation_Energy-OPLS-2005>
-466.423004150391

> <b_mmod_Minimization_Converged-OPLS-2005>
0

> <r_mmod_RMS_Derivative-OPLS-2005>
2.04441595077515

$$$$
67
                    3D
 Structure written by MMmdl.
163171  0  0  1  0            999 V2000
  -30.5725  -14.5873   20.5477 C   0  0  0  0  0  0
  -30.4659  -12.3723   19.4262 C   0  0  0  0  0  0
  -29.5140  -12.5132   18.2127 C   0  0  0  0  0  0
  -28.0364  -12.3387   18.6243 C   0  0  0  0  0  0
  -27.6649  -13.1839   19.8685 C   0  0  2  0  0  0
  -28.7114  -12.9608   20.9894 C   0  0  0  0  0  0
  -25.2662  -13.8118   20.5641 C   0  0  0  0  0  0
  -24.1890  -13.0447   20.9194 C   0  0  0  0  0  0
  -24.6389  -11.6893   20.8749 C   0  0  0  0  0  0
  -23.9045  -10.4293   21.0428 C   0  0  0  0  0  0
  -24.3602   -9.4194   21.9188 C   0  0  0  0  0  0
  -23.6284   -8.2223   22.0749 C   0  0  0  0  0  0
  -22.4260   -8.0271   21.3547 C   0  0  0  0  0  0
  -21.9905   -9.0247   20.4655 C   0  0  0  0  0  0
  -22.7229  -10.2133   20.3071 C   0  0  0  0  0  0
  -21.6843   -6.0744   22.5277 C   0  0  0  0  0  0
  -21.4004   -6.5642   23.8206 C   0  0  0  0  0  0
  -21.3657   -5.6799   24.9173 C   0  0  0  0  0  0
  -21.6045   -4.3053   24.7219 C   0  0  0  0  0  0
  -21.8821   -3.8148   23.4334 C   0  0  0  0  0  0
  -21.9187   -4.6975   22.3395 C   0  0  0  0  0  0
  -22.7931  -13.5274   21.1843 C   0  0  0  0  0  0
  -22.1669   -4.2173   21.0966 F   0  0  0  0  0  0
  -21.5632   -3.4537   25.7720 F   0  0  0  0  0  0
  -30.0354  -13.3346   20.4536 N   0  0  0  0  0  0
  -26.3036  -12.9224   20.3263 N   0  0  0  0  0  0
  -25.9303  -11.6429   20.5725 N   0  0  0  0  0  0
  -22.0532  -12.8269   22.0377 N   0  0  0  0  0  0
  -25.4512  -15.1826   20.3967 N   0  0  0  0  0  0
  -31.6985  -14.8818   20.1310 O   0  0  0  0  0  0
  -21.6628   -6.8883   21.4236 O   0  0  0  0  0  0
  -22.3664  -14.5588   20.6687 O   0  0  0  0  0  0
  -24.6218  -31.8637   23.2049 C   0  0  0  0  0  0
  -25.9082  -32.4803   23.8368 C   0  0  1  0  0  0
  -27.2293  -27.3610   20.1088 C   0  0  0  0  0  0
  -25.5921  -33.8604   24.2298 N   0  0  0  0  0  0
  -23.4120  -30.4882   21.5484 C   0  0  2  0  0  0
  -24.8581  -28.9495   20.1127 C   0  0  0  0  0  0
  -22.7442  -29.4648   22.4962 C   0  0  0  0  0  0
  -18.0279  -28.1381   22.8487 C   0  0  0  0  0  0
  -24.1495  -36.7305   23.2641 C   0  0  0  0  0  0
  -25.9492  -30.8071   21.3694 C   0  0  0  0  0  0
  -26.0252  -29.4376   20.7134 C   0  0  0  0  0  0
  -27.2131  -28.6554   20.7029 C   0  0  0  0  0  0
  -26.0359  -26.9127   19.4915 C   0  0  0  0  0  0
  -24.8639  -27.6898   19.4945 C   0  0  0  0  0  0
  -23.6219  -29.8224   20.1636 C   0  0  0  0  0  0
  -25.4116  -36.3099   24.0333 C   0  0  1  0  0  0
  -20.5876  -28.3676   23.1302 C   0  0  2  0  0  0
  -20.6772  -26.9406   22.5414 C   0  0  0  0  0  0
  -19.5750  -26.6382   21.5215 C   0  0  0  0  0  0
  -18.1928  -26.7925   22.1622 C   0  0  0  0  0  0
  -19.1528  -28.8841   23.2891 C   0  0  0  0  0  0
  -18.9458  -30.1452   23.8898 C   0  0  0  0  0  0
  -17.6458  -30.6586   24.0559 C   0  0  0  0  0  0
  -25.9046  -34.9467   23.5113 C   0  0  0  0  0  0
  -16.5348  -29.9083   23.6333 C   0  0  0  0  0  0
  -16.7267  -28.6500   23.0352 C   0  0  0  0  0  0
  -26.4482  -31.6596   25.0720 C   0  0  0  0  0  0
  -25.3729  -31.3722   26.1460 C   0  0  0  0  0  0
  -27.0313  -30.3025   24.6140 C   0  0  0  0  0  0
  -27.6057  -32.4318   25.7483 C   0  0  0  0  0  0
  -27.5582  -37.1808   24.8464 C   0  0  0  0  0  0
  -21.4162  -29.3039   22.3702 N   0  0  0  0  0  0
  -26.4297  -37.3784   23.9406 N   0  0  0  0  0  0
  -24.6798  -31.0687   22.0982 N   0  0  0  0  0  0
  -23.4190  -28.8194   23.3026 O   0  0  0  0  0  0
  -28.3650  -26.5485   20.1522 O   0  0  0  0  0  0
  -26.5614  -34.8922   22.4675 O   0  0  0  0  0  0
  -23.5397  -32.1418   23.7413 O   0  0  0  0  0  0
  -31.1319  -17.9028   19.3523 C   0  0  0  0  0  0
  -29.9031  -19.4061   20.8165 C   0  0  0  0  0  0
  -30.1657  -18.0667   20.3637 C   0  0  0  0  0  0
  -31.8787  -19.0008   18.8621 C   0  0  0  0  0  0
  -30.6043  -20.5350   20.3068 C   0  0  0  0  0  0
  -31.6317  -20.3126   19.3547 C   0  0  0  0  0  0
  -29.3445  -16.9160   20.8677 C   0  0  0  0  0  0
  -29.3584  -24.1924   20.3870 C   0  0  0  0  0  0
  -32.9401  -18.7164   17.8046 C   0  0  0  0  0  0
  -29.1701  -22.6306   20.3964 C   0  0  0  0  0  0
  -28.1375  -25.1024   20.0371 C   0  0  0  0  0  0
  -32.3894  -21.4178   18.9342 N   0  0  0  0  0  0
  -28.1054  -17.2592   21.2475 N   0  0  0  0  0  0
  -30.3933  -21.8701   20.7535 N   0  0  0  0  0  0
  -29.5782  -15.5682   20.9632 N   0  3  0  0  0  0
  -34.2234  -18.3253   18.4096 N   0  3  0  0  0  0
  -30.4662  -24.6807   20.6399 O   0  0  0  0  0  0
  -31.5009  -12.5429   19.1225 H   0  0  0  0  0  0
  -30.4348  -11.3585   19.8244 H   0  0  0  0  0  0
  -29.7757  -11.7807   17.4469 H   0  0  0  0  0  0
  -29.6464  -13.4928   17.7531 H   0  0  0  0  0  0
  -27.8691  -11.2815   18.8350 H   0  0  0  0  0  0
  -27.3787  -12.5911   17.7915 H   0  0  0  0  0  0
  -27.7018  -14.2242   19.5484 H   0  0  0  0  0  0
  -28.7222  -11.9107   21.2898 H   0  0  0  0  0  0
  -28.4536  -13.5073   21.8961 H   0  0  0  0  0  0
  -25.2743   -9.5673   22.4779 H   0  0  0  0  0  0
  -23.9998   -7.4619   22.7474 H   0  0  0  0  0  0
  -21.0825   -8.8764   19.8977 H   0  0  0  0  0  0
  -22.3668  -10.9678   19.6194 H   0  0  0  0  0  0
  -21.2004   -7.6157   23.9714 H   0  0  0  0  0  0
  -21.1476   -6.0532   25.9087 H   0  0  0  0  0  0
  -22.0608   -2.7611   23.2809 H   0  0  0  0  0  0
  -22.4120  -11.9927   22.4797 H   0  0  0  0  0  0
  -21.1166  -13.1363   22.2573 H   0  0  0  0  0  0
  -26.1388  -15.4921   19.7227 H   0  0  0  0  0  0
  -24.6115  -15.7518   20.3516 H   0  0  0  0  0  0
  -26.7148  -32.5485   23.1121 H   0  0  0  0  0  0
  -25.0072  -33.9748   25.0447 H   0  0  0  0  0  0
  -22.7039  -31.3074   21.4090 H   0  0  0  0  0  0
  -23.3750  -35.9645   23.3319 H   0  0  0  0  0  0
  -24.3582  -36.8904   22.2050 H   0  0  0  0  0  0
  -23.7255  -37.6519   23.6643 H   0  0  0  0  0  0
  -26.0721  -31.5709   20.6005 H   0  0  0  0  0  0
  -26.8331  -30.8579   21.9927 H   0  0  0  0  0  0
  -28.1084  -29.0263   21.1827 H   0  0  0  0  0  0
  -25.9798  -25.9512   19.0030 H   0  0  0  0  0  0
  -23.9692  -27.3080   19.0220 H   0  0  0  0  0  0
  -23.7273  -30.5968   19.4027 H   0  0  0  0  0  0
  -22.7440  -29.2437   19.8709 H   0  0  0  0  0  0
  -25.1296  -36.1962   25.0829 H   0  0  0  0  0  0
  -20.9975  -28.3253   24.1420 H   0  0  0  0  0  0
  -20.5679  -26.2288   23.3610 H   0  0  0  0  0  0
  -21.6643  -26.7448   22.1208 H   0  0  0  0  0  0
  -19.6914  -25.6297   21.1242 H   0  0  0  0  0  0
  -19.6694  -27.3194   20.6747 H   0  0  0  0  0  0
  -17.4207  -26.6679   21.4019 H   0  0  0  0  0  0
  -18.0322  -26.0065   22.9013 H   0  0  0  0  0  0
  -19.7935  -30.7266   24.2266 H   0  0  0  0  0  0
  -17.5014  -31.6266   24.5156 H   0  0  0  0  0  0
  -15.5348  -30.2980   23.7658 H   0  0  0  0  0  0
  -15.8673  -28.0821   22.7062 H   0  0  0  0  0  0
  -24.5905  -30.7067   25.7790 H   0  0  0  0  0  0
  -24.8918  -32.2886   26.4892 H   0  0  0  0  0  0
  -25.8068  -30.8897   27.0228 H   0  0  0  0  0  0
  -26.2865  -29.6790   24.1179 H   0  0  0  0  0  0
  -27.4042  -29.7268   25.4621 H   0  0  0  0  0  0
  -27.8726  -30.4326   23.9326 H   0  0  0  0  0  0
  -27.2678  -33.3612   26.2082 H   0  0  0  0  0  0
  -28.3852  -32.6890   25.0297 H   0  0  0  0  0  0
  -28.0744  -31.8430   26.5378 H   0  0  0  0  0  0
  -28.2615  -38.0092   24.7499 H   0  0  0  0  0  0
  -28.1063  -36.2624   24.6305 H   0  0  0  0  0  0
  -27.2298  -37.1483   25.8866 H   0  0  0  0  0  0
  -20.9333  -29.8751   21.6908 H   0  0  0  0  0  0
  -26.0191  -38.2868   24.1385 H   0  0  0  0  0  0
  -31.3059  -16.9274   18.9262 H   0  0  0  0  0  0
  -29.1573  -19.5874   21.5752 H   0  0  0  0  0  0
  -33.0807  -19.5818   17.1576 H   0  0  0  0  0  0
  -32.5934  -17.9128   17.1540 H   0  0  0  0  0  0
  -28.8183  -22.3155   19.4124 H   0  0  0  0  0  0
  -28.3813  -22.3880   21.1104 H   0  0  0  0  0  0
  -27.3192  -24.8156   20.6985 H   0  0  0  0  0  0
  -27.8372  -24.8596   19.0176 H   0  0  0  0  0  0
  -33.1493  -21.2739   18.2847 H   0  0  0  0  0  0
  -32.6595  -22.0736   19.6561 H   0  0  0  0  0  0
  -27.8261  -18.2185   21.1154 H   0  0  0  0  0  0
  -27.3827  -16.6193   21.5429 H   0  0  0  0  0  0
  -31.1736  -22.4282   20.4208 H   0  0  0  0  0  0
  -28.7664  -15.1476   21.3667 H   0  0  0  0  0  0
  -34.5798  -19.0579   18.9951 H   0  0  0  0  0  0
  -34.8975  -18.1422   17.6885 H   0  0  0  0  0  0
  -34.1191  -17.4920   18.9593 H   0  0  0  0  0  0
  1 25  1  0  0  0
  1 30  2  0  0  0
  1 85  1  0  0  0
  2  3  1  0  0  0
  2 25  1  0  0  0
  2 88  1  0  0  0
  2 89  1  0  0  0
  3  4  1  0  0  0
  3 90  1  0  0  0
  3 91  1  0  0  0
  4  5  1  0  0  0
  4 92  1  0  0  0
  4 93  1  0  0  0
  5  6  1  0  0  0
  5 26  1  0  0  0
  5 94  1  0  0  0
  6 25  1  0  0  0
  6 95  1  0  0  0
  6 96  1  0  0  0
  7  8  2  0  0  0
  7 26  1  0  0  0
  7 29  1  0  0  0
  8  9  1  0  0  0
  8 22  1  0  0  0
  9 10  1  0  0  0
  9 27  2  0  0  0
 10 11  2  0  0  0
 10 15  1  0  0  0
 11 12  1  0  0  0
 11 97  1  0  0  0
 12 13  2  0  0  0
 12 98  1  0  0  0
 13 14  1  0  0  0
 13 31  1  0  0  0
 14 15  2  0  0  0
 14 99  1  0  0  0
 15100  1  0  0  0
 16 17  2  0  0  0
 16 21  1  0  0  0
 16 31  1  0  0  0
 17 18  1  0  0  0
 17101  1  0  0  0
 18 19  2  0  0  0
 18102  1  0  0  0
 19 20  1  0  0  0
 19 24  1  0  0  0
 20 21  2  0  0  0
 20103  1  0  0  0
 21 23  1  0  0  0
 22 28  1  0  0  0
 22 32  2  0  0  0
 26 27  1  0  0  0
 28104  1  0  0  0
 28105  1  0  0  0
 29106  1  0  0  0
 29107  1  0  0  0
 33 34  1  0  0  0
 33 66  1  0  0  0
 33 70  2  0  0  0
 34 36  1  0  0  0
 34 59  1  0  0  0
 34108  1  0  0  0
 35 44  2  0  0  0
 35 45  1  0  0  0
 35 68  1  0  0  0
 36 56  1  0  0  0
 36109  1  0  0  0
 37 39  1  0  0  0
 37 47  1  0  0  0
 37 66  1  0  0  0
 37110  1  0  0  0
 38 43  2  0  0  0
 38 46  1  0  0  0
 38 47  1  0  0  0
 39 64  1  0  0  0
 39 67  2  0  0  0
 40 52  1  0  0  0
 40 53  2  0  0  0
 40 58  1  0  0  0
 41111  1  0  0  0
 41112  1  0  0  0
 41113  1  0  0  0
 41 48  1  0  0  0
 42 43  1  0  0  0
 42 66  1  0  0  0
 42114  1  0  0  0
 42115  1  0  0  0
 43 44  1  0  0  0
 44116  1  0  0  0
 45 46  2  0  0  0
 45117  1  0  0  0
 46118  1  0  0  0
 47119  1  0  0  0
 47120  1  0  0  0
 48 56  1  0  0  0
 48 65  1  0  0  0
 48121  1  0  0  0
 49 50  1  0  0  0
 49 53  1  0  0  0
 49 64  1  0  0  0
 49122  1  0  0  0
 50 51  1  0  0  0
 50123  1  0  0  0
 50124  1  0  0  0
 51 52  1  0  0  0
 51125  1  0  0  0
 51126  1  0  0  0
 52127  1  0  0  0
 52128  1  0  0  0
 53 54  1  0  0  0
 54 55  2  0  0  0
 54129  1  0  0  0
 55 57  1  0  0  0
 55130  1  0  0  0
 56 69  2  0  0  0
 57 58  2  0  0  0
 57131  1  0  0  0
 58132  1  0  0  0
 59 60  1  0  0  0
 59 61  1  0  0  0
 59 62  1  0  0  0
 60133  1  0  0  0
 60134  1  0  0  0
 60135  1  0  0  0
 61136  1  0  0  0
 61137  1  0  0  0
 61138  1  0  0  0
 62139  1  0  0  0
 62140  1  0  0  0
 62141  1  0  0  0
 63 65  1  0  0  0
 63142  1  0  0  0
 63143  1  0  0  0
 63144  1  0  0  0
 64145  1  0  0  0
 65146  1  0  0  0
 68 81  1  0  0  0
 71 73  2  0  0  0
 71 74  1  0  0  0
 71147  1  0  0  0
 72 73  1  0  0  0
 72 75  2  0  0  0
 72148  1  0  0  0
 73 77  1  0  0  0
 74 76  2  0  0  0
 74 79  1  0  0  0
 75 76  1  0  0  0
 75 84  1  0  0  0
 76 82  1  0  0  0
 77 83  1  0  0  0
 77 85  2  0  0  0
 78 80  1  0  0  0
 78 81  1  0  0  0
 78 87  2  0  0  0
 79 86  1  0  0  0
 79149  1  0  0  0
 79150  1  0  0  0
 80 84  1  0  0  0
 80151  1  0  0  0
 80152  1  0  0  0
 81153  1  0  0  0
 81154  1  0  0  0
 82155  1  0  0  0
 82156  1  0  0  0
 83157  1  0  0  0
 83158  1  0  0  0
 84159  1  0  0  0
 85160  1  0  0  0
 86161  1  0  0  0
 86162  1  0  0  0
 86163  1  0  0  0
M  CHG  2  85   1  86   1
M  ISO  4   1 100  68 101  81 101  85 100
M  END
> <chiral flag>
0

> <version>
0

> <s_m_source_file>
/data/baiqing/PycharmProjects/Reinvent-master-3.2/result/LINK_invent/BTK/process_docking_weight1_custom_product_contain_oxygen_bond_distance_aromatic_linkinvent_7_9_3/rearranged_h_0091.sdf

> <i_m_source_file_index>
68

> <r_mmod_Potential_Energy-OPLS-2005>
-536.016357421875

> <r_mmod_Stretch_Energy-OPLS-2005>
63.1575088500977

> <r_mmod_Bend_Energy-OPLS-2005>
176.368576049805

> <r_mmod_Torsional_Energy-OPLS-2005>
220.349655151367

> <r_mmod_Improper_Torsional_Energy-OPLS-2005>
20.4754829406738

> <r_mmod_Van_der_Waal_Energy-OPLS-2005>
157.708099365234

> <r_mmod_Electrostatic_Energy-OPLS-2005>
-209.767761230469

> <r_mmod_Solvation_Energy-OPLS-2005>
-1001.58892822266

> <b_mmod_Minimization_Converged-OPLS-2005>
0

> <r_mmod_RMS_Derivative-OPLS-2005>
2.53108739852905

$$$$
68
                    3D
 Structure written by MMmdl.
160169  0  0  1  0            999 V2000
  -30.7025  -14.4848   20.5544 C   0  0  0  0  0  0
  -30.4139  -12.3209   19.4168 C   0  0  0  0  0  0
  -29.4896  -12.5035   18.1967 C   0  0  0  0  0  0
  -28.0079  -12.3716   18.6064 C   0  0  0  0  0  0
  -27.6498  -13.2129   19.8609 C   0  0  2  0  0  0
  -28.6931  -13.0263   20.9846 C   0  0  0  0  0  0
  -25.2531  -13.8166   20.5631 C   0  0  0  0  0  0
  -24.1818  -13.0435   20.9204 C   0  0  0  0  0  0
  -24.6372  -11.6907   20.8737 C   0  0  0  0  0  0
  -23.9047  -10.4289   21.0401 C   0  0  0  0  0  0
  -24.3602   -9.4220   21.9185 C   0  0  0  0  0  0
  -23.6295   -8.2242   22.0745 C   0  0  0  0  0  0
  -22.4278   -8.0268   21.3537 C   0  0  0  0  0  0
  -21.9912   -9.0240   20.4642 C   0  0  0  0  0  0
  -22.7221  -10.2127   20.3058 C   0  0  0  0  0  0
  -21.6851   -6.0731   22.5279 C   0  0  0  0  0  0
  -21.4000   -6.5636   23.8214 C   0  0  0  0  0  0
  -21.3656   -5.6785   24.9175 C   0  0  0  0  0  0
  -21.6047   -4.3051   24.7227 C   0  0  0  0  0  0
  -21.8820   -3.8144   23.4348 C   0  0  0  0  0  0
  -21.9194   -4.6958   22.3404 C   0  0  0  0  0  0
  -22.7841  -13.5238   21.1863 C   0  0  0  0  0  0
  -22.1668   -4.2135   21.0983 F   0  0  0  0  0  0
  -21.5641   -3.4541   25.7751 F   0  0  0  0  0  0
  -30.0102  -13.3247   20.4128 N   0  0  0  0  0  0
  -26.2956  -12.9347   20.3266 N   0  0  0  0  0  0
  -25.9292  -11.6506   20.5721 N   0  0  0  0  0  0
  -22.0463  -12.8233   22.0413 N   0  0  0  0  0  0
  -25.4253  -15.1877   20.3945 N   0  0  0  0  0  0
  -31.8833  -14.5987   20.2070 O   0  0  0  0  0  0
  -21.6641   -6.8868   21.4242 O   0  0  0  0  0  0
  -22.3541  -14.5539   20.6689 O   0  0  0  0  0  0
  -24.6191  -31.8667   23.2101 C   0  0  0  0  0  0
  -25.9070  -32.4808   23.8404 C   0  0  1  0  0  0
  -27.2243  -27.4037   20.0771 C   0  0  0  0  0  0
  -25.5928  -33.8609   24.2327 N   0  0  0  0  0  0
  -23.4075  -30.4929   21.5521 C   0  0  2  0  0  0
  -24.8492  -28.9567   20.1155 C   0  0  0  0  0  0
  -22.7430  -29.4653   22.4982 C   0  0  0  0  0  0
  -18.0275  -28.1380   22.8501 C   0  0  0  0  0  0
  -24.1476  -36.7290   23.2645 C   0  0  0  0  0  0
  -25.9432  -30.8165   21.3730 C   0  0  0  0  0  0
  -26.0141  -29.4504   20.7150 C   0  0  0  0  0  0
  -27.2031  -28.6788   20.6988 C   0  0  0  0  0  0
  -26.0242  -26.9201   19.5070 C   0  0  0  0  0  0
  -24.8486  -27.6892   19.5146 C   0  0  0  0  0  0
  -23.6171  -29.8323   20.1651 C   0  0  0  0  0  0
  -25.4100  -36.3094   24.0344 C   0  0  1  0  0  0
  -20.5875  -28.3670   23.1309 C   0  0  2  0  0  0
  -20.6763  -26.9409   22.5410 C   0  0  0  0  0  0
  -19.5737  -26.6389   21.5210 C   0  0  0  0  0  0
  -18.1916  -26.7928   22.1624 C   0  0  0  0  0  0
  -19.1526  -28.8843   23.2897 C   0  0  0  0  0  0
  -18.9456  -30.1452   23.8899 C   0  0  0  0  0  0
  -17.6457  -30.6594   24.0558 C   0  0  0  0  0  0
  -25.9045  -34.9466   23.5124 C   0  0  0  0  0  0
  -16.5342  -29.9094   23.6330 C   0  0  0  0  0  0
  -16.7265  -28.6506   23.0358 C   0  0  0  0  0  0
  -26.4480  -31.6597   25.0747 C   0  0  0  0  0  0
  -25.3738  -31.3711   26.1491 C   0  0  0  0  0  0
  -27.0324  -30.3029   24.6174 C   0  0  0  0  0  0
  -27.6053  -32.4329   25.7511 C   0  0  0  0  0  0
  -27.5573  -37.1793   24.8463 C   0  0  0  0  0  0
  -21.4155  -29.3025   22.3711 N   0  0  0  0  0  0
  -26.4272  -37.3795   23.9431 N   0  0  0  0  0  0
  -24.6748  -31.0750   22.1012 N   0  0  0  0  0  0
  -23.4192  -28.8196   23.3033 O   0  0  0  0  0  0
  -28.3756  -26.6314   20.0778 O   0  0  0  0  0  0
  -26.5599  -34.8923   22.4683 O   0  0  0  0  0  0
  -23.5368  -32.1427   23.7471 O   0  0  0  0  0  0
  -29.2412  -18.4431   19.6550 C   0  0  0  0  0  0
  -29.9511  -19.2752   21.8267 C   0  0  0  0  0  0
  -28.9629  -19.7714   19.2470 C   0  0  0  0  0  0
  -29.6823  -20.6033   21.4127 C   0  0  0  0  0  0
  -30.1486  -23.8468   18.2542 C   0  0  0  0  0  0
  -29.8169  -18.1906   20.9211 C   0  0  0  0  0  0
  -29.1187  -24.4034   19.0669 C   0  0  0  0  0  0
  -29.2611  -20.8684   20.0908 C   0  0  0  0  0  0
  -28.6561  -23.3679   19.8653 C   0  0  0  0  0  0
  -30.2619  -22.5280   18.5547 C   0  0  0  0  0  0
  -30.4875  -16.8939   21.1941 C   0  0  0  0  0  0
  -27.5751  -23.3593   20.8986 C   0  0  0  0  0  0
  -28.6576  -25.8592   18.8918 C   0  0  0  0  0  0
  -29.3577  -22.1907   19.5458 N   0  0  0  0  0  0
  -29.9534  -15.6849   20.8746 N   0  0  0  0  0  0
  -31.7202  -16.9897   21.7121 N   0  3  0  0  0  0
  -31.1063  -21.6034   18.0167 O   0  0  0  0  0  0
  -31.4590  -12.4209   19.1161 H   0  0  0  0  0  0
  -30.3170  -11.3155   19.8297 H   0  0  0  0  0  0
  -29.7334  -11.7716   17.4247 H   0  0  0  0  0  0
  -29.6584  -13.4837   17.7469 H   0  0  0  0  0  0
  -27.8057  -11.3171   18.7941 H   0  0  0  0  0  0
  -27.3646  -12.6579   17.7731 H   0  0  0  0  0  0
  -27.6833  -14.2555   19.5460 H   0  0  0  0  0  0
  -28.6781  -12.0010   21.3579 H   0  0  0  0  0  0
  -28.4664  -13.6605   21.8432 H   0  0  0  0  0  0
  -25.2749   -9.5712   22.4753 H   0  0  0  0  0  0
  -24.0015   -7.4645   22.7461 H   0  0  0  0  0  0
  -21.0842   -8.8768   19.8957 H   0  0  0  0  0  0
  -22.3682  -10.9668   19.6169 H   0  0  0  0  0  0
  -21.1988   -7.6146   23.9702 H   0  0  0  0  0  0
  -21.1475   -6.0523   25.9073 H   0  0  0  0  0  0
  -22.0603   -2.7604   23.2841 H   0  0  0  0  0  0
  -22.4046  -11.9898   22.4830 H   0  0  0  0  0  0
  -21.1068  -13.1261   22.2576 H   0  0  0  0  0  0
  -24.6459  -15.8317   20.4803 H   0  0  0  0  0  0
  -26.2378  -15.6125   19.9673 H   0  0  0  0  0  0
  -26.7147  -32.5507   23.1164 H   0  0  0  0  0  0
  -25.0065  -33.9773   25.0463 H   0  0  0  0  0  0
  -22.6974  -31.3106   21.4156 H   0  0  0  0  0  0
  -23.3749  -35.9610   23.3298 H   0  0  0  0  0  0
  -24.3561  -36.8909   22.2060 H   0  0  0  0  0  0
  -23.7204  -37.6486   23.6658 H   0  0  0  0  0  0
  -26.0746  -31.5858   20.6108 H   0  0  0  0  0  0
  -26.8249  -30.8565   22.0012 H   0  0  0  0  0  0
  -28.1039  -29.0579   21.1608 H   0  0  0  0  0  0
  -25.9691  -25.9323   19.0736 H   0  0  0  0  0  0
  -23.9467  -27.2947   19.0664 H   0  0  0  0  0  0
  -23.7383  -30.6115   19.4118 H   0  0  0  0  0  0
  -22.7379  -29.2619   19.8611 H   0  0  0  0  0  0
  -25.1270  -36.1945   25.0833 H   0  0  0  0  0  0
  -20.9956  -28.3234   24.1434 H   0  0  0  0  0  0
  -20.5680  -26.2280   23.3596 H   0  0  0  0  0  0
  -21.6632  -26.7455   22.1196 H   0  0  0  0  0  0
  -19.6895  -25.6301   21.1243 H   0  0  0  0  0  0
  -19.6678  -27.3196   20.6740 H   0  0  0  0  0  0
  -17.4189  -26.6688   21.4023 H   0  0  0  0  0  0
  -18.0311  -26.0074   22.9025 H   0  0  0  0  0  0
  -19.7937  -30.7258   24.2276 H   0  0  0  0  0  0
  -17.5018  -31.6273   24.5165 H   0  0  0  0  0  0
  -15.5344  -30.2986   23.7659 H   0  0  0  0  0  0
  -15.8666  -28.0818   22.7061 H   0  0  0  0  0  0
  -24.5895  -30.7082   25.7811 H   0  0  0  0  0  0
  -24.8951  -32.2874   26.4964 H   0  0  0  0  0  0
  -25.8084  -30.8847   27.0234 H   0  0  0  0  0  0
  -26.2886  -29.6785   24.1212 H   0  0  0  0  0  0
  -27.4041  -29.7276   25.4663 H   0  0  0  0  0  0
  -27.8750  -30.4317   23.9374 H   0  0  0  0  0  0
  -27.2664  -33.3620   26.2109 H   0  0  0  0  0  0
  -28.3851  -32.6909   25.0331 H   0  0  0  0  0  0
  -28.0743  -31.8449   26.5409 H   0  0  0  0  0  0
  -28.2574  -38.0110   24.7540 H   0  0  0  0  0  0
  -28.1079  -36.2639   24.6234 H   0  0  0  0  0  0
  -27.2307  -37.1389   25.8871 H   0  0  0  0  0  0
  -20.9325  -29.8731   21.6907 H   0  0  0  0  0  0
  -26.0150  -38.2865   24.1451 H   0  0  0  0  0  0
  -29.1295  -17.6419   18.9380 H   0  0  0  0  0  0
  -30.3694  -19.1131   22.8108 H   0  0  0  0  0  0
  -28.6400  -19.9562   18.2318 H   0  0  0  0  0  0
  -29.9105  -21.4270   22.0741 H   0  0  0  0  0  0
  -30.7282  -24.3679   17.5050 H   0  0  0  0  0  0
  -27.0237  -24.2998   20.8978 H   0  0  0  0  0  0
  -27.9889  -23.2191   21.8973 H   0  0  0  0  0  0
  -26.8610  -22.5565   20.7129 H   0  0  0  0  0  0
  -27.8657  -25.8639   18.1437 H   0  0  0  0  0  0
  -29.4762  -26.3866   18.3998 H   0  0  0  0  0  0
  -28.9504  -15.6910   20.9244 H   0  0  0  0  0  0
  -32.1111  -17.9023   21.8877 H   0  0  0  0  0  0
  -32.3375  -16.1908   21.6818 H   0  0  0  0  0  0
  -31.6015  -22.0308   17.3247 H   0  0  0  0  0  0
  1 25  1  0  0  0
  1 30  2  0  0  0
  1 85  1  0  0  0
  2  3  1  0  0  0
  2 25  1  0  0  0
  2 88  1  0  0  0
  2 89  1  0  0  0
  3  4  1  0  0  0
  3 90  1  0  0  0
  3 91  1  0  0  0
  4  5  1  0  0  0
  4 92  1  0  0  0
  4 93  1  0  0  0
  5  6  1  0  0  0
  5 26  1  0  0  0
  5 94  1  0  0  0
  6 25  1  0  0  0
  6 95  1  0  0  0
  6 96  1  0  0  0
  7  8  2  0  0  0
  7 26  1  0  0  0
  7 29  1  0  0  0
  8  9  1  0  0  0
  8 22  1  0  0  0
  9 10  1  0  0  0
  9 27  2  0  0  0
 10 11  2  0  0  0
 10 15  1  0  0  0
 11 12  1  0  0  0
 11 97  1  0  0  0
 12 13  2  0  0  0
 12 98  1  0  0  0
 13 14  1  0  0  0
 13 31  1  0  0  0
 14 15  2  0  0  0
 14 99  1  0  0  0
 15100  1  0  0  0
 16 17  2  0  0  0
 16 21  1  0  0  0
 16 31  1  0  0  0
 17 18  1  0  0  0
 17101  1  0  0  0
 18 19  2  0  0  0
 18102  1  0  0  0
 19 20  1  0  0  0
 19 24  1  0  0  0
 20 21  2  0  0  0
 20103  1  0  0  0
 21 23  1  0  0  0
 22 28  1  0  0  0
 22 32  2  0  0  0
 26 27  1  0  0  0
 28104  1  0  0  0
 28105  1  0  0  0
 29106  1  0  0  0
 29107  1  0  0  0
 33 34  1  0  0  0
 33 66  1  0  0  0
 33 70  2  0  0  0
 34 36  1  0  0  0
 34 59  1  0  0  0
 34108  1  0  0  0
 35 44  2  0  0  0
 35 45  1  0  0  0
 35 68  1  0  0  0
 36 56  1  0  0  0
 36109  1  0  0  0
 37 39  1  0  0  0
 37 47  1  0  0  0
 37 66  1  0  0  0
 37110  1  0  0  0
 38 43  2  0  0  0
 38 46  1  0  0  0
 38 47  1  0  0  0
 39 64  1  0  0  0
 39 67  2  0  0  0
 40 52  1  0  0  0
 40 53  2  0  0  0
 40 58  1  0  0  0
 41111  1  0  0  0
 41112  1  0  0  0
 41113  1  0  0  0
 41 48  1  0  0  0
 42 43  1  0  0  0
 42 66  1  0  0  0
 42114  1  0  0  0
 42115  1  0  0  0
 43 44  1  0  0  0
 44116  1  0  0  0
 45 46  2  0  0  0
 45117  1  0  0  0
 46118  1  0  0  0
 47119  1  0  0  0
 47120  1  0  0  0
 48 56  1  0  0  0
 48 65  1  0  0  0
 48121  1  0  0  0
 49 50  1  0  0  0
 49 53  1  0  0  0
 49 64  1  0  0  0
 49122  1  0  0  0
 50 51  1  0  0  0
 50123  1  0  0  0
 50124  1  0  0  0
 51 52  1  0  0  0
 51125  1  0  0  0
 51126  1  0  0  0
 52127  1  0  0  0
 52128  1  0  0  0
 53 54  1  0  0  0
 54 55  2  0  0  0
 54129  1  0  0  0
 55 57  1  0  0  0
 55130  1  0  0  0
 56 69  2  0  0  0
 57 58  2  0  0  0
 57131  1  0  0  0
 58132  1  0  0  0
 59 60  1  0  0  0
 59 61  1  0  0  0
 59 62  1  0  0  0
 60133  1  0  0  0
 60134  1  0  0  0
 60135  1  0  0  0
 61136  1  0  0  0
 61137  1  0  0  0
 61138  1  0  0  0
 62139  1  0  0  0
 62140  1  0  0  0
 62141  1  0  0  0
 63 65  1  0  0  0
 63142  1  0  0  0
 63143  1  0  0  0
 63144  1  0  0  0
 64145  1  0  0  0
 65146  1  0  0  0
 68 83  1  0  0  0
 71 73  2  0  0  0
 71 76  1  0  0  0
 71147  1  0  0  0
 72 74  1  0  0  0
 72 76  2  0  0  0
 72148  1  0  0  0
 73 78  1  0  0  0
 73149  1  0  0  0
 74 78  2  0  0  0
 74150  1  0  0  0
 75 77  1  0  0  0
 75 80  2  0  0  0
 75151  1  0  0  0
 76 81  1  0  0  0
 77 79  2  0  0  0
 77 83  1  0  0  0
 78 84  1  0  0  0
 79 82  1  0  0  0
 79 84  1  0  0  0
 80 84  1  0  0  0
 80 87  1  0  0  0
 81 85  1  0  0  0
 81 86  2  0  0  0
 82152  1  0  0  0
 82153  1  0  0  0
 82154  1  0  0  0
 83155  1  0  0  0
 83156  1  0  0  0
 85157  1  0  0  0
 86158  1  0  0  0
 86159  1  0  0  0
 87160  1  0  0  0
M  CHG  1  86   1
M  ISO  4   1 100  68 101  83 101  85 100
M  END
> <chiral flag>
0

> <version>
0

> <s_m_source_file>
/data/baiqing/PycharmProjects/Reinvent-master-3.2/result/LINK_invent/BTK/process_docking_weight1_custom_product_contain_oxygen_bond_distance_aromatic_linkinvent_7_9_3/rearranged_h_0091.sdf

> <i_m_source_file_index>
69

> <r_mmod_Potential_Energy-OPLS-2005>
-179.826126098633

> <r_mmod_Stretch_Energy-OPLS-2005>
43.7390289306641

> <r_mmod_Bend_Energy-OPLS-2005>
116.096366882324

> <r_mmod_Torsional_Energy-OPLS-2005>
278.082458496094

> <r_mmod_Improper_Torsional_Energy-OPLS-2005>
10.6039381027222

> <r_mmod_Van_der_Waal_Energy-OPLS-2005>
154.362564086914

> <r_mmod_Electrostatic_Energy-OPLS-2005>
-378.741149902344

> <r_mmod_Solvation_Energy-OPLS-2005>
-425.118988037109

> <b_mmod_Minimization_Converged-OPLS-2005>
0

> <r_mmod_RMS_Derivative-OPLS-2005>
2.5626814365387

$$$$
69
                    3D
 Structure written by MMmdl.
158167  0  0  1  0            999 V2000
  -30.6424  -14.6244   20.4778 C   0  0  0  0  0  0
  -30.4320  -12.3736   19.4554 C   0  0  0  0  0  0
  -29.5130  -12.5051   18.2224 C   0  0  0  0  0  0
  -28.0331  -12.3483   18.6290 C   0  0  0  0  0  0
  -27.6533  -13.2187   19.8583 C   0  0  2  0  0  0
  -28.6984  -13.0808   20.9897 C   0  0  0  0  0  0
  -25.2570  -13.8178   20.5681 C   0  0  0  0  0  0
  -24.1831  -13.0444   20.9183 C   0  0  0  0  0  0
  -24.6400  -11.6920   20.8722 C   0  0  0  0  0  0
  -23.9060  -10.4299   21.0387 C   0  0  0  0  0  0
  -24.3615   -9.4216   21.9165 C   0  0  0  0  0  0
  -23.6293   -8.2258   22.0742 C   0  0  0  0  0  0
  -22.4268   -8.0291   21.3551 C   0  0  0  0  0  0
  -21.9902   -9.0261   20.4651 C   0  0  0  0  0  0
  -22.7230  -10.2144   20.3040 C   0  0  0  0  0  0
  -21.6860   -6.0728   22.5287 C   0  0  0  0  0  0
  -21.4020   -6.5628   23.8215 C   0  0  0  0  0  0
  -21.3656   -5.6782   24.9176 C   0  0  0  0  0  0
  -21.6043   -4.3040   24.7236 C   0  0  0  0  0  0
  -21.8816   -3.8130   23.4355 C   0  0  0  0  0  0
  -21.9195   -4.6951   22.3410 C   0  0  0  0  0  0
  -22.7849  -13.5238   21.1839 C   0  0  0  0  0  0
  -22.1663   -4.2128   21.0987 F   0  0  0  0  0  0
  -21.5632   -3.4528   25.7752 F   0  0  0  0  0  0
  -30.0149  -13.4076   20.4222 N   0  0  0  0  0  0
  -26.2995  -12.9365   20.3281 N   0  0  0  0  0  0
  -25.9329  -11.6511   20.5705 N   0  0  0  0  0  0
  -22.0477  -12.8248   22.0398 N   0  0  0  0  0  0
  -25.4276  -15.1906   20.4119 N   0  0  0  0  0  0
  -31.8143  -14.7375   20.1085 O   0  0  0  0  0  0
  -21.6639   -6.8882   21.4252 O   0  0  0  0  0  0
  -22.3531  -14.5536   20.6669 O   0  0  0  0  0  0
  -24.6271  -31.8601   23.2041 C   0  0  0  0  0  0
  -25.9128  -32.4763   23.8355 C   0  0  1  0  0  0
  -27.2226  -27.3323   20.0897 C   0  0  0  0  0  0
  -25.5949  -33.8564   24.2275 N   0  0  0  0  0  0
  -23.4172  -30.4862   21.5485 C   0  0  2  0  0  0
  -24.8587  -28.9436   20.1107 C   0  0  0  0  0  0
  -22.7472  -29.4623   22.4954 C   0  0  0  0  0  0
  -18.0287  -28.1384   22.8483 C   0  0  0  0  0  0
  -24.1482  -36.7279   23.2631 C   0  0  0  0  0  0
  -25.9584  -30.7925   21.3735 C   0  0  0  0  0  0
  -26.0297  -29.4224   20.7111 C   0  0  0  0  0  0
  -27.2114  -28.6248   20.6980 C   0  0  0  0  0  0
  -26.0123  -26.8866   19.5098 C   0  0  0  0  0  0
  -24.8504  -27.6785   19.5076 C   0  0  0  0  0  0
  -23.6288  -29.8251   20.1619 C   0  0  0  0  0  0
  -25.4097  -36.3067   24.0336 C   0  0  1  0  0  0
  -20.5888  -28.3686   23.1290 C   0  0  2  0  0  0
  -20.6770  -26.9409   22.5417 C   0  0  0  0  0  0
  -19.5745  -26.6382   21.5209 C   0  0  0  0  0  0
  -18.1925  -26.7934   22.1611 C   0  0  0  0  0  0
  -19.1539  -28.8854   23.2879 C   0  0  0  0  0  0
  -18.9457  -30.1463   23.8886 C   0  0  0  0  0  0
  -17.6453  -30.6587   24.0558 C   0  0  0  0  0  0
  -25.9043  -34.9445   23.5093 C   0  0  0  0  0  0
  -16.5345  -29.9080   23.6332 C   0  0  0  0  0  0
  -16.7274  -28.6500   23.0353 C   0  0  0  0  0  0
  -26.4514  -31.6581   25.0734 C   0  0  0  0  0  0
  -25.3748  -31.3769   26.1484 C   0  0  0  0  0  0
  -27.0309  -30.2973   24.6210 C   0  0  0  0  0  0
  -27.6086  -32.4312   25.7496 C   0  0  0  0  0  0
  -27.5596  -37.1754   24.8430 C   0  0  0  0  0  0
  -21.4189  -29.3034   22.3693 N   0  0  0  0  0  0
  -26.4256  -37.3781   23.9449 N   0  0  0  0  0  0
  -24.6862  -31.0635   22.0984 N   0  0  0  0  0  0
  -23.4205  -28.8148   23.3014 O   0  0  0  0  0  0
  -28.3546  -26.5048   20.1288 O   0  0  0  0  0  0
  -26.5595  -34.8930   22.4650 O   0  0  0  0  0  0
  -23.5444  -32.1398   23.7376 O   0  0  0  0  0  0
  -30.9119  -19.2809   20.3403 C   0  0  0  0  0  0
  -31.1477  -17.8605   20.4447 C   0  0  0  0  0  0
  -29.5932  -19.6814   20.4153 C   0  0  0  0  0  0
  -30.0202  -17.0807   20.6191 C   0  0  0  0  0  0
  -29.1005  -23.4466   20.6883 C   0  0  0  0  0  0
  -28.8624  -23.9795   19.4565 C   0  0  0  0  0  0
  -29.6031  -22.0667   20.9728 C   0  0  0  0  0  0
  -29.0276  -23.1020   18.2169 C   0  0  0  0  0  0
  -28.0826  -21.8791   18.1795 C   0  0  0  0  0  0
  -27.8390  -21.1632   19.5260 C   0  0  0  0  0  0
  -28.5515  -25.4795   19.0972 C   0  0  0  0  0  0
  -29.0738  -20.9764   20.3066 N   0  0  0  0  0  0
  -32.4566  -17.3805   20.3696 N   0  0  0  0  0  0
  -29.8485  -15.7044   20.7683 N   0  0  0  0  0  0
  -30.4906  -21.9071   21.8167 O   0  0  0  0  0  0
  -28.6370  -18.1980   20.6533 S   0  0  0  0  0  0
  -31.4778  -12.4731   19.1597 H   0  0  0  0  0  0
  -30.3415  -11.3810   19.8976 H   0  0  0  0  0  0
  -29.7810  -11.7623   17.4698 H   0  0  0  0  0  0
  -29.6678  -13.4788   17.7546 H   0  0  0  0  0  0
  -27.8641  -11.2958   18.8570 H   0  0  0  0  0  0
  -27.3857  -12.5851   17.7840 H   0  0  0  0  0  0
  -27.6712  -14.2525   19.5138 H   0  0  0  0  0  0
  -28.7016  -12.0639   21.3853 H   0  0  0  0  0  0
  -28.4495  -13.7291   21.8309 H   0  0  0  0  0  0
  -25.2772   -9.5699   22.4721 H   0  0  0  0  0  0
  -24.0012   -7.4648   22.7451 H   0  0  0  0  0  0
  -21.0827   -8.8775   19.8971 H   0  0  0  0  0  0
  -22.3676  -10.9670   19.6133 H   0  0  0  0  0  0
  -21.2008   -7.6134   23.9706 H   0  0  0  0  0  0
  -21.1480   -6.0513   25.9077 H   0  0  0  0  0  0
  -22.0592   -2.7597   23.2856 H   0  0  0  0  0  0
  -22.4055  -11.9931   22.4853 H   0  0  0  0  0  0
  -21.1085  -13.1296   22.2556 H   0  0  0  0  0  0
  -24.6609  -15.8449   20.5272 H   0  0  0  0  0  0
  -26.2737  -15.6341   20.0789 H   0  0  0  0  0  0
  -26.7198  -32.5425   23.1102 H   0  0  0  0  0  0
  -25.0142  -33.9696   25.0457 H   0  0  0  0  0  0
  -22.7100  -31.3067   21.4109 H   0  0  0  0  0  0
  -23.3773  -35.9570   23.3201 H   0  0  0  0  0  0
  -24.3610  -36.8987   22.2066 H   0  0  0  0  0  0
  -23.7196  -37.6447   23.6697 H   0  0  0  0  0  0
  -26.0962  -31.5601   20.6104 H   0  0  0  0  0  0
  -26.8369  -30.8328   22.0061 H   0  0  0  0  0  0
  -28.1128  -28.9886   21.1709 H   0  0  0  0  0  0
  -25.9145  -25.8966   19.0904 H   0  0  0  0  0  0
  -23.9442  -27.2930   19.0601 H   0  0  0  0  0  0
  -23.7473  -30.6026   19.4062 H   0  0  0  0  0  0
  -22.7466  -29.2573   19.8600 H   0  0  0  0  0  0
  -25.1261  -36.1890   25.0821 H   0  0  0  0  0  0
  -20.9980  -28.3265   24.1413 H   0  0  0  0  0  0
  -20.5665  -26.2292   23.3615 H   0  0  0  0  0  0
  -21.6649  -26.7444   22.1217 H   0  0  0  0  0  0
  -19.6895  -25.6289   21.1247 H   0  0  0  0  0  0
  -19.6686  -27.3185   20.6727 H   0  0  0  0  0  0
  -17.4210  -26.6720   21.3999 H   0  0  0  0  0  0
  -18.0293  -26.0076   22.8998 H   0  0  0  0  0  0
  -19.7937  -30.7282   24.2249 H   0  0  0  0  0  0
  -17.5009  -31.6269   24.5161 H   0  0  0  0  0  0
  -15.5339  -30.2963   23.7660 H   0  0  0  0  0  0
  -15.8688  -28.0797   22.7068 H   0  0  0  0  0  0
  -24.5896  -30.7132   25.7858 H   0  0  0  0  0  0
  -24.8975  -32.2956   26.4894 H   0  0  0  0  0  0
  -25.8082  -30.8984   27.0271 H   0  0  0  0  0  0
  -26.2858  -29.6766   24.1223 H   0  0  0  0  0  0
  -27.3951  -29.7215   25.4731 H   0  0  0  0  0  0
  -27.8769  -30.4211   23.9443 H   0  0  0  0  0  0
  -27.2706  -33.3627   26.2047 H   0  0  0  0  0  0
  -28.3904  -32.6847   25.0324 H   0  0  0  0  0  0
  -28.0739  -31.8452   26.5434 H   0  0  0  0  0  0
  -28.2507  -38.0153   24.7635 H   0  0  0  0  0  0
  -28.1193  -36.2698   24.6018 H   0  0  0  0  0  0
  -27.2366  -37.1168   25.8839 H   0  0  0  0  0  0
  -20.9361  -29.8764   21.6916 H   0  0  0  0  0  0
  -26.0124  -38.2831   24.1541 H   0  0  0  0  0  0
  -31.7286  -19.9745   20.1988 H   0  0  0  0  0  0
  -29.0234  -24.1140   21.5342 H   0  0  0  0  0  0
  -30.0647  -22.7679   18.1789 H   0  0  0  0  0  0
  -28.8880  -23.6892   17.3076 H   0  0  0  0  0  0
  -28.4768  -21.1584   17.4600 H   0  0  0  0  0  0
  -27.1149  -22.1865   17.7802 H   0  0  0  0  0  0
  -27.3336  -20.2168   19.3314 H   0  0  0  0  0  0
  -27.1206  -21.7321   20.1187 H   0  0  0  0  0  0
  -27.7786  -25.4856   18.3328 H   0  0  0  0  0  0
  -29.4289  -25.8254   18.5507 H   0  0  0  0  0  0
  -33.0839  -17.8854   19.7535 H   0  0  0  0  0  0
  -32.4940  -16.3689   20.2021 H   0  0  0  0  0  0
  -28.9102  -15.4316   21.0162 H   0  0  0  0  0  0
  1 25  1  0  0  0
  1 30  2  0  0  0
  1 84  1  0  0  0
  2  3  1  0  0  0
  2 25  1  0  0  0
  2 87  1  0  0  0
  2 88  1  0  0  0
  3  4  1  0  0  0
  3 89  1  0  0  0
  3 90  1  0  0  0
  4  5  1  0  0  0
  4 91  1  0  0  0
  4 92  1  0  0  0
  5  6  1  0  0  0
  5 26  1  0  0  0
  5 93  1  0  0  0
  6 25  1  0  0  0
  6 94  1  0  0  0
  6 95  1  0  0  0
  7  8  2  0  0  0
  7 26  1  0  0  0
  7 29  1  0  0  0
  8  9  1  0  0  0
  8 22  1  0  0  0
  9 10  1  0  0  0
  9 27  2  0  0  0
 10 11  2  0  0  0
 10 15  1  0  0  0
 11 12  1  0  0  0
 11 96  1  0  0  0
 12 13  2  0  0  0
 12 97  1  0  0  0
 13 14  1  0  0  0
 13 31  1  0  0  0
 14 15  2  0  0  0
 14 98  1  0  0  0
 15 99  1  0  0  0
 16 17  2  0  0  0
 16 21  1  0  0  0
 16 31  1  0  0  0
 17 18  1  0  0  0
 17100  1  0  0  0
 18 19  2  0  0  0
 18101  1  0  0  0
 19 20  1  0  0  0
 19 24  1  0  0  0
 20 21  2  0  0  0
 20102  1  0  0  0
 21 23  1  0  0  0
 22 28  1  0  0  0
 22 32  2  0  0  0
 26 27  1  0  0  0
 28103  1  0  0  0
 28104  1  0  0  0
 29105  1  0  0  0
 29106  1  0  0  0
 33 34  1  0  0  0
 33 66  1  0  0  0
 33 70  2  0  0  0
 34 36  1  0  0  0
 34 59  1  0  0  0
 34107  1  0  0  0
 35 44  2  0  0  0
 35 45  1  0  0  0
 35 68  1  0  0  0
 36 56  1  0  0  0
 36108  1  0  0  0
 37 39  1  0  0  0
 37 47  1  0  0  0
 37 66  1  0  0  0
 37109  1  0  0  0
 38 43  2  0  0  0
 38 46  1  0  0  0
 38 47  1  0  0  0
 39 64  1  0  0  0
 39 67  2  0  0  0
 40 52  1  0  0  0
 40 53  2  0  0  0
 40 58  1  0  0  0
 41110  1  0  0  0
 41111  1  0  0  0
 41112  1  0  0  0
 41 48  1  0  0  0
 42 43  1  0  0  0
 42 66  1  0  0  0
 42113  1  0  0  0
 42114  1  0  0  0
 43 44  1  0  0  0
 44115  1  0  0  0
 45 46  2  0  0  0
 45116  1  0  0  0
 46117  1  0  0  0
 47118  1  0  0  0
 47119  1  0  0  0
 48 56  1  0  0  0
 48 65  1  0  0  0
 48120  1  0  0  0
 49 50  1  0  0  0
 49 53  1  0  0  0
 49 64  1  0  0  0
 49121  1  0  0  0
 50 51  1  0  0  0
 50122  1  0  0  0
 50123  1  0  0  0
 51 52  1  0  0  0
 51124  1  0  0  0
 51125  1  0  0  0
 52126  1  0  0  0
 52127  1  0  0  0
 53 54  1  0  0  0
 54 55  2  0  0  0
 54128  1  0  0  0
 55 57  1  0  0  0
 55129  1  0  0  0
 56 69  2  0  0  0
 57 58  2  0  0  0
 57130  1  0  0  0
 58131  1  0  0  0
 59 60  1  0  0  0
 59 61  1  0  0  0
 59 62  1  0  0  0
 60132  1  0  0  0
 60133  1  0  0  0
 60134  1  0  0  0
 61135  1  0  0  0
 61136  1  0  0  0
 61137  1  0  0  0
 62138  1  0  0  0
 62139  1  0  0  0
 62140  1  0  0  0
 63 65  1  0  0  0
 63141  1  0  0  0
 63142  1  0  0  0
 63143  1  0  0  0
 64144  1  0  0  0
 65145  1  0  0  0
 68 81  1  0  0  0
 71 72  1  0  0  0
 71 73  2  0  0  0
 71146  1  0  0  0
 72 74  2  0  0  0
 72 83  1  0  0  0
 73 82  1  0  0  0
 73 86  1  0  0  0
 74 84  1  0  0  0
 74 86  1  0  0  0
 75 76  2  0  0  0
 75 77  1  0  0  0
 75147  1  0  0  0
 76 78  1  0  0  0
 76 81  1  0  0  0
 77 82  1  0  0  0
 77 85  2  0  0  0
 78 79  1  0  0  0
 78148  1  0  0  0
 78149  1  0  0  0
 79 80  1  0  0  0
 79150  1  0  0  0
 79151  1  0  0  0
 80 82  1  0  0  0
 80152  1  0  0  0
 80153  1  0  0  0
 81154  1  0  0  0
 81155  1  0  0  0
 83156  1  0  0  0
 83157  1  0  0  0
 84158  1  0  0  0
M  ISO  4   1 100  68 101  81 101  84 100
M  END
> <chiral flag>
0

> <version>
0

> <s_m_source_file>
/data/baiqing/PycharmProjects/Reinvent-master-3.2/result/LINK_invent/BTK/process_docking_weight1_custom_product_contain_oxygen_bond_distance_aromatic_linkinvent_7_9_3/rearranged_h_0091.sdf

> <i_m_source_file_index>
70

> <r_mmod_Potential_Energy-OPLS-2005>
60.7503509521484

> <r_mmod_Stretch_Energy-OPLS-2005>
76.7771911621094

> <r_mmod_Bend_Energy-OPLS-2005>
167.97834777832

> <r_mmod_Torsional_Energy-OPLS-2005>
294.045318603516

> <r_mmod_Improper_Torsional_Energy-OPLS-2005>
9.94551849365234

> <r_mmod_Van_der_Waal_Energy-OPLS-2005>
155.322250366211

> <r_mmod_Electrostatic_Energy-OPLS-2005>
-465.239318847656

> <r_mmod_Solvation_Energy-OPLS-2005>
-221.449066162109

> <b_mmod_Minimization_Converged-OPLS-2005>
0

> <r_mmod_RMS_Derivative-OPLS-2005>
2.18034672737122

$$$$
70
                    3D
 Structure written by MMmdl.
147155  0  0  1  0            999 V2000
  -30.5624  -14.8140   20.4388 C   0  0  0  0  0  0
  -30.4445  -12.4967   19.4721 C   0  0  0  0  0  0
  -29.5150  -12.5073   18.2369 C   0  0  0  0  0  0
  -28.0431  -12.3171   18.6554 C   0  0  0  0  0  0
  -27.6385  -13.2288   19.8439 C   0  0  2  0  0  0
  -28.6855  -13.1848   20.9773 C   0  0  0  0  0  0
  -25.2507  -13.8183   20.5693 C   0  0  0  0  0  0
  -24.1801  -13.0431   20.9215 C   0  0  0  0  0  0
  -24.6390  -11.6909   20.8752 C   0  0  0  0  0  0
  -23.9066  -10.4289   21.0411 C   0  0  0  0  0  0
  -24.3619   -9.4204   21.9186 C   0  0  0  0  0  0
  -23.6291   -8.2242   22.0756 C   0  0  0  0  0  0
  -22.4273   -8.0282   21.3547 C   0  0  0  0  0  0
  -21.9909   -9.0255   20.4649 C   0  0  0  0  0  0
  -22.7239  -10.2133   20.3058 C   0  0  0  0  0  0
  -21.6852   -6.0733   22.5278 C   0  0  0  0  0  0
  -21.4014   -6.5638   23.8211 C   0  0  0  0  0  0
  -21.3659   -5.6790   24.9173 C   0  0  0  0  0  0
  -21.6044   -4.3053   24.7224 C   0  0  0  0  0  0
  -21.8820   -3.8145   23.4345 C   0  0  0  0  0  0
  -21.9192   -4.6962   22.3401 C   0  0  0  0  0  0
  -22.7825  -13.5218   21.1873 C   0  0  0  0  0  0
  -22.1662   -4.2148   21.0978 F   0  0  0  0  0  0
  -21.5628   -3.4537   25.7736 F   0  0  0  0  0  0
  -29.9758  -13.5641   20.3873 N   0  0  0  0  0  0
  -26.2923  -12.9381   20.3255 N   0  0  0  0  0  0
  -25.9318  -11.6529   20.5743 N   0  0  0  0  0  0
  -22.0470  -12.8212   22.0430 N   0  0  0  0  0  0
  -25.4175  -15.1912   20.4104 N   0  0  0  0  0  0
  -31.7669  -14.9248   20.1864 O   0  0  0  0  0  0
  -21.6640   -6.8878   21.4240 O   0  0  0  0  0  0
  -22.3510  -14.5521   20.6711 O   0  0  0  0  0  0
  -24.6344  -31.8509   23.1932 C   0  0  0  0  0  0
  -25.9151  -32.4731   23.8298 C   0  0  1  0  0  0
  -27.2268  -27.2264   20.1475 C   0  0  0  0  0  0
  -25.5930  -33.8534   24.2222 N   0  0  0  0  0  0
  -23.4340  -30.4695   21.5371 C   0  0  2  0  0  0
  -24.8838  -28.9011   20.1180 C   0  0  0  0  0  0
  -22.7518  -29.4578   22.4901 C   0  0  0  0  0  0
  -18.0294  -28.1391   22.8481 C   0  0  0  0  0  0
  -24.1490  -36.7274   23.2641 C   0  0  0  0  0  0
  -25.9815  -30.7540   21.3765 C   0  0  0  0  0  0
  -26.0567  -29.3701   20.7242 C   0  0  0  0  0  0
  -27.2338  -28.5484   20.7189 C   0  0  0  0  0  0
  -26.0299  -26.8229   19.5232 C   0  0  0  0  0  0
  -24.8767  -27.6367   19.5051 C   0  0  0  0  0  0
  -23.6561  -29.7943   20.1575 C   0  0  0  0  0  0
  -25.4118  -36.3055   24.0322 C   0  0  1  0  0  0
  -20.5900  -28.3705   23.1262 C   0  0  2  0  0  0
  -20.6782  -26.9419   22.5409 C   0  0  0  0  0  0
  -19.5757  -26.6382   21.5214 C   0  0  0  0  0  0
  -18.1938  -26.7930   22.1624 C   0  0  0  0  0  0
  -19.1548  -28.8865   23.2864 C   0  0  0  0  0  0
  -18.9469  -30.1465   23.8884 C   0  0  0  0  0  0
  -17.6467  -30.6590   24.0561 C   0  0  0  0  0  0
  -25.9061  -34.9427   23.5079 C   0  0  0  0  0  0
  -16.5358  -29.9086   23.6333 C   0  0  0  0  0  0
  -16.7279  -28.6505   23.0353 C   0  0  0  0  0  0
  -26.4509  -31.6574   25.0706 C   0  0  0  0  0  0
  -25.3722  -31.3734   26.1420 C   0  0  0  0  0  0
  -27.0370  -30.2986   24.6223 C   0  0  0  0  0  0
  -27.6046  -32.4332   25.7489 C   0  0  0  0  0  0
  -27.5579  -37.1786   24.8462 C   0  0  0  0  0  0
  -21.4222  -29.3043   22.3644 N   0  0  0  0  0  0
  -26.4287  -37.3760   23.9412 N   0  0  0  0  0  0
  -24.7025  -31.0442   22.0919 N   0  0  0  0  0  0
  -23.4199  -28.8130   23.3025 O   0  0  0  0  0  0
  -28.3266  -26.3308   20.1287 O   0  0  0  0  0  0
  -26.5644  -34.8913   22.4656 O   0  0  0  0  0  0
  -23.5484  -32.1343   23.7209 O   0  0  0  0  0  0
  -29.0416  -18.3743   20.0945 C   0  0  0  0  0  0
  -30.6783  -19.7647   20.9391 C   0  0  0  0  0  0
  -29.4631  -19.7849   20.2968 C   0  0  0  0  0  0
  -29.8959  -17.3296   20.5262 C   0  0  0  0  0  0
  -28.7719  -21.0978   19.7290 C   0  0  0  0  0  0
  -28.4468  -23.6205   19.8197 C   0  0  0  0  0  0
  -28.2168  -24.9374   20.7329 C   0  0  0  0  0  0
  -29.7102  -15.9237   20.4996 N   0  0  0  0  0  0
  -28.8406  -22.3644   20.3275 N   0  0  0  0  0  0
  -28.1152  -20.9390   18.6951 O   0  0  0  0  0  0
  -28.2288  -23.7808   18.6130 O   0  0  0  0  0  0
  -31.2912  -18.1266   21.2335 S   0  0  0  0  0  0
  -31.4801  -12.6493   19.1636 H   0  0  0  0  0  0
  -30.4184  -11.5264   19.9708 H   0  0  0  0  0  0
  -29.8085  -11.7239   17.5367 H   0  0  0  0  0  0
  -29.6252  -13.4522   17.7025 H   0  0  0  0  0  0
  -27.9155  -11.2709   18.9361 H   0  0  0  0  0  0
  -27.3816  -12.4853   17.8047 H   0  0  0  0  0  0
  -27.6221  -14.2432   19.4455 H   0  0  0  0  0  0
  -28.7406  -12.1891   21.4199 H   0  0  0  0  0  0
  -28.4110  -13.8649   21.7854 H   0  0  0  0  0  0
  -25.2764   -9.5677   22.4760 H   0  0  0  0  0  0
  -23.9997   -7.4631   22.7475 H   0  0  0  0  0  0
  -21.0840   -8.8775   19.8955 H   0  0  0  0  0  0
  -22.3698  -10.9673   19.6169 H   0  0  0  0  0  0
  -21.2008   -7.6145   23.9713 H   0  0  0  0  0  0
  -21.1480   -6.0521   25.9075 H   0  0  0  0  0  0
  -22.0600   -2.7607   23.2846 H   0  0  0  0  0  0
  -22.4084  -11.9874   22.4823 H   0  0  0  0  0  0
  -21.1090  -13.1243   22.2639 H   0  0  0  0  0  0
  -24.6436  -15.8377   20.5198 H   0  0  0  0  0  0
  -26.2507  -15.6350   20.0485 H   0  0  0  0  0  0
  -26.7217  -32.5374   23.1036 H   0  0  0  0  0  0
  -25.0057  -33.9661   25.0355 H   0  0  0  0  0  0
  -22.7323  -31.2921   21.3843 H   0  0  0  0  0  0
  -23.3753  -35.9606   23.3298 H   0  0  0  0  0  0
  -24.3578  -36.8908   22.2057 H   0  0  0  0  0  0
  -23.7244  -37.6471   23.6676 H   0  0  0  0  0  0
  -26.1231  -31.5107   20.6036 H   0  0  0  0  0  0
  -26.8573  -30.8068   22.0118 H   0  0  0  0  0  0
  -28.1373  -28.9096   21.1900 H   0  0  0  0  0  0
  -25.9835  -25.8520   19.0500 H   0  0  0  0  0  0
  -23.9790  -27.2716   19.0253 H   0  0  0  0  0  0
  -23.7858  -30.5658   19.3976 H   0  0  0  0  0  0
  -22.7738  -29.2289   19.8521 H   0  0  0  0  0  0
  -25.1303  -36.1891   25.0814 H   0  0  0  0  0  0
  -20.9990  -28.3289   24.1383 H   0  0  0  0  0  0
  -20.5682  -26.2316   23.3618 H   0  0  0  0  0  0
  -21.6649  -26.7439   22.1203 H   0  0  0  0  0  0
  -19.6920  -25.6290   21.1251 H   0  0  0  0  0  0
  -19.6696  -27.3186   20.6739 H   0  0  0  0  0  0
  -17.4206  -26.6670   21.4030 H   0  0  0  0  0  0
  -18.0341  -26.0078   22.9028 H   0  0  0  0  0  0
  -19.7945  -30.7285   24.2247 H   0  0  0  0  0  0
  -17.5021  -31.6269   24.5165 H   0  0  0  0  0  0
  -15.5358  -30.2984   23.7666 H   0  0  0  0  0  0
  -15.8679  -28.0820   22.7075 H   0  0  0  0  0  0
  -24.5902  -30.7079   25.7747 H   0  0  0  0  0  0
  -24.8911  -32.2908   26.4821 H   0  0  0  0  0  0
  -25.8032  -30.8927   27.0211 H   0  0  0  0  0  0
  -26.2967  -29.6716   24.1240 H   0  0  0  0  0  0
  -27.4031  -29.7269   25.4761 H   0  0  0  0  0  0
  -27.8850  -30.4251   23.9490 H   0  0  0  0  0  0
  -27.2633  -33.3632   26.2049 H   0  0  0  0  0  0
  -28.3866  -32.6897   25.0330 H   0  0  0  0  0  0
  -28.0706  -31.8475   26.5423 H   0  0  0  0  0  0
  -28.2581  -38.0099   24.7528 H   0  0  0  0  0  0
  -28.1092  -36.2630   24.6265 H   0  0  0  0  0  0
  -27.2299  -37.1403   25.8865 H   0  0  0  0  0  0
  -20.9420  -29.8748   21.6825 H   0  0  0  0  0  0
  -26.0160  -38.2828   24.1427 H   0  0  0  0  0  0
  -28.1024  -18.1828   19.5940 H   0  0  0  0  0  0
  -31.2906  -20.6159   21.2118 H   0  0  0  0  0  0
  -28.9398  -24.8906   21.5469 H   0  0  0  0  0  0
  -27.2412  -24.8309   21.2084 H   0  0  0  0  0  0
  -28.7426  -15.6431   20.5051 H   0  0  0  0  0  0
  -29.1952  -22.3646   21.2705 H   0  0  0  0  0  0
  1 25  1  0  0  0
  1 30  2  0  0  0
  1 78  1  0  0  0
  2  3  1  0  0  0
  2 25  1  0  0  0
  2 83  1  0  0  0
  2 84  1  0  0  0
  3  4  1  0  0  0
  3 85  1  0  0  0
  3 86  1  0  0  0
  4  5  1  0  0  0
  4 87  1  0  0  0
  4 88  1  0  0  0
  5  6  1  0  0  0
  5 26  1  0  0  0
  5 89  1  0  0  0
  6 25  1  0  0  0
  6 90  1  0  0  0
  6 91  1  0  0  0
  7  8  2  0  0  0
  7 26  1  0  0  0
  7 29  1  0  0  0
  8  9  1  0  0  0
  8 22  1  0  0  0
  9 10  1  0  0  0
  9 27  2  0  0  0
 10 11  2  0  0  0
 10 15  1  0  0  0
 11 12  1  0  0  0
 11 92  1  0  0  0
 12 13  2  0  0  0
 12 93  1  0  0  0
 13 14  1  0  0  0
 13 31  1  0  0  0
 14 15  2  0  0  0
 14 94  1  0  0  0
 15 95  1  0  0  0
 16 17  2  0  0  0
 16 21  1  0  0  0
 16 31  1  0  0  0
 17 18  1  0  0  0
 17 96  1  0  0  0
 18 19  2  0  0  0
 18 97  1  0  0  0
 19 20  1  0  0  0
 19 24  1  0  0  0
 20 21  2  0  0  0
 20 98  1  0  0  0
 21 23  1  0  0  0
 22 28  1  0  0  0
 22 32  2  0  0  0
 26 27  1  0  0  0
 28 99  1  0  0  0
 28100  1  0  0  0
 29101  1  0  0  0
 29102  1  0  0  0
 33 34  1  0  0  0
 33 66  1  0  0  0
 33 70  2  0  0  0
 34 36  1  0  0  0
 34 59  1  0  0  0
 34103  1  0  0  0
 35 44  2  0  0  0
 35 45  1  0  0  0
 35 68  1  0  0  0
 36 56  1  0  0  0
 36104  1  0  0  0
 37 39  1  0  0  0
 37 47  1  0  0  0
 37 66  1  0  0  0
 37105  1  0  0  0
 38 43  2  0  0  0
 38 46  1  0  0  0
 38 47  1  0  0  0
 39 64  1  0  0  0
 39 67  2  0  0  0
 40 52  1  0  0  0
 40 53  2  0  0  0
 40 58  1  0  0  0
 41106  1  0  0  0
 41107  1  0  0  0
 41108  1  0  0  0
 41 48  1  0  0  0
 42 43  1  0  0  0
 42 66  1  0  0  0
 42109  1  0  0  0
 42110  1  0  0  0
 43 44  1  0  0  0
 44111  1  0  0  0
 45 46  2  0  0  0
 45112  1  0  0  0
 46113  1  0  0  0
 47114  1  0  0  0
 47115  1  0  0  0
 48 56  1  0  0  0
 48 65  1  0  0  0
 48116  1  0  0  0
 49 50  1  0  0  0
 49 53  1  0  0  0
 49 64  1  0  0  0
 49117  1  0  0  0
 50 51  1  0  0  0
 50118  1  0  0  0
 50119  1  0  0  0
 51 52  1  0  0  0
 51120  1  0  0  0
 51121  1  0  0  0
 52122  1  0  0  0
 52123  1  0  0  0
 53 54  1  0  0  0
 54 55  2  0  0  0
 54124  1  0  0  0
 55 57  1  0  0  0
 55125  1  0  0  0
 56 69  2  0  0  0
 57 58  2  0  0  0
 57126  1  0  0  0
 58127  1  0  0  0
 59 60  1  0  0  0
 59 61  1  0  0  0
 59 62  1  0  0  0
 60128  1  0  0  0
 60129  1  0  0  0
 60130  1  0  0  0
 61131  1  0  0  0
 61132  1  0  0  0
 61133  1  0  0  0
 62134  1  0  0  0
 62135  1  0  0  0
 62136  1  0  0  0
 63 65  1  0  0  0
 63137  1  0  0  0
 63138  1  0  0  0
 63139  1  0  0  0
 64140  1  0  0  0
 65141  1  0  0  0
 68 77  1  0  0  0
 71 73  1  0  0  0
 71 74  2  0  0  0
 71142  1  0  0  0
 72 73  2  0  0  0
 72 82  1  0  0  0
 72143  1  0  0  0
 73 75  1  0  0  0
 74 78  1  0  0  0
 74 82  1  0  0  0
 75 79  1  0  0  0
 75 80  2  0  0  0
 76 77  1  0  0  0
 76 79  1  0  0  0
 76 81  2  0  0  0
 77144  1  0  0  0
 77145  1  0  0  0
 78146  1  0  0  0
 79147  1  0  0  0
M  ISO  4   1 100  68 101  77 101  78 100
M  END
> <chiral flag>
0

> <version>
0

> <s_m_source_file>
/data/baiqing/PycharmProjects/Reinvent-master-3.2/result/LINK_invent/BTK/process_docking_weight1_custom_product_contain_oxygen_bond_distance_aromatic_linkinvent_7_9_3/rearranged_h_0091.sdf

> <i_m_source_file_index>
71

> <r_mmod_Potential_Energy-OPLS-2005>
29.262674331665

> <r_mmod_Stretch_Energy-OPLS-2005>
144.817474365234

> <r_mmod_Bend_Energy-OPLS-2005>
186.042739868164

> <r_mmod_Torsional_Energy-OPLS-2005>
249.358108520508

> <r_mmod_Improper_Torsional_Energy-OPLS-2005>
7.62558507919312

> <r_mmod_Van_der_Waal_Energy-OPLS-2005>
113.02604675293

> <r_mmod_Electrostatic_Energy-OPLS-2005>
-487.488403320312

> <r_mmod_Solvation_Energy-OPLS-2005>
-295.908233642578

> <b_mmod_Minimization_Converged-OPLS-2005>
0

> <r_mmod_RMS_Derivative-OPLS-2005>
0.357042789459229

$$$$
71
                    3D
 Structure written by MMmdl.
159168  0  0  1  0            999 V2000
  -30.6276  -14.7459   20.5430 C   0  0  0  0  0  0
  -30.4343  -12.4733   19.4791 C   0  0  0  0  0  0
  -29.5113  -12.5314   18.2416 C   0  0  0  0  0  0
  -28.0375  -12.3463   18.6492 C   0  0  0  0  0  0
  -27.6439  -13.2350   19.8583 C   0  0  2  0  0  0
  -28.6829  -13.1370   20.9926 C   0  0  0  0  0  0
  -25.2450  -13.8162   20.5644 C   0  0  0  0  0  0
  -24.1758  -13.0389   20.9136 C   0  0  0  0  0  0
  -24.6394  -11.6888   20.8719 C   0  0  0  0  0  0
  -23.9080  -10.4265   21.0397 C   0  0  0  0  0  0
  -24.3628   -9.4185   21.9185 C   0  0  0  0  0  0
  -23.6292   -8.2227   22.0755 C   0  0  0  0  0  0
  -22.4271   -8.0273   21.3547 C   0  0  0  0  0  0
  -21.9909   -9.0245   20.4646 C   0  0  0  0  0  0
  -22.7248  -10.2116   20.3050 C   0  0  0  0  0  0
  -21.6846   -6.0733   22.5288 C   0  0  0  0  0  0
  -21.4020   -6.5641   23.8224 C   0  0  0  0  0  0
  -21.3651   -5.6793   24.9184 C   0  0  0  0  0  0
  -21.6032   -4.3056   24.7231 C   0  0  0  0  0  0
  -21.8819   -3.8150   23.4354 C   0  0  0  0  0  0
  -21.9192   -4.6964   22.3411 C   0  0  0  0  0  0
  -22.7787  -13.5171   21.1837 C   0  0  0  0  0  0
  -22.1654   -4.2153   21.0984 F   0  0  0  0  0  0
  -21.5620   -3.4533   25.7740 F   0  0  0  0  0  0
  -29.9922  -13.5190   20.4372 N   0  0  0  0  0  0
  -26.2939  -12.9415   20.3308 N   0  0  0  0  0  0
  -25.9336  -11.6543   20.5756 N   0  0  0  0  0  0
  -22.0458  -12.8165   22.0421 N   0  0  0  0  0  0
  -25.3986  -15.1890   20.4113 N   0  0  0  0  0  0
  -31.7474  -14.8872   20.0397 O   0  0  0  0  0  0
  -21.6627   -6.8877   21.4249 O   0  0  0  0  0  0
  -22.3452  -14.5486   20.6712 O   0  0  0  0  0  0
  -24.6341  -31.8537   23.1959 C   0  0  0  0  0  0
  -25.9156  -32.4743   23.8314 C   0  0  1  0  0  0
  -27.2219  -27.2459   20.1159 C   0  0  0  0  0  0
  -25.5941  -33.8546   24.2245 N   0  0  0  0  0  0
  -23.4320  -30.4771   21.5403 C   0  0  2  0  0  0
  -24.8789  -28.9241   20.1072 C   0  0  0  0  0  0
  -22.7522  -29.4601   22.4900 C   0  0  0  0  0  0
  -18.0296  -28.1392   22.8481 C   0  0  0  0  0  0
  -24.1495  -36.7280   23.2639 C   0  0  0  0  0  0
  -25.9802  -30.7607   21.3786 C   0  0  0  0  0  0
  -26.0533  -29.3828   20.7178 C   0  0  0  0  0  0
  -27.2265  -28.5544   20.7158 C   0  0  0  0  0  0
  -26.0131  -26.8562   19.4926 C   0  0  0  0  0  0
  -24.8644  -27.6686   19.4850 C   0  0  0  0  0  0
  -23.6505  -29.8128   20.1564 C   0  0  0  0  0  0
  -25.4124  -36.3061   24.0319 C   0  0  1  0  0  0
  -20.5905  -28.3704   23.1254 C   0  0  2  0  0  0
  -20.6785  -26.9421   22.5402 C   0  0  0  0  0  0
  -19.5759  -26.6385   21.5209 C   0  0  0  0  0  0
  -18.1940  -26.7932   22.1623 C   0  0  0  0  0  0
  -19.1553  -28.8865   23.2861 C   0  0  0  0  0  0
  -18.9471  -30.1465   23.8884 C   0  0  0  0  0  0
  -17.6470  -30.6591   24.0563 C   0  0  0  0  0  0
  -25.9061  -34.9430   23.5086 C   0  0  0  0  0  0
  -16.5361  -29.9088   23.6336 C   0  0  0  0  0  0
  -16.7282  -28.6506   23.0354 C   0  0  0  0  0  0
  -26.4516  -31.6570   25.0714 C   0  0  0  0  0  0
  -25.3722  -31.3729   26.1421 C   0  0  0  0  0  0
  -27.0355  -30.2974   24.6208 C   0  0  0  0  0  0
  -27.6070  -32.4302   25.7494 C   0  0  0  0  0  0
  -27.5579  -37.1806   24.8473 C   0  0  0  0  0  0
  -21.4224  -29.3047   22.3639 N   0  0  0  0  0  0
  -26.4303  -37.3758   23.9397 N   0  0  0  0  0  0
  -24.7015  -31.0486   22.0944 N   0  0  0  0  0  0
  -23.4210  -28.8144   23.3014 O   0  0  0  0  0  0
  -28.2847  -26.3036   20.2024 O   0  0  0  0  0  0
  -26.5636  -34.8910   22.4657 O   0  0  0  0  0  0
  -23.5485  -32.1367   23.7242 O   0  0  0  0  0  0
  -28.3320  -19.2899   20.7064 C   0  0  0  0  0  0
  -30.8057  -18.0838   20.2499 C   0  0  0  0  0  0
  -29.3467  -20.1507   20.1971 C   0  0  0  0  0  0
  -28.5412  -17.8931   20.9764 C   0  0  0  0  0  0
  -30.5975  -19.4866   19.9777 C   0  0  0  0  0  0
  -29.7876  -17.2218   20.7607 C   0  0  0  0  0  0
  -28.6036  -23.8406   19.2977 C   0  0  0  0  0  0
  -28.9394  -22.7769   20.3129 C   0  0  0  0  0  0
  -28.7996  -21.6594   18.3676 C   0  0  0  0  0  0
  -28.3457  -25.2192   19.2850 C   0  0  0  0  0  0
  -28.5347  -23.0992   17.9949 C   0  0  0  0  0  0
  -29.9788  -15.6462   22.6717 C   0  0  0  0  0  0
  -29.0481  -21.5297   19.6841 N   0  0  0  0  0  0
  -27.4585  -17.1635   21.4585 N   0  0  0  0  0  0
  -31.6617  -20.2233   19.4582 N   0  0  0  0  0  0
  -30.0029  -15.8034   21.2069 N   0  0  0  0  0  0
  -29.1025  -22.9504   21.5261 O   0  0  0  0  0  0
  -28.7523  -20.7488   17.5304 O   0  0  0  0  0  0
  -31.4750  -12.6019   19.1764 H   0  0  0  0  0  0
  -30.3853  -11.4895   19.9475 H   0  0  0  0  0  0
  -29.7988  -11.7664   17.5192 H   0  0  0  0  0  0
  -29.6333  -13.4913   17.7376 H   0  0  0  0  0  0
  -27.8946  -11.2955   18.9035 H   0  0  0  0  0  0
  -27.3819  -12.5438   17.8001 H   0  0  0  0  0  0
  -27.6454  -14.2653   19.5015 H   0  0  0  0  0  0
  -28.7224  -12.1243   21.3971 H   0  0  0  0  0  0
  -28.3769  -13.7725   21.8206 H   0  0  0  0  0  0
  -25.2776   -9.5647   22.4759 H   0  0  0  0  0  0
  -23.9990   -7.4613   22.7476 H   0  0  0  0  0  0
  -21.0835   -8.8772   19.8955 H   0  0  0  0  0  0
  -22.3718  -10.9655   19.6157 H   0  0  0  0  0  0
  -21.2028   -7.6153   23.9732 H   0  0  0  0  0  0
  -21.1462   -6.0520   25.9085 H   0  0  0  0  0  0
  -22.0608   -2.7608   23.2854 H   0  0  0  0  0  0
  -22.4083  -11.9825   22.4794 H   0  0  0  0  0  0
  -21.1094  -13.1212   22.2682 H   0  0  0  0  0  0
  -24.6285  -15.8219   20.5924 H   0  0  0  0  0  0
  -26.2873  -15.6825   20.3465 H   0  0  0  0  0  0
  -26.7229  -32.5394   23.1058 H   0  0  0  0  0  0
  -25.0084  -33.9673   25.0388 H   0  0  0  0  0  0
  -22.7289  -31.3000   21.3946 H   0  0  0  0  0  0
  -23.3746  -35.9628   23.3321 H   0  0  0  0  0  0
  -24.3578  -36.8880   22.2051 H   0  0  0  0  0  0
  -23.7269  -37.6492   23.6653 H   0  0  0  0  0  0
  -26.1208  -31.5198   20.6079 H   0  0  0  0  0  0
  -26.8572  -30.8102   22.0124 H   0  0  0  0  0  0
  -28.1220  -28.8946   21.2166 H   0  0  0  0  0  0
  -25.9167  -25.8814   19.0383 H   0  0  0  0  0  0
  -23.9622  -27.3045   19.0133 H   0  0  0  0  0  0
  -23.7746  -30.5893   19.4006 H   0  0  0  0  0  0
  -22.7678  -29.2464   19.8526 H   0  0  0  0  0  0
  -25.1314  -36.1910   25.0814 H   0  0  0  0  0  0
  -20.9995  -28.3289   24.1374 H   0  0  0  0  0  0
  -20.5683  -26.2323   23.3612 H   0  0  0  0  0  0
  -21.6653  -26.7443   22.1199 H   0  0  0  0  0  0
  -19.6920  -25.6292   21.1245 H   0  0  0  0  0  0
  -19.6691  -27.3189   20.6733 H   0  0  0  0  0  0
  -17.4209  -26.6671   21.4026 H   0  0  0  0  0  0
  -18.0343  -26.0080   22.9025 H   0  0  0  0  0  0
  -19.7948  -30.7284   24.2247 H   0  0  0  0  0  0
  -17.5025  -31.6269   24.5168 H   0  0  0  0  0  0
  -15.5361  -30.2986   23.7662 H   0  0  0  0  0  0
  -15.8682  -28.0817   22.7077 H   0  0  0  0  0  0
  -24.5915  -30.7058   25.7745 H   0  0  0  0  0  0
  -24.8895  -32.2901   26.4803 H   0  0  0  0  0  0
  -25.8026  -30.8938   27.0222 H   0  0  0  0  0  0
  -26.2935  -29.6716   24.1227 H   0  0  0  0  0  0
  -27.4023  -29.7243   25.4734 H   0  0  0  0  0  0
  -27.8826  -30.4234   23.9460 H   0  0  0  0  0  0
  -27.2683  -33.3614   26.2042 H   0  0  0  0  0  0
  -28.3899  -32.6828   25.0334 H   0  0  0  0  0  0
  -28.0708  -31.8435   26.5430 H   0  0  0  0  0  0
  -28.2620  -38.0077   24.7474 H   0  0  0  0  0  0
  -28.1047  -36.2602   24.6363 H   0  0  0  0  0  0
  -27.2283  -37.1536   25.8873 H   0  0  0  0  0  0
  -20.9416  -29.8766   21.6835 H   0  0  0  0  0  0
  -26.0176  -38.2837   24.1361 H   0  0  0  0  0  0
  -27.3451  -19.7052   20.8544 H   0  0  0  0  0  0
  -31.7839  -17.6578   20.0804 H   0  0  0  0  0  0
  -28.1395  -25.6285   18.3054 H   0  0  0  0  0  0
  -29.2952  -23.4549   17.3002 H   0  0  0  0  0  0
  -27.5494  -23.1971   17.5381 H   0  0  0  0  0  0
  -28.9610  -15.6311   23.0595 H   0  0  0  0  0  0
  -30.4999  -16.4766   23.1489 H   0  0  0  0  0  0
  -30.4661  -14.7331   23.0210 H   0  0  0  0  0  0
  -26.7064  -17.6814   21.9002 H   0  0  0  0  0  0
  -27.6848  -16.3154   21.9633 H   0  0  0  0  0  0
  -32.5927  -19.8200   19.4866 H   0  0  0  0  0  0
  -31.6704  -21.2289   19.5860 H   0  0  0  0  0  0
  1 25  1  0  0  0
  1 30  2  0  0  0
  1 86  1  0  0  0
  2  3  1  0  0  0
  2 25  1  0  0  0
  2 89  1  0  0  0
  2 90  1  0  0  0
  3  4  1  0  0  0
  3 91  1  0  0  0
  3 92  1  0  0  0
  4  5  1  0  0  0
  4 93  1  0  0  0
  4 94  1  0  0  0
  5  6  1  0  0  0
  5 26  1  0  0  0
  5 95  1  0  0  0
  6 25  1  0  0  0
  6 96  1  0  0  0
  6 97  1  0  0  0
  7  8  2  0  0  0
  7 26  1  0  0  0
  7 29  1  0  0  0
  8  9  1  0  0  0
  8 22  1  0  0  0
  9 10  1  0  0  0
  9 27  2  0  0  0
 10 11  2  0  0  0
 10 15  1  0  0  0
 11 12  1  0  0  0
 11 98  1  0  0  0
 12 13  2  0  0  0
 12 99  1  0  0  0
 13 14  1  0  0  0
 13 31  1  0  0  0
 14 15  2  0  0  0
 14100  1  0  0  0
 15101  1  0  0  0
 16 17  2  0  0  0
 16 21  1  0  0  0
 16 31  1  0  0  0
 17 18  1  0  0  0
 17102  1  0  0  0
 18 19  2  0  0  0
 18103  1  0  0  0
 19 20  1  0  0  0
 19 24  1  0  0  0
 20 21  2  0  0  0
 20104  1  0  0  0
 21 23  1  0  0  0
 22 28  1  0  0  0
 22 32  2  0  0  0
 26 27  1  0  0  0
 28105  1  0  0  0
 28106  1  0  0  0
 29107  1  0  0  0
 29108  1  0  0  0
 33 34  1  0  0  0
 33 66  1  0  0  0
 33 70  2  0  0  0
 34 36  1  0  0  0
 34 59  1  0  0  0
 34109  1  0  0  0
 35 44  2  0  0  0
 35 45  1  0  0  0
 35 68  1  0  0  0
 36 56  1  0  0  0
 36110  1  0  0  0
 37 39  1  0  0  0
 37 47  1  0  0  0
 37 66  1  0  0  0
 37111  1  0  0  0
 38 43  2  0  0  0
 38 46  1  0  0  0
 38 47  1  0  0  0
 39 64  1  0  0  0
 39 67  2  0  0  0
 40 52  1  0  0  0
 40 53  2  0  0  0
 40 58  1  0  0  0
 41112  1  0  0  0
 41113  1  0  0  0
 41114  1  0  0  0
 41 48  1  0  0  0
 42 43  1  0  0  0
 42 66  1  0  0  0
 42115  1  0  0  0
 42116  1  0  0  0
 43 44  1  0  0  0
 44117  1  0  0  0
 45 46  2  0  0  0
 45118  1  0  0  0
 46119  1  0  0  0
 47120  1  0  0  0
 47121  1  0  0  0
 48 56  1  0  0  0
 48 65  1  0  0  0
 48122  1  0  0  0
 49 50  1  0  0  0
 49 53  1  0  0  0
 49 64  1  0  0  0
 49123  1  0  0  0
 50 51  1  0  0  0
 50124  1  0  0  0
 50125  1  0  0  0
 51 52  1  0  0  0
 51126  1  0  0  0
 51127  1  0  0  0
 52128  1  0  0  0
 52129  1  0  0  0
 53 54  1  0  0  0
 54 55  2  0  0  0
 54130  1  0  0  0
 55 57  1  0  0  0
 55131  1  0  0  0
 56 69  2  0  0  0
 57 58  2  0  0  0
 57132  1  0  0  0
 58133  1  0  0  0
 59 60  1  0  0  0
 59 61  1  0  0  0
 59 62  1  0  0  0
 60134  1  0  0  0
 60135  1  0  0  0
 60136  1  0  0  0
 61137  1  0  0  0
 61138  1  0  0  0
 61139  1  0  0  0
 62140  1  0  0  0
 62141  1  0  0  0
 62142  1  0  0  0
 63 65  1  0  0  0
 63143  1  0  0  0
 63144  1  0  0  0
 63145  1  0  0  0
 64146  1  0  0  0
 65147  1  0  0  0
 68 80  1  0  0  0
 71 73  2  0  0  0
 71 74  1  0  0  0
 71148  1  0  0  0
 72 75  2  0  0  0
 72 76  1  0  0  0
 72149  1  0  0  0
 73 75  1  0  0  0
 73 83  1  0  0  0
 74 76  2  0  0  0
 74 84  1  0  0  0
 75 85  1  0  0  0
 76 86  1  0  0  0
 77 78  1  0  0  0
 77 80  2  0  0  0
 77 81  1  0  0  0
 78 83  1  0  0  0
 78 87  2  0  0  0
 79 81  1  0  0  0
 79 83  1  0  0  0
 79 88  2  0  0  0
 80150  1  0  0  0
 81151  1  0  0  0
 81152  1  0  0  0
 82 86  1  0  0  0
 82153  1  0  0  0
 82154  1  0  0  0
 82155  1  0  0  0
 84156  1  0  0  0
 84157  1  0  0  0
 85158  1  0  0  0
 85159  1  0  0  0
M  ISO  4   1 100  68 101  80 101  86 100
M  END
> <chiral flag>
0

> <version>
0

> <s_m_source_file>
/data/baiqing/PycharmProjects/Reinvent-master-3.2/result/LINK_invent/BTK/process_docking_weight1_custom_product_contain_oxygen_bond_distance_aromatic_linkinvent_7_9_3/rearranged_h_0091.sdf

> <i_m_source_file_index>
72

> <r_mmod_Potential_Energy-OPLS-2005>
310.987152099609

> <r_mmod_Stretch_Energy-OPLS-2005>
132.073654174805

> <r_mmod_Bend_Energy-OPLS-2005>
268.590118408203

> <r_mmod_Torsional_Energy-OPLS-2005>
365.329406738281

> <r_mmod_Improper_Torsional_Energy-OPLS-2005>
13.2485122680664

> <r_mmod_Van_der_Waal_Energy-OPLS-2005>
142.918319702148

> <r_mmod_Electrostatic_Energy-OPLS-2005>
-460.643951416016

> <r_mmod_Solvation_Energy-OPLS-2005>
-242.356811523438

> <b_mmod_Minimization_Converged-OPLS-2005>
0

> <r_mmod_RMS_Derivative-OPLS-2005>
1.26824069023132

$$$$
72
                    3D
 Structure written by MMmdl.
160168  0  0  1  0            999 V2000
  -30.7272  -14.5013   20.5260 C   0  0  0  0  0  0
  -30.4047  -12.3109   19.4420 C   0  0  0  0  0  0
  -29.4912  -12.4976   18.2139 C   0  0  0  0  0  0
  -28.0129  -12.3663   18.6239 C   0  0  0  0  0  0
  -27.6547  -13.2220   19.8695 C   0  0  2  0  0  0
  -28.6987  -13.0555   20.9987 C   0  0  0  0  0  0
  -25.2548  -13.8196   20.5693 C   0  0  0  0  0  0
  -24.1812  -13.0448   20.9176 C   0  0  0  0  0  0
  -24.6389  -11.6921   20.8737 C   0  0  0  0  0  0
  -23.9063  -10.4296   21.0396 C   0  0  0  0  0  0
  -24.3618   -9.4213   21.9176 C   0  0  0  0  0  0
  -23.6296   -8.2245   22.0751 C   0  0  0  0  0  0
  -22.4277   -8.0276   21.3543 C   0  0  0  0  0  0
  -21.9906   -9.0247   20.4643 C   0  0  0  0  0  0
  -22.7234  -10.2128   20.3049 C   0  0  0  0  0  0
  -21.6852   -6.0730   22.5277 C   0  0  0  0  0  0
  -21.4012   -6.5635   23.8211 C   0  0  0  0  0  0
  -21.3663   -5.6790   24.9175 C   0  0  0  0  0  0
  -21.6046   -4.3051   24.7224 C   0  0  0  0  0  0
  -21.8822   -3.8142   23.4345 C   0  0  0  0  0  0
  -21.9194   -4.6959   22.3403 C   0  0  0  0  0  0
  -22.7835  -13.5229   21.1845 C   0  0  0  0  0  0
  -22.1665   -4.2143   21.0979 F   0  0  0  0  0  0
  -21.5630   -3.4537   25.7740 F   0  0  0  0  0  0
  -30.0266  -13.3350   20.4334 N   0  0  0  0  0  0
  -26.2994  -12.9397   20.3369 N   0  0  0  0  0  0
  -25.9328  -11.6541   20.5784 N   0  0  0  0  0  0
  -22.0486  -12.8217   22.0406 N   0  0  0  0  0  0
  -25.4261  -15.1917   20.4139 N   0  0  0  0  0  0
  -31.8702  -14.5852   20.0770 O   0  0  0  0  0  0
  -21.6644   -6.8872   21.4238 O   0  0  0  0  0  0
  -22.3515  -14.5536   20.6699 O   0  0  0  0  0  0
  -24.6178  -31.8657   23.2090 C   0  0  0  0  0  0
  -25.9064  -32.4805   23.8391 C   0  0  1  0  0  0
  -27.2234  -27.4061   20.1095 C   0  0  0  0  0  0
  -25.5931  -33.8606   24.2335 N   0  0  0  0  0  0
  -23.4071  -30.4901   21.5492 C   0  0  2  0  0  0
  -24.8544  -28.9569   20.1103 C   0  0  0  0  0  0
  -22.7431  -29.4650   22.4973 C   0  0  0  0  0  0
  -18.0278  -28.1371   22.8490 C   0  0  0  0  0  0
  -24.1489  -36.7291   23.2636 C   0  0  0  0  0  0
  -25.9396  -30.8241   21.3666 C   0  0  0  0  0  0
  -26.0172  -29.4586   20.7098 C   0  0  0  0  0  0
  -27.2097  -28.6924   20.7030 C   0  0  0  0  0  0
  -26.0494  -26.9347   19.4845 C   0  0  0  0  0  0
  -24.8670  -27.6961   19.4905 C   0  0  0  0  0  0
  -23.6167  -29.8247   20.1633 C   0  0  0  0  0  0
  -25.4108  -36.3098   24.0346 C   0  0  1  0  0  0
  -20.5873  -28.3655   23.1312 C   0  0  2  0  0  0
  -20.6767  -26.9387   22.5413 C   0  0  0  0  0  0
  -19.5753  -26.6372   21.5206 C   0  0  0  0  0  0
  -18.1927  -26.7921   22.1609 C   0  0  0  0  0  0
  -19.1528  -28.8834   23.2895 C   0  0  0  0  0  0
  -18.9452  -30.1442   23.8897 C   0  0  0  0  0  0
  -17.6453  -30.6580   24.0559 C   0  0  0  0  0  0
  -25.9043  -34.9467   23.5131 C   0  0  0  0  0  0
  -16.5345  -29.9073   23.6335 C   0  0  0  0  0  0
  -16.7265  -28.6492   23.0354 C   0  0  0  0  0  0
  -26.4492  -31.6585   25.0721 C   0  0  0  0  0  0
  -25.3760  -31.3693   26.1474 C   0  0  0  0  0  0
  -27.0309  -30.3024   24.6097 C   0  0  0  0  0  0
  -27.6079  -32.4296   25.7470 C   0  0  0  0  0  0
  -27.5588  -37.1794   24.8464 C   0  0  0  0  0  0
  -21.4156  -29.3024   22.3717 N   0  0  0  0  0  0
  -26.4289  -37.3789   23.9426 N   0  0  0  0  0  0
  -24.6730  -31.0742   22.0997 N   0  0  0  0  0  0
  -23.4196  -28.8185   23.3016 O   0  0  0  0  0  0
  -28.3354  -26.5878   20.1576 O   0  0  0  0  0  0
  -26.5582  -34.8923   22.4678 O   0  0  0  0  0  0
  -23.5364  -32.1418   23.7476 O   0  0  0  0  0  0
  -31.1341  -19.7528   20.6871 C   0  0  0  0  0  0
  -31.8005  -17.4076   20.7097 C   0  0  0  0  0  0
  -29.7884  -19.3879   20.8990 C   0  0  0  0  0  0
  -32.1328  -18.7712   20.5951 C   0  0  0  0  0  0
  -30.4552  -16.9886   20.8871 C   0  0  0  0  0  0
  -29.4575  -17.9987   20.9954 C   0  0  0  0  0  0
  -28.7686  -20.4874   21.1030 C   0  0  0  0  0  0
  -26.9584  -22.7232   19.2100 C   0  0  0  0  0  0
  -28.7781  -24.1037   20.3313 C   0  0  0  0  0  0
  -25.5083  -23.0615   19.5344 C   0  0  0  0  0  0
  -28.0935  -25.3695   20.9123 C   0  0  0  0  0  0
  -27.9701  -22.7671   20.3644 C   0  0  2  0  0  0
  -33.4575  -19.1535   20.3957 N   0  0  0  0  0  0
  -30.0622  -15.5947   20.9753 N   0  0  0  0  0  0
  -28.8278  -21.5578   20.2833 N   0  0  0  0  0  0
  -27.9099  -20.3890   21.9805 O   0  0  0  0  0  0
  -27.2602  -22.4002   18.0564 O   0  0  0  0  0  0
  -29.9328  -24.1738   19.8908 O   0  0  0  0  0  0
  -28.1718  -17.6068   21.1788 F   0  0  0  0  0  0
  -31.4529  -12.3691   19.1450 H   0  0  0  0  0  0
  -30.2766  -11.3134   19.8646 H   0  0  0  0  0  0
  -29.7334  -11.7608   17.4467 H   0  0  0  0  0  0
  -29.6658  -13.4767   17.7645 H   0  0  0  0  0  0
  -27.8228  -11.3126   18.8306 H   0  0  0  0  0  0
  -27.3640  -12.6316   17.7881 H   0  0  0  0  0  0
  -27.6830  -14.2637   19.5498 H   0  0  0  0  0  0
  -28.6732  -12.0398   21.3959 H   0  0  0  0  0  0
  -28.4686  -13.7097   21.8407 H   0  0  0  0  0  0
  -25.2763   -9.5691   22.4749 H   0  0  0  0  0  0
  -24.0008   -7.4636   22.7468 H   0  0  0  0  0  0
  -21.0836   -8.8755   19.8954 H   0  0  0  0  0  0
  -22.3682  -10.9660   19.6155 H   0  0  0  0  0  0
  -21.1999   -7.6146   23.9711 H   0  0  0  0  0  0
  -21.1486   -6.0520   25.9077 H   0  0  0  0  0  0
  -22.0598   -2.7604   23.2845 H   0  0  0  0  0  0
  -22.4105  -11.9870   22.4776 H   0  0  0  0  0  0
  -21.1110  -13.1240   22.2628 H   0  0  0  0  0  0
  -24.6643  -15.8494   20.5373 H   0  0  0  0  0  0
  -26.2914  -15.6392   20.1396 H   0  0  0  0  0  0
  -26.7132  -32.5513   23.1150 H   0  0  0  0  0  0
  -25.0153  -33.9763   25.0530 H   0  0  0  0  0  0
  -22.6972  -31.3080   21.4106 H   0  0  0  0  0  0
  -23.3769  -35.9604   23.3273 H   0  0  0  0  0  0
  -24.3593  -36.8920   22.2057 H   0  0  0  0  0  0
  -23.7222  -37.6481   23.6656 H   0  0  0  0  0  0
  -26.0592  -31.5914   20.6006 H   0  0  0  0  0  0
  -26.8252  -30.8731   21.9879 H   0  0  0  0  0  0
  -28.1042  -29.0683   21.1794 H   0  0  0  0  0  0
  -26.0410  -25.9681   19.0027 H   0  0  0  0  0  0
  -23.9752  -27.3064   19.0195 H   0  0  0  0  0  0
  -23.7259  -30.6007   19.4050 H   0  0  0  0  0  0
  -22.7409  -29.2451   19.8655 H   0  0  0  0  0  0
  -25.1286  -36.1946   25.0839 H   0  0  0  0  0  0
  -20.9968  -28.3203   24.1432 H   0  0  0  0  0  0
  -20.5659  -26.2255   23.3593 H   0  0  0  0  0  0
  -21.6638  -26.7418   22.1208 H   0  0  0  0  0  0
  -19.6899  -25.6284   21.1229 H   0  0  0  0  0  0
  -19.6701  -27.3188   20.6742 H   0  0  0  0  0  0
  -17.4205  -26.6689   21.4000 H   0  0  0  0  0  0
  -18.0308  -26.0052   22.8987 H   0  0  0  0  0  0
  -19.7932  -30.7259   24.2255 H   0  0  0  0  0  0
  -17.5011  -31.6267   24.5148 H   0  0  0  0  0  0
  -15.5344  -30.2971   23.7668 H   0  0  0  0  0  0
  -15.8664  -28.0808   22.7065 H   0  0  0  0  0  0
  -24.5954  -30.7008   25.7828 H   0  0  0  0  0  0
  -24.8927  -32.2842   26.4916 H   0  0  0  0  0  0
  -25.8130  -30.8885   27.0238 H   0  0  0  0  0  0
  -26.2841  -29.6783   24.1176 H   0  0  0  0  0  0
  -27.4104  -29.7267   25.4549 H   0  0  0  0  0  0
  -27.8677  -30.4336   23.9230 H   0  0  0  0  0  0
  -27.2727  -33.3611   26.2043 H   0  0  0  0  0  0
  -28.3891  -32.6821   25.0285 H   0  0  0  0  0  0
  -28.0743  -31.8413   26.5380 H   0  0  0  0  0  0
  -28.2587  -38.0110   24.7551 H   0  0  0  0  0  0
  -28.1104  -36.2649   24.6235 H   0  0  0  0  0  0
  -27.2315  -37.1375   25.8867 H   0  0  0  0  0  0
  -20.9308  -29.8753   21.6950 H   0  0  0  0  0  0
  -26.0170  -38.2857   24.1454 H   0  0  0  0  0  0
  -31.4034  -20.7984   20.6269 H   0  0  0  0  0  0
  -32.6100  -16.6976   20.6613 H   0  0  0  0  0  0
  -25.4424  -23.9405   20.1729 H   0  0  0  0  0  0
  -25.0418  -22.2260   20.0564 H   0  0  0  0  0  0
  -24.9457  -23.2565   18.6222 H   0  0  0  0  0  0
  -28.4797  -25.5200   21.9201 H   0  0  0  0  0  0
  -27.0301  -25.1682   21.0343 H   0  0  0  0  0  0
  -27.4143  -22.7523   21.3033 H   0  0  0  0  0  0
  -33.7355  -20.1196   20.5427 H   0  0  0  0  0  0
  -34.2082  -18.4869   20.5513 H   0  0  0  0  0  0
  -29.1092  -15.4343   21.2665 H   0  0  0  0  0  0
  -29.5300  -21.5675   19.5574 H   0  0  0  0  0  0
  1 25  1  0  0  0
  1 30  2  0  0  0
  1 84  1  0  0  0
  2  3  1  0  0  0
  2 25  1  0  0  0
  2 90  1  0  0  0
  2 91  1  0  0  0
  3  4  1  0  0  0
  3 92  1  0  0  0
  3 93  1  0  0  0
  4  5  1  0  0  0
  4 94  1  0  0  0
  4 95  1  0  0  0
  5  6  1  0  0  0
  5 26  1  0  0  0
  5 96  1  0  0  0
  6 25  1  0  0  0
  6 97  1  0  0  0
  6 98  1  0  0  0
  7  8  2  0  0  0
  7 26  1  0  0  0
  7 29  1  0  0  0
  8  9  1  0  0  0
  8 22  1  0  0  0
  9 10  1  0  0  0
  9 27  2  0  0  0
 10 11  2  0  0  0
 10 15  1  0  0  0
 11 12  1  0  0  0
 11 99  1  0  0  0
 12 13  2  0  0  0
 12100  1  0  0  0
 13 14  1  0  0  0
 13 31  1  0  0  0
 14 15  2  0  0  0
 14101  1  0  0  0
 15102  1  0  0  0
 16 17  2  0  0  0
 16 21  1  0  0  0
 16 31  1  0  0  0
 17 18  1  0  0  0
 17103  1  0  0  0
 18 19  2  0  0  0
 18104  1  0  0  0
 19 20  1  0  0  0
 19 24  1  0  0  0
 20 21  2  0  0  0
 20105  1  0  0  0
 21 23  1  0  0  0
 22 28  1  0  0  0
 22 32  2  0  0  0
 26 27  1  0  0  0
 28106  1  0  0  0
 28107  1  0  0  0
 29108  1  0  0  0
 29109  1  0  0  0
 33 34  1  0  0  0
 33 66  1  0  0  0
 33 70  2  0  0  0
 34 36  1  0  0  0
 34 59  1  0  0  0
 34110  1  0  0  0
 35 44  2  0  0  0
 35 45  1  0  0  0
 35 68  1  0  0  0
 36 56  1  0  0  0
 36111  1  0  0  0
 37 39  1  0  0  0
 37 47  1  0  0  0
 37 66  1  0  0  0
 37112  1  0  0  0
 38 43  2  0  0  0
 38 46  1  0  0  0
 38 47  1  0  0  0
 39 64  1  0  0  0
 39 67  2  0  0  0
 40 52  1  0  0  0
 40 53  2  0  0  0
 40 58  1  0  0  0
 41113  1  0  0  0
 41114  1  0  0  0
 41115  1  0  0  0
 41 48  1  0  0  0
 42 43  1  0  0  0
 42 66  1  0  0  0
 42116  1  0  0  0
 42117  1  0  0  0
 43 44  1  0  0  0
 44118  1  0  0  0
 45 46  2  0  0  0
 45119  1  0  0  0
 46120  1  0  0  0
 47121  1  0  0  0
 47122  1  0  0  0
 48 56  1  0  0  0
 48 65  1  0  0  0
 48123  1  0  0  0
 49 50  1  0  0  0
 49 53  1  0  0  0
 49 64  1  0  0  0
 49124  1  0  0  0
 50 51  1  0  0  0
 50125  1  0  0  0
 50126  1  0  0  0
 51 52  1  0  0  0
 51127  1  0  0  0
 51128  1  0  0  0
 52129  1  0  0  0
 52130  1  0  0  0
 53 54  1  0  0  0
 54 55  2  0  0  0
 54131  1  0  0  0
 55 57  1  0  0  0
 55132  1  0  0  0
 56 69  2  0  0  0
 57 58  2  0  0  0
 57133  1  0  0  0
 58134  1  0  0  0
 59 60  1  0  0  0
 59 61  1  0  0  0
 59 62  1  0  0  0
 60135  1  0  0  0
 60136  1  0  0  0
 60137  1  0  0  0
 61138  1  0  0  0
 61139  1  0  0  0
 61140  1  0  0  0
 62141  1  0  0  0
 62142  1  0  0  0
 62143  1  0  0  0
 63 65  1  0  0  0
 63144  1  0  0  0
 63145  1  0  0  0
 63146  1  0  0  0
 64147  1  0  0  0
 65148  1  0  0  0
 68 81  1  0  0  0
 71 73  2  0  0  0
 71 74  1  0  0  0
 71149  1  0  0  0
 72 74  2  0  0  0
 72 75  1  0  0  0
 72150  1  0  0  0
 73 76  1  0  0  0
 73 77  1  0  0  0
 74 83  1  0  0  0
 75 76  2  0  0  0
 75 84  1  0  0  0
 76 89  1  0  0  0
 77 85  1  0  0  0
 77 86  2  0  0  0
 78 80  1  0  0  0
 78 82  1  0  0  0
 78 87  2  0  0  0
 79 81  1  0  0  0
 79 82  1  0  0  0
 79 88  2  0  0  0
 80151  1  0  0  0
 80152  1  0  0  0
 80153  1  0  0  0
 81154  1  0  0  0
 81155  1  0  0  0
 82 85  1  0  0  0
 82156  1  0  0  0
 83157  1  0  0  0
 83158  1  0  0  0
 84159  1  0  0  0
 85160  1  0  0  0
M  ISO  4   1 100  68 101  81 101  84 100
M  END
> <chiral flag>
0

> <version>
0

> <s_m_source_file>
/data/baiqing/PycharmProjects/Reinvent-master-3.2/result/LINK_invent/BTK/process_docking_weight1_custom_product_contain_oxygen_bond_distance_aromatic_linkinvent_7_9_3/rearranged_h_0091.sdf

> <i_m_source_file_index>
73

> <r_mmod_Potential_Energy-OPLS-2005>
-279.711547851562

> <r_mmod_Stretch_Energy-OPLS-2005>
48.440315246582

> <r_mmod_Bend_Energy-OPLS-2005>
104.728721618652

> <r_mmod_Torsional_Energy-OPLS-2005>
228.123229980469

> <r_mmod_Improper_Torsional_Energy-OPLS-2005>
6.1818733215332

> <r_mmod_Van_der_Waal_Energy-OPLS-2005>
152.450820922852

> <r_mmod_Electrostatic_Energy-OPLS-2005>
-585.146240234375

> <r_mmod_Solvation_Energy-OPLS-2005>
-257.000244140625

> <b_mmod_Minimization_Converged-OPLS-2005>
0

> <r_mmod_RMS_Derivative-OPLS-2005>
1.14885771274567

$$$$
73
                    3D
 Structure written by MMmdl.
159168  0  0  1  0            999 V2000
  -30.4610  -15.1397   20.3962 C   0  0  0  0  0  0
  -30.4551  -12.7289   19.4874 C   0  0  0  0  0  0
  -29.5338  -12.5556   18.2559 C   0  0  0  0  0  0
  -28.0726  -12.3113   18.6849 C   0  0  0  0  0  0
  -27.6217  -13.2627   19.8236 C   0  0  2  0  0  0
  -28.6688  -13.3716   20.9499 C   0  0  0  0  0  0
  -25.2474  -13.8235   20.5781 C   0  0  0  0  0  0
  -24.1803  -13.0435   20.9267 C   0  0  0  0  0  0
  -24.6437  -11.6930   20.8759 C   0  0  0  0  0  0
  -23.9125  -10.4298   21.0372 C   0  0  0  0  0  0
  -24.3648   -9.4213   21.9157 C   0  0  0  0  0  0
  -23.6310   -8.2253   22.0735 C   0  0  0  0  0  0
  -22.4293   -8.0282   21.3531 C   0  0  0  0  0  0
  -21.9940   -9.0266   20.4639 C   0  0  0  0  0  0
  -22.7289  -10.2136   20.3037 C   0  0  0  0  0  0
  -21.6855   -6.0740   22.5272 C   0  0  0  0  0  0
  -21.4034   -6.5629   23.8220 C   0  0  0  0  0  0
  -21.3674   -5.6764   24.9169 C   0  0  0  0  0  0
  -21.6046   -4.3033   24.7210 C   0  0  0  0  0  0
  -21.8816   -3.8135   23.4328 C   0  0  0  0  0  0
  -21.9209   -4.6964   22.3388 C   0  0  0  0  0  0
  -22.7811  -13.5206   21.1895 C   0  0  0  0  0  0
  -22.1662   -4.2148   21.0966 F   0  0  0  0  0  0
  -21.5643   -3.4517   25.7717 F   0  0  0  0  0  0
  -29.9026  -13.8501   20.3104 N   0  0  0  0  0  0
  -26.2888  -12.9484   20.3243 N   0  0  0  0  0  0
  -25.9377  -11.6608   20.5730 N   0  0  0  0  0  0
  -22.0440  -12.8202   22.0432 N   0  0  0  0  0  0
  -25.4106  -15.1984   20.4296 N   0  0  0  0  0  0
  -31.6942  -15.1803   20.2958 O   0  0  0  0  0  0
  -21.6650   -6.8888   21.4232 O   0  0  0  0  0  0
  -22.3492  -14.5489   20.6701 O   0  0  0  0  0  0
  -24.6525  -31.8338   23.1757 C   0  0  0  0  0  0
  -25.9247  -32.4651   23.8206 C   0  0  1  0  0  0
  -27.2159  -27.0104   20.1770 C   0  0  0  0  0  0
  -25.5966  -33.8466   24.2124 N   0  0  0  0  0  0
  -23.4629  -30.4453   21.5247 C   0  0  2  0  0  0
  -24.9149  -28.8397   20.1182 C   0  0  0  0  0  0
  -22.7612  -29.4475   22.4822 C   0  0  0  0  0  0
  -18.0311  -28.1388   22.8466 C   0  0  0  0  0  0
  -24.1511  -36.7225   23.2641 C   0  0  0  0  0  0
  -26.0266  -30.6629   21.3956 C   0  0  0  0  0  0
  -26.0963  -29.2596   20.7438 C   0  0  0  0  0  0
  -27.2452  -28.3637   20.7469 C   0  0  0  0  0  0
  -26.0056  -26.7157   19.5153 C   0  0  0  0  0  0
  -24.8882  -27.5859   19.4869 C   0  0  0  0  0  0
  -23.7000  -29.7613   20.1511 C   0  0  0  0  0  0
  -25.4148  -36.2996   24.0295 C   0  0  1  0  0  0
  -20.5927  -28.3722   23.1198 C   0  0  2  0  0  0
  -20.6795  -26.9414   22.5392 C   0  0  0  0  0  0
  -19.5779  -26.6363   21.5195 C   0  0  0  0  0  0
  -18.1952  -26.7927   22.1604 C   0  0  0  0  0  0
  -19.1579  -28.8867   23.2821 C   0  0  0  0  0  0
  -18.9492  -30.1445   23.8862 C   0  0  0  0  0  0
  -17.6490  -30.6579   24.0531 C   0  0  0  0  0  0
  -25.9098  -34.9373   23.5025 C   0  0  0  0  0  0
  -16.5369  -29.9064   23.6339 C   0  0  0  0  0  0
  -16.7289  -28.6478   23.0370 C   0  0  0  0  0  0
  -26.4536  -31.6548   25.0690 C   0  0  0  0  0  0
  -25.3666  -31.3765   26.1343 C   0  0  0  0  0  0
  -27.0425  -30.2935   24.6343 C   0  0  0  0  0  0
  -27.6060  -32.4320   25.7486 C   0  0  0  0  0  0
  -27.5586  -37.1772   24.8458 C   0  0  0  0  0  0
  -21.4298  -29.3024   22.3566 N   0  0  0  0  0  0
  -26.4306  -37.3716   23.9384 N   0  0  0  0  0  0
  -24.7344  -31.0068   22.0860 N   0  0  0  0  0  0
  -23.4193  -28.8025   23.3028 O   0  0  0  0  0  0
  -28.2793  -25.9997   20.1427 O   0  0  0  0  0  0
  -26.5692  -34.8882   22.4614 O   0  0  0  0  0  0
  -23.5611  -32.1280   23.6883 O   0  0  0  0  0  0
  -28.7457  -19.2843   22.5456 C   0  0  0  0  0  0
  -29.1455  -18.0241   22.0220 C   0  0  0  0  0  0
  -29.4874  -19.1697   19.9411 C   0  0  0  0  0  0
  -28.7291  -20.5072   21.8154 C   0  0  0  0  0  0
  -29.1509  -20.5733   20.4640 C   0  0  0  0  0  0
  -29.5309  -17.8410   20.6776 C   0  0  0  0  0  0
  -28.9776  -23.4580   19.7362 C   0  0  0  0  0  0
  -31.1825  -24.1047   18.8307 C   0  0  0  0  0  0
  -28.2110  -24.5063   20.3784 C   0  0  0  0  0  0
  -29.6953  -24.0843   18.5369 C   0  0  0  0  0  0
  -31.7352  -22.7730   19.2993 C   0  0  0  0  0  0
  -30.6768  -21.6643   19.1101 C   0  0  0  0  0  0
  -28.2719  -21.7603   22.5363 C   0  0  0  0  0  0
  -29.3750  -21.9358   19.7881 N   0  0  0  0  0  0
  -29.6475  -16.3349   20.2004 N   0  0  0  0  0  0
  -31.8817  -25.1138   18.7019 O   0  0  0  0  0  0
  -31.4750  -12.9415   19.1592 H   0  0  0  0  0  0
  -30.5114  -11.8075   20.0691 H   0  0  0  0  0  0
  -29.8853  -11.7344   17.6290 H   0  0  0  0  0  0
  -29.5851  -13.4561   17.6399 H   0  0  0  0  0  0
  -27.9957  -11.2754   19.0179 H   0  0  0  0  0  0
  -27.4045  -12.4066   17.8275 H   0  0  0  0  0  0
  -27.5527  -14.2474   19.3598 H   0  0  0  0  0  0
  -28.8207  -12.4167   21.4556 H   0  0  0  0  0  0
  -28.3450  -14.0829   21.7119 H   0  0  0  0  0  0
  -25.2789   -9.5680   22.4748 H   0  0  0  0  0  0
  -24.0015   -7.4647   22.7442 H   0  0  0  0  0  0
  -21.0888   -8.8805   19.8930 H   0  0  0  0  0  0
  -22.3761  -10.9676   19.6150 H   0  0  0  0  0  0
  -21.2007   -7.6133   23.9733 H   0  0  0  0  0  0
  -21.1510   -6.0484   25.9084 H   0  0  0  0  0  0
  -22.0586   -2.7595   23.2819 H   0  0  0  0  0  0
  -22.4069  -11.9901   22.4877 H   0  0  0  0  0  0
  -21.1025  -13.1201   22.2581 H   0  0  0  0  0  0
  -24.6412  -15.8441   20.5700 H   0  0  0  0  0  0
  -26.2643  -15.6570   20.1421 H   0  0  0  0  0  0
  -26.7293  -32.5237   23.0908 H   0  0  0  0  0  0
  -25.0089  -33.9570   25.0256 H   0  0  0  0  0  0
  -22.7685  -31.2717   21.3561 H   0  0  0  0  0  0
  -23.3798  -35.9540   23.3284 H   0  0  0  0  0  0
  -24.3590  -36.8897   22.2062 H   0  0  0  0  0  0
  -23.7239  -37.6393   23.6713 H   0  0  0  0  0  0
  -26.1949  -31.4033   20.6138 H   0  0  0  0  0  0
  -26.8926  -30.7221   22.0434 H   0  0  0  0  0  0
  -28.1546  -28.6884   21.2304 H   0  0  0  0  0  0
  -25.9088  -25.7580   19.0251 H   0  0  0  0  0  0
  -23.9876  -27.2618   18.9817 H   0  0  0  0  0  0
  -23.8456  -30.5282   19.3887 H   0  0  0  0  0  0
  -22.8136  -29.2049   19.8424 H   0  0  0  0  0  0
  -25.1349  -36.1827   25.0791 H   0  0  0  0  0  0
  -21.0000  -28.3312   24.1322 H   0  0  0  0  0  0
  -20.5660  -26.2329   23.3615 H   0  0  0  0  0  0
  -21.6662  -26.7381   22.1201 H   0  0  0  0  0  0
  -19.6936  -25.6262   21.1249 H   0  0  0  0  0  0
  -19.6739  -27.3145   20.6705 H   0  0  0  0  0  0
  -17.4219  -26.6639   21.3999 H   0  0  0  0  0  0
  -18.0354  -26.0070   22.9011 H   0  0  0  0  0  0
  -19.7963  -30.7269   24.2224 H   0  0  0  0  0  0
  -17.5038  -31.6273   24.5128 H   0  0  0  0  0  0
  -15.5367  -30.2951   23.7701 H   0  0  0  0  0  0
  -15.8679  -28.0771   22.7139 H   0  0  0  0  0  0
  -24.5864  -30.7121   25.7604 H   0  0  0  0  0  0
  -24.8839  -32.2959   26.4670 H   0  0  0  0  0  0
  -25.7886  -30.8965   27.0180 H   0  0  0  0  0  0
  -26.3067  -29.6619   24.1360 H   0  0  0  0  0  0
  -27.4012  -29.7286   25.4952 H   0  0  0  0  0  0
  -27.8980  -30.4151   23.9701 H   0  0  0  0  0  0
  -27.2669  -33.3658   26.1983 H   0  0  0  0  0  0
  -28.3920  -32.6813   25.0342 H   0  0  0  0  0  0
  -28.0674  -31.8489   26.5466 H   0  0  0  0  0  0
  -28.2566  -38.0102   24.7532 H   0  0  0  0  0  0
  -28.1116  -36.2622   24.6280 H   0  0  0  0  0  0
  -27.2290  -37.1404   25.8857 H   0  0  0  0  0  0
  -20.9522  -29.8723   21.6731 H   0  0  0  0  0  0
  -26.0172  -38.2780   24.1418 H   0  0  0  0  0  0
  -28.4328  -19.3082   23.5794 H   0  0  0  0  0  0
  -29.0854  -17.1635   22.6743 H   0  0  0  0  0  0
  -29.7487  -19.1078   18.8949 H   0  0  0  0  0  0
  -27.5939  -24.3097   21.2416 H   0  0  0  0  0  0
  -29.3539  -25.0941   18.3111 H   0  0  0  0  0  0
  -29.5049  -23.4998   17.6361 H   0  0  0  0  0  0
  -32.0125  -22.8590   20.3503 H   0  0  0  0  0  0
  -32.6430  -22.5394   18.7417 H   0  0  0  0  0  0
  -31.2033  -20.7734   19.4504 H   0  0  0  0  0  0
  -30.4951  -21.4995   18.0477 H   0  0  0  0  0  0
  -27.8761  -21.5439   23.5279 H   0  0  0  0  0  0
  -27.4675  -22.2257   21.9717 H   0  0  0  0  0  0
  -29.0931  -22.4684   22.6365 H   0  0  0  0  0  0
  -28.7570  -16.0210   19.8484 H   0  0  0  0  0  0
  1 25  1  0  0  0
  1 30  2  0  0  0
  1 85  1  0  0  0
  2  3  1  0  0  0
  2 25  1  0  0  0
  2 87  1  0  0  0
  2 88  1  0  0  0
  3  4  1  0  0  0
  3 89  1  0  0  0
  3 90  1  0  0  0
  4  5  1  0  0  0
  4 91  1  0  0  0
  4 92  1  0  0  0
  5  6  1  0  0  0
  5 26  1  0  0  0
  5 93  1  0  0  0
  6 25  1  0  0  0
  6 94  1  0  0  0
  6 95  1  0  0  0
  7  8  2  0  0  0
  7 26  1  0  0  0
  7 29  1  0  0  0
  8  9  1  0  0  0
  8 22  1  0  0  0
  9 10  1  0  0  0
  9 27  2  0  0  0
 10 11  2  0  0  0
 10 15  1  0  0  0
 11 12  1  0  0  0
 11 96  1  0  0  0
 12 13  2  0  0  0
 12 97  1  0  0  0
 13 14  1  0  0  0
 13 31  1  0  0  0
 14 15  2  0  0  0
 14 98  1  0  0  0
 15 99  1  0  0  0
 16 17  2  0  0  0
 16 21  1  0  0  0
 16 31  1  0  0  0
 17 18  1  0  0  0
 17100  1  0  0  0
 18 19  2  0  0  0
 18101  1  0  0  0
 19 20  1  0  0  0
 19 24  1  0  0  0
 20 21  2  0  0  0
 20102  1  0  0  0
 21 23  1  0  0  0
 22 28  1  0  0  0
 22 32  2  0  0  0
 26 27  1  0  0  0
 28103  1  0  0  0
 28104  1  0  0  0
 29105  1  0  0  0
 29106  1  0  0  0
 33 34  1  0  0  0
 33 66  1  0  0  0
 33 70  2  0  0  0
 34 36  1  0  0  0
 34 59  1  0  0  0
 34107  1  0  0  0
 35 44  2  0  0  0
 35 45  1  0  0  0
 35 68  1  0  0  0
 36 56  1  0  0  0
 36108  1  0  0  0
 37 39  1  0  0  0
 37 47  1  0  0  0
 37 66  1  0  0  0
 37109  1  0  0  0
 38 43  2  0  0  0
 38 46  1  0  0  0
 38 47  1  0  0  0
 39 64  1  0  0  0
 39 67  2  0  0  0
 40 52  1  0  0  0
 40 53  2  0  0  0
 40 58  1  0  0  0
 41110  1  0  0  0
 41111  1  0  0  0
 41112  1  0  0  0
 41 48  1  0  0  0
 42 43  1  0  0  0
 42 66  1  0  0  0
 42113  1  0  0  0
 42114  1  0  0  0
 43 44  1  0  0  0
 44115  1  0  0  0
 45 46  2  0  0  0
 45116  1  0  0  0
 46117  1  0  0  0
 47118  1  0  0  0
 47119  1  0  0  0
 48 56  1  0  0  0
 48 65  1  0  0  0
 48120  1  0  0  0
 49 50  1  0  0  0
 49 53  1  0  0  0
 49 64  1  0  0  0
 49121  1  0  0  0
 50 51  1  0  0  0
 50122  1  0  0  0
 50123  1  0  0  0
 51 52  1  0  0  0
 51124  1  0  0  0
 51125  1  0  0  0
 52126  1  0  0  0
 52127  1  0  0  0
 53 54  1  0  0  0
 54 55  2  0  0  0
 54128  1  0  0  0
 55 57  1  0  0  0
 55129  1  0  0  0
 56 69  2  0  0  0
 57 58  2  0  0  0
 57130  1  0  0  0
 58131  1  0  0  0
 59 60  1  0  0  0
 59 61  1  0  0  0
 59 62  1  0  0  0
 60132  1  0  0  0
 60133  1  0  0  0
 60134  1  0  0  0
 61135  1  0  0  0
 61136  1  0  0  0
 61137  1  0  0  0
 62138  1  0  0  0
 62139  1  0  0  0
 62140  1  0  0  0
 63 65  1  0  0  0
 63141  1  0  0  0
 63142  1  0  0  0
 63143  1  0  0  0
 64144  1  0  0  0
 65145  1  0  0  0
 68 79  1  0  0  0
 71 72  2  0  0  0
 71 74  1  0  0  0
 71146  1  0  0  0
 72 76  1  0  0  0
 72147  1  0  0  0
 73 75  1  0  0  0
 73 76  2  0  0  0
 73148  1  0  0  0
 74 75  2  0  0  0
 74 83  1  0  0  0
 75 84  1  0  0  0
 76 85  1  0  0  0
 77 79  2  0  0  0
 77 80  1  0  0  0
 77 84  1  0  0  0
 78 80  1  0  0  0
 78 81  1  0  0  0
 78 86  2  0  0  0
 79149  1  0  0  0
 80150  1  0  0  0
 80151  1  0  0  0
 81 82  1  0  0  0
 81152  1  0  0  0
 81153  1  0  0  0
 82 84  1  0  0  0
 82154  1  0  0  0
 82155  1  0  0  0
 83156  1  0  0  0
 83157  1  0  0  0
 83158  1  0  0  0
 85159  1  0  0  0
M  ISO  4   1 100  68 101  79 101  85 100
M  END
> <chiral flag>
0

> <version>
0

> <s_m_source_file>
/data/baiqing/PycharmProjects/Reinvent-master-3.2/result/LINK_invent/BTK/process_docking_weight1_custom_product_contain_oxygen_bond_distance_aromatic_linkinvent_7_9_3/rearranged_h_0091.sdf

> <i_m_source_file_index>
74

> <r_mmod_Potential_Energy-OPLS-2005>
974.644958496094

> <r_mmod_Stretch_Energy-OPLS-2005>
415.936309814453

> <r_mmod_Bend_Energy-OPLS-2005>
403.45068359375

> <r_mmod_Torsional_Energy-OPLS-2005>
269.8076171875

> <r_mmod_Improper_Torsional_Energy-OPLS-2005>
15.6302499771118

> <r_mmod_Van_der_Waal_Energy-OPLS-2005>
155.474319458008

> <r_mmod_Electrostatic_Energy-OPLS-2005>
-393.646575927734

> <r_mmod_Solvation_Energy-OPLS-2005>
-226.491104125977

> <b_mmod_Minimization_Converged-OPLS-2005>
0

> <r_mmod_RMS_Derivative-OPLS-2005>
3.47717237472534

$$$$
74
                    3D
 Structure written by MMmdl.
155164  0  0  1  0            999 V2000
  -30.6179  -14.6756   20.4705 C   0  0  0  0  0  0
  -30.4433  -12.4105   19.4512 C   0  0  0  0  0  0
  -29.5080  -12.5059   18.2247 C   0  0  0  0  0  0
  -28.0317  -12.3414   18.6410 C   0  0  0  0  0  0
  -27.6503  -13.2207   19.8624 C   0  0  2  0  0  0
  -28.7029  -13.0988   20.9882 C   0  0  0  0  0  0
  -25.2507  -13.8127   20.5758 C   0  0  0  0  0  0
  -24.1783  -13.0368   20.9173 C   0  0  0  0  0  0
  -24.6394  -11.6864   20.8722 C   0  0  0  0  0  0
  -23.9071  -10.4255   21.0388 C   0  0  0  0  0  0
  -24.3619   -9.4182   21.9177 C   0  0  0  0  0  0
  -23.6286   -8.2225   22.0754 C   0  0  0  0  0  0
  -22.4268   -8.0268   21.3543 C   0  0  0  0  0  0
  -21.9904   -9.0239   20.4643 C   0  0  0  0  0  0
  -22.7240  -10.2109   20.3043 C   0  0  0  0  0  0
  -21.6848   -6.0729   22.5281 C   0  0  0  0  0  0
  -21.4012   -6.5635   23.8214 C   0  0  0  0  0  0
  -21.3658   -5.6789   24.9176 C   0  0  0  0  0  0
  -21.6044   -4.3052   24.7227 C   0  0  0  0  0  0
  -21.8821   -3.8143   23.4348 C   0  0  0  0  0  0
  -21.9192   -4.6958   22.3404 C   0  0  0  0  0  0
  -22.7808  -13.5164   21.1848 C   0  0  0  0  0  0
  -22.1661   -4.2145   21.0981 F   0  0  0  0  0  0
  -21.5629   -3.4536   25.7739 F   0  0  0  0  0  0
  -30.0142  -13.4437   20.4137 N   0  0  0  0  0  0
  -26.2984  -12.9360   20.3373 N   0  0  0  0  0  0
  -25.9335  -11.6497   20.5768 N   0  0  0  0  0  0
  -22.0462  -12.8168   22.0421 N   0  0  0  0  0  0
  -25.4008  -15.1868   20.4384 N   0  0  0  0  0  0
  -31.7984  -14.8280   20.1441 O   0  0  0  0  0  0
  -21.6629   -6.8870   21.4243 O   0  0  0  0  0  0
  -22.3490  -14.5479   20.6711 O   0  0  0  0  0  0
  -24.6268  -31.8592   23.2035 C   0  0  0  0  0  0
  -25.9113  -32.4777   23.8363 C   0  0  1  0  0  0
  -27.2262  -27.3101   20.1186 C   0  0  0  0  0  0
  -25.5924  -33.8579   24.2284 N   0  0  0  0  0  0
  -23.4223  -30.4830   21.5455 C   0  0  2  0  0  0
  -24.8719  -28.9410   20.1086 C   0  0  0  0  0  0
  -22.7484  -29.4615   22.4928 C   0  0  0  0  0  0
  -18.0288  -28.1385   22.8487 C   0  0  0  0  0  0
  -24.1489  -36.7294   23.2640 C   0  0  0  0  0  0
  -25.9653  -30.7842   21.3813 C   0  0  0  0  0  0
  -26.0398  -29.4110   20.7240 C   0  0  0  0  0  0
  -27.2188  -28.6041   20.7276 C   0  0  0  0  0  0
  -26.0434  -26.9116   19.4528 C   0  0  0  0  0  0
  -24.8755  -27.6953   19.4647 C   0  0  0  0  0  0
  -23.6393  -29.8207   20.1598 C   0  0  0  0  0  0
  -25.4114  -36.3083   24.0330 C   0  0  1  0  0  0
  -20.5889  -28.3690   23.1278 C   0  0  2  0  0  0
  -20.6776  -26.9411   22.5410 C   0  0  0  0  0  0
  -19.5750  -26.6383   21.5214 C   0  0  0  0  0  0
  -18.1931  -26.7928   22.1626 C   0  0  0  0  0  0
  -19.1541  -28.8855   23.2878 C   0  0  0  0  0  0
  -18.9464  -30.1457   23.8895 C   0  0  0  0  0  0
  -17.6463  -30.6587   24.0564 C   0  0  0  0  0  0
  -25.9049  -34.9451   23.5108 C   0  0  0  0  0  0
  -16.5354  -29.9086   23.6330 C   0  0  0  0  0  0
  -16.7275  -28.6504   23.0352 C   0  0  0  0  0  0
  -26.4496  -31.6589   25.0736 C   0  0  0  0  0  0
  -25.3727  -31.3731   26.1461 C   0  0  0  0  0  0
  -27.0345  -30.3010   24.6206 C   0  0  0  0  0  0
  -27.6051  -32.4331   25.7505 C   0  0  0  0  0  0
  -27.5578  -37.1805   24.8466 C   0  0  0  0  0  0
  -21.4195  -29.3041   22.3670 N   0  0  0  0  0  0
  -26.4294  -37.3776   23.9405 N   0  0  0  0  0  0
  -24.6898  -31.0591   22.0998 N   0  0  0  0  0  0
  -23.4200  -28.8150   23.3010 O   0  0  0  0  0  0
  -28.3168  -26.4200   20.1668 O   0  0  0  0  0  0
  -26.5618  -34.8917   22.4674 O   0  0  0  0  0  0
  -23.5427  -32.1399   23.7350 O   0  0  0  0  0  0
  -30.9526  -19.4255   20.7053 C   0  0  0  0  0  0
  -31.0197  -17.9940   20.7646 C   0  0  0  0  0  0
  -28.6058  -19.3183   20.2250 C   0  0  0  0  0  0
  -29.7410  -20.1396   20.4548 C   0  0  0  0  0  0
  -29.8718  -17.1872   20.5449 C   0  0  0  0  0  0
  -28.6767  -17.8918   20.2396 C   0  0  0  0  0  0
  -28.8610  -23.9309   20.3032 C   0  0  0  0  0  0
  -30.3089  -23.8946   20.0827 C   0  0  0  0  0  0
  -28.0424  -25.0401   20.3548 C   0  0  0  0  0  0
  -28.4558  -22.4402   20.4767 C   0  0  0  0  0  0
  -30.8362  -22.4485   20.1995 C   0  0  0  0  0  0
  -29.6708  -21.5837   20.4208 N   0  0  0  0  0  0
  -27.5450  -17.1500   19.9012 N   0  0  0  0  0  0
  -29.7740  -15.7313   20.6930 N   0  0  0  0  0  0
  -31.0446  -24.8566   19.8421 O   0  0  0  0  0  0
  -31.4826  -12.5420   19.1447 H   0  0  0  0  0  0
  -30.3868  -11.4206   19.9065 H   0  0  0  0  0  0
  -29.7746  -11.7471   17.4877 H   0  0  0  0  0  0
  -29.6442  -13.4702   17.7325 H   0  0  0  0  0  0
  -27.8745  -11.2894   18.8818 H   0  0  0  0  0  0
  -27.3748  -12.5605   17.7984 H   0  0  0  0  0  0
  -27.6535  -14.2507   19.5083 H   0  0  0  0  0  0
  -28.7225  -12.0841   21.3886 H   0  0  0  0  0  0
  -28.4513  -13.7476   21.8288 H   0  0  0  0  0  0
  -25.2765   -9.5658   22.4749 H   0  0  0  0  0  0
  -23.9991   -7.4618   22.7477 H   0  0  0  0  0  0
  -21.0832   -8.8761   19.8952 H   0  0  0  0  0  0
  -22.3705  -10.9648   19.6149 H   0  0  0  0  0  0
  -21.2004   -7.6143   23.9717 H   0  0  0  0  0  0
  -21.1479   -6.0518   25.9079 H   0  0  0  0  0  0
  -22.0602   -2.7605   23.2850 H   0  0  0  0  0  0
  -22.4081  -11.9827   22.4803 H   0  0  0  0  0  0
  -21.1087  -13.1203   22.2644 H   0  0  0  0  0  0
  -24.6200  -15.8122   20.5999 H   0  0  0  0  0  0
  -26.2721  -15.6988   20.2992 H   0  0  0  0  0  0
  -26.7180  -32.5445   23.1110 H   0  0  0  0  0  0
  -25.0069  -33.9726   25.0427 H   0  0  0  0  0  0
  -22.7165  -31.3039   21.4027 H   0  0  0  0  0  0
  -23.3748  -35.9630   23.3311 H   0  0  0  0  0  0
  -24.3578  -36.8904   22.2052 H   0  0  0  0  0  0
  -23.7249  -37.6501   23.6656 H   0  0  0  0  0  0
  -26.1013  -31.5471   20.6135 H   0  0  0  0  0  0
  -26.8438  -30.8316   22.0130 H   0  0  0  0  0  0
  -28.1108  -28.9539   21.2281 H   0  0  0  0  0  0
  -26.0034  -25.9648   18.9334 H   0  0  0  0  0  0
  -23.9850  -27.3339   18.9689 H   0  0  0  0  0  0
  -23.7586  -30.5991   19.4053 H   0  0  0  0  0  0
  -22.7597  -29.2505   19.8558 H   0  0  0  0  0  0
  -25.1296  -36.1939   25.0824 H   0  0  0  0  0  0
  -20.9983  -28.3267   24.1399 H   0  0  0  0  0  0
  -20.5678  -26.2300   23.3611 H   0  0  0  0  0  0
  -21.6644  -26.7439   22.1202 H   0  0  0  0  0  0
  -19.6910  -25.6294   21.1244 H   0  0  0  0  0  0
  -19.6687  -27.3194   20.6744 H   0  0  0  0  0  0
  -17.4200  -26.6675   21.4030 H   0  0  0  0  0  0
  -18.0330  -26.0071   22.9024 H   0  0  0  0  0  0
  -19.7940  -30.7275   24.2261 H   0  0  0  0  0  0
  -17.5018  -31.6267   24.5165 H   0  0  0  0  0  0
  -15.5354  -30.2987   23.7656 H   0  0  0  0  0  0
  -15.8675  -28.0823   22.7068 H   0  0  0  0  0  0
  -24.5901  -30.7080   25.7791 H   0  0  0  0  0  0
  -24.8921  -32.2899   26.4884 H   0  0  0  0  0  0
  -25.8050  -30.8910   27.0238 H   0  0  0  0  0  0
  -26.2929  -29.6756   24.1222 H   0  0  0  0  0  0
  -27.4026  -29.7270   25.4721 H   0  0  0  0  0  0
  -27.8807  -30.4290   23.9452 H   0  0  0  0  0  0
  -27.2654  -33.3629   26.2080 H   0  0  0  0  0  0
  -28.3859  -32.6897   25.0333 H   0  0  0  0  0  0
  -28.0722  -31.8462   26.5423 H   0  0  0  0  0  0
  -28.2604  -38.0093   24.7500 H   0  0  0  0  0  0
  -28.1067  -36.2625   24.6310 H   0  0  0  0  0  0
  -27.2295  -37.1476   25.8869 H   0  0  0  0  0  0
  -20.9373  -29.8768   21.6883 H   0  0  0  0  0  0
  -26.0177  -38.2854   24.1396 H   0  0  0  0  0  0
  -31.8632  -19.9770   20.8887 H   0  0  0  0  0  0
  -31.9629  -17.5241   21.0031 H   0  0  0  0  0  0
  -27.6605  -19.7897   20.0009 H   0  0  0  0  0  0
  -27.0000  -24.8696   20.5802 H   0  0  0  0  0  0
  -27.7608  -22.1656   19.6818 H   0  0  0  0  0  0
  -27.9425  -22.3063   21.4303 H   0  0  0  0  0  0
  -31.5348  -22.3794   21.0338 H   0  0  0  0  0  0
  -31.3598  -22.1684   19.2849 H   0  0  0  0  0  0
  -26.7642  -17.7181   19.5887 H   0  0  0  0  0  0
  -27.7480  -16.4578   19.1886 H   0  0  0  0  0  0
  -28.8193  -15.4404   20.8405 H   0  0  0  0  0  0
  1 25  1  0  0  0
  1 30  2  0  0  0
  1 84  1  0  0  0
  2  3  1  0  0  0
  2 25  1  0  0  0
  2 86  1  0  0  0
  2 87  1  0  0  0
  3  4  1  0  0  0
  3 88  1  0  0  0
  3 89  1  0  0  0
  4  5  1  0  0  0
  4 90  1  0  0  0
  4 91  1  0  0  0
  5  6  1  0  0  0
  5 26  1  0  0  0
  5 92  1  0  0  0
  6 25  1  0  0  0
  6 93  1  0  0  0
  6 94  1  0  0  0
  7  8  2  0  0  0
  7 26  1  0  0  0
  7 29  1  0  0  0
  8  9  1  0  0  0
  8 22  1  0  0  0
  9 10  1  0  0  0
  9 27  2  0  0  0
 10 11  2  0  0  0
 10 15  1  0  0  0
 11 12  1  0  0  0
 11 95  1  0  0  0
 12 13  2  0  0  0
 12 96  1  0  0  0
 13 14  1  0  0  0
 13 31  1  0  0  0
 14 15  2  0  0  0
 14 97  1  0  0  0
 15 98  1  0  0  0
 16 17  2  0  0  0
 16 21  1  0  0  0
 16 31  1  0  0  0
 17 18  1  0  0  0
 17 99  1  0  0  0
 18 19  2  0  0  0
 18100  1  0  0  0
 19 20  1  0  0  0
 19 24  1  0  0  0
 20 21  2  0  0  0
 20101  1  0  0  0
 21 23  1  0  0  0
 22 28  1  0  0  0
 22 32  2  0  0  0
 26 27  1  0  0  0
 28102  1  0  0  0
 28103  1  0  0  0
 29104  1  0  0  0
 29105  1  0  0  0
 33 34  1  0  0  0
 33 66  1  0  0  0
 33 70  2  0  0  0
 34 36  1  0  0  0
 34 59  1  0  0  0
 34106  1  0  0  0
 35 44  2  0  0  0
 35 45  1  0  0  0
 35 68  1  0  0  0
 36 56  1  0  0  0
 36107  1  0  0  0
 37 39  1  0  0  0
 37 47  1  0  0  0
 37 66  1  0  0  0
 37108  1  0  0  0
 38 43  2  0  0  0
 38 46  1  0  0  0
 38 47  1  0  0  0
 39 64  1  0  0  0
 39 67  2  0  0  0
 40 52  1  0  0  0
 40 53  2  0  0  0
 40 58  1  0  0  0
 41109  1  0  0  0
 41110  1  0  0  0
 41111  1  0  0  0
 41 48  1  0  0  0
 42 43  1  0  0  0
 42 66  1  0  0  0
 42112  1  0  0  0
 42113  1  0  0  0
 43 44  1  0  0  0
 44114  1  0  0  0
 45 46  2  0  0  0
 45115  1  0  0  0
 46116  1  0  0  0
 47117  1  0  0  0
 47118  1  0  0  0
 48 56  1  0  0  0
 48 65  1  0  0  0
 48119  1  0  0  0
 49 50  1  0  0  0
 49 53  1  0  0  0
 49 64  1  0  0  0
 49120  1  0  0  0
 50 51  1  0  0  0
 50121  1  0  0  0
 50122  1  0  0  0
 51 52  1  0  0  0
 51123  1  0  0  0
 51124  1  0  0  0
 52125  1  0  0  0
 52126  1  0  0  0
 53 54  1  0  0  0
 54 55  2  0  0  0
 54127  1  0  0  0
 55 57  1  0  0  0
 55128  1  0  0  0
 56 69  2  0  0  0
 57 58  2  0  0  0
 57129  1  0  0  0
 58130  1  0  0  0
 59 60  1  0  0  0
 59 61  1  0  0  0
 59 62  1  0  0  0
 60131  1  0  0  0
 60132  1  0  0  0
 60133  1  0  0  0
 61134  1  0  0  0
 61135  1  0  0  0
 61136  1  0  0  0
 62137  1  0  0  0
 62138  1  0  0  0
 62139  1  0  0  0
 63 65  1  0  0  0
 63140  1  0  0  0
 63141  1  0  0  0
 63142  1  0  0  0
 64143  1  0  0  0
 65144  1  0  0  0
 68 79  1  0  0  0
 71 72  2  0  0  0
 71 74  1  0  0  0
 71145  1  0  0  0
 72 75  1  0  0  0
 72146  1  0  0  0
 73 74  2  0  0  0
 73 76  1  0  0  0
 73147  1  0  0  0
 74 82  1  0  0  0
 75 76  2  0  0  0
 75 84  1  0  0  0
 76 83  1  0  0  0
 77 78  1  0  0  0
 77 79  2  0  0  0
 77 80  1  0  0  0
 78 81  1  0  0  0
 78 85  2  0  0  0
 79148  1  0  0  0
 80 82  1  0  0  0
 80149  1  0  0  0
 80150  1  0  0  0
 81 82  1  0  0  0
 81151  1  0  0  0
 81152  1  0  0  0
 83153  1  0  0  0
 83154  1  0  0  0
 84155  1  0  0  0
M  ISO  4   1 100  68 101  79 101  84 100
M  END
> <chiral flag>
0

> <version>
0

> <s_m_source_file>
/data/baiqing/PycharmProjects/Reinvent-master-3.2/result/LINK_invent/BTK/process_docking_weight1_custom_product_contain_oxygen_bond_distance_aromatic_linkinvent_7_9_3/rearranged_h_0091.sdf

> <i_m_source_file_index>
75

> <r_mmod_Potential_Energy-OPLS-2005>
39.7794761657715

> <r_mmod_Stretch_Energy-OPLS-2005>
77.5871353149414

> <r_mmod_Bend_Energy-OPLS-2005>
193.600494384766

> <r_mmod_Torsional_Energy-OPLS-2005>
223.362075805664

> <r_mmod_Improper_Torsional_Energy-OPLS-2005>
11.5038614273071

> <r_mmod_Van_der_Waal_Energy-OPLS-2005>
146.435653686523

> <r_mmod_Electrostatic_Energy-OPLS-2005>
-432.465606689453

> <r_mmod_Solvation_Energy-OPLS-2005>
-240.994049072266

> <b_mmod_Minimization_Converged-OPLS-2005>
0

> <r_mmod_RMS_Derivative-OPLS-2005>
0.170559912919998

$$$$
75
                    3D
 Structure written by MMmdl.
151159  0  0  1  0            999 V2000
  -30.5970  -14.7284   20.4554 C   0  0  0  0  0  0
  -30.4500  -12.4448   19.4518 C   0  0  0  0  0  0
  -29.5079  -12.5152   18.2278 C   0  0  0  0  0  0
  -28.0333  -12.3399   18.6467 C   0  0  0  0  0  0
  -27.6486  -13.2248   19.8621 C   0  0  2  0  0  0
  -28.7050  -13.1182   20.9868 C   0  0  0  0  0  0
  -25.2490  -13.8116   20.5710 C   0  0  0  0  0  0
  -24.1784  -13.0365   20.9181 C   0  0  0  0  0  0
  -24.6406  -11.6866   20.8754 C   0  0  0  0  0  0
  -23.9083  -10.4258   21.0408 C   0  0  0  0  0  0
  -24.3630   -9.4173   21.9185 C   0  0  0  0  0  0
  -23.6291   -8.2221   22.0750 C   0  0  0  0  0  0
  -22.4273   -8.0273   21.3535 C   0  0  0  0  0  0
  -21.9915   -9.0248   20.4635 C   0  0  0  0  0  0
  -22.7259  -10.2116   20.3044 C   0  0  0  0  0  0
  -21.6845   -6.0739   22.5277 C   0  0  0  0  0  0
  -21.4010   -6.5643   23.8210 C   0  0  0  0  0  0
  -21.3653   -5.6792   24.9171 C   0  0  0  0  0  0
  -21.6046   -4.3054   24.7216 C   0  0  0  0  0  0
  -21.8828   -3.8150   23.4335 C   0  0  0  0  0  0
  -21.9194   -4.6972   22.3396 C   0  0  0  0  0  0
  -22.7809  -13.5162   21.1842 C   0  0  0  0  0  0
  -22.1663   -4.2164   21.0973 F   0  0  0  0  0  0
  -21.5626   -3.4534   25.7725 F   0  0  0  0  0  0
  -30.0117  -13.4817   20.4097 N   0  0  0  0  0  0
  -26.2981  -12.9364   20.3383 N   0  0  0  0  0  0
  -25.9349  -11.6503   20.5809 N   0  0  0  0  0  0
  -22.0476  -12.8162   22.0419 N   0  0  0  0  0  0
  -25.4002  -15.1829   20.4163 N   0  0  0  0  0  0
  -31.7758  -14.8886   20.1267 O   0  0  0  0  0  0
  -21.6625   -6.8879   21.4238 O   0  0  0  0  0  0
  -22.3488  -14.5474   20.6702 O   0  0  0  0  0  0
  -24.6316  -31.8543   23.1997 C   0  0  0  0  0  0
  -25.9146  -32.4738   23.8344 C   0  0  1  0  0  0
  -27.2339  -27.2898   20.1218 C   0  0  0  0  0  0
  -25.5951  -33.8542   24.2266 N   0  0  0  0  0  0
  -23.4293  -30.4779   21.5398 C   0  0  2  0  0  0
  -24.8816  -28.9269   20.1090 C   0  0  0  0  0  0
  -22.7501  -29.4614   22.4886 C   0  0  0  0  0  0
  -18.0290  -28.1398   22.8473 C   0  0  0  0  0  0
  -24.1489  -36.7271   23.2645 C   0  0  0  0  0  0
  -25.9738  -30.7761   21.3781 C   0  0  0  0  0  0
  -26.0517  -29.4012   20.7175 C   0  0  0  0  0  0
  -27.2340  -28.5938   20.7167 C   0  0  0  0  0  0
  -26.0441  -26.8751   19.4892 C   0  0  0  0  0  0
  -24.8800  -27.6693   19.4857 C   0  0  0  0  0  0
  -23.6494  -29.8102   20.1561 C   0  0  0  0  0  0
  -25.4115  -36.3054   24.0332 C   0  0  1  0  0  0
  -20.5900  -28.3716   23.1249 C   0  0  2  0  0  0
  -20.6780  -26.9429   22.5400 C   0  0  0  0  0  0
  -19.5760  -26.6390   21.5204 C   0  0  0  0  0  0
  -18.1937  -26.7941   22.1612 C   0  0  0  0  0  0
  -19.1545  -28.8873   23.2854 C   0  0  0  0  0  0
  -18.9471  -30.1469   23.8879 C   0  0  0  0  0  0
  -17.6475  -30.6592   24.0568 C   0  0  0  0  0  0
  -25.9056  -34.9426   23.5097 C   0  0  0  0  0  0
  -16.5363  -29.9092   23.6338 C   0  0  0  0  0  0
  -16.7281  -28.6514   23.0347 C   0  0  0  0  0  0
  -26.4526  -31.6563   25.0729 C   0  0  0  0  0  0
  -25.3764  -31.3703   26.1454 C   0  0  0  0  0  0
  -27.0398  -30.2981   24.6243 C   0  0  0  0  0  0
  -27.6074  -32.4322   25.7494 C   0  0  0  0  0  0
  -27.5571  -37.1789   24.8471 C   0  0  0  0  0  0
  -21.4207  -29.3061   22.3628 N   0  0  0  0  0  0
  -26.4285  -37.3755   23.9413 N   0  0  0  0  0  0
  -24.6967  -31.0536   22.0957 N   0  0  0  0  0  0
  -23.4198  -28.8153   23.2990 O   0  0  0  0  0  0
  -28.2822  -26.3485   20.1743 O   0  0  0  0  0  0
  -26.5610  -34.8904   22.4657 O   0  0  0  0  0  0
  -23.5467  -32.1358   23.7295 O   0  0  0  0  0  0
  -30.5508  -19.6212   20.5788 C   0  0  0  0  0  0
  -30.7843  -18.1918   20.5894 C   0  0  0  0  0  0
  -29.2387  -20.1904   20.5068 C   0  0  0  0  0  0
  -29.7119  -17.2479   20.5317 C   0  0  0  0  0  0
  -28.1888  -19.2404   20.3958 C   0  0  0  0  0  0
  -28.4259  -17.8301   20.3998 C   0  0  0  0  0  0
  -28.3379  -23.8937   21.1037 C   0  0  0  0  0  0
  -28.0466  -25.2540   21.0381 C   0  0  0  0  0  0
  -29.0638  -22.8522   20.3036 C   0  0  0  0  0  0
  -26.8677  -19.6939   20.3211 N   0  0  0  0  0  0
  -28.8595  -21.5875   20.8226 N   0  0  0  0  0  0
  -29.7326  -15.7733   20.6922 N   0  0  0  0  0  0
  -29.7739  -23.0653   19.3189 O   0  0  0  0  0  0
  -27.3641  -16.9970   20.3046 F   0  0  0  0  0  0
  -31.4842  -12.5928   19.1356 H   0  0  0  0  0  0
  -30.4151  -11.4569   19.9141 H   0  0  0  0  0  0
  -29.7805  -11.7523   17.4977 H   0  0  0  0  0  0
  -29.6303  -13.4767   17.7266 H   0  0  0  0  0  0
  -27.8824  -11.2883   18.8942 H   0  0  0  0  0  0
  -27.3724  -12.5508   17.8053 H   0  0  0  0  0  0
  -27.6460  -14.2530   19.5004 H   0  0  0  0  0  0
  -28.7397  -12.1043   21.3874 H   0  0  0  0  0  0
  -28.4445  -13.7621   21.8288 H   0  0  0  0  0  0
  -25.2782   -9.5640   22.4755 H   0  0  0  0  0  0
  -24.0003   -7.4607   22.7463 H   0  0  0  0  0  0
  -21.0846   -8.8764   19.8936 H   0  0  0  0  0  0
  -22.3733  -10.9655   19.6140 H   0  0  0  0  0  0
  -21.2003   -7.6151   23.9722 H   0  0  0  0  0  0
  -21.1462   -6.0514   25.9075 H   0  0  0  0  0  0
  -22.0620   -2.7616   23.2827 H   0  0  0  0  0  0
  -22.4101  -11.9803   22.4767 H   0  0  0  0  0  0
  -21.1097  -13.1175   22.2653 H   0  0  0  0  0  0
  -24.6271  -15.8232   20.5539 H   0  0  0  0  0  0
  -26.2663  -15.6710   20.2039 H   0  0  0  0  0  0
  -26.7218  -32.5404   23.1096 H   0  0  0  0  0  0
  -25.0148  -33.9691   25.0446 H   0  0  0  0  0  0
  -22.7266  -31.3007   21.3910 H   0  0  0  0  0  0
  -23.3751  -35.9608   23.3305 H   0  0  0  0  0  0
  -24.3582  -36.8892   22.2059 H   0  0  0  0  0  0
  -23.7248  -37.6476   23.6668 H   0  0  0  0  0  0
  -26.1157  -31.5418   20.6145 H   0  0  0  0  0  0
  -26.8487  -30.8190   22.0153 H   0  0  0  0  0  0
  -28.1282  -28.9459   21.2110 H   0  0  0  0  0  0
  -26.0111  -25.8999   19.0230 H   0  0  0  0  0  0
  -23.9827  -27.2974   19.0112 H   0  0  0  0  0  0
  -23.7740  -30.5875   19.4013 H   0  0  0  0  0  0
  -22.7688  -29.2433   19.8474 H   0  0  0  0  0  0
  -25.1299  -36.1893   25.0827 H   0  0  0  0  0  0
  -20.9990  -28.3298   24.1371 H   0  0  0  0  0  0
  -20.5670  -26.2331   23.3611 H   0  0  0  0  0  0
  -21.6646  -26.7447   22.1198 H   0  0  0  0  0  0
  -19.6921  -25.6296   21.1244 H   0  0  0  0  0  0
  -19.6695  -27.3193   20.6727 H   0  0  0  0  0  0
  -17.4203  -26.6686   21.4015 H   0  0  0  0  0  0
  -18.0335  -26.0089   22.9012 H   0  0  0  0  0  0
  -19.7954  -30.7281   24.2238 H   0  0  0  0  0  0
  -17.5033  -31.6271   24.5170 H   0  0  0  0  0  0
  -15.5360  -30.2987   23.7679 H   0  0  0  0  0  0
  -15.8678  -28.0829   22.7068 H   0  0  0  0  0  0
  -24.5967  -30.7013   25.7787 H   0  0  0  0  0  0
  -24.8938  -32.2863   26.4864 H   0  0  0  0  0  0
  -25.8111  -30.8906   27.0230 H   0  0  0  0  0  0
  -26.3004  -29.6677   24.1288 H   0  0  0  0  0  0
  -27.4084  -29.7285   25.4780 H   0  0  0  0  0  0
  -27.8864  -30.4236   23.9495 H   0  0  0  0  0  0
  -27.2685  -33.3633   26.2043 H   0  0  0  0  0  0
  -28.3896  -32.6857   25.0331 H   0  0  0  0  0  0
  -28.0730  -31.8472   26.5436 H   0  0  0  0  0  0
  -28.2581  -38.0084   24.7504 H   0  0  0  0  0  0
  -28.1066  -36.2614   24.6309 H   0  0  0  0  0  0
  -27.2287  -37.1445   25.8871 H   0  0  0  0  0  0
  -20.9387  -29.8759   21.6815 H   0  0  0  0  0  0
  -26.0153  -38.2825   24.1421 H   0  0  0  0  0  0
  -31.3967  -20.2818   20.7043 H   0  0  0  0  0  0
  -31.7963  -17.8294   20.7039 H   0  0  0  0  0  0
  -27.9136  -23.4801   22.0079 H   0  0  0  0  0  0
  -27.4711  -25.6228   21.8788 H   0  0  0  0  0  0
  -26.7313  -20.5564   19.8069 H   0  0  0  0  0  0
  -26.2023  -18.9819   20.0380 H   0  0  0  0  0  0
  -28.1364  -21.6031   21.5281 H   0  0  0  0  0  0
  -28.8077  -15.4178   20.8813 H   0  0  0  0  0  0
  1 25  1  0  0  0
  1 30  2  0  0  0
  1 82  1  0  0  0
  2  3  1  0  0  0
  2 25  1  0  0  0
  2 85  1  0  0  0
  2 86  1  0  0  0
  3  4  1  0  0  0
  3 87  1  0  0  0
  3 88  1  0  0  0
  4  5  1  0  0  0
  4 89  1  0  0  0
  4 90  1  0  0  0
  5  6  1  0  0  0
  5 26  1  0  0  0
  5 91  1  0  0  0
  6 25  1  0  0  0
  6 92  1  0  0  0
  6 93  1  0  0  0
  7  8  2  0  0  0
  7 26  1  0  0  0
  7 29  1  0  0  0
  8  9  1  0  0  0
  8 22  1  0  0  0
  9 10  1  0  0  0
  9 27  2  0  0  0
 10 11  2  0  0  0
 10 15  1  0  0  0
 11 12  1  0  0  0
 11 94  1  0  0  0
 12 13  2  0  0  0
 12 95  1  0  0  0
 13 14  1  0  0  0
 13 31  1  0  0  0
 14 15  2  0  0  0
 14 96  1  0  0  0
 15 97  1  0  0  0
 16 17  2  0  0  0
 16 21  1  0  0  0
 16 31  1  0  0  0
 17 18  1  0  0  0
 17 98  1  0  0  0
 18 19  2  0  0  0
 18 99  1  0  0  0
 19 20  1  0  0  0
 19 24  1  0  0  0
 20 21  2  0  0  0
 20100  1  0  0  0
 21 23  1  0  0  0
 22 28  1  0  0  0
 22 32  2  0  0  0
 26 27  1  0  0  0
 28101  1  0  0  0
 28102  1  0  0  0
 29103  1  0  0  0
 29104  1  0  0  0
 33 34  1  0  0  0
 33 66  1  0  0  0
 33 70  2  0  0  0
 34 36  1  0  0  0
 34 59  1  0  0  0
 34105  1  0  0  0
 35 44  2  0  0  0
 35 45  1  0  0  0
 35 68  1  0  0  0
 36 56  1  0  0  0
 36106  1  0  0  0
 37 39  1  0  0  0
 37 47  1  0  0  0
 37 66  1  0  0  0
 37107  1  0  0  0
 38 43  2  0  0  0
 38 46  1  0  0  0
 38 47  1  0  0  0
 39 64  1  0  0  0
 39 67  2  0  0  0
 40 52  1  0  0  0
 40 53  2  0  0  0
 40 58  1  0  0  0
 41108  1  0  0  0
 41109  1  0  0  0
 41110  1  0  0  0
 41 48  1  0  0  0
 42 43  1  0  0  0
 42 66  1  0  0  0
 42111  1  0  0  0
 42112  1  0  0  0
 43 44  1  0  0  0
 44113  1  0  0  0
 45 46  2  0  0  0
 45114  1  0  0  0
 46115  1  0  0  0
 47116  1  0  0  0
 47117  1  0  0  0
 48 56  1  0  0  0
 48 65  1  0  0  0
 48118  1  0  0  0
 49 50  1  0  0  0
 49 53  1  0  0  0
 49 64  1  0  0  0
 49119  1  0  0  0
 50 51  1  0  0  0
 50120  1  0  0  0
 50121  1  0  0  0
 51 52  1  0  0  0
 51122  1  0  0  0
 51123  1  0  0  0
 52124  1  0  0  0
 52125  1  0  0  0
 53 54  1  0  0  0
 54 55  2  0  0  0
 54126  1  0  0  0
 55 57  1  0  0  0
 55127  1  0  0  0
 56 69  2  0  0  0
 57 58  2  0  0  0
 57128  1  0  0  0
 58129  1  0  0  0
 59 60  1  0  0  0
 59 61  1  0  0  0
 59 62  1  0  0  0
 60130  1  0  0  0
 60131  1  0  0  0
 60132  1  0  0  0
 61133  1  0  0  0
 61134  1  0  0  0
 61135  1  0  0  0
 62136  1  0  0  0
 62137  1  0  0  0
 62138  1  0  0  0
 63 65  1  0  0  0
 63139  1  0  0  0
 63140  1  0  0  0
 63141  1  0  0  0
 64142  1  0  0  0
 65143  1  0  0  0
 68 78  1  0  0  0
 71 72  2  0  0  0
 71 73  1  0  0  0
 71144  1  0  0  0
 72 74  1  0  0  0
 72145  1  0  0  0
 73 75  2  0  0  0
 73 81  1  0  0  0
 74 76  2  0  0  0
 74 82  1  0  0  0
 75 76  1  0  0  0
 75 80  1  0  0  0
 76 84  1  0  0  0
 77 78  2  0  0  0
 77 79  1  0  0  0
 77146  1  0  0  0
 78147  1  0  0  0
 79 81  1  0  0  0
 79 83  2  0  0  0
 80148  1  0  0  0
 80149  1  0  0  0
 81150  1  0  0  0
 82151  1  0  0  0
M  ISO  4   1 100  68 101  78 101  82 100
M  END
> <chiral flag>
0

> <version>
0

> <s_m_source_file>
/data/baiqing/PycharmProjects/Reinvent-master-3.2/result/LINK_invent/BTK/process_docking_weight1_custom_product_contain_oxygen_bond_distance_aromatic_linkinvent_7_9_3/rearranged_h_0091.sdf

> <i_m_source_file_index>
76

> <r_mmod_Potential_Energy-OPLS-2005>
141.593872070312

> <r_mmod_Stretch_Energy-OPLS-2005>
97.0754547119141

> <r_mmod_Bend_Energy-OPLS-2005>
249.691436767578

> <r_mmod_Torsional_Energy-OPLS-2005>
267.574645996094

> <r_mmod_Improper_Torsional_Energy-OPLS-2005>
12.518536567688

> <r_mmod_Van_der_Waal_Energy-OPLS-2005>
140.734222412109

> <r_mmod_Electrostatic_Energy-OPLS-2005>
-474.324920654297

> <r_mmod_Solvation_Energy-OPLS-2005>
-231.573089599609

> <b_mmod_Minimization_Converged-OPLS-2005>
0

> <r_mmod_RMS_Derivative-OPLS-2005>
1.45497488975525

$$$$
76
                    3D
 Structure written by MMmdl.
156164  0  0  1  0            999 V2000
  -30.6067  -14.8086   20.4880 C   0  0  0  0  0  0
  -30.4386  -12.4987   19.4854 C   0  0  0  0  0  0
  -29.5172  -12.4771   18.2448 C   0  0  0  0  0  0
  -28.0384  -12.3233   18.6515 C   0  0  0  0  0  0
  -27.6376  -13.2328   19.8427 C   0  0  2  0  0  0
  -28.6787  -13.1777   20.9753 C   0  0  0  0  0  0
  -25.2508  -13.8200   20.5701 C   0  0  0  0  0  0
  -24.1796  -13.0443   20.9202 C   0  0  0  0  0  0
  -24.6387  -11.6920   20.8741 C   0  0  0  0  0  0
  -23.9068  -10.4295   21.0404 C   0  0  0  0  0  0
  -24.3620   -9.4211   21.9182 C   0  0  0  0  0  0
  -23.6295   -8.2246   22.0753 C   0  0  0  0  0  0
  -22.4277   -8.0282   21.3544 C   0  0  0  0  0  0
  -21.9912   -9.0255   20.4646 C   0  0  0  0  0  0
  -22.7239  -10.2134   20.3054 C   0  0  0  0  0  0
  -21.6855   -6.0735   22.5279 C   0  0  0  0  0  0
  -21.4015   -6.5639   23.8212 C   0  0  0  0  0  0
  -21.3660   -5.6791   24.9174 C   0  0  0  0  0  0
  -21.6045   -4.3054   24.7225 C   0  0  0  0  0  0
  -21.8819   -3.8146   23.4346 C   0  0  0  0  0  0
  -21.9193   -4.6963   22.3402 C   0  0  0  0  0  0
  -22.7820  -13.5224   21.1868 C   0  0  0  0  0  0
  -22.1662   -4.2148   21.0979 F   0  0  0  0  0  0
  -21.5630   -3.4538   25.7738 F   0  0  0  0  0  0
  -29.9717  -13.5759   20.3983 N   0  0  0  0  0  0
  -26.2918  -12.9401   20.3247 N   0  0  0  0  0  0
  -25.9314  -11.6545   20.5736 N   0  0  0  0  0  0
  -22.0473  -12.8209   22.0427 N   0  0  0  0  0  0
  -25.4221  -15.1926   20.4163 N   0  0  0  0  0  0
  -31.7800  -14.8890   20.1066 O   0  0  0  0  0  0
  -21.6642   -6.8878   21.4240 O   0  0  0  0  0  0
  -22.3499  -14.5528   20.6718 O   0  0  0  0  0  0
  -24.6354  -31.8518   23.1956 C   0  0  0  0  0  0
  -25.9163  -32.4734   23.8314 C   0  0  1  0  0  0
  -27.2203  -27.2223   20.1262 C   0  0  0  0  0  0
  -25.5943  -33.8538   24.2234 N   0  0  0  0  0  0
  -23.4338  -30.4745   21.5400 C   0  0  2  0  0  0
  -24.8807  -28.9176   20.1084 C   0  0  0  0  0  0
  -22.7523  -29.4585   22.4894 C   0  0  0  0  0  0
  -18.0296  -28.1390   22.8481 C   0  0  0  0  0  0
  -24.1491  -36.7273   23.2641 C   0  0  0  0  0  0
  -25.9837  -30.7518   21.3821 C   0  0  0  0  0  0
  -26.0546  -29.3718   20.7217 C   0  0  0  0  0  0
  -27.2233  -28.5365   20.7207 C   0  0  0  0  0  0
  -26.0150  -26.8462   19.4874 C   0  0  0  0  0  0
  -24.8685  -27.6644   19.4808 C   0  0  0  0  0  0
  -23.6539  -29.8094   20.1562 C   0  0  0  0  0  0
  -25.4119  -36.3057   24.0322 C   0  0  1  0  0  0
  -20.5903  -28.3705   23.1257 C   0  0  2  0  0  0
  -20.6782  -26.9417   22.5406 C   0  0  0  0  0  0
  -19.5756  -26.6382   21.5211 C   0  0  0  0  0  0
  -18.1937  -26.7930   22.1623 C   0  0  0  0  0  0
  -19.1550  -28.8865   23.2863 C   0  0  0  0  0  0
  -18.9470  -30.1464   23.8884 C   0  0  0  0  0  0
  -17.6468  -30.6589   24.0561 C   0  0  0  0  0  0
  -25.9064  -34.9428   23.5083 C   0  0  0  0  0  0
  -16.5359  -29.9084   23.6334 C   0  0  0  0  0  0
  -16.7281  -28.6502   23.0354 C   0  0  0  0  0  0
  -26.4513  -31.6574   25.0722 C   0  0  0  0  0  0
  -25.3720  -31.3740   26.1432 C   0  0  0  0  0  0
  -27.0368  -30.2983   24.6246 C   0  0  0  0  0  0
  -27.6055  -32.4327   25.7502 C   0  0  0  0  0  0
  -27.5578  -37.1793   24.8465 C   0  0  0  0  0  0
  -21.4226  -29.3045   22.3640 N   0  0  0  0  0  0
  -26.4289  -37.3761   23.9408 N   0  0  0  0  0  0
  -24.7037  -31.0449   22.0951 N   0  0  0  0  0  0
  -23.4206  -28.8127   23.3009 O   0  0  0  0  0  0
  -28.3089  -26.3045   20.2099 O   0  0  0  0  0  0
  -26.5641  -34.8911   22.4655 O   0  0  0  0  0  0
  -23.5494  -32.1359   23.7227 O   0  0  0  0  0  0
  -29.2182  -19.6149   18.4551 C   0  0  0  0  0  0
  -29.3103  -18.3308   17.8933 C   0  0  0  0  0  0
  -29.5698  -18.6183   20.6301 C   0  0  0  0  0  0
  -29.3013  -19.8344   19.8470 C   0  0  0  0  0  0
  -29.5042  -17.1726   18.6710 C   0  0  0  0  0  0
  -29.6841  -17.2460   20.0824 C   0  0  0  0  0  0
  -30.0305  -15.3932   23.2931 C   0  0  0  0  0  0
  -29.5651  -16.1111   22.2504 C   0  0  0  0  0  0
  -28.2151  -24.9245   19.8046 C   0  0  0  0  0  0
  -28.7542  -23.7678   20.3791 C   0  0  0  0  0  0
  -28.5734  -22.3810   19.7702 C   0  0  0  0  0  0
  -29.4577  -15.9685   17.9745 N   0  0  0  0  0  0
  -29.1736  -21.2531   20.3549 N   0  0  0  0  0  0
  -29.9025  -15.9712   20.8853 N   0  0  0  0  0  0
  -27.8646  -22.2402   18.7713 O   0  0  0  0  0  0
  -29.4678  -23.8736   21.5085 O   0  0  0  0  0  0
  -31.4745  -12.6389   19.1730 H   0  0  0  0  0  0
  -30.4159  -11.5350   19.9964 H   0  0  0  0  0  0
  -29.8032  -11.6569   17.5849 H   0  0  0  0  0  0
  -29.6553  -13.3830   17.6585 H   0  0  0  0  0  0
  -27.8879  -11.2783   18.9245 H   0  0  0  0  0  0
  -27.3877  -12.5079   17.7961 H   0  0  0  0  0  0
  -27.6253  -14.2530   19.4602 H   0  0  0  0  0  0
  -28.7376  -12.1755   21.4020 H   0  0  0  0  0  0
  -28.3707  -13.8287   21.7901 H   0  0  0  0  0  0
  -25.2765   -9.5688   22.4756 H   0  0  0  0  0  0
  -24.0005   -7.4637   22.7472 H   0  0  0  0  0  0
  -21.0843   -8.8772   19.8952 H   0  0  0  0  0  0
  -22.3695  -10.9672   19.6164 H   0  0  0  0  0  0
  -21.2007   -7.6147   23.9714 H   0  0  0  0  0  0
  -21.1483   -6.0522   25.9077 H   0  0  0  0  0  0
  -22.0598   -2.7608   23.2846 H   0  0  0  0  0  0
  -22.4096  -11.9871   22.4809 H   0  0  0  0  0  0
  -21.1091  -13.1228   22.2641 H   0  0  0  0  0  0
  -24.6606  -15.8508   20.5388 H   0  0  0  0  0  0
  -26.2837  -15.6339   20.1201 H   0  0  0  0  0  0
  -26.7227  -32.5369   23.1048 H   0  0  0  0  0  0
  -25.0078  -33.9668   25.0373 H   0  0  0  0  0  0
  -22.7321  -31.2982   21.3927 H   0  0  0  0  0  0
  -23.3755  -35.9603   23.3297 H   0  0  0  0  0  0
  -24.3579  -36.8906   22.2056 H   0  0  0  0  0  0
  -23.7243  -37.6469   23.6674 H   0  0  0  0  0  0
  -26.1298  -31.5116   20.6130 H   0  0  0  0  0  0
  -26.8583  -30.7987   22.0193 H   0  0  0  0  0  0
  -28.1195  -28.8775   21.2196 H   0  0  0  0  0  0
  -25.9072  -25.8852   19.0110 H   0  0  0  0  0  0
  -23.9681  -27.3085   18.9992 H   0  0  0  0  0  0
  -23.7825  -30.5865   19.4018 H   0  0  0  0  0  0
  -22.7707  -29.2466   19.8488 H   0  0  0  0  0  0
  -25.1304  -36.1895   25.0814 H   0  0  0  0  0  0
  -20.9995  -28.3288   24.1377 H   0  0  0  0  0  0
  -20.5678  -26.2317   23.3616 H   0  0  0  0  0  0
  -21.6649  -26.7433   22.1203 H   0  0  0  0  0  0
  -19.6918  -25.6290   21.1249 H   0  0  0  0  0  0
  -19.6694  -27.3186   20.6737 H   0  0  0  0  0  0
  -17.4206  -26.6675   21.4027 H   0  0  0  0  0  0
  -18.0338  -26.0075   22.9023 H   0  0  0  0  0  0
  -19.7946  -30.7283   24.2247 H   0  0  0  0  0  0
  -17.5022  -31.6268   24.5164 H   0  0  0  0  0  0
  -15.5359  -30.2981   23.7665 H   0  0  0  0  0  0
  -15.8682  -28.0818   22.7075 H   0  0  0  0  0  0
  -24.5904  -30.7079   25.7758 H   0  0  0  0  0  0
  -24.8902  -32.2914   26.4822 H   0  0  0  0  0  0
  -25.8023  -30.8941   27.0231 H   0  0  0  0  0  0
  -26.2968  -29.6718   24.1253 H   0  0  0  0  0  0
  -27.4011  -29.7261   25.4790 H   0  0  0  0  0  0
  -27.8862  -30.4240   23.9528 H   0  0  0  0  0  0
  -27.2654  -33.3637   26.2049 H   0  0  0  0  0  0
  -28.3882  -32.6872   25.0343 H   0  0  0  0  0  0
  -28.0705  -31.8474   26.5445 H   0  0  0  0  0  0
  -28.2589  -38.0095   24.7513 H   0  0  0  0  0  0
  -28.1081  -36.2625   24.6290 H   0  0  0  0  0  0
  -27.2296  -37.1438   25.8868 H   0  0  0  0  0  0
  -20.9418  -29.8767   21.6840 H   0  0  0  0  0  0
  -26.0163  -38.2831   24.1411 H   0  0  0  0  0  0
  -29.0790  -20.4345   17.7673 H   0  0  0  0  0  0
  -29.2032  -18.2460   16.8209 H   0  0  0  0  0  0
  -29.6890  -18.7560   21.6941 H   0  0  0  0  0  0
  -29.6738  -15.5992   24.2927 H   0  0  0  0  0  0
  -30.7603  -14.6023   23.1939 H   0  0  0  0  0  0
  -28.8299  -16.8814   22.4331 H   0  0  0  0  0  0
  -27.6609  -24.8314   18.8826 H   0  0  0  0  0  0
  -29.1139  -15.9957   17.0205 H   0  0  0  0  0  0
  -29.1482  -15.1418   18.4663 H   0  0  0  0  0  0
  -29.6118  -21.4507   21.2451 H   0  0  0  0  0  0
  -29.4820  -24.7941   21.7389 H   0  0  0  0  0  0
  1 25  1  0  0  0
  1 30  2  0  0  0
  1 84  1  0  0  0
  2  3  1  0  0  0
  2 25  1  0  0  0
  2 87  1  0  0  0
  2 88  1  0  0  0
  3  4  1  0  0  0
  3 89  1  0  0  0
  3 90  1  0  0  0
  4  5  1  0  0  0
  4 91  1  0  0  0
  4 92  1  0  0  0
  5  6  1  0  0  0
  5 26  1  0  0  0
  5 93  1  0  0  0
  6 25  1  0  0  0
  6 94  1  0  0  0
  6 95  1  0  0  0
  7  8  2  0  0  0
  7 26  1  0  0  0
  7 29  1  0  0  0
  8  9  1  0  0  0
  8 22  1  0  0  0
  9 10  1  0  0  0
  9 27  2  0  0  0
 10 11  2  0  0  0
 10 15  1  0  0  0
 11 12  1  0  0  0
 11 96  1  0  0  0
 12 13  2  0  0  0
 12 97  1  0  0  0
 13 14  1  0  0  0
 13 31  1  0  0  0
 14 15  2  0  0  0
 14 98  1  0  0  0
 15 99  1  0  0  0
 16 17  2  0  0  0
 16 21  1  0  0  0
 16 31  1  0  0  0
 17 18  1  0  0  0
 17100  1  0  0  0
 18 19  2  0  0  0
 18101  1  0  0  0
 19 20  1  0  0  0
 19 24  1  0  0  0
 20 21  2  0  0  0
 20102  1  0  0  0
 21 23  1  0  0  0
 22 28  1  0  0  0
 22 32  2  0  0  0
 26 27  1  0  0  0
 28103  1  0  0  0
 28104  1  0  0  0
 29105  1  0  0  0
 29106  1  0  0  0
 33 34  1  0  0  0
 33 66  1  0  0  0
 33 70  2  0  0  0
 34 36  1  0  0  0
 34 59  1  0  0  0
 34107  1  0  0  0
 35 44  2  0  0  0
 35 45  1  0  0  0
 35 68  1  0  0  0
 36 56  1  0  0  0
 36108  1  0  0  0
 37 39  1  0  0  0
 37 47  1  0  0  0
 37 66  1  0  0  0
 37109  1  0  0  0
 38 43  2  0  0  0
 38 46  1  0  0  0
 38 47  1  0  0  0
 39 64  1  0  0  0
 39 67  2  0  0  0
 40 52  1  0  0  0
 40 53  2  0  0  0
 40 58  1  0  0  0
 41110  1  0  0  0
 41111  1  0  0  0
 41112  1  0  0  0
 41 48  1  0  0  0
 42 43  1  0  0  0
 42 66  1  0  0  0
 42113  1  0  0  0
 42114  1  0  0  0
 43 44  1  0  0  0
 44115  1  0  0  0
 45 46  2  0  0  0
 45116  1  0  0  0
 46117  1  0  0  0
 47118  1  0  0  0
 47119  1  0  0  0
 48 56  1  0  0  0
 48 65  1  0  0  0
 48120  1  0  0  0
 49 50  1  0  0  0
 49 53  1  0  0  0
 49 64  1  0  0  0
 49121  1  0  0  0
 50 51  1  0  0  0
 50122  1  0  0  0
 50123  1  0  0  0
 51 52  1  0  0  0
 51124  1  0  0  0
 51125  1  0  0  0
 52126  1  0  0  0
 52127  1  0  0  0
 53 54  1  0  0  0
 54 55  2  0  0  0
 54128  1  0  0  0
 55 57  1  0  0  0
 55129  1  0  0  0
 56 69  2  0  0  0
 57 58  2  0  0  0
 57130  1  0  0  0
 58131  1  0  0  0
 59 60  1  0  0  0
 59 61  1  0  0  0
 59 62  1  0  0  0
 60132  1  0  0  0
 60133  1  0  0  0
 60134  1  0  0  0
 61135  1  0  0  0
 61136  1  0  0  0
 61137  1  0  0  0
 62138  1  0  0  0
 62139  1  0  0  0
 62140  1  0  0  0
 63 65  1  0  0  0
 63141  1  0  0  0
 63142  1  0  0  0
 63143  1  0  0  0
 64144  1  0  0  0
 65145  1  0  0  0
 68 79  1  0  0  0
 71 72  2  0  0  0
 71 74  1  0  0  0
 71146  1  0  0  0
 72 75  1  0  0  0
 72147  1  0  0  0
 73 74  2  0  0  0
 73 76  1  0  0  0
 73148  1  0  0  0
 74 83  1  0  0  0
 75 76  2  0  0  0
 75 82  1  0  0  0
 76 84  1  0  0  0
 77 78  2  0  0  0
 77149  1  0  0  0
 77150  1  0  0  0
 78 84  1  0  0  0
 78151  1  0  0  0
 79 80  2  0  0  0
 79152  1  0  0  0
 80 81  1  0  0  0
 80 86  1  0  0  0
 81 83  1  0  0  0
 81 85  2  0  0  0
 82153  1  0  0  0
 82154  1  0  0  0
 83155  1  0  0  0
 86156  1  0  0  0
M  ISO  4   1 100  68 101  79 101  84 100
M  END
> <chiral flag>
0

> <version>
0

> <s_m_source_file>
/data/baiqing/PycharmProjects/Reinvent-master-3.2/result/LINK_invent/BTK/process_docking_weight1_custom_product_contain_oxygen_bond_distance_aromatic_linkinvent_7_9_3/rearranged_h_0091.sdf

> <i_m_source_file_index>
77

> <r_mmod_Potential_Energy-OPLS-2005>
289.809997558594

> <r_mmod_Stretch_Energy-OPLS-2005>
170.88166809082

> <r_mmod_Bend_Energy-OPLS-2005>
182.660827636719

> <r_mmod_Torsional_Energy-OPLS-2005>
292.476531982422

> <r_mmod_Improper_Torsional_Energy-OPLS-2005>
7.05944776535034

> <r_mmod_Van_der_Waal_Energy-OPLS-2005>
165.913436889648

> <r_mmod_Electrostatic_Energy-OPLS-2005>
-418.406585693359

> <r_mmod_Solvation_Energy-OPLS-2005>
-221.505905151367

> <b_mmod_Minimization_Converged-OPLS-2005>
0

> <r_mmod_RMS_Derivative-OPLS-2005>
0.117408104240894

$$$$
77
                    3D
 Structure written by MMmdl.
150158  0  0  1  0            999 V2000
  -30.3519  -15.4117   20.2475 C   0  0  0  0  0  0
  -30.4127  -12.8818   19.5589 C   0  0  0  0  0  0
  -29.5518  -12.6049   18.2994 C   0  0  0  0  0  0
  -28.1054  -12.2883   18.7273 C   0  0  0  0  0  0
  -27.6011  -13.2761   19.8108 C   0  0  2  0  0  0
  -28.6090  -13.5362   20.9467 C   0  0  0  0  0  0
  -25.2370  -13.8174   20.5678 C   0  0  0  0  0  0
  -24.1725  -13.0420   20.9180 C   0  0  0  0  0  0
  -24.6404  -11.6899   20.8706 C   0  0  0  0  0  0
  -23.9096  -10.4267   21.0375 C   0  0  0  0  0  0
  -24.3649   -9.4169   21.9152 C   0  0  0  0  0  0
  -23.6259   -8.2243   22.0777 C   0  0  0  0  0  0
  -22.4241   -8.0291   21.3531 C   0  0  0  0  0  0
  -21.9874   -9.0261   20.4628 C   0  0  0  0  0  0
  -22.7252  -10.2110   20.3006 C   0  0  0  0  0  0
  -21.6857   -6.0718   22.5280 C   0  0  0  0  0  0
  -21.4012   -6.5628   23.8214 C   0  0  0  0  0  0
  -21.3686   -5.6796   24.9188 C   0  0  0  0  0  0
  -21.6068   -4.3065   24.7237 C   0  0  0  0  0  0
  -21.8799   -3.8118   23.4376 C   0  0  0  0  0  0
  -21.9180   -4.6935   22.3416 C   0  0  0  0  0  0
  -22.7770  -13.5194   21.1885 C   0  0  0  0  0  0
  -22.1614   -4.2096   21.1001 F   0  0  0  0  0  0
  -21.5683   -3.4572   25.7772 F   0  0  0  0  0  0
  -29.8353  -14.0695   20.3195 N   0  0  0  0  0  0
  -26.2783  -12.9432   20.3098 N   0  0  0  0  0  0
  -25.9315  -11.6564   20.5597 N   0  0  0  0  0  0
  -22.0427  -12.8215   22.0461 N   0  0  0  0  0  0
  -25.4127  -15.1894   20.4238 N   0  0  0  0  0  0
  -31.5604  -15.3821   19.9630 O   0  0  0  0  0  0
  -21.6641   -6.8874   21.4217 O   0  0  0  0  0  0
  -22.3453  -14.5539   20.6805 O   0  0  0  0  0  0
  -24.6781  -31.8118   23.1570 C   0  0  0  0  0  0
  -25.9402  -32.4479   23.8100 C   0  0  1  0  0  0
  -27.2162  -26.8352   20.1296 C   0  0  0  0  0  0
  -25.5984  -33.8297   24.2006 N   0  0  0  0  0  0
  -23.4962  -30.4257   21.5148 C   0  0  2  0  0  0
  -24.9430  -28.7850   20.1122 C   0  0  0  0  0  0
  -22.7777  -29.4440   22.4781 C   0  0  0  0  0  0
  -18.0376  -28.1350   22.8411 C   0  0  0  0  0  0
  -24.1504  -36.7174   23.2676 C   0  0  0  0  0  0
  -26.0762  -30.5742   21.4022 C   0  0  0  0  0  0
  -26.1355  -29.1581   20.7432 C   0  0  0  0  0  0
  -27.2691  -28.2138   20.7123 C   0  0  0  0  0  0
  -25.9856  -26.6333   19.4715 C   0  0  0  0  0  0
  -24.8998  -27.5464   19.4563 C   0  0  0  0  0  0
  -23.7394  -29.7300   20.1466 C   0  0  0  0  0  0
  -25.4106  -36.2895   24.0319 C   0  0  1  0  0  0
  -20.6005  -28.3774   23.1219 C   0  0  2  0  0  0
  -20.6854  -26.9474   22.5464 C   0  0  0  0  0  0
  -19.5839  -26.6303   21.5242 C   0  0  0  0  0  0
  -18.2010  -26.7857   22.1595 C   0  0  0  0  0  0
  -19.1581  -28.8899   23.2759 C   0  0  0  0  0  0
  -18.9459  -30.1542   23.8687 C   0  0  0  0  0  0
  -17.6406  -30.6585   24.0361 C   0  0  0  0  0  0
  -25.9084  -34.9282   23.4980 C   0  0  0  0  0  0
  -16.5333  -29.8976   23.6195 C   0  0  0  0  0  0
  -16.7353  -28.6395   23.0277 C   0  0  0  0  0  0
  -26.4606  -31.6480   25.0711 C   0  0  0  0  0  0
  -25.3703  -31.3799   26.1348 C   0  0  0  0  0  0
  -27.0515  -30.2814   24.6548 C   0  0  0  0  0  0
  -27.6044  -32.4350   25.7526 C   0  0  0  0  0  0
  -27.5511  -37.1738   24.8463 C   0  0  0  0  0  0
  -21.4415  -29.3114   22.3594 N   0  0  0  0  0  0
  -26.4218  -37.3627   23.9397 N   0  0  0  0  0  0
  -24.7775  -30.9678   22.0782 N   0  0  0  0  0  0
  -23.4304  -28.8016   23.3046 O   0  0  0  0  0  0
  -28.2174  -25.6984   20.0638 O   0  0  0  0  0  0
  -26.5751  -34.8889   22.4635 O   0  0  0  0  0  0
  -23.5838  -32.1135   23.6622 O   0  0  0  0  0  0
  -29.1473  -20.2264   17.9874 C   0  0  0  0  0  0
  -29.3554  -19.4999   16.7968 C   0  0  0  0  0  0
  -29.6190  -17.5023   18.1126 C   0  0  0  0  0  0
  -29.1426  -19.7136   19.3335 C   0  0  0  0  0  0
  -29.5478  -18.1262   16.8668 C   0  0  0  0  0  0
  -29.4764  -18.1058   19.4000 C   0  0  0  0  0  0
  -28.0391  -24.1407   20.2065 C   0  0  0  0  0  0
  -28.6724  -21.1664   20.2094 C   0  0  0  0  0  0
  -28.8073  -22.8897   19.8708 C   0  0  0  0  0  0
  -29.6722  -17.3537   15.7082 N   0  0  0  0  0  0
  -29.6126  -16.7457   20.3414 N   0  0  0  0  0  0
  -28.1335  -20.9256   21.2917 O   0  0  0  0  0  0
  -29.9419  -23.1085   19.1819 O   0  0  0  0  0  0
  -31.4531  -13.0598   19.2744 H   0  0  0  0  0  0
  -30.4410  -11.9894   20.1867 H   0  0  0  0  0  0
  -29.9740  -11.7740   17.7263 H   0  0  0  0  0  0
  -29.5704  -13.4697   17.6317 H   0  0  0  0  0  0
  -28.1140  -11.2804   19.1400 H   0  0  0  0  0  0
  -27.4322  -12.2622   17.8680 H   0  0  0  0  0  0
  -27.4949  -14.2215   19.2811 H   0  0  0  0  0  0
  -28.7767  -12.6311   21.5371 H   0  0  0  0  0  0
  -28.2087  -14.2845   21.6325 H   0  0  0  0  0  0
  -25.2830   -9.5676   22.4684 H   0  0  0  0  0  0
  -23.9985   -7.4658   22.7584 H   0  0  0  0  0  0
  -21.0813   -8.8803   19.8942 H   0  0  0  0  0  0
  -22.3735  -10.9658   19.6091 H   0  0  0  0  0  0
  -21.1939   -7.6132   23.9695 H   0  0  0  0  0  0
  -21.1552   -6.0547   25.9109 H   0  0  0  0  0  0
  -22.0533   -2.7573   23.2930 H   0  0  0  0  0  0
  -22.4062  -11.9827   22.4794 H   0  0  0  0  0  0
  -21.1022  -13.1192   22.2736 H   0  0  0  0  0  0
  -24.6496  -15.8482   20.5240 H   0  0  0  0  0  0
  -26.2988  -15.6315   20.2184 H   0  0  0  0  0  0
  -26.7492  -32.4990   23.0811 H   0  0  0  0  0  0
  -24.9901  -33.9331   24.9991 H   0  0  0  0  0  0
  -22.8167  -31.2623   21.3302 H   0  0  0  0  0  0
  -23.3717  -35.9543   23.3311 H   0  0  0  0  0  0
  -24.3592  -36.8835   22.2095 H   0  0  0  0  0  0
  -23.7302  -37.6382   23.6756 H   0  0  0  0  0  0
  -26.2729  -31.3023   20.6163 H   0  0  0  0  0  0
  -26.9345  -30.6313   22.0629 H   0  0  0  0  0  0
  -28.1952  -28.5277   21.1780 H   0  0  0  0  0  0
  -25.8487  -25.6883   18.9660 H   0  0  0  0  0  0
  -24.0017  -27.2644   18.9305 H   0  0  0  0  0  0
  -23.9144  -30.4945   19.3884 H   0  0  0  0  0  0
  -22.8421  -29.2000   19.8186 H   0  0  0  0  0  0
  -25.1319  -36.1663   25.0793 H   0  0  0  0  0  0
  -21.0080  -28.3460   24.1323 H   0  0  0  0  0  0
  -20.5987  -26.2536   23.3842 H   0  0  0  0  0  0
  -21.6710  -26.7507   22.1215 H   0  0  0  0  0  0
  -19.7019  -25.6153   21.1310 H   0  0  0  0  0  0
  -19.6810  -27.3067   20.6745 H   0  0  0  0  0  0
  -17.4268  -26.6517   21.3965 H   0  0  0  0  0  0
  -18.0305  -26.0040   22.9023 H   0  0  0  0  0  0
  -19.7938  -30.7435   24.1950 H   0  0  0  0  0  0
  -17.4830  -31.6379   24.4774 H   0  0  0  0  0  0
  -15.5273  -30.2759   23.7387 H   0  0  0  0  0  0
  -15.8760  -28.0637   22.7030 H   0  0  0  0  0  0
  -24.5886  -30.7109   25.7727 H   0  0  0  0  0  0
  -24.8878  -32.3042   26.4578 H   0  0  0  0  0  0
  -25.7930  -30.9138   27.0238 H   0  0  0  0  0  0
  -26.3209  -29.6429   24.1524 H   0  0  0  0  0  0
  -27.3984  -29.7236   25.5259 H   0  0  0  0  0  0
  -27.9207  -30.3973   24.0034 H   0  0  0  0  0  0
  -27.2526  -33.3683   26.1910 H   0  0  0  0  0  0
  -28.3940  -32.6789   25.0419 H   0  0  0  0  0  0
  -28.0580  -31.8560   26.5586 H   0  0  0  0  0  0
  -28.2533  -38.0030   24.7393 H   0  0  0  0  0  0
  -28.1016  -36.2524   24.6400 H   0  0  0  0  0  0
  -27.2251  -37.1499   25.8889 H   0  0  0  0  0  0
  -20.9686  -29.8951   21.6834 H   0  0  0  0  0  0
  -26.0076  -38.2689   24.1340 H   0  0  0  0  0  0
  -28.8972  -21.2546   17.7676 H   0  0  0  0  0  0
  -29.3388  -19.9972   15.8354 H   0  0  0  0  0  0
  -29.7698  -16.4387   18.0167 H   0  0  0  0  0  0
  -27.1047  -23.9982   20.7312 H   0  0  0  0  0  0
  -28.9700  -17.4727   14.9782 H   0  0  0  0  0  0
  -29.8808  -16.3661   15.8647 H   0  0  0  0  0  0
  -28.8322  -16.6763   20.9772 H   0  0  0  0  0  0
  -30.4181  -22.2823   19.1454 H   0  0  0  0  0  0
  1 25  1  0  0  0
  1 30  2  0  0  0
  1 81  1  0  0  0
  2  3  1  0  0  0
  2 25  1  0  0  0
  2 84  1  0  0  0
  2 85  1  0  0  0
  3  4  1  0  0  0
  3 86  1  0  0  0
  3 87  1  0  0  0
  4  5  1  0  0  0
  4 88  1  0  0  0
  4 89  1  0  0  0
  5  6  1  0  0  0
  5 26  1  0  0  0
  5 90  1  0  0  0
  6 25  1  0  0  0
  6 91  1  0  0  0
  6 92  1  0  0  0
  7  8  2  0  0  0
  7 26  1  0  0  0
  7 29  1  0  0  0
  8  9  1  0  0  0
  8 22  1  0  0  0
  9 10  1  0  0  0
  9 27  2  0  0  0
 10 11  2  0  0  0
 10 15  1  0  0  0
 11 12  1  0  0  0
 11 93  1  0  0  0
 12 13  2  0  0  0
 12 94  1  0  0  0
 13 14  1  0  0  0
 13 31  1  0  0  0
 14 15  2  0  0  0
 14 95  1  0  0  0
 15 96  1  0  0  0
 16 17  2  0  0  0
 16 21  1  0  0  0
 16 31  1  0  0  0
 17 18  1  0  0  0
 17 97  1  0  0  0
 18 19  2  0  0  0
 18 98  1  0  0  0
 19 20  1  0  0  0
 19 24  1  0  0  0
 20 21  2  0  0  0
 20 99  1  0  0  0
 21 23  1  0  0  0
 22 28  1  0  0  0
 22 32  2  0  0  0
 26 27  1  0  0  0
 28100  1  0  0  0
 28101  1  0  0  0
 29102  1  0  0  0
 29103  1  0  0  0
 33 34  1  0  0  0
 33 66  1  0  0  0
 33 70  2  0  0  0
 34 36  1  0  0  0
 34 59  1  0  0  0
 34104  1  0  0  0
 35 44  2  0  0  0
 35 45  1  0  0  0
 35 68  1  0  0  0
 36 56  1  0  0  0
 36105  1  0  0  0
 37 39  1  0  0  0
 37 47  1  0  0  0
 37 66  1  0  0  0
 37106  1  0  0  0
 38 43  2  0  0  0
 38 46  1  0  0  0
 38 47  1  0  0  0
 39 64  1  0  0  0
 39 67  2  0  0  0
 40 52  1  0  0  0
 40 53  2  0  0  0
 40 58  1  0  0  0
 41107  1  0  0  0
 41108  1  0  0  0
 41109  1  0  0  0
 41 48  1  0  0  0
 42 43  1  0  0  0
 42 66  1  0  0  0
 42110  1  0  0  0
 42111  1  0  0  0
 43 44  1  0  0  0
 44112  1  0  0  0
 45 46  2  0  0  0
 45113  1  0  0  0
 46114  1  0  0  0
 47115  1  0  0  0
 47116  1  0  0  0
 48 56  1  0  0  0
 48 65  1  0  0  0
 48117  1  0  0  0
 49 50  1  0  0  0
 49 53  1  0  0  0
 49 64  1  0  0  0
 49118  1  0  0  0
 50 51  1  0  0  0
 50119  1  0  0  0
 50120  1  0  0  0
 51 52  1  0  0  0
 51121  1  0  0  0
 51122  1  0  0  0
 52123  1  0  0  0
 52124  1  0  0  0
 53 54  1  0  0  0
 54 55  2  0  0  0
 54125  1  0  0  0
 55 57  1  0  0  0
 55126  1  0  0  0
 56 69  2  0  0  0
 57 58  2  0  0  0
 57127  1  0  0  0
 58128  1  0  0  0
 59 60  1  0  0  0
 59 61  1  0  0  0
 59 62  1  0  0  0
 60129  1  0  0  0
 60130  1  0  0  0
 60131  1  0  0  0
 61132  1  0  0  0
 61133  1  0  0  0
 61134  1  0  0  0
 62135  1  0  0  0
 62136  1  0  0  0
 62137  1  0  0  0
 63 65  1  0  0  0
 63138  1  0  0  0
 63139  1  0  0  0
 63140  1  0  0  0
 64141  1  0  0  0
 65142  1  0  0  0
 68 77  1  0  0  0
 71 72  2  0  0  0
 71 74  1  0  0  0
 71143  1  0  0  0
 72 75  1  0  0  0
 72144  1  0  0  0
 73 75  2  0  0  0
 73 76  1  0  0  0
 73145  1  0  0  0
 74 76  2  0  0  0
 74 78  1  0  0  0
 75 80  1  0  0  0
 76 81  1  0  0  0
 77 79  2  0  0  0
 77146  1  0  0  0
 78 79  1  0  0  0
 78 82  2  0  0  0
 79 83  1  0  0  0
 80147  1  0  0  0
 80148  1  0  0  0
 81149  1  0  0  0
 83150  1  0  0  0
M  ISO  4   1 100  68 101  77 101  81 100
M  END
> <chiral flag>
0

> <version>
0

> <s_m_source_file>
/data/baiqing/PycharmProjects/Reinvent-master-3.2/result/LINK_invent/BTK/process_docking_weight1_custom_product_contain_oxygen_bond_distance_aromatic_linkinvent_7_9_3/rearranged_h_0091.sdf

> <i_m_source_file_index>
78

> <r_mmod_Potential_Energy-OPLS-2005>
1909.73486328125

> <r_mmod_Stretch_Energy-OPLS-2005>
819.300476074219

> <r_mmod_Bend_Energy-OPLS-2005>
584.23291015625

> <r_mmod_Torsional_Energy-OPLS-2005>
266.712432861328

> <r_mmod_Improper_Torsional_Energy-OPLS-2005>
9.42730331420898

> <r_mmod_Van_der_Waal_Energy-OPLS-2005>
134.56916809082

> <r_mmod_Electrostatic_Energy-OPLS-2005>
-276.905975341797

> <r_mmod_Solvation_Energy-OPLS-2005>
-246.593383789062

> <b_mmod_Minimization_Converged-OPLS-2005>
0

> <r_mmod_RMS_Derivative-OPLS-2005>
12.3976850509644

$$$$
78
                    3D
 Structure written by MMmdl.
155164  0  0  1  0            999 V2000
  -30.6689  -14.6723   20.5852 C   0  0  0  0  0  0
  -30.4313  -12.4420   19.4615 C   0  0  0  0  0  0
  -29.5038  -12.5287   18.2292 C   0  0  0  0  0  0
  -28.0299  -12.3516   18.6385 C   0  0  0  0  0  0
  -27.6474  -13.2285   19.8577 C   0  0  2  0  0  0
  -28.6865  -13.1068   20.9906 C   0  0  0  0  0  0
  -25.2511  -13.8187   20.5681 C   0  0  0  0  0  0
  -24.1794  -13.0435   20.9180 C   0  0  0  0  0  0
  -24.6388  -11.6913   20.8725 C   0  0  0  0  0  0
  -23.9074  -10.4291   21.0397 C   0  0  0  0  0  0
  -24.3626   -9.4210   21.9176 C   0  0  0  0  0  0
  -23.6297   -8.2248   22.0756 C   0  0  0  0  0  0
  -22.4279   -8.0278   21.3545 C   0  0  0  0  0  0
  -21.9914   -9.0246   20.4639 C   0  0  0  0  0  0
  -22.7244  -10.2127   20.3044 C   0  0  0  0  0  0
  -21.6855   -6.0742   22.5284 C   0  0  0  0  0  0
  -21.4022   -6.5644   23.8218 C   0  0  0  0  0  0
  -21.3654   -5.6789   24.9173 C   0  0  0  0  0  0
  -21.6044   -4.3057   24.7222 C   0  0  0  0  0  0
  -21.8819   -3.8152   23.4340 C   0  0  0  0  0  0
  -21.9195   -4.6972   22.3398 C   0  0  0  0  0  0
  -22.7818  -13.5218   21.1849 C   0  0  0  0  0  0
  -22.1657   -4.2162   21.0975 F   0  0  0  0  0  0
  -21.5623   -3.4533   25.7731 F   0  0  0  0  0  0
  -30.0064  -13.4684   20.4434 N   0  0  0  0  0  0
  -26.2951  -12.9401   20.3282 N   0  0  0  0  0  0
  -25.9321  -11.6548   20.5729 N   0  0  0  0  0  0
  -22.0467  -12.8191   22.0399 N   0  0  0  0  0  0
  -25.4204  -15.1912   20.4130 N   0  0  0  0  0  0
  -31.7606  -14.8437   20.0317 O   0  0  0  0  0  0
  -21.6638   -6.8881   21.4244 O   0  0  0  0  0  0
  -22.3489  -14.5518   20.6699 O   0  0  0  0  0  0
  -24.6282  -31.8585   23.2033 C   0  0  0  0  0  0
  -25.9113  -32.4782   23.8370 C   0  0  1  0  0  0
  -27.2233  -27.2927   20.1208 C   0  0  0  0  0  0
  -25.5932  -33.8581   24.2298 N   0  0  0  0  0  0
  -23.4241  -30.4847   21.5449 C   0  0  2  0  0  0
  -24.8727  -28.9437   20.1079 C   0  0  0  0  0  0
  -22.7490  -29.4619   22.4907 C   0  0  0  0  0  0
  -18.0293  -28.1385   22.8494 C   0  0  0  0  0  0
  -24.1480  -36.7294   23.2639 C   0  0  0  0  0  0
  -25.9677  -30.7840   21.3780 C   0  0  0  0  0  0
  -26.0429  -29.4082   20.7227 C   0  0  0  0  0  0
  -27.2192  -28.5928   20.7261 C   0  0  0  0  0  0
  -26.0299  -26.9101   19.4578 C   0  0  0  0  0  0
  -24.8701  -27.7013   19.4639 C   0  0  0  0  0  0
  -23.6417  -29.8240   20.1587 C   0  0  0  0  0  0
  -25.4102  -36.3087   24.0341 C   0  0  1  0  0  0
  -20.5900  -28.3695   23.1267 C   0  0  2  0  0  0
  -20.6775  -26.9420   22.5402 C   0  0  0  0  0  0
  -19.5752  -26.6390   21.5207 C   0  0  0  0  0  0
  -18.1932  -26.7933   22.1622 C   0  0  0  0  0  0
  -19.1549  -28.8857   23.2877 C   0  0  0  0  0  0
  -18.9476  -30.1457   23.8891 C   0  0  0  0  0  0
  -17.6473  -30.6587   24.0574 C   0  0  0  0  0  0
  -25.9044  -34.9455   23.5117 C   0  0  0  0  0  0
  -16.5362  -29.9088   23.6331 C   0  0  0  0  0  0
  -16.7286  -28.6510   23.0362 C   0  0  0  0  0  0
  -26.4485  -31.6594   25.0742 C   0  0  0  0  0  0
  -25.3729  -31.3766   26.1482 C   0  0  0  0  0  0
  -27.0307  -30.3008   24.6182 C   0  0  0  0  0  0
  -27.6058  -32.4312   25.7510 C   0  0  0  0  0  0
  -27.5567  -37.1798   24.8457 C   0  0  0  0  0  0
  -21.4205  -29.3068   22.3671 N   0  0  0  0  0  0
  -26.4264  -37.3792   23.9424 N   0  0  0  0  0  0
  -24.6924  -31.0584   22.0994 N   0  0  0  0  0  0
  -23.4207  -28.8148   23.2985 O   0  0  0  0  0  0
  -28.3076  -26.3860   20.1990 O   0  0  0  0  0  0
  -26.5603  -34.8924   22.4671 O   0  0  0  0  0  0
  -23.5438  -32.1384   23.7360 O   0  0  0  0  0  0
  -29.0184  -19.3535   21.8131 C   0  0  0  0  0  0
  -30.3046  -19.2384   19.7973 C   0  0  0  0  0  0
  -29.1610  -17.9404   21.9683 C   0  0  0  0  0  0
  -30.4391  -17.8168   19.9517 C   0  0  0  0  0  0
  -29.6089  -20.0607   20.7344 C   0  0  0  0  0  0
  -29.9030  -17.1121   21.0698 C   0  0  0  0  0  0
  -30.1916  -23.7239   20.7477 C   0  0  0  0  0  0
  -28.9141  -23.7447   20.3556 C   0  0  0  0  0  0
  -30.6164  -22.3432   20.9356 C   0  0  0  0  0  0
  -28.4999  -22.3260   20.3012 C   0  0  0  0  0  0
  -30.1620  -15.3484   22.8171 C   0  0  0  0  0  0
  -27.9755  -24.9459   19.9627 C   0  0  0  0  0  0
  -29.5659  -21.5407   20.6425 N   0  0  0  0  0  0
  -30.1152  -15.6660   21.3793 N   0  0  0  0  0  0
  -31.7330  -21.9583   21.3035 O   0  0  0  0  0  0
  -27.3810  -21.8979   19.9950 O   0  0  0  0  0  0
  -31.4712  -12.5685   19.1559 H   0  0  0  0  0  0
  -30.3792  -11.4498   19.9140 H   0  0  0  0  0  0
  -29.7807  -11.7702   17.4959 H   0  0  0  0  0  0
  -29.6343  -13.4933   17.7359 H   0  0  0  0  0  0
  -27.8756  -11.2983   18.8771 H   0  0  0  0  0  0
  -27.3724  -12.5693   17.7955 H   0  0  0  0  0  0
  -27.6600  -14.2618   19.5105 H   0  0  0  0  0  0
  -28.7096  -12.0912   21.3882 H   0  0  0  0  0  0
  -28.3823  -13.7411   21.8204 H   0  0  0  0  0  0
  -25.2780   -9.5689   22.4736 H   0  0  0  0  0  0
  -24.0011   -7.4649   22.7484 H   0  0  0  0  0  0
  -21.0851   -8.8752   19.8948 H   0  0  0  0  0  0
  -22.3697  -10.9649   19.6135 H   0  0  0  0  0  0
  -21.2017   -7.6151   23.9725 H   0  0  0  0  0  0
  -21.1469   -6.0513   25.9076 H   0  0  0  0  0  0
  -22.0601   -2.7618   23.2826 H   0  0  0  0  0  0
  -22.4096  -11.9833   22.4749 H   0  0  0  0  0  0
  -21.1084  -13.1197   22.2625 H   0  0  0  0  0  0
  -24.6582  -15.8469   20.5425 H   0  0  0  0  0  0
  -26.2805  -15.6362   20.1181 H   0  0  0  0  0  0
  -26.7184  -32.5447   23.1131 H   0  0  0  0  0  0
  -25.0139  -33.9734   25.0481 H   0  0  0  0  0  0
  -22.7197  -31.3071   21.4023 H   0  0  0  0  0  0
  -23.3749  -35.9614   23.3283 H   0  0  0  0  0  0
  -24.3601  -36.8926   22.2058 H   0  0  0  0  0  0
  -23.7208  -37.6487   23.6661 H   0  0  0  0  0  0
  -26.0946  -31.5432   20.6048 H   0  0  0  0  0  0
  -26.8505  -30.8418   22.0031 H   0  0  0  0  0  0
  -28.1062  -28.9428   21.2353 H   0  0  0  0  0  0
  -25.9446  -25.9726   18.9308 H   0  0  0  0  0  0
  -23.9806  -27.3426   18.9631 H   0  0  0  0  0  0
  -23.7660  -30.6006   19.4036 H   0  0  0  0  0  0
  -22.7627  -29.2539   19.8534 H   0  0  0  0  0  0
  -25.1288  -36.1944   25.0835 H   0  0  0  0  0  0
  -21.0002  -28.3249   24.1383 H   0  0  0  0  0  0
  -20.5646  -26.2328   23.3617 H   0  0  0  0  0  0
  -21.6645  -26.7426   22.1216 H   0  0  0  0  0  0
  -19.6911  -25.6301   21.1237 H   0  0  0  0  0  0
  -19.6670  -27.3198   20.6735 H   0  0  0  0  0  0
  -17.4216  -26.6712   21.4004 H   0  0  0  0  0  0
  -18.0312  -26.0059   22.9001 H   0  0  0  0  0  0
  -19.7950  -30.7278   24.2237 H   0  0  0  0  0  0
  -17.5045  -31.6257   24.5199 H   0  0  0  0  0  0
  -15.5367  -30.3006   23.7636 H   0  0  0  0  0  0
  -15.8695  -28.0825   22.7071 H   0  0  0  0  0  0
  -24.5923  -30.7060   25.7876 H   0  0  0  0  0  0
  -24.8878  -32.2943   26.4825 H   0  0  0  0  0  0
  -25.8075  -30.9051   27.0302 H   0  0  0  0  0  0
  -26.2866  -29.6793   24.1185 H   0  0  0  0  0  0
  -27.3987  -29.7250   25.4678 H   0  0  0  0  0  0
  -27.8757  -30.4313   23.9423 H   0  0  0  0  0  0
  -27.2703  -33.3676   26.1990 H   0  0  0  0  0  0
  -28.3920  -32.6742   25.0356 H   0  0  0  0  0  0
  -28.0642  -31.8473   26.5503 H   0  0  0  0  0  0
  -28.2571  -38.0108   24.7530 H   0  0  0  0  0  0
  -28.1067  -36.2638   24.6230 H   0  0  0  0  0  0
  -27.2315  -37.1407   25.8869 H   0  0  0  0  0  0
  -20.9381  -29.8852   21.6934 H   0  0  0  0  0  0
  -26.0142  -38.2859   24.1448 H   0  0  0  0  0  0
  -28.4688  -19.8997   22.5678 H   0  0  0  0  0  0
  -30.7767  -19.7097   18.9473 H   0  0  0  0  0  0
  -28.6900  -17.5041   22.8373 H   0  0  0  0  0  0
  -31.0139  -17.2822   19.2077 H   0  0  0  0  0  0
  -30.8233  -24.5871   20.8860 H   0  0  0  0  0  0
  -30.7894  -16.0725   23.3400 H   0  0  0  0  0  0
  -30.5830  -14.3645   23.0417 H   0  0  0  0  0  0
  -29.1671  -15.3781   23.2606 H   0  0  0  0  0  0
  -27.0420  -24.7297   20.4823 H   0  0  0  0  0  0
  -27.7867  -24.8179   18.8965 H   0  0  0  0  0  0
  1 25  1  0  0  0
  1 30  2  0  0  0
  1 84  1  0  0  0
  2  3  1  0  0  0
  2 25  1  0  0  0
  2 87  1  0  0  0
  2 88  1  0  0  0
  3  4  1  0  0  0
  3 89  1  0  0  0
  3 90  1  0  0  0
  4  5  1  0  0  0
  4 91  1  0  0  0
  4 92  1  0  0  0
  5  6  1  0  0  0
  5 26  1  0  0  0
  5 93  1  0  0  0
  6 25  1  0  0  0
  6 94  1  0  0  0
  6 95  1  0  0  0
  7  8  2  0  0  0
  7 26  1  0  0  0
  7 29  1  0  0  0
  8  9  1  0  0  0
  8 22  1  0  0  0
  9 10  1  0  0  0
  9 27  2  0  0  0
 10 11  2  0  0  0
 10 15  1  0  0  0
 11 12  1  0  0  0
 11 96  1  0  0  0
 12 13  2  0  0  0
 12 97  1  0  0  0
 13 14  1  0  0  0
 13 31  1  0  0  0
 14 15  2  0  0  0
 14 98  1  0  0  0
 15 99  1  0  0  0
 16 17  2  0  0  0
 16 21  1  0  0  0
 16 31  1  0  0  0
 17 18  1  0  0  0
 17100  1  0  0  0
 18 19  2  0  0  0
 18101  1  0  0  0
 19 20  1  0  0  0
 19 24  1  0  0  0
 20 21  2  0  0  0
 20102  1  0  0  0
 21 23  1  0  0  0
 22 28  1  0  0  0
 22 32  2  0  0  0
 26 27  1  0  0  0
 28103  1  0  0  0
 28104  1  0  0  0
 29105  1  0  0  0
 29106  1  0  0  0
 33 34  1  0  0  0
 33 66  1  0  0  0
 33 70  2  0  0  0
 34 36  1  0  0  0
 34 59  1  0  0  0
 34107  1  0  0  0
 35 44  2  0  0  0
 35 45  1  0  0  0
 35 68  1  0  0  0
 36 56  1  0  0  0
 36108  1  0  0  0
 37 39  1  0  0  0
 37 47  1  0  0  0
 37 66  1  0  0  0
 37109  1  0  0  0
 38 43  2  0  0  0
 38 46  1  0  0  0
 38 47  1  0  0  0
 39 64  1  0  0  0
 39 67  2  0  0  0
 40 52  1  0  0  0
 40 53  2  0  0  0
 40 58  1  0  0  0
 41110  1  0  0  0
 41111  1  0  0  0
 41112  1  0  0  0
 41 48  1  0  0  0
 42 43  1  0  0  0
 42 66  1  0  0  0
 42113  1  0  0  0
 42114  1  0  0  0
 43 44  1  0  0  0
 44115  1  0  0  0
 45 46  2  0  0  0
 45116  1  0  0  0
 46117  1  0  0  0
 47118  1  0  0  0
 47119  1  0  0  0
 48 56  1  0  0  0
 48 65  1  0  0  0
 48120  1  0  0  0
 49 50  1  0  0  0
 49 53  1  0  0  0
 49 64  1  0  0  0
 49121  1  0  0  0
 50 51  1  0  0  0
 50122  1  0  0  0
 50123  1  0  0  0
 51 52  1  0  0  0
 51124  1  0  0  0
 51125  1  0  0  0
 52126  1  0  0  0
 52127  1  0  0  0
 53 54  1  0  0  0
 54 55  2  0  0  0
 54128  1  0  0  0
 55 57  1  0  0  0
 55129  1  0  0  0
 56 69  2  0  0  0
 57 58  2  0  0  0
 57130  1  0  0  0
 58131  1  0  0  0
 59 60  1  0  0  0
 59 61  1  0  0  0
 59 62  1  0  0  0
 60132  1  0  0  0
 60133  1  0  0  0
 60134  1  0  0  0
 61135  1  0  0  0
 61136  1  0  0  0
 61137  1  0  0  0
 62138  1  0  0  0
 62139  1  0  0  0
 62140  1  0  0  0
 63 65  1  0  0  0
 63141  1  0  0  0
 63142  1  0  0  0
 63143  1  0  0  0
 64144  1  0  0  0
 65145  1  0  0  0
 68 82  1  0  0  0
 71 73  2  0  0  0
 71 75  1  0  0  0
 71146  1  0  0  0
 72 74  1  0  0  0
 72 75  2  0  0  0
 72147  1  0  0  0
 73 76  1  0  0  0
 73148  1  0  0  0
 74 76  2  0  0  0
 74149  1  0  0  0
 75 83  1  0  0  0
 76 84  1  0  0  0
 77 78  2  0  0  0
 77 79  1  0  0  0
 77150  1  0  0  0
 78 80  1  0  0  0
 78 82  1  0  0  0
 79 83  1  0  0  0
 79 85  2  0  0  0
 80 83  1  0  0  0
 80 86  2  0  0  0
 81 84  1  0  0  0
 81151  1  0  0  0
 81152  1  0  0  0
 81153  1  0  0  0
 82154  1  0  0  0
 82155  1  0  0  0
M  ISO  4   1 100  68 101  82 101  84 100
M  END
> <chiral flag>
0

> <version>
0

> <s_m_source_file>
/data/baiqing/PycharmProjects/Reinvent-master-3.2/result/LINK_invent/BTK/process_docking_weight1_custom_product_contain_oxygen_bond_distance_aromatic_linkinvent_7_9_3/rearranged_h_0091.sdf

> <i_m_source_file_index>
79

> <r_mmod_Potential_Energy-OPLS-2005>
287.699737548828

> <r_mmod_Stretch_Energy-OPLS-2005>
101.756286621094

> <r_mmod_Bend_Energy-OPLS-2005>
197.528198242188

> <r_mmod_Torsional_Energy-OPLS-2005>
318.267700195312

> <r_mmod_Improper_Torsional_Energy-OPLS-2005>
3.13877701759338

> <r_mmod_Van_der_Waal_Energy-OPLS-2005>
151.636688232422

> <r_mmod_Electrostatic_Energy-OPLS-2005>
-325.194030761719

> <r_mmod_Solvation_Energy-OPLS-2005>
-222.823806762695

> <b_mmod_Minimization_Converged-OPLS-2005>
0

> <r_mmod_RMS_Derivative-OPLS-2005>
2.55566811561584

$$$$
79
                    3D
 Structure written by MMmdl.
144152  0  0  1  0            999 V2000
  -30.4014  -15.3917   20.3624 C   0  0  0  0  0  0
  -30.4347  -12.9085   19.5064 C   0  0  0  0  0  0
  -29.5347  -12.5942   18.2840 C   0  0  0  0  0  0
  -28.0934  -12.2897   18.7274 C   0  0  0  0  0  0
  -27.6029  -13.2820   19.8094 C   0  0  2  0  0  0
  -28.6381  -13.5212   20.9285 C   0  0  0  0  0  0
  -25.2379  -13.8246   20.5781 C   0  0  0  0  0  0
  -24.1736  -13.0426   20.9274 C   0  0  0  0  0  0
  -24.6399  -11.6925   20.8763 C   0  0  0  0  0  0
  -23.9095  -10.4286   21.0405 C   0  0  0  0  0  0
  -24.3640   -9.4201   21.9180 C   0  0  0  0  0  0
  -23.6307   -8.2240   22.0752 C   0  0  0  0  0  0
  -22.4287   -8.0281   21.3543 C   0  0  0  0  0  0
  -21.9929   -9.0256   20.4642 C   0  0  0  0  0  0
  -22.7269  -10.2130   20.3051 C   0  0  0  0  0  0
  -21.6856   -6.0737   22.5279 C   0  0  0  0  0  0
  -21.4014   -6.5640   23.8213 C   0  0  0  0  0  0
  -21.3660   -5.6793   24.9173 C   0  0  0  0  0  0
  -21.6048   -4.3058   24.7225 C   0  0  0  0  0  0
  -21.8818   -3.8149   23.4346 C   0  0  0  0  0  0
  -21.9193   -4.6963   22.3402 C   0  0  0  0  0  0
  -22.7752  -13.5175   21.1916 C   0  0  0  0  0  0
  -22.1663   -4.2151   21.0980 F   0  0  0  0  0  0
  -21.5629   -3.4540   25.7738 F   0  0  0  0  0  0
  -29.8373  -14.0735   20.2700 N   0  0  0  0  0  0
  -26.2796  -12.9527   20.3207 N   0  0  0  0  0  0
  -25.9337  -11.6627   20.5706 N   0  0  0  0  0  0
  -22.0410  -12.8150   22.0466 N   0  0  0  0  0  0
  -25.4005  -15.1984   20.4258 N   0  0  0  0  0  0
  -31.6383  -15.3347   20.2681 O   0  0  0  0  0  0
  -21.6645   -6.8882   21.4243 O   0  0  0  0  0  0
  -22.3430  -14.5477   20.6756 O   0  0  0  0  0  0
  -24.6697  -31.8165   23.1646 C   0  0  0  0  0  0
  -25.9350  -32.4555   23.8132 C   0  0  1  0  0  0
  -27.2208  -26.8455   20.2054 C   0  0  0  0  0  0
  -25.5994  -33.8372   24.2037 N   0  0  0  0  0  0
  -23.4877  -30.4238   21.5164 C   0  0  2  0  0  0
  -24.9415  -28.7872   20.1261 C   0  0  0  0  0  0
  -22.7697  -29.4396   22.4775 C   0  0  0  0  0  0
  -18.0323  -28.1406   22.8465 C   0  0  0  0  0  0
  -24.1490  -36.7184   23.2647 C   0  0  0  0  0  0
  -26.0612  -30.5932   21.4100 C   0  0  0  0  0  0
  -26.1268  -29.1700   20.7673 C   0  0  0  0  0  0
  -27.2575  -28.2213   20.7820 C   0  0  0  0  0  0
  -26.0067  -26.6347   19.5135 C   0  0  0  0  0  0
  -24.9097  -27.5394   19.4810 C   0  0  0  0  0  0
  -23.7338  -29.7286   20.1482 C   0  0  0  0  0  0
  -25.4137  -36.2947   24.0293 C   0  0  1  0  0  0
  -20.5953  -28.3753   23.1178 C   0  0  2  0  0  0
  -20.6795  -26.9429   22.5400 C   0  0  0  0  0  0
  -19.5764  -26.6372   21.5214 C   0  0  0  0  0  0
  -18.1952  -26.7938   22.1628 C   0  0  0  0  0  0
  -19.1587  -28.8903   23.2807 C   0  0  0  0  0  0
  -18.9496  -30.1495   23.8841 C   0  0  0  0  0  0
  -17.6486  -30.6596   24.0550 C   0  0  0  0  0  0
  -25.9107  -34.9336   23.4989 C   0  0  0  0  0  0
  -16.5377  -29.9080   23.6345 C   0  0  0  0  0  0
  -16.7306  -28.6500   23.0368 C   0  0  0  0  0  0
  -26.4576  -31.6529   25.0692 C   0  0  0  0  0  0
  -25.3674  -31.3815   26.1330 C   0  0  0  0  0  0
  -27.0485  -30.2881   24.6491 C   0  0  0  0  0  0
  -27.6052  -32.4352   25.7506 C   0  0  0  0  0  0
  -27.5566  -37.1753   24.8468 C   0  0  0  0  0  0
  -21.4360  -29.3034   22.3522 N   0  0  0  0  0  0
  -26.4275  -37.3690   23.9409 N   0  0  0  0  0  0
  -24.7614  -30.9740   22.0833 N   0  0  0  0  0  0
  -23.4209  -28.7977   23.3052 O   0  0  0  0  0  0
  -28.2505  -25.7401   20.1371 O   0  0  0  0  0  0
  -26.5723  -34.8883   22.4589 O   0  0  0  0  0  0
  -23.5750  -32.1182   23.6688 O   0  0  0  0  0  0
  -28.1820  -21.8386   19.1957 C   0  0  0  0  0  0
  -28.5217  -20.3492   19.1569 C   0  0  0  0  0  0
  -29.2021  -19.7038   20.2217 C   0  0  0  0  0  0
  -28.5216  -22.6733   20.2797 C   0  0  0  0  0  0
  -29.9655  -18.1611   20.5425 C   0  0  0  0  0  0
  -28.1438  -19.6687   17.9856 N   0  0  0  0  0  0
  -28.1012  -24.1526   20.7400 N   0  0  0  0  0  0
  -29.6513  -16.7053   20.3160 N   0  0  0  0  0  0
  -31.0433  -18.3374   21.1183 O   0  0  0  0  0  0
  -29.3777  -21.2863   21.2754 S   0  0  0  0  0  0
  -31.4408  -13.1404   19.1540 H   0  0  0  0  0  0
  -30.5440  -12.0305   20.1454 H   0  0  0  0  0  0
  -29.9393  -11.7553   17.7161 H   0  0  0  0  0  0
  -29.5338  -13.4506   17.6079 H   0  0  0  0  0  0
  -28.0802  -11.2765   19.1305 H   0  0  0  0  0  0
  -27.4195  -12.2879   17.8698 H   0  0  0  0  0  0
  -27.4932  -14.2295   19.2798 H   0  0  0  0  0  0
  -28.8491  -12.6070   21.4853 H   0  0  0  0  0  0
  -28.2552  -14.2448   21.6500 H   0  0  0  0  0  0
  -25.2781   -9.5674   22.4761 H   0  0  0  0  0  0
  -24.0013   -7.4630   22.7472 H   0  0  0  0  0  0
  -21.0862   -8.8778   19.8945 H   0  0  0  0  0  0
  -22.3729  -10.9669   19.6163 H   0  0  0  0  0  0
  -21.2005   -7.6149   23.9714 H   0  0  0  0  0  0
  -21.1485   -6.0524   25.9077 H   0  0  0  0  0  0
  -22.0596   -2.7610   23.2845 H   0  0  0  0  0  0
  -22.4054  -11.9828   22.4863 H   0  0  0  0  0  0
  -21.1014  -13.1141   22.2655 H   0  0  0  0  0  0
  -24.6325  -15.8487   20.5508 H   0  0  0  0  0  0
  -26.2461  -15.6440   20.0973 H   0  0  0  0  0  0
  -26.7425  -32.5071   23.0844 H   0  0  0  0  0  0
  -25.0093  -33.9432   25.0157 H   0  0  0  0  0  0
  -22.8051  -31.2570   21.3369 H   0  0  0  0  0  0
  -23.3769  -35.9494   23.3279 H   0  0  0  0  0  0
  -24.3556  -36.8865   22.2066 H   0  0  0  0  0  0
  -23.7228  -37.6355   23.6724 H   0  0  0  0  0  0
  -26.2489  -31.3235   20.6213 H   0  0  0  0  0  0
  -26.9188  -30.6575   22.0678 H   0  0  0  0  0  0
  -28.1636  -28.5239   21.2875 H   0  0  0  0  0  0
  -25.8857  -25.6890   19.0040 H   0  0  0  0  0  0
  -24.0134  -27.2394   18.9556 H   0  0  0  0  0  0
  -23.9022  -30.4914   19.3875 H   0  0  0  0  0  0
  -22.8410  -29.1899   19.8252 H   0  0  0  0  0  0
  -25.1338  -36.1733   25.0782 H   0  0  0  0  0  0
  -21.0037  -28.3361   24.1302 H   0  0  0  0  0  0
  -20.5671  -26.2371   23.3645 H   0  0  0  0  0  0
  -21.6658  -26.7393   22.1209 H   0  0  0  0  0  0
  -19.6918  -25.6269   21.1278 H   0  0  0  0  0  0
  -19.6702  -27.3155   20.6724 H   0  0  0  0  0  0
  -17.4219  -26.6681   21.4037 H   0  0  0  0  0  0
  -18.0347  -26.0093   22.9038 H   0  0  0  0  0  0
  -19.7971  -30.7328   24.2184 H   0  0  0  0  0  0
  -17.5036  -31.6272   24.5160 H   0  0  0  0  0  0
  -15.5374  -30.2962   23.7696 H   0  0  0  0  0  0
  -15.8709  -28.0796   22.7116 H   0  0  0  0  0  0
  -24.5853  -30.7178   25.7625 H   0  0  0  0  0  0
  -24.8875  -32.3038   26.4612 H   0  0  0  0  0  0
  -25.7873  -30.9061   27.0202 H   0  0  0  0  0  0
  -26.3175  -29.6529   24.1476 H   0  0  0  0  0  0
  -27.3960  -29.7280   25.5183 H   0  0  0  0  0  0
  -27.9142  -30.4039   23.9966 H   0  0  0  0  0  0
  -27.2612  -33.3707   26.1927 H   0  0  0  0  0  0
  -28.3951  -32.6822   25.0402 H   0  0  0  0  0  0
  -28.0617  -31.8581   26.5557 H   0  0  0  0  0  0
  -28.2566  -38.0066   24.7515 H   0  0  0  0  0  0
  -28.1084  -36.2591   24.6303 H   0  0  0  0  0  0
  -27.2279  -37.1403   25.8870 H   0  0  0  0  0  0
  -20.9628  -29.8717   21.6636 H   0  0  0  0  0  0
  -26.0120  -38.2748   24.1413 H   0  0  0  0  0  0
  -27.6258  -22.2552   18.3689 H   0  0  0  0  0  0
  -27.4935  -20.1024   17.3358 H   0  0  0  0  0  0
  -28.1319  -18.6548   17.9505 H   0  0  0  0  0  0
  -28.3807  -24.2170   21.7172 H   0  0  0  0  0  0
  -28.6854  -16.5746   20.0665 H   0  0  0  0  0  0
  1 25  1  0  0  0
  1 30  2  0  0  0
  1 78  1  0  0  0
  2  3  1  0  0  0
  2 25  1  0  0  0
  2 81  1  0  0  0
  2 82  1  0  0  0
  3  4  1  0  0  0
  3 83  1  0  0  0
  3 84  1  0  0  0
  4  5  1  0  0  0
  4 85  1  0  0  0
  4 86  1  0  0  0
  5  6  1  0  0  0
  5 26  1  0  0  0
  5 87  1  0  0  0
  6 25  1  0  0  0
  6 88  1  0  0  0
  6 89  1  0  0  0
  7  8  2  0  0  0
  7 26  1  0  0  0
  7 29  1  0  0  0
  8  9  1  0  0  0
  8 22  1  0  0  0
  9 10  1  0  0  0
  9 27  2  0  0  0
 10 11  2  0  0  0
 10 15  1  0  0  0
 11 12  1  0  0  0
 11 90  1  0  0  0
 12 13  2  0  0  0
 12 91  1  0  0  0
 13 14  1  0  0  0
 13 31  1  0  0  0
 14 15  2  0  0  0
 14 92  1  0  0  0
 15 93  1  0  0  0
 16 17  2  0  0  0
 16 21  1  0  0  0
 16 31  1  0  0  0
 17 18  1  0  0  0
 17 94  1  0  0  0
 18 19  2  0  0  0
 18 95  1  0  0  0
 19 20  1  0  0  0
 19 24  1  0  0  0
 20 21  2  0  0  0
 20 96  1  0  0  0
 21 23  1  0  0  0
 22 28  1  0  0  0
 22 32  2  0  0  0
 26 27  1  0  0  0
 28 97  1  0  0  0
 28 98  1  0  0  0
 29 99  1  0  0  0
 29100  1  0  0  0
 33 34  1  0  0  0
 33 66  1  0  0  0
 33 70  2  0  0  0
 34 36  1  0  0  0
 34 59  1  0  0  0
 34101  1  0  0  0
 35 44  2  0  0  0
 35 45  1  0  0  0
 35 68  1  0  0  0
 36 56  1  0  0  0
 36102  1  0  0  0
 37 39  1  0  0  0
 37 47  1  0  0  0
 37 66  1  0  0  0
 37103  1  0  0  0
 38 43  2  0  0  0
 38 46  1  0  0  0
 38 47  1  0  0  0
 39 64  1  0  0  0
 39 67  2  0  0  0
 40 52  1  0  0  0
 40 53  2  0  0  0
 40 58  1  0  0  0
 41104  1  0  0  0
 41105  1  0  0  0
 41106  1  0  0  0
 41 48  1  0  0  0
 42 43  1  0  0  0
 42 66  1  0  0  0
 42107  1  0  0  0
 42108  1  0  0  0
 43 44  1  0  0  0
 44109  1  0  0  0
 45 46  2  0  0  0
 45110  1  0  0  0
 46111  1  0  0  0
 47112  1  0  0  0
 47113  1  0  0  0
 48 56  1  0  0  0
 48 65  1  0  0  0
 48114  1  0  0  0
 49 50  1  0  0  0
 49 53  1  0  0  0
 49 64  1  0  0  0
 49115  1  0  0  0
 50 51  1  0  0  0
 50116  1  0  0  0
 50117  1  0  0  0
 51 52  1  0  0  0
 51118  1  0  0  0
 51119  1  0  0  0
 52120  1  0  0  0
 52121  1  0  0  0
 53 54  1  0  0  0
 54 55  2  0  0  0
 54122  1  0  0  0
 55 57  1  0  0  0
 55123  1  0  0  0
 56 69  2  0  0  0
 57 58  2  0  0  0
 57124  1  0  0  0
 58125  1  0  0  0
 59 60  1  0  0  0
 59 61  1  0  0  0
 59 62  1  0  0  0
 60126  1  0  0  0
 60127  1  0  0  0
 60128  1  0  0  0
 61129  1  0  0  0
 61130  1  0  0  0
 61131  1  0  0  0
 62132  1  0  0  0
 62133  1  0  0  0
 62134  1  0  0  0
 63 65  1  0  0  0
 63135  1  0  0  0
 63136  1  0  0  0
 63137  1  0  0  0
 64138  1  0  0  0
 65139  1  0  0  0
 68 77  1  0  0  0
 71 72  1  0  0  0
 71 74  2  0  0  0
 71140  1  0  0  0
 72 73  2  0  0  0
 72 76  1  0  0  0
 73 75  1  0  0  0
 73 80  1  0  0  0
 74 77  1  0  0  0
 74 80  1  0  0  0
 75 78  1  0  0  0
 75 79  2  0  0  0
 76141  1  0  0  0
 76142  1  0  0  0
 77143  1  0  0  0
 78144  1  0  0  0
M  ISO  4   1 100  68 101  77 101  78 100
M  END
> <chiral flag>
0

> <version>
0

> <s_m_source_file>
/data/baiqing/PycharmProjects/Reinvent-master-3.2/result/LINK_invent/BTK/process_docking_weight1_custom_product_contain_oxygen_bond_distance_aromatic_linkinvent_7_9_3/rearranged_h_0091.sdf

> <i_m_source_file_index>
80

> <r_mmod_Potential_Energy-OPLS-2005>
1528.21337890625

> <r_mmod_Stretch_Energy-OPLS-2005>
645.128112792969

> <r_mmod_Bend_Energy-OPLS-2005>
537.872741699219

> <r_mmod_Torsional_Energy-OPLS-2005>
235.68180847168

> <r_mmod_Improper_Torsional_Energy-OPLS-2005>
14.1332492828369

> <r_mmod_Van_der_Waal_Energy-OPLS-2005>
105.634826660156

> <r_mmod_Electrostatic_Energy-OPLS-2005>
-335.934478759766

> <r_mmod_Solvation_Energy-OPLS-2005>
-257.564971923828

> <b_mmod_Minimization_Converged-OPLS-2005>
0

> <r_mmod_RMS_Derivative-OPLS-2005>
0.905106663703918

$$$$
80
                    3D
 Structure written by MMmdl.
152160  0  0  1  0            999 V2000
  -30.6887  -14.7151   20.4357 C   0  0  0  0  0  0
  -30.4232  -12.4308   19.5058 C   0  0  0  0  0  0
  -29.5169  -12.4820   18.2558 C   0  0  0  0  0  0
  -28.0442  -12.3308   18.6668 C   0  0  0  0  0  0
  -27.6560  -13.2343   19.8656 C   0  0  2  0  0  0
  -28.7027  -13.2117   21.0102 C   0  0  0  0  0  0
  -25.2649  -13.8250   20.5741 C   0  0  0  0  0  0
  -24.1901  -13.0485   20.9186 C   0  0  0  0  0  0
  -24.6475  -11.6973   20.8755 C   0  0  0  0  0  0
  -23.9114  -10.4350   21.0419 C   0  0  0  0  0  0
  -24.3688   -9.4265   21.9158 C   0  0  0  0  0  0
  -23.6361   -8.2307   22.0739 C   0  0  0  0  0  0
  -22.4332   -8.0330   21.3527 C   0  0  0  0  0  0
  -21.9954   -9.0313   20.4625 C   0  0  0  0  0  0
  -22.7290  -10.2189   20.3047 C   0  0  0  0  0  0
  -21.6894   -6.0770   22.5271 C   0  0  0  0  0  0
  -21.4033   -6.5658   23.8200 C   0  0  0  0  0  0
  -21.3669   -5.6800   24.9166 C   0  0  0  0  0  0
  -21.6049   -4.3059   24.7213 C   0  0  0  0  0  0
  -21.8832   -3.8159   23.4321 C   0  0  0  0  0  0
  -21.9217   -4.6983   22.3393 C   0  0  0  0  0  0
  -22.7917  -13.5274   21.1791 C   0  0  0  0  0  0
  -22.1669   -4.2186   21.0960 F   0  0  0  0  0  0
  -21.5642   -3.4512   25.7693 F   0  0  0  0  0  0
  -30.0128  -13.5162   20.4308 N   0  0  0  0  0  0
  -26.3060  -12.9436   20.3372 N   0  0  0  0  0  0
  -25.9414  -11.6601   20.5843 N   0  0  0  0  0  0
  -22.0551  -12.8262   22.0327 N   0  0  0  0  0  0
  -25.4384  -15.1980   20.4279 N   0  0  0  0  0  0
  -31.8425  -14.7731   20.0019 O   0  0  0  0  0  0
  -21.6701   -6.8910   21.4216 O   0  0  0  0  0  0
  -22.3621  -14.5583   20.6638 O   0  0  0  0  0  0
  -24.6324  -31.8542   23.2027 C   0  0  0  0  0  0
  -25.9121  -32.4770   23.8377 C   0  0  1  0  0  0
  -27.2267  -27.2523   20.1244 C   0  0  0  0  0  0
  -25.5912  -33.8576   24.2277 N   0  0  0  0  0  0
  -23.4326  -30.4771   21.5451 C   0  0  2  0  0  0
  -24.8814  -28.9261   20.1141 C   0  0  0  0  0  0
  -22.7526  -29.4586   22.4912 C   0  0  0  0  0  0
  -18.0288  -28.1368   22.8476 C   0  0  0  0  0  0
  -24.1484  -36.7260   23.2641 C   0  0  0  0  0  0
  -25.9832  -30.7608   21.3963 C   0  0  0  0  0  0
  -26.0536  -29.3883   20.7243 C   0  0  0  0  0  0
  -27.2298  -28.5626   20.7185 C   0  0  0  0  0  0
  -26.0255  -26.8695   19.4823 C   0  0  0  0  0  0
  -24.8708  -27.6721   19.4879 C   0  0  0  0  0  0
  -23.6558  -29.8196   20.1606 C   0  0  0  0  0  0
  -25.4125  -36.3077   24.0328 C   0  0  1  0  0  0
  -20.5910  -28.3682   23.1264 C   0  0  2  0  0  0
  -20.6766  -26.9385   22.5423 C   0  0  0  0  0  0
  -19.5755  -26.6356   21.5214 C   0  0  0  0  0  0
  -18.1927  -26.7922   22.1595 C   0  0  0  0  0  0
  -19.1539  -28.8843   23.2868 C   0  0  0  0  0  0
  -18.9465  -30.1449   23.8888 C   0  0  0  0  0  0
  -17.6460  -30.6577   24.0554 C   0  0  0  0  0  0
  -25.9067  -34.9448   23.5118 C   0  0  0  0  0  0
  -16.5359  -29.9066   23.6334 C   0  0  0  0  0  0
  -16.7271  -28.6479   23.0368 C   0  0  0  0  0  0
  -26.4458  -31.6629   25.0809 C   0  0  0  0  0  0
  -25.3642  -31.3804   26.1517 C   0  0  0  0  0  0
  -27.0317  -30.3026   24.6386 C   0  0  0  0  0  0
  -27.6023  -32.4380   25.7558 C   0  0  0  0  0  0
  -27.5598  -37.1793   24.8461 C   0  0  0  0  0  0
  -21.4236  -29.3029   22.3655 N   0  0  0  0  0  0
  -26.4303  -37.3781   23.9416 N   0  0  0  0  0  0
  -24.6993  -31.0507   22.1022 N   0  0  0  0  0  0
  -23.4212  -28.8100   23.3013 O   0  0  0  0  0  0
  -28.3145  -26.3417   20.1824 O   0  0  0  0  0  0
  -26.5649  -34.8908   22.4700 O   0  0  0  0  0  0
  -23.5458  -32.1378   23.7267 O   0  0  0  0  0  0
  -30.9772  -20.0933   22.3828 C   0  0  0  0  0  0
  -30.8361  -18.8210   21.8039 C   0  0  0  0  0  0
  -30.3555  -21.2347   21.8352 C   0  0  0  0  0  0
  -29.4399  -19.8294   20.0757 C   0  0  0  0  0  0
  -30.0630  -18.6296   20.6432 C   0  0  0  0  0  0
  -29.5780  -21.1694   20.6542 C   0  0  0  0  0  0
  -30.1304  -17.2164   20.0429 C   0  0  0  0  0  0
  -29.0954  -23.7663   20.4297 C   0  0  0  0  0  0
  -28.0384  -24.8731   19.9393 C   0  0  0  0  0  0
  -28.9263  -22.4126   20.1299 N   0  0  0  0  0  0
  -30.0155  -16.0105   20.7426 N   0  0  0  0  0  0
  -30.3829  -17.1864   18.7282 N   0  3  0  0  0  0
  -30.0752  -24.1563   21.0676 O   0  0  0  0  0  0
  -31.4701  -12.5098   19.2085 H   0  0  0  0  0  0
  -30.3298  -11.4632   19.9989 H   0  0  0  0  0  0
  -29.7901  -11.6817   17.5655 H   0  0  0  0  0  0
  -29.6611  -13.4193   17.7166 H   0  0  0  0  0  0
  -27.8990  -11.2863   18.9412 H   0  0  0  0  0  0
  -27.3911  -12.5242   17.8143 H   0  0  0  0  0  0
  -27.6518  -14.2491   19.4673 H   0  0  0  0  0  0
  -28.7363  -12.2496   21.5249 H   0  0  0  0  0  0
  -28.4491  -13.9554   21.7661 H   0  0  0  0  0  0
  -25.2846   -9.5764   22.4712 H   0  0  0  0  0  0
  -24.0093   -7.4717   22.7486 H   0  0  0  0  0  0
  -21.0856   -8.8838   19.8956 H   0  0  0  0  0  0
  -22.3725  -10.9746   19.6182 H   0  0  0  0  0  0
  -21.2011   -7.6168   23.9703 H   0  0  0  0  0  0
  -21.1465   -6.0525   25.9064 H   0  0  0  0  0  0
  -22.0594   -2.7625   23.2808 H   0  0  0  0  0  0
  -22.4187  -11.9937   22.4732 H   0  0  0  0  0  0
  -21.1160  -13.1266   22.2479 H   0  0  0  0  0  0
  -24.6791  -15.8574   20.5627 H   0  0  0  0  0  0
  -26.2953  -15.6413   20.1263 H   0  0  0  0  0  0
  -26.7206  -32.5394   23.1124 H   0  0  0  0  0  0
  -25.0031  -33.9729   25.0399 H   0  0  0  0  0  0
  -22.7291  -31.2989   21.3997 H   0  0  0  0  0  0
  -23.3783  -35.9562   23.3303 H   0  0  0  0  0  0
  -24.3573  -36.8881   22.2059 H   0  0  0  0  0  0
  -23.7193  -37.6434   23.6673 H   0  0  0  0  0  0
  -26.1557  -31.5300   20.6420 H   0  0  0  0  0  0
  -26.8470  -30.7819   22.0515 H   0  0  0  0  0  0
  -28.1230  -28.9134   21.2133 H   0  0  0  0  0  0
  -25.9388  -25.9194   18.9797 H   0  0  0  0  0  0
  -23.9677  -27.3115   19.0106 H   0  0  0  0  0  0
  -23.7963  -30.6017   19.4124 H   0  0  0  0  0  0
  -22.7741  -29.2597   19.8450 H   0  0  0  0  0  0
  -25.1313  -36.1932   25.0822 H   0  0  0  0  0  0
  -20.9981  -28.3244   24.1401 H   0  0  0  0  0  0
  -20.5617  -26.2296   23.3642 H   0  0  0  0  0  0
  -21.6645  -26.7373   22.1261 H   0  0  0  0  0  0
  -19.6916  -25.6259   21.1275 H   0  0  0  0  0  0
  -19.6729  -27.3149   20.6738 H   0  0  0  0  0  0
  -17.4226  -26.6704   21.3977 H   0  0  0  0  0  0
  -18.0284  -26.0057   22.8969 H   0  0  0  0  0  0
  -19.7946  -30.7260   24.2263 H   0  0  0  0  0  0
  -17.5021  -31.6262   24.5135 H   0  0  0  0  0  0
  -15.5362  -30.2965   23.7667 H   0  0  0  0  0  0
  -15.8673  -28.0788   22.7120 H   0  0  0  0  0  0
  -24.5865  -30.7101   25.7846 H   0  0  0  0  0  0
  -24.8773  -32.2974   26.4851 H   0  0  0  0  0  0
  -25.7931  -30.9063   27.0355 H   0  0  0  0  0  0
  -26.2948  -29.6791   24.1324 H   0  0  0  0  0  0
  -27.3833  -29.7305   25.4977 H   0  0  0  0  0  0
  -27.8897  -30.4273   23.9782 H   0  0  0  0  0  0
  -27.2657  -33.3697   26.2116 H   0  0  0  0  0  0
  -28.3826  -32.6918   25.0370 H   0  0  0  0  0  0
  -28.0709  -31.8528   26.5479 H   0  0  0  0  0  0
  -28.2599  -38.0093   24.7538 H   0  0  0  0  0  0
  -28.1096  -36.2644   24.6252 H   0  0  0  0  0  0
  -27.2326  -37.1390   25.8853 H   0  0  0  0  0  0
  -20.9412  -29.8766   21.6882 H   0  0  0  0  0  0
  -26.0179  -38.2856   24.1417 H   0  0  0  0  0  0
  -31.5964  -20.2067   23.2619 H   0  0  0  0  0  0
  -31.3742  -17.9885   22.2382 H   0  0  0  0  0  0
  -30.4940  -22.1655   22.3673 H   0  0  0  0  0  0
  -28.8636  -19.7217   19.1650 H   0  0  0  0  0  0
  -27.1115  -24.6176   20.4513 H   0  0  0  0  0  0
  -27.8511  -24.7149   18.8788 H   0  0  0  0  0  0
  -28.1975  -22.2418   19.4524 H   0  0  0  0  0  0
  -29.3104  -16.0675   21.4554 H   0  0  0  0  0  0
  -30.5204  -18.0485   18.2263 H   0  0  0  0  0  0
  -30.5503  -16.3219   18.2333 H   0  0  0  0  0  0
  1 25  1  0  0  0
  1 30  2  0  0  0
  1 81  1  0  0  0
  2  3  1  0  0  0
  2 25  1  0  0  0
  2 84  1  0  0  0
  2 85  1  0  0  0
  3  4  1  0  0  0
  3 86  1  0  0  0
  3 87  1  0  0  0
  4  5  1  0  0  0
  4 88  1  0  0  0
  4 89  1  0  0  0
  5  6  1  0  0  0
  5 26  1  0  0  0
  5 90  1  0  0  0
  6 25  1  0  0  0
  6 91  1  0  0  0
  6 92  1  0  0  0
  7  8  2  0  0  0
  7 26  1  0  0  0
  7 29  1  0  0  0
  8  9  1  0  0  0
  8 22  1  0  0  0
  9 10  1  0  0  0
  9 27  2  0  0  0
 10 11  2  0  0  0
 10 15  1  0  0  0
 11 12  1  0  0  0
 11 93  1  0  0  0
 12 13  2  0  0  0
 12 94  1  0  0  0
 13 14  1  0  0  0
 13 31  1  0  0  0
 14 15  2  0  0  0
 14 95  1  0  0  0
 15 96  1  0  0  0
 16 17  2  0  0  0
 16 21  1  0  0  0
 16 31  1  0  0  0
 17 18  1  0  0  0
 17 97  1  0  0  0
 18 19  2  0  0  0
 18 98  1  0  0  0
 19 20  1  0  0  0
 19 24  1  0  0  0
 20 21  2  0  0  0
 20 99  1  0  0  0
 21 23  1  0  0  0
 22 28  1  0  0  0
 22 32  2  0  0  0
 26 27  1  0  0  0
 28100  1  0  0  0
 28101  1  0  0  0
 29102  1  0  0  0
 29103  1  0  0  0
 33 34  1  0  0  0
 33 66  1  0  0  0
 33 70  2  0  0  0
 34 36  1  0  0  0
 34 59  1  0  0  0
 34104  1  0  0  0
 35 44  2  0  0  0
 35 45  1  0  0  0
 35 68  1  0  0  0
 36 56  1  0  0  0
 36105  1  0  0  0
 37 39  1  0  0  0
 37 47  1  0  0  0
 37 66  1  0  0  0
 37106  1  0  0  0
 38 43  2  0  0  0
 38 46  1  0  0  0
 38 47  1  0  0  0
 39 64  1  0  0  0
 39 67  2  0  0  0
 40 52  1  0  0  0
 40 53  2  0  0  0
 40 58  1  0  0  0
 41107  1  0  0  0
 41108  1  0  0  0
 41109  1  0  0  0
 41 48  1  0  0  0
 42 43  1  0  0  0
 42 66  1  0  0  0
 42110  1  0  0  0
 42111  1  0  0  0
 43 44  1  0  0  0
 44112  1  0  0  0
 45 46  2  0  0  0
 45113  1  0  0  0
 46114  1  0  0  0
 47115  1  0  0  0
 47116  1  0  0  0
 48 56  1  0  0  0
 48 65  1  0  0  0
 48117  1  0  0  0
 49 50  1  0  0  0
 49 53  1  0  0  0
 49 64  1  0  0  0
 49118  1  0  0  0
 50 51  1  0  0  0
 50119  1  0  0  0
 50120  1  0  0  0
 51 52  1  0  0  0
 51121  1  0  0  0
 51122  1  0  0  0
 52123  1  0  0  0
 52124  1  0  0  0
 53 54  1  0  0  0
 54 55  2  0  0  0
 54125  1  0  0  0
 55 57  1  0  0  0
 55126  1  0  0  0
 56 69  2  0  0  0
 57 58  2  0  0  0
 57127  1  0  0  0
 58128  1  0  0  0
 59 60  1  0  0  0
 59 61  1  0  0  0
 59 62  1  0  0  0
 60129  1  0  0  0
 60130  1  0  0  0
 60131  1  0  0  0
 61132  1  0  0  0
 61133  1  0  0  0
 61134  1  0  0  0
 62135  1  0  0  0
 62136  1  0  0  0
 62137  1  0  0  0
 63 65  1  0  0  0
 63138  1  0  0  0
 63139  1  0  0  0
 63140  1  0  0  0
 64141  1  0  0  0
 65142  1  0  0  0
 68 79  1  0  0  0
 71 72  2  0  0  0
 71 73  1  0  0  0
 71143  1  0  0  0
 72 75  1  0  0  0
 72144  1  0  0  0
 73 76  2  0  0  0
 73145  1  0  0  0
 74 75  2  0  0  0
 74 76  1  0  0  0
 74146  1  0  0  0
 75 77  1  0  0  0
 76 80  1  0  0  0
 77 81  1  0  0  0
 77 82  2  0  0  0
 78 79  1  0  0  0
 78 80  1  0  0  0
 78 83  2  0  0  0
 79147  1  0  0  0
 79148  1  0  0  0
 80149  1  0  0  0
 81150  1  0  0  0
 82151  1  0  0  0
 82152  1  0  0  0
M  CHG  1  82   1
M  ISO  4   1 100  68 101  79 101  81 100
M  END
> <chiral flag>
0

> <version>
0

> <s_m_source_file>
/data/baiqing/PycharmProjects/Reinvent-master-3.2/result/LINK_invent/BTK/process_docking_weight1_custom_product_contain_oxygen_bond_distance_aromatic_linkinvent_7_9_3/rearranged_h_0091.sdf

> <i_m_source_file_index>
81

> <r_mmod_Potential_Energy-OPLS-2005>
-73.8129806518555

> <r_mmod_Stretch_Energy-OPLS-2005>
132.522567749023

> <r_mmod_Bend_Energy-OPLS-2005>
168.196594238281

> <r_mmod_Torsional_Energy-OPLS-2005>
264.969421386719

> <r_mmod_Improper_Torsional_Energy-OPLS-2005>
5.75222682952881

> <r_mmod_Van_der_Waal_Energy-OPLS-2005>
147.499465942383

> <r_mmod_Electrostatic_Energy-OPLS-2005>
-393.243499755859

> <r_mmod_Solvation_Energy-OPLS-2005>
-485.521118164062

> <b_mmod_Minimization_Converged-OPLS-2005>
0

> <r_mmod_RMS_Derivative-OPLS-2005>
6.538987159729

$$$$
81
                    3D
 Structure written by MMmdl.
160169  0  0  1  0            999 V2000
  -30.6149  -14.8518   20.3705 C   0  0  0  0  0  0
  -30.4397  -12.5207   19.4419 C   0  0  0  0  0  0
  -29.4996  -12.4486   18.2189 C   0  0  0  0  0  0
  -28.0467  -12.1917   18.6729 C   0  0  0  0  0  0
  -27.6277  -13.1286   19.8271 C   0  0  2  0  0  0
  -28.7030  -13.1876   20.9496 C   0  0  0  0  0  0
  -25.2515  -13.7885   20.5759 C   0  0  0  0  0  0
  -24.1777  -13.0241   20.9274 C   0  0  0  0  0  0
  -24.6302  -11.6720   20.8822 C   0  0  0  0  0  0
  -23.8990  -10.4175   21.0437 C   0  0  0  0  0  0
  -24.3585   -9.4127   21.9206 C   0  0  0  0  0  0
  -23.6247   -8.2191   22.0764 C   0  0  0  0  0  0
  -22.4238   -8.0238   21.3535 C   0  0  0  0  0  0
  -21.9817   -9.0222   20.4645 C   0  0  0  0  0  0
  -22.7178  -10.2080   20.3061 C   0  0  0  0  0  0
  -21.6855   -6.0696   22.5303 C   0  0  0  0  0  0
  -21.4004   -6.5614   23.8217 C   0  0  0  0  0  0
  -21.3669   -5.6772   24.9196 C   0  0  0  0  0  0
  -21.6055   -4.3041   24.7230 C   0  0  0  0  0  0
  -21.8834   -3.8115   23.4348 C   0  0  0  0  0  0
  -21.9221   -4.6923   22.3419 C   0  0  0  0  0  0
  -22.7805  -13.5132   21.1859 C   0  0  0  0  0  0
  -22.1699   -4.2127   21.0971 F   0  0  0  0  0  0
  -21.5630   -3.4521   25.7728 F   0  0  0  0  0  0
  -29.9612  -13.6209   20.3115 N   0  0  0  0  0  0
  -26.2860  -12.8883   20.3304 N   0  0  0  0  0  0
  -25.9189  -11.6150   20.5849 N   0  0  0  0  0  0
  -22.0431  -12.8141   22.0386 N   0  0  0  0  0  0
  -25.4065  -15.1635   20.4321 N   0  0  0  0  0  0
  -31.8404  -14.8534   20.2132 O   0  0  0  0  0  0
  -21.6628   -6.8833   21.4244 O   0  0  0  0  0  0
  -22.3604  -14.5492   20.6712 O   0  0  0  0  0  0
  -24.6233  -31.8581   23.2038 C   0  0  0  0  0  0
  -25.9088  -32.4781   23.8357 C   0  0  1  0  0  0
  -27.2517  -27.3382   20.0885 C   0  0  0  0  0  0
  -25.5928  -33.8594   24.2288 N   0  0  0  0  0  0
  -23.4189  -30.4805   21.5412 C   0  0  2  0  0  0
  -24.8700  -28.9330   20.1120 C   0  0  0  0  0  0
  -22.7490  -29.4618   22.4951 C   0  0  0  0  0  0
  -18.0289  -28.1408   22.8484 C   0  0  0  0  0  0
  -24.1477  -36.7274   23.2639 C   0  0  0  0  0  0
  -25.9573  -30.7925   21.3785 C   0  0  0  0  0  0
  -26.0354  -29.4169   20.7191 C   0  0  0  0  0  0
  -27.2221  -28.6274   20.7054 C   0  0  0  0  0  0
  -26.0586  -26.8907   19.4779 C   0  0  0  0  0  0
  -24.8842  -27.6739   19.4900 C   0  0  0  0  0  0
  -23.6377  -29.8163   20.1551 C   0  0  0  0  0  0
  -25.4108  -36.3075   24.0321 C   0  0  1  0  0  0
  -20.5888  -28.3711   23.1262 C   0  0  2  0  0  0
  -20.6785  -26.9437   22.5427 C   0  0  0  0  0  0
  -19.5752  -26.6387   21.5235 C   0  0  0  0  0  0
  -18.1916  -26.7944   22.1626 C   0  0  0  0  0  0
  -19.1548  -28.8879   23.2846 C   0  0  0  0  0  0
  -18.9477  -30.1473   23.8897 C   0  0  0  0  0  0
  -17.6484  -30.6604   24.0574 C   0  0  0  0  0  0
  -25.9043  -34.9445   23.5093 C   0  0  0  0  0  0
  -16.5372  -29.9120   23.6329 C   0  0  0  0  0  0
  -16.7279  -28.6527   23.0354 C   0  0  0  0  0  0
  -26.4498  -31.6597   25.0743 C   0  0  0  0  0  0
  -25.3723  -31.3733   26.1462 C   0  0  0  0  0  0
  -27.0374  -30.3020   24.6215 C   0  0  0  0  0  0
  -27.6046  -32.4360   25.7520 C   0  0  0  0  0  0
  -27.5579  -37.1790   24.8476 C   0  0  0  0  0  0
  -21.4223  -29.3036   22.3678 N   0  0  0  0  0  0
  -26.4285  -37.3777   23.9419 N   0  0  0  0  0  0
  -24.6825  -31.0629   22.0961 N   0  0  0  0  0  0
  -23.4217  -28.8162   23.3011 O   0  0  0  0  0  0
  -28.3962  -26.5268   20.1646 O   0  0  0  0  0  0
  -26.5609  -34.8883   22.4671 O   0  0  0  0  0  0
  -23.5400  -32.1401   23.7351 O   0  0  0  0  0  0
  -29.9201  -19.6886   21.3836 C   0  0  0  0  0  0
  -30.1867  -18.2860   21.4804 C   0  0  0  0  0  0
  -27.4835  -23.0914   19.5504 C   0  0  0  0  0  0
  -30.5652  -18.1915   19.1111 C   0  0  0  0  0  0
  -28.6524  -23.9121   19.6140 C   0  0  0  0  0  0
  -29.8675  -20.3594   20.1299 C   0  0  0  0  0  0
  -30.4179  -17.4691   20.3315 C   0  0  0  0  0  0
  -30.2706  -19.5902   19.0066 C   0  0  0  0  0  0
  -27.8380  -21.7777   19.7319 C   0  0  0  0  0  0
  -29.6672  -22.9942   19.9124 C   0  0  0  0  0  0
  -28.0775  -16.2959   18.5813 C   0  0  0  0  0  0
  -28.6919  -25.4403   19.2132 C   0  0  0  0  0  0
  -28.4539  -16.2247   20.0874 C   0  0  0  0  0  0
  -29.1990  -21.6538   19.9636 N   0  0  0  0  0  0
  -29.9038  -16.0822   20.3106 N   0  0  0  0  0  0
  -27.0377  -20.6739   19.6740 O   0  0  0  0  0  0
  -30.9927  -23.2430   20.1076 O   0  0  0  0  0  0
  -30.2672  -20.1674   17.7791 F   0  0  0  0  0  0
  -31.4703  -12.6656   19.1197 H   0  0  0  0  0  0
  -30.4446  -11.5727   19.9775 H   0  0  0  0  0  0
  -29.8303  -11.6579   17.5383 H   0  0  0  0  0  0
  -29.5559  -13.3771   17.6488 H   0  0  0  0  0  0
  -27.9812  -11.1531   19.0010 H   0  0  0  0  0  0
  -27.3609  -12.2769   17.8285 H   0  0  0  0  0  0
  -27.5331  -14.0590   19.3070 H   0  0  0  0  0  0
  -28.8118  -12.2101   21.4208 H   0  0  0  0  0  0
  -28.4228  -13.8513   21.7695 H   0  0  0  0  0  0
  -25.2777   -9.5555   22.4720 H   0  0  0  0  0  0
  -23.9988   -7.4530   22.7423 H   0  0  0  0  0  0
  -21.0751   -8.8698   19.8910 H   0  0  0  0  0  0
  -22.3676  -10.9585   19.6111 H   0  0  0  0  0  0
  -21.1956   -7.6122   23.9717 H   0  0  0  0  0  0
  -21.1470   -6.0498   25.9104 H   0  0  0  0  0  0
  -22.0585   -2.7572   23.2851 H   0  0  0  0  0  0
  -22.4098  -11.9852   22.4786 H   0  0  0  0  0  0
  -21.1015  -13.1070   22.2565 H   0  0  0  0  0  0
  -24.6361  -15.8080   20.5766 H   0  0  0  0  0  0
  -26.2606  -15.6221   20.1448 H   0  0  0  0  0  0
  -26.7210  -32.5469   23.1131 H   0  0  0  0  0  0
  -25.0102  -33.9775   25.0442 H   0  0  0  0  0  0
  -22.7092  -31.2975   21.3942 H   0  0  0  0  0  0
  -23.3790  -35.9575   23.3302 H   0  0  0  0  0  0
  -24.3572  -36.8916   22.2067 H   0  0  0  0  0  0
  -23.7169  -37.6428   23.6689 H   0  0  0  0  0  0
  -26.1021  -31.5519   20.6143 H   0  0  0  0  0  0
  -26.8304  -30.8325   22.0188 H   0  0  0  0  0  0
  -28.1177  -29.0019   21.1813 H   0  0  0  0  0  0
  -26.0148  -25.9214   19.0079 H   0  0  0  0  0  0
  -23.9850  -27.2996   19.0149 H   0  0  0  0  0  0
  -23.7720  -30.5891   19.4003 H   0  0  0  0  0  0
  -22.7586  -29.2505   19.8444 H   0  0  0  0  0  0
  -25.1292  -36.1938   25.0820 H   0  0  0  0  0  0
  -20.9946  -28.3296   24.1383 H   0  0  0  0  0  0
  -20.5719  -26.2346   23.3655 H   0  0  0  0  0  0
  -21.6641  -26.7463   22.1194 H   0  0  0  0  0  0
  -19.6947  -25.6294   21.1254 H   0  0  0  0  0  0
  -19.6673  -27.3202   20.6765 H   0  0  0  0  0  0
  -17.4193  -26.6731   21.4010 H   0  0  0  0  0  0
  -18.0279  -26.0077   22.9012 H   0  0  0  0  0  0
  -19.7940  -30.7281   24.2281 H   0  0  0  0  0  0
  -17.5024  -31.6273   24.5199 H   0  0  0  0  0  0
  -15.5371  -30.3037   23.7613 H   0  0  0  0  0  0
  -15.8679  -28.0831   22.7097 H   0  0  0  0  0  0
  -24.5900  -30.7095   25.7751 H   0  0  0  0  0  0
  -24.8928  -32.2910   26.4875 H   0  0  0  0  0  0
  -25.8035  -30.8894   27.0223 H   0  0  0  0  0  0
  -26.2984  -29.6749   24.1228 H   0  0  0  0  0  0
  -27.4053  -29.7287   25.4722 H   0  0  0  0  0  0
  -27.8829  -30.4307   23.9475 H   0  0  0  0  0  0
  -27.2658  -33.3674   26.2032 H   0  0  0  0  0  0
  -28.3873  -32.6877   25.0380 H   0  0  0  0  0  0
  -28.0666  -31.8526   26.5472 H   0  0  0  0  0  0
  -28.2547  -38.0112   24.7558 H   0  0  0  0  0  0
  -28.1092  -36.2656   24.6260 H   0  0  0  0  0  0
  -27.2320  -37.1384   25.8870 H   0  0  0  0  0  0
  -20.9486  -29.8746   21.6849 H   0  0  0  0  0  0
  -26.0162  -38.2839   24.1469 H   0  0  0  0  0  0
  -29.6288  -20.2268   22.2748 H   0  0  0  0  0  0
  -30.0413  -17.8122   22.4394 H   0  0  0  0  0  0
  -26.4813  -23.4298   19.3106 H   0  0  0  0  0  0
  -30.7197  -17.6555   18.1848 H   0  0  0  0  0  0
  -27.0099  -16.1728   18.4213 H   0  0  0  0  0  0
  -28.5825  -15.5409   17.9860 H   0  0  0  0  0  0
  -28.3193  -17.2589   18.1433 H   0  0  0  0  0  0
  -28.0772  -25.5539   18.3175 H   0  0  0  0  0  0
  -29.7035  -25.6452   18.8621 H   0  0  0  0  0  0
  -27.8983  -15.5301   20.6852 H   0  0  0  0  0  0
  -28.0819  -17.1543   20.5300 H   0  0  0  0  0  0
  -26.1667  -20.9591   19.4057 H   0  0  0  0  0  0
  -31.1031  -24.1853   20.0743 H   0  0  0  0  0  0
  1 25  1  0  0  0
  1 30  2  0  0  0
  1 85  1  0  0  0
  2  3  1  0  0  0
  2 25  1  0  0  0
  2 89  1  0  0  0
  2 90  1  0  0  0
  3  4  1  0  0  0
  3 91  1  0  0  0
  3 92  1  0  0  0
  4  5  1  0  0  0
  4 93  1  0  0  0
  4 94  1  0  0  0
  5  6  1  0  0  0
  5 26  1  0  0  0
  5 95  1  0  0  0
  6 25  1  0  0  0
  6 96  1  0  0  0
  6 97  1  0  0  0
  7  8  2  0  0  0
  7 26  1  0  0  0
  7 29  1  0  0  0
  8  9  1  0  0  0
  8 22  1  0  0  0
  9 10  1  0  0  0
  9 27  2  0  0  0
 10 11  2  0  0  0
 10 15  1  0  0  0
 11 12  1  0  0  0
 11 98  1  0  0  0
 12 13  2  0  0  0
 12 99  1  0  0  0
 13 14  1  0  0  0
 13 31  1  0  0  0
 14 15  2  0  0  0
 14100  1  0  0  0
 15101  1  0  0  0
 16 17  2  0  0  0
 16 21  1  0  0  0
 16 31  1  0  0  0
 17 18  1  0  0  0
 17102  1  0  0  0
 18 19  2  0  0  0
 18103  1  0  0  0
 19 20  1  0  0  0
 19 24  1  0  0  0
 20 21  2  0  0  0
 20104  1  0  0  0
 21 23  1  0  0  0
 22 28  1  0  0  0
 22 32  2  0  0  0
 26 27  1  0  0  0
 28105  1  0  0  0
 28106  1  0  0  0
 29107  1  0  0  0
 29108  1  0  0  0
 33 34  1  0  0  0
 33 66  1  0  0  0
 33 70  2  0  0  0
 34 36  1  0  0  0
 34 59  1  0  0  0
 34109  1  0  0  0
 35 44  2  0  0  0
 35 45  1  0  0  0
 35 68  1  0  0  0
 36 56  1  0  0  0
 36110  1  0  0  0
 37 39  1  0  0  0
 37 47  1  0  0  0
 37 66  1  0  0  0
 37111  1  0  0  0
 38 43  2  0  0  0
 38 46  1  0  0  0
 38 47  1  0  0  0
 39 64  1  0  0  0
 39 67  2  0  0  0
 40 52  1  0  0  0
 40 53  2  0  0  0
 40 58  1  0  0  0
 41112  1  0  0  0
 41113  1  0  0  0
 41114  1  0  0  0
 41 48  1  0  0  0
 42 43  1  0  0  0
 42 66  1  0  0  0
 42115  1  0  0  0
 42116  1  0  0  0
 43 44  1  0  0  0
 44117  1  0  0  0
 45 46  2  0  0  0
 45118  1  0  0  0
 46119  1  0  0  0
 47120  1  0  0  0
 47121  1  0  0  0
 48 56  1  0  0  0
 48 65  1  0  0  0
 48122  1  0  0  0
 49 50  1  0  0  0
 49 53  1  0  0  0
 49 64  1  0  0  0
 49123  1  0  0  0
 50 51  1  0  0  0
 50124  1  0  0  0
 50125  1  0  0  0
 51 52  1  0  0  0
 51126  1  0  0  0
 51127  1  0  0  0
 52128  1  0  0  0
 52129  1  0  0  0
 53 54  1  0  0  0
 54 55  2  0  0  0
 54130  1  0  0  0
 55 57  1  0  0  0
 55131  1  0  0  0
 56 69  2  0  0  0
 57 58  2  0  0  0
 57132  1  0  0  0
 58133  1  0  0  0
 59 60  1  0  0  0
 59 61  1  0  0  0
 59 62  1  0  0  0
 60134  1  0  0  0
 60135  1  0  0  0
 60136  1  0  0  0
 61137  1  0  0  0
 61138  1  0  0  0
 61139  1  0  0  0
 62140  1  0  0  0
 62141  1  0  0  0
 62142  1  0  0  0
 63 65  1  0  0  0
 63143  1  0  0  0
 63144  1  0  0  0
 63145  1  0  0  0
 64146  1  0  0  0
 65147  1  0  0  0
 68 82  1  0  0  0
 71 72  2  0  0  0
 71 76  1  0  0  0
 71148  1  0  0  0
 72 77  1  0  0  0
 72149  1  0  0  0
 73 75  1  0  0  0
 73 79  2  0  0  0
 73150  1  0  0  0
 74 77  2  0  0  0
 74 78  1  0  0  0
 74151  1  0  0  0
 75 80  2  0  0  0
 75 82  1  0  0  0
 76 78  2  0  0  0
 76 84  1  0  0  0
 77 85  1  0  0  0
 78 88  1  0  0  0
 79 84  1  0  0  0
 79 86  1  0  0  0
 80 84  1  0  0  0
 80 87  1  0  0  0
 81 83  1  0  0  0
 81152  1  0  0  0
 81153  1  0  0  0
 81154  1  0  0  0
 82155  1  0  0  0
 82156  1  0  0  0
 83 85  1  0  0  0
 83157  1  0  0  0
 83158  1  0  0  0
 86159  1  0  0  0
 87160  1  0  0  0
M  ISO  4   1 100  68 101  82 101  85 100
M  END
> <chiral flag>
0

> <version>
0

> <s_m_source_file>
/data/baiqing/PycharmProjects/Reinvent-master-3.2/result/LINK_invent/BTK/process_docking_weight1_custom_product_contain_oxygen_bond_distance_aromatic_linkinvent_7_9_3/rearranged_h_0091.sdf

> <i_m_source_file_index>
82

> <r_mmod_Potential_Energy-OPLS-2005>
499.435333251953

> <r_mmod_Stretch_Energy-OPLS-2005>
103.982727050781

> <r_mmod_Bend_Energy-OPLS-2005>
200.861999511719

> <r_mmod_Torsional_Energy-OPLS-2005>
385.044158935547

> <r_mmod_Improper_Torsional_Energy-OPLS-2005>
18.6251697540283

> <r_mmod_Van_der_Waal_Energy-OPLS-2005>
156.804962158203

> <r_mmod_Electrostatic_Energy-OPLS-2005>
-252.760314941406

> <r_mmod_Solvation_Energy-OPLS-2005>
-216.588470458984

> <b_mmod_Minimization_Converged-OPLS-2005>
0

> <r_mmod_RMS_Derivative-OPLS-2005>
8.26042175292969

$$$$
82
                    3D
 Structure written by MMmdl.
155164  0  0  1  0            999 V2000
  -30.6259  -14.7995   20.4258 C   0  0  0  0  0  0
  -30.4247  -12.4858   19.4846 C   0  0  0  0  0  0
  -29.5112  -12.5093   18.2406 C   0  0  0  0  0  0
  -28.0377  -12.3313   18.6536 C   0  0  0  0  0  0
  -27.6358  -13.2447   19.8432 C   0  0  2  0  0  0
  -28.6821  -13.2253   20.9790 C   0  0  0  0  0  0
  -25.2486  -13.8215   20.5709 C   0  0  0  0  0  0
  -24.1787  -13.0441   20.9209 C   0  0  0  0  0  0
  -24.6397  -11.6926   20.8734 C   0  0  0  0  0  0
  -23.9081  -10.4300   21.0395 C   0  0  0  0  0  0
  -24.3629   -9.4213   21.9175 C   0  0  0  0  0  0
  -23.6300   -8.2252   22.0754 C   0  0  0  0  0  0
  -22.4289   -8.0280   21.3538 C   0  0  0  0  0  0
  -21.9920   -9.0258   20.4645 C   0  0  0  0  0  0
  -22.7251  -10.2135   20.3046 C   0  0  0  0  0  0
  -21.6858   -6.0735   22.5275 C   0  0  0  0  0  0
  -21.4020   -6.5639   23.8211 C   0  0  0  0  0  0
  -21.3657   -5.6791   24.9173 C   0  0  0  0  0  0
  -21.6047   -4.3057   24.7224 C   0  0  0  0  0  0
  -21.8816   -3.8148   23.4346 C   0  0  0  0  0  0
  -21.9199   -4.6964   22.3401 C   0  0  0  0  0  0
  -22.7805  -13.5212   21.1862 C   0  0  0  0  0  0
  -22.1661   -4.2154   21.0976 F   0  0  0  0  0  0
  -21.5631   -3.4535   25.7734 F   0  0  0  0  0  0
  -29.9776  -13.5786   20.3871 N   0  0  0  0  0  0
  -26.2922  -12.9448   20.3274 N   0  0  0  0  0  0
  -25.9335  -11.6577   20.5745 N   0  0  0  0  0  0
  -22.0465  -12.8205   22.0425 N   0  0  0  0  0  0
  -25.4166  -15.1943   20.4144 N   0  0  0  0  0  0
  -31.8284  -14.8148   20.1572 O   0  0  0  0  0  0
  -21.6650   -6.8877   21.4237 O   0  0  0  0  0  0
  -22.3486  -14.5520   20.6716 O   0  0  0  0  0  0
  -24.6366  -31.8513   23.1985 C   0  0  0  0  0  0
  -25.9173  -32.4737   23.8340 C   0  0  1  0  0  0
  -27.2194  -27.2353   20.1320 C   0  0  0  0  0  0
  -25.5961  -33.8543   24.2265 N   0  0  0  0  0  0
  -23.4358  -30.4738   21.5409 C   0  0  2  0  0  0
  -24.8870  -28.9223   20.1062 C   0  0  0  0  0  0
  -22.7532  -29.4581   22.4895 C   0  0  0  0  0  0
  -18.0287  -28.1388   22.8491 C   0  0  0  0  0  0
  -24.1475  -36.7258   23.2643 C   0  0  0  0  0  0
  -25.9851  -30.7554   21.3850 C   0  0  0  0  0  0
  -26.0608  -29.3766   20.7245 C   0  0  0  0  0  0
  -27.2335  -28.5446   20.7295 C   0  0  0  0  0  0
  -26.0295  -26.8641   19.4715 C   0  0  0  0  0  0
  -24.8781  -27.6742   19.4663 C   0  0  0  0  0  0
  -23.6578  -29.8110   20.1561 C   0  0  0  0  0  0
  -25.4108  -36.3056   24.0330 C   0  0  1  0  0  0
  -20.5902  -28.3705   23.1254 C   0  0  2  0  0  0
  -20.6769  -26.9409   22.5408 C   0  0  0  0  0  0
  -19.5736  -26.6381   21.5214 C   0  0  0  0  0  0
  -18.1917  -26.7933   22.1626 C   0  0  0  0  0  0
  -19.1547  -28.8865   23.2868 C   0  0  0  0  0  0
  -18.9470  -30.1473   23.8882 C   0  0  0  0  0  0
  -17.6468  -30.6595   24.0561 C   0  0  0  0  0  0
  -25.9055  -34.9427   23.5093 C   0  0  0  0  0  0
  -16.5359  -29.9085   23.6342 C   0  0  0  0  0  0
  -16.7276  -28.6500   23.0370 C   0  0  0  0  0  0
  -26.4531  -31.6586   25.0747 C   0  0  0  0  0  0
  -25.3743  -31.3756   26.1467 C   0  0  0  0  0  0
  -27.0395  -30.2993   24.6274 C   0  0  0  0  0  0
  -27.6084  -32.4337   25.7509 C   0  0  0  0  0  0
  -27.5568  -37.1790   24.8470 C   0  0  0  0  0  0
  -21.4232  -29.3046   22.3640 N   0  0  0  0  0  0
  -26.4273  -37.3765   23.9423 N   0  0  0  0  0  0
  -24.7047  -31.0448   22.0978 N   0  0  0  0  0  0
  -23.4209  -28.8111   23.3003 O   0  0  0  0  0  0
  -28.2373  -26.2438   20.2020 O   0  0  0  0  0  0
  -26.5613  -34.8911   22.4655 O   0  0  0  0  0  0
  -23.5506  -32.1360   23.7249 O   0  0  0  0  0  0
  -30.9766  -20.1562   19.5455 C   0  0  0  0  0  0
  -31.4605  -17.7429   19.6064 C   0  0  0  0  0  0
  -29.7407  -19.9949   20.2070 C   0  0  0  0  0  0
  -31.8203  -19.0632   19.2601 C   0  0  0  0  0  0
  -30.2456  -17.4325   20.2683 C   0  0  0  0  0  0
  -29.4001  -18.5993   20.5602 C   0  0  0  0  0  0
  -28.1976  -23.6387   20.7573 C   0  0  0  0  0  0
  -27.4221  -22.6881   21.5866 C   0  0  0  0  0  0
  -27.8409  -25.0010   20.7991 C   0  0  0  0  0  0
  -29.2262  -22.6704   20.0526 C   0  0  0  0  0  0
  -27.8608  -21.2247   21.4077 C   0  0  0  0  0  0
  -28.9673  -21.2201   20.4607 N   0  0  0  0  0  0
  -33.0383  -19.2893   18.6158 N   0  0  0  0  0  0
  -29.8988  -15.9908   20.5773 N   0  0  0  0  0  0
  -26.5036  -22.9838   22.3583 O   0  0  0  0  0  0
  -28.2220  -18.3615   21.1858 F   0  0  0  0  0  0
  -31.4677  -12.5931   19.1812 H   0  0  0  0  0  0
  -30.3621  -11.5211   19.9918 H   0  0  0  0  0  0
  -29.8022  -11.7260   17.5399 H   0  0  0  0  0  0
  -29.6347  -13.4549   17.7112 H   0  0  0  0  0  0
  -27.9024  -11.2836   18.9271 H   0  0  0  0  0  0
  -27.3829  -12.5107   17.7997 H   0  0  0  0  0  0
  -27.6137  -14.2582   19.4422 H   0  0  0  0  0  0
  -28.7275  -12.2430   21.4517 H   0  0  0  0  0  0
  -28.4101  -13.9325   21.7643 H   0  0  0  0  0  0
  -25.2775   -9.5688   22.4753 H   0  0  0  0  0  0
  -24.0012   -7.4644   22.7468 H   0  0  0  0  0  0
  -21.0858   -8.8762   19.8943 H   0  0  0  0  0  0
  -22.3708  -10.9666   19.6150 H   0  0  0  0  0  0
  -21.2006   -7.6147   23.9716 H   0  0  0  0  0  0
  -21.1483   -6.0522   25.9075 H   0  0  0  0  0  0
  -22.0600   -2.7611   23.2848 H   0  0  0  0  0  0
  -22.4096  -11.9871   22.4813 H   0  0  0  0  0  0
  -21.1074  -13.1214   22.2616 H   0  0  0  0  0  0
  -24.6488  -15.8464   20.5307 H   0  0  0  0  0  0
  -26.2672  -15.6411   20.0971 H   0  0  0  0  0  0
  -26.7240  -32.5378   23.1081 H   0  0  0  0  0  0
  -25.0155  -33.9683   25.0442 H   0  0  0  0  0  0
  -22.7351  -31.2982   21.3938 H   0  0  0  0  0  0
  -23.3754  -35.9568   23.3284 H   0  0  0  0  0  0
  -24.3565  -36.8899   22.2059 H   0  0  0  0  0  0
  -23.7206  -37.6442   23.6687 H   0  0  0  0  0  0
  -26.1300  -31.5161   20.6167 H   0  0  0  0  0  0
  -26.8592  -30.8037   22.0226 H   0  0  0  0  0  0
  -28.1253  -28.8771   21.2420 H   0  0  0  0  0  0
  -25.9738  -25.8987   18.9888 H   0  0  0  0  0  0
  -23.9834  -27.3203   18.9735 H   0  0  0  0  0  0
  -23.7859  -30.5897   19.4036 H   0  0  0  0  0  0
  -22.7751  -29.2474   19.8482 H   0  0  0  0  0  0
  -25.1285  -36.1895   25.0820 H   0  0  0  0  0  0
  -20.9992  -28.3286   24.1374 H   0  0  0  0  0  0
  -20.5655  -26.2316   23.3625 H   0  0  0  0  0  0
  -21.6640  -26.7420   22.1199 H   0  0  0  0  0  0
  -19.6889  -25.6284   21.1257 H   0  0  0  0  0  0
  -19.6676  -27.3179   20.6727 H   0  0  0  0  0  0
  -17.4186  -26.6708   21.4017 H   0  0  0  0  0  0
  -18.0295  -26.0072   22.9015 H   0  0  0  0  0  0
  -19.7944  -30.7306   24.2236 H   0  0  0  0  0  0
  -17.5011  -31.6273   24.5164 H   0  0  0  0  0  0
  -15.5360  -30.2977   23.7683 H   0  0  0  0  0  0
  -15.8670  -28.0813   22.7108 H   0  0  0  0  0  0
  -24.5908  -30.7114   25.7800 H   0  0  0  0  0  0
  -24.8950  -32.2927   26.4893 H   0  0  0  0  0  0
  -25.8045  -30.8931   27.0249 H   0  0  0  0  0  0
  -26.3000  -29.6724   24.1271 H   0  0  0  0  0  0
  -27.4029  -29.7287   25.4835 H   0  0  0  0  0  0
  -27.8895  -30.4262   23.9565 H   0  0  0  0  0  0
  -27.2713  -33.3671   26.2027 H   0  0  0  0  0  0
  -28.3919  -32.6839   25.0344 H   0  0  0  0  0  0
  -28.0717  -31.8494   26.5467 H   0  0  0  0  0  0
  -28.2590  -38.0083   24.7523 H   0  0  0  0  0  0
  -28.1062  -36.2622   24.6283 H   0  0  0  0  0  0
  -27.2285  -37.1409   25.8871 H   0  0  0  0  0  0
  -20.9420  -29.8802   21.6871 H   0  0  0  0  0  0
  -26.0143  -38.2826   24.1454 H   0  0  0  0  0  0
  -31.2968  -21.1449   19.2521 H   0  0  0  0  0  0
  -32.1508  -16.9644   19.3275 H   0  0  0  0  0  0
  -27.0234  -25.2329   21.4705 H   0  0  0  0  0  0
  -30.2375  -22.9698   20.3292 H   0  0  0  0  0  0
  -29.1368  -22.7718   18.9699 H   0  0  0  0  0  0
  -27.0260  -20.6328   21.0315 H   0  0  0  0  0  0
  -28.1706  -20.8135   22.3694 H   0  0  0  0  0  0
  -33.4133  -20.2330   18.5789 H   0  0  0  0  0  0
  -33.7646  -18.5799   18.6686 H   0  0  0  0  0  0
  -28.9424  -15.8529   20.8672 H   0  0  0  0  0  0
  1 25  1  0  0  0
  1 30  2  0  0  0
  1 84  1  0  0  0
  2  3  1  0  0  0
  2 25  1  0  0  0
  2 87  1  0  0  0
  2 88  1  0  0  0
  3  4  1  0  0  0
  3 89  1  0  0  0
  3 90  1  0  0  0
  4  5  1  0  0  0
  4 91  1  0  0  0
  4 92  1  0  0  0
  5  6  1  0  0  0
  5 26  1  0  0  0
  5 93  1  0  0  0
  6 25  1  0  0  0
  6 94  1  0  0  0
  6 95  1  0  0  0
  7  8  2  0  0  0
  7 26  1  0  0  0
  7 29  1  0  0  0
  8  9  1  0  0  0
  8 22  1  0  0  0
  9 10  1  0  0  0
  9 27  2  0  0  0
 10 11  2  0  0  0
 10 15  1  0  0  0
 11 12  1  0  0  0
 11 96  1  0  0  0
 12 13  2  0  0  0
 12 97  1  0  0  0
 13 14  1  0  0  0
 13 31  1  0  0  0
 14 15  2  0  0  0
 14 98  1  0  0  0
 15 99  1  0  0  0
 16 17  2  0  0  0
 16 21  1  0  0  0
 16 31  1  0  0  0
 17 18  1  0  0  0
 17100  1  0  0  0
 18 19  2  0  0  0
 18101  1  0  0  0
 19 20  1  0  0  0
 19 24  1  0  0  0
 20 21  2  0  0  0
 20102  1  0  0  0
 21 23  1  0  0  0
 22 28  1  0  0  0
 22 32  2  0  0  0
 26 27  1  0  0  0
 28103  1  0  0  0
 28104  1  0  0  0
 29105  1  0  0  0
 29106  1  0  0  0
 33 34  1  0  0  0
 33 66  1  0  0  0
 33 70  2  0  0  0
 34 36  1  0  0  0
 34 59  1  0  0  0
 34107  1  0  0  0
 35 44  2  0  0  0
 35 45  1  0  0  0
 35 68  1  0  0  0
 36 56  1  0  0  0
 36108  1  0  0  0
 37 39  1  0  0  0
 37 47  1  0  0  0
 37 66  1  0  0  0
 37109  1  0  0  0
 38 43  2  0  0  0
 38 46  1  0  0  0
 38 47  1  0  0  0
 39 64  1  0  0  0
 39 67  2  0  0  0
 40 52  1  0  0  0
 40 53  2  0  0  0
 40 58  1  0  0  0
 41110  1  0  0  0
 41111  1  0  0  0
 41112  1  0  0  0
 41 48  1  0  0  0
 42 43  1  0  0  0
 42 66  1  0  0  0
 42113  1  0  0  0
 42114  1  0  0  0
 43 44  1  0  0  0
 44115  1  0  0  0
 45 46  2  0  0  0
 45116  1  0  0  0
 46117  1  0  0  0
 47118  1  0  0  0
 47119  1  0  0  0
 48 56  1  0  0  0
 48 65  1  0  0  0
 48120  1  0  0  0
 49 50  1  0  0  0
 49 53  1  0  0  0
 49 64  1  0  0  0
 49121  1  0  0  0
 50 51  1  0  0  0
 50122  1  0  0  0
 50123  1  0  0  0
 51 52  1  0  0  0
 51124  1  0  0  0
 51125  1  0  0  0
 52126  1  0  0  0
 52127  1  0  0  0
 53 54  1  0  0  0
 54 55  2  0  0  0
 54128  1  0  0  0
 55 57  1  0  0  0
 55129  1  0  0  0
 56 69  2  0  0  0
 57 58  2  0  0  0
 57130  1  0  0  0
 58131  1  0  0  0
 59 60  1  0  0  0
 59 61  1  0  0  0
 59 62  1  0  0  0
 60132  1  0  0  0
 60133  1  0  0  0
 60134  1  0  0  0
 61135  1  0  0  0
 61136  1  0  0  0
 61137  1  0  0  0
 62138  1  0  0  0
 62139  1  0  0  0
 62140  1  0  0  0
 63 65  1  0  0  0
 63141  1  0  0  0
 63142  1  0  0  0
 63143  1  0  0  0
 64144  1  0  0  0
 65145  1  0  0  0
 68 79  1  0  0  0
 71 73  2  0  0  0
 71 74  1  0  0  0
 71146  1  0  0  0
 72 74  2  0  0  0
 72 75  1  0  0  0
 72147  1  0  0  0
 73 76  1  0  0  0
 73 82  1  0  0  0
 74 83  1  0  0  0
 75 76  2  0  0  0
 75 84  1  0  0  0
 76 86  1  0  0  0
 77 78  1  0  0  0
 77 79  2  0  0  0
 77 80  1  0  0  0
 78 81  1  0  0  0
 78 85  2  0  0  0
 79148  1  0  0  0
 80 82  1  0  0  0
 80149  1  0  0  0
 80150  1  0  0  0
 81 82  1  0  0  0
 81151  1  0  0  0
 81152  1  0  0  0
 83153  1  0  0  0
 83154  1  0  0  0
 84155  1  0  0  0
M  ISO  4   1 100  68 101  79 101  84 100
M  END
> <chiral flag>
0

> <version>
0

> <s_m_source_file>
/data/baiqing/PycharmProjects/Reinvent-master-3.2/result/LINK_invent/BTK/process_docking_weight1_custom_product_contain_oxygen_bond_distance_aromatic_linkinvent_7_9_3/rearranged_h_0091.sdf

> <i_m_source_file_index>
83

> <r_mmod_Potential_Energy-OPLS-2005>
388.224029541016

> <r_mmod_Stretch_Energy-OPLS-2005>
150.23908996582

> <r_mmod_Bend_Energy-OPLS-2005>
260.430358886719

> <r_mmod_Torsional_Energy-OPLS-2005>
215.561904907227

> <r_mmod_Improper_Torsional_Energy-OPLS-2005>
7.23596048355103

> <r_mmod_Van_der_Waal_Energy-OPLS-2005>
143.655487060547

> <r_mmod_Electrostatic_Energy-OPLS-2005>
-271.103088378906

> <r_mmod_Solvation_Energy-OPLS-2005>
-235.189834594727

> <b_mmod_Minimization_Converged-OPLS-2005>
0

> <r_mmod_RMS_Derivative-OPLS-2005>
1.4718382358551

$$$$
83
                    3D
 Structure written by MMmdl.
157166  0  0  1  0            999 V2000
  -30.6014  -14.6685   20.6067 C   0  0  0  0  0  0
  -30.4500  -12.4414   19.4758 C   0  0  0  0  0  0
  -29.5222  -12.5370   18.2403 C   0  0  0  0  0  0
  -28.0435  -12.3392   18.6363 C   0  0  0  0  0  0
  -27.6554  -13.1982   19.8680 C   0  0  2  0  0  0
  -28.6831  -12.9932   20.9961 C   0  0  0  0  0  0
  -25.2570  -13.8096   20.5622 C   0  0  0  0  0  0
  -24.1832  -13.0411   20.9113 C   0  0  0  0  0  0
  -24.6352  -11.6868   20.8674 C   0  0  0  0  0  0
  -23.9019  -10.4281   21.0386 C   0  0  0  0  0  0
  -24.3600   -9.4208   21.9163 C   0  0  0  0  0  0
  -23.6277   -8.2258   22.0754 C   0  0  0  0  0  0
  -22.4246   -8.0279   21.3554 C   0  0  0  0  0  0
  -21.9883   -9.0239   20.4642 C   0  0  0  0  0  0
  -22.7195  -10.2122   20.3035 C   0  0  0  0  0  0
  -21.6851   -6.0730   22.5288 C   0  0  0  0  0  0
  -21.3999   -6.5636   23.8222 C   0  0  0  0  0  0
  -21.3658   -5.6792   24.9187 C   0  0  0  0  0  0
  -21.6055   -4.3054   24.7240 C   0  0  0  0  0  0
  -21.8816   -3.8150   23.4355 C   0  0  0  0  0  0
  -21.9187   -4.6961   22.3406 C   0  0  0  0  0  0
  -22.7859  -13.5219   21.1813 C   0  0  0  0  0  0
  -22.1660   -4.2146   21.0984 F   0  0  0  0  0  0
  -21.5641   -3.4543   25.7749 F   0  0  0  0  0  0
  -29.9975  -13.4278   20.4844 N   0  0  0  0  0  0
  -26.2974  -12.9250   20.3249 N   0  0  0  0  0  0
  -25.9266  -11.6418   20.5674 N   0  0  0  0  0  0
  -22.0535  -12.8224   22.0384 N   0  0  0  0  0  0
  -25.4303  -15.1829   20.4099 N   0  0  0  0  0  0
  -31.6834  -14.8898   20.0481 O   0  0  0  0  0  0
  -21.6623   -6.8869   21.4238 O   0  0  0  0  0  0
  -22.3568  -14.5569   20.6700 O   0  0  0  0  0  0
  -24.6243  -31.8630   23.2035 C   0  0  0  0  0  0
  -25.9099  -32.4802   23.8392 C   0  0  1  0  0  0
  -27.2359  -27.3394   20.1518 C   0  0  0  0  0  0
  -25.5950  -33.8604   24.2314 N   0  0  0  0  0  0
  -23.4178  -30.4809   21.5427 C   0  0  2  0  0  0
  -24.8745  -28.9368   20.1088 C   0  0  0  0  0  0
  -22.7499  -29.4618   22.4953 C   0  0  0  0  0  0
  -18.0278  -28.1417   22.8452 C   0  0  0  0  0  0
  -24.1470  -36.7281   23.2622 C   0  0  0  0  0  0
  -25.9529  -30.8013   21.3652 C   0  0  0  0  0  0
  -26.0365  -29.4244   20.7251 C   0  0  0  0  0  0
  -27.2265  -28.6409   20.7328 C   0  0  0  0  0  0
  -26.0614  -26.8900   19.5162 C   0  0  0  0  0  0
  -24.8936  -27.6798   19.4787 C   0  0  0  0  0  0
  -23.6339  -29.8140   20.1566 C   0  0  0  0  0  0
  -25.4097  -36.3097   24.0312 C   0  0  1  0  0  0
  -20.5862  -28.3726   23.1290 C   0  0  2  0  0  0
  -20.6766  -26.9464   22.5389 C   0  0  0  0  0  0
  -19.5752  -26.6426   21.5176 C   0  0  0  0  0  0
  -18.1930  -26.7960   22.1580 C   0  0  0  0  0  0
  -19.1529  -28.8883   23.2854 C   0  0  0  0  0  0
  -18.9452  -30.1472   23.8900 C   0  0  0  0  0  0
  -17.6455  -30.6607   24.0571 C   0  0  0  0  0  0
  -25.9070  -34.9463   23.5116 C   0  0  0  0  0  0
  -16.5342  -29.9101   23.6349 C   0  0  0  0  0  0
  -16.7261  -28.6515   23.0367 C   0  0  0  0  0  0
  -26.4530  -31.6586   25.0725 C   0  0  0  0  0  0
  -25.3802  -31.3603   26.1445 C   0  0  0  0  0  0
  -27.0368  -30.3068   24.6062 C   0  0  0  0  0  0
  -27.6179  -32.4284   25.7433 C   0  0  0  0  0  0
  -27.5612  -37.1737   24.8439 C   0  0  0  0  0  0
  -21.4211  -29.3063   22.3706 N   0  0  0  0  0  0
  -26.4272  -37.3838   23.9462 N   0  0  0  0  0  0
  -24.6828  -31.0661   22.0950 N   0  0  0  0  0  0
  -23.4230  -28.8216   23.3069 O   0  0  0  0  0  0
  -28.3327  -26.4765   20.1847 O   0  0  0  0  0  0
  -26.5655  -34.8943   22.4704 O   0  0  0  0  0  0
  -23.5406  -32.1419   23.7366 O   0  0  0  0  0  0
  -30.8484  -18.1078   20.6169 C   0  0  0  0  0  0
  -30.6974  -19.5196   20.4056 C   0  0  0  0  0  0
  -29.2579  -23.6237   19.2298 C   0  0  0  0  0  0
  -28.3905  -19.3755   21.0189 C   0  0  0  0  0  0
  -29.7738  -17.2750   21.0418 C   0  0  0  0  0  0
  -28.6874  -23.8910   20.5051 C   0  0  0  0  0  0
  -29.4602  -20.2013   20.6078 C   0  0  0  0  0  0
  -28.5361  -17.9709   21.2201 C   0  0  0  0  0  0
  -28.7034  -22.6567   21.1649 C   0  0  0  0  0  0
  -29.5720  -22.2932   19.1630 C   0  0  0  0  0  0
  -29.9097  -15.7936   21.4875 C   0  0  0  0  0  0
  -28.2226  -22.3442   22.5488 C   0  0  0  0  0  0
  -28.1674  -25.2740   21.0219 C   0  0  0  0  0  0
  -29.4558  -15.4941   22.6371 N   0  0  0  0  0  0
  -29.2637  -21.6376   20.3493 N   0  0  0  0  0  0
  -30.1085  -21.6172   18.1131 O   0  0  0  0  0  0
  -27.4376  -17.2899   21.6256 F   0  0  0  0  0  0
  -31.4901  -12.5980   19.1841 H   0  0  0  0  0  0
  -30.4232  -11.4374   19.9015 H   0  0  0  0  0  0
  -29.8169  -11.7936   17.4985 H   0  0  0  0  0  0
  -29.6446  -13.5102   17.7620 H   0  0  0  0  0  0
  -27.9032  -11.2825   18.8679 H   0  0  0  0  0  0
  -27.3891  -12.5536   17.7909 H   0  0  0  0  0  0
  -27.6899  -14.2408   19.5554 H   0  0  0  0  0  0
  -28.7260  -11.9356   21.2654 H   0  0  0  0  0  0
  -28.3493  -13.4765   21.9090 H   0  0  0  0  0  0
  -25.2751   -9.5714   22.4695 H   0  0  0  0  0  0
  -23.9998   -7.4667   22.7481 H   0  0  0  0  0  0
  -21.0817   -8.8747   19.8936 H   0  0  0  0  0  0
  -22.3649  -10.9661   19.6141 H   0  0  0  0  0  0
  -21.1978   -7.6140   23.9715 H   0  0  0  0  0  0
  -21.1486   -6.0527   25.9087 H   0  0  0  0  0  0
  -22.0591   -2.7604   23.2864 H   0  0  0  0  0  0
  -22.4170  -11.9878   22.4757 H   0  0  0  0  0  0
  -21.1157  -13.1260   22.2620 H   0  0  0  0  0  0
  -24.6821  -15.8422   20.5861 H   0  0  0  0  0  0
  -26.3154  -15.6353   20.2251 H   0  0  0  0  0  0
  -26.7191  -32.5484   23.1171 H   0  0  0  0  0  0
  -25.0130  -33.9790   25.0483 H   0  0  0  0  0  0
  -22.6991  -31.2926   21.4017 H   0  0  0  0  0  0
  -23.3792  -35.9541   23.3180 H   0  0  0  0  0  0
  -24.3599  -36.9041   22.2065 H   0  0  0  0  0  0
  -23.7116  -37.6396   23.6734 H   0  0  0  0  0  0
  -26.0639  -31.5431   20.5730 H   0  0  0  0  0  0
  -26.8377  -30.8693   21.9839 H   0  0  0  0  0  0
  -28.1219  -29.0121   21.2187 H   0  0  0  0  0  0
  -26.0524  -25.9067   19.0652 H   0  0  0  0  0  0
  -24.0187  -27.3049   18.9669 H   0  0  0  0  0  0
  -23.7474  -30.5861   19.3927 H   0  0  0  0  0  0
  -22.7469  -29.2463   19.8700 H   0  0  0  0  0  0
  -25.1240  -36.1940   25.0796 H   0  0  0  0  0  0
  -20.9918  -28.3297   24.1424 H   0  0  0  0  0  0
  -20.5693  -26.2349   23.3584 H   0  0  0  0  0  0
  -21.6653  -26.7530   22.1202 H   0  0  0  0  0  0
  -19.6944  -25.6332   21.1245 H   0  0  0  0  0  0
  -19.6689  -27.3205   20.6672 H   0  0  0  0  0  0
  -17.4209  -26.6690   21.3976 H   0  0  0  0  0  0
  -18.0333  -26.0107   22.8987 H   0  0  0  0  0  0
  -19.7929  -30.7267   24.2315 H   0  0  0  0  0  0
  -17.5011  -31.6281   24.5187 H   0  0  0  0  0  0
  -15.5356  -30.3015   23.7657 H   0  0  0  0  0  0
  -15.8659  -28.0830   22.7123 H   0  0  0  0  0  0
  -24.6011  -30.6955   25.7699 H   0  0  0  0  0  0
  -24.8913  -32.2675   26.5001 H   0  0  0  0  0  0
  -25.8130  -30.8667   27.0156 H   0  0  0  0  0  0
  -26.2873  -29.6788   24.1242 H   0  0  0  0  0  0
  -27.4334  -29.7351   25.4456 H   0  0  0  0  0  0
  -27.8621  -30.4446   23.9082 H   0  0  0  0  0  0
  -27.2976  -33.3681   26.1956 H   0  0  0  0  0  0
  -28.3989  -32.6695   25.0204 H   0  0  0  0  0  0
  -28.0872  -31.8425   26.5358 H   0  0  0  0  0  0
  -28.2486  -38.0196   24.7825 H   0  0  0  0  0  0
  -28.1282  -36.2767   24.5865 H   0  0  0  0  0  0
  -27.2385  -37.0891   25.8846 H   0  0  0  0  0  0
  -20.9428  -29.8779   21.6894 H   0  0  0  0  0  0
  -26.0127  -38.2854   24.1706 H   0  0  0  0  0  0
  -31.8266  -17.6680   20.4879 H   0  0  0  0  0  0
  -31.5594  -20.0888   20.0856 H   0  0  0  0  0  0
  -29.4177  -24.3418   18.4339 H   0  0  0  0  0  0
  -27.4262  -19.8276   21.1905 H   0  0  0  0  0  0
  -28.4587  -23.1492   23.2453 H   0  0  0  0  0  0
  -28.7018  -21.4516   22.9467 H   0  0  0  0  0  0
  -27.1422  -22.1841   22.5602 H   0  0  0  0  0  0
  -28.7141  -25.4648   21.9454 H   0  0  0  0  0  0
  -27.1258  -25.1528   21.3305 H   0  0  0  0  0  0
  -29.0071  -16.2816   23.0881 H   0  0  0  0  0  0
  -30.3146  -22.2562   17.4372 H   0  0  0  0  0  0
  1 25  1  0  0  0
  1 30  2  0  0  0
  1 81  1  0  0  0
  2  3  1  0  0  0
  2 25  1  0  0  0
  2 88  1  0  0  0
  2 89  1  0  0  0
  3  4  1  0  0  0
  3 90  1  0  0  0
  3 91  1  0  0  0
  4  5  1  0  0  0
  4 92  1  0  0  0
  4 93  1  0  0  0
  5  6  1  0  0  0
  5 26  1  0  0  0
  5 94  1  0  0  0
  6 25  1  0  0  0
  6 95  1  0  0  0
  6 96  1  0  0  0
  7  8  2  0  0  0
  7 26  1  0  0  0
  7 29  1  0  0  0
  8  9  1  0  0  0
  8 22  1  0  0  0
  9 10  1  0  0  0
  9 27  2  0  0  0
 10 11  2  0  0  0
 10 15  1  0  0  0
 11 12  1  0  0  0
 11 97  1  0  0  0
 12 13  2  0  0  0
 12 98  1  0  0  0
 13 14  1  0  0  0
 13 31  1  0  0  0
 14 15  2  0  0  0
 14 99  1  0  0  0
 15100  1  0  0  0
 16 17  2  0  0  0
 16 21  1  0  0  0
 16 31  1  0  0  0
 17 18  1  0  0  0
 17101  1  0  0  0
 18 19  2  0  0  0
 18102  1  0  0  0
 19 20  1  0  0  0
 19 24  1  0  0  0
 20 21  2  0  0  0
 20103  1  0  0  0
 21 23  1  0  0  0
 22 28  1  0  0  0
 22 32  2  0  0  0
 26 27  1  0  0  0
 28104  1  0  0  0
 28105  1  0  0  0
 29106  1  0  0  0
 29107  1  0  0  0
 33 34  1  0  0  0
 33 66  1  0  0  0
 33 70  2  0  0  0
 34 36  1  0  0  0
 34 59  1  0  0  0
 34108  1  0  0  0
 35 44  2  0  0  0
 35 45  1  0  0  0
 35 68  1  0  0  0
 36 56  1  0  0  0
 36109  1  0  0  0
 37 39  1  0  0  0
 37 47  1  0  0  0
 37 66  1  0  0  0
 37110  1  0  0  0
 38 43  2  0  0  0
 38 46  1  0  0  0
 38 47  1  0  0  0
 39 64  1  0  0  0
 39 67  2  0  0  0
 40 52  1  0  0  0
 40 53  2  0  0  0
 40 58  1  0  0  0
 41111  1  0  0  0
 41112  1  0  0  0
 41113  1  0  0  0
 41 48  1  0  0  0
 42 43  1  0  0  0
 42 66  1  0  0  0
 42114  1  0  0  0
 42115  1  0  0  0
 43 44  1  0  0  0
 44116  1  0  0  0
 45 46  2  0  0  0
 45117  1  0  0  0
 46118  1  0  0  0
 47119  1  0  0  0
 47120  1  0  0  0
 48 56  1  0  0  0
 48 65  1  0  0  0
 48121  1  0  0  0
 49 50  1  0  0  0
 49 53  1  0  0  0
 49 64  1  0  0  0
 49122  1  0  0  0
 50 51  1  0  0  0
 50123  1  0  0  0
 50124  1  0  0  0
 51 52  1  0  0  0
 51125  1  0  0  0
 51126  1  0  0  0
 52127  1  0  0  0
 52128  1  0  0  0
 53 54  1  0  0  0
 54 55  2  0  0  0
 54129  1  0  0  0
 55 57  1  0  0  0
 55130  1  0  0  0
 56 69  2  0  0  0
 57 58  2  0  0  0
 57131  1  0  0  0
 58132  1  0  0  0
 59 60  1  0  0  0
 59 61  1  0  0  0
 59 62  1  0  0  0
 60133  1  0  0  0
 60134  1  0  0  0
 60135  1  0  0  0
 61136  1  0  0  0
 61137  1  0  0  0
 61138  1  0  0  0
 62139  1  0  0  0
 62140  1  0  0  0
 62141  1  0  0  0
 63 65  1  0  0  0
 63142  1  0  0  0
 63143  1  0  0  0
 63144  1  0  0  0
 64145  1  0  0  0
 65146  1  0  0  0
 68 83  1  0  0  0
 71 72  2  0  0  0
 71 75  1  0  0  0
 71147  1  0  0  0
 72 77  1  0  0  0
 72148  1  0  0  0
 73 76  1  0  0  0
 73 80  2  0  0  0
 73149  1  0  0  0
 74 77  2  0  0  0
 74 78  1  0  0  0
 74150  1  0  0  0
 75 78  2  0  0  0
 75 81  1  0  0  0
 76 79  2  0  0  0
 76 83  1  0  0  0
 77 85  1  0  0  0
 78 87  1  0  0  0
 79 82  1  0  0  0
 79 85  1  0  0  0
 80 85  1  0  0  0
 80 86  1  0  0  0
 81 84  2  0  0  0
 82151  1  0  0  0
 82152  1  0  0  0
 82153  1  0  0  0
 83154  1  0  0  0
 83155  1  0  0  0
 84156  1  0  0  0
 86157  1  0  0  0
M  ISO  4   1 100  68 101  81 100  83 101
M  END
> <chiral flag>
0

> <version>
0

> <s_m_source_file>
/data/baiqing/PycharmProjects/Reinvent-master-3.2/result/LINK_invent/BTK/process_docking_weight1_custom_product_contain_oxygen_bond_distance_aromatic_linkinvent_7_9_3/rearranged_h_0091.sdf

> <i_m_source_file_index>
84

> <r_mmod_Potential_Energy-OPLS-2005>
233.824005126953

> <r_mmod_Stretch_Energy-OPLS-2005>
93.5982131958008

> <r_mmod_Bend_Energy-OPLS-2005>
144.886260986328

> <r_mmod_Torsional_Energy-OPLS-2005>
247.832824707031

> <r_mmod_Improper_Torsional_Energy-OPLS-2005>
3.10031676292419

> <r_mmod_Van_der_Waal_Energy-OPLS-2005>
139.487533569336

> <r_mmod_Electrostatic_Energy-OPLS-2005>
-247.034164428711

> <r_mmod_Solvation_Energy-OPLS-2005>
-200.731918334961

> <b_mmod_Minimization_Converged-OPLS-2005>
0

> <r_mmod_RMS_Derivative-OPLS-2005>
5.33438730239868

$$$$
84
                    3D
 Structure written by MMmdl.
155164  0  0  1  0            999 V2000
  -30.7292  -14.6264   20.5355 C   0  0  0  0  0  0
  -30.4142  -12.4135   19.4435 C   0  0  0  0  0  0
  -29.4892  -12.4933   18.2153 C   0  0  0  0  0  0
  -28.0248  -12.3066   18.6480 C   0  0  0  0  0  0
  -27.6400  -13.2117   19.8467 C   0  0  2  0  0  0
  -28.6896  -13.1619   20.9793 C   0  0  0  0  0  0
  -25.2578  -13.8177   20.5727 C   0  0  0  0  0  0
  -24.1827  -13.0458   20.9210 C   0  0  0  0  0  0
  -24.6375  -11.6916   20.8760 C   0  0  0  0  0  0
  -23.9045  -10.4307   21.0415 C   0  0  0  0  0  0
  -24.3609   -9.4224   21.9185 C   0  0  0  0  0  0
  -23.6304   -8.2254   22.0750 C   0  0  0  0  0  0
  -22.4286   -8.0286   21.3539 C   0  0  0  0  0  0
  -21.9916   -9.0260   20.4645 C   0  0  0  0  0  0
  -22.7229  -10.2148   20.3053 C   0  0  0  0  0  0
  -21.6856   -6.0744   22.5273 C   0  0  0  0  0  0
  -21.4026   -6.5645   23.8209 C   0  0  0  0  0  0
  -21.3649   -5.6791   24.9170 C   0  0  0  0  0  0
  -21.6039   -4.3053   24.7218 C   0  0  0  0  0  0
  -21.8828   -3.8155   23.4337 C   0  0  0  0  0  0
  -21.9201   -4.6978   22.3399 C   0  0  0  0  0  0
  -22.7854  -13.5262   21.1859 C   0  0  0  0  0  0
  -22.1668   -4.2172   21.0975 F   0  0  0  0  0  0
  -21.5619   -3.4526   25.7726 F   0  0  0  0  0  0
  -29.9962  -13.4739   20.3872 N   0  0  0  0  0  0
  -26.2945  -12.9323   20.3310 N   0  0  0  0  0  0
  -25.9291  -11.6490   20.5788 N   0  0  0  0  0  0
  -22.0491  -12.8223   22.0391 N   0  0  0  0  0  0
  -25.4408  -15.1894   20.4165 N   0  0  0  0  0  0
  -31.8970  -14.6704   20.1486 O   0  0  0  0  0  0
  -21.6641   -6.8883   21.4233 O   0  0  0  0  0  0
  -22.3528  -14.5558   20.6695 O   0  0  0  0  0  0
  -24.6200  -31.8632   23.2024 C   0  0  0  0  0  0
  -25.9074  -32.4793   23.8360 C   0  0  1  0  0  0
  -27.2303  -27.3505   20.1132 C   0  0  0  0  0  0
  -25.5894  -33.8598   24.2281 N   0  0  0  0  0  0
  -23.4133  -30.4813   21.5450 C   0  0  2  0  0  0
  -24.8628  -28.9443   20.1071 C   0  0  0  0  0  0
  -22.7462  -29.4590   22.4957 C   0  0  0  0  0  0
  -18.0316  -28.1310   22.8468 C   0  0  0  0  0  0
  -24.1480  -36.7327   23.2634 C   0  0  0  0  0  0
  -25.9479  -30.8029   21.3676 C   0  0  0  0  0  0
  -26.0262  -29.4296   20.7147 C   0  0  0  0  0  0
  -27.2110  -28.6398   20.7174 C   0  0  0  0  0  0
  -26.0399  -26.9043   19.4918 C   0  0  0  0  0  0
  -24.8699  -27.6845   19.4859 C   0  0  0  0  0  0
  -23.6269  -29.8184   20.1581 C   0  0  0  0  0  0
  -25.4099  -36.3104   24.0326 C   0  0  1  0  0  0
  -20.5905  -28.3636   23.1335 C   0  0  2  0  0  0
  -20.6789  -26.9360   22.5469 C   0  0  0  0  0  0
  -19.5833  -26.6397   21.5189 C   0  0  0  0  0  0
  -18.1995  -26.7871   22.1547 C   0  0  0  0  0  0
  -19.1554  -28.8787   23.2906 C   0  0  0  0  0  0
  -18.9453  -30.1376   23.8922 C   0  0  0  0  0  0
  -17.6441  -30.6507   24.0535 C   0  0  0  0  0  0
  -25.9027  -34.9466   23.5107 C   0  0  0  0  0  0
  -16.5344  -29.9011   23.6239 C   0  0  0  0  0  0
  -16.7298  -28.6422   23.0280 C   0  0  0  0  0  0
  -26.4471  -31.6594   25.0713 C   0  0  0  0  0  0
  -25.3705  -31.3736   26.1446 C   0  0  0  0  0  0
  -27.0303  -30.3027   24.6126 C   0  0  0  0  0  0
  -27.6018  -32.4336   25.7494 C   0  0  0  0  0  0
  -27.5577  -37.1827   24.8459 C   0  0  0  0  0  0
  -21.4177  -29.3012   22.3712 N   0  0  0  0  0  0
  -26.4282  -37.3792   23.9402 N   0  0  0  0  0  0
  -24.6789  -31.0661   22.0965 N   0  0  0  0  0  0
  -23.4207  -28.8127   23.3027 O   0  0  0  0  0  0
  -28.3408  -26.5017   20.1941 O   0  0  0  0  0  0
  -26.5608  -34.8938   22.4687 O   0  0  0  0  0  0
  -23.5375  -32.1429   23.7369 O   0  0  0  0  0  0
  -28.9984  -19.2722   20.0331 C   0  0  0  0  0  0
  -29.5404  -18.1772   20.8239 C   0  0  0  0  0  0
  -29.2070  -20.5600   20.5193 C   0  0  0  0  0  0
  -30.1579  -18.6818   21.9561 C   0  0  0  0  0  0
  -28.7812  -24.1730   19.3244 C   0  0  0  0  0  0
  -28.5127  -25.5164   19.2259 C   0  0  0  0  0  0
  -29.4125  -16.6943   20.4037 C   0  0  0  0  0  0
  -28.8832  -23.3228   18.0776 C   0  0  0  0  0  0
  -28.9609  -23.1857   20.5027 C   0  0  0  0  0  0
  -28.5465  -21.8905   18.5069 C   0  0  0  0  0  0
  -28.8311  -21.8128   19.9305 N   0  0  0  0  0  0
  -30.8096  -18.0266   23.0020 N   0  0  0  0  0  0
  -30.1872  -15.7726   21.0459 N   0  0  0  0  0  0
  -28.6567  -16.3933   19.4751 O   0  0  0  0  0  0
  -30.0658  -20.4438   22.0343 S   0  0  0  0  0  0
  -31.4542  -12.5099   19.1259 H   0  0  0  0  0  0
  -30.3393  -11.4353   19.9182 H   0  0  0  0  0  0
  -29.7651  -11.7301   17.4846 H   0  0  0  0  0  0
  -29.6090  -13.4563   17.7159 H   0  0  0  0  0  0
  -27.8901  -11.2580   18.9179 H   0  0  0  0  0  0
  -27.3573  -12.4923   17.8064 H   0  0  0  0  0  0
  -27.6221  -14.2195   19.4445 H   0  0  0  0  0  0
  -28.7143  -12.1771   21.4492 H   0  0  0  0  0  0
  -28.4349  -13.8728   21.7659 H   0  0  0  0  0  0
  -25.2751   -9.5719   22.4753 H   0  0  0  0  0  0
  -24.0016   -7.4654   22.7464 H   0  0  0  0  0  0
  -21.0846   -8.8777   19.8957 H   0  0  0  0  0  0
  -22.3677  -10.9683   19.6166 H   0  0  0  0  0  0
  -21.2028   -7.6155   23.9719 H   0  0  0  0  0  0
  -21.1452   -6.0520   25.9069 H   0  0  0  0  0  0
  -22.0621   -2.7618   23.2830 H   0  0  0  0  0  0
  -22.4111  -11.9869   22.4729 H   0  0  0  0  0  0
  -21.1115  -13.1238   22.2577 H   0  0  0  0  0  0
  -24.6955  -15.8621   20.5563 H   0  0  0  0  0  0
  -26.3043  -15.6087   20.0886 H   0  0  0  0  0  0
  -26.7154  -32.5486   23.1133 H   0  0  0  0  0  0
  -25.0033  -33.9727   25.0424 H   0  0  0  0  0  0
  -22.7013  -31.2975   21.4047 H   0  0  0  0  0  0
  -23.3724  -35.9680   23.3291 H   0  0  0  0  0  0
  -24.3559  -36.8959   22.2047 H   0  0  0  0  0  0
  -23.7260  -37.6541   23.6662 H   0  0  0  0  0  0
  -26.0623  -31.5595   20.5902 H   0  0  0  0  0  0
  -26.8359  -30.8649   21.9861 H   0  0  0  0  0  0
  -28.1024  -29.0026   21.2116 H   0  0  0  0  0  0
  -25.9917  -25.9279   19.0296 H   0  0  0  0  0  0
  -23.9779  -27.3041   19.0077 H   0  0  0  0  0  0
  -23.7391  -30.5951   19.4018 H   0  0  0  0  0  0
  -22.7492  -29.2428   19.8580 H   0  0  0  0  0  0
  -25.1278  -36.1955   25.0815 H   0  0  0  0  0  0
  -20.9982  -28.3202   24.1464 H   0  0  0  0  0  0
  -20.5538  -26.2259   23.3637 H   0  0  0  0  0  0
  -21.6709  -26.7320   22.1396 H   0  0  0  0  0  0
  -19.7036  -25.6333   21.1122 H   0  0  0  0  0  0
  -19.6815  -27.3272   20.6771 H   0  0  0  0  0  0
  -17.4313  -26.6687   21.3891 H   0  0  0  0  0  0
  -18.0384  -25.9934   22.8860 H   0  0  0  0  0  0
  -19.7915  -30.7182   24.2358 H   0  0  0  0  0  0
  -17.4986  -31.6169   24.5158 H   0  0  0  0  0  0
  -15.5336  -30.2903   23.7522 H   0  0  0  0  0  0
  -15.8738  -28.0705   22.6978 H   0  0  0  0  0  0
  -24.5872  -30.7071   25.7803 H   0  0  0  0  0  0
  -24.8890  -32.2904   26.4857 H   0  0  0  0  0  0
  -25.8028  -30.8941   27.0237 H   0  0  0  0  0  0
  -26.2865  -29.6819   24.1111 H   0  0  0  0  0  0
  -27.3987  -29.7229   25.4603 H   0  0  0  0  0  0
  -27.8739  -30.4342   23.9345 H   0  0  0  0  0  0
  -27.2598  -33.3637   26.2056 H   0  0  0  0  0  0
  -28.3834  -32.6911   25.0329 H   0  0  0  0  0  0
  -28.0688  -31.8482   26.5434 H   0  0  0  0  0  0
  -28.2596  -38.0124   24.7489 H   0  0  0  0  0  0
  -28.1068  -36.2651   24.6290 H   0  0  0  0  0  0
  -27.2290  -37.1492   25.8863 H   0  0  0  0  0  0
  -20.9339  -29.8731   21.6929 H   0  0  0  0  0  0
  -26.0162  -38.2866   24.1407 H   0  0  0  0  0  0
  -28.4723  -19.0624   19.1125 H   0  0  0  0  0  0
  -28.4090  -25.9586   18.2435 H   0  0  0  0  0  0
  -29.9141  -23.3690   17.7240 H   0  0  0  0  0  0
  -28.2403  -23.6794   17.2725 H   0  0  0  0  0  0
  -28.2099  -23.3734   21.2703 H   0  0  0  0  0  0
  -29.9489  -23.3203   20.9478 H   0  0  0  0  0  0
  -29.1192  -21.1622   17.9294 H   0  0  0  0  0  0
  -27.4868  -21.6841   18.3452 H   0  0  0  0  0  0
  -31.1595  -18.6311   23.7424 H   0  0  0  0  0  0
  -30.3691  -17.2143   23.4260 H   0  0  0  0  0  0
  -30.8357  -16.2849   21.6287 H   0  0  0  0  0  0
  1 25  1  0  0  0
  1 30  2  0  0  0
  1 83  1  0  0  0
  2  3  1  0  0  0
  2 25  1  0  0  0
  2 86  1  0  0  0
  2 87  1  0  0  0
  3  4  1  0  0  0
  3 88  1  0  0  0
  3 89  1  0  0  0
  4  5  1  0  0  0
  4 90  1  0  0  0
  4 91  1  0  0  0
  5  6  1  0  0  0
  5 26  1  0  0  0
  5 92  1  0  0  0
  6 25  1  0  0  0
  6 93  1  0  0  0
  6 94  1  0  0  0
  7  8  2  0  0  0
  7 26  1  0  0  0
  7 29  1  0  0  0
  8  9  1  0  0  0
  8 22  1  0  0  0
  9 10  1  0  0  0
  9 27  2  0  0  0
 10 11  2  0  0  0
 10 15  1  0  0  0
 11 12  1  0  0  0
 11 95  1  0  0  0
 12 13  2  0  0  0
 12 96  1  0  0  0
 13 14  1  0  0  0
 13 31  1  0  0  0
 14 15  2  0  0  0
 14 97  1  0  0  0
 15 98  1  0  0  0
 16 17  2  0  0  0
 16 21  1  0  0  0
 16 31  1  0  0  0
 17 18  1  0  0  0
 17 99  1  0  0  0
 18 19  2  0  0  0
 18100  1  0  0  0
 19 20  1  0  0  0
 19 24  1  0  0  0
 20 21  2  0  0  0
 20101  1  0  0  0
 21 23  1  0  0  0
 22 28  1  0  0  0
 22 32  2  0  0  0
 26 27  1  0  0  0
 28102  1  0  0  0
 28103  1  0  0  0
 29104  1  0  0  0
 29105  1  0  0  0
 33 34  1  0  0  0
 33 66  1  0  0  0
 33 70  2  0  0  0
 34 36  1  0  0  0
 34 59  1  0  0  0
 34106  1  0  0  0
 35 44  2  0  0  0
 35 45  1  0  0  0
 35 68  1  0  0  0
 36 56  1  0  0  0
 36107  1  0  0  0
 37 39  1  0  0  0
 37 47  1  0  0  0
 37 66  1  0  0  0
 37108  1  0  0  0
 38 43  2  0  0  0
 38 46  1  0  0  0
 38 47  1  0  0  0
 39 64  1  0  0  0
 39 67  2  0  0  0
 40 52  1  0  0  0
 40 53  2  0  0  0
 40 58  1  0  0  0
 41109  1  0  0  0
 41110  1  0  0  0
 41111  1  0  0  0
 41 48  1  0  0  0
 42 43  1  0  0  0
 42 66  1  0  0  0
 42112  1  0  0  0
 42113  1  0  0  0
 43 44  1  0  0  0
 44114  1  0  0  0
 45 46  2  0  0  0
 45115  1  0  0  0
 46116  1  0  0  0
 47117  1  0  0  0
 47118  1  0  0  0
 48 56  1  0  0  0
 48 65  1  0  0  0
 48119  1  0  0  0
 49 50  1  0  0  0
 49 53  1  0  0  0
 49 64  1  0  0  0
 49120  1  0  0  0
 50 51  1  0  0  0
 50121  1  0  0  0
 50122  1  0  0  0
 51 52  1  0  0  0
 51123  1  0  0  0
 51124  1  0  0  0
 52125  1  0  0  0
 52126  1  0  0  0
 53 54  1  0  0  0
 54 55  2  0  0  0
 54127  1  0  0  0
 55 57  1  0  0  0
 55128  1  0  0  0
 56 69  2  0  0  0
 57 58  2  0  0  0
 57129  1  0  0  0
 58130  1  0  0  0
 59 60  1  0  0  0
 59 61  1  0  0  0
 59 62  1  0  0  0
 60131  1  0  0  0
 60132  1  0  0  0
 60133  1  0  0  0
 61134  1  0  0  0
 61135  1  0  0  0
 61136  1  0  0  0
 62137  1  0  0  0
 62138  1  0  0  0
 62139  1  0  0  0
 63 65  1  0  0  0
 63140  1  0  0  0
 63141  1  0  0  0
 63142  1  0  0  0
 64143  1  0  0  0
 65144  1  0  0  0
 68 76  1  0  0  0
 71 72  1  0  0  0
 71 73  2  0  0  0
 71145  1  0  0  0
 72 74  2  0  0  0
 72 77  1  0  0  0
 73 81  1  0  0  0
 73 85  1  0  0  0
 74 82  1  0  0  0
 74 85  1  0  0  0
 75 76  2  0  0  0
 75 78  1  0  0  0
 75 79  1  0  0  0
 76146  1  0  0  0
 77 83  1  0  0  0
 77 84  2  0  0  0
 78 80  1  0  0  0
 78147  1  0  0  0
 78148  1  0  0  0
 79 81  1  0  0  0
 79149  1  0  0  0
 79150  1  0  0  0
 80 81  1  0  0  0
 80151  1  0  0  0
 80152  1  0  0  0
 82153  1  0  0  0
 82154  1  0  0  0
 83155  1  0  0  0
M  ISO  4   1 100  68 101  76 101  83 100
M  END
> <chiral flag>
0

> <version>
0

> <s_m_source_file>
/data/baiqing/PycharmProjects/Reinvent-master-3.2/result/LINK_invent/BTK/process_docking_weight1_custom_product_contain_oxygen_bond_distance_aromatic_linkinvent_7_9_3/rearranged_h_0091.sdf

> <i_m_source_file_index>
85

> <r_mmod_Potential_Energy-OPLS-2005>
144.896011352539

> <r_mmod_Stretch_Energy-OPLS-2005>
63.8203964233398

> <r_mmod_Bend_Energy-OPLS-2005>
193.829696655273

> <r_mmod_Torsional_Energy-OPLS-2005>
302.694091796875

> <r_mmod_Improper_Torsional_Energy-OPLS-2005>
11.0381832122803

> <r_mmod_Van_der_Waal_Energy-OPLS-2005>
121.890686035156

> <r_mmod_Electrostatic_Energy-OPLS-2005>
-371.870483398438

> <r_mmod_Solvation_Energy-OPLS-2005>
-225.830230712891

> <b_mmod_Minimization_Converged-OPLS-2005>
0

> <r_mmod_RMS_Derivative-OPLS-2005>
3.21526026725769

$$$$
85
                    3D
 Structure written by MMmdl.
149157  0  0  1  0            999 V2000
  -30.6973  -14.6722   20.4675 C   0  0  0  0  0  0
  -30.4091  -12.4140   19.4645 C   0  0  0  0  0  0
  -29.4958  -12.4919   18.2258 C   0  0  0  0  0  0
  -28.0234  -12.3308   18.6448 C   0  0  0  0  0  0
  -27.6382  -13.2362   19.8465 C   0  0  2  0  0  0
  -28.6867  -13.1846   20.9796 C   0  0  0  0  0  0
  -25.2496  -13.8216   20.5719 C   0  0  0  0  0  0
  -24.1790  -13.0449   20.9208 C   0  0  0  0  0  0
  -24.6390  -11.6930   20.8754 C   0  0  0  0  0  0
  -23.9074  -10.4298   21.0406 C   0  0  0  0  0  0
  -24.3623   -9.4212   21.9185 C   0  0  0  0  0  0
  -23.6301   -8.2245   22.0753 C   0  0  0  0  0  0
  -22.4283   -8.0282   21.3544 C   0  0  0  0  0  0
  -21.9917   -9.0255   20.4646 C   0  0  0  0  0  0
  -22.7244  -10.2136   20.3056 C   0  0  0  0  0  0
  -21.6854   -6.0737   22.5279 C   0  0  0  0  0  0
  -21.4017   -6.5642   23.8213 C   0  0  0  0  0  0
  -21.3659   -5.6794   24.9174 C   0  0  0  0  0  0
  -21.6044   -4.3058   24.7225 C   0  0  0  0  0  0
  -21.8820   -3.8148   23.4348 C   0  0  0  0  0  0
  -21.9194   -4.6963   22.3403 C   0  0  0  0  0  0
  -22.7810  -13.5221   21.1864 C   0  0  0  0  0  0
  -22.1662   -4.2149   21.0981 F   0  0  0  0  0  0
  -21.5626   -3.4540   25.7738 F   0  0  0  0  0  0
  -29.9897  -13.4969   20.3838 N   0  0  0  0  0  0
  -26.2927  -12.9436   20.3300 N   0  0  0  0  0  0
  -25.9324  -11.6571   20.5770 N   0  0  0  0  0  0
  -22.0463  -12.8210   22.0423 N   0  0  0  0  0  0
  -25.4181  -15.1943   20.4170 N   0  0  0  0  0  0
  -31.8937  -14.6466   20.1690 O   0  0  0  0  0  0
  -21.6644   -6.8881   21.4243 O   0  0  0  0  0  0
  -22.3488  -14.5522   20.6709 O   0  0  0  0  0  0
  -24.6278  -31.8587   23.2026 C   0  0  0  0  0  0
  -25.9122  -32.4772   23.8356 C   0  0  1  0  0  0
  -27.2109  -27.3048   20.1246 C   0  0  0  0  0  0
  -25.5935  -33.8575   24.2283 N   0  0  0  0  0  0
  -23.4218  -30.4840   21.5449 C   0  0  2  0  0  0
  -24.8681  -28.9401   20.1075 C   0  0  0  0  0  0
  -22.7480  -29.4626   22.4926 C   0  0  0  0  0  0
  -18.0289  -28.1386   22.8493 C   0  0  0  0  0  0
  -24.1489  -36.7291   23.2639 C   0  0  0  0  0  0
  -25.9647  -30.7855   21.3762 C   0  0  0  0  0  0
  -26.0384  -29.4125   20.7178 C   0  0  0  0  0  0
  -27.2177  -28.6062   20.7177 C   0  0  0  0  0  0
  -26.0282  -26.8980   19.4721 C   0  0  0  0  0  0
  -24.8660  -27.6893   19.4730 C   0  0  0  0  0  0
  -23.6367  -29.8217   20.1589 C   0  0  0  0  0  0
  -25.4114  -36.3081   24.0330 C   0  0  1  0  0  0
  -20.5892  -28.3690   23.1280 C   0  0  2  0  0  0
  -20.6780  -26.9411   22.5410 C   0  0  0  0  0  0
  -19.5752  -26.6386   21.5215 C   0  0  0  0  0  0
  -18.1933  -26.7930   22.1632 C   0  0  0  0  0  0
  -19.1542  -28.8855   23.2883 C   0  0  0  0  0  0
  -18.9465  -30.1460   23.8895 C   0  0  0  0  0  0
  -17.6463  -30.6588   24.0565 C   0  0  0  0  0  0
  -25.9050  -34.9450   23.5104 C   0  0  0  0  0  0
  -16.5355  -29.9086   23.6333 C   0  0  0  0  0  0
  -16.7276  -28.6504   23.0354 C   0  0  0  0  0  0
  -26.4500  -31.6584   25.0727 C   0  0  0  0  0  0
  -25.3733  -31.3736   26.1455 C   0  0  0  0  0  0
  -27.0337  -30.3006   24.6187 C   0  0  0  0  0  0
  -27.6064  -32.4316   25.7492 C   0  0  0  0  0  0
  -27.5578  -37.1800   24.8465 C   0  0  0  0  0  0
  -21.4192  -29.3047   22.3671 N   0  0  0  0  0  0
  -26.4291  -37.3776   23.9408 N   0  0  0  0  0  0
  -24.6902  -31.0592   22.0980 N   0  0  0  0  0  0
  -23.4195  -28.8159   23.3005 O   0  0  0  0  0  0
  -28.2793  -26.3966   20.1742 O   0  0  0  0  0  0
  -26.5612  -34.8922   22.4666 O   0  0  0  0  0  0
  -23.5440  -32.1391   23.7349 O   0  0  0  0  0  0
  -30.5839  -19.6159   20.0669 C   0  0  0  0  0  0
  -30.0702  -20.9489   20.0721 C   0  0  0  0  0  0
  -28.0604  -20.1111   21.0695 C   0  0  0  0  0  0
  -29.8753  -18.4853   20.5815 C   0  0  0  0  0  0
  -28.7908  -21.2480   20.6046 C   0  0  0  0  0  0
  -28.5738  -18.7720   21.0677 C   0  0  0  0  0  0
  -28.6752  -23.7381   20.3971 C   0  0  0  0  0  0
  -30.6157  -17.1284   20.7321 C   0  0  0  0  0  0
  -27.9554  -25.0892   20.8143 C   0  0  0  0  0  0
  -28.2191  -22.5664   20.7612 N   0  0  0  0  0  0
  -30.0283  -15.8761   20.6419 N   0  0  0  0  0  0
  -31.8337  -17.2486   20.9187 O   0  0  0  0  0  0
  -27.8150  -17.7715   21.5787 F   0  0  0  0  0  0
  -31.4538  -12.4891   19.1586 H   0  0  0  0  0  0
  -30.3155  -11.4426   19.9533 H   0  0  0  0  0  0
  -29.7665  -11.7172   17.5071 H   0  0  0  0  0  0
  -29.6367  -13.4472   17.7169 H   0  0  0  0  0  0
  -27.8742  -11.2832   18.9096 H   0  0  0  0  0  0
  -27.3641  -12.5248   17.7979 H   0  0  0  0  0  0
  -27.6295  -14.2557   19.4602 H   0  0  0  0  0  0
  -28.7084  -12.1990   21.4471 H   0  0  0  0  0  0
  -28.4384  -13.8963   21.7686 H   0  0  0  0  0  0
  -25.2769   -9.5687   22.4759 H   0  0  0  0  0  0
  -24.0009   -7.4635   22.7473 H   0  0  0  0  0  0
  -21.0846   -8.8771   19.8953 H   0  0  0  0  0  0
  -22.3700  -10.9673   19.6163 H   0  0  0  0  0  0
  -21.2011   -7.6151   23.9716 H   0  0  0  0  0  0
  -21.1480   -6.0525   25.9078 H   0  0  0  0  0  0
  -22.0599   -2.7610   23.2847 H   0  0  0  0  0  0
  -22.4088  -11.9878   22.4817 H   0  0  0  0  0  0
  -21.1076  -13.1223   22.2627 H   0  0  0  0  0  0
  -24.6572  -15.8504   20.5544 H   0  0  0  0  0  0
  -26.2793  -15.6450   20.1375 H   0  0  0  0  0  0
  -26.7183  -32.5434   23.1098 H   0  0  0  0  0  0
  -25.0099  -33.9722   25.0439 H   0  0  0  0  0  0
  -22.7174  -31.3063   21.4033 H   0  0  0  0  0  0
  -23.3754  -35.9620   23.3301 H   0  0  0  0  0  0
  -24.3586  -36.8905   22.2053 H   0  0  0  0  0  0
  -23.7240  -37.6497   23.6654 H   0  0  0  0  0  0
  -26.0983  -31.5482   20.6077 H   0  0  0  0  0  0
  -26.8451  -30.8336   22.0053 H   0  0  0  0  0  0
  -28.1120  -28.9582   21.2129 H   0  0  0  0  0  0
  -25.9904  -25.9375   18.9776 H   0  0  0  0  0  0
  -23.9720  -27.3257   18.9851 H   0  0  0  0  0  0
  -23.7562  -30.5997   19.4038 H   0  0  0  0  0  0
  -22.7560  -29.2523   19.8551 H   0  0  0  0  0  0
  -25.1295  -36.1930   25.0823 H   0  0  0  0  0  0
  -20.9992  -28.3259   24.1398 H   0  0  0  0  0  0
  -20.5693  -26.2294   23.3609 H   0  0  0  0  0  0
  -21.6646  -26.7445   22.1193 H   0  0  0  0  0  0
  -19.6907  -25.6298   21.1241 H   0  0  0  0  0  0
  -19.6683  -27.3202   20.6750 H   0  0  0  0  0  0
  -17.4203  -26.6683   21.4031 H   0  0  0  0  0  0
  -18.0331  -26.0073   22.9027 H   0  0  0  0  0  0
  -19.7938  -30.7282   24.2255 H   0  0  0  0  0  0
  -17.5017  -31.6268   24.5164 H   0  0  0  0  0  0
  -15.5355  -30.2986   23.7661 H   0  0  0  0  0  0
  -15.8678  -28.0823   22.7064 H   0  0  0  0  0  0
  -24.5895  -30.7097   25.7791 H   0  0  0  0  0  0
  -24.8945  -32.2912   26.4881 H   0  0  0  0  0  0
  -25.8060  -30.8908   27.0227 H   0  0  0  0  0  0
  -26.2906  -29.6759   24.1214 H   0  0  0  0  0  0
  -27.4035  -29.7258   25.4690 H   0  0  0  0  0  0
  -27.8780  -30.4295   23.9410 H   0  0  0  0  0  0
  -27.2681  -33.3628   26.2052 H   0  0  0  0  0  0
  -28.3882  -32.6852   25.0319 H   0  0  0  0  0  0
  -28.0720  -31.8445   26.5419 H   0  0  0  0  0  0
  -28.2596  -38.0096   24.7515 H   0  0  0  0  0  0
  -28.1071  -36.2630   24.6285 H   0  0  0  0  0  0
  -27.2300  -37.1440   25.8868 H   0  0  0  0  0  0
  -20.9363  -29.8771   21.6887 H   0  0  0  0  0  0
  -26.0170  -38.2848   24.1417 H   0  0  0  0  0  0
  -31.5872  -19.4706   19.6908 H   0  0  0  0  0  0
  -30.6994  -21.7426   19.6943 H   0  0  0  0  0  0
  -27.0741  -20.2665   21.4829 H   0  0  0  0  0  0
  -29.5915  -23.8624   19.8142 H   0  0  0  0  0  0
  -28.1613  -25.2289   21.8759 H   0  0  0  0  0  0
  -26.8853  -24.8858   20.7799 H   0  0  0  0  0  0
  -29.0227  -15.8514   20.6549 H   0  0  0  0  0  0
  1 25  1  0  0  0
  1 30  2  0  0  0
  1 81  1  0  0  0
  2  3  1  0  0  0
  2 25  1  0  0  0
  2 84  1  0  0  0
  2 85  1  0  0  0
  3  4  1  0  0  0
  3 86  1  0  0  0
  3 87  1  0  0  0
  4  5  1  0  0  0
  4 88  1  0  0  0
  4 89  1  0  0  0
  5  6  1  0  0  0
  5 26  1  0  0  0
  5 90  1  0  0  0
  6 25  1  0  0  0
  6 91  1  0  0  0
  6 92  1  0  0  0
  7  8  2  0  0  0
  7 26  1  0  0  0
  7 29  1  0  0  0
  8  9  1  0  0  0
  8 22  1  0  0  0
  9 10  1  0  0  0
  9 27  2  0  0  0
 10 11  2  0  0  0
 10 15  1  0  0  0
 11 12  1  0  0  0
 11 93  1  0  0  0
 12 13  2  0  0  0
 12 94  1  0  0  0
 13 14  1  0  0  0
 13 31  1  0  0  0
 14 15  2  0  0  0
 14 95  1  0  0  0
 15 96  1  0  0  0
 16 17  2  0  0  0
 16 21  1  0  0  0
 16 31  1  0  0  0
 17 18  1  0  0  0
 17 97  1  0  0  0
 18 19  2  0  0  0
 18 98  1  0  0  0
 19 20  1  0  0  0
 19 24  1  0  0  0
 20 21  2  0  0  0
 20 99  1  0  0  0
 21 23  1  0  0  0
 22 28  1  0  0  0
 22 32  2  0  0  0
 26 27  1  0  0  0
 28100  1  0  0  0
 28101  1  0  0  0
 29102  1  0  0  0
 29103  1  0  0  0
 33 34  1  0  0  0
 33 66  1  0  0  0
 33 70  2  0  0  0
 34 36  1  0  0  0
 34 59  1  0  0  0
 34104  1  0  0  0
 35 44  2  0  0  0
 35 45  1  0  0  0
 35 68  1  0  0  0
 36 56  1  0  0  0
 36105  1  0  0  0
 37 39  1  0  0  0
 37 47  1  0  0  0
 37 66  1  0  0  0
 37106  1  0  0  0
 38 43  2  0  0  0
 38 46  1  0  0  0
 38 47  1  0  0  0
 39 64  1  0  0  0
 39 67  2  0  0  0
 40 52  1  0  0  0
 40 53  2  0  0  0
 40 58  1  0  0  0
 41107  1  0  0  0
 41108  1  0  0  0
 41109  1  0  0  0
 41 48  1  0  0  0
 42 43  1  0  0  0
 42 66  1  0  0  0
 42110  1  0  0  0
 42111  1  0  0  0
 43 44  1  0  0  0
 44112  1  0  0  0
 45 46  2  0  0  0
 45113  1  0  0  0
 46114  1  0  0  0
 47115  1  0  0  0
 47116  1  0  0  0
 48 56  1  0  0  0
 48 65  1  0  0  0
 48117  1  0  0  0
 49 50  1  0  0  0
 49 53  1  0  0  0
 49 64  1  0  0  0
 49118  1  0  0  0
 50 51  1  0  0  0
 50119  1  0  0  0
 50120  1  0  0  0
 51 52  1  0  0  0
 51121  1  0  0  0
 51122  1  0  0  0
 52123  1  0  0  0
 52124  1  0  0  0
 53 54  1  0  0  0
 54 55  2  0  0  0
 54125  1  0  0  0
 55 57  1  0  0  0
 55126  1  0  0  0
 56 69  2  0  0  0
 57 58  2  0  0  0
 57127  1  0  0  0
 58128  1  0  0  0
 59 60  1  0  0  0
 59 61  1  0  0  0
 59 62  1  0  0  0
 60129  1  0  0  0
 60130  1  0  0  0
 60131  1  0  0  0
 61132  1  0  0  0
 61133  1  0  0  0
 61134  1  0  0  0
 62135  1  0  0  0
 62136  1  0  0  0
 62137  1  0  0  0
 63 65  1  0  0  0
 63138  1  0  0  0
 63139  1  0  0  0
 63140  1  0  0  0
 64141  1  0  0  0
 65142  1  0  0  0
 68 79  1  0  0  0
 71 72  2  0  0  0
 71 74  1  0  0  0
 71143  1  0  0  0
 72 75  1  0  0  0
 72144  1  0  0  0
 73 75  2  0  0  0
 73 76  1  0  0  0
 73145  1  0  0  0
 74 76  2  0  0  0
 74 78  1  0  0  0
 75 80  1  0  0  0
 76 83  1  0  0  0
 77 79  1  0  0  0
 77 80  2  0  0  0
 77146  1  0  0  0
 78 81  1  0  0  0
 78 82  2  0  0  0
 79147  1  0  0  0
 79148  1  0  0  0
 81149  1  0  0  0
M  ISO  4   1 100  68 101  79 101  81 100
M  END
> <chiral flag>
0

> <version>
0

> <s_m_source_file>
/data/baiqing/PycharmProjects/Reinvent-master-3.2/result/LINK_invent/BTK/process_docking_weight1_custom_product_contain_oxygen_bond_distance_aromatic_linkinvent_7_9_3/rearranged_h_0091.sdf

> <i_m_source_file_index>
86

> <r_mmod_Potential_Energy-OPLS-2005>
112.583511352539

> <r_mmod_Stretch_Energy-OPLS-2005>
91.4567794799805

> <r_mmod_Bend_Energy-OPLS-2005>
169.932464599609

> <r_mmod_Torsional_Energy-OPLS-2005>
239.018981933594

> <r_mmod_Improper_Torsional_Energy-OPLS-2005>
6.20280027389526

> <r_mmod_Van_der_Waal_Energy-OPLS-2005>
156.562911987305

> <r_mmod_Electrostatic_Energy-OPLS-2005>
-402.642517089844

> <r_mmod_Solvation_Energy-OPLS-2005>
-216.218353271484

> <b_mmod_Minimization_Converged-OPLS-2005>
0

> <r_mmod_RMS_Derivative-OPLS-2005>
0.673451483249664

$$$$
86
                    3D
 Structure written by MMmdl.
158167  0  0  1  0            999 V2000
  -30.6132  -14.6712   20.4754 C   0  0  0  0  0  0
  -30.4414  -12.4086   19.4513 C   0  0  0  0  0  0
  -29.5081  -12.5031   18.2235 C   0  0  0  0  0  0
  -28.0319  -12.3376   18.6390 C   0  0  0  0  0  0
  -27.6500  -13.2189   19.8581 C   0  0  2  0  0  0
  -28.6988  -13.0977   20.9866 C   0  0  0  0  0  0
  -25.2555  -13.8190   20.5703 C   0  0  0  0  0  0
  -24.1823  -13.0439   20.9178 C   0  0  0  0  0  0
  -24.6397  -11.6912   20.8730 C   0  0  0  0  0  0
  -23.9068  -10.4293   21.0400 C   0  0  0  0  0  0
  -24.3618   -9.4210   21.9180 C   0  0  0  0  0  0
  -23.6292   -8.2246   22.0753 C   0  0  0  0  0  0
  -22.4274   -8.0283   21.3544 C   0  0  0  0  0  0
  -21.9909   -9.0256   20.4646 C   0  0  0  0  0  0
  -22.7239  -10.2134   20.3052 C   0  0  0  0  0  0
  -21.6854   -6.0734   22.5279 C   0  0  0  0  0  0
  -21.4016   -6.5638   23.8211 C   0  0  0  0  0  0
  -21.3659   -5.6791   24.9174 C   0  0  0  0  0  0
  -21.6043   -4.3054   24.7225 C   0  0  0  0  0  0
  -21.8820   -3.8145   23.4347 C   0  0  0  0  0  0
  -21.9193   -4.6961   22.3402 C   0  0  0  0  0  0
  -22.7843  -13.5224   21.1847 C   0  0  0  0  0  0
  -22.1661   -4.2147   21.0979 F   0  0  0  0  0  0
  -21.5628   -3.4538   25.7739 F   0  0  0  0  0  0
  -30.0085  -13.4416   20.4122 N   0  0  0  0  0  0
  -26.2983  -12.9371   20.3320 N   0  0  0  0  0  0
  -25.9328  -11.6520   20.5755 N   0  0  0  0  0  0
  -22.0491  -12.8218   22.0411 N   0  0  0  0  0  0
  -25.4206  -15.1935   20.4202 N   0  0  0  0  0  0
  -31.7988  -14.8178   20.1639 O   0  0  0  0  0  0
  -21.6640   -6.8878   21.4241 O   0  0  0  0  0  0
  -22.3519  -14.5528   20.6700 O   0  0  0  0  0  0
  -24.6286  -31.8589   23.2022 C   0  0  0  0  0  0
  -25.9125  -32.4774   23.8355 C   0  0  1  0  0  0
  -27.2217  -27.3006   20.1134 C   0  0  0  0  0  0
  -25.5934  -33.8574   24.2280 N   0  0  0  0  0  0
  -23.4227  -30.4839   21.5459 C   0  0  2  0  0  0
  -24.8680  -28.9396   20.1116 C   0  0  0  0  0  0
  -22.7488  -29.4622   22.4931 C   0  0  0  0  0  0
  -18.0290  -28.1386   22.8484 C   0  0  0  0  0  0
  -24.1488  -36.7290   23.2638 C   0  0  0  0  0  0
  -25.9668  -30.7841   21.3763 C   0  0  0  0  0  0
  -26.0401  -29.4111   20.7159 C   0  0  0  0  0  0
  -27.2202  -28.6047   20.7056 C   0  0  0  0  0  0
  -26.0204  -26.8891   19.4877 C   0  0  0  0  0  0
  -24.8613  -27.6845   19.4888 C   0  0  0  0  0  0
  -23.6380  -29.8224   20.1606 C   0  0  0  0  0  0
  -25.4113  -36.3079   24.0328 C   0  0  1  0  0  0
  -20.5892  -28.3692   23.1276 C   0  0  2  0  0  0
  -20.6780  -26.9414   22.5407 C   0  0  0  0  0  0
  -19.5754  -26.6384   21.5210 C   0  0  0  0  0  0
  -18.1935  -26.7928   22.1624 C   0  0  0  0  0  0
  -19.1543  -28.8856   23.2876 C   0  0  0  0  0  0
  -18.9465  -30.1457   23.8894 C   0  0  0  0  0  0
  -17.6464  -30.6586   24.0565 C   0  0  0  0  0  0
  -25.9053  -34.9448   23.5103 C   0  0  0  0  0  0
  -16.5356  -29.9085   23.6329 C   0  0  0  0  0  0
  -16.7277  -28.6503   23.0349 C   0  0  0  0  0  0
  -26.4500  -31.6585   25.0729 C   0  0  0  0  0  0
  -25.3729  -31.3727   26.1454 C   0  0  0  0  0  0
  -27.0343  -30.3006   24.6193 C   0  0  0  0  0  0
  -27.6058  -32.4319   25.7502 C   0  0  0  0  0  0
  -27.5578  -37.1802   24.8465 C   0  0  0  0  0  0
  -21.4199  -29.3044   22.3670 N   0  0  0  0  0  0
  -26.4290  -37.3775   23.9407 N   0  0  0  0  0  0
  -24.6918  -31.0588   22.0981 N   0  0  0  0  0  0
  -23.4204  -28.8156   23.3013 O   0  0  0  0  0  0
  -28.3320  -26.4328   20.1591 O   0  0  0  0  0  0
  -26.5620  -34.8917   22.4669 O   0  0  0  0  0  0
  -23.5444  -32.1394   23.7340 O   0  0  0  0  0  0
  -31.1122  -19.3214   21.0333 C   0  0  0  0  0  0
  -31.0568  -17.8966   21.0757 C   0  0  0  0  0  0
  -28.9618  -19.4189   19.9778 C   0  0  0  0  0  0
  -30.0893  -20.1460   20.4580 C   0  0  0  0  0  0
  -29.9466  -17.1861   20.5641 C   0  0  0  0  0  0
  -28.8972  -17.9857   20.0253 C   0  0  0  0  0  0
  -29.1482  -22.5775   20.3254 C   0  0  0  0  0  0
  -29.2624  -23.9510   20.1694 C   0  0  0  0  0  0
  -31.4937  -22.1485   20.1450 C   0  0  0  0  0  0
  -30.6399  -24.5655   20.0339 C   0  0  0  0  0  0
  -31.7415  -23.6148   20.5248 C   0  0  0  0  0  0
  -28.0794  -24.9720   20.0005 C   0  0  0  0  0  0
  -30.2467  -21.6291   20.3529 N   0  0  0  0  0  0
  -27.7824  -17.3320   19.4982 N   0  0  0  0  0  0
  -29.7698  -15.7354   20.6670 N   0  0  0  0  0  0
  -32.4409  -21.5156   19.6623 O   0  0  0  0  0  0
  -31.4810  -12.5410   19.1465 H   0  0  0  0  0  0
  -30.3845  -11.4189   19.9069 H   0  0  0  0  0  0
  -29.7760  -11.7445   17.4869 H   0  0  0  0  0  0
  -29.6441  -13.4676   17.7317 H   0  0  0  0  0  0
  -27.8753  -11.2859   18.8819 H   0  0  0  0  0  0
  -27.3752  -12.5545   17.7956 H   0  0  0  0  0  0
  -27.6565  -14.2483   19.5016 H   0  0  0  0  0  0
  -28.7178  -12.0840   21.3889 H   0  0  0  0  0  0
  -28.4470  -13.7495   21.8250 H   0  0  0  0  0  0
  -25.2764   -9.5685   22.4753 H   0  0  0  0  0  0
  -24.0000   -7.4639   22.7474 H   0  0  0  0  0  0
  -21.0838   -8.8777   19.8952 H   0  0  0  0  0  0
  -22.3699  -10.9672   19.6159 H   0  0  0  0  0  0
  -21.2010   -7.6147   23.9715 H   0  0  0  0  0  0
  -21.1478   -6.0521   25.9076 H   0  0  0  0  0  0
  -22.0600   -2.7607   23.2849 H   0  0  0  0  0  0
  -22.4113  -11.9882   22.4800 H   0  0  0  0  0  0
  -21.1110  -13.1243   22.2619 H   0  0  0  0  0  0
  -24.6463  -15.8343   20.5526 H   0  0  0  0  0  0
  -26.2758  -15.6784   20.1634 H   0  0  0  0  0  0
  -26.7193  -32.5436   23.1101 H   0  0  0  0  0  0
  -25.0080  -33.9718   25.0424 H   0  0  0  0  0  0
  -22.7173  -31.3053   21.4041 H   0  0  0  0  0  0
  -23.3749  -35.9625   23.3304 H   0  0  0  0  0  0
  -24.3579  -36.8908   22.2052 H   0  0  0  0  0  0
  -23.7245  -37.6494   23.6659 H   0  0  0  0  0  0
  -26.1017  -31.5480   20.6093 H   0  0  0  0  0  0
  -26.8461  -30.8309   22.0072 H   0  0  0  0  0  0
  -28.1186  -28.9627   21.1887 H   0  0  0  0  0  0
  -25.9356  -25.9333   18.9950 H   0  0  0  0  0  0
  -23.9632  -27.3173   19.0111 H   0  0  0  0  0  0
  -23.7608  -30.6008   19.4066 H   0  0  0  0  0  0
  -22.7567  -29.2555   19.8551 H   0  0  0  0  0  0
  -25.1294  -36.1930   25.0821 H   0  0  0  0  0  0
  -20.9985  -28.3268   24.1397 H   0  0  0  0  0  0
  -20.5680  -26.2302   23.3608 H   0  0  0  0  0  0
  -21.6649  -26.7442   22.1201 H   0  0  0  0  0  0
  -19.6917  -25.6296   21.1239 H   0  0  0  0  0  0
  -19.6689  -27.3195   20.6740 H   0  0  0  0  0  0
  -17.4203  -26.6671   21.4029 H   0  0  0  0  0  0
  -18.0339  -26.0072   22.9022 H   0  0  0  0  0  0
  -19.7941  -30.7273   24.2262 H   0  0  0  0  0  0
  -17.5019  -31.6264   24.5170 H   0  0  0  0  0  0
  -15.5356  -30.2985   23.7655 H   0  0  0  0  0  0
  -15.8678  -28.0822   22.7063 H   0  0  0  0  0  0
  -24.5908  -30.7071   25.7785 H   0  0  0  0  0  0
  -24.8916  -32.2894   26.4872 H   0  0  0  0  0  0
  -25.8052  -30.8912   27.0235 H   0  0  0  0  0  0
  -26.2920  -29.6757   24.1213 H   0  0  0  0  0  0
  -27.4031  -29.7262   25.4702 H   0  0  0  0  0  0
  -27.8795  -30.4288   23.9427 H   0  0  0  0  0  0
  -27.2669  -33.3620   26.2077 H   0  0  0  0  0  0
  -28.3870  -32.6879   25.0331 H   0  0  0  0  0  0
  -28.0724  -31.8445   26.5420 H   0  0  0  0  0  0
  -28.2598  -38.0096   24.7506 H   0  0  0  0  0  0
  -28.1070  -36.2627   24.6296 H   0  0  0  0  0  0
  -27.2296  -37.1459   25.8868 H   0  0  0  0  0  0
  -20.9380  -29.8771   21.6881 H   0  0  0  0  0  0
  -26.0170  -38.2848   24.1409 H   0  0  0  0  0  0
  -31.9939  -19.7810   21.4571 H   0  0  0  0  0  0
  -31.8742  -17.3544   21.5295 H   0  0  0  0  0  0
  -28.1460  -19.9668   19.5290 H   0  0  0  0  0  0
  -28.1817  -22.1013   20.3960 H   0  0  0  0  0  0
  -30.6862  -25.4902   20.6101 H   0  0  0  0  0  0
  -30.8026  -24.8346   18.9894 H   0  0  0  0  0  0
  -32.7140  -23.9419   20.1562 H   0  0  0  0  0  0
  -31.7955  -23.6548   21.6131 H   0  0  0  0  0  0
  -27.2690  -24.6617   20.6621 H   0  0  0  0  0  0
  -27.7377  -24.8066   18.9789 H   0  0  0  0  0  0
  -27.1420  -17.9255   18.9820 H   0  0  0  0  0  0
  -28.0171  -16.5176   18.9435 H   0  0  0  0  0  0
  -28.8019  -15.4671   20.7521 H   0  0  0  0  0  0
  1 25  1  0  0  0
  1 30  2  0  0  0
  1 85  1  0  0  0
  2  3  1  0  0  0
  2 25  1  0  0  0
  2 87  1  0  0  0
  2 88  1  0  0  0
  3  4  1  0  0  0
  3 89  1  0  0  0
  3 90  1  0  0  0
  4  5  1  0  0  0
  4 91  1  0  0  0
  4 92  1  0  0  0
  5  6  1  0  0  0
  5 26  1  0  0  0
  5 93  1  0  0  0
  6 25  1  0  0  0
  6 94  1  0  0  0
  6 95  1  0  0  0
  7  8  2  0  0  0
  7 26  1  0  0  0
  7 29  1  0  0  0
  8  9  1  0  0  0
  8 22  1  0  0  0
  9 10  1  0  0  0
  9 27  2  0  0  0
 10 11  2  0  0  0
 10 15  1  0  0  0
 11 12  1  0  0  0
 11 96  1  0  0  0
 12 13  2  0  0  0
 12 97  1  0  0  0
 13 14  1  0  0  0
 13 31  1  0  0  0
 14 15  2  0  0  0
 14 98  1  0  0  0
 15 99  1  0  0  0
 16 17  2  0  0  0
 16 21  1  0  0  0
 16 31  1  0  0  0
 17 18  1  0  0  0
 17100  1  0  0  0
 18 19  2  0  0  0
 18101  1  0  0  0
 19 20  1  0  0  0
 19 24  1  0  0  0
 20 21  2  0  0  0
 20102  1  0  0  0
 21 23  1  0  0  0
 22 28  1  0  0  0
 22 32  2  0  0  0
 26 27  1  0  0  0
 28103  1  0  0  0
 28104  1  0  0  0
 29105  1  0  0  0
 29106  1  0  0  0
 33 34  1  0  0  0
 33 66  1  0  0  0
 33 70  2  0  0  0
 34 36  1  0  0  0
 34 59  1  0  0  0
 34107  1  0  0  0
 35 44  2  0  0  0
 35 45  1  0  0  0
 35 68  1  0  0  0
 36 56  1  0  0  0
 36108  1  0  0  0
 37 39  1  0  0  0
 37 47  1  0  0  0
 37 66  1  0  0  0
 37109  1  0  0  0
 38 43  2  0  0  0
 38 46  1  0  0  0
 38 47  1  0  0  0
 39 64  1  0  0  0
 39 67  2  0  0  0
 40 52  1  0  0  0
 40 53  2  0  0  0
 40 58  1  0  0  0
 41110  1  0  0  0
 41111  1  0  0  0
 41112  1  0  0  0
 41 48  1  0  0  0
 42 43  1  0  0  0
 42 66  1  0  0  0
 42113  1  0  0  0
 42114  1  0  0  0
 43 44  1  0  0  0
 44115  1  0  0  0
 45 46  2  0  0  0
 45116  1  0  0  0
 46117  1  0  0  0
 47118  1  0  0  0
 47119  1  0  0  0
 48 56  1  0  0  0
 48 65  1  0  0  0
 48120  1  0  0  0
 49 50  1  0  0  0
 49 53  1  0  0  0
 49 64  1  0  0  0
 49121  1  0  0  0
 50 51  1  0  0  0
 50122  1  0  0  0
 50123  1  0  0  0
 51 52  1  0  0  0
 51124  1  0  0  0
 51125  1  0  0  0
 52126  1  0  0  0
 52127  1  0  0  0
 53 54  1  0  0  0
 54 55  2  0  0  0
 54128  1  0  0  0
 55 57  1  0  0  0
 55129  1  0  0  0
 56 69  2  0  0  0
 57 58  2  0  0  0
 57130  1  0  0  0
 58131  1  0  0  0
 59 60  1  0  0  0
 59 61  1  0  0  0
 59 62  1  0  0  0
 60132  1  0  0  0
 60133  1  0  0  0
 60134  1  0  0  0
 61135  1  0  0  0
 61136  1  0  0  0
 61137  1  0  0  0
 62138  1  0  0  0
 62139  1  0  0  0
 62140  1  0  0  0
 63 65  1  0  0  0
 63141  1  0  0  0
 63142  1  0  0  0
 63143  1  0  0  0
 64144  1  0  0  0
 65145  1  0  0  0
 68 82  1  0  0  0
 71 72  2  0  0  0
 71 74  1  0  0  0
 71146  1  0  0  0
 72 75  1  0  0  0
 72147  1  0  0  0
 73 74  2  0  0  0
 73 76  1  0  0  0
 73148  1  0  0  0
 74 83  1  0  0  0
 75 76  2  0  0  0
 75 85  1  0  0  0
 76 84  1  0  0  0
 77 78  2  0  0  0
 77 83  1  0  0  0
 77149  1  0  0  0
 78 80  1  0  0  0
 78 82  1  0  0  0
 79 81  1  0  0  0
 79 83  1  0  0  0
 79 86  2  0  0  0
 80 81  1  0  0  0
 80150  1  0  0  0
 80151  1  0  0  0
 81152  1  0  0  0
 81153  1  0  0  0
 82154  1  0  0  0
 82155  1  0  0  0
 84156  1  0  0  0
 84157  1  0  0  0
 85158  1  0  0  0
M  ISO  4   1 100  68 101  82 101  85 100
M  END
> <chiral flag>
0

> <version>
0

> <s_m_source_file>
/data/baiqing/PycharmProjects/Reinvent-master-3.2/result/LINK_invent/BTK/process_docking_weight1_custom_product_contain_oxygen_bond_distance_aromatic_linkinvent_7_9_3/rearranged_h_0091.sdf

> <i_m_source_file_index>
87

> <r_mmod_Potential_Energy-OPLS-2005>
87.0462188720703

> <r_mmod_Stretch_Energy-OPLS-2005>
98.2663955688477

> <r_mmod_Bend_Energy-OPLS-2005>
137.776977539062

> <r_mmod_Torsional_Energy-OPLS-2005>
275.343017578125

> <r_mmod_Improper_Torsional_Energy-OPLS-2005>
11.3852090835571

> <r_mmod_Van_der_Waal_Energy-OPLS-2005>
169.836288452148

> <r_mmod_Electrostatic_Energy-OPLS-2005>
-442.342102050781

> <r_mmod_Solvation_Energy-OPLS-2005>
-222.958724975586

> <b_mmod_Minimization_Converged-OPLS-2005>
0

> <r_mmod_RMS_Derivative-OPLS-2005>
0.229834422469139

$$$$
87
                    3D
 Structure written by MMmdl.
166175  0  0  1  0            999 V2000
  -30.6305  -14.7169   20.3669 C   0  0  0  0  0  0
  -30.4386  -12.4032   19.4534 C   0  0  0  0  0  0
  -29.4879  -12.3598   18.2329 C   0  0  0  0  0  0
  -28.0149  -12.2597   18.6679 C   0  0  0  0  0  0
  -27.6351  -13.2040   19.8403 C   0  0  2  0  0  0
  -28.7003  -13.1904   20.9568 C   0  0  0  0  0  0
  -25.2530  -13.8156   20.5776 C   0  0  0  0  0  0
  -24.1788  -13.0429   20.9294 C   0  0  0  0  0  0
  -24.6337  -11.6895   20.8835 C   0  0  0  0  0  0
  -23.8990  -10.4284   21.0450 C   0  0  0  0  0  0
  -24.3556   -9.4193   21.9210 C   0  0  0  0  0  0
  -23.6252   -8.2220   22.0749 C   0  0  0  0  0  0
  -22.4241   -8.0258   21.3532 C   0  0  0  0  0  0
  -21.9861   -9.0236   20.4646 C   0  0  0  0  0  0
  -22.7170  -10.2133   20.3077 C   0  0  0  0  0  0
  -21.6839   -6.0698   22.5280 C   0  0  0  0  0  0
  -21.4008   -6.5609   23.8213 C   0  0  0  0  0  0
  -21.3664   -5.6771   24.9182 C   0  0  0  0  0  0
  -21.6049   -4.3030   24.7241 C   0  0  0  0  0  0
  -21.8823   -3.8110   23.4363 C   0  0  0  0  0  0
  -21.9186   -4.6923   22.3410 C   0  0  0  0  0  0
  -22.7820  -13.5239   21.1915 C   0  0  0  0  0  0
  -22.1662   -4.2100   21.0995 F   0  0  0  0  0  0
  -21.5620   -3.4529   25.7768 F   0  0  0  0  0  0
  -29.9935  -13.4984   20.3317 N   0  0  0  0  0  0
  -26.2920  -12.9300   20.3366 N   0  0  0  0  0  0
  -25.9261  -11.6483   20.5882 N   0  0  0  0  0  0
  -22.0410  -12.8280   22.0470 N   0  0  0  0  0  0
  -25.4235  -15.1873   20.4164 N   0  0  0  0  0  0
  -31.8622  -14.7728   20.3497 O   0  0  0  0  0  0
  -21.6611   -6.8850   21.4239 O   0  0  0  0  0  0
  -22.3538  -14.5536   20.6719 O   0  0  0  0  0  0
  -24.6279  -31.8587   23.2003 C   0  0  0  0  0  0
  -25.9118  -32.4774   23.8341 C   0  0  1  0  0  0
  -27.2284  -27.3188   20.1343 C   0  0  0  0  0  0
  -25.5932  -33.8574   24.2279 N   0  0  0  0  0  0
  -23.4224  -30.4769   21.5443 C   0  0  2  0  0  0
  -24.8705  -28.9264   20.1170 C   0  0  0  0  0  0
  -22.7483  -29.4610   22.4973 C   0  0  0  0  0  0
  -18.0276  -28.1379   22.8486 C   0  0  0  0  0  0
  -24.1497  -36.7295   23.2636 C   0  0  0  0  0  0
  -25.9609  -30.7919   21.3678 C   0  0  0  0  0  0
  -26.0381  -29.4155   20.7172 C   0  0  0  0  0  0
  -27.2235  -28.6242   20.7112 C   0  0  0  0  0  0
  -26.0430  -26.8743   19.5144 C   0  0  0  0  0  0
  -24.8744  -27.6619   19.5035 C   0  0  0  0  0  0
  -23.6369  -29.8039   20.1628 C   0  0  0  0  0  0
  -25.4118  -36.3088   24.0333 C   0  0  1  0  0  0
  -20.5877  -28.3680   23.1314 C   0  0  2  0  0  0
  -20.6771  -26.9410   22.5419 C   0  0  0  0  0  0
  -19.5755  -26.6385   21.5219 C   0  0  0  0  0  0
  -18.1931  -26.7927   22.1625 C   0  0  0  0  0  0
  -19.1523  -28.8849   23.2888 C   0  0  0  0  0  0
  -18.9440  -30.1451   23.8904 C   0  0  0  0  0  0
  -17.6438  -30.6582   24.0558 C   0  0  0  0  0  0
  -25.9051  -34.9451   23.5107 C   0  0  0  0  0  0
  -16.5328  -29.9072   23.6331 C   0  0  0  0  0  0
  -16.7260  -28.6490   23.0347 C   0  0  0  0  0  0
  -26.4480  -31.6565   25.0699 C   0  0  0  0  0  0
  -25.3706  -31.3694   26.1419 C   0  0  0  0  0  0
  -27.0271  -30.2985   24.6116 C   0  0  0  0  0  0
  -27.6074  -32.4256   25.7458 C   0  0  0  0  0  0
  -27.5588  -37.1809   24.8456 C   0  0  0  0  0  0
  -21.4194  -29.3031   22.3722 N   0  0  0  0  0  0
  -26.4296  -37.3780   23.9407 N   0  0  0  0  0  0
  -24.6893  -31.0595   22.0955 N   0  0  0  0  0  0
  -23.4207  -28.8178   23.3076 O   0  0  0  0  0  0
  -28.3438  -26.4749   20.1467 O   0  0  0  0  0  0
  -26.5609  -34.8919   22.4667 O   0  0  0  0  0  0
  -23.5439  -32.1373   23.7338 O   0  0  0  0  0  0
  -28.3546  -19.1621   20.5566 C   0  0  0  0  0  0
  -28.5703  -17.7526   20.6245 C   0  0  0  0  0  0
  -30.9101  -18.0819   20.1622 C   0  0  0  0  0  0
  -29.3964  -20.0650   20.2069 C   0  0  0  0  0  0
  -29.8328  -17.1659   20.3285 C   0  0  0  0  0  0
  -30.7001  -19.4943   20.0967 C   0  0  0  0  0  0
  -28.5287  -23.8457   19.9912 C   0  0  0  0  0  0
  -28.9152  -22.6190   20.5130 C   0  0  0  0  0  0
  -28.9882  -21.5169   18.3460 C   0  0  0  0  0  0
  -29.6707  -15.7863   18.4923 C   0  0  0  0  0  0
  -28.2872  -23.9744   18.5000 C   0  0  0  0  0  0
  -29.0424  -22.9045   17.7016 C   0  0  0  0  0  0
  -29.1621  -22.4129   22.0047 C   0  0  0  0  0  0
  -30.7986  -15.4753   17.4948 C   0  0  0  0  0  0
  -28.1977  -25.1539   20.8035 C   0  0  0  0  0  0
  -29.1013  -21.4230   19.7026 N   0  0  0  0  0  0
  -31.7965  -20.3127   19.8246 N   0  0  0  0  0  0
  -29.9183  -15.7846   19.8318 N   0  0  0  0  0  0
  -28.8651  -20.5420   17.5929 O   0  0  0  0  0  0
  -28.5678  -16.0988   18.0299 O   0  0  0  0  0  0
  -31.4694  -12.5403   19.1250 H   0  0  0  0  0  0
  -30.4125  -11.4571   19.9966 H   0  0  0  0  0  0
  -29.7369  -11.5015   17.6080 H   0  0  0  0  0  0
  -29.6137  -13.2120   17.5776 H   0  0  0  0  0  0
  -27.8577  -11.2236   18.9739 H   0  0  0  0  0  0
  -27.3527  -12.4226   17.8164 H   0  0  0  0  0  0
  -27.6010  -14.2051   19.4243 H   0  0  0  0  0  0
  -28.7302  -12.2246   21.4629 H   0  0  0  0  0  0
  -28.4583  -13.9352   21.7171 H   0  0  0  0  0  0
  -25.2688   -9.5669   22.4796 H   0  0  0  0  0  0
  -23.9950   -7.4605   22.7465 H   0  0  0  0  0  0
  -21.0773   -8.8743   19.8977 H   0  0  0  0  0  0
  -22.3601  -10.9670   19.6193 H   0  0  0  0  0  0
  -21.2008   -7.6119   23.9695 H   0  0  0  0  0  0
  -21.1484   -6.0509   25.9084 H   0  0  0  0  0  0
  -22.0597   -2.7566   23.2868 H   0  0  0  0  0  0
  -22.3976  -11.9958   22.4939 H   0  0  0  0  0  0
  -21.1036  -13.1370   22.2620 H   0  0  0  0  0  0
  -24.6499  -15.8367   20.5141 H   0  0  0  0  0  0
  -26.2581  -15.6116   20.0321 H   0  0  0  0  0  0
  -26.7201  -32.5445   23.1107 H   0  0  0  0  0  0
  -25.0067  -33.9699   25.0418 H   0  0  0  0  0  0
  -22.7162  -31.2966   21.3972 H   0  0  0  0  0  0
  -23.3764  -35.9623   23.3268 H   0  0  0  0  0  0
  -24.3612  -36.8930   22.2057 H   0  0  0  0  0  0
  -23.7234  -37.6489   23.6659 H   0  0  0  0  0  0
  -26.0792  -31.5505   20.5932 H   0  0  0  0  0  0
  -26.8501  -30.8530   21.9844 H   0  0  0  0  0  0
  -28.1242  -28.9951   21.1808 H   0  0  0  0  0  0
  -26.0170  -25.9003   19.0468 H   0  0  0  0  0  0
  -23.9799  -27.2816   19.0283 H   0  0  0  0  0  0
  -23.7546  -30.5747   19.4003 H   0  0  0  0  0  0
  -22.7600  -29.2248   19.8679 H   0  0  0  0  0  0
  -25.1301  -36.1941   25.0827 H   0  0  0  0  0  0
  -20.9939  -28.3230   24.1455 H   0  0  0  0  0  0
  -20.5680  -26.2279   23.3600 H   0  0  0  0  0  0
  -21.6642  -26.7453   22.1217 H   0  0  0  0  0  0
  -19.6919  -25.6298   21.1247 H   0  0  0  0  0  0
  -19.6717  -27.3201   20.6759 H   0  0  0  0  0  0
  -17.4211  -26.6673   21.4013 H   0  0  0  0  0  0
  -18.0323  -26.0057   22.9012 H   0  0  0  0  0  0
  -19.7905  -30.7260   24.2291 H   0  0  0  0  0  0
  -17.4981  -31.6273   24.5141 H   0  0  0  0  0  0
  -15.5321  -30.2968   23.7662 H   0  0  0  0  0  0
  -15.8662  -28.0812   22.7065 H   0  0  0  0  0  0
  -24.5950  -30.6958   25.7754 H   0  0  0  0  0  0
  -24.8802  -32.2833   26.4778 H   0  0  0  0  0  0
  -25.8039  -30.8944   27.0231 H   0  0  0  0  0  0
  -26.2809  -29.6773   24.1144 H   0  0  0  0  0  0
  -27.3959  -29.7202   25.4597 H   0  0  0  0  0  0
  -27.8696  -30.4248   23.9315 H   0  0  0  0  0  0
  -27.2749  -33.3591   26.2005 H   0  0  0  0  0  0
  -28.3906  -32.6734   25.0281 H   0  0  0  0  0  0
  -28.0703  -31.8360   26.5377 H   0  0  0  0  0  0
  -28.2593  -38.0115   24.7520 H   0  0  0  0  0  0
  -28.1091  -36.2651   24.6259 H   0  0  0  0  0  0
  -27.2307  -37.1428   25.8854 H   0  0  0  0  0  0
  -20.9380  -29.8725   21.6908 H   0  0  0  0  0  0
  -26.0173  -38.2860   24.1391 H   0  0  0  0  0  0
  -27.3442  -19.5349   20.6479 H   0  0  0  0  0  0
  -27.7110  -17.1107   20.7546 H   0  0  0  0  0  0
  -31.8942  -17.6903   19.9435 H   0  0  0  0  0  0
  -28.6006  -24.9588   18.1518 H   0  0  0  0  0  0
  -27.2154  -23.9049   18.3114 H   0  0  0  0  0  0
  -28.6675  -22.8585   16.6794 H   0  0  0  0  0  0
  -30.0958  -23.1750   17.6345 H   0  0  0  0  0  0
  -28.5004  -23.0315   22.6088 H   0  0  0  0  0  0
  -30.1925  -22.6819   22.2438 H   0  0  0  0  0  0
  -29.0003  -21.3863   22.3327 H   0  0  0  0  0  0
  -31.4401  -16.3485   17.3874 H   0  0  0  0  0  0
  -30.3836  -15.2469   16.5129 H   0  0  0  0  0  0
  -31.4267  -14.6329   17.7793 H   0  0  0  0  0  0
  -28.8227  -25.1723   21.6954 H   0  0  0  0  0  0
  -27.1793  -25.0377   21.1753 H   0  0  0  0  0  0
  -32.7193  -19.9360   20.0139 H   0  0  0  0  0  0
  -31.7242  -21.2913   20.0845 H   0  0  0  0  0  0
  1 25  1  0  0  0
  1 30  2  0  0  0
  1 88  1  0  0  0
  2  3  1  0  0  0
  2 25  1  0  0  0
  2 91  1  0  0  0
  2 92  1  0  0  0
  3  4  1  0  0  0
  3 93  1  0  0  0
  3 94  1  0  0  0
  4  5  1  0  0  0
  4 95  1  0  0  0
  4 96  1  0  0  0
  5  6  1  0  0  0
  5 26  1  0  0  0
  5 97  1  0  0  0
  6 25  1  0  0  0
  6 98  1  0  0  0
  6 99  1  0  0  0
  7  8  2  0  0  0
  7 26  1  0  0  0
  7 29  1  0  0  0
  8  9  1  0  0  0
  8 22  1  0  0  0
  9 10  1  0  0  0
  9 27  2  0  0  0
 10 11  2  0  0  0
 10 15  1  0  0  0
 11 12  1  0  0  0
 11100  1  0  0  0
 12 13  2  0  0  0
 12101  1  0  0  0
 13 14  1  0  0  0
 13 31  1  0  0  0
 14 15  2  0  0  0
 14102  1  0  0  0
 15103  1  0  0  0
 16 17  2  0  0  0
 16 21  1  0  0  0
 16 31  1  0  0  0
 17 18  1  0  0  0
 17104  1  0  0  0
 18 19  2  0  0  0
 18105  1  0  0  0
 19 20  1  0  0  0
 19 24  1  0  0  0
 20 21  2  0  0  0
 20106  1  0  0  0
 21 23  1  0  0  0
 22 28  1  0  0  0
 22 32  2  0  0  0
 26 27  1  0  0  0
 28107  1  0  0  0
 28108  1  0  0  0
 29109  1  0  0  0
 29110  1  0  0  0
 33 34  1  0  0  0
 33 66  1  0  0  0
 33 70  2  0  0  0
 34 36  1  0  0  0
 34 59  1  0  0  0
 34111  1  0  0  0
 35 44  2  0  0  0
 35 45  1  0  0  0
 35 68  1  0  0  0
 36 56  1  0  0  0
 36112  1  0  0  0
 37 39  1  0  0  0
 37 47  1  0  0  0
 37 66  1  0  0  0
 37113  1  0  0  0
 38 43  2  0  0  0
 38 46  1  0  0  0
 38 47  1  0  0  0
 39 64  1  0  0  0
 39 67  2  0  0  0
 40 52  1  0  0  0
 40 53  2  0  0  0
 40 58  1  0  0  0
 41114  1  0  0  0
 41115  1  0  0  0
 41116  1  0  0  0
 41 48  1  0  0  0
 42 43  1  0  0  0
 42 66  1  0  0  0
 42117  1  0  0  0
 42118  1  0  0  0
 43 44  1  0  0  0
 44119  1  0  0  0
 45 46  2  0  0  0
 45120  1  0  0  0
 46121  1  0  0  0
 47122  1  0  0  0
 47123  1  0  0  0
 48 56  1  0  0  0
 48 65  1  0  0  0
 48124  1  0  0  0
 49 50  1  0  0  0
 49 53  1  0  0  0
 49 64  1  0  0  0
 49125  1  0  0  0
 50 51  1  0  0  0
 50126  1  0  0  0
 50127  1  0  0  0
 51 52  1  0  0  0
 51128  1  0  0  0
 51129  1  0  0  0
 52130  1  0  0  0
 52131  1  0  0  0
 53 54  1  0  0  0
 54 55  2  0  0  0
 54132  1  0  0  0
 55 57  1  0  0  0
 55133  1  0  0  0
 56 69  2  0  0  0
 57 58  2  0  0  0
 57134  1  0  0  0
 58135  1  0  0  0
 59 60  1  0  0  0
 59 61  1  0  0  0
 59 62  1  0  0  0
 60136  1  0  0  0
 60137  1  0  0  0
 60138  1  0  0  0
 61139  1  0  0  0
 61140  1  0  0  0
 61141  1  0  0  0
 62142  1  0  0  0
 62143  1  0  0  0
 62144  1  0  0  0
 63 65  1  0  0  0
 63145  1  0  0  0
 63146  1  0  0  0
 63147  1  0  0  0
 64148  1  0  0  0
 65149  1  0  0  0
 68 85  1  0  0  0
 71 72  2  0  0  0
 71 74  1  0  0  0
 71150  1  0  0  0
 72 75  1  0  0  0
 72151  1  0  0  0
 73 75  2  0  0  0
 73 76  1  0  0  0
 73152  1  0  0  0
 74 76  2  0  0  0
 74 86  1  0  0  0
 75 88  1  0  0  0
 76 87  1  0  0  0
 77 78  2  0  0  0
 77 81  1  0  0  0
 77 85  1  0  0  0
 78 83  1  0  0  0
 78 86  1  0  0  0
 79 82  1  0  0  0
 79 86  1  0  0  0
 79 89  2  0  0  0
 80 84  1  0  0  0
 80 88  1  0  0  0
 80 90  2  0  0  0
 81 82  1  0  0  0
 81153  1  0  0  0
 81154  1  0  0  0
 82155  1  0  0  0
 82156  1  0  0  0
 83157  1  0  0  0
 83158  1  0  0  0
 83159  1  0  0  0
 84160  1  0  0  0
 84161  1  0  0  0
 84162  1  0  0  0
 85163  1  0  0  0
 85164  1  0  0  0
 87165  1  0  0  0
 87166  1  0  0  0
M  ISO  4   1 100  68 101  85 101  88 100
M  END
> <chiral flag>
0

> <version>
0

> <s_m_source_file>
/data/baiqing/PycharmProjects/Reinvent-master-3.2/result/LINK_invent/BTK/process_docking_weight1_custom_product_contain_oxygen_bond_distance_aromatic_linkinvent_7_9_3/rearranged_h_0091.sdf

> <i_m_source_file_index>
88

> <r_mmod_Potential_Energy-OPLS-2005>
496.402679443359

> <r_mmod_Stretch_Energy-OPLS-2005>
96.8628158569336

> <r_mmod_Bend_Energy-OPLS-2005>
142.613342285156

> <r_mmod_Torsional_Energy-OPLS-2005>
484.523101806641

> <r_mmod_Improper_Torsional_Energy-OPLS-2005>
32.3458290100098

> <r_mmod_Van_der_Waal_Energy-OPLS-2005>
163.50910949707

> <r_mmod_Electrostatic_Energy-OPLS-2005>
-297.473510742188

> <r_mmod_Solvation_Energy-OPLS-2005>
-208.884658813477

> <b_mmod_Minimization_Converged-OPLS-2005>
0

> <r_mmod_RMS_Derivative-OPLS-2005>
2.36430215835571

$$$$
88
                    3D
 Structure written by MMmdl.
158167  0  0  1  0            999 V2000
  -30.6418  -14.7472   20.5224 C   0  0  0  0  0  0
  -30.4289  -12.4719   19.4781 C   0  0  0  0  0  0
  -29.5094  -12.5263   18.2388 C   0  0  0  0  0  0
  -28.0360  -12.3451   18.6482 C   0  0  0  0  0  0
  -27.6427  -13.2364   19.8551 C   0  0  2  0  0  0
  -28.6828  -13.1531   20.9903 C   0  0  0  0  0  0
  -25.2509  -13.8212   20.5708 C   0  0  0  0  0  0
  -24.1797  -13.0446   20.9196 C   0  0  0  0  0  0
  -24.6396  -11.6925   20.8735 C   0  0  0  0  0  0
  -23.9075  -10.4298   21.0400 C   0  0  0  0  0  0
  -24.3624   -9.4213   21.9180 C   0  0  0  0  0  0
  -23.6298   -8.2248   22.0752 C   0  0  0  0  0  0
  -22.4279   -8.0285   21.3543 C   0  0  0  0  0  0
  -21.9915   -9.0259   20.4646 C   0  0  0  0  0  0
  -22.7245  -10.2138   20.3053 C   0  0  0  0  0  0
  -21.6856   -6.0738   22.5278 C   0  0  0  0  0  0
  -21.4016   -6.5641   23.8211 C   0  0  0  0  0  0
  -21.3662   -5.6795   24.9174 C   0  0  0  0  0  0
  -21.6045   -4.3057   24.7225 C   0  0  0  0  0  0
  -21.8819   -3.8149   23.4345 C   0  0  0  0  0  0
  -21.9193   -4.6965   22.3401 C   0  0  0  0  0  0
  -22.7819  -13.5222   21.1863 C   0  0  0  0  0  0
  -22.1662   -4.2150   21.0979 F   0  0  0  0  0  0
  -21.5630   -3.4541   25.7737 F   0  0  0  0  0  0
  -29.9867  -13.5296   20.4230 N   0  0  0  0  0  0
  -26.2939  -12.9427   20.3293 N   0  0  0  0  0  0
  -25.9328  -11.6560   20.5739 N   0  0  0  0  0  0
  -22.0474  -12.8206   22.0422 N   0  0  0  0  0  0
  -25.4212  -15.1938   20.4169 N   0  0  0  0  0  0
  -31.7871  -14.8412   20.0662 O   0  0  0  0  0  0
  -21.6643   -6.8882   21.4240 O   0  0  0  0  0  0
  -22.3495  -14.5527   20.6716 O   0  0  0  0  0  0
  -24.6342  -31.8541   23.1988 C   0  0  0  0  0  0
  -25.9160  -32.4747   23.8336 C   0  0  1  0  0  0
  -27.2129  -27.2368   20.1243 C   0  0  0  0  0  0
  -25.5947  -33.8551   24.2252 N   0  0  0  0  0  0
  -23.4319  -30.4790   21.5427 C   0  0  2  0  0  0
  -24.8785  -28.9298   20.1070 C   0  0  0  0  0  0
  -22.7520  -29.4599   22.4897 C   0  0  0  0  0  0
  -18.0296  -28.1389   22.8481 C   0  0  0  0  0  0
  -24.1491  -36.7282   23.2638 C   0  0  0  0  0  0
  -25.9819  -30.7573   21.3862 C   0  0  0  0  0  0
  -26.0522  -29.3797   20.7249 C   0  0  0  0  0  0
  -27.2205  -28.5448   20.7272 C   0  0  0  0  0  0
  -26.0188  -26.8797   19.4528 C   0  0  0  0  0  0
  -24.8688  -27.6885   19.4595 C   0  0  0  0  0  0
  -23.6514  -29.8191   20.1572 C   0  0  0  0  0  0
  -25.4118  -36.3065   24.0322 C   0  0  1  0  0  0
  -20.5904  -28.3707   23.1256 C   0  0  2  0  0  0
  -20.6786  -26.9422   22.5401 C   0  0  0  0  0  0
  -19.5758  -26.6384   21.5210 C   0  0  0  0  0  0
  -18.1942  -26.7928   22.1628 C   0  0  0  0  0  0
  -19.1551  -28.8866   23.2863 C   0  0  0  0  0  0
  -18.9470  -30.1465   23.8885 C   0  0  0  0  0  0
  -17.6468  -30.6589   24.0562 C   0  0  0  0  0  0
  -25.9061  -34.9435   23.5088 C   0  0  0  0  0  0
  -16.5359  -29.9084   23.6331 C   0  0  0  0  0  0
  -16.7282  -28.6503   23.0350 C   0  0  0  0  0  0
  -26.4513  -31.6580   25.0738 C   0  0  0  0  0  0
  -25.3724  -31.3746   26.1450 C   0  0  0  0  0  0
  -27.0366  -30.2989   24.6258 C   0  0  0  0  0  0
  -27.6060  -32.4328   25.7515 C   0  0  0  0  0  0
  -27.5576  -37.1799   24.8465 C   0  0  0  0  0  0
  -21.4224  -29.3052   22.3643 N   0  0  0  0  0  0
  -26.4291  -37.3765   23.9404 N   0  0  0  0  0  0
  -24.7019  -31.0483   22.0982 N   0  0  0  0  0  0
  -23.4208  -28.8132   23.3001 O   0  0  0  0  0  0
  -28.2792  -26.2966   20.2095 O   0  0  0  0  0  0
  -26.5634  -34.8912   22.4658 O   0  0  0  0  0  0
  -23.5484  -32.1379   23.7262 O   0  0  0  0  0  0
  -29.8284  -16.0196   23.5919 C   0  0  0  0  0  0
  -29.9193  -15.9473   22.3754 C   0  0  0  0  0  0
  -29.2665  -18.2622   18.1211 C   0  0  0  0  0  0
  -29.1819  -19.5424   18.7100 C   0  0  0  0  0  0
  -29.5527  -17.1058   18.8769 C   0  0  0  0  0  0
  -29.6735  -18.5212   20.8477 C   0  0  0  0  0  0
  -29.3858  -19.7441   20.0927 C   0  0  0  0  0  0
  -29.7663  -17.1717   20.2722 C   0  0  0  0  0  0
  -28.7198  -22.2948   20.0210 C   0  0  0  0  0  0
  -28.8190  -23.6105   20.4676 C   0  0  0  0  0  0
  -30.5761  -22.7386   22.0787 C   0  0  0  0  0  0
  -29.6493  -23.9117   21.7112 C   0  0  0  0  0  0
  -30.0316  -21.3071   21.8829 C   0  0  0  0  0  0
  -27.9903  -24.8450   19.8823 C   0  0  0  0  0  0
  -29.3261  -21.1164   20.6063 N   0  0  0  0  0  0
  -30.0010  -15.8899   21.0236 N   0  0  0  0  0  0
  -31.7056  -22.9405   22.5332 O   0  0  0  0  0  0
  -31.4700  -12.5902   19.1738 H   0  0  0  0  0  0
  -30.3746  -11.4916   19.9541 H   0  0  0  0  0  0
  -29.7954  -11.7567   17.5208 H   0  0  0  0  0  0
  -29.6347  -13.4831   17.7296 H   0  0  0  0  0  0
  -27.8918  -11.2946   18.9033 H   0  0  0  0  0  0
  -27.3792  -12.5444   17.8006 H   0  0  0  0  0  0
  -27.6433  -14.2641   19.4904 H   0  0  0  0  0  0
  -28.7230  -12.1454   21.4062 H   0  0  0  0  0  0
  -28.3874  -13.8015   21.8133 H   0  0  0  0  0  0
  -25.2768   -9.5691   22.4753 H   0  0  0  0  0  0
  -24.0007   -7.4641   22.7472 H   0  0  0  0  0  0
  -21.0845   -8.8780   19.8953 H   0  0  0  0  0  0
  -22.3700  -10.9678   19.6164 H   0  0  0  0  0  0
  -21.2010   -7.6149   23.9713 H   0  0  0  0  0  0
  -21.1485   -6.0527   25.9077 H   0  0  0  0  0  0
  -22.0598   -2.7611   23.2844 H   0  0  0  0  0  0
  -22.4102  -11.9870   22.4806 H   0  0  0  0  0  0
  -21.1092  -13.1225   22.2640 H   0  0  0  0  0  0
  -24.6596  -15.8516   20.5425 H   0  0  0  0  0  0
  -26.2850  -15.6375   20.1308 H   0  0  0  0  0  0
  -26.7225  -32.5385   23.1072 H   0  0  0  0  0  0
  -25.0087  -33.9688   25.0393 H   0  0  0  0  0  0
  -22.7296  -31.3027   21.3982 H   0  0  0  0  0  0
  -23.3751  -35.9617   23.3301 H   0  0  0  0  0  0
  -24.3580  -36.8907   22.2053 H   0  0  0  0  0  0
  -23.7247  -37.6484   23.6665 H   0  0  0  0  0  0
  -26.1281  -31.5180   20.6181 H   0  0  0  0  0  0
  -26.8568  -30.8028   22.0232 H   0  0  0  0  0  0
  -28.1128  -28.8791   21.2379 H   0  0  0  0  0  0
  -25.9280  -25.9443   18.9225 H   0  0  0  0  0  0
  -23.9750  -27.3435   18.9579 H   0  0  0  0  0  0
  -23.7799  -30.5986   19.4053 H   0  0  0  0  0  0
  -22.7686  -29.2567   19.8480 H   0  0  0  0  0  0
  -25.1301  -36.1910   25.0815 H   0  0  0  0  0  0
  -20.9998  -28.3287   24.1377 H   0  0  0  0  0  0
  -20.5692  -26.2319   23.3609 H   0  0  0  0  0  0
  -21.6651  -26.7446   22.1191 H   0  0  0  0  0  0
  -19.6923  -25.6293   21.1245 H   0  0  0  0  0  0
  -19.6689  -27.3188   20.6734 H   0  0  0  0  0  0
  -17.4207  -26.6663   21.4037 H   0  0  0  0  0  0
  -18.0354  -26.0075   22.9033 H   0  0  0  0  0  0
  -19.7946  -30.7283   24.2248 H   0  0  0  0  0  0
  -17.5022  -31.6266   24.5168 H   0  0  0  0  0  0
  -15.5359  -30.2982   23.7662 H   0  0  0  0  0  0
  -15.8683  -28.0817   22.7070 H   0  0  0  0  0  0
  -24.5886  -30.7115   25.7769 H   0  0  0  0  0  0
  -24.8934  -32.2925   26.4868 H   0  0  0  0  0  0
  -25.8027  -30.8915   27.0233 H   0  0  0  0  0  0
  -26.2967  -29.6728   24.1259 H   0  0  0  0  0  0
  -27.4003  -29.7262   25.4800 H   0  0  0  0  0  0
  -27.8863  -30.4244   23.9544 H   0  0  0  0  0  0
  -27.2665  -33.3639   26.2063 H   0  0  0  0  0  0
  -28.3888  -32.6871   25.0357 H   0  0  0  0  0  0
  -28.0708  -31.8472   26.5457 H   0  0  0  0  0  0
  -28.2592  -38.0097   24.7508 H   0  0  0  0  0  0
  -28.1073  -36.2626   24.6300 H   0  0  0  0  0  0
  -27.2294  -37.1458   25.8869 H   0  0  0  0  0  0
  -20.9415  -29.8782   21.6850 H   0  0  0  0  0  0
  -26.0166  -38.2839   24.1401 H   0  0  0  0  0  0
  -29.7489  -16.0876   24.6553 H   0  0  0  0  0  0
  -29.1065  -18.1655   17.0564 H   0  0  0  0  0  0
  -28.9774  -20.3823   18.0628 H   0  0  0  0  0  0
  -29.5872  -16.1572   18.3594 H   0  0  0  0  0  0
  -29.8201  -18.6223   21.9122 H   0  0  0  0  0  0
  -28.0726  -22.0722   19.1830 H   0  0  0  0  0  0
  -28.9862  -24.1271   22.5488 H   0  0  0  0  0  0
  -30.2542  -24.8003   21.5312 H   0  0  0  0  0  0
  -29.3577  -21.0750   22.7079 H   0  0  0  0  0  0
  -30.8783  -20.6242   21.9551 H   0  0  0  0  0  0
  -26.9901  -24.6229   20.2547 H   0  0  0  0  0  0
  -27.9464  -24.7349   18.7980 H   0  0  0  0  0  0
  1 25  1  0  0  0
  1 30  2  0  0  0
  1 86  1  0  0  0
  2  3  1  0  0  0
  2 25  1  0  0  0
  2 88  1  0  0  0
  2 89  1  0  0  0
  3  4  1  0  0  0
  3 90  1  0  0  0
  3 91  1  0  0  0
  4  5  1  0  0  0
  4 92  1  0  0  0
  4 93  1  0  0  0
  5  6  1  0  0  0
  5 26  1  0  0  0
  5 94  1  0  0  0
  6 25  1  0  0  0
  6 95  1  0  0  0
  6 96  1  0  0  0
  7  8  2  0  0  0
  7 26  1  0  0  0
  7 29  1  0  0  0
  8  9  1  0  0  0
  8 22  1  0  0  0
  9 10  1  0  0  0
  9 27  2  0  0  0
 10 11  2  0  0  0
 10 15  1  0  0  0
 11 12  1  0  0  0
 11 97  1  0  0  0
 12 13  2  0  0  0
 12 98  1  0  0  0
 13 14  1  0  0  0
 13 31  1  0  0  0
 14 15  2  0  0  0
 14 99  1  0  0  0
 15100  1  0  0  0
 16 17  2  0  0  0
 16 21  1  0  0  0
 16 31  1  0  0  0
 17 18  1  0  0  0
 17101  1  0  0  0
 18 19  2  0  0  0
 18102  1  0  0  0
 19 20  1  0  0  0
 19 24  1  0  0  0
 20 21  2  0  0  0
 20103  1  0  0  0
 21 23  1  0  0  0
 22 28  1  0  0  0
 22 32  2  0  0  0
 26 27  1  0  0  0
 28104  1  0  0  0
 28105  1  0  0  0
 29106  1  0  0  0
 29107  1  0  0  0
 33 34  1  0  0  0
 33 66  1  0  0  0
 33 70  2  0  0  0
 34 36  1  0  0  0
 34 59  1  0  0  0
 34108  1  0  0  0
 35 44  2  0  0  0
 35 45  1  0  0  0
 35 68  1  0  0  0
 36 56  1  0  0  0
 36109  1  0  0  0
 37 39  1  0  0  0
 37 47  1  0  0  0
 37 66  1  0  0  0
 37110  1  0  0  0
 38 43  2  0  0  0
 38 46  1  0  0  0
 38 47  1  0  0  0
 39 64  1  0  0  0
 39 67  2  0  0  0
 40 52  1  0  0  0
 40 53  2  0  0  0
 40 58  1  0  0  0
 41111  1  0  0  0
 41112  1  0  0  0
 41113  1  0  0  0
 41 48  1  0  0  0
 42 43  1  0  0  0
 42 66  1  0  0  0
 42114  1  0  0  0
 42115  1  0  0  0
 43 44  1  0  0  0
 44116  1  0  0  0
 45 46  2  0  0  0
 45117  1  0  0  0
 46118  1  0  0  0
 47119  1  0  0  0
 47120  1  0  0  0
 48 56  1  0  0  0
 48 65  1  0  0  0
 48121  1  0  0  0
 49 50  1  0  0  0
 49 53  1  0  0  0
 49 64  1  0  0  0
 49122  1  0  0  0
 50 51  1  0  0  0
 50123  1  0  0  0
 50124  1  0  0  0
 51 52  1  0  0  0
 51125  1  0  0  0
 51126  1  0  0  0
 52127  1  0  0  0
 52128  1  0  0  0
 53 54  1  0  0  0
 54 55  2  0  0  0
 54129  1  0  0  0
 55 57  1  0  0  0
 55130  1  0  0  0
 56 69  2  0  0  0
 57 58  2  0  0  0
 57131  1  0  0  0
 58132  1  0  0  0
 59 60  1  0  0  0
 59 61  1  0  0  0
 59 62  1  0  0  0
 60133  1  0  0  0
 60134  1  0  0  0
 60135  1  0  0  0
 61136  1  0  0  0
 61137  1  0  0  0
 61138  1  0  0  0
 62139  1  0  0  0
 62140  1  0  0  0
 62141  1  0  0  0
 63 65  1  0  0  0
 63142  1  0  0  0
 63143  1  0  0  0
 63144  1  0  0  0
 64145  1  0  0  0
 65146  1  0  0  0
 68 84  1  0  0  0
 71 72  3  0  0  0
 71147  1  0  0  0
 72 86  1  0  0  0
 73 74  2  0  0  0
 73 75  1  0  0  0
 73148  1  0  0  0
 74 77  1  0  0  0
 74149  1  0  0  0
 75 78  2  0  0  0
 75150  1  0  0  0
 76 77  2  0  0  0
 76 78  1  0  0  0
 76151  1  0  0  0
 77 85  1  0  0  0
 78 86  1  0  0  0
 79 80  2  0  0  0
 79 85  1  0  0  0
 79152  1  0  0  0
 80 82  1  0  0  0
 80 84  1  0  0  0
 81 82  1  0  0  0
 81 83  1  0  0  0
 81 87  2  0  0  0
 82153  1  0  0  0
 82154  1  0  0  0
 83 85  1  0  0  0
 83155  1  0  0  0
 83156  1  0  0  0
 84157  1  0  0  0
 84158  1  0  0  0
M  ISO  4   1 100  68 101  84 101  86 100
M  END
> <chiral flag>
0

> <version>
0

> <s_m_source_file>
/data/baiqing/PycharmProjects/Reinvent-master-3.2/result/LINK_invent/BTK/process_docking_weight1_custom_product_contain_oxygen_bond_distance_aromatic_linkinvent_7_9_3/rearranged_h_0091.sdf

> <i_m_source_file_index>
89

> <r_mmod_Potential_Energy-OPLS-2005>
371.403991699219

> <r_mmod_Stretch_Energy-OPLS-2005>
145.879150390625

> <r_mmod_Bend_Energy-OPLS-2005>
170.529983520508

> <r_mmod_Torsional_Energy-OPLS-2005>
283.026153564453

> <r_mmod_Improper_Torsional_Energy-OPLS-2005>
3.48357057571411

> <r_mmod_Van_der_Waal_Energy-OPLS-2005>
162.577789306641

> <r_mmod_Electrostatic_Energy-OPLS-2005>
-269.874816894531

> <r_mmod_Solvation_Energy-OPLS-2005>
-217.729797363281

> <b_mmod_Minimization_Converged-OPLS-2005>
0

> <r_mmod_RMS_Derivative-OPLS-2005>
0.354344964027405

$$$$
89
                    3D
 Structure written by MMmdl.
156164  0  0  1  0            999 V2000
  -30.6577  -14.7500   20.4081 C   0  0  0  0  0  0
  -30.4157  -12.4382   19.4951 C   0  0  0  0  0  0
  -29.5238  -12.5335   18.2424 C   0  0  0  0  0  0
  -28.0451  -12.3698   18.6315 C   0  0  0  0  0  0
  -27.6534  -13.2483   19.8509 C   0  0  2  0  0  0
  -28.6971  -13.2178   20.9916 C   0  0  0  0  0  0
  -25.2576  -13.8217   20.5653 C   0  0  0  0  0  0
  -24.1853  -13.0489   20.9157 C   0  0  0  0  0  0
  -24.6467  -11.6951   20.8745 C   0  0  0  0  0  0
  -23.9137  -10.4322   21.0403 C   0  0  0  0  0  0
  -24.3692   -9.4228   21.9174 C   0  0  0  0  0  0
  -23.6360   -8.2276   22.0751 C   0  0  0  0  0  0
  -22.4344   -8.0327   21.3519 C   0  0  0  0  0  0
  -21.9994   -9.0296   20.4609 C   0  0  0  0  0  0
  -22.7328  -10.2167   20.3030 C   0  0  0  0  0  0
  -21.6866   -6.0772   22.5273 C   0  0  0  0  0  0
  -21.4041   -6.5682   23.8215 C   0  0  0  0  0  0
  -21.3688   -5.6818   24.9174 C   0  0  0  0  0  0
  -21.6062   -4.3096   24.7200 C   0  0  0  0  0  0
  -21.8832   -3.8188   23.4323 C   0  0  0  0  0  0
  -21.9212   -4.6995   22.3383 C   0  0  0  0  0  0
  -22.7867  -13.5248   21.1810 C   0  0  0  0  0  0
  -22.1643   -4.2191   21.0955 F   0  0  0  0  0  0
  -21.5648   -3.4562   25.7689 F   0  0  0  0  0  0
  -30.0085  -13.5294   20.4188 N   0  0  0  0  0  0
  -26.3050  -12.9492   20.3300 N   0  0  0  0  0  0
  -25.9439  -11.6606   20.5808 N   0  0  0  0  0  0
  -22.0530  -12.8230   22.0335 N   0  0  0  0  0  0
  -25.4332  -15.1949   20.4004 N   0  0  0  0  0  0
  -31.8142  -14.8240   19.9851 O   0  0  0  0  0  0
  -21.6697   -6.8919   21.4227 O   0  0  0  0  0  0
  -22.3559  -14.5540   20.6613 O   0  0  0  0  0  0
  -24.6395  -31.8528   23.1996 C   0  0  0  0  0  0
  -25.9244  -32.4714   23.8337 C   0  0  1  0  0  0
  -27.2253  -27.2433   20.0892 C   0  0  0  0  0  0
  -25.6048  -33.8528   24.2260 N   0  0  0  0  0  0
  -23.4384  -30.4802   21.5436 C   0  0  2  0  0  0
  -24.8832  -28.9312   20.1058 C   0  0  0  0  0  0
  -22.7548  -29.4607   22.4892 C   0  0  0  0  0  0
  -18.0292  -28.1405   22.8498 C   0  0  0  0  0  0
  -24.1531  -36.7279   23.2641 C   0  0  0  0  0  0
  -25.9900  -30.7536   21.3914 C   0  0  0  0  0  0
  -26.0594  -29.3813   20.7164 C   0  0  0  0  0  0
  -27.2301  -28.5492   20.6987 C   0  0  0  0  0  0
  -26.0199  -26.8779   19.4446 C   0  0  0  0  0  0
  -24.8670  -27.6853   19.4658 C   0  0  0  0  0  0
  -23.6666  -29.8376   20.1529 C   0  0  0  0  0  0
  -25.4153  -36.3054   24.0333 C   0  0  1  0  0  0
  -20.5920  -28.3737   23.1279 C   0  0  2  0  0  0
  -20.6797  -26.9459   22.5412 C   0  0  0  0  0  0
  -19.5755  -26.6401   21.5243 C   0  0  0  0  0  0
  -18.1934  -26.7950   22.1627 C   0  0  0  0  0  0
  -19.1549  -28.8873   23.2905 C   0  0  0  0  0  0
  -18.9458  -30.1470   23.8942 C   0  0  0  0  0  0
  -17.6447  -30.6595   24.0595 C   0  0  0  0  0  0
  -25.9103  -34.9422   23.5071 C   0  0  0  0  0  0
  -16.5353  -29.9112   23.6310 C   0  0  0  0  0  0
  -16.7270  -28.6536   23.0327 C   0  0  0  0  0  0
  -26.4552  -31.6533   25.0738 C   0  0  0  0  0  0
  -25.3748  -31.3673   26.1437 C   0  0  0  0  0  0
  -27.0428  -30.2950   24.6250 C   0  0  0  0  0  0
  -27.6096  -32.4265   25.7501 C   0  0  0  0  0  0
  -27.5601  -37.1798   24.8452 C   0  0  0  0  0  0
  -21.4230  -29.3103   22.3677 N   0  0  0  0  0  0
  -26.4309  -37.3764   23.9410 N   0  0  0  0  0  0
  -24.7091  -31.0465   22.1009 N   0  0  0  0  0  0
  -23.4211  -28.8138   23.3019 O   0  0  0  0  0  0
  -28.3179  -26.3328   20.1368 O   0  0  0  0  0  0
  -26.5627  -34.8904   22.4610 O   0  0  0  0  0  0
  -23.5548  -32.1422   23.7252 O   0  0  0  0  0  0
  -31.4869  -18.8987   20.9593 C   0  0  0  0  0  0
  -29.4169  -19.8399   20.0568 C   0  0  0  0  0  0
  -30.2123  -18.6633   20.4053 C   0  0  0  0  0  0
  -32.0115  -20.2073   21.0041 C   0  0  0  0  0  0
  -29.8741  -21.2202   20.2298 C   0  0  0  0  0  0
  -31.2321  -21.3416   20.6587 C   0  0  0  0  0  0
  -29.9600  -17.2178   19.9563 C   0  0  0  0  0  0
  -29.0508  -23.7425   20.3282 C   0  0  0  0  0  0
  -28.1685  -24.9008   19.6486 C   0  0  0  0  0  0
  -33.3705  -20.3941   21.2848 N   0  0  0  0  0  0
  -31.8984  -22.5645   20.7079 N   0  0  0  0  0  0
  -29.0705  -22.4313   19.8439 N   0  0  0  0  0  0
  -29.9604  -16.0394   20.7138 N   0  0  0  0  0  0
  -29.7725  -17.1366   18.6346 N   0  3  0  0  0  0
  -29.6804  -24.0504   21.3457 O   0  0  0  0  0  0
  -31.4683  -12.4915   19.2145 H   0  0  0  0  0  0
  -30.2917  -11.4667   19.9780 H   0  0  0  0  0  0
  -29.8034  -11.7835   17.4966 H   0  0  0  0  0  0
  -29.6795  -13.5039   17.7667 H   0  0  0  0  0  0
  -27.8813  -11.3198   18.8654 H   0  0  0  0  0  0
  -27.4094  -12.5954   17.7759 H   0  0  0  0  0  0
  -27.6448  -14.2672   19.4682 H   0  0  0  0  0  0
  -28.7007  -12.2422   21.4834 H   0  0  0  0  0  0
  -28.4430  -13.9537   21.7534 H   0  0  0  0  0  0
  -25.2787   -9.5788   22.4812 H   0  0  0  0  0  0
  -24.0054   -7.4719   22.7548 H   0  0  0  0  0  0
  -21.0917   -8.8859   19.8920 H   0  0  0  0  0  0
  -22.3765  -10.9754   19.6205 H   0  0  0  0  0  0
  -21.2018   -7.6189   23.9736 H   0  0  0  0  0  0
  -21.1492   -6.0533   25.9084 H   0  0  0  0  0  0
  -22.0563   -2.7651   23.2810 H   0  0  0  0  0  0
  -22.4157  -11.9861   22.4665 H   0  0  0  0  0  0
  -21.1170  -13.1302   22.2557 H   0  0  0  0  0  0
  -24.6668  -15.8529   20.4993 H   0  0  0  0  0  0
  -26.2772  -15.6166   20.0395 H   0  0  0  0  0  0
  -26.7318  -32.5320   23.1079 H   0  0  0  0  0  0
  -25.0275  -33.9654   25.0459 H   0  0  0  0  0  0
  -22.7418  -31.3104   21.4042 H   0  0  0  0  0  0
  -23.3793  -35.9598   23.3225 H   0  0  0  0  0  0
  -24.3675  -36.8961   22.2073 H   0  0  0  0  0  0
  -23.7254  -37.6453   23.6699 H   0  0  0  0  0  0
  -26.1538  -31.5263   20.6413 H   0  0  0  0  0  0
  -26.8564  -30.7786   22.0373 H   0  0  0  0  0  0
  -28.1313  -28.8937   21.1859 H   0  0  0  0  0  0
  -25.9173  -25.9484   18.9112 H   0  0  0  0  0  0
  -23.9684  -27.3323   18.9784 H   0  0  0  0  0  0
  -23.8452  -30.6378   19.4316 H   0  0  0  0  0  0
  -22.7769  -29.3171   19.7966 H   0  0  0  0  0  0
  -25.1335  -36.1878   25.0825 H   0  0  0  0  0  0
  -21.0008  -28.3299   24.1408 H   0  0  0  0  0  0
  -20.5745  -26.2356   23.3634 H   0  0  0  0  0  0
  -21.6661  -26.7506   22.1181 H   0  0  0  0  0  0
  -19.6919  -25.6311   21.1278 H   0  0  0  0  0  0
  -19.6671  -27.3219   20.6788 H   0  0  0  0  0  0
  -17.4227  -26.6757   21.4005 H   0  0  0  0  0  0
  -18.0273  -26.0077   22.8996 H   0  0  0  0  0  0
  -19.7932  -30.7278   24.2344 H   0  0  0  0  0  0
  -17.5001  -31.6266   24.5211 H   0  0  0  0  0  0
  -15.5362  -30.3023   23.7591 H   0  0  0  0  0  0
  -15.8686  -28.0875   22.6978 H   0  0  0  0  0  0
  -24.5945  -30.7006   25.7742 H   0  0  0  0  0  0
  -24.8916  -32.2833   26.4849 H   0  0  0  0  0  0
  -25.8066  -30.8845   27.0216 H   0  0  0  0  0  0
  -26.3027  -29.6617   24.1347 H   0  0  0  0  0  0
  -27.4204  -29.7280   25.4764 H   0  0  0  0  0  0
  -27.8865  -30.4214   23.9463 H   0  0  0  0  0  0
  -27.2722  -33.3583   26.2043 H   0  0  0  0  0  0
  -28.3920  -32.6779   25.0326 H   0  0  0  0  0  0
  -28.0758  -31.8403   26.5426 H   0  0  0  0  0  0
  -28.2550  -38.0164   24.7583 H   0  0  0  0  0  0
  -28.1171  -36.2693   24.6170 H   0  0  0  0  0  0
  -27.2345  -37.1307   25.8861 H   0  0  0  0  0  0
  -20.9413  -29.8973   21.7008 H   0  0  0  0  0  0
  -26.0166  -38.2829   24.1397 H   0  0  0  0  0  0
  -32.1213  -18.0601   21.2110 H   0  0  0  0  0  0
  -28.4449  -19.6694   19.6151 H   0  0  0  0  0  0
  -27.1485  -24.5465   19.7790 H   0  0  0  0  0  0
  -28.3686  -24.8750   18.5758 H   0  0  0  0  0  0
  -33.9672  -19.5862   21.1412 H   0  0  0  0  0  0
  -33.7337  -21.1908   20.7661 H   0  0  0  0  0  0
  -32.6440  -22.5234   21.3936 H   0  0  0  0  0  0
  -31.2439  -23.3123   20.9359 H   0  0  0  0  0  0
  -28.4392  -22.2711   19.0684 H   0  0  0  0  0  0
  -29.2076  -16.0603   21.3801 H   0  0  0  0  0  0
  -29.8722  -17.9790   18.0878 H   0  0  0  0  0  0
  -29.5207  -16.2929   18.1518 H   0  0  0  0  0  0
  1 25  1  0  0  0
  1 30  2  0  0  0
  1 83  1  0  0  0
  2  3  1  0  0  0
  2 25  1  0  0  0
  2 86  1  0  0  0
  2 87  1  0  0  0
  3  4  1  0  0  0
  3 88  1  0  0  0
  3 89  1  0  0  0
  4  5  1  0  0  0
  4 90  1  0  0  0
  4 91  1  0  0  0
  5  6  1  0  0  0
  5 26  1  0  0  0
  5 92  1  0  0  0
  6 25  1  0  0  0
  6 93  1  0  0  0
  6 94  1  0  0  0
  7  8  2  0  0  0
  7 26  1  0  0  0
  7 29  1  0  0  0
  8  9  1  0  0  0
  8 22  1  0  0  0
  9 10  1  0  0  0
  9 27  2  0  0  0
 10 11  2  0  0  0
 10 15  1  0  0  0
 11 12  1  0  0  0
 11 95  1  0  0  0
 12 13  2  0  0  0
 12 96  1  0  0  0
 13 14  1  0  0  0
 13 31  1  0  0  0
 14 15  2  0  0  0
 14 97  1  0  0  0
 15 98  1  0  0  0
 16 17  2  0  0  0
 16 21  1  0  0  0
 16 31  1  0  0  0
 17 18  1  0  0  0
 17 99  1  0  0  0
 18 19  2  0  0  0
 18100  1  0  0  0
 19 20  1  0  0  0
 19 24  1  0  0  0
 20 21  2  0  0  0
 20101  1  0  0  0
 21 23  1  0  0  0
 22 28  1  0  0  0
 22 32  2  0  0  0
 26 27  1  0  0  0
 28102  1  0  0  0
 28103  1  0  0  0
 29104  1  0  0  0
 29105  1  0  0  0
 33 34  1  0  0  0
 33 66  1  0  0  0
 33 70  2  0  0  0
 34 36  1  0  0  0
 34 59  1  0  0  0
 34106  1  0  0  0
 35 44  2  0  0  0
 35 45  1  0  0  0
 35 68  1  0  0  0
 36 56  1  0  0  0
 36107  1  0  0  0
 37 39  1  0  0  0
 37 47  1  0  0  0
 37 66  1  0  0  0
 37108  1  0  0  0
 38 43  2  0  0  0
 38 46  1  0  0  0
 38 47  1  0  0  0
 39 64  1  0  0  0
 39 67  2  0  0  0
 40 52  1  0  0  0
 40 53  2  0  0  0
 40 58  1  0  0  0
 41109  1  0  0  0
 41110  1  0  0  0
 41111  1  0  0  0
 41 48  1  0  0  0
 42 43  1  0  0  0
 42 66  1  0  0  0
 42112  1  0  0  0
 42113  1  0  0  0
 43 44  1  0  0  0
 44114  1  0  0  0
 45 46  2  0  0  0
 45115  1  0  0  0
 46116  1  0  0  0
 47117  1  0  0  0
 47118  1  0  0  0
 48 56  1  0  0  0
 48 65  1  0  0  0
 48119  1  0  0  0
 49 50  1  0  0  0
 49 53  1  0  0  0
 49 64  1  0  0  0
 49120  1  0  0  0
 50 51  1  0  0  0
 50121  1  0  0  0
 50122  1  0  0  0
 51 52  1  0  0  0
 51123  1  0  0  0
 51124  1  0  0  0
 52125  1  0  0  0
 52126  1  0  0  0
 53 54  1  0  0  0
 54 55  2  0  0  0
 54127  1  0  0  0
 55 57  1  0  0  0
 55128  1  0  0  0
 56 69  2  0  0  0
 57 58  2  0  0  0
 57129  1  0  0  0
 58130  1  0  0  0
 59 60  1  0  0  0
 59 61  1  0  0  0
 59 62  1  0  0  0
 60131  1  0  0  0
 60132  1  0  0  0
 60133  1  0  0  0
 61134  1  0  0  0
 61135  1  0  0  0
 61136  1  0  0  0
 62137  1  0  0  0
 62138  1  0  0  0
 62139  1  0  0  0
 63 65  1  0  0  0
 63140  1  0  0  0
 63141  1  0  0  0
 63142  1  0  0  0
 64143  1  0  0  0
 65144  1  0  0  0
 68 79  1  0  0  0
 71 73  2  0  0  0
 71 74  1  0  0  0
 71145  1  0  0  0
 72 73  1  0  0  0
 72 75  2  0  0  0
 72146  1  0  0  0
 73 77  1  0  0  0
 74 76  2  0  0  0
 74 80  1  0  0  0
 75 76  1  0  0  0
 75 82  1  0  0  0
 76 81  1  0  0  0
 77 83  1  0  0  0
 77 84  2  0  0  0
 78 79  1  0  0  0
 78 82  1  0  0  0
 78 85  2  0  0  0
 79147  1  0  0  0
 79148  1  0  0  0
 80149  1  0  0  0
 80150  1  0  0  0
 81151  1  0  0  0
 81152  1  0  0  0
 82153  1  0  0  0
 83154  1  0  0  0
 84155  1  0  0  0
 84156  1  0  0  0
M  CHG  1  84   1
M  ISO  4   1 100  68 101  79 101  83 100
M  END
> <chiral flag>
0

> <version>
0

> <s_m_source_file>
/data/baiqing/PycharmProjects/Reinvent-master-3.2/result/LINK_invent/BTK/process_docking_weight1_custom_product_contain_oxygen_bond_distance_aromatic_linkinvent_7_9_3/rearranged_h_0091.sdf

> <i_m_source_file_index>
90

> <r_mmod_Potential_Energy-OPLS-2005>
-162.934677124023

> <r_mmod_Stretch_Energy-OPLS-2005>
141.645462036133

> <r_mmod_Bend_Energy-OPLS-2005>
187.603927612305

> <r_mmod_Torsional_Energy-OPLS-2005>
328.293243408203

> <r_mmod_Improper_Torsional_Energy-OPLS-2005>
20.0473918914795

> <r_mmod_Van_der_Waal_Energy-OPLS-2005>
161.866455078125

> <r_mmod_Electrostatic_Energy-OPLS-2005>
-583.808837890625

> <r_mmod_Solvation_Energy-OPLS-2005>
-512.850524902344

> <b_mmod_Minimization_Converged-OPLS-2005>
0

> <r_mmod_RMS_Derivative-OPLS-2005>
6.7717719078064

$$$$
90
                    3D
 Structure written by MMmdl.
155164  0  0  1  0            999 V2000
  -30.5883  -14.7802   20.4404 C   0  0  0  0  0  0
  -30.4246  -12.4704   19.4876 C   0  0  0  0  0  0
  -29.5092  -12.5355   18.2437 C   0  0  0  0  0  0
  -28.0369  -12.3531   18.6528 C   0  0  0  0  0  0
  -27.6423  -13.2425   19.8628 C   0  0  2  0  0  0
  -28.6838  -13.1765   21.0010 C   0  0  0  0  0  0
  -25.2484  -13.8233   20.5708 C   0  0  0  0  0  0
  -24.1783  -13.0458   20.9180 C   0  0  0  0  0  0
  -24.6390  -11.6938   20.8694 C   0  0  0  0  0  0
  -23.9062  -10.4310   21.0360 C   0  0  0  0  0  0
  -24.3606   -9.4250   21.9158 C   0  0  0  0  0  0
  -23.6297   -8.2279   22.0755 C   0  0  0  0  0  0
  -22.4274   -8.0301   21.3557 C   0  0  0  0  0  0
  -21.9894   -9.0257   20.4643 C   0  0  0  0  0  0
  -22.7213  -10.2141   20.3034 C   0  0  0  0  0  0
  -21.6883   -6.0727   22.5278 C   0  0  0  0  0  0
  -21.4041   -6.5630   23.8208 C   0  0  0  0  0  0
  -21.3663   -5.6789   24.9175 C   0  0  0  0  0  0
  -21.6051   -4.3053   24.7226 C   0  0  0  0  0  0
  -21.8819   -3.8142   23.4351 C   0  0  0  0  0  0
  -21.9200   -4.6950   22.3398 C   0  0  0  0  0  0
  -22.7801  -13.5220   21.1837 C   0  0  0  0  0  0
  -22.1659   -4.2127   21.0974 F   0  0  0  0  0  0
  -21.5624   -3.4541   25.7748 F   0  0  0  0  0  0
  -29.9860  -13.5358   20.4287 N   0  0  0  0  0  0
  -26.2939  -12.9460   20.3342 N   0  0  0  0  0  0
  -25.9329  -11.6581   20.5736 N   0  0  0  0  0  0
  -22.0475  -12.8213   22.0407 N   0  0  0  0  0  0
  -25.4163  -15.1971   20.4153 N   0  0  0  0  0  0
  -31.7521  -14.8853   20.0427 O   0  0  0  0  0  0
  -21.6673   -6.8870   21.4241 O   0  0  0  0  0  0
  -22.3473  -14.5528   20.6698 O   0  0  0  0  0  0
  -24.6368  -31.8515   23.1974 C   0  0  0  0  0  0
  -25.9180  -32.4732   23.8315 C   0  0  1  0  0  0
  -27.2141  -27.2152   20.1354 C   0  0  0  0  0  0
  -25.5957  -33.8541   24.2237 N   0  0  0  0  0  0
  -23.4357  -30.4751   21.5408 C   0  0  2  0  0  0
  -24.8840  -28.9173   20.1107 C   0  0  0  0  0  0
  -22.7515  -29.4591   22.4888 C   0  0  0  0  0  0
  -18.0305  -28.1386   22.8487 C   0  0  0  0  0  0
  -24.1496  -36.7276   23.2638 C   0  0  0  0  0  0
  -25.9883  -30.7471   21.3886 C   0  0  0  0  0  0
  -26.0581  -29.3653   20.7315 C   0  0  0  0  0  0
  -27.2232  -28.5236   20.7405 C   0  0  0  0  0  0
  -26.0250  -26.8646   19.4547 C   0  0  0  0  0  0
  -24.8734  -27.6732   19.4654 C   0  0  0  0  0  0
  -23.6572  -29.8098   20.1571 C   0  0  0  0  0  0
  -25.4131  -36.3061   24.0316 C   0  0  1  0  0  0
  -20.5911  -28.3711   23.1249 C   0  0  2  0  0  0
  -20.6795  -26.9424   22.5406 C   0  0  0  0  0  0
  -19.5772  -26.6387   21.5221 C   0  0  0  0  0  0
  -18.1948  -26.7931   22.1624 C   0  0  0  0  0  0
  -19.1556  -28.8873   23.2857 C   0  0  0  0  0  0
  -18.9474  -30.1468   23.8880 C   0  0  0  0  0  0
  -17.6472  -30.6592   24.0563 C   0  0  0  0  0  0
  -25.9077  -34.9429   23.5086 C   0  0  0  0  0  0
  -16.5366  -29.9085   23.6331 C   0  0  0  0  0  0
  -16.7290  -28.6500   23.0362 C   0  0  0  0  0  0
  -26.4519  -31.6572   25.0719 C   0  0  0  0  0  0
  -25.3718  -31.3750   26.1419 C   0  0  0  0  0  0
  -27.0391  -30.2982   24.6273 C   0  0  0  0  0  0
  -27.6053  -32.4326   25.7501 C   0  0  0  0  0  0
  -27.5584  -37.1798   24.8469 C   0  0  0  0  0  0
  -21.4226  -29.3046   22.3628 N   0  0  0  0  0  0
  -26.4306  -37.3760   23.9398 N   0  0  0  0  0  0
  -24.7065  -31.0439   22.0971 N   0  0  0  0  0  0
  -23.4185  -28.8145   23.3018 O   0  0  0  0  0  0
  -28.2674  -26.2531   20.1918 O   0  0  0  0  0  0
  -26.5642  -34.8910   22.4650 O   0  0  0  0  0  0
  -23.5501  -32.1386   23.7221 O   0  0  0  0  0  0
  -29.3418  -19.6975   18.6158 C   0  0  0  0  0  0
  -29.6020  -18.5705   20.7542 C   0  0  0  0  0  0
  -29.6985  -17.2602   18.7029 C   0  0  0  0  0  0
  -29.4129  -19.8306   20.0215 C   0  0  0  0  0  0
  -29.4829  -18.4486   17.9696 C   0  0  0  0  0  0
  -29.7606  -17.2555   20.1161 C   0  0  0  0  0  0
  -28.7007  -23.6671   20.2906 C   0  0  0  0  0  0
  -30.1494  -23.5152   20.1925 C   0  0  0  0  0  0
  -27.9461  -24.8474   20.3083 C   0  0  0  0  0  0
  -28.2269  -22.1637   20.3821 C   0  0  0  0  0  0
  -30.5562  -22.0189   20.2934 C   0  0  0  0  0  0
  -29.3661  -21.1872   20.5774 N   0  0  0  0  0  0
  -29.4069  -18.3869   16.5765 N   0  0  0  0  0  0
  -29.8511  -15.9160   20.7887 N   0  0  0  0  0  0
  -30.9751  -24.4207   20.0490 O   0  0  0  0  0  0
  -31.4697  -12.5783   19.1886 H   0  0  0  0  0  0
  -30.3503  -11.4909   19.9619 H   0  0  0  0  0  0
  -29.7910  -11.7718   17.5180 H   0  0  0  0  0  0
  -29.6399  -13.4968   17.7421 H   0  0  0  0  0  0
  -27.8899  -11.3020   18.9038 H   0  0  0  0  0  0
  -27.3809  -12.5543   17.8045 H   0  0  0  0  0  0
  -27.6363  -14.2683   19.4944 H   0  0  0  0  0  0
  -28.7162  -12.1781   21.4389 H   0  0  0  0  0  0
  -28.4150  -13.8549   21.8104 H   0  0  0  0  0  0
  -25.2750   -9.5764   22.4720 H   0  0  0  0  0  0
  -24.0014   -7.4694   22.7498 H   0  0  0  0  0  0
  -21.0818   -8.8765   19.8954 H   0  0  0  0  0  0
  -22.3653  -10.9659   19.6147 H   0  0  0  0  0  0
  -21.2045   -7.6142   23.9699 H   0  0  0  0  0  0
  -21.1483   -6.0528   25.9065 H   0  0  0  0  0  0
  -22.0581   -2.7595   23.2879 H   0  0  0  0  0  0
  -22.4105  -11.9867   22.4765 H   0  0  0  0  0  0
  -21.1090  -13.1231   22.2634 H   0  0  0  0  0  0
  -24.6444  -15.8475   20.5157 H   0  0  0  0  0  0
  -26.2680  -15.6415   20.0961 H   0  0  0  0  0  0
  -26.7243  -32.5362   23.1041 H   0  0  0  0  0  0
  -25.0118  -33.9693   25.0394 H   0  0  0  0  0  0
  -22.7355  -31.2999   21.3897 H   0  0  0  0  0  0
  -23.3775  -35.9591   23.3298 H   0  0  0  0  0  0
  -24.3575  -36.8914   22.2058 H   0  0  0  0  0  0
  -23.7253  -37.6468   23.6680 H   0  0  0  0  0  0
  -26.1399  -31.5043   20.6177 H   0  0  0  0  0  0
  -26.8604  -30.7917   22.0298 H   0  0  0  0  0  0
  -28.1159  -28.8527   21.2532 H   0  0  0  0  0  0
  -25.9564  -25.9228   18.9279 H   0  0  0  0  0  0
  -23.9784  -27.3280   18.9662 H   0  0  0  0  0  0
  -23.7860  -30.5861   19.4027 H   0  0  0  0  0  0
  -22.7740  -29.2456   19.8485 H   0  0  0  0  0  0
  -25.1319  -36.1898   25.0816 H   0  0  0  0  0  0
  -21.0002  -28.3312   24.1367 H   0  0  0  0  0  0
  -20.5731  -26.2330   23.3624 H   0  0  0  0  0  0
  -21.6657  -26.7456   22.1189 H   0  0  0  0  0  0
  -19.6940  -25.6297   21.1267 H   0  0  0  0  0  0
  -19.6708  -27.3183   20.6747 H   0  0  0  0  0  0
  -17.4217  -26.6692   21.4011 H   0  0  0  0  0  0
  -18.0320  -26.0060   22.9011 H   0  0  0  0  0  0
  -19.7952  -30.7298   24.2232 H   0  0  0  0  0  0
  -17.5028  -31.6260   24.5171 H   0  0  0  0  0  0
  -15.5368  -30.2989   23.7667 H   0  0  0  0  0  0
  -15.8684  -28.0824   22.7085 H   0  0  0  0  0  0
  -24.5894  -30.7106   25.7738 H   0  0  0  0  0  0
  -24.8917  -32.2933   26.4794 H   0  0  0  0  0  0
  -25.8003  -30.8950   27.0226 H   0  0  0  0  0  0
  -26.3010  -29.6698   24.1285 H   0  0  0  0  0  0
  -27.4032  -29.7272   25.4825 H   0  0  0  0  0  0
  -27.8889  -30.4242   23.9569 H   0  0  0  0  0  0
  -27.2657  -33.3658   26.2008 H   0  0  0  0  0  0
  -28.3890  -32.6843   25.0343 H   0  0  0  0  0  0
  -28.0680  -31.8496   26.5476 H   0  0  0  0  0  0
  -28.2596  -38.0100   24.7505 H   0  0  0  0  0  0
  -28.1087  -36.2624   24.6310 H   0  0  0  0  0  0
  -27.2288  -37.1461   25.8868 H   0  0  0  0  0  0
  -20.9437  -29.8748   21.6803 H   0  0  0  0  0  0
  -26.0182  -38.2832   24.1386 H   0  0  0  0  0  0
  -29.1934  -20.5854   18.0166 H   0  0  0  0  0  0
  -29.6326  -18.6168   21.8330 H   0  0  0  0  0  0
  -29.7810  -16.3268   18.1645 H   0  0  0  0  0  0
  -26.8834  -24.7120   20.4384 H   0  0  0  0  0  0
  -27.6806  -21.9206   19.4696 H   0  0  0  0  0  0
  -27.5210  -22.0636   21.2072 H   0  0  0  0  0  0
  -31.2980  -21.8956   21.0819 H   0  0  0  0  0  0
  -31.0266  -21.7240   19.3539 H   0  0  0  0  0  0
  -28.9676  -19.1521   16.0723 H   0  0  0  0  0  0
  -29.2764  -17.4887   16.1215 H   0  0  0  0  0  0
  -29.0786  -15.7151   21.4069 H   0  0  0  0  0  0
  1 25  1  0  0  0
  1 30  2  0  0  0
  1 84  1  0  0  0
  2  3  1  0  0  0
  2 25  1  0  0  0
  2 86  1  0  0  0
  2 87  1  0  0  0
  3  4  1  0  0  0
  3 88  1  0  0  0
  3 89  1  0  0  0
  4  5  1  0  0  0
  4 90  1  0  0  0
  4 91  1  0  0  0
  5  6  1  0  0  0
  5 26  1  0  0  0
  5 92  1  0  0  0
  6 25  1  0  0  0
  6 93  1  0  0  0
  6 94  1  0  0  0
  7  8  2  0  0  0
  7 26  1  0  0  0
  7 29  1  0  0  0
  8  9  1  0  0  0
  8 22  1  0  0  0
  9 10  1  0  0  0
  9 27  2  0  0  0
 10 11  2  0  0  0
 10 15  1  0  0  0
 11 12  1  0  0  0
 11 95  1  0  0  0
 12 13  2  0  0  0
 12 96  1  0  0  0
 13 14  1  0  0  0
 13 31  1  0  0  0
 14 15  2  0  0  0
 14 97  1  0  0  0
 15 98  1  0  0  0
 16 17  2  0  0  0
 16 21  1  0  0  0
 16 31  1  0  0  0
 17 18  1  0  0  0
 17 99  1  0  0  0
 18 19  2  0  0  0
 18100  1  0  0  0
 19 20  1  0  0  0
 19 24  1  0  0  0
 20 21  2  0  0  0
 20101  1  0  0  0
 21 23  1  0  0  0
 22 28  1  0  0  0
 22 32  2  0  0  0
 26 27  1  0  0  0
 28102  1  0  0  0
 28103  1  0  0  0
 29104  1  0  0  0
 29105  1  0  0  0
 33 34  1  0  0  0
 33 66  1  0  0  0
 33 70  2  0  0  0
 34 36  1  0  0  0
 34 59  1  0  0  0
 34106  1  0  0  0
 35 44  2  0  0  0
 35 45  1  0  0  0
 35 68  1  0  0  0
 36 56  1  0  0  0
 36107  1  0  0  0
 37 39  1  0  0  0
 37 47  1  0  0  0
 37 66  1  0  0  0
 37108  1  0  0  0
 38 43  2  0  0  0
 38 46  1  0  0  0
 38 47  1  0  0  0
 39 64  1  0  0  0
 39 67  2  0  0  0
 40 52  1  0  0  0
 40 53  2  0  0  0
 40 58  1  0  0  0
 41109  1  0  0  0
 41110  1  0  0  0
 41111  1  0  0  0
 41 48  1  0  0  0
 42 43  1  0  0  0
 42 66  1  0  0  0
 42112  1  0  0  0
 42113  1  0  0  0
 43 44  1  0  0  0
 44114  1  0  0  0
 45 46  2  0  0  0
 45115  1  0  0  0
 46116  1  0  0  0
 47117  1  0  0  0
 47118  1  0  0  0
 48 56  1  0  0  0
 48 65  1  0  0  0
 48119  1  0  0  0
 49 50  1  0  0  0
 49 53  1  0  0  0
 49 64  1  0  0  0
 49120  1  0  0  0
 50 51  1  0  0  0
 50121  1  0  0  0
 50122  1  0  0  0
 51 52  1  0  0  0
 51123  1  0  0  0
 51124  1  0  0  0
 52125  1  0  0  0
 52126  1  0  0  0
 53 54  1  0  0  0
 54 55  2  0  0  0
 54127  1  0  0  0
 55 57  1  0  0  0
 55128  1  0  0  0
 56 69  2  0  0  0
 57 58  2  0  0  0
 57129  1  0  0  0
 58130  1  0  0  0
 59 60  1  0  0  0
 59 61  1  0  0  0
 59 62  1  0  0  0
 60131  1  0  0  0
 60132  1  0  0  0
 60133  1  0  0  0
 61134  1  0  0  0
 61135  1  0  0  0
 61136  1  0  0  0
 62137  1  0  0  0
 62138  1  0  0  0
 62139  1  0  0  0
 63 65  1  0  0  0
 63140  1  0  0  0
 63141  1  0  0  0
 63142  1  0  0  0
 64143  1  0  0  0
 65144  1  0  0  0
 68 79  1  0  0  0
 71 74  2  0  0  0
 71 75  1  0  0  0
 71145  1  0  0  0
 72 74  1  0  0  0
 72 76  2  0  0  0
 72146  1  0  0  0
 73 75  2  0  0  0
 73 76  1  0  0  0
 73147  1  0  0  0
 74 82  1  0  0  0
 75 83  1  0  0  0
 76 84  1  0  0  0
 77 78  1  0  0  0
 77 79  2  0  0  0
 77 80  1  0  0  0
 78 81  1  0  0  0
 78 85  2  0  0  0
 79148  1  0  0  0
 80 82  1  0  0  0
 80149  1  0  0  0
 80150  1  0  0  0
 81 82  1  0  0  0
 81151  1  0  0  0
 81152  1  0  0  0
 83153  1  0  0  0
 83154  1  0  0  0
 84155  1  0  0  0
M  ISO  4   1 100  68 101  79 101  84 100
M  END
> <chiral flag>
0

> <version>
0

> <s_m_source_file>
/data/baiqing/PycharmProjects/Reinvent-master-3.2/result/LINK_invent/BTK/process_docking_weight1_custom_product_contain_oxygen_bond_distance_aromatic_linkinvent_7_9_3/rearranged_h_0091.sdf

> <i_m_source_file_index>
91

> <r_mmod_Potential_Energy-OPLS-2005>
374.462982177734

> <r_mmod_Stretch_Energy-OPLS-2005>
142.078536987305

> <r_mmod_Bend_Energy-OPLS-2005>
211.432418823242

> <r_mmod_Torsional_Energy-OPLS-2005>
268.603576660156

> <r_mmod_Improper_Torsional_Energy-OPLS-2005>
12.2718229293823

> <r_mmod_Van_der_Waal_Energy-OPLS-2005>
132.781723022461

> <r_mmod_Electrostatic_Energy-OPLS-2005>
-243.992721557617

> <r_mmod_Solvation_Energy-OPLS-2005>
-260.031677246094

> <b_mmod_Minimization_Converged-OPLS-2005>
0

> <r_mmod_RMS_Derivative-OPLS-2005>
2.81253170967102

$$$$
91
                    3D
 Structure written by MMmdl.
152160  0  0  1  0            999 V2000
  -30.6887  -14.7151   20.4357 C   0  0  0  0  0  0
  -30.4232  -12.4308   19.5058 C   0  0  0  0  0  0
  -29.5169  -12.4820   18.2558 C   0  0  0  0  0  0
  -28.0442  -12.3308   18.6668 C   0  0  0  0  0  0
  -27.6560  -13.2343   19.8656 C   0  0  2  0  0  0
  -28.7027  -13.2117   21.0102 C   0  0  0  0  0  0
  -25.2649  -13.8250   20.5741 C   0  0  0  0  0  0
  -24.1901  -13.0485   20.9186 C   0  0  0  0  0  0
  -24.6475  -11.6973   20.8755 C   0  0  0  0  0  0
  -23.9114  -10.4350   21.0419 C   0  0  0  0  0  0
  -24.3688   -9.4265   21.9158 C   0  0  0  0  0  0
  -23.6361   -8.2307   22.0739 C   0  0  0  0  0  0
  -22.4332   -8.0330   21.3527 C   0  0  0  0  0  0
  -21.9954   -9.0313   20.4625 C   0  0  0  0  0  0
  -22.7290  -10.2189   20.3047 C   0  0  0  0  0  0
  -21.6894   -6.0770   22.5271 C   0  0  0  0  0  0
  -21.4033   -6.5658   23.8200 C   0  0  0  0  0  0
  -21.3669   -5.6800   24.9166 C   0  0  0  0  0  0
  -21.6049   -4.3059   24.7213 C   0  0  0  0  0  0
  -21.8832   -3.8159   23.4321 C   0  0  0  0  0  0
  -21.9217   -4.6983   22.3393 C   0  0  0  0  0  0
  -22.7917  -13.5274   21.1791 C   0  0  0  0  0  0
  -22.1669   -4.2186   21.0960 F   0  0  0  0  0  0
  -21.5642   -3.4512   25.7693 F   0  0  0  0  0  0
  -30.0128  -13.5162   20.4308 N   0  0  0  0  0  0
  -26.3060  -12.9436   20.3372 N   0  0  0  0  0  0
  -25.9414  -11.6601   20.5843 N   0  0  0  0  0  0
  -22.0551  -12.8262   22.0327 N   0  0  0  0  0  0
  -25.4384  -15.1980   20.4279 N   0  0  0  0  0  0
  -31.8425  -14.7731   20.0019 O   0  0  0  0  0  0
  -21.6701   -6.8910   21.4216 O   0  0  0  0  0  0
  -22.3621  -14.5583   20.6638 O   0  0  0  0  0  0
  -24.6324  -31.8542   23.2027 C   0  0  0  0  0  0
  -25.9121  -32.4770   23.8377 C   0  0  1  0  0  0
  -27.2267  -27.2523   20.1244 C   0  0  0  0  0  0
  -25.5912  -33.8576   24.2277 N   0  0  0  0  0  0
  -23.4326  -30.4771   21.5451 C   0  0  2  0  0  0
  -24.8814  -28.9261   20.1141 C   0  0  0  0  0  0
  -22.7526  -29.4586   22.4912 C   0  0  0  0  0  0
  -18.0288  -28.1368   22.8476 C   0  0  0  0  0  0
  -24.1484  -36.7260   23.2641 C   0  0  0  0  0  0
  -25.9832  -30.7608   21.3963 C   0  0  0  0  0  0
  -26.0536  -29.3883   20.7243 C   0  0  0  0  0  0
  -27.2298  -28.5626   20.7185 C   0  0  0  0  0  0
  -26.0255  -26.8695   19.4823 C   0  0  0  0  0  0
  -24.8708  -27.6721   19.4879 C   0  0  0  0  0  0
  -23.6558  -29.8196   20.1606 C   0  0  0  0  0  0
  -25.4125  -36.3077   24.0328 C   0  0  1  0  0  0
  -20.5910  -28.3682   23.1264 C   0  0  2  0  0  0
  -20.6766  -26.9385   22.5423 C   0  0  0  0  0  0
  -19.5755  -26.6356   21.5214 C   0  0  0  0  0  0
  -18.1927  -26.7922   22.1595 C   0  0  0  0  0  0
  -19.1539  -28.8843   23.2868 C   0  0  0  0  0  0
  -18.9465  -30.1449   23.8888 C   0  0  0  0  0  0
  -17.6460  -30.6577   24.0554 C   0  0  0  0  0  0
  -25.9067  -34.9448   23.5118 C   0  0  0  0  0  0
  -16.5359  -29.9066   23.6334 C   0  0  0  0  0  0
  -16.7271  -28.6479   23.0368 C   0  0  0  0  0  0
  -26.4458  -31.6629   25.0809 C   0  0  0  0  0  0
  -25.3642  -31.3804   26.1517 C   0  0  0  0  0  0
  -27.0317  -30.3026   24.6386 C   0  0  0  0  0  0
  -27.6023  -32.4380   25.7558 C   0  0  0  0  0  0
  -27.5598  -37.1793   24.8461 C   0  0  0  0  0  0
  -21.4236  -29.3029   22.3655 N   0  0  0  0  0  0
  -26.4303  -37.3781   23.9416 N   0  0  0  0  0  0
  -24.6993  -31.0507   22.1022 N   0  0  0  0  0  0
  -23.4212  -28.8100   23.3013 O   0  0  0  0  0  0
  -28.3145  -26.3417   20.1824 O   0  0  0  0  0  0
  -26.5649  -34.8908   22.4700 O   0  0  0  0  0  0
  -23.5458  -32.1378   23.7267 O   0  0  0  0  0  0
  -30.9772  -20.0933   22.3828 C   0  0  0  0  0  0
  -30.8361  -18.8210   21.8039 C   0  0  0  0  0  0
  -30.3555  -21.2347   21.8352 C   0  0  0  0  0  0
  -29.4399  -19.8294   20.0757 C   0  0  0  0  0  0
  -30.0630  -18.6296   20.6432 C   0  0  0  0  0  0
  -29.5780  -21.1694   20.6542 C   0  0  0  0  0  0
  -30.1304  -17.2164   20.0429 C   0  0  0  0  0  0
  -29.0954  -23.7663   20.4297 C   0  0  0  0  0  0
  -28.0384  -24.8731   19.9393 C   0  0  0  0  0  0
  -28.9263  -22.4126   20.1299 N   0  0  0  0  0  0
  -30.0155  -16.0105   20.7426 N   0  0  0  0  0  0
  -30.3829  -17.1864   18.7282 N   0  3  0  0  0  0
  -30.0752  -24.1563   21.0676 O   0  0  0  0  0  0
  -31.4701  -12.5098   19.2085 H   0  0  0  0  0  0
  -30.3298  -11.4632   19.9989 H   0  0  0  0  0  0
  -29.7901  -11.6817   17.5655 H   0  0  0  0  0  0
  -29.6611  -13.4193   17.7166 H   0  0  0  0  0  0
  -27.8990  -11.2863   18.9412 H   0  0  0  0  0  0
  -27.3911  -12.5242   17.8143 H   0  0  0  0  0  0
  -27.6518  -14.2491   19.4673 H   0  0  0  0  0  0
  -28.7363  -12.2496   21.5249 H   0  0  0  0  0  0
  -28.4491  -13.9554   21.7661 H   0  0  0  0  0  0
  -25.2846   -9.5764   22.4712 H   0  0  0  0  0  0
  -24.0093   -7.4717   22.7486 H   0  0  0  0  0  0
  -21.0856   -8.8838   19.8956 H   0  0  0  0  0  0
  -22.3725  -10.9746   19.6182 H   0  0  0  0  0  0
  -21.2011   -7.6168   23.9703 H   0  0  0  0  0  0
  -21.1465   -6.0525   25.9064 H   0  0  0  0  0  0
  -22.0594   -2.7625   23.2808 H   0  0  0  0  0  0
  -22.4187  -11.9937   22.4732 H   0  0  0  0  0  0
  -21.1160  -13.1266   22.2479 H   0  0  0  0  0  0
  -24.6791  -15.8574   20.5627 H   0  0  0  0  0  0
  -26.2953  -15.6413   20.1263 H   0  0  0  0  0  0
  -26.7206  -32.5394   23.1124 H   0  0  0  0  0  0
  -25.0031  -33.9729   25.0399 H   0  0  0  0  0  0
  -22.7291  -31.2989   21.3997 H   0  0  0  0  0  0
  -23.3783  -35.9562   23.3303 H   0  0  0  0  0  0
  -24.3573  -36.8881   22.2059 H   0  0  0  0  0  0
  -23.7193  -37.6434   23.6673 H   0  0  0  0  0  0
  -26.1557  -31.5300   20.6420 H   0  0  0  0  0  0
  -26.8470  -30.7819   22.0515 H   0  0  0  0  0  0
  -28.1230  -28.9134   21.2133 H   0  0  0  0  0  0
  -25.9388  -25.9194   18.9797 H   0  0  0  0  0  0
  -23.9677  -27.3115   19.0106 H   0  0  0  0  0  0
  -23.7963  -30.6017   19.4124 H   0  0  0  0  0  0
  -22.7741  -29.2597   19.8450 H   0  0  0  0  0  0
  -25.1313  -36.1932   25.0822 H   0  0  0  0  0  0
  -20.9981  -28.3244   24.1401 H   0  0  0  0  0  0
  -20.5617  -26.2296   23.3642 H   0  0  0  0  0  0
  -21.6645  -26.7373   22.1261 H   0  0  0  0  0  0
  -19.6916  -25.6259   21.1275 H   0  0  0  0  0  0
  -19.6729  -27.3149   20.6738 H   0  0  0  0  0  0
  -17.4226  -26.6704   21.3977 H   0  0  0  0  0  0
  -18.0284  -26.0057   22.8969 H   0  0  0  0  0  0
  -19.7946  -30.7260   24.2263 H   0  0  0  0  0  0
  -17.5021  -31.6262   24.5135 H   0  0  0  0  0  0
  -15.5362  -30.2965   23.7667 H   0  0  0  0  0  0
  -15.8673  -28.0788   22.7120 H   0  0  0  0  0  0
  -24.5865  -30.7101   25.7846 H   0  0  0  0  0  0
  -24.8773  -32.2974   26.4851 H   0  0  0  0  0  0
  -25.7931  -30.9063   27.0355 H   0  0  0  0  0  0
  -26.2948  -29.6791   24.1324 H   0  0  0  0  0  0
  -27.3833  -29.7305   25.4977 H   0  0  0  0  0  0
  -27.8897  -30.4273   23.9782 H   0  0  0  0  0  0
  -27.2657  -33.3697   26.2116 H   0  0  0  0  0  0
  -28.3826  -32.6918   25.0370 H   0  0  0  0  0  0
  -28.0709  -31.8528   26.5479 H   0  0  0  0  0  0
  -28.2599  -38.0093   24.7538 H   0  0  0  0  0  0
  -28.1096  -36.2644   24.6252 H   0  0  0  0  0  0
  -27.2326  -37.1390   25.8853 H   0  0  0  0  0  0
  -20.9412  -29.8766   21.6882 H   0  0  0  0  0  0
  -26.0179  -38.2856   24.1417 H   0  0  0  0  0  0
  -31.5964  -20.2067   23.2619 H   0  0  0  0  0  0
  -31.3742  -17.9885   22.2382 H   0  0  0  0  0  0
  -30.4940  -22.1655   22.3673 H   0  0  0  0  0  0
  -28.8636  -19.7217   19.1650 H   0  0  0  0  0  0
  -27.1115  -24.6176   20.4513 H   0  0  0  0  0  0
  -27.8511  -24.7149   18.8788 H   0  0  0  0  0  0
  -28.1975  -22.2418   19.4524 H   0  0  0  0  0  0
  -29.3104  -16.0675   21.4554 H   0  0  0  0  0  0
  -30.5204  -18.0485   18.2263 H   0  0  0  0  0  0
  -30.5503  -16.3219   18.2333 H   0  0  0  0  0  0
  1 25  1  0  0  0
  1 30  2  0  0  0
  1 81  1  0  0  0
  2  3  1  0  0  0
  2 25  1  0  0  0
  2 84  1  0  0  0
  2 85  1  0  0  0
  3  4  1  0  0  0
  3 86  1  0  0  0
  3 87  1  0  0  0
  4  5  1  0  0  0
  4 88  1  0  0  0
  4 89  1  0  0  0
  5  6  1  0  0  0
  5 26  1  0  0  0
  5 90  1  0  0  0
  6 25  1  0  0  0
  6 91  1  0  0  0
  6 92  1  0  0  0
  7  8  2  0  0  0
  7 26  1  0  0  0
  7 29  1  0  0  0
  8  9  1  0  0  0
  8 22  1  0  0  0
  9 10  1  0  0  0
  9 27  2  0  0  0
 10 11  2  0  0  0
 10 15  1  0  0  0
 11 12  1  0  0  0
 11 93  1  0  0  0
 12 13  2  0  0  0
 12 94  1  0  0  0
 13 14  1  0  0  0
 13 31  1  0  0  0
 14 15  2  0  0  0
 14 95  1  0  0  0
 15 96  1  0  0  0
 16 17  2  0  0  0
 16 21  1  0  0  0
 16 31  1  0  0  0
 17 18  1  0  0  0
 17 97  1  0  0  0
 18 19  2  0  0  0
 18 98  1  0  0  0
 19 20  1  0  0  0
 19 24  1  0  0  0
 20 21  2  0  0  0
 20 99  1  0  0  0
 21 23  1  0  0  0
 22 28  1  0  0  0
 22 32  2  0  0  0
 26 27  1  0  0  0
 28100  1  0  0  0
 28101  1  0  0  0
 29102  1  0  0  0
 29103  1  0  0  0
 33 34  1  0  0  0
 33 66  1  0  0  0
 33 70  2  0  0  0
 34 36  1  0  0  0
 34 59  1  0  0  0
 34104  1  0  0  0
 35 44  2  0  0  0
 35 45  1  0  0  0
 35 68  1  0  0  0
 36 56  1  0  0  0
 36105  1  0  0  0
 37 39  1  0  0  0
 37 47  1  0  0  0
 37 66  1  0  0  0
 37106  1  0  0  0
 38 43  2  0  0  0
 38 46  1  0  0  0
 38 47  1  0  0  0
 39 64  1  0  0  0
 39 67  2  0  0  0
 40 52  1  0  0  0
 40 53  2  0  0  0
 40 58  1  0  0  0
 41107  1  0  0  0
 41108  1  0  0  0
 41109  1  0  0  0
 41 48  1  0  0  0
 42 43  1  0  0  0
 42 66  1  0  0  0
 42110  1  0  0  0
 42111  1  0  0  0
 43 44  1  0  0  0
 44112  1  0  0  0
 45 46  2  0  0  0
 45113  1  0  0  0
 46114  1  0  0  0
 47115  1  0  0  0
 47116  1  0  0  0
 48 56  1  0  0  0
 48 65  1  0  0  0
 48117  1  0  0  0
 49 50  1  0  0  0
 49 53  1  0  0  0
 49 64  1  0  0  0
 49118  1  0  0  0
 50 51  1  0  0  0
 50119  1  0  0  0
 50120  1  0  0  0
 51 52  1  0  0  0
 51121  1  0  0  0
 51122  1  0  0  0
 52123  1  0  0  0
 52124  1  0  0  0
 53 54  1  0  0  0
 54 55  2  0  0  0
 54125  1  0  0  0
 55 57  1  0  0  0
 55126  1  0  0  0
 56 69  2  0  0  0
 57 58  2  0  0  0
 57127  1  0  0  0
 58128  1  0  0  0
 59 60  1  0  0  0
 59 61  1  0  0  0
 59 62  1  0  0  0
 60129  1  0  0  0
 60130  1  0  0  0
 60131  1  0  0  0
 61132  1  0  0  0
 61133  1  0  0  0
 61134  1  0  0  0
 62135  1  0  0  0
 62136  1  0  0  0
 62137  1  0  0  0
 63 65  1  0  0  0
 63138  1  0  0  0
 63139  1  0  0  0
 63140  1  0  0  0
 64141  1  0  0  0
 65142  1  0  0  0
 68 79  1  0  0  0
 71 72  2  0  0  0
 71 73  1  0  0  0
 71143  1  0  0  0
 72 75  1  0  0  0
 72144  1  0  0  0
 73 76  2  0  0  0
 73145  1  0  0  0
 74 75  2  0  0  0
 74 76  1  0  0  0
 74146  1  0  0  0
 75 77  1  0  0  0
 76 80  1  0  0  0
 77 81  1  0  0  0
 77 82  2  0  0  0
 78 79  1  0  0  0
 78 80  1  0  0  0
 78 83  2  0  0  0
 79147  1  0  0  0
 79148  1  0  0  0
 80149  1  0  0  0
 81150  1  0  0  0
 82151  1  0  0  0
 82152  1  0  0  0
M  CHG  1  82   1
M  ISO  4   1 100  68 101  79 101  81 100
M  END
> <chiral flag>
0

> <version>
0

> <s_m_source_file>
/data/baiqing/PycharmProjects/Reinvent-master-3.2/result/LINK_invent/BTK/process_docking_weight1_custom_product_contain_oxygen_bond_distance_aromatic_linkinvent_7_9_3/rearranged_h_0091.sdf

> <i_m_source_file_index>
92

> <r_mmod_Potential_Energy-OPLS-2005>
-73.8129806518555

> <r_mmod_Stretch_Energy-OPLS-2005>
132.522567749023

> <r_mmod_Bend_Energy-OPLS-2005>
168.196594238281

> <r_mmod_Torsional_Energy-OPLS-2005>
264.969421386719

> <r_mmod_Improper_Torsional_Energy-OPLS-2005>
5.75222682952881

> <r_mmod_Van_der_Waal_Energy-OPLS-2005>
147.499465942383

> <r_mmod_Electrostatic_Energy-OPLS-2005>
-393.243499755859

> <r_mmod_Solvation_Energy-OPLS-2005>
-485.521118164062

> <b_mmod_Minimization_Converged-OPLS-2005>
0

> <r_mmod_RMS_Derivative-OPLS-2005>
6.538987159729

$$$$
92
                    3D
 Structure written by MMmdl.
158167  0  0  1  0            999 V2000
  -30.6190  -14.6523   20.4712 C   0  0  0  0  0  0
  -30.4312  -12.3938   19.4518 C   0  0  0  0  0  0
  -29.5034  -12.5120   18.2228 C   0  0  0  0  0  0
  -28.0263  -12.3538   18.6340 C   0  0  0  0  0  0
  -27.6522  -13.2239   19.8637 C   0  0  2  0  0  0
  -28.6982  -13.0908   20.9939 C   0  0  0  0  0  0
  -25.2565  -13.8189   20.5719 C   0  0  0  0  0  0
  -24.1839  -13.0448   20.9201 C   0  0  0  0  0  0
  -24.6419  -11.6914   20.8739 C   0  0  0  0  0  0
  -23.9101  -10.4285   21.0396 C   0  0  0  0  0  0
  -24.3648   -9.4199   21.9175 C   0  0  0  0  0  0
  -23.6307   -8.2240   22.0752 C   0  0  0  0  0  0
  -22.4280   -8.0276   21.3548 C   0  0  0  0  0  0
  -21.9934   -9.0257   20.4647 C   0  0  0  0  0  0
  -22.7271  -10.2132   20.3049 C   0  0  0  0  0  0
  -21.6862   -6.0742   22.5279 C   0  0  0  0  0  0
  -21.4014   -6.5640   23.8217 C   0  0  0  0  0  0
  -21.3659   -5.6791   24.9174 C   0  0  0  0  0  0
  -21.6040   -4.3064   24.7215 C   0  0  0  0  0  0
  -21.8817   -3.8159   23.4343 C   0  0  0  0  0  0
  -21.9198   -4.6974   22.3403 C   0  0  0  0  0  0
  -22.7851  -13.5219   21.1858 C   0  0  0  0  0  0
  -22.1657   -4.2169   21.0977 F   0  0  0  0  0  0
  -21.5634   -3.4547   25.7721 F   0  0  0  0  0  0
  -30.0122  -13.4241   20.4248 N   0  0  0  0  0  0
  -26.2994  -12.9384   20.3341 N   0  0  0  0  0  0
  -25.9350  -11.6530   20.5767 N   0  0  0  0  0  0
  -22.0513  -12.8189   22.0408 N   0  0  0  0  0  0
  -25.4279  -15.1914   20.4166 N   0  0  0  0  0  0
  -31.7862  -14.7990   20.0953 O   0  0  0  0  0  0
  -21.6638   -6.8876   21.4232 O   0  0  0  0  0  0
  -22.3523  -14.5527   20.6713 O   0  0  0  0  0  0
  -24.6277  -31.8586   23.2026 C   0  0  0  0  0  0
  -25.9126  -32.4770   23.8366 C   0  0  1  0  0  0
  -27.2198  -27.3184   20.1174 C   0  0  0  0  0  0
  -25.5936  -33.8573   24.2287 N   0  0  0  0  0  0
  -23.4205  -30.4816   21.5459 C   0  0  2  0  0  0
  -24.8654  -28.9349   20.1130 C   0  0  0  0  0  0
  -22.7462  -29.4630   22.4960 C   0  0  0  0  0  0
  -18.0272  -28.1411   22.8497 C   0  0  0  0  0  0
  -24.1477  -36.7281   23.2640 C   0  0  0  0  0  0
  -25.9611  -30.7889   21.3722 C   0  0  0  0  0  0
  -26.0356  -29.4159   20.7151 C   0  0  0  0  0  0
  -27.2194  -28.6194   20.7065 C   0  0  0  0  0  0
  -26.0333  -26.8913   19.4867 C   0  0  0  0  0  0
  -24.8662  -27.6779   19.4894 C   0  0  0  0  0  0
  -23.6336  -29.8149   20.1623 C   0  0  0  0  0  0
  -25.4104  -36.3078   24.0322 C   0  0  1  0  0  0
  -20.5875  -28.3717   23.1291 C   0  0  2  0  0  0
  -20.6769  -26.9442   22.5418 C   0  0  0  0  0  0
  -19.5740  -26.6402   21.5228 C   0  0  0  0  0  0
  -18.1916  -26.7960   22.1632 C   0  0  0  0  0  0
  -19.1530  -28.8882   23.2887 C   0  0  0  0  0  0
  -18.9451  -30.1485   23.8903 C   0  0  0  0  0  0
  -17.6449  -30.6612   24.0579 C   0  0  0  0  0  0
  -25.9050  -34.9452   23.5111 C   0  0  0  0  0  0
  -16.5341  -29.9107   23.6349 C   0  0  0  0  0  0
  -16.7261  -28.6529   23.0368 C   0  0  0  0  0  0
  -26.4517  -31.6584   25.0744 C   0  0  0  0  0  0
  -25.3750  -31.3714   26.1467 C   0  0  0  0  0  0
  -27.0369  -30.3005   24.6217 C   0  0  0  0  0  0
  -27.6073  -32.4334   25.7502 C   0  0  0  0  0  0
  -27.5589  -37.1775   24.8450 C   0  0  0  0  0  0
  -21.4181  -29.3053   22.3672 N   0  0  0  0  0  0
  -26.4271  -37.3790   23.9440 N   0  0  0  0  0  0
  -24.6888  -31.0590   22.0979 N   0  0  0  0  0  0
  -23.4176  -28.8173   23.3055 O   0  0  0  0  0  0
  -28.3301  -26.4658   20.1289 O   0  0  0  0  0  0
  -26.5610  -34.8918   22.4669 O   0  0  0  0  0  0
  -23.5441  -32.1396   23.7350 O   0  0  0  0  0  0
  -30.2262  -19.1165   19.0200 C   0  0  0  0  0  0
  -29.2429  -18.0900   21.3858 C   0  0  0  0  0  0
  -29.6225  -20.0803   19.9005 C   0  0  0  0  0  0
  -30.3627  -17.7223   19.3042 C   0  0  0  0  0  0
  -29.8611  -17.1569   20.5069 C   0  0  0  0  0  0
  -29.1351  -19.4918   21.1111 C   0  0  0  0  0  0
  -28.8977  -22.5918   20.2535 C   0  0  0  0  0  0
  -28.8241  -23.9035   19.8253 C   0  0  0  0  0  0
  -30.4889  -23.3354   18.0485 C   0  0  0  0  0  0
  -29.3995  -24.3122   18.4780 C   0  0  0  0  0  0
  -30.2205  -21.8422   18.2937 C   0  0  0  0  0  0
  -28.1185  -25.0722   20.5958 C   0  0  0  0  0  0
  -29.5427  -21.5072   19.5673 N   0  0  0  0  0  0
  -30.9751  -16.9068   18.3544 N   0  0  0  0  0  0
  -29.8212  -15.7145   20.8153 N   0  0  0  0  0  0
  -31.5240  -23.7280   17.5020 O   0  0  0  0  0  0
  -28.5420  -20.2603   22.0560 F   0  0  0  0  0  0
  -31.4752  -12.5050   19.1533 H   0  0  0  0  0  0
  -30.3535  -11.4007   19.8977 H   0  0  0  0  0  0
  -29.7645  -11.7604   17.4766 H   0  0  0  0  0  0
  -29.6510  -13.4805   17.7425 H   0  0  0  0  0  0
  -27.8595  -11.2998   18.8585 H   0  0  0  0  0  0
  -27.3745  -12.5917   17.7933 H   0  0  0  0  0  0
  -27.6639  -14.2577   19.5179 H   0  0  0  0  0  0
  -28.7091  -12.0772   21.3960 H   0  0  0  0  0  0
  -28.4488  -13.7430   21.8328 H   0  0  0  0  0  0
  -25.2791   -9.5664   22.4756 H   0  0  0  0  0  0
  -24.0023   -7.4620   22.7455 H   0  0  0  0  0  0
  -21.0885   -8.8773   19.8931 H   0  0  0  0  0  0
  -22.3740  -10.9678   19.6153 H   0  0  0  0  0  0
  -21.1992   -7.6144   23.9736 H   0  0  0  0  0  0
  -21.1485   -6.0513   25.9081 H   0  0  0  0  0  0
  -22.0600   -2.7622   23.2847 H   0  0  0  0  0  0
  -22.4154  -11.9854   22.4787 H   0  0  0  0  0  0
  -21.1121  -13.1187   22.2610 H   0  0  0  0  0  0
  -24.6644  -15.8491   20.5314 H   0  0  0  0  0  0
  -26.2808  -15.6321   20.0980 H   0  0  0  0  0  0
  -26.7205  -32.5423   23.1119 H   0  0  0  0  0  0
  -25.0117  -33.9721   25.0457 H   0  0  0  0  0  0
  -22.7172  -31.3038   21.4006 H   0  0  0  0  0  0
  -23.3755  -35.9590   23.3253 H   0  0  0  0  0  0
  -24.3593  -36.8951   22.2065 H   0  0  0  0  0  0
  -23.7195  -37.6450   23.6694 H   0  0  0  0  0  0
  -26.0928  -31.5521   20.6035 H   0  0  0  0  0  0
  -26.8407  -30.8384   22.0031 H   0  0  0  0  0  0
  -28.1201  -28.9822   21.1817 H   0  0  0  0  0  0
  -26.0001  -25.9317   18.9904 H   0  0  0  0  0  0
  -23.9708  -27.3053   19.0120 H   0  0  0  0  0  0
  -23.7538  -30.5888   19.4043 H   0  0  0  0  0  0
  -22.7529  -29.2457   19.8607 H   0  0  0  0  0  0
  -25.1274  -36.1920   25.0811 H   0  0  0  0  0  0
  -20.9967  -28.3305   24.1414 H   0  0  0  0  0  0
  -20.5722  -26.2319   23.3618 H   0  0  0  0  0  0
  -21.6637  -26.7497   22.1186 H   0  0  0  0  0  0
  -19.6906  -25.6315   21.1263 H   0  0  0  0  0  0
  -19.6680  -27.3216   20.6758 H   0  0  0  0  0  0
  -17.4190  -26.6725   21.4025 H   0  0  0  0  0  0
  -18.0291  -26.0101   22.9024 H   0  0  0  0  0  0
  -19.7921  -30.7309   24.2271 H   0  0  0  0  0  0
  -17.4995  -31.6290   24.5182 H   0  0  0  0  0  0
  -15.5349  -30.3011   23.7677 H   0  0  0  0  0  0
  -15.8658  -28.0850   22.7093 H   0  0  0  0  0  0
  -24.5916  -30.7076   25.7790 H   0  0  0  0  0  0
  -24.8951  -32.2871   26.4924 H   0  0  0  0  0  0
  -25.8071  -30.8866   27.0228 H   0  0  0  0  0  0
  -26.2952  -29.6729   24.1262 H   0  0  0  0  0  0
  -27.4078  -29.7297   25.4742 H   0  0  0  0  0  0
  -27.8810  -30.4285   23.9437 H   0  0  0  0  0  0
  -27.2691  -33.3644   26.2056 H   0  0  0  0  0  0
  -28.3881  -32.6879   25.0327 H   0  0  0  0  0  0
  -28.0738  -31.8479   26.5431 H   0  0  0  0  0  0
  -28.2530  -38.0152   24.7620 H   0  0  0  0  0  0
  -28.1168  -36.2692   24.6117 H   0  0  0  0  0  0
  -27.2328  -37.1213   25.8853 H   0  0  0  0  0  0
  -20.9373  -29.8746   21.6842 H   0  0  0  0  0  0
  -26.0140  -38.2832   24.1540 H   0  0  0  0  0  0
  -30.6059  -19.4195   18.0576 H   0  0  0  0  0  0
  -28.8312  -17.7338   22.3178 H   0  0  0  0  0  0
  -28.4518  -22.3275   21.2002 H   0  0  0  0  0  0
  -29.8411  -25.3056   18.5535 H   0  0  0  0  0  0
  -28.6094  -24.3562   17.7288 H   0  0  0  0  0  0
  -31.2013  -21.3702   18.2474 H   0  0  0  0  0  0
  -29.6297  -21.4629   17.4594 H   0  0  0  0  0  0
  -28.4632  -25.0289   21.6286 H   0  0  0  0  0  0
  -27.0609  -24.8188   20.6489 H   0  0  0  0  0  0
  -31.5279  -17.3574   17.6315 H   0  0  0  0  0  0
  -31.4663  -16.1044   18.7553 H   0  0  0  0  0  0
  -28.9673  -15.4162   21.2600 H   0  0  0  0  0  0
  1 25  1  0  0  0
  1 30  2  0  0  0
  1 85  1  0  0  0
  2  3  1  0  0  0
  2 25  1  0  0  0
  2 88  1  0  0  0
  2 89  1  0  0  0
  3  4  1  0  0  0
  3 90  1  0  0  0
  3 91  1  0  0  0
  4  5  1  0  0  0
  4 92  1  0  0  0
  4 93  1  0  0  0
  5  6  1  0  0  0
  5 26  1  0  0  0
  5 94  1  0  0  0
  6 25  1  0  0  0
  6 95  1  0  0  0
  6 96  1  0  0  0
  7  8  2  0  0  0
  7 26  1  0  0  0
  7 29  1  0  0  0
  8  9  1  0  0  0
  8 22  1  0  0  0
  9 10  1  0  0  0
  9 27  2  0  0  0
 10 11  2  0  0  0
 10 15  1  0  0  0
 11 12  1  0  0  0
 11 97  1  0  0  0
 12 13  2  0  0  0
 12 98  1  0  0  0
 13 14  1  0  0  0
 13 31  1  0  0  0
 14 15  2  0  0  0
 14 99  1  0  0  0
 15100  1  0  0  0
 16 17  2  0  0  0
 16 21  1  0  0  0
 16 31  1  0  0  0
 17 18  1  0  0  0
 17101  1  0  0  0
 18 19  2  0  0  0
 18102  1  0  0  0
 19 20  1  0  0  0
 19 24  1  0  0  0
 20 21  2  0  0  0
 20103  1  0  0  0
 21 23  1  0  0  0
 22 28  1  0  0  0
 22 32  2  0  0  0
 26 27  1  0  0  0
 28104  1  0  0  0
 28105  1  0  0  0
 29106  1  0  0  0
 29107  1  0  0  0
 33 34  1  0  0  0
 33 66  1  0  0  0
 33 70  2  0  0  0
 34 36  1  0  0  0
 34 59  1  0  0  0
 34108  1  0  0  0
 35 44  2  0  0  0
 35 45  1  0  0  0
 35 68  1  0  0  0
 36 56  1  0  0  0
 36109  1  0  0  0
 37 39  1  0  0  0
 37 47  1  0  0  0
 37 66  1  0  0  0
 37110  1  0  0  0
 38 43  2  0  0  0
 38 46  1  0  0  0
 38 47  1  0  0  0
 39 64  1  0  0  0
 39 67  2  0  0  0
 40 52  1  0  0  0
 40 53  2  0  0  0
 40 58  1  0  0  0
 41111  1  0  0  0
 41112  1  0  0  0
 41113  1  0  0  0
 41 48  1  0  0  0
 42 43  1  0  0  0
 42 66  1  0  0  0
 42114  1  0  0  0
 42115  1  0  0  0
 43 44  1  0  0  0
 44116  1  0  0  0
 45 46  2  0  0  0
 45117  1  0  0  0
 46118  1  0  0  0
 47119  1  0  0  0
 47120  1  0  0  0
 48 56  1  0  0  0
 48 65  1  0  0  0
 48121  1  0  0  0
 49 50  1  0  0  0
 49 53  1  0  0  0
 49 64  1  0  0  0
 49122  1  0  0  0
 50 51  1  0  0  0
 50123  1  0  0  0
 50124  1  0  0  0
 51 52  1  0  0  0
 51125  1  0  0  0
 51126  1  0  0  0
 52127  1  0  0  0
 52128  1  0  0  0
 53 54  1  0  0  0
 54 55  2  0  0  0
 54129  1  0  0  0
 55 57  1  0  0  0
 55130  1  0  0  0
 56 69  2  0  0  0
 57 58  2  0  0  0
 57131  1  0  0  0
 58132  1  0  0  0
 59 60  1  0  0  0
 59 61  1  0  0  0
 59 62  1  0  0  0
 60133  1  0  0  0
 60134  1  0  0  0
 60135  1  0  0  0
 61136  1  0  0  0
 61137  1  0  0  0
 61138  1  0  0  0
 62139  1  0  0  0
 62140  1  0  0  0
 62141  1  0  0  0
 63 65  1  0  0  0
 63142  1  0  0  0
 63143  1  0  0  0
 63144  1  0  0  0
 64145  1  0  0  0
 65146  1  0  0  0
 68 82  1  0  0  0
 71 73  2  0  0  0
 71 74  1  0  0  0
 71147  1  0  0  0
 72 75  1  0  0  0
 72 76  2  0  0  0
 72148  1  0  0  0
 73 76  1  0  0  0
 73 83  1  0  0  0
 74 75  2  0  0  0
 74 84  1  0  0  0
 75 85  1  0  0  0
 76 87  1  0  0  0
 77 78  2  0  0  0
 77 83  1  0  0  0
 77149  1  0  0  0
 78 80  1  0  0  0
 78 82  1  0  0  0
 79 80  1  0  0  0
 79 81  1  0  0  0
 79 86  2  0  0  0
 80150  1  0  0  0
 80151  1  0  0  0
 81 83  1  0  0  0
 81152  1  0  0  0
 81153  1  0  0  0
 82154  1  0  0  0
 82155  1  0  0  0
 84156  1  0  0  0
 84157  1  0  0  0
 85158  1  0  0  0
M  ISO  4   1 100  68 101  82 101  85 100
M  END
> <chiral flag>
0

> <version>
0

> <s_m_source_file>
/data/baiqing/PycharmProjects/Reinvent-master-3.2/result/LINK_invent/BTK/process_docking_weight1_custom_product_contain_oxygen_bond_distance_aromatic_linkinvent_7_9_3/rearranged_h_0091.sdf

> <i_m_source_file_index>
93

> <r_mmod_Potential_Energy-OPLS-2005>
71.3554077148438

> <r_mmod_Stretch_Energy-OPLS-2005>
93.5352630615234

> <r_mmod_Bend_Energy-OPLS-2005>
143.378524780273

> <r_mmod_Torsional_Energy-OPLS-2005>
246.827651977539

> <r_mmod_Improper_Torsional_Energy-OPLS-2005>
8.63133239746094

> <r_mmod_Van_der_Waal_Energy-OPLS-2005>
176.558822631836

> <r_mmod_Electrostatic_Energy-OPLS-2005>
-424.821319580078

> <r_mmod_Solvation_Energy-OPLS-2005>
-223.381439208984

> <b_mmod_Minimization_Converged-OPLS-2005>
0

> <r_mmod_RMS_Derivative-OPLS-2005>
2.68336296081543

$$$$
93
                    3D
 Structure written by MMmdl.
159167  0  0  1  0            999 V2000
  -31.0793  -14.1219   20.8143 C   0  0  0  0  0  0
  -30.5823  -12.1720   19.3353 C   0  0  0  0  0  0
  -29.6544  -12.4141   18.1142 C   0  0  0  0  0  0
  -28.1726  -12.4493   18.4942 C   0  0  0  0  0  0
  -28.0745  -13.4465   19.6615 C   0  0  2  0  0  0
  -28.9340  -13.0501   20.8149 C   0  0  0  0  0  0
  -25.9486  -14.4537   20.3335 C   0  0  0  0  0  0
  -24.2947  -13.8406   21.0646 C   0  0  0  0  0  0
  -24.1972  -12.5321   21.4878 C   0  0  0  0  0  0
  -23.7531  -10.9485   21.2245 C   0  0  0  0  0  0
  -24.2686   -9.8300   21.9975 C   0  0  0  0  0  0
  -23.6798   -8.5162   22.0667 C   0  0  0  0  0  0
  -22.5072   -8.2038   21.3385 C   0  0  0  0  0  0
  -22.0761   -9.2149   20.4449 C   0  0  0  0  0  0
  -22.6839  -10.5140   20.3767 C   0  0  0  0  0  0
  -21.7640   -6.1517   22.4995 C   0  0  0  0  0  0
  -21.4631   -6.6183   23.8018 C   0  0  0  0  0  0
  -21.3873   -5.7203   24.8902 C   0  0  0  0  0  0
  -21.5989   -4.3428   24.6937 C   0  0  0  0  0  0
  -21.8701   -3.8625   23.4028 C   0  0  0  0  0  0
  -21.9421   -4.7562   22.3151 C   0  0  0  0  0  0
  -22.6680  -14.1663   21.2350 C   0  0  0  0  0  0
  -22.1763   -4.2600   21.0770 F   0  0  0  0  0  0
  -21.5468   -3.4838   25.7422 F   0  0  0  0  0  0
  -30.3102  -13.0680   20.4724 N   0  0  0  0  0  0
  -26.7120  -13.9320   20.1690 N   0  0  0  0  0  0
  -24.9949  -13.6844   20.8828 N   0  0  0  0  0  0
  -21.9004  -13.3863   22.0407 N   0  0  0  0  0  0
  -26.7221  -15.5235   19.6860 N   0  0  0  0  0  0
  -31.8082  -14.6988   20.0084 O   0  0  0  0  0  0
  -21.8052   -6.9950   21.3954 O   0  0  0  0  0  0
  -22.0942  -15.0168   20.5881 O   0  0  0  0  0  0
  -24.7298  -31.7300   23.1226 C   0  0  0  0  0  0
  -25.9694  -32.4082   23.7861 C   0  0  1  0  0  0
  -26.4738  -25.8601   20.3936 C   0  0  0  0  0  0
  -25.6087  -33.7982   24.1630 N   0  0  0  0  0  0
  -23.5416  -30.3578   21.4936 C   0  0  2  0  0  0
  -24.8753  -28.5730   20.0901 C   0  0  0  0  0  0
  -22.7799  -29.4028   22.4518 C   0  0  0  0  0  0
  -18.0332  -28.1438   22.8423 C   0  0  0  0  0  0
  -24.1485  -36.7007   23.2653 C   0  0  0  0  0  0
  -26.1149  -30.1446   21.5186 C   0  0  0  0  0  0
  -26.0216  -28.6466   20.8739 C   0  0  0  0  0  0
  -26.8194  -27.3180   20.9878 C   0  0  0  0  0  0
  -25.5334  -26.2324   19.4036 C   0  0  0  0  0  0
  -24.7432  -27.4241   19.3006 C   0  0  0  0  0  0
  -23.7968  -29.6805   20.1126 C   0  0  0  0  0  0
  -25.4156  -36.2697   24.0231 C   0  0  1  0  0  0
  -20.5965  -28.3799   23.1056 C   0  0  2  0  0  0
  -20.6770  -26.9417   22.5409 C   0  0  0  0  0  0
  -19.5756  -26.6333   21.5215 C   0  0  0  0  0  0
  -18.1937  -26.7959   22.1602 C   0  0  0  0  0  0
  -19.1604  -28.8955   23.2714 C   0  0  0  0  0  0
  -18.9515  -30.1530   23.8775 C   0  0  0  0  0  0
  -17.6504  -30.6611   24.0539 C   0  0  0  0  0  0
  -25.9209  -34.9104   23.4811 C   0  0  0  0  0  0
  -16.5388  -29.9081   23.6369 C   0  0  0  0  0  0
  -16.7311  -28.6510   23.0366 C   0  0  0  0  0  0
  -26.4685  -31.6472   25.0778 C   0  0  0  0  0  0
  -25.3569  -31.4017   26.1267 C   0  0  0  0  0  0
  -27.0733  -30.2745   24.7255 C   0  0  0  0  0  0
  -27.6032  -32.4529   25.7556 C   0  0  0  0  0  0
  -27.5563  -37.1623   24.8430 C   0  0  0  0  0  0
  -21.4427  -29.2956   22.3300 N   0  0  0  0  0  0
  -26.4209  -37.3549   23.9462 N   0  0  0  0  0  0
  -24.8378  -30.8052   22.0901 N   0  0  0  0  0  0
  -23.4087  -28.7639   23.2984 O   0  0  0  0  0  0
  -26.7597  -24.1636   20.5920 O   0  0  0  0  0  0
  -26.5912  -34.8788   22.4470 O   0  0  0  0  0  0
  -23.6270  -32.0819   23.5843 O   0  0  0  0  0  0
  -24.9932  -12.9760   18.7942 C   0  0  0  0  0  0
  -26.1343  -11.8390   20.4102 C   0  0  0  0  0  0
  -24.2966  -15.1053   19.0504 C   0  0  0  0  0  0
  -25.8635  -15.2063   22.4347 C   0  0  0  0  0  0
  -26.5491  -13.1028   22.3090 C   0  0  0  0  0  0
  -24.8408  -16.3605   20.8656 C   0  0  0  0  0  0
  -25.7537  -19.8868   20.8591 C   0  0  0  0  0  0
  -27.3819  -12.6198   23.4261 C   0  0  0  0  0  0
  -30.8485  -14.0044   23.4280 C   0  0  0  0  0  0
  -29.8019  -12.9317   23.7289 C   0  0  0  0  0  0
  -25.9315  -22.2035   20.3752 C   0  0  0  0  0  0
  -25.0906  -18.3072   20.6344 N   0  0  0  0  0  0
  -28.4417  -13.3934   23.7473 N   0  0  0  0  0  0
  -31.3474  -14.4150   22.2126 N   0  0  0  0  0  0
  -27.1982  -11.4107   23.9591 N   0  3  0  0  0  0
  -31.3016  -14.6037   24.5360 N   0  3  0  0  0  0
  -30.1341  -11.7491   23.8579 O   0  0  0  0  0  0
  -31.6231  -12.2605   19.0222 H   0  0  0  0  0  0
  -30.4744  -11.1382   19.6720 H   0  0  0  0  0  0
  -29.8256  -11.6249   17.3808 H   0  0  0  0  0  0
  -29.9382  -13.3466   17.6257 H   0  0  0  0  0  0
  -27.8784  -11.4287   18.7267 H   0  0  0  0  0  0
  -27.5799  -12.7720   17.6388 H   0  0  0  0  0  0
  -28.6073  -14.3037   19.2423 H   0  0  0  0  0  0
  -28.6876  -12.0719   21.2234 H   0  0  0  0  0  0
  -28.7815  -13.8944   21.4721 H   0  0  0  0  0  0
  -25.1045  -10.0189   22.6511 H   0  0  0  0  0  0
  -24.1115   -7.7763   22.7260 H   0  0  0  0  0  0
  -21.2201   -9.0104   19.8154 H   0  0  0  0  0  0
  -22.2295  -11.2478   19.7251 H   0  0  0  0  0  0
  -21.2966   -7.6726   23.9675 H   0  0  0  0  0  0
  -21.1717   -6.0929   25.8813 H   0  0  0  0  0  0
  -22.0200   -2.8055   23.2402 H   0  0  0  0  0  0
  -22.2877  -12.6649   22.6281 H   0  0  0  0  0  0
  -20.9094  -13.5687   22.0909 H   0  0  0  0  0  0
  -26.3338  -16.4605   19.6493 H   0  0  0  0  0  0
  -27.5949  -15.4391   19.1902 H   0  0  0  0  0  0
  -26.7786  -32.4287   23.0542 H   0  0  0  0  0  0
  -25.0037  -33.8938   24.9662 H   0  0  0  0  0  0
  -22.9023  -31.2261   21.3126 H   0  0  0  0  0  0
  -23.3837  -35.9235   23.3064 H   0  0  0  0  0  0
  -24.3559  -36.8972   22.2125 H   0  0  0  0  0  0
  -23.7117  -37.6034   23.6938 H   0  0  0  0  0  0
  -26.4501  -30.7976   20.7124 H   0  0  0  0  0  0
  -26.9438  -30.1537   22.2096 H   0  0  0  0  0  0
  -27.6295  -27.3437   21.7036 H   0  0  0  0  0  0
  -25.2098  -25.4267   18.7599 H   0  0  0  0  0  0
  -23.9194  -27.3957   18.5988 H   0  0  0  0  0  0
  -24.1054  -30.4436   19.3982 H   0  0  0  0  0  0
  -22.8595  -29.2825   19.7198 H   0  0  0  0  0  0
  -25.1360  -36.1358   25.0707 H   0  0  0  0  0  0
  -21.0039  -28.3484   24.1190 H   0  0  0  0  0  0
  -20.5612  -26.2429   23.3705 H   0  0  0  0  0  0
  -21.6624  -26.7304   22.1234 H   0  0  0  0  0  0
  -19.6890  -25.6205   21.1328 H   0  0  0  0  0  0
  -19.6727  -27.3078   20.6693 H   0  0  0  0  0  0
  -17.4208  -26.6709   21.3998 H   0  0  0  0  0  0
  -18.0300  -26.0136   22.9031 H   0  0  0  0  0  0
  -19.7995  -30.7369   24.2087 H   0  0  0  0  0  0
  -17.5057  -31.6281   24.5169 H   0  0  0  0  0  0
  -15.5385  -30.2941   23.7778 H   0  0  0  0  0  0
  -15.8705  -28.0794   22.7139 H   0  0  0  0  0  0
  -24.5769  -30.7368   25.7527 H   0  0  0  0  0  0
  -24.8755  -32.3322   26.4288 H   0  0  0  0  0  0
  -25.7547  -30.9405   27.0312 H   0  0  0  0  0  0
  -26.3463  -29.6004   24.2718 H   0  0  0  0  0  0
  -27.4250  -29.7670   25.6249 H   0  0  0  0  0  0
  -27.9445  -30.3686   24.0771 H   0  0  0  0  0  0
  -27.2505  -33.3981   26.1679 H   0  0  0  0  0  0
  -28.4014  -32.6859   25.0503 H   0  0  0  0  0  0
  -28.0513  -31.9021   26.5827 H   0  0  0  0  0  0
  -28.2374  -38.0114   24.7705 H   0  0  0  0  0  0
  -28.1263  -36.2658   24.5955 H   0  0  0  0  0  0
  -27.2329  -37.0864   25.8825 H   0  0  0  0  0  0
  -20.9796  -29.8642   21.6340 H   0  0  0  0  0  0
  -25.9973  -38.2535   24.1627 H   0  0  0  0  0  0
  -24.7741  -12.4728   17.8621 H   0  0  0  0  0  0
  -26.4760  -10.8203   20.3003 H   0  0  0  0  0  0
  -23.8508  -15.5920   18.1949 H   0  0  0  0  0  0
  -26.2170  -15.7673   23.2863 H   0  0  0  0  0  0
  -26.5218  -19.8175   21.6330 H   0  0  0  0  0  0
  -24.8796  -22.4767   20.3010 H   0  0  0  0  0  0
  -26.2375  -22.1048   19.3321 H   0  0  0  0  0  0
  -28.2369  -14.3792   23.6634 H   0  0  0  0  0  0
  -32.0969  -15.0674   22.3573 H   0  0  0  0  0  0
  -26.3751  -10.8706   23.7521 H   0  0  0  0  0  0
  -27.8589  -11.0515   24.6321 H   0  0  0  0  0  0
  -30.9161  -14.3184   25.4191 H   0  0  0  0  0  0
  -31.9889  -15.3279   24.5529 H   0  0  0  0  0  0
  1 25  1  0  0  0
  1 30  2  0  0  0
  1 84  1  0  0  0
  2  3  1  0  0  0
  2 25  1  0  0  0
  2 88  1  0  0  0
  2 89  1  0  0  0
  3  4  1  0  0  0
  3 90  1  0  0  0
  3 91  1  0  0  0
  4  5  1  0  0  0
  4 92  1  0  0  0
  4 93  1  0  0  0
  5  6  1  0  0  0
  5 26  1  0  0  0
  5 94  1  0  0  0
  6 25  1  0  0  0
  6 95  1  0  0  0
  6 96  1  0  0  0
  7  8  2  0  0  0
  7 26  1  0  0  0
  7 29  1  0  0  0
  8  9  1  0  0  0
  8 22  1  0  0  0
  9 10  1  0  0  0
  9 27  2  0  0  0
 10 11  2  0  0  0
 10 15  1  0  0  0
 11 12  1  0  0  0
 11 97  1  0  0  0
 12 13  2  0  0  0
 12 98  1  0  0  0
 13 14  1  0  0  0
 13 31  1  0  0  0
 14 15  2  0  0  0
 14 99  1  0  0  0
 15100  1  0  0  0
 16 17  2  0  0  0
 16 21  1  0  0  0
 16 31  1  0  0  0
 17 18  1  0  0  0
 17101  1  0  0  0
 18 19  2  0  0  0
 18102  1  0  0  0
 19 20  1  0  0  0
 19 24  1  0  0  0
 20 21  2  0  0  0
 20103  1  0  0  0
 21 23  1  0  0  0
 22 28  1  0  0  0
 22 32  2  0  0  0
 26 27  1  0  0  0
 28104  1  0  0  0
 28105  1  0  0  0
 29106  1  0  0  0
 29107  1  0  0  0
 33 34  1  0  0  0
 33 66  1  0  0  0
 33 70  2  0  0  0
 34 36  1  0  0  0
 34 59  1  0  0  0
 34108  1  0  0  0
 35 44  2  0  0  0
 35 45  1  0  0  0
 35 68  1  0  0  0
 36 56  1  0  0  0
 36109  1  0  0  0
 37 39  1  0  0  0
 37 47  1  0  0  0
 37 66  1  0  0  0
 37110  1  0  0  0
 38 43  2  0  0  0
 38 46  1  0  0  0
 38 47  1  0  0  0
 39 64  1  0  0  0
 39 67  2  0  0  0
 40 52  1  0  0  0
 40 53  2  0  0  0
 40 58  1  0  0  0
 41111  1  0  0  0
 41112  1  0  0  0
 41113  1  0  0  0
 41 48  1  0  0  0
 42 43  1  0  0  0
 42 66  1  0  0  0
 42114  1  0  0  0
 42115  1  0  0  0
 43 44  1  0  0  0
 44116  1  0  0  0
 45 46  2  0  0  0
 45117  1  0  0  0
 46118  1  0  0  0
 47119  1  0  0  0
 47120  1  0  0  0
 48 56  1  0  0  0
 48 65  1  0  0  0
 48121  1  0  0  0
 49 50  1  0  0  0
 49 53  1  0  0  0
 49 64  1  0  0  0
 49122  1  0  0  0
 50 51  1  0  0  0
 50123  1  0  0  0
 50124  1  0  0  0
 51 52  1  0  0  0
 51125  1  0  0  0
 51126  1  0  0  0
 52127  1  0  0  0
 52128  1  0  0  0
 53 54  1  0  0  0
 54 55  2  0  0  0
 54129  1  0  0  0
 55 57  1  0  0  0
 55130  1  0  0  0
 56 69  2  0  0  0
 57 58  2  0  0  0
 57131  1  0  0  0
 58132  1  0  0  0
 59 60  1  0  0  0
 59 61  1  0  0  0
 59 62  1  0  0  0
 60133  1  0  0  0
 60134  1  0  0  0
 60135  1  0  0  0
 61136  1  0  0  0
 61137  1  0  0  0
 61138  1  0  0  0
 62139  1  0  0  0
 62140  1  0  0  0
 62141  1  0  0  0
 63 65  1  0  0  0
 63142  1  0  0  0
 63143  1  0  0  0
 63144  1  0  0  0
 64145  1  0  0  0
 65146  1  0  0  0
 68 81  1  0  0  0
 71 72  2  0  0  0
 71 73  1  0  0  0
 71147  1  0  0  0
 72 75  1  0  0  0
 72148  1  0  0  0
 73 76  2  0  0  0
 73149  1  0  0  0
 74 75  2  0  0  0
 74 76  1  0  0  0
 74150  1  0  0  0
 75 78  1  0  0  0
 76 82  1  0  0  0
 77 81  1  0  0  0
 77 82  2  0  0  0
 77151  1  0  0  0
 78 83  1  0  0  0
 78 85  2  0  0  0
 79 80  1  0  0  0
 79 84  1  0  0  0
 79 86  2  0  0  0
 80 83  1  0  0  0
 80 87  2  0  0  0
 81152  1  0  0  0
 81153  1  0  0  0
 83154  1  0  0  0
 84155  1  0  0  0
 85156  1  0  0  0
 85157  1  0  0  0
 86158  1  0  0  0
 86159  1  0  0  0
M  CHG  2  85   1  86   1
M  ISO  4   1 100  68 101  81 101  84 100
M  END
> <chiral flag>
0

> <version>
0

> <s_m_source_file>
/data/baiqing/PycharmProjects/Reinvent-master-3.2/result/LINK_invent/BTK/process_docking_weight1_custom_product_contain_oxygen_bond_distance_aromatic_linkinvent_7_9_3/rearranged_h_0091.sdf

> <i_m_source_file_index>
94

> <r_mmod_Potential_Energy-OPLS-2005>
22730.31640625

> <r_mmod_Stretch_Energy-OPLS-2005>
13458.4853515625

> <r_mmod_Bend_Energy-OPLS-2005>
2697.11889648438

> <r_mmod_Torsional_Energy-OPLS-2005>
521.29443359375

> <r_mmod_Improper_Torsional_Energy-OPLS-2005>
47.3410758972168

> <r_mmod_Van_der_Waal_Energy-OPLS-2005>
4182.83349609375

> <r_mmod_Electrostatic_Energy-OPLS-2005>
-341.613037109375

> <r_mmod_Solvation_Energy-OPLS-2005>
-1086.21789550781

> <b_mmod_Minimization_Converged-OPLS-2005>
0

> <r_mmod_RMS_Derivative-OPLS-2005>
7.96529006958008

$$$$
94
                    3D
 Structure written by MMmdl.
158167  0  0  1  0            999 V2000
  -30.6259  -14.7669   20.4468 C   0  0  0  0  0  0
  -30.4280  -12.4676   19.4791 C   0  0  0  0  0  0
  -29.5102  -12.5082   18.2385 C   0  0  0  0  0  0
  -28.0369  -12.3319   18.6529 C   0  0  0  0  0  0
  -27.6397  -13.2371   19.8502 C   0  0  2  0  0  0
  -28.6854  -13.1910   20.9852 C   0  0  0  0  0  0
  -25.2502  -13.8205   20.5694 C   0  0  0  0  0  0
  -24.1805  -13.0445   20.9218 C   0  0  0  0  0  0
  -24.6397  -11.6923   20.8745 C   0  0  0  0  0  0
  -23.9075  -10.4299   21.0410 C   0  0  0  0  0  0
  -24.3624   -9.4206   21.9184 C   0  0  0  0  0  0
  -23.6296   -8.2240   22.0753 C   0  0  0  0  0  0
  -22.4278   -8.0280   21.3540 C   0  0  0  0  0  0
  -21.9914   -9.0255   20.4638 C   0  0  0  0  0  0
  -22.7247  -10.2136   20.3050 C   0  0  0  0  0  0
  -21.6858   -6.0730   22.5280 C   0  0  0  0  0  0
  -21.4014   -6.5634   23.8211 C   0  0  0  0  0  0
  -21.3661   -5.6789   24.9171 C   0  0  0  0  0  0
  -21.6045   -4.3053   24.7224 C   0  0  0  0  0  0
  -21.8823   -3.8142   23.4347 C   0  0  0  0  0  0
  -21.9192   -4.6956   22.3400 C   0  0  0  0  0  0
  -22.7824  -13.5223   21.1874 C   0  0  0  0  0  0
  -22.1665   -4.2138   21.0979 F   0  0  0  0  0  0
  -21.5628   -3.4539   25.7742 F   0  0  0  0  0  0
  -29.9840  -13.5456   20.3970 N   0  0  0  0  0  0
  -26.2932  -12.9423   20.3284 N   0  0  0  0  0  0
  -25.9329  -11.6557   20.5748 N   0  0  0  0  0  0
  -22.0467  -12.8202   22.0424 N   0  0  0  0  0  0
  -25.4183  -15.1926   20.4096 N   0  0  0  0  0  0
  -31.8232  -14.8068   20.1543 O   0  0  0  0  0  0
  -21.6644   -6.8873   21.4242 O   0  0  0  0  0  0
  -22.3501  -14.5525   20.6721 O   0  0  0  0  0  0
  -24.6329  -31.8548   23.1979 C   0  0  0  0  0  0
  -25.9150  -32.4756   23.8324 C   0  0  1  0  0  0
  -27.2178  -27.2457   20.1413 C   0  0  0  0  0  0
  -25.5937  -33.8556   24.2250 N   0  0  0  0  0  0
  -23.4334  -30.4776   21.5395 C   0  0  2  0  0  0
  -24.8858  -28.9256   20.1062 C   0  0  0  0  0  0
  -22.7525  -29.4602   22.4881 C   0  0  0  0  0  0
  -18.0314  -28.1430   22.8505 C   0  0  0  0  0  0
  -24.1479  -36.7273   23.2636 C   0  0  0  0  0  0
  -25.9813  -30.7630   21.3824 C   0  0  0  0  0  0
  -26.0575  -29.3849   20.7240 C   0  0  0  0  0  0
  -27.2294  -28.5539   20.7376 C   0  0  0  0  0  0
  -26.0309  -26.8679   19.4800 C   0  0  0  0  0  0
  -24.8783  -27.6759   19.4701 C   0  0  0  0  0  0
  -23.6552  -29.8120   20.1540 C   0  0  0  0  0  0
  -25.4103  -36.3064   24.0330 C   0  0  1  0  0  0
  -20.5918  -28.3739   23.1270 C   0  0  2  0  0  0
  -20.6795  -26.9457   22.5410 C   0  0  0  0  0  0
  -19.5751  -26.6420   21.5239 C   0  0  0  0  0  0
  -18.1941  -26.7975   22.1652 C   0  0  0  0  0  0
  -19.1569  -28.8908   23.2886 C   0  0  0  0  0  0
  -18.9473  -30.1506   23.8901 C   0  0  0  0  0  0
  -17.6469  -30.6621   24.0585 C   0  0  0  0  0  0
  -25.9046  -34.9437   23.5087 C   0  0  0  0  0  0
  -16.5367  -29.9113   23.6348 C   0  0  0  0  0  0
  -16.7300  -28.6536   23.0369 C   0  0  0  0  0  0
  -26.4502  -31.6592   25.0717 C   0  0  0  0  0  0
  -25.3714  -31.3755   26.1433 C   0  0  0  0  0  0
  -27.0352  -30.2997   24.6236 C   0  0  0  0  0  0
  -27.6049  -32.4335   25.7505 C   0  0  0  0  0  0
  -27.5574  -37.1788   24.8457 C   0  0  0  0  0  0
  -21.4229  -29.3067   22.3635 N   0  0  0  0  0  0
  -26.4270  -37.3773   23.9422 N   0  0  0  0  0  0
  -24.7016  -31.0499   22.0958 N   0  0  0  0  0  0
  -23.4210  -28.8151   23.3003 O   0  0  0  0  0  0
  -28.2155  -26.2399   20.2481 O   0  0  0  0  0  0
  -26.5624  -34.8921   22.4658 O   0  0  0  0  0  0
  -23.5472  -32.1368   23.7266 O   0  0  0  0  0  0
  -30.8670  -20.1889   19.9355 C   0  0  0  0  0  0
  -29.2819  -18.5040   20.6732 C   0  0  0  0  0  0
  -31.4678  -17.7951   19.9247 C   0  0  0  0  0  0
  -29.5737  -19.9306   20.4411 C   0  0  0  0  0  0
  -31.7968  -19.1508   19.6962 C   0  0  0  0  0  0
  -30.2024  -17.3939   20.4213 C   0  0  0  0  0  0
  -28.0481  -23.7139   21.1140 C   0  0  0  0  0  0
  -27.1972  -23.0994   22.1522 C   0  0  0  0  0  0
  -27.8060  -25.1010   21.0097 C   0  0  0  0  0  0
  -28.9611  -22.5756   20.4325 C   0  0  0  0  0  0
  -26.5171  -21.7998   21.7702 C   0  0  0  0  0  0
  -27.5520  -20.6969   21.5635 C   0  0  0  0  0  0
  -28.6786  -21.0697   20.6971 N   0  0  0  0  0  0
  -33.0702  -19.4686   19.2200 N   0  0  0  0  0  0
  -29.8774  -15.9350   20.6316 N   0  0  0  0  0  0
  -26.9995  -23.5808   23.2748 O   0  0  0  0  0  0
  -31.4700  -12.5781   19.1738 H   0  0  0  0  0  0
  -30.3660  -11.4966   19.9710 H   0  0  0  0  0  0
  -29.7935  -11.7266   17.5324 H   0  0  0  0  0  0
  -29.6372  -13.4554   17.7124 H   0  0  0  0  0  0
  -27.8955  -11.2838   18.9200 H   0  0  0  0  0  0
  -27.3792  -12.5176   17.8025 H   0  0  0  0  0  0
  -27.6290  -14.2552   19.4636 H   0  0  0  0  0  0
  -28.7252  -12.1977   21.4338 H   0  0  0  0  0  0
  -28.4169  -13.8786   21.7886 H   0  0  0  0  0  0
  -25.2765   -9.5684   22.4762 H   0  0  0  0  0  0
  -24.0003   -7.4629   22.7472 H   0  0  0  0  0  0
  -21.0843   -8.8769   19.8944 H   0  0  0  0  0  0
  -22.3698  -10.9672   19.6155 H   0  0  0  0  0  0
  -21.2013   -7.6141   23.9707 H   0  0  0  0  0  0
  -21.1479   -6.0520   25.9071 H   0  0  0  0  0  0
  -22.0601   -2.7604   23.2853 H   0  0  0  0  0  0
  -22.4093  -11.9861   22.4805 H   0  0  0  0  0  0
  -21.1070  -13.1204   22.2622 H   0  0  0  0  0  0
  -24.6474  -15.8436   20.5101 H   0  0  0  0  0  0
  -26.2562  -15.6263   20.0459 H   0  0  0  0  0  0
  -26.7218  -32.5418   23.1067 H   0  0  0  0  0  0
  -25.0068  -33.9682   25.0383 H   0  0  0  0  0  0
  -22.7308  -31.3001   21.3923 H   0  0  0  0  0  0
  -23.3740  -35.9608   23.3296 H   0  0  0  0  0  0
  -24.3555  -36.8893   22.2044 H   0  0  0  0  0  0
  -23.7228  -37.6469   23.6661 H   0  0  0  0  0  0
  -26.1190  -31.5221   20.6117 H   0  0  0  0  0  0
  -26.8559  -30.8146   22.0168 H   0  0  0  0  0  0
  -28.1119  -28.8865   21.2646 H   0  0  0  0  0  0
  -25.9776  -25.8956   19.0119 H   0  0  0  0  0  0
  -23.9847  -27.3173   18.9778 H   0  0  0  0  0  0
  -23.7792  -30.5874   19.3982 H   0  0  0  0  0  0
  -22.7759  -29.2445   19.8458 H   0  0  0  0  0  0
  -25.1287  -36.1890   25.0825 H   0  0  0  0  0  0
  -21.0041  -28.3334   24.1386 H   0  0  0  0  0  0
  -20.5734  -26.2357   23.3623 H   0  0  0  0  0  0
  -21.6654  -26.7485   22.1192 H   0  0  0  0  0  0
  -19.6878  -25.6329   21.1283 H   0  0  0  0  0  0
  -19.6676  -27.3223   20.6764 H   0  0  0  0  0  0
  -17.4213  -26.6765   21.4052 H   0  0  0  0  0  0
  -18.0301  -26.0114   22.9041 H   0  0  0  0  0  0
  -19.7937  -30.7346   24.2257 H   0  0  0  0  0  0
  -17.5013  -31.6297   24.5194 H   0  0  0  0  0  0
  -15.5362  -30.3016   23.7670 H   0  0  0  0  0  0
  -15.8701  -28.0858   22.7072 H   0  0  0  0  0  0
  -24.5897  -30.7101   25.7762 H   0  0  0  0  0  0
  -24.8902  -32.2936   26.4816 H   0  0  0  0  0  0
  -25.8029  -30.8955   27.0225 H   0  0  0  0  0  0
  -26.2943  -29.6747   24.1239 H   0  0  0  0  0  0
  -27.3968  -29.7266   25.4780 H   0  0  0  0  0  0
  -27.8860  -30.4240   23.9529 H   0  0  0  0  0  0
  -27.2641  -33.3633   26.2065 H   0  0  0  0  0  0
  -28.3880  -32.6895   25.0361 H   0  0  0  0  0  0
  -28.0693  -31.8465   26.5430 H   0  0  0  0  0  0
  -28.2578  -38.0097   24.7558 H   0  0  0  0  0  0
  -28.1091  -36.2643   24.6234 H   0  0  0  0  0  0
  -27.2312  -37.1385   25.8863 H   0  0  0  0  0  0
  -20.9414  -29.8773   21.6818 H   0  0  0  0  0  0
  -26.0135  -38.2835   24.1468 H   0  0  0  0  0  0
  -31.1688  -21.2051   19.7341 H   0  0  0  0  0  0
  -28.3151  -18.2221   21.0582 H   0  0  0  0  0  0
  -32.2266  -17.0634   19.6959 H   0  0  0  0  0  0
  -27.0640  -25.4807   21.7041 H   0  0  0  0  0  0
  -29.9804  -22.7843   20.7592 H   0  0  0  0  0  0
  -28.9508  -22.7474   19.3560 H   0  0  0  0  0  0
  -25.9496  -21.9657   20.8531 H   0  0  0  0  0  0
  -25.7969  -21.5151   22.5379 H   0  0  0  0  0  0
  -27.0156  -19.8533   21.1288 H   0  0  0  0  0  0
  -27.9335  -20.3665   22.5319 H   0  0  0  0  0  0
  -33.4043  -20.4229   19.3156 H   0  0  0  0  0  0
  -33.8150  -18.7849   19.3270 H   0  0  0  0  0  0
  -28.9180  -15.7488   20.8830 H   0  0  0  0  0  0
  1 25  1  0  0  0
  1 30  2  0  0  0
  1 85  1  0  0  0
  2  3  1  0  0  0
  2 25  1  0  0  0
  2 87  1  0  0  0
  2 88  1  0  0  0
  3  4  1  0  0  0
  3 89  1  0  0  0
  3 90  1  0  0  0
  4  5  1  0  0  0
  4 91  1  0  0  0
  4 92  1  0  0  0
  5  6  1  0  0  0
  5 26  1  0  0  0
  5 93  1  0  0  0
  6 25  1  0  0  0
  6 94  1  0  0  0
  6 95  1  0  0  0
  7  8  2  0  0  0
  7 26  1  0  0  0
  7 29  1  0  0  0
  8  9  1  0  0  0
  8 22  1  0  0  0
  9 10  1  0  0  0
  9 27  2  0  0  0
 10 11  2  0  0  0
 10 15  1  0  0  0
 11 12  1  0  0  0
 11 96  1  0  0  0
 12 13  2  0  0  0
 12 97  1  0  0  0
 13 14  1  0  0  0
 13 31  1  0  0  0
 14 15  2  0  0  0
 14 98  1  0  0  0
 15 99  1  0  0  0
 16 17  2  0  0  0
 16 21  1  0  0  0
 16 31  1  0  0  0
 17 18  1  0  0  0
 17100  1  0  0  0
 18 19  2  0  0  0
 18101  1  0  0  0
 19 20  1  0  0  0
 19 24  1  0  0  0
 20 21  2  0  0  0
 20102  1  0  0  0
 21 23  1  0  0  0
 22 28  1  0  0  0
 22 32  2  0  0  0
 26 27  1  0  0  0
 28103  1  0  0  0
 28104  1  0  0  0
 29105  1  0  0  0
 29106  1  0  0  0
 33 34  1  0  0  0
 33 66  1  0  0  0
 33 70  2  0  0  0
 34 36  1  0  0  0
 34 59  1  0  0  0
 34107  1  0  0  0
 35 44  2  0  0  0
 35 45  1  0  0  0
 35 68  1  0  0  0
 36 56  1  0  0  0
 36108  1  0  0  0
 37 39  1  0  0  0
 37 47  1  0  0  0
 37 66  1  0  0  0
 37109  1  0  0  0
 38 43  2  0  0  0
 38 46  1  0  0  0
 38 47  1  0  0  0
 39 64  1  0  0  0
 39 67  2  0  0  0
 40 52  1  0  0  0
 40 53  2  0  0  0
 40 58  1  0  0  0
 41110  1  0  0  0
 41111  1  0  0  0
 41112  1  0  0  0
 41 48  1  0  0  0
 42 43  1  0  0  0
 42 66  1  0  0  0
 42113  1  0  0  0
 42114  1  0  0  0
 43 44  1  0  0  0
 44115  1  0  0  0
 45 46  2  0  0  0
 45116  1  0  0  0
 46117  1  0  0  0
 47118  1  0  0  0
 47119  1  0  0  0
 48 56  1  0  0  0
 48 65  1  0  0  0
 48120  1  0  0  0
 49 50  1  0  0  0
 49 53  1  0  0  0
 49 64  1  0  0  0
 49121  1  0  0  0
 50 51  1  0  0  0
 50122  1  0  0  0
 50123  1  0  0  0
 51 52  1  0  0  0
 51124  1  0  0  0
 51125  1  0  0  0
 52126  1  0  0  0
 52127  1  0  0  0
 53 54  1  0  0  0
 54 55  2  0  0  0
 54128  1  0  0  0
 55 57  1  0  0  0
 55129  1  0  0  0
 56 69  2  0  0  0
 57 58  2  0  0  0
 57130  1  0  0  0
 58131  1  0  0  0
 59 60  1  0  0  0
 59 61  1  0  0  0
 59 62  1  0  0  0
 60132  1  0  0  0
 60133  1  0  0  0
 60134  1  0  0  0
 61135  1  0  0  0
 61136  1  0  0  0
 61137  1  0  0  0
 62138  1  0  0  0
 62139  1  0  0  0
 62140  1  0  0  0
 63 65  1  0  0  0
 63141  1  0  0  0
 63142  1  0  0  0
 63143  1  0  0  0
 64144  1  0  0  0
 65145  1  0  0  0
 68 79  1  0  0  0
 71 74  2  0  0  0
 71 75  1  0  0  0
 71146  1  0  0  0
 72 74  1  0  0  0
 72 76  2  0  0  0
 72147  1  0  0  0
 73 75  2  0  0  0
 73 76  1  0  0  0
 73148  1  0  0  0
 74 83  1  0  0  0
 75 84  1  0  0  0
 76 85  1  0  0  0
 77 78  1  0  0  0
 77 79  2  0  0  0
 77 80  1  0  0  0
 78 81  1  0  0  0
 78 86  2  0  0  0
 79149  1  0  0  0
 80 83  1  0  0  0
 80150  1  0  0  0
 80151  1  0  0  0
 81 82  1  0  0  0
 81152  1  0  0  0
 81153  1  0  0  0
 82 83  1  0  0  0
 82154  1  0  0  0
 82155  1  0  0  0
 84156  1  0  0  0
 84157  1  0  0  0
 85158  1  0  0  0
M  ISO  4   1 100  68 101  79 101  85 100
M  END
> <chiral flag>
0

> <version>
0

> <s_m_source_file>
/data/baiqing/PycharmProjects/Reinvent-master-3.2/result/LINK_invent/BTK/process_docking_weight1_custom_product_contain_oxygen_bond_distance_aromatic_linkinvent_7_9_3/rearranged_h_0091.sdf

> <i_m_source_file_index>
95

> <r_mmod_Potential_Energy-OPLS-2005>
354.791015625

> <r_mmod_Stretch_Energy-OPLS-2005>
157.821884155273

> <r_mmod_Bend_Energy-OPLS-2005>
236.718185424805

> <r_mmod_Torsional_Energy-OPLS-2005>
218.886337280273

> <r_mmod_Improper_Torsional_Energy-OPLS-2005>
8.39506721496582

> <r_mmod_Van_der_Waal_Energy-OPLS-2005>
164.876602172852

> <r_mmod_Electrostatic_Energy-OPLS-2005>
-293.773559570312

> <r_mmod_Solvation_Energy-OPLS-2005>
-247.256805419922

> <b_mmod_Minimization_Converged-OPLS-2005>
0

> <r_mmod_RMS_Derivative-OPLS-2005>
2.40984129905701

$$$$
95
                    3D
 Structure written by MMmdl.
159168  0  0  1  0            999 V2000
  -30.5043  -15.0661   20.3716 C   0  0  0  0  0  0
  -30.4480  -12.6756   19.4715 C   0  0  0  0  0  0
  -29.5123  -12.5035   18.2508 C   0  0  0  0  0  0
  -28.0578  -12.2694   18.7019 C   0  0  0  0  0  0
  -27.6183  -13.2511   19.8200 C   0  0  2  0  0  0
  -28.6733  -13.3534   20.9385 C   0  0  0  0  0  0
  -25.2455  -13.8343   20.5957 C   0  0  0  0  0  0
  -24.1786  -13.0442   20.9346 C   0  0  0  0  0  0
  -24.6385  -11.6949   20.8781 C   0  0  0  0  0  0
  -23.9086  -10.4279   21.0412 C   0  0  0  0  0  0
  -24.3626   -9.4195   21.9199 C   0  0  0  0  0  0
  -23.6315   -8.2220   22.0750 C   0  0  0  0  0  0
  -22.4323   -8.0242   21.3518 C   0  0  0  0  0  0
  -21.9926   -9.0239   20.4653 C   0  0  0  0  0  0
  -22.7250  -10.2117   20.3072 C   0  0  0  0  0  0
  -21.6873   -6.0681   22.5216 C   0  0  0  0  0  0
  -21.4031   -6.5618   23.8131 C   0  0  0  0  0  0
  -21.3672   -5.6797   24.9122 C   0  0  0  0  0  0
  -21.6073   -4.3055   24.7210 C   0  0  0  0  0  0
  -21.8833   -3.8119   23.4338 C   0  0  0  0  0  0
  -21.9218   -4.6911   22.3377 C   0  0  0  0  0  0
  -22.7809  -13.5219   21.1944 C   0  0  0  0  0  0
  -22.1690   -4.2068   21.0955 F   0  0  0  0  0  0
  -21.5647   -3.4566   25.7733 F   0  0  0  0  0  0
  -29.9167  -13.7967   20.2985 N   0  0  0  0  0  0
  -26.2868  -12.9540   20.3315 N   0  0  0  0  0  0
  -25.9306  -11.6637   20.5716 N   0  0  0  0  0  0
  -22.0530  -12.8088   22.0480 N   0  0  0  0  0  0
  -25.3941  -15.2202   20.4767 N   0  0  0  0  0  0
  -31.7334  -15.0991   20.2222 O   0  0  0  0  0  0
  -21.6713   -6.8820   21.4173 O   0  0  0  0  0  0
  -22.3489  -14.5554   20.6843 O   0  0  0  0  0  0
  -24.6510  -31.8306   23.1839 C   0  0  0  0  0  0
  -25.9245  -32.4635   23.8251 C   0  0  1  0  0  0
  -27.1901  -27.0112   20.1715 C   0  0  0  0  0  0
  -25.5942  -33.8440   24.2146 N   0  0  0  0  0  0
  -23.4611  -30.4499   21.5282 C   0  0  2  0  0  0
  -24.9112  -28.8630   20.1063 C   0  0  0  0  0  0
  -22.7590  -29.4460   22.4838 C   0  0  0  0  0  0
  -18.0309  -28.1248   22.8523 C   0  0  0  0  0  0
  -24.1470  -36.7280   23.2645 C   0  0  0  0  0  0
  -26.0222  -30.6702   21.3914 C   0  0  0  0  0  0
  -26.0886  -29.2682   20.7418 C   0  0  0  0  0  0
  -27.2262  -28.3583   20.7584 C   0  0  0  0  0  0
  -25.9923  -26.7489   19.4675 C   0  0  0  0  0  0
  -24.8832  -27.6268   19.4478 C   0  0  0  0  0  0
  -23.6983  -29.7820   20.1460 C   0  0  0  0  0  0
  -25.4094  -36.2997   24.0299 C   0  0  1  0  0  0
  -20.5937  -28.3668   23.1234 C   0  0  2  0  0  0
  -20.6843  -26.9392   22.5347 C   0  0  0  0  0  0
  -19.5768  -26.6257   21.5232 C   0  0  0  0  0  0
  -18.1966  -26.7829   22.1619 C   0  0  0  0  0  0
  -19.1550  -28.8767   23.2854 C   0  0  0  0  0  0
  -18.9389  -30.1376   23.8857 C   0  0  0  0  0  0
  -17.6349  -30.6491   24.0459 C   0  0  0  0  0  0
  -25.9042  -34.9372   23.5038 C   0  0  0  0  0  0
  -16.5274  -29.8941   23.6227 C   0  0  0  0  0  0
  -16.7276  -28.6323   23.0401 C   0  0  0  0  0  0
  -26.4528  -31.6549   25.0753 C   0  0  0  0  0  0
  -25.3734  -31.3813   26.1496 C   0  0  0  0  0  0
  -27.0386  -30.2929   24.6383 C   0  0  0  0  0  0
  -27.6012  -32.4339   25.7598 C   0  0  0  0  0  0
  -27.5550  -37.1787   24.8449 C   0  0  0  0  0  0
  -21.4275  -29.3010   22.3569 N   0  0  0  0  0  0
  -26.4246  -37.3723   23.9414 N   0  0  0  0  0  0
  -24.7335  -31.0090   22.0912 N   0  0  0  0  0  0
  -23.4173  -28.8008   23.3042 O   0  0  0  0  0  0
  -28.1861  -25.9384   20.3198 O   0  0  0  0  0  0
  -26.5658  -34.8868   22.4638 O   0  0  0  0  0  0
  -23.5602  -32.1231   23.6997 O   0  0  0  0  0  0
  -29.3316  -17.2483   22.9532 C   0  0  0  0  0  0
  -30.3860  -17.6091   22.0752 C   0  0  0  0  0  0
  -27.7645  -18.3663   21.4598 C   0  0  0  0  0  0
  -28.7048  -21.5887   19.8695 C   0  0  0  0  0  0
  -28.7001  -21.1441   21.9912 C   0  0  0  0  0  0
  -27.9864  -17.4945   22.5693 C   0  0  0  0  0  0
  -28.4629  -22.8989   20.4456 C   0  0  0  0  0  0
  -28.8737  -18.8591   20.7201 C   0  0  0  0  0  0
  -29.9350  -17.7662   20.7533 C   0  0  0  0  0  0
  -28.4404  -22.5025   21.8296 C   0  0  0  0  0  0
  -26.8708  -16.8497   23.3863 C   0  0  0  0  0  0
  -28.1162  -24.4356   19.7529 C   0  0  0  0  0  0
  -28.8444  -20.4410   20.7871 N   0  0  0  0  0  0
  -29.7172  -16.2762   20.3202 N   0  0  0  0  0  0
  -25.5181  -17.1440   22.8938 N   0  3  0  0  0  0
  -28.1389  -23.3400   22.8611 O   0  0  0  0  0  0
  -31.4624  -12.8931   19.1234 H   0  0  0  0  0  0
  -30.5178  -11.7598   20.0594 H   0  0  0  0  0  0
  -29.8445  -11.6666   17.6377 H   0  0  0  0  0  0
  -29.5605  -13.3912   17.6170 H   0  0  0  0  0  0
  -28.0019  -11.2454   19.0780 H   0  0  0  0  0  0
  -27.3709  -12.3212   17.8553 H   0  0  0  0  0  0
  -27.5599  -14.2286   19.3433 H   0  0  0  0  0  0
  -28.8126  -12.4006   21.4503 H   0  0  0  0  0  0
  -28.3675  -14.0736   21.6988 H   0  0  0  0  0  0
  -25.2739   -9.5671   22.4806 H   0  0  0  0  0  0
  -24.0017   -7.4613   22.7448 H   0  0  0  0  0  0
  -21.0854   -8.8741   19.8966 H   0  0  0  0  0  0
  -22.3678  -10.9660   19.6194 H   0  0  0  0  0  0
  -21.2025   -7.6127   23.9584 H   0  0  0  0  0  0
  -21.1528   -6.0560   25.9005 H   0  0  0  0  0  0
  -22.0639   -2.7563   23.2872 H   0  0  0  0  0  0
  -22.4222  -11.9704   22.4680 H   0  0  0  0  0  0
  -21.1149  -13.0974   22.2856 H   0  0  0  0  0  0
  -24.5137  -15.6879   20.2887 H   0  0  0  0  0  0
  -26.1342  -15.5757   19.8796 H   0  0  0  0  0  0
  -26.7327  -32.5201   23.0977 H   0  0  0  0  0  0
  -25.0007  -33.9504   25.0238 H   0  0  0  0  0  0
  -22.7663  -31.2761   21.3683 H   0  0  0  0  0  0
  -23.3686  -35.9663   23.3260 H   0  0  0  0  0  0
  -24.3565  -36.8976   22.2076 H   0  0  0  0  0  0
  -23.7265  -37.6478   23.6722 H   0  0  0  0  0  0
  -26.1645  -31.4078   20.5990 H   0  0  0  0  0  0
  -26.8980  -30.7487   22.0223 H   0  0  0  0  0  0
  -28.1129  -28.6606   21.2954 H   0  0  0  0  0  0
  -25.8452  -25.8138   18.9503 H   0  0  0  0  0  0
  -23.9882  -27.3239   18.9233 H   0  0  0  0  0  0
  -23.8509  -30.5592   19.3936 H   0  0  0  0  0  0
  -22.8112  -29.2314   19.8296 H   0  0  0  0  0  0
  -25.1272  -36.1811   25.0788 H   0  0  0  0  0  0
  -21.0016  -28.3237   24.1363 H   0  0  0  0  0  0
  -20.6007  -26.2257   23.3569 H   0  0  0  0  0  0
  -21.6640  -26.7526   22.0940 H   0  0  0  0  0  0
  -19.6960  -25.6167   21.1356 H   0  0  0  0  0  0
  -19.6732  -27.2983   20.6730 H   0  0  0  0  0  0
  -17.4339  -26.6747   21.3907 H   0  0  0  0  0  0
  -18.0191  -25.9855   22.8851 H   0  0  0  0  0  0
  -19.7831  -30.7213   24.2274 H   0  0  0  0  0  0
  -17.4852  -31.6220   24.4947 H   0  0  0  0  0  0
  -15.5268  -30.2828   23.7395 H   0  0  0  0  0  0
  -15.8725  -28.0524   22.7228 H   0  0  0  0  0  0
  -24.5889  -30.7128   25.7930 H   0  0  0  0  0  0
  -24.8958  -32.3040   26.4821 H   0  0  0  0  0  0
  -25.8071  -30.9132   27.0345 H   0  0  0  0  0  0
  -26.3024  -29.6667   24.1343 H   0  0  0  0  0  0
  -27.3918  -29.7212   25.4966 H   0  0  0  0  0  0
  -27.8957  -30.4128   23.9757 H   0  0  0  0  0  0
  -27.2533  -33.3628   26.2127 H   0  0  0  0  0  0
  -28.3921  -32.6913   25.0550 H   0  0  0  0  0  0
  -28.0588  -31.8519   26.5607 H   0  0  0  0  0  0
  -28.2521  -38.0109   24.7469 H   0  0  0  0  0  0
  -28.1059  -36.2632   24.6265 H   0  0  0  0  0  0
  -27.2282  -37.1464   25.8849 H   0  0  0  0  0  0
  -20.9496  -29.8832   21.6822 H   0  0  0  0  0  0
  -26.0081  -38.2777   24.1437 H   0  0  0  0  0  0
  -29.5493  -16.6787   23.8451 H   0  0  0  0  0  0
  -31.3470  -17.1536   22.2779 H   0  0  0  0  0  0
  -26.8186  -18.8785   21.3745 H   0  0  0  0  0  0
  -28.7254  -21.3565   18.8128 H   0  0  0  0  0  0
  -28.7089  -20.5743   22.9080 H   0  0  0  0  0  0
  -26.9713  -17.1494   24.4238 H   0  0  0  0  0  0
  -27.0061  -15.7659   23.3697 H   0  0  0  0  0  0
  -27.1611  -24.2738   19.2658 H   0  0  0  0  0  0
  -28.8212  -24.4870   18.9192 H   0  0  0  0  0  0
  -28.7458  -16.0818   20.1310 H   0  0  0  0  0  0
  -25.3899  -16.7279   21.9832 H   0  0  0  0  0  0
  -25.3696  -18.1340   22.8527 H   0  0  0  0  0  0
  -24.8339  -16.7546   23.5176 H   0  0  0  0  0  0
  -27.9170  -22.8870   23.6749 H   0  0  0  0  0  0
  1 25  1  0  0  0
  1 30  2  0  0  0
  1 84  1  0  0  0
  2  3  1  0  0  0
  2 25  1  0  0  0
  2 87  1  0  0  0
  2 88  1  0  0  0
  3  4  1  0  0  0
  3 89  1  0  0  0
  3 90  1  0  0  0
  4  5  1  0  0  0
  4 91  1  0  0  0
  4 92  1  0  0  0
  5  6  1  0  0  0
  5 26  1  0  0  0
  5 93  1  0  0  0
  6 25  1  0  0  0
  6 94  1  0  0  0
  6 95  1  0  0  0
  7  8  2  0  0  0
  7 26  1  0  0  0
  7 29  1  0  0  0
  8  9  1  0  0  0
  8 22  1  0  0  0
  9 10  1  0  0  0
  9 27  2  0  0  0
 10 11  2  0  0  0
 10 15  1  0  0  0
 11 12  1  0  0  0
 11 96  1  0  0  0
 12 13  2  0  0  0
 12 97  1  0  0  0
 13 14  1  0  0  0
 13 31  1  0  0  0
 14 15  2  0  0  0
 14 98  1  0  0  0
 15 99  1  0  0  0
 16 17  2  0  0  0
 16 21  1  0  0  0
 16 31  1  0  0  0
 17 18  1  0  0  0
 17100  1  0  0  0
 18 19  2  0  0  0
 18101  1  0  0  0
 19 20  1  0  0  0
 19 24  1  0  0  0
 20 21  2  0  0  0
 20102  1  0  0  0
 21 23  1  0  0  0
 22 28  1  0  0  0
 22 32  2  0  0  0
 26 27  1  0  0  0
 28103  1  0  0  0
 28104  1  0  0  0
 29105  1  0  0  0
 29106  1  0  0  0
 33 34  1  0  0  0
 33 66  1  0  0  0
 33 70  2  0  0  0
 34 36  1  0  0  0
 34 59  1  0  0  0
 34107  1  0  0  0
 35 44  2  0  0  0
 35 45  1  0  0  0
 35 68  1  0  0  0
 36 56  1  0  0  0
 36108  1  0  0  0
 37 39  1  0  0  0
 37 47  1  0  0  0
 37 66  1  0  0  0
 37109  1  0  0  0
 38 43  2  0  0  0
 38 46  1  0  0  0
 38 47  1  0  0  0
 39 64  1  0  0  0
 39 67  2  0  0  0
 40 52  1  0  0  0
 40 53  2  0  0  0
 40 58  1  0  0  0
 41110  1  0  0  0
 41111  1  0  0  0
 41112  1  0  0  0
 41 48  1  0  0  0
 42 43  1  0  0  0
 42 66  1  0  0  0
 42113  1  0  0  0
 42114  1  0  0  0
 43 44  1  0  0  0
 44115  1  0  0  0
 45 46  2  0  0  0
 45116  1  0  0  0
 46117  1  0  0  0
 47118  1  0  0  0
 47119  1  0  0  0
 48 56  1  0  0  0
 48 65  1  0  0  0
 48120  1  0  0  0
 49 50  1  0  0  0
 49 53  1  0  0  0
 49 64  1  0  0  0
 49121  1  0  0  0
 50 51  1  0  0  0
 50122  1  0  0  0
 50123  1  0  0  0
 51 52  1  0  0  0
 51124  1  0  0  0
 51125  1  0  0  0
 52126  1  0  0  0
 52127  1  0  0  0
 53 54  1  0  0  0
 54 55  2  0  0  0
 54128  1  0  0  0
 55 57  1  0  0  0
 55129  1  0  0  0
 56 69  2  0  0  0
 57 58  2  0  0  0
 57130  1  0  0  0
 58131  1  0  0  0
 59 60  1  0  0  0
 59 61  1  0  0  0
 59 62  1  0  0  0
 60132  1  0  0  0
 60133  1  0  0  0
 60134  1  0  0  0
 61135  1  0  0  0
 61136  1  0  0  0
 61137  1  0  0  0
 62138  1  0  0  0
 62139  1  0  0  0
 62140  1  0  0  0
 63 65  1  0  0  0
 63141  1  0  0  0
 63142  1  0  0  0
 63143  1  0  0  0
 64144  1  0  0  0
 65145  1  0  0  0
 68 82  1  0  0  0
 71 72  2  0  0  0
 71 76  1  0  0  0
 71146  1  0  0  0
 72 79  1  0  0  0
 72147  1  0  0  0
 73 76  2  0  0  0
 73 78  1  0  0  0
 73148  1  0  0  0
 74 77  2  0  0  0
 74 83  1  0  0  0
 74149  1  0  0  0
 75 80  2  0  0  0
 75 83  1  0  0  0
 75150  1  0  0  0
 76 81  1  0  0  0
 77 80  1  0  0  0
 77 82  1  0  0  0
 78 79  2  0  0  0
 78 83  1  0  0  0
 79 84  1  0  0  0
 80 86  1  0  0  0
 81 85  1  0  0  0
 81151  1  0  0  0
 81152  1  0  0  0
 82153  1  0  0  0
 82154  1  0  0  0
 84155  1  0  0  0
 85156  1  0  0  0
 85157  1  0  0  0
 85158  1  0  0  0
 86159  1  0  0  0
M  CHG  1  85   1
M  ISO  4   1 100  68 101  82 101  84 100
M  END
> <chiral flag>
0

> <version>
0

> <s_m_source_file>
/data/baiqing/PycharmProjects/Reinvent-master-3.2/result/LINK_invent/BTK/process_docking_weight1_custom_product_contain_oxygen_bond_distance_aromatic_linkinvent_7_9_3/rearranged_h_0091.sdf

> <i_m_source_file_index>
96

> <r_mmod_Potential_Energy-OPLS-2005>
836.571533203125

> <r_mmod_Stretch_Energy-OPLS-2005>
379.024841308594

> <r_mmod_Bend_Energy-OPLS-2005>
375.427124023438

> <r_mmod_Torsional_Energy-OPLS-2005>
494.224884033203

> <r_mmod_Improper_Torsional_Energy-OPLS-2005>
55.9825248718262

> <r_mmod_Van_der_Waal_Energy-OPLS-2005>
139.007339477539

> <r_mmod_Electrostatic_Energy-OPLS-2005>
-358.627532958984

> <r_mmod_Solvation_Energy-OPLS-2005>
-565.440307617188

> <b_mmod_Minimization_Converged-OPLS-2005>
0

> <r_mmod_RMS_Derivative-OPLS-2005>
8.48972797393799

$$$$
96
                    3D
 Structure written by MMmdl.
154162  0  0  1  0            999 V2000
  -30.6793  -14.6388   20.4804 C   0  0  0  0  0  0
  -30.4144  -12.3976   19.4456 C   0  0  0  0  0  0
  -29.4944  -12.4889   18.2121 C   0  0  0  0  0  0
  -28.0217  -12.3252   18.6361 C   0  0  0  0  0  0
  -27.6368  -13.2247   19.8415 C   0  0  2  0  0  0
  -28.6850  -13.1483   20.9730 C   0  0  0  0  0  0
  -25.2482  -13.8174   20.5672 C   0  0  0  0  0  0
  -24.1778  -13.0428   20.9218 C   0  0  0  0  0  0
  -24.6365  -11.6905   20.8757 C   0  0  0  0  0  0
  -23.9033  -10.4292   21.0423 C   0  0  0  0  0  0
  -24.3599   -9.4209   21.9191 C   0  0  0  0  0  0
  -23.6288   -8.2238   22.0754 C   0  0  0  0  0  0
  -22.4267   -8.0274   21.3550 C   0  0  0  0  0  0
  -21.9894   -9.0239   20.4647 C   0  0  0  0  0  0
  -22.7212  -10.2125   20.3060 C   0  0  0  0  0  0
  -21.6853   -6.0729   22.5276 C   0  0  0  0  0  0
  -21.4013   -6.5637   23.8210 C   0  0  0  0  0  0
  -21.3663   -5.6789   24.9171 C   0  0  0  0  0  0
  -21.6049   -4.3050   24.7223 C   0  0  0  0  0  0
  -21.8816   -3.8137   23.4343 C   0  0  0  0  0  0
  -21.9191   -4.6954   22.3398 C   0  0  0  0  0  0
  -22.7811  -13.5223   21.1873 C   0  0  0  0  0  0
  -22.1659   -4.2143   21.0977 F   0  0  0  0  0  0
  -21.5636   -3.4534   25.7737 F   0  0  0  0  0  0
  -29.9885  -13.4609   20.3776 N   0  0  0  0  0  0
  -26.2896  -12.9374   20.3229 N   0  0  0  0  0  0
  -25.9285  -11.6527   20.5731 N   0  0  0  0  0  0
  -22.0433  -12.8231   22.0429 N   0  0  0  0  0  0
  -25.4133  -15.1905   20.4079 N   0  0  0  0  0  0
  -31.8885  -14.6876   20.2350 O   0  0  0  0  0  0
  -21.6638   -6.8866   21.4243 O   0  0  0  0  0  0
  -22.3510  -14.5533   20.6705 O   0  0  0  0  0  0
  -24.6270  -31.8588   23.2038 C   0  0  0  0  0  0
  -25.9123  -32.4767   23.8357 C   0  0  1  0  0  0
  -27.2206  -27.3121   20.1023 C   0  0  0  0  0  0
  -25.5941  -33.8568   24.2286 N   0  0  0  0  0  0
  -23.4192  -30.4844   21.5468 C   0  0  2  0  0  0
  -24.8608  -28.9386   20.1119 C   0  0  0  0  0  0
  -22.7480  -29.4622   22.4950 C   0  0  0  0  0  0
  -18.0287  -28.1380   22.8474 C   0  0  0  0  0  0
  -24.1487  -36.7289   23.2640 C   0  0  0  0  0  0
  -25.9606  -30.7866   21.3756 C   0  0  0  0  0  0
  -26.0305  -29.4140   20.7153 C   0  0  0  0  0  0
  -27.2081  -28.6098   20.7043 C   0  0  0  0  0  0
  -26.0167  -26.8829   19.4961 C   0  0  0  0  0  0
  -24.8551  -27.6779   19.4987 C   0  0  0  0  0  0
  -23.6321  -29.8214   20.1612 C   0  0  0  0  0  0
  -25.4111  -36.3079   24.0328 C   0  0  1  0  0  0
  -20.5883  -28.3689   23.1282 C   0  0  2  0  0  0
  -20.6774  -26.9415   22.5423 C   0  0  0  0  0  0
  -19.5760  -26.6382   21.5213 C   0  0  0  0  0  0
  -18.1931  -26.7927   22.1608 C   0  0  0  0  0  0
  -19.1541  -28.8853   23.2865 C   0  0  0  0  0  0
  -18.9461  -30.1453   23.8889 C   0  0  0  0  0  0
  -17.6462  -30.6576   24.0571 C   0  0  0  0  0  0
  -25.9049  -34.9447   23.5106 C   0  0  0  0  0  0
  -16.5357  -29.9082   23.6325 C   0  0  0  0  0  0
  -16.7275  -28.6505   23.0337 C   0  0  0  0  0  0
  -26.4500  -31.6575   25.0728 C   0  0  0  0  0  0
  -25.3732  -31.3716   26.1459 C   0  0  0  0  0  0
  -27.0341  -30.2999   24.6185 C   0  0  0  0  0  0
  -27.6054  -32.4305   25.7499 C   0  0  0  0  0  0
  -27.5575  -37.1798   24.8459 C   0  0  0  0  0  0
  -21.4198  -29.3040   22.3688 N   0  0  0  0  0  0
  -26.4289  -37.3777   23.9407 N   0  0  0  0  0  0
  -24.6879  -31.0597   22.0992 N   0  0  0  0  0  0
  -23.4202  -28.8158   23.3028 O   0  0  0  0  0  0
  -28.3623  -26.4944   20.1622 O   0  0  0  0  0  0
  -26.5623  -34.8914   22.4675 O   0  0  0  0  0  0
  -23.5434  -32.1397   23.7367 O   0  0  0  0  0  0
  -29.7760  -19.5132   21.6399 C   0  0  0  0  0  0
  -29.4085  -20.8711   21.3794 C   0  0  0  0  0  0
  -29.4648  -18.9585   19.3184 C   0  0  0  0  0  0
  -29.8314  -18.5228   20.6166 C   0  0  0  0  0  0
  -29.1041  -21.3205   20.0669 C   0  0  0  0  0  0
  -29.1383  -20.3237   19.0454 C   0  0  0  0  0  0
  -30.4757  -17.1711   20.8546 C   0  0  0  0  0  0
  -28.7110  -23.8965   20.3276 C   0  0  0  0  0  0
  -28.4667  -25.1956   19.4521 C   0  0  0  0  0  0
  -28.8956  -20.6979   17.7202 N   0  0  0  0  0  0
  -28.7870  -22.6955   19.6714 N   0  0  0  0  0  0
  -29.9438  -15.9209   20.5929 N   0  0  0  0  0  0
  -31.7112  -17.2618   21.3633 N   0  3  0  0  0  0
  -28.8302  -23.9921   21.5525 O   0  0  0  0  0  0
  -31.4590  -12.4948   19.1463 H   0  0  0  0  0  0
  -30.3263  -11.4173   19.9165 H   0  0  0  0  0  0
  -29.7619  -11.7238   17.4819 H   0  0  0  0  0  0
  -29.6351  -13.4489   17.7127 H   0  0  0  0  0  0
  -27.8736  -11.2767   18.8989 H   0  0  0  0  0  0
  -27.3600  -12.5186   17.7923 H   0  0  0  0  0  0
  -27.6339  -14.2464   19.4632 H   0  0  0  0  0  0
  -28.6990  -12.1549   21.4245 H   0  0  0  0  0  0
  -28.4391  -13.8461   21.7752 H   0  0  0  0  0  0
  -25.2740   -9.5717   22.4767 H   0  0  0  0  0  0
  -24.0008   -7.4637   22.7477 H   0  0  0  0  0  0
  -21.0826   -8.8752   19.8955 H   0  0  0  0  0  0
  -22.3658  -10.9662   19.6174 H   0  0  0  0  0  0
  -21.2006   -7.6137   23.9711 H   0  0  0  0  0  0
  -21.1494   -6.0514   25.9077 H   0  0  0  0  0  0
  -22.0593   -2.7596   23.2836 H   0  0  0  0  0  0
  -22.4021  -11.9904   22.4861 H   0  0  0  0  0  0
  -21.1050  -13.1285   22.2613 H   0  0  0  0  0  0
  -24.6298  -15.8278   20.5041 H   0  0  0  0  0  0
  -26.2320  -15.6321   20.0114 H   0  0  0  0  0  0
  -26.7191  -32.5427   23.1096 H   0  0  0  0  0  0
  -25.0092  -33.9709   25.0439 H   0  0  0  0  0  0
  -22.7120  -31.3047   21.4072 H   0  0  0  0  0  0
  -23.3746  -35.9622   23.3303 H   0  0  0  0  0  0
  -24.3573  -36.8919   22.2053 H   0  0  0  0  0  0
  -23.7245  -37.6491   23.6666 H   0  0  0  0  0  0
  -26.0931  -31.5499   20.6077 H   0  0  0  0  0  0
  -26.8407  -30.8306   22.0056 H   0  0  0  0  0  0
  -28.1060  -28.9717   21.1848 H   0  0  0  0  0  0
  -25.9106  -25.9148   19.0371 H   0  0  0  0  0  0
  -23.9528  -27.3010   19.0360 H   0  0  0  0  0  0
  -23.7591  -30.5989   19.4077 H   0  0  0  0  0  0
  -22.7491  -29.2576   19.8548 H   0  0  0  0  0  0
  -25.1291  -36.1922   25.0821 H   0  0  0  0  0  0
  -20.9960  -28.3275   24.1409 H   0  0  0  0  0  0
  -20.5665  -26.2314   23.3629 H   0  0  0  0  0  0
  -21.6649  -26.7443   22.1235 H   0  0  0  0  0  0
  -19.6932  -25.6292   21.1246 H   0  0  0  0  0  0
  -19.6697  -27.3192   20.6738 H   0  0  0  0  0  0
  -17.4216  -26.6688   21.3992 H   0  0  0  0  0  0
  -18.0316  -26.0058   22.8989 H   0  0  0  0  0  0
  -19.7944  -30.7272   24.2248 H   0  0  0  0  0  0
  -17.5021  -31.6245   24.5204 H   0  0  0  0  0  0
  -15.5355  -30.2982   23.7649 H   0  0  0  0  0  0
  -15.8678  -28.0826   22.7039 H   0  0  0  0  0  0
  -24.5903  -30.7068   25.7799 H   0  0  0  0  0  0
  -24.8928  -32.2888   26.4875 H   0  0  0  0  0  0
  -25.8063  -30.8904   27.0241 H   0  0  0  0  0  0
  -26.2922  -29.6739   24.1225 H   0  0  0  0  0  0
  -27.4056  -29.7254   25.4679 H   0  0  0  0  0  0
  -27.8780  -30.4272   23.9403 H   0  0  0  0  0  0
  -27.2657  -33.3585   26.2105 H   0  0  0  0  0  0
  -28.3851  -32.6903   25.0327 H   0  0  0  0  0  0
  -28.0747  -31.8424   26.5394 H   0  0  0  0  0  0
  -28.2596  -38.0093   24.7507 H   0  0  0  0  0  0
  -28.1069  -36.2625   24.6275 H   0  0  0  0  0  0
  -27.2301  -37.1451   25.8867 H   0  0  0  0  0  0
  -20.9390  -29.8763   21.6892 H   0  0  0  0  0  0
  -26.0162  -38.2850   24.1413 H   0  0  0  0  0  0
  -30.0609  -19.2427   22.6484 H   0  0  0  0  0  0
  -29.4036  -21.5718   22.2013 H   0  0  0  0  0  0
  -29.5325  -18.2543   18.5005 H   0  0  0  0  0  0
  -27.6726  -24.9960   18.7415 H   0  0  0  0  0  0
  -29.3500  -25.2918   18.8212 H   0  0  0  0  0  0
  -29.0774  -19.9828   17.0228 H   0  0  0  0  0  0
  -29.3109  -21.5749   17.4255 H   0  0  0  0  0  0
  -28.6007  -22.7624   18.6811 H   0  0  0  0  0  0
  -28.9416  -15.9537   20.5289 H   0  0  0  0  0  0
  -32.1198  -18.1675   21.5365 H   0  0  0  0  0  0
  -32.3047  -16.4430   21.3647 H   0  0  0  0  0  0
  1 25  1  0  0  0
  1 30  2  0  0  0
  1 82  1  0  0  0
  2  3  1  0  0  0
  2 25  1  0  0  0
  2 85  1  0  0  0
  2 86  1  0  0  0
  3  4  1  0  0  0
  3 87  1  0  0  0
  3 88  1  0  0  0
  4  5  1  0  0  0
  4 89  1  0  0  0
  4 90  1  0  0  0
  5  6  1  0  0  0
  5 26  1  0  0  0
  5 91  1  0  0  0
  6 25  1  0  0  0
  6 92  1  0  0  0
  6 93  1  0  0  0
  7  8  2  0  0  0
  7 26  1  0  0  0
  7 29  1  0  0  0
  8  9  1  0  0  0
  8 22  1  0  0  0
  9 10  1  0  0  0
  9 27  2  0  0  0
 10 11  2  0  0  0
 10 15  1  0  0  0
 11 12  1  0  0  0
 11 94  1  0  0  0
 12 13  2  0  0  0
 12 95  1  0  0  0
 13 14  1  0  0  0
 13 31  1  0  0  0
 14 15  2  0  0  0
 14 96  1  0  0  0
 15 97  1  0  0  0
 16 17  2  0  0  0
 16 21  1  0  0  0
 16 31  1  0  0  0
 17 18  1  0  0  0
 17 98  1  0  0  0
 18 19  2  0  0  0
 18 99  1  0  0  0
 19 20  1  0  0  0
 19 24  1  0  0  0
 20 21  2  0  0  0
 20100  1  0  0  0
 21 23  1  0  0  0
 22 28  1  0  0  0
 22 32  2  0  0  0
 26 27  1  0  0  0
 28101  1  0  0  0
 28102  1  0  0  0
 29103  1  0  0  0
 29104  1  0  0  0
 33 34  1  0  0  0
 33 66  1  0  0  0
 33 70  2  0  0  0
 34 36  1  0  0  0
 34 59  1  0  0  0
 34105  1  0  0  0
 35 44  2  0  0  0
 35 45  1  0  0  0
 35 68  1  0  0  0
 36 56  1  0  0  0
 36106  1  0  0  0
 37 39  1  0  0  0
 37 47  1  0  0  0
 37 66  1  0  0  0
 37107  1  0  0  0
 38 43  2  0  0  0
 38 46  1  0  0  0
 38 47  1  0  0  0
 39 64  1  0  0  0
 39 67  2  0  0  0
 40 52  1  0  0  0
 40 53  2  0  0  0
 40 58  1  0  0  0
 41108  1  0  0  0
 41109  1  0  0  0
 41110  1  0  0  0
 41 48  1  0  0  0
 42 43  1  0  0  0
 42 66  1  0  0  0
 42111  1  0  0  0
 42112  1  0  0  0
 43 44  1  0  0  0
 44113  1  0  0  0
 45 46  2  0  0  0
 45114  1  0  0  0
 46115  1  0  0  0
 47116  1  0  0  0
 47117  1  0  0  0
 48 56  1  0  0  0
 48 65  1  0  0  0
 48118  1  0  0  0
 49 50  1  0  0  0
 49 53  1  0  0  0
 49 64  1  0  0  0
 49119  1  0  0  0
 50 51  1  0  0  0
 50120  1  0  0  0
 50121  1  0  0  0
 51 52  1  0  0  0
 51122  1  0  0  0
 51123  1  0  0  0
 52124  1  0  0  0
 52125  1  0  0  0
 53 54  1  0  0  0
 54 55  2  0  0  0
 54126  1  0  0  0
 55 57  1  0  0  0
 55127  1  0  0  0
 56 69  2  0  0  0
 57 58  2  0  0  0
 57128  1  0  0  0
 58129  1  0  0  0
 59 60  1  0  0  0
 59 61  1  0  0  0
 59 62  1  0  0  0
 60130  1  0  0  0
 60131  1  0  0  0
 60132  1  0  0  0
 61133  1  0  0  0
 61134  1  0  0  0
 61135  1  0  0  0
 62136  1  0  0  0
 62137  1  0  0  0
 62138  1  0  0  0
 63 65  1  0  0  0
 63139  1  0  0  0
 63140  1  0  0  0
 63141  1  0  0  0
 64142  1  0  0  0
 65143  1  0  0  0
 68 79  1  0  0  0
 71 72  2  0  0  0
 71 74  1  0  0  0
 71144  1  0  0  0
 72 75  1  0  0  0
 72145  1  0  0  0
 73 74  2  0  0  0
 73 76  1  0  0  0
 73146  1  0  0  0
 74 77  1  0  0  0
 75 76  2  0  0  0
 75 81  1  0  0  0
 76 80  1  0  0  0
 77 82  1  0  0  0
 77 83  2  0  0  0
 78 79  1  0  0  0
 78 81  1  0  0  0
 78 84  2  0  0  0
 79147  1  0  0  0
 79148  1  0  0  0
 80149  1  0  0  0
 80150  1  0  0  0
 81151  1  0  0  0
 82152  1  0  0  0
 83153  1  0  0  0
 83154  1  0  0  0
M  CHG  1  83   1
M  ISO  4   1 100  68 101  79 101  82 100
M  END
> <chiral flag>
0

> <version>
0

> <s_m_source_file>
/data/baiqing/PycharmProjects/Reinvent-master-3.2/result/LINK_invent/BTK/process_docking_weight1_custom_product_contain_oxygen_bond_distance_aromatic_linkinvent_7_9_3/rearranged_h_0091.sdf

> <i_m_source_file_index>
97

> <r_mmod_Potential_Energy-OPLS-2005>
-277.815948486328

> <r_mmod_Stretch_Energy-OPLS-2005>
80.8000106811523

> <r_mmod_Bend_Energy-OPLS-2005>
162.599197387695

> <r_mmod_Torsional_Energy-OPLS-2005>
238.647125244141

> <r_mmod_Improper_Torsional_Energy-OPLS-2005>
13.3492975234985

> <r_mmod_Van_der_Waal_Energy-OPLS-2005>
155.42121887207

> <r_mmod_Electrostatic_Energy-OPLS-2005>
-507.015747070312

> <r_mmod_Solvation_Energy-OPLS-2005>
-477.428894042969

> <b_mmod_Minimization_Converged-OPLS-2005>
0

> <r_mmod_RMS_Derivative-OPLS-2005>
1.95873296260834

$$$$
