0
                    3D
 Structure written by MMmdl.
153161  0  0  1  0            999 V2000
  -30.6848  -14.5004   20.5345 C   0  0  0  0  0  0
  -30.4224  -12.3115   19.4319 C   0  0  0  0  0  0
  -29.5001  -12.5082   18.2095 C   0  0  0  0  0  0
  -28.0184  -12.3731   18.6158 C   0  0  0  0  0  0
  -27.6608  -13.2122   19.8731 C   0  0  2  0  0  0
  -28.7026  -13.0037   20.9962 C   0  0  0  0  0  0
  -25.2577  -13.8169   20.5675 C   0  0  0  0  0  0
  -24.1836  -13.0439   20.9170 C   0  0  0  0  0  0
  -24.6403  -11.6908   20.8726 C   0  0  0  0  0  0
  -23.9069  -10.4290   21.0397 C   0  0  0  0  0  0
  -24.3621   -9.4212   21.9180 C   0  0  0  0  0  0
  -23.6297   -8.2248   22.0752 C   0  0  0  0  0  0
  -22.4281   -8.0285   21.3543 C   0  0  0  0  0  0
  -21.9910   -9.0256   20.4644 C   0  0  0  0  0  0
  -22.7239  -10.2132   20.3047 C   0  0  0  0  0  0
  -21.6850   -6.0740   22.5282 C   0  0  0  0  0  0
  -21.4010   -6.5641   23.8215 C   0  0  0  0  0  0
  -21.3659   -5.6789   24.9174 C   0  0  0  0  0  0
  -21.6044   -4.3051   24.7213 C   0  0  0  0  0  0
  -21.8819   -3.8146   23.4332 C   0  0  0  0  0  0
  -21.9197   -4.6968   22.3396 C   0  0  0  0  0  0
  -22.7858  -13.5233   21.1834 C   0  0  0  0  0  0
  -22.1662   -4.2158   21.0969 F   0  0  0  0  0  0
  -21.5630   -3.4528   25.7723 F   0  0  0  0  0  0
  -30.0335  -13.3071   20.4438 N   0  0  0  0  0  0
  -26.3024  -12.9352   20.3357 N   0  0  0  0  0  0
  -25.9334  -11.6507   20.5763 N   0  0  0  0  0  0
  -22.0499  -12.8233   22.0391 N   0  0  0  0  0  0
  -25.4294  -15.1888   20.4097 N   0  0  0  0  0  0
  -31.8290  -14.6565   20.1007 O   0  0  0  0  0  0
  -21.6643   -6.8879   21.4241 O   0  0  0  0  0  0
  -22.3550  -14.5547   20.6697 O   0  0  0  0  0  0
  -24.6156  -31.8681   23.2099 C   0  0  0  0  0  0
  -25.9057  -32.4813   23.8406 C   0  0  1  0  0  0
  -27.2350  -27.4323   20.1019 C   0  0  0  0  0  0
  -25.5919  -33.8612   24.2351 N   0  0  0  0  0  0
  -23.4042  -30.4916   21.5486 C   0  0  2  0  0  0
  -24.8523  -28.9507   20.1197 C   0  0  0  0  0  0
  -22.7414  -29.4685   22.4991 C   0  0  0  0  0  0
  -18.0273  -28.1381   22.8494 C   0  0  0  0  0  0
  -24.1485  -36.7307   23.2631 C   0  0  0  0  0  0
  -25.9333  -30.8307   21.3648 C   0  0  0  0  0  0
  -26.0124  -29.4620   20.7184 C   0  0  0  0  0  0
  -27.2105  -28.7085   20.7120 C   0  0  0  0  0  0
  -26.0639  -26.9344   19.5001 C   0  0  0  0  0  0
  -24.8716  -27.6846   19.5085 C   0  0  0  0  0  0
  -23.6141  -29.8187   20.1657 C   0  0  0  0  0  0
  -25.4098  -36.3106   24.0349 C   0  0  1  0  0  0
  -20.5862  -28.3677   23.1310 C   0  0  2  0  0  0
  -20.6759  -26.9412   22.5414 C   0  0  0  0  0  0
  -19.5736  -26.6384   21.5212 C   0  0  0  0  0  0
  -18.1913  -26.7930   22.1617 C   0  0  0  0  0  0
  -19.1521  -28.8845   23.2896 C   0  0  0  0  0  0
  -18.9447  -30.1448   23.8902 C   0  0  0  0  0  0
  -17.6447  -30.6590   24.0557 C   0  0  0  0  0  0
  -25.9037  -34.9472   23.5146 C   0  0  0  0  0  0
  -16.5336  -29.9084   23.6329 C   0  0  0  0  0  0
  -16.7260  -28.6501   23.0351 C   0  0  0  0  0  0
  -26.4478  -31.6579   25.0732 C   0  0  0  0  0  0
  -25.3762  -31.3684   26.1498 C   0  0  0  0  0  0
  -27.0277  -30.3006   24.6107 C   0  0  0  0  0  0
  -27.6100  -32.4259   25.7463 C   0  0  0  0  0  0
  -27.5594  -37.1786   24.8449 C   0  0  0  0  0  0
  -21.4146  -29.3043   22.3720 N   0  0  0  0  0  0
  -26.4273  -37.3807   23.9443 N   0  0  0  0  0  0
  -24.6687  -31.0788   22.0993 N   0  0  0  0  0  0
  -23.4190  -28.8249   23.3050 O   0  0  0  0  0  0
  -28.3731  -26.6614   20.0441 O   0  0  0  0  0  0
  -26.5598  -34.8932   22.4704 O   0  0  0  0  0  0
  -23.5351  -32.1446   23.7495 O   0  0  0  0  0  0
  -31.0607  -18.9355   19.7340 C   0  0  0  0  0  0
  -31.0168  -17.5341   19.9081 C   0  0  0  0  0  0
  -29.2276  -19.2035   21.2962 C   0  0  0  0  0  0
  -30.1717  -19.7924   20.4251 C   0  0  0  0  0  0
  -30.0834  -16.9429   20.7962 C   0  0  0  0  0  0
  -29.1881  -17.8000   21.4788 C   0  0  0  0  0  0
  -28.6273  -25.8498   21.1230 C   0  0  0  0  0  0
  -29.0083  -24.5519   21.0585 C   0  0  0  0  0  0
  -30.2624  -21.2842   20.2173 C   0  0  0  0  0  0
  -29.1737  -21.9584   19.9850 N   0  0  0  0  0  0
  -31.5604  -21.7542   20.2793 N   0  0  0  0  0  0
  -29.9494  -15.5272   21.0135 N   0  0  0  0  0  0
  -30.4513  -23.9789   18.9195 O   0  0  0  0  0  0
  -27.9308  -23.8481   18.7510 O   0  0  0  0  0  0
  -28.2732  -17.2619   22.3211 F   0  0  0  0  0  0
  -29.1618  -23.5927   19.5218 S   0  0  0  0  0  0
  -31.4697  -12.4007   19.1371 H   0  0  0  0  0  0
  -30.3122  -11.3031   19.8346 H   0  0  0  0  0  0
  -29.7432  -11.7805   17.4345 H   0  0  0  0  0  0
  -29.6730  -13.4905   17.7674 H   0  0  0  0  0  0
  -27.8226  -11.3179   18.8064 H   0  0  0  0  0  0
  -27.3725  -12.6514   17.7819 H   0  0  0  0  0  0
  -27.6990  -14.2595   19.5728 H   0  0  0  0  0  0
  -28.6801  -11.9709   21.3469 H   0  0  0  0  0  0
  -28.4651  -13.6124   21.8705 H   0  0  0  0  0  0
  -25.2773   -9.5687   22.4745 H   0  0  0  0  0  0
  -24.0014   -7.4631   22.7464 H   0  0  0  0  0  0
  -21.0843   -8.8766   19.8946 H   0  0  0  0  0  0
  -22.3708  -10.9663   19.6141 H   0  0  0  0  0  0
  -21.1996   -7.6151   23.9722 H   0  0  0  0  0  0
  -21.1479   -6.0515   25.9082 H   0  0  0  0  0  0
  -22.0595   -2.7609   23.2823 H   0  0  0  0  0  0
  -22.4111  -11.9896   22.4785 H   0  0  0  0  0  0
  -21.1114  -13.1257   22.2577 H   0  0  0  0  0  0
  -24.6645  -15.8444   20.5248 H   0  0  0  0  0  0
  -26.2890  -15.6319   20.1105 H   0  0  0  0  0  0
  -26.7143  -32.5526   23.1188 H   0  0  0  0  0  0
  -25.0104  -33.9768   25.0524 H   0  0  0  0  0  0
  -22.6940  -31.3089   21.4059 H   0  0  0  0  0  0
  -23.3777  -35.9597   23.3207 H   0  0  0  0  0  0
  -24.3617  -36.9011   22.2065 H   0  0  0  0  0  0
  -23.7187  -37.6464   23.6701 H   0  0  0  0  0  0
  -26.0456  -31.5922   20.5917 H   0  0  0  0  0  0
  -26.8211  -30.8863   21.9828 H   0  0  0  0  0  0
  -28.1093  -29.0992   21.1685 H   0  0  0  0  0  0
  -26.0801  -25.9634   19.0251 H   0  0  0  0  0  0
  -23.9826  -27.2830   19.0418 H   0  0  0  0  0  0
  -23.7225  -30.5892   19.4013 H   0  0  0  0  0  0
  -22.7383  -29.2365   19.8727 H   0  0  0  0  0  0
  -25.1261  -36.1950   25.0835 H   0  0  0  0  0  0
  -20.9956  -28.3227   24.1430 H   0  0  0  0  0  0
  -20.5637  -26.2292   23.3605 H   0  0  0  0  0  0
  -21.6628  -26.7437   22.1209 H   0  0  0  0  0  0
  -19.6887  -25.6297   21.1242 H   0  0  0  0  0  0
  -19.6683  -27.3193   20.6745 H   0  0  0  0  0  0
  -17.4191  -26.6710   21.3998 H   0  0  0  0  0  0
  -18.0287  -26.0059   22.8992 H   0  0  0  0  0  0
  -19.7928  -30.7257   24.2274 H   0  0  0  0  0  0
  -17.5009  -31.6274   24.5154 H   0  0  0  0  0  0
  -15.5338  -30.2980   23.7656 H   0  0  0  0  0  0
  -15.8663  -28.0818   22.7062 H   0  0  0  0  0  0
  -24.5916  -30.7052   25.7842 H   0  0  0  0  0  0
  -24.8978  -32.2828   26.5016 H   0  0  0  0  0  0
  -25.8128  -30.8801   27.0224 H   0  0  0  0  0  0
  -26.2792  -29.6766   24.1214 H   0  0  0  0  0  0
  -27.4069  -29.7258   25.4569 H   0  0  0  0  0  0
  -27.8637  -30.4287   23.9232 H   0  0  0  0  0  0
  -27.2803  -33.3604   26.2017 H   0  0  0  0  0  0
  -28.3926  -32.6722   25.0273 H   0  0  0  0  0  0
  -28.0745  -31.8372   26.5387 H   0  0  0  0  0  0
  -28.2542  -38.0154   24.7607 H   0  0  0  0  0  0
  -28.1164  -36.2702   24.6111 H   0  0  0  0  0  0
  -27.2353  -37.1219   25.8857 H   0  0  0  0  0  0
  -20.9314  -29.8762   21.6940 H   0  0  0  0  0  0
  -26.0153  -38.2864   24.1513 H   0  0  0  0  0  0
  -31.7814  -19.3504   19.0427 H   0  0  0  0  0  0
  -31.7070  -16.9373   19.3325 H   0  0  0  0  0  0
  -28.5347  -19.8293   21.8397 H   0  0  0  0  0  0
  -28.5141  -26.3738   22.0615 H   0  0  0  0  0  0
  -29.2318  -23.9809   21.9454 H   0  0  0  0  0  0
  -32.3628  -21.1745   20.4938 H   0  0  0  0  0  0
  -31.8535  -22.6904   20.0221 H   0  0  0  0  0  0
  -29.0922  -15.2594   21.4742 H   0  0  0  0  0  0
  1 25  1  0  0  0
  1 30  2  0  0  0
  1 82  1  0  0  0
  2  3  1  0  0  0
  2 25  1  0  0  0
  2 87  1  0  0  0
  2 88  1  0  0  0
  3  4  1  0  0  0
  3 89  1  0  0  0
  3 90  1  0  0  0
  4  5  1  0  0  0
  4 91  1  0  0  0
  4 92  1  0  0  0
  5  6  1  0  0  0
  5 26  1  0  0  0
  5 93  1  0  0  0
  6 25  1  0  0  0
  6 94  1  0  0  0
  6 95  1  0  0  0
  7  8  2  0  0  0
  7 26  1  0  0  0
  7 29  1  0  0  0
  8  9  1  0  0  0
  8 22  1  0  0  0
  9 10  1  0  0  0
  9 27  2  0  0  0
 10 11  2  0  0  0
 10 15  1  0  0  0
 11 12  1  0  0  0
 11 96  1  0  0  0
 12 13  2  0  0  0
 12 97  1  0  0  0
 13 14  1  0  0  0
 13 31  1  0  0  0
 14 15  2  0  0  0
 14 98  1  0  0  0
 15 99  1  0  0  0
 16 17  2  0  0  0
 16 21  1  0  0  0
 16 31  1  0  0  0
 17 18  1  0  0  0
 17100  1  0  0  0
 18 19  2  0  0  0
 18101  1  0  0  0
 19 20  1  0  0  0
 19 24  1  0  0  0
 20 21  2  0  0  0
 20102  1  0  0  0
 21 23  1  0  0  0
 22 28  1  0  0  0
 22 32  2  0  0  0
 26 27  1  0  0  0
 28103  1  0  0  0
 28104  1  0  0  0
 29105  1  0  0  0
 29106  1  0  0  0
 33 34  1  0  0  0
 33 66  1  0  0  0
 33 70  2  0  0  0
 34 36  1  0  0  0
 34 59  1  0  0  0
 34107  1  0  0  0
 35 44  2  0  0  0
 35 45  1  0  0  0
 35 68  1  0  0  0
 36 56  1  0  0  0
 36108  1  0  0  0
 37 39  1  0  0  0
 37 47  1  0  0  0
 37 66  1  0  0  0
 37109  1  0  0  0
 38 43  2  0  0  0
 38 46  1  0  0  0
 38 47  1  0  0  0
 39 64  1  0  0  0
 39 67  2  0  0  0
 40 52  1  0  0  0
 40 53  2  0  0  0
 40 58  1  0  0  0
 41110  1  0  0  0
 41111  1  0  0  0
 41112  1  0  0  0
 41 48  1  0  0  0
 42 43  1  0  0  0
 42 66  1  0  0  0
 42113  1  0  0  0
 42114  1  0  0  0
 43 44  1  0  0  0
 44115  1  0  0  0
 45 46  2  0  0  0
 45116  1  0  0  0
 46117  1  0  0  0
 47118  1  0  0  0
 47119  1  0  0  0
 48 56  1  0  0  0
 48 65  1  0  0  0
 48120  1  0  0  0
 49 50  1  0  0  0
 49 53  1  0  0  0
 49 64  1  0  0  0
 49121  1  0  0  0
 50 51  1  0  0  0
 50122  1  0  0  0
 50123  1  0  0  0
 51 52  1  0  0  0
 51124  1  0  0  0
 51125  1  0  0  0
 52126  1  0  0  0
 52127  1  0  0  0
 53 54  1  0  0  0
 54 55  2  0  0  0
 54128  1  0  0  0
 55 57  1  0  0  0
 55129  1  0  0  0
 56 69  2  0  0  0
 57 58  2  0  0  0
 57130  1  0  0  0
 58131  1  0  0  0
 59 60  1  0  0  0
 59 61  1  0  0  0
 59 62  1  0  0  0
 60132  1  0  0  0
 60133  1  0  0  0
 60134  1  0  0  0
 61135  1  0  0  0
 61136  1  0  0  0
 61137  1  0  0  0
 62138  1  0  0  0
 62139  1  0  0  0
 62140  1  0  0  0
 63 65  1  0  0  0
 63141  1  0  0  0
 63142  1  0  0  0
 63143  1  0  0  0
 64144  1  0  0  0
 65145  1  0  0  0
 68 77  1  0  0  0
 71 72  2  0  0  0
 71 74  1  0  0  0
 71146  1  0  0  0
 72 75  1  0  0  0
 72147  1  0  0  0
 73 74  2  0  0  0
 73 76  1  0  0  0
 73148  1  0  0  0
 74 79  1  0  0  0
 75 76  2  0  0  0
 75 82  1  0  0  0
 76 85  1  0  0  0
 77 78  2  0  0  0
 77149  1  0  0  0
 78150  1  0  0  0
 78 86  1  0  0  0
 79 80  2  0  0  0
 79 81  1  0  0  0
 80 86  1  0  0  0
 81151  1  0  0  0
 81152  1  0  0  0
 82153  1  0  0  0
 83 86  2  0  0  0
 84 86  2  0  0  0
M  ISO  4   1 100  68 101  77 101  82 100
M  END
> <chiral flag>
0

> <version>
0

> <s_m_source_file>
/data/baiqing/PycharmProjects/Reinvent-master-3.2/result/LINK_invent/BTK/process_docking_weight1_custom_product_contain_oxygen_bond_distance_aromatic_linkinvent_7_9_3/rearranged_h_0087.sdf

> <i_m_source_file_index>
1

> <r_mmod_Potential_Energy-OPLS-2005>
-142.382141113281

> <r_mmod_Stretch_Energy-OPLS-2005>
40.4037742614746

> <r_mmod_Bend_Energy-OPLS-2005>
115.082023620605

> <r_mmod_Torsional_Energy-OPLS-2005>
228.378967285156

> <r_mmod_Improper_Torsional_Energy-OPLS-2005>
3.66319179534912

> <r_mmod_Van_der_Waal_Energy-OPLS-2005>
148.934371948242

> <r_mmod_Electrostatic_Energy-OPLS-2005>
-450.65625

> <r_mmod_Solvation_Energy-OPLS-2005>
-242.771545410156

> <b_mmod_Minimization_Converged-OPLS-2005>
0

> <r_mmod_RMS_Derivative-OPLS-2005>
1.58306264877319

$$$$
1
                    3D
 Structure written by MMmdl.
158167  0  0  1  0            999 V2000
  -30.6589  -14.7553   20.4431 C   0  0  0  0  0  0
  -30.4184  -12.4605   19.4822 C   0  0  0  0  0  0
  -29.5066  -12.5025   18.2382 C   0  0  0  0  0  0
  -28.0333  -12.3322   18.6510 C   0  0  0  0  0  0
  -27.6363  -13.2432   19.8431 C   0  0  2  0  0  0
  -28.6819  -13.2152   20.9793 C   0  0  0  0  0  0
  -25.2471  -13.8226   20.5690 C   0  0  0  0  0  0
  -24.1780  -13.0451   20.9215 C   0  0  0  0  0  0
  -24.6396  -11.6936   20.8755 C   0  0  0  0  0  0
  -23.9083  -10.4305   21.0413 C   0  0  0  0  0  0
  -24.3636   -9.4212   21.9183 C   0  0  0  0  0  0
  -23.6308   -8.2250   22.0753 C   0  0  0  0  0  0
  -22.4288   -8.0292   21.3549 C   0  0  0  0  0  0
  -21.9930   -9.0262   20.4646 C   0  0  0  0  0  0
  -22.7261  -10.2138   20.3054 C   0  0  0  0  0  0
  -21.6848   -6.0745   22.5283 C   0  0  0  0  0  0
  -21.4013   -6.5644   23.8222 C   0  0  0  0  0  0
  -21.3658   -5.6792   24.9179 C   0  0  0  0  0  0
  -21.6041   -4.3058   24.7226 C   0  0  0  0  0  0
  -21.8817   -3.8155   23.4347 C   0  0  0  0  0  0
  -21.9194   -4.6973   22.3405 C   0  0  0  0  0  0
  -22.7798  -13.5213   21.1884 C   0  0  0  0  0  0
  -22.1658   -4.2158   21.0982 F   0  0  0  0  0  0
  -21.5628   -3.4542   25.7737 F   0  0  0  0  0  0
  -29.9831  -13.5523   20.3899 N   0  0  0  0  0  0
  -26.2906  -12.9458   20.3263 N   0  0  0  0  0  0
  -25.9328  -11.6587   20.5752 N   0  0  0  0  0  0
  -22.0449  -12.8189   22.0433 N   0  0  0  0  0  0
  -25.4140  -15.1955   20.4099 N   0  0  0  0  0  0
  -31.8623  -14.7438   20.1808 O   0  0  0  0  0  0
  -21.6646   -6.8889   21.4252 O   0  0  0  0  0  0
  -22.3471  -14.5515   20.6730 O   0  0  0  0  0  0
  -24.6317  -31.8566   23.1999 C   0  0  0  0  0  0
  -25.9134  -32.4767   23.8339 C   0  0  1  0  0  0
  -27.2041  -27.2386   20.1274 C   0  0  0  0  0  0
  -25.5942  -33.8570   24.2253 N   0  0  0  0  0  0
  -23.4288  -30.4840   21.5427 C   0  0  2  0  0  0
  -24.8758  -28.9403   20.1040 C   0  0  0  0  0  0
  -22.7518  -29.4621   22.4887 C   0  0  0  0  0  0
  -18.0297  -28.1400   22.8487 C   0  0  0  0  0  0
  -24.1490  -36.7279   23.2641 C   0  0  0  0  0  0
  -25.9791  -30.7599   21.3888 C   0  0  0  0  0  0
  -26.0479  -29.3824   20.7300 C   0  0  0  0  0  0
  -27.2122  -28.5417   20.7416 C   0  0  0  0  0  0
  -26.0147  -26.9025   19.4303 C   0  0  0  0  0  0
  -24.8666  -27.7093   19.4418 C   0  0  0  0  0  0
  -23.6479  -29.8280   20.1555 C   0  0  0  0  0  0
  -25.4116  -36.3066   24.0324 C   0  0  1  0  0  0
  -20.5907  -28.3707   23.1264 C   0  0  2  0  0  0
  -20.6790  -26.9425   22.5403 C   0  0  0  0  0  0
  -19.5753  -26.6392   21.5221 C   0  0  0  0  0  0
  -18.1938  -26.7938   22.1639 C   0  0  0  0  0  0
  -19.1553  -28.8872   23.2871 C   0  0  0  0  0  0
  -18.9473  -30.1480   23.8885 C   0  0  0  0  0  0
  -17.6468  -30.6597   24.0571 C   0  0  0  0  0  0
  -25.9061  -34.9440   23.5083 C   0  0  0  0  0  0
  -16.5355  -29.9097   23.6346 C   0  0  0  0  0  0
  -16.7286  -28.6517   23.0363 C   0  0  0  0  0  0
  -26.4486  -31.6592   25.0726 C   0  0  0  0  0  0
  -25.3699  -31.3778   26.1439 C   0  0  0  0  0  0
  -27.0336  -30.2999   24.6244 C   0  0  0  0  0  0
  -27.6033  -32.4335   25.7514 C   0  0  0  0  0  0
  -27.5582  -37.1800   24.8457 C   0  0  0  0  0  0
  -21.4216  -29.3058   22.3654 N   0  0  0  0  0  0
  -26.4278  -37.3771   23.9410 N   0  0  0  0  0  0
  -24.6991  -31.0535   22.0983 N   0  0  0  0  0  0
  -23.4210  -28.8156   23.2984 O   0  0  0  0  0  0
  -28.2531  -26.2798   20.2367 O   0  0  0  0  0  0
  -26.5635  -34.8907   22.4654 O   0  0  0  0  0  0
  -23.5460  -32.1405   23.7284 O   0  0  0  0  0  0
  -32.0516  -18.9219   19.3203 C   0  0  0  0  0  0
  -31.2891  -20.0571   19.6280 C   0  0  0  0  0  0
  -31.6024  -17.6286   19.6413 C   0  0  0  0  0  0
  -28.9943  -23.2087   21.6913 C   0  0  0  0  0  0
  -29.5918  -18.5956   20.6026 C   0  0  0  0  0  0
  -28.6608  -23.5194   20.3368 C   0  0  0  0  0  0
  -30.0368  -19.9518   20.2613 C   0  0  0  0  0  0
  -30.3695  -17.3844   20.3017 C   0  0  0  0  0  0
  -28.9113  -22.3013   19.6597 C   0  0  0  0  0  0
  -29.4166  -21.9013   21.7768 C   0  0  0  0  0  0
  -28.7107  -22.0337   18.2170 C   0  0  0  0  0  0
  -28.6550  -20.6120   17.6685 C   0  0  0  0  0  0
  -27.9533  -24.8606   19.8080 C   0  0  0  0  0  0
  -29.4100  -21.2740   20.5379 N   0  0  0  0  0  0
  -29.9625  -15.9626   20.5957 N   0  0  0  0  0  0
  -28.5418  -22.9504   17.4112 O   0  0  0  0  0  0
  -29.8447  -21.2310   22.8797 O   0  0  0  0  0  0
  -31.4619  -12.5554   19.1770 H   0  0  0  0  0  0
  -30.3445  -11.4936   19.9830 H   0  0  0  0  0  0
  -29.7898  -11.7205   17.5324 H   0  0  0  0  0  0
  -29.6375  -13.4511   17.7155 H   0  0  0  0  0  0
  -27.8897  -11.2860   18.9211 H   0  0  0  0  0  0
  -27.3783  -12.5183   17.7988 H   0  0  0  0  0  0
  -27.6200  -14.2582   19.4456 H   0  0  0  0  0  0
  -28.7158  -12.2326   21.4522 H   0  0  0  0  0  0
  -28.4158  -13.9273   21.7613 H   0  0  0  0  0  0
  -25.2783   -9.5672   22.4761 H   0  0  0  0  0  0
  -24.0010   -7.4631   22.7466 H   0  0  0  0  0  0
  -21.0864   -8.8779   19.8948 H   0  0  0  0  0  0
  -22.3726  -10.9673   19.6157 H   0  0  0  0  0  0
  -21.2003   -7.6151   23.9721 H   0  0  0  0  0  0
  -21.1478   -6.0526   25.9077 H   0  0  0  0  0  0
  -22.0597   -2.7620   23.2844 H   0  0  0  0  0  0
  -22.4075  -11.9854   22.4817 H   0  0  0  0  0  0
  -21.1057  -13.1197   22.2636 H   0  0  0  0  0  0
  -24.6436  -15.8476   20.5139 H   0  0  0  0  0  0
  -26.2580  -15.6357   20.0669 H   0  0  0  0  0  0
  -26.7210  -32.5400   23.1086 H   0  0  0  0  0  0
  -25.0081  -33.9716   25.0396 H   0  0  0  0  0  0
  -22.7248  -31.3066   21.4023 H   0  0  0  0  0  0
  -23.3748  -35.9617   23.3280 H   0  0  0  0  0  0
  -24.3592  -36.8917   22.2057 H   0  0  0  0  0  0
  -23.7237  -37.6474   23.6672 H   0  0  0  0  0  0
  -26.1270  -31.5181   20.6177 H   0  0  0  0  0  0
  -26.8538  -30.8052   22.0255 H   0  0  0  0  0  0
  -28.0976  -28.8674   21.2715 H   0  0  0  0  0  0
  -25.9125  -25.9852   18.8731 H   0  0  0  0  0  0
  -23.9770  -27.3757   18.9225 H   0  0  0  0  0  0
  -23.7722  -30.6068   19.4016 H   0  0  0  0  0  0
  -22.7650  -29.2622   19.8500 H   0  0  0  0  0  0
  -25.1308  -36.1910   25.0814 H   0  0  0  0  0  0
  -21.0014  -28.3277   24.1378 H   0  0  0  0  0  0
  -20.5706  -26.2327   23.3611 H   0  0  0  0  0  0
  -21.6661  -26.7459   22.1199 H   0  0  0  0  0  0
  -19.6890  -25.6301   21.1260 H   0  0  0  0  0  0
  -19.6671  -27.3211   20.6750 H   0  0  0  0  0  0
  -17.4215  -26.6707   21.4024 H   0  0  0  0  0  0
  -18.0314  -26.0082   22.9033 H   0  0  0  0  0  0
  -19.7943  -30.7315   24.2234 H   0  0  0  0  0  0
  -17.5018  -31.6270   24.5194 H   0  0  0  0  0  0
  -15.5364  -30.2998   23.7661 H   0  0  0  0  0  0
  -15.8687  -28.0837   22.7072 H   0  0  0  0  0  0
  -24.5889  -30.7097   25.7791 H   0  0  0  0  0  0
  -24.8869  -32.2964   26.4778 H   0  0  0  0  0  0
  -25.8002  -30.9032   27.0264 H   0  0  0  0  0  0
  -26.2936  -29.6749   24.1232 H   0  0  0  0  0  0
  -27.3960  -29.7256   25.4780 H   0  0  0  0  0  0
  -27.8836  -30.4256   23.9536 H   0  0  0  0  0  0
  -27.2640  -33.3655   26.2048 H   0  0  0  0  0  0
  -28.3877  -32.6864   25.0370 H   0  0  0  0  0  0
  -28.0660  -31.8483   26.5471 H   0  0  0  0  0  0
  -28.2585  -38.0118   24.7555 H   0  0  0  0  0  0
  -28.1093  -36.2653   24.6221 H   0  0  0  0  0  0
  -27.2312  -37.1384   25.8863 H   0  0  0  0  0  0
  -20.9400  -29.8798   21.6878 H   0  0  0  0  0  0
  -26.0136  -38.2830   24.1435 H   0  0  0  0  0  0
  -33.0059  -19.0454   18.8278 H   0  0  0  0  0  0
  -31.6804  -21.0336   19.3774 H   0  0  0  0  0  0
  -32.2637  -16.8344   19.3407 H   0  0  0  0  0  0
  -28.9024  -23.8848   22.5294 H   0  0  0  0  0  0
  -28.6437  -18.4936   21.1106 H   0  0  0  0  0  0
  -28.1296  -19.9506   18.3547 H   0  0  0  0  0  0
  -29.6591  -20.2290   17.4957 H   0  0  0  0  0  0
  -28.1273  -20.5964   16.7153 H   0  0  0  0  0  0
  -26.9287  -24.6370   20.1006 H   0  0  0  0  0  0
  -27.9640  -24.8777   18.7216 H   0  0  0  0  0  0
  -28.9979  -15.8414   20.8665 H   0  0  0  0  0  0
  -29.8257  -21.8394   23.6120 H   0  0  0  0  0  0
  1 25  1  0  0  0
  1 30  2  0  0  0
  1 85  1  0  0  0
  2  3  1  0  0  0
  2 25  1  0  0  0
  2 88  1  0  0  0
  2 89  1  0  0  0
  3  4  1  0  0  0
  3 90  1  0  0  0
  3 91  1  0  0  0
  4  5  1  0  0  0
  4 92  1  0  0  0
  4 93  1  0  0  0
  5  6  1  0  0  0
  5 26  1  0  0  0
  5 94  1  0  0  0
  6 25  1  0  0  0
  6 95  1  0  0  0
  6 96  1  0  0  0
  7  8  2  0  0  0
  7 26  1  0  0  0
  7 29  1  0  0  0
  8  9  1  0  0  0
  8 22  1  0  0  0
  9 10  1  0  0  0
  9 27  2  0  0  0
 10 11  2  0  0  0
 10 15  1  0  0  0
 11 12  1  0  0  0
 11 97  1  0  0  0
 12 13  2  0  0  0
 12 98  1  0  0  0
 13 14  1  0  0  0
 13 31  1  0  0  0
 14 15  2  0  0  0
 14 99  1  0  0  0
 15100  1  0  0  0
 16 17  2  0  0  0
 16 21  1  0  0  0
 16 31  1  0  0  0
 17 18  1  0  0  0
 17101  1  0  0  0
 18 19  2  0  0  0
 18102  1  0  0  0
 19 20  1  0  0  0
 19 24  1  0  0  0
 20 21  2  0  0  0
 20103  1  0  0  0
 21 23  1  0  0  0
 22 28  1  0  0  0
 22 32  2  0  0  0
 26 27  1  0  0  0
 28104  1  0  0  0
 28105  1  0  0  0
 29106  1  0  0  0
 29107  1  0  0  0
 33 34  1  0  0  0
 33 66  1  0  0  0
 33 70  2  0  0  0
 34 36  1  0  0  0
 34 59  1  0  0  0
 34108  1  0  0  0
 35 44  2  0  0  0
 35 45  1  0  0  0
 35 68  1  0  0  0
 36 56  1  0  0  0
 36109  1  0  0  0
 37 39  1  0  0  0
 37 47  1  0  0  0
 37 66  1  0  0  0
 37110  1  0  0  0
 38 43  2  0  0  0
 38 46  1  0  0  0
 38 47  1  0  0  0
 39 64  1  0  0  0
 39 67  2  0  0  0
 40 52  1  0  0  0
 40 53  2  0  0  0
 40 58  1  0  0  0
 41111  1  0  0  0
 41112  1  0  0  0
 41113  1  0  0  0
 41 48  1  0  0  0
 42 43  1  0  0  0
 42 66  1  0  0  0
 42114  1  0  0  0
 42115  1  0  0  0
 43 44  1  0  0  0
 44116  1  0  0  0
 45 46  2  0  0  0
 45117  1  0  0  0
 46118  1  0  0  0
 47119  1  0  0  0
 47120  1  0  0  0
 48 56  1  0  0  0
 48 65  1  0  0  0
 48121  1  0  0  0
 49 50  1  0  0  0
 49 53  1  0  0  0
 49 64  1  0  0  0
 49122  1  0  0  0
 50 51  1  0  0  0
 50123  1  0  0  0
 50124  1  0  0  0
 51 52  1  0  0  0
 51125  1  0  0  0
 51126  1  0  0  0
 52127  1  0  0  0
 52128  1  0  0  0
 53 54  1  0  0  0
 54 55  2  0  0  0
 54129  1  0  0  0
 55 57  1  0  0  0
 55130  1  0  0  0
 56 69  2  0  0  0
 57 58  2  0  0  0
 57131  1  0  0  0
 58132  1  0  0  0
 59 60  1  0  0  0
 59 61  1  0  0  0
 59 62  1  0  0  0
 60133  1  0  0  0
 60134  1  0  0  0
 60135  1  0  0  0
 61136  1  0  0  0
 61137  1  0  0  0
 61138  1  0  0  0
 62139  1  0  0  0
 62140  1  0  0  0
 62141  1  0  0  0
 63 65  1  0  0  0
 63142  1  0  0  0
 63143  1  0  0  0
 63144  1  0  0  0
 64145  1  0  0  0
 65146  1  0  0  0
 68 83  1  0  0  0
 71 72  2  0  0  0
 71 73  1  0  0  0
 71147  1  0  0  0
 72 77  1  0  0  0
 72148  1  0  0  0
 73 78  2  0  0  0
 73149  1  0  0  0
 74 76  1  0  0  0
 74 80  2  0  0  0
 74150  1  0  0  0
 75 77  2  0  0  0
 75 78  1  0  0  0
 75151  1  0  0  0
 76 79  2  0  0  0
 76 83  1  0  0  0
 77 84  1  0  0  0
 78 85  1  0  0  0
 79 81  1  0  0  0
 79 84  1  0  0  0
 80 84  1  0  0  0
 80 87  1  0  0  0
 81 82  1  0  0  0
 81 86  2  0  0  0
 82152  1  0  0  0
 82153  1  0  0  0
 82154  1  0  0  0
 83155  1  0  0  0
 83156  1  0  0  0
 85157  1  0  0  0
 87158  1  0  0  0
M  ISO  4   1 100  68 101  83 101  85 100
M  END
> <chiral flag>
0

> <version>
0

> <s_m_source_file>
/data/baiqing/PycharmProjects/Reinvent-master-3.2/result/LINK_invent/BTK/process_docking_weight1_custom_product_contain_oxygen_bond_distance_aromatic_linkinvent_7_9_3/rearranged_h_0087.sdf

> <i_m_source_file_index>
2

> <r_mmod_Potential_Energy-OPLS-2005>
209.047790527344

> <r_mmod_Stretch_Energy-OPLS-2005>
144.867721557617

> <r_mmod_Bend_Energy-OPLS-2005>
187.5390625

> <r_mmod_Torsional_Energy-OPLS-2005>
246.829513549805

> <r_mmod_Improper_Torsional_Energy-OPLS-2005>
6.79879236221313

> <r_mmod_Van_der_Waal_Energy-OPLS-2005>
158.258239746094

> <r_mmod_Electrostatic_Energy-OPLS-2005>
-409.337982177734

> <r_mmod_Solvation_Energy-OPLS-2005>
-230.619827270508

> <b_mmod_Minimization_Converged-OPLS-2005>
0

> <r_mmod_RMS_Derivative-OPLS-2005>
2.14010500907898

$$$$
2
                    3D
 Structure written by MMmdl.
152161  0  0  1  0            999 V2000
  -30.4626  -15.0691   20.4130 C   0  0  0  0  0  0
  -30.4500  -12.6620   19.5373 C   0  0  0  0  0  0
  -29.5440  -12.5617   18.2840 C   0  0  0  0  0  0
  -28.0728  -12.3278   18.6843 C   0  0  0  0  0  0
  -27.6306  -13.2541   19.8473 C   0  0  2  0  0  0
  -28.6629  -13.2689   20.9908 C   0  0  0  0  0  0
  -25.2455  -13.8227   20.5672 C   0  0  0  0  0  0
  -24.1761  -13.0432   20.9135 C   0  0  0  0  0  0
  -24.6394  -11.6923   20.8703 C   0  0  0  0  0  0
  -23.9065  -10.4298   21.0400 C   0  0  0  0  0  0
  -24.3627   -9.4204   21.9174 C   0  0  0  0  0  0
  -23.6296   -8.2243   22.0748 C   0  0  0  0  0  0
  -22.4286   -8.0271   21.3537 C   0  0  0  0  0  0
  -21.9912   -9.0226   20.4635 C   0  0  0  0  0  0
  -22.7241  -10.2099   20.3040 C   0  0  0  0  0  0
  -21.6843   -6.0732   22.5272 C   0  0  0  0  0  0
  -21.4011   -6.5631   23.8202 C   0  0  0  0  0  0
  -21.3674   -5.6793   24.9177 C   0  0  0  0  0  0
  -21.6036   -4.3044   24.7211 C   0  0  0  0  0  0
  -21.8823   -3.8133   23.4332 C   0  0  0  0  0  0
  -21.9181   -4.6964   22.3400 C   0  0  0  0  0  0
  -22.7786  -13.5191   21.1834 C   0  0  0  0  0  0
  -22.1668   -4.2158   21.0981 F   0  0  0  0  0  0
  -21.5631   -3.4517   25.7709 F   0  0  0  0  0  0
  -29.9268  -13.7606   20.4182 N   0  0  0  0  0  0
  -26.2890  -12.9467   20.3243 N   0  0  0  0  0  0
  -25.9331  -11.6578   20.5672 N   0  0  0  0  0  0
  -22.0461  -12.8181   22.0424 N   0  0  0  0  0  0
  -25.4212  -15.1956   20.4200 N   0  0  0  0  0  0
  -31.6584  -15.1316   20.0917 O   0  0  0  0  0  0
  -21.6643   -6.8869   21.4235 O   0  0  0  0  0  0
  -22.3449  -14.5500   20.6689 O   0  0  0  0  0  0
  -24.6479  -31.8356   23.1828 C   0  0  0  0  0  0
  -25.9229  -32.4660   23.8213 C   0  0  1  0  0  0
  -27.2196  -27.0751   20.1704 C   0  0  0  0  0  0
  -25.5978  -33.8471   24.2158 N   0  0  0  0  0  0
  -23.4560  -30.4547   21.5282 C   0  0  2  0  0  0
  -24.9021  -28.8643   20.1135 C   0  0  0  0  0  0
  -22.7581  -29.4534   22.4819 C   0  0  0  0  0  0
  -18.0307  -28.1404   22.8462 C   0  0  0  0  0  0
  -24.1497  -36.7240   23.2640 C   0  0  0  0  0  0
  -26.0108  -30.6908   21.3896 C   0  0  0  0  0  0
  -26.0785  -29.2921   20.7415 C   0  0  0  0  0  0
  -27.2326  -28.4133   20.7558 C   0  0  0  0  0  0
  -26.0221  -26.7621   19.4938 C   0  0  0  0  0  0
  -24.8903  -27.6140   19.4735 C   0  0  0  0  0  0
  -23.6813  -29.7759   20.1492 C   0  0  0  0  0  0
  -25.4123  -36.3006   24.0311 C   0  0  1  0  0  0
  -20.5924  -28.3738   23.1222 C   0  0  2  0  0  0
  -20.6809  -26.9445   22.5397 C   0  0  0  0  0  0
  -19.5787  -26.6387   21.5208 C   0  0  0  0  0  0
  -18.1959  -26.7950   22.1599 C   0  0  0  0  0  0
  -19.1562  -28.8897   23.2831 C   0  0  0  0  0  0
  -18.9479  -30.1490   23.8857 C   0  0  0  0  0  0
  -17.6479  -30.6604   24.0566 C   0  0  0  0  0  0
  -25.9095  -34.9386   23.5034 C   0  0  0  0  0  0
  -16.5374  -29.9092   23.6345 C   0  0  0  0  0  0
  -16.7295  -28.6517   23.0359 C   0  0  0  0  0  0
  -26.4541  -31.6545   25.0673 C   0  0  0  0  0  0
  -25.3728  -31.3737   26.1378 C   0  0  0  0  0  0
  -27.0436  -30.2933   24.6322 C   0  0  0  0  0  0
  -27.6061  -32.4316   25.7468 C   0  0  0  0  0  0
  -27.5570  -37.1762   24.8464 C   0  0  0  0  0  0
  -21.4259  -29.3050   22.3580 N   0  0  0  0  0  0
  -26.4275  -37.3724   23.9420 N   0  0  0  0  0  0
  -24.7245  -31.0182   22.0890 N   0  0  0  0  0  0
  -23.4186  -28.8106   23.3016 O   0  0  0  0  0  0
  -28.2942  -26.0923   20.1748 O   0  0  0  0  0  0
  -26.5661  -34.8899   22.4602 O   0  0  0  0  0  0
  -23.5581  -32.1246   23.7054 O   0  0  0  0  0  0
  -31.3183  -19.5777   18.9381 C   0  0  0  0  0  0
  -30.9817  -18.2979   19.4323 C   0  0  0  0  0  0
  -30.5809  -20.7471   19.2359 C   0  0  0  0  0  0
  -29.1331  -19.3704   20.5746 C   0  0  0  0  0  0
  -27.1938  -23.8054   20.9184 C   0  0  0  0  0  0
  -29.8665  -18.0724   20.2677 C   0  0  0  0  0  0
  -29.4490  -20.7682   20.0866 C   0  0  0  0  0  0
  -28.2160  -24.6102   20.3101 C   0  0  0  0  0  0
  -27.5242  -22.4497   20.9079 C   0  0  0  0  0  0
  -29.1418  -23.5679   19.9781 C   0  0  0  0  0  0
  -29.5394  -16.5025   20.6934 C   0  0  0  0  0  0
  -28.4343  -16.3786   21.2989 N   0  0  0  0  0  0
  -28.7629  -22.1707   20.3061 N   0  0  0  0  0  0
  -26.7790  -21.4368   21.4328 O   0  0  0  0  0  0
  -30.3514  -23.8097   19.4040 O   0  0  0  0  0  0
  -31.4802  -12.8412   19.2261 H   0  0  0  0  0  0
  -30.4723  -11.7080   20.0676 H   0  0  0  0  0  0
  -29.8870  -11.7612   17.6278 H   0  0  0  0  0  0
  -29.6321  -13.4817   17.7049 H   0  0  0  0  0  0
  -27.9758  -11.2852   18.9876 H   0  0  0  0  0  0
  -27.4205  -12.4593   17.8192 H   0  0  0  0  0  0
  -27.5920  -14.2597   19.4304 H   0  0  0  0  0  0
  -28.7765  -12.2714   21.4162 H   0  0  0  0  0  0
  -28.3235  -13.8934   21.8155 H   0  0  0  0  0  0
  -25.2755   -9.5665   22.4764 H   0  0  0  0  0  0
  -23.9967   -7.4636   22.7469 H   0  0  0  0  0  0
  -21.0832   -8.8740   19.8957 H   0  0  0  0  0  0
  -22.3679  -10.9638   19.6158 H   0  0  0  0  0  0
  -21.2023   -7.6139   23.9703 H   0  0  0  0  0  0
  -21.1511   -6.0532   25.9082 H   0  0  0  0  0  0
  -22.0597   -2.7591   23.2826 H   0  0  0  0  0  0
  -22.4051  -11.9828   22.4818 H   0  0  0  0  0  0
  -21.1103  -13.1241   22.2649 H   0  0  0  0  0  0
  -24.6816  -15.8709   20.5803 H   0  0  0  0  0  0
  -26.3390  -15.6196   20.3202 H   0  0  0  0  0  0
  -26.7304  -32.5263   23.0931 H   0  0  0  0  0  0
  -25.0124  -33.9582   25.0314 H   0  0  0  0  0  0
  -22.7613  -31.2809   21.3692 H   0  0  0  0  0  0
  -23.3775  -35.9565   23.3277 H   0  0  0  0  0  0
  -24.3592  -36.8887   22.2059 H   0  0  0  0  0  0
  -23.7236  -37.6414   23.6708 H   0  0  0  0  0  0
  -26.1774  -31.4396   20.6143 H   0  0  0  0  0  0
  -26.8774  -30.7399   22.0373 H   0  0  0  0  0  0
  -28.1311  -28.7412   21.2591 H   0  0  0  0  0  0
  -25.9477  -25.8092   18.9880 H   0  0  0  0  0  0
  -23.9973  -27.2837   18.9593 H   0  0  0  0  0  0
  -23.8240  -30.5467   19.3902 H   0  0  0  0  0  0
  -22.7941  -29.2189   19.8422 H   0  0  0  0  0  0
  -25.1325  -36.1789   25.0804 H   0  0  0  0  0  0
  -21.0007  -28.3347   24.1351 H   0  0  0  0  0  0
  -20.5715  -26.2362   23.3624 H   0  0  0  0  0  0
  -21.6681  -26.7475   22.1193 H   0  0  0  0  0  0
  -19.6966  -25.6290   21.1272 H   0  0  0  0  0  0
  -19.6738  -27.3176   20.6733 H   0  0  0  0  0  0
  -17.4233  -26.6681   21.4003 H   0  0  0  0  0  0
  -18.0360  -26.0107   22.9010 H   0  0  0  0  0  0
  -19.7965  -30.7303   24.2212 H   0  0  0  0  0  0
  -17.5050  -31.6292   24.5156 H   0  0  0  0  0  0
  -15.5381  -30.2977   23.7745 H   0  0  0  0  0  0
  -15.8683  -28.0842   22.7090 H   0  0  0  0  0  0
  -24.5914  -30.7086   25.7681 H   0  0  0  0  0  0
  -24.8922  -32.2927   26.4752 H   0  0  0  0  0  0
  -25.7999  -30.8908   27.0184 H   0  0  0  0  0  0
  -26.3067  -29.6603   24.1370 H   0  0  0  0  0  0
  -27.4063  -29.7294   25.4931 H   0  0  0  0  0  0
  -27.8982  -30.4161   23.9662 H   0  0  0  0  0  0
  -27.2658  -33.3644   26.2000 H   0  0  0  0  0  0
  -28.3913  -32.6819   25.0316 H   0  0  0  0  0  0
  -28.0720  -31.8457   26.5415 H   0  0  0  0  0  0
  -28.2565  -38.0080   24.7542 H   0  0  0  0  0  0
  -28.1078  -36.2604   24.6263 H   0  0  0  0  0  0
  -27.2305  -37.1387   25.8869 H   0  0  0  0  0  0
  -20.9482  -29.8693   21.6690 H   0  0  0  0  0  0
  -26.0130  -38.2784   24.1425 H   0  0  0  0  0  0
  -32.1797  -19.6674   18.2879 H   0  0  0  0  0  0
  -31.6033  -17.4692   19.1328 H   0  0  0  0  0  0
  -30.9271  -21.6485   18.7587 H   0  0  0  0  0  0
  -28.2675  -19.2869   21.2157 H   0  0  0  0  0  0
  -26.2867  -24.1962   21.3602 H   0  0  0  0  0  0
  -27.9850  -17.2768   21.4189 H   0  0  0  0  0  0
  -26.1032  -21.8345   21.9736 H   0  0  0  0  0  0
  -30.4513  -24.7566   19.3505 H   0  0  0  0  0  0
  1 25  1  0  0  0
  1 30  2  0  0  0
  1 81  1  0  0  0
  2  3  1  0  0  0
  2 25  1  0  0  0
  2 86  1  0  0  0
  2 87  1  0  0  0
  3  4  1  0  0  0
  3 88  1  0  0  0
  3 89  1  0  0  0
  4  5  1  0  0  0
  4 90  1  0  0  0
  4 91  1  0  0  0
  5  6  1  0  0  0
  5 26  1  0  0  0
  5 92  1  0  0  0
  6 25  1  0  0  0
  6 93  1  0  0  0
  6 94  1  0  0  0
  7  8  2  0  0  0
  7 26  1  0  0  0
  7 29  1  0  0  0
  8  9  1  0  0  0
  8 22  1  0  0  0
  9 10  1  0  0  0
  9 27  2  0  0  0
 10 11  2  0  0  0
 10 15  1  0  0  0
 11 12  1  0  0  0
 11 95  1  0  0  0
 12 13  2  0  0  0
 12 96  1  0  0  0
 13 14  1  0  0  0
 13 31  1  0  0  0
 14 15  2  0  0  0
 14 97  1  0  0  0
 15 98  1  0  0  0
 16 17  2  0  0  0
 16 21  1  0  0  0
 16 31  1  0  0  0
 17 18  1  0  0  0
 17 99  1  0  0  0
 18 19  2  0  0  0
 18100  1  0  0  0
 19 20  1  0  0  0
 19 24  1  0  0  0
 20 21  2  0  0  0
 20101  1  0  0  0
 21 23  1  0  0  0
 22 28  1  0  0  0
 22 32  2  0  0  0
 26 27  1  0  0  0
 28102  1  0  0  0
 28103  1  0  0  0
 29104  1  0  0  0
 29105  1  0  0  0
 33 34  1  0  0  0
 33 66  1  0  0  0
 33 70  2  0  0  0
 34 36  1  0  0  0
 34 59  1  0  0  0
 34106  1  0  0  0
 35 44  2  0  0  0
 35 45  1  0  0  0
 35 68  1  0  0  0
 36 56  1  0  0  0
 36107  1  0  0  0
 37 39  1  0  0  0
 37 47  1  0  0  0
 37 66  1  0  0  0
 37108  1  0  0  0
 38 43  2  0  0  0
 38 46  1  0  0  0
 38 47  1  0  0  0
 39 64  1  0  0  0
 39 67  2  0  0  0
 40 52  1  0  0  0
 40 53  2  0  0  0
 40 58  1  0  0  0
 41109  1  0  0  0
 41110  1  0  0  0
 41111  1  0  0  0
 41 48  1  0  0  0
 42 43  1  0  0  0
 42 66  1  0  0  0
 42112  1  0  0  0
 42113  1  0  0  0
 43 44  1  0  0  0
 44114  1  0  0  0
 45 46  2  0  0  0
 45115  1  0  0  0
 46116  1  0  0  0
 47117  1  0  0  0
 47118  1  0  0  0
 48 56  1  0  0  0
 48 65  1  0  0  0
 48119  1  0  0  0
 49 50  1  0  0  0
 49 53  1  0  0  0
 49 64  1  0  0  0
 49120  1  0  0  0
 50 51  1  0  0  0
 50121  1  0  0  0
 50122  1  0  0  0
 51 52  1  0  0  0
 51123  1  0  0  0
 51124  1  0  0  0
 52125  1  0  0  0
 52126  1  0  0  0
 53 54  1  0  0  0
 54 55  2  0  0  0
 54127  1  0  0  0
 55 57  1  0  0  0
 55128  1  0  0  0
 56 69  2  0  0  0
 57 58  2  0  0  0
 57129  1  0  0  0
 58130  1  0  0  0
 59 60  1  0  0  0
 59 61  1  0  0  0
 59 62  1  0  0  0
 60131  1  0  0  0
 60132  1  0  0  0
 60133  1  0  0  0
 61134  1  0  0  0
 61135  1  0  0  0
 61136  1  0  0  0
 62137  1  0  0  0
 62138  1  0  0  0
 62139  1  0  0  0
 63 65  1  0  0  0
 63140  1  0  0  0
 63141  1  0  0  0
 63142  1  0  0  0
 64143  1  0  0  0
 65144  1  0  0  0
 68 78  1  0  0  0
 71 72  2  0  0  0
 71 73  1  0  0  0
 71145  1  0  0  0
 72 76  1  0  0  0
 72146  1  0  0  0
 73 77  2  0  0  0
 73147  1  0  0  0
 74 76  2  0  0  0
 74 77  1  0  0  0
 74148  1  0  0  0
 75 78  1  0  0  0
 75 79  2  0  0  0
 75149  1  0  0  0
 76 81  1  0  0  0
 77 83  1  0  0  0
 78 80  2  0  0  0
 79 83  1  0  0  0
 79 84  1  0  0  0
 80 83  1  0  0  0
 80 85  1  0  0  0
 81 82  2  0  0  0
 82150  1  0  0  0
 84151  1  0  0  0
 85152  1  0  0  0
M  ISO  4   1 100  68 101  78 101  81 100
M  END
> <chiral flag>
0

> <version>
0

> <s_m_source_file>
/data/baiqing/PycharmProjects/Reinvent-master-3.2/result/LINK_invent/BTK/process_docking_weight1_custom_product_contain_oxygen_bond_distance_aromatic_linkinvent_7_9_3/rearranged_h_0087.sdf

> <i_m_source_file_index>
3

> <r_mmod_Potential_Energy-OPLS-2005>
770.945556640625

> <r_mmod_Stretch_Energy-OPLS-2005>
357.487976074219

> <r_mmod_Bend_Energy-OPLS-2005>
283.105743408203

> <r_mmod_Torsional_Energy-OPLS-2005>
181.299423217773

> <r_mmod_Improper_Torsional_Energy-OPLS-2005>
3.04988074302673

> <r_mmod_Van_der_Waal_Energy-OPLS-2005>
131.302841186523

> <r_mmod_Electrostatic_Energy-OPLS-2005>
-229.008117675781

> <r_mmod_Solvation_Energy-OPLS-2005>
-213.322036743164

> <b_mmod_Minimization_Converged-OPLS-2005>
0

> <r_mmod_RMS_Derivative-OPLS-2005>
4.70501756668091

$$$$
3
                    3D
 Structure written by MMmdl.
155164  0  0  1  0            999 V2000
  -30.7350  -14.5133   20.5788 C   0  0  0  0  0  0
  -30.4036  -12.3361   19.4437 C   0  0  0  0  0  0
  -29.4910  -12.4997   18.2147 C   0  0  0  0  0  0
  -28.0140  -12.3595   18.6266 C   0  0  0  0  0  0
  -27.6498  -13.2229   19.8651 C   0  0  2  0  0  0
  -28.6912  -13.0717   20.9965 C   0  0  0  0  0  0
  -25.2528  -13.8189   20.5691 C   0  0  0  0  0  0
  -24.1809  -13.0432   20.9195 C   0  0  0  0  0  0
  -24.6389  -11.6910   20.8742 C   0  0  0  0  0  0
  -23.9069  -10.4284   21.0403 C   0  0  0  0  0  0
  -24.3617   -9.4203   21.9177 C   0  0  0  0  0  0
  -23.6293   -8.2243   22.0756 C   0  0  0  0  0  0
  -22.4273   -8.0278   21.3550 C   0  0  0  0  0  0
  -21.9911   -9.0250   20.4649 C   0  0  0  0  0  0
  -22.7243  -10.2128   20.3056 C   0  0  0  0  0  0
  -21.6854   -6.0738   22.5277 C   0  0  0  0  0  0
  -21.4017   -6.5642   23.8208 C   0  0  0  0  0  0
  -21.3659   -5.6796   24.9171 C   0  0  0  0  0  0
  -21.6045   -4.3058   24.7223 C   0  0  0  0  0  0
  -21.8819   -3.8149   23.4343 C   0  0  0  0  0  0
  -21.9191   -4.6968   22.3398 C   0  0  0  0  0  0
  -22.7833  -13.5227   21.1850 C   0  0  0  0  0  0
  -22.1661   -4.2149   21.0978 F   0  0  0  0  0  0
  -21.5625   -3.4542   25.7737 F   0  0  0  0  0  0
  -30.0129  -13.3643   20.4284 N   0  0  0  0  0  0
  -26.2963  -12.9392   20.3334 N   0  0  0  0  0  0
  -25.9314  -11.6537   20.5771 N   0  0  0  0  0  0
  -22.0481  -12.8202   22.0408 N   0  0  0  0  0  0
  -25.4206  -15.1910   20.4103 N   0  0  0  0  0  0
  -31.8812  -14.5866   20.1249 O   0  0  0  0  0  0
  -21.6641   -6.8873   21.4239 O   0  0  0  0  0  0
  -22.3508  -14.5531   20.6699 O   0  0  0  0  0  0
  -24.6162  -31.8661   23.2094 C   0  0  0  0  0  0
  -25.9047  -32.4817   23.8393 C   0  0  1  0  0  0
  -27.2296  -27.4049   20.1255 C   0  0  0  0  0  0
  -25.5900  -33.8613   24.2330 N   0  0  0  0  0  0
  -23.4070  -30.4886   21.5481 C   0  0  2  0  0  0
  -24.8572  -28.9471   20.1192 C   0  0  0  0  0  0
  -22.7427  -29.4651   22.4976 C   0  0  0  0  0  0
  -18.0276  -28.1382   22.8490 C   0  0  0  0  0  0
  -24.1488  -36.7315   23.2638 C   0  0  0  0  0  0
  -25.9380  -30.8221   21.3691 C   0  0  0  0  0  0
  -26.0151  -29.4501   20.7271 C   0  0  0  0  0  0
  -27.2059  -28.6831   20.7345 C   0  0  0  0  0  0
  -26.0638  -26.9279   19.4965 C   0  0  0  0  0  0
  -24.8761  -27.6845   19.5017 C   0  0  0  0  0  0
  -23.6208  -29.8188   20.1634 C   0  0  0  0  0  0
  -25.4105  -36.3109   24.0340 C   0  0  1  0  0  0
  -20.5869  -28.3672   23.1316 C   0  0  2  0  0  0
  -20.6770  -26.9405   22.5425 C   0  0  0  0  0  0
  -19.5745  -26.6390   21.5220 C   0  0  0  0  0  0
  -18.1922  -26.7929   22.1626 C   0  0  0  0  0  0
  -19.1528  -28.8839   23.2907 C   0  0  0  0  0  0
  -18.9454  -30.1449   23.8911 C   0  0  0  0  0  0
  -17.6456  -30.6587   24.0562 C   0  0  0  0  0  0
  -25.9033  -34.9474   23.5133 C   0  0  0  0  0  0
  -16.5349  -29.9087   23.6328 C   0  0  0  0  0  0
  -16.7265  -28.6508   23.0343 C   0  0  0  0  0  0
  -26.4470  -31.6591   25.0723 C   0  0  0  0  0  0
  -25.3730  -31.3696   26.1471 C   0  0  0  0  0  0
  -27.0299  -30.3030   24.6100 C   0  0  0  0  0  0
  -27.6064  -32.4296   25.7471 C   0  0  0  0  0  0
  -27.5584  -37.1801   24.8458 C   0  0  0  0  0  0
  -21.4151  -29.3035   22.3713 N   0  0  0  0  0  0
  -26.4288  -37.3793   23.9418 N   0  0  0  0  0  0
  -24.6711  -31.0748   22.1003 N   0  0  0  0  0  0
  -23.4188  -28.8183   23.3022 O   0  0  0  0  0  0
  -28.3714  -26.6332   20.0696 O   0  0  0  0  0  0
  -26.5601  -34.8919   22.4697 O   0  0  0  0  0  0
  -23.5351  -32.1416   23.7480 O   0  0  0  0  0  0
  -30.3007  -19.1061   22.3599 C   0  0  0  0  0  0
  -28.8726  -18.3806   20.5427 C   0  0  0  0  0  0
  -29.7466  -20.4056   22.2940 C   0  0  0  0  0  0
  -28.3113  -19.6855   20.4816 C   0  0  0  0  0  0
  -26.8954  -23.8574   21.0642 C   0  0  0  0  0  0
  -29.0291  -23.2353   21.2636 C   0  0  0  0  0  0
  -29.8959  -18.0743   21.4733 C   0  0  0  0  0  0
  -28.2289  -24.3566   21.1603 C   0  0  0  0  0  0
  -28.7569  -20.7237   21.3386 C   0  0  0  0  0  0
  -26.9455  -22.4904   21.1095 C   0  0  0  0  0  0
  -30.6941  -16.7778   21.4206 C   0  0  0  0  0  0
  -28.6717  -25.8261   21.2245 C   0  0  0  0  0  0
  -28.2609  -22.0689   21.2340 N   0  0  0  0  0  0
  -30.0931  -15.6079   21.0737 N   0  0  0  0  0  0
  -31.8900  -16.8532   21.7321 O   0  0  0  0  0  0
  -25.9165  -21.6001   21.0799 O   0  0  0  0  0  0
  -31.4506  -12.4030   19.1458 H   0  0  0  0  0  0
  -30.2867  -11.3411   19.8773 H   0  0  0  0  0  0
  -29.7393  -11.7558   17.4574 H   0  0  0  0  0  0
  -29.6578  -13.4758   17.7559 H   0  0  0  0  0  0
  -27.8328  -11.3064   18.8436 H   0  0  0  0  0  0
  -27.3644  -12.6128   17.7887 H   0  0  0  0  0  0
  -27.6729  -14.2616   19.5352 H   0  0  0  0  0  0
  -28.6764  -12.0591   21.4012 H   0  0  0  0  0  0
  -28.4523  -13.7305   21.8328 H   0  0  0  0  0  0
  -25.2757   -9.5681   22.4755 H   0  0  0  0  0  0
  -23.9997   -7.4638   22.7475 H   0  0  0  0  0  0
  -21.0842   -8.8771   19.8950 H   0  0  0  0  0  0
  -22.3695  -10.9670   19.6171 H   0  0  0  0  0  0
  -21.2016   -7.6148   23.9710 H   0  0  0  0  0  0
  -21.1483   -6.0527   25.9071 H   0  0  0  0  0  0
  -22.0599   -2.7612   23.2845 H   0  0  0  0  0  0
  -22.4116  -11.9874   22.4796 H   0  0  0  0  0  0
  -21.1102  -13.1225   22.2623 H   0  0  0  0  0  0
  -24.6497  -15.8410   20.5193 H   0  0  0  0  0  0
  -26.2639  -15.6341   20.0681 H   0  0  0  0  0  0
  -26.7115  -32.5524   23.1157 H   0  0  0  0  0  0
  -25.0059  -33.9768   25.0479 H   0  0  0  0  0  0
  -22.6975  -31.3058   21.4051 H   0  0  0  0  0  0
  -23.3756  -35.9642   23.3291 H   0  0  0  0  0  0
  -24.3591  -36.8941   22.2056 H   0  0  0  0  0  0
  -23.7229  -37.6512   23.6653 H   0  0  0  0  0  0
  -26.0517  -31.5815   20.5932 H   0  0  0  0  0  0
  -26.8262  -30.8822   21.9858 H   0  0  0  0  0  0
  -28.1018  -29.0662   21.2035 H   0  0  0  0  0  0
  -26.0775  -25.9639   19.0057 H   0  0  0  0  0  0
  -23.9874  -27.2927   19.0262 H   0  0  0  0  0  0
  -23.7347  -30.5929   19.4039 H   0  0  0  0  0  0
  -22.7439  -29.2408   19.8646 H   0  0  0  0  0  0
  -25.1277  -36.1978   25.0830 H   0  0  0  0  0  0
  -20.9963  -28.3243   24.1439 H   0  0  0  0  0  0
  -20.5682  -26.2277   23.3614 H   0  0  0  0  0  0
  -21.6638  -26.7445   22.1214 H   0  0  0  0  0  0
  -19.6909  -25.6306   21.1238 H   0  0  0  0  0  0
  -19.6689  -27.3217   20.6764 H   0  0  0  0  0  0
  -17.4198  -26.6695   21.4025 H   0  0  0  0  0  0
  -18.0306  -26.0070   22.9015 H   0  0  0  0  0  0
  -19.7931  -30.7265   24.2289 H   0  0  0  0  0  0
  -17.5005  -31.6263   24.5173 H   0  0  0  0  0  0
  -15.5347  -30.2986   23.7640 H   0  0  0  0  0  0
  -15.8673  -28.0829   22.7038 H   0  0  0  0  0  0
  -24.5927  -30.7018   25.7807 H   0  0  0  0  0  0
  -24.8894  -32.2840   26.4906 H   0  0  0  0  0  0
  -25.8088  -30.8879   27.0234 H   0  0  0  0  0  0
  -26.2845  -29.6794   24.1158 H   0  0  0  0  0  0
  -27.4073  -29.7266   25.4559 H   0  0  0  0  0  0
  -27.8673  -30.4362   23.9255 H   0  0  0  0  0  0
  -27.2720  -33.3600   26.2073 H   0  0  0  0  0  0
  -28.3852  -32.6845   25.0270 H   0  0  0  0  0  0
  -28.0748  -31.8393   26.5354 H   0  0  0  0  0  0
  -28.2586  -38.0117   24.7538 H   0  0  0  0  0  0
  -28.1101  -36.2649   24.6244 H   0  0  0  0  0  0
  -27.2307  -37.1406   25.8862 H   0  0  0  0  0  0
  -20.9315  -29.8762   21.6935 H   0  0  0  0  0  0
  -26.0185  -38.2867   24.1445 H   0  0  0  0  0  0
  -31.0907  -18.9196   23.0750 H   0  0  0  0  0  0
  -28.5490  -17.6347   19.8294 H   0  0  0  0  0  0
  -30.1065  -21.1692   22.9702 H   0  0  0  0  0  0
  -27.5536  -19.8990   19.7404 H   0  0  0  0  0  0
  -25.9942  -24.4500   20.9941 H   0  0  0  0  0  0
  -30.1029  -23.1601   21.3709 H   0  0  0  0  0  0
  -29.7550  -25.8424   21.3491 H   0  0  0  0  0  0
  -28.2660  -26.2794   22.1310 H   0  0  0  0  0  0
  -29.0903  -15.5725   21.1357 H   0  0  0  0  0  0
  -25.1039  -22.0970   21.0680 H   0  0  0  0  0  0
  1 25  1  0  0  0
  1 30  2  0  0  0
  1 84  1  0  0  0
  2  3  1  0  0  0
  2 25  1  0  0  0
  2 87  1  0  0  0
  2 88  1  0  0  0
  3  4  1  0  0  0
  3 89  1  0  0  0
  3 90  1  0  0  0
  4  5  1  0  0  0
  4 91  1  0  0  0
  4 92  1  0  0  0
  5  6  1  0  0  0
  5 26  1  0  0  0
  5 93  1  0  0  0
  6 25  1  0  0  0
  6 94  1  0  0  0
  6 95  1  0  0  0
  7  8  2  0  0  0
  7 26  1  0  0  0
  7 29  1  0  0  0
  8  9  1  0  0  0
  8 22  1  0  0  0
  9 10  1  0  0  0
  9 27  2  0  0  0
 10 11  2  0  0  0
 10 15  1  0  0  0
 11 12  1  0  0  0
 11 96  1  0  0  0
 12 13  2  0  0  0
 12 97  1  0  0  0
 13 14  1  0  0  0
 13 31  1  0  0  0
 14 15  2  0  0  0
 14 98  1  0  0  0
 15 99  1  0  0  0
 16 17  2  0  0  0
 16 21  1  0  0  0
 16 31  1  0  0  0
 17 18  1  0  0  0
 17100  1  0  0  0
 18 19  2  0  0  0
 18101  1  0  0  0
 19 20  1  0  0  0
 19 24  1  0  0  0
 20 21  2  0  0  0
 20102  1  0  0  0
 21 23  1  0  0  0
 22 28  1  0  0  0
 22 32  2  0  0  0
 26 27  1  0  0  0
 28103  1  0  0  0
 28104  1  0  0  0
 29105  1  0  0  0
 29106  1  0  0  0
 33 34  1  0  0  0
 33 66  1  0  0  0
 33 70  2  0  0  0
 34 36  1  0  0  0
 34 59  1  0  0  0
 34107  1  0  0  0
 35 44  2  0  0  0
 35 45  1  0  0  0
 35 68  1  0  0  0
 36 56  1  0  0  0
 36108  1  0  0  0
 37 39  1  0  0  0
 37 47  1  0  0  0
 37 66  1  0  0  0
 37109  1  0  0  0
 38 43  2  0  0  0
 38 46  1  0  0  0
 38 47  1  0  0  0
 39 64  1  0  0  0
 39 67  2  0  0  0
 40 52  1  0  0  0
 40 53  2  0  0  0
 40 58  1  0  0  0
 41110  1  0  0  0
 41111  1  0  0  0
 41112  1  0  0  0
 41 48  1  0  0  0
 42 43  1  0  0  0
 42 66  1  0  0  0
 42113  1  0  0  0
 42114  1  0  0  0
 43 44  1  0  0  0
 44115  1  0  0  0
 45 46  2  0  0  0
 45116  1  0  0  0
 46117  1  0  0  0
 47118  1  0  0  0
 47119  1  0  0  0
 48 56  1  0  0  0
 48 65  1  0  0  0
 48120  1  0  0  0
 49 50  1  0  0  0
 49 53  1  0  0  0
 49 64  1  0  0  0
 49121  1  0  0  0
 50 51  1  0  0  0
 50122  1  0  0  0
 50123  1  0  0  0
 51 52  1  0  0  0
 51124  1  0  0  0
 51125  1  0  0  0
 52126  1  0  0  0
 52127  1  0  0  0
 53 54  1  0  0  0
 54 55  2  0  0  0
 54128  1  0  0  0
 55 57  1  0  0  0
 55129  1  0  0  0
 56 69  2  0  0  0
 57 58  2  0  0  0
 57130  1  0  0  0
 58131  1  0  0  0
 59 60  1  0  0  0
 59 61  1  0  0  0
 59 62  1  0  0  0
 60132  1  0  0  0
 60133  1  0  0  0
 60134  1  0  0  0
 61135  1  0  0  0
 61136  1  0  0  0
 61137  1  0  0  0
 62138  1  0  0  0
 62139  1  0  0  0
 62140  1  0  0  0
 63 65  1  0  0  0
 63141  1  0  0  0
 63142  1  0  0  0
 63143  1  0  0  0
 64144  1  0  0  0
 65145  1  0  0  0
 68 82  1  0  0  0
 71 73  2  0  0  0
 71 77  1  0  0  0
 71146  1  0  0  0
 72 74  1  0  0  0
 72 77  2  0  0  0
 72147  1  0  0  0
 73 79  1  0  0  0
 73148  1  0  0  0
 74 79  2  0  0  0
 74149  1  0  0  0
 75 78  1  0  0  0
 75 80  2  0  0  0
 75150  1  0  0  0
 76 78  2  0  0  0
 76 83  1  0  0  0
 76151  1  0  0  0
 77 81  1  0  0  0
 78 82  1  0  0  0
 79 83  1  0  0  0
 80 83  1  0  0  0
 80 86  1  0  0  0
 81 84  1  0  0  0
 81 85  2  0  0  0
 82152  1  0  0  0
 82153  1  0  0  0
 84154  1  0  0  0
 86155  1  0  0  0
M  ISO  4   1 100  68 101  82 101  84 100
M  END
> <chiral flag>
0

> <version>
0

> <s_m_source_file>
/data/baiqing/PycharmProjects/Reinvent-master-3.2/result/LINK_invent/BTK/process_docking_weight1_custom_product_contain_oxygen_bond_distance_aromatic_linkinvent_7_9_3/rearranged_h_0087.sdf

> <i_m_source_file_index>
4

> <r_mmod_Potential_Energy-OPLS-2005>
-70.337776184082

> <r_mmod_Stretch_Energy-OPLS-2005>
44.6564521789551

> <r_mmod_Bend_Energy-OPLS-2005>
105.45206451416

> <r_mmod_Torsional_Energy-OPLS-2005>
267.496307373047

> <r_mmod_Improper_Torsional_Energy-OPLS-2005>
4.99114418029785

> <r_mmod_Van_der_Waal_Energy-OPLS-2005>
148.47314453125

> <r_mmod_Electrostatic_Energy-OPLS-2005>
-427.333526611328

> <r_mmod_Solvation_Energy-OPLS-2005>
-234.589904785156

> <b_mmod_Minimization_Converged-OPLS-2005>
0

> <r_mmod_RMS_Derivative-OPLS-2005>
1.79128730297089

$$$$
4
                    3D
 Structure written by MMmdl.
150159  0  0  1  0            999 V2000
  -30.5681  -14.8785   20.3985 C   0  0  0  0  0  0
  -30.4287  -12.5361   19.4919 C   0  0  0  0  0  0
  -29.5139  -12.5226   18.2462 C   0  0  0  0  0  0
  -28.0436  -12.3271   18.6574 C   0  0  0  0  0  0
  -27.6300  -13.2459   19.8376 C   0  0  2  0  0  0
  -28.6708  -13.2520   20.9771 C   0  0  0  0  0  0
  -25.2489  -13.8231   20.5725 C   0  0  0  0  0  0
  -24.1791  -13.0459   20.9224 C   0  0  0  0  0  0
  -24.6401  -11.6938   20.8770 C   0  0  0  0  0  0
  -23.9086  -10.4313   21.0428 C   0  0  0  0  0  0
  -24.3649   -9.4216   21.9188 C   0  0  0  0  0  0
  -23.6316   -8.2250   22.0743 C   0  0  0  0  0  0
  -22.4291   -8.0300   21.3540 C   0  0  0  0  0  0
  -21.9943   -9.0275   20.4638 C   0  0  0  0  0  0
  -22.7274  -10.2149   20.3063 C   0  0  0  0  0  0
  -21.6859   -6.0753   22.5284 C   0  0  0  0  0  0
  -21.4017   -6.5651   23.8219 C   0  0  0  0  0  0
  -21.3654   -5.6798   24.9176 C   0  0  0  0  0  0
  -21.6045   -4.3061   24.7219 C   0  0  0  0  0  0
  -21.8820   -3.8155   23.4339 C   0  0  0  0  0  0
  -21.9197   -4.6980   22.3402 C   0  0  0  0  0  0
  -22.7818  -13.5228   21.1889 C   0  0  0  0  0  0
  -22.1665   -4.2171   21.0973 F   0  0  0  0  0  0
  -21.5618   -3.4537   25.7723 F   0  0  0  0  0  0
  -29.9574  -13.6315   20.3833 N   0  0  0  0  0  0
  -26.2890  -12.9448   20.3238 N   0  0  0  0  0  0
  -25.9327  -11.6577   20.5741 N   0  0  0  0  0  0
  -22.0463  -12.8204   22.0432 N   0  0  0  0  0  0
  -25.4202  -15.1957   20.4199 N   0  0  0  0  0  0
  -31.7745  -14.9153   20.1365 O   0  0  0  0  0  0
  -21.6643   -6.8904   21.4242 O   0  0  0  0  0  0
  -22.3496  -14.5534   20.6735 O   0  0  0  0  0  0
  -24.6385  -31.8492   23.1906 C   0  0  0  0  0  0
  -25.9174  -32.4714   23.8295 C   0  0  1  0  0  0
  -27.2111  -27.1860   20.1493 C   0  0  0  0  0  0
  -25.5943  -33.8521   24.2224 N   0  0  0  0  0  0
  -23.4395  -30.4726   21.5338 C   0  0  2  0  0  0
  -24.8923  -28.9099   20.1062 C   0  0  0  0  0  0
  -22.7546  -29.4582   22.4839 C   0  0  0  0  0  0
  -18.0304  -28.1392   22.8483 C   0  0  0  0  0  0
  -24.1496  -36.7283   23.2637 C   0  0  0  0  0  0
  -25.9935  -30.7393   21.3854 C   0  0  0  0  0  0
  -26.0665  -29.3539   20.7300 C   0  0  0  0  0  0
  -27.2318  -28.5060   20.7397 C   0  0  0  0  0  0
  -26.0197  -26.8340   19.4816 C   0  0  0  0  0  0
  -24.8796  -27.6620   19.4641 C   0  0  0  0  0  0
  -23.6653  -29.8050   20.1511 C   0  0  0  0  0  0
  -25.4116  -36.3054   24.0329 C   0  0  1  0  0  0
  -20.5913  -28.3719   23.1234 C   0  0  2  0  0  0
  -20.6794  -26.9423   22.5400 C   0  0  0  0  0  0
  -19.5762  -26.6375   21.5209 C   0  0  0  0  0  0
  -18.1943  -26.7928   22.1631 C   0  0  0  0  0  0
  -19.1563  -28.8865   23.2855 C   0  0  0  0  0  0
  -18.9476  -30.1457   23.8891 C   0  0  0  0  0  0
  -17.6472  -30.6583   24.0566 C   0  0  0  0  0  0
  -25.9055  -34.9423   23.5080 C   0  0  0  0  0  0
  -16.5365  -29.9092   23.6328 C   0  0  0  0  0  0
  -16.7287  -28.6512   23.0351 C   0  0  0  0  0  0
  -26.4518  -31.6544   25.0702 C   0  0  0  0  0  0
  -25.3714  -31.3735   26.1401 C   0  0  0  0  0  0
  -27.0361  -30.2935   24.6243 C   0  0  0  0  0  0
  -27.6069  -32.4283   25.7487 C   0  0  0  0  0  0
  -27.5585  -37.1795   24.8460 C   0  0  0  0  0  0
  -21.4238  -29.3064   22.3602 N   0  0  0  0  0  0
  -26.4288  -37.3759   23.9397 N   0  0  0  0  0  0
  -24.7102  -31.0396   22.0926 N   0  0  0  0  0  0
  -23.4214  -28.8118   23.2961 O   0  0  0  0  0  0
  -28.2435  -26.1967   20.1771 O   0  0  0  0  0  0
  -26.5644  -34.8916   22.4656 O   0  0  0  0  0  0
  -23.5513  -32.1356   23.7135 O   0  0  0  0  0  0
  -31.3814  -18.9816   18.6294 C   0  0  0  0  0  0
  -30.6771  -20.1288   19.0307 C   0  0  0  0  0  0
  -31.0793  -17.7074   19.1299 C   0  0  0  0  0  0
  -29.3345  -18.7531   20.4579 C   0  0  0  0  0  0
  -29.6074  -20.1341   19.9618 C   0  0  0  0  0  0
  -30.0594  -17.5054   20.0838 C   0  0  0  0  0  0
  -28.4307  -23.5553   20.3951 C   0  0  0  0  0  0
  -28.0335  -22.2399   20.9595 C   0  0  0  0  0  0
  -27.9214  -24.8539   20.6280 C   0  0  0  0  0  0
  -29.5073  -22.7999   19.5743 C   0  0  0  0  0  0
  -29.0171  -21.5247   20.2108 N   0  0  0  0  0  0
  -29.8036  -16.0682   20.5323 N   0  0  0  0  0  0
  -27.1784  -21.9578   21.7724 O   0  0  0  0  0  0
  -31.4654  -12.6732   19.1795 H   0  0  0  0  0  0
  -30.3973  -11.5783   20.0144 H   0  0  0  0  0  0
  -29.8190  -11.7321   17.5591 H   0  0  0  0  0  0
  -29.6206  -13.4635   17.7027 H   0  0  0  0  0  0
  -27.9186  -11.2814   18.9401 H   0  0  0  0  0  0
  -27.3869  -12.4886   17.8022 H   0  0  0  0  0  0
  -27.6003  -14.2553   19.4258 H   0  0  0  0  0  0
  -28.7329  -12.2750   21.4580 H   0  0  0  0  0  0
  -28.3820  -13.9621   21.7538 H   0  0  0  0  0  0
  -25.2800   -9.5676   22.4760 H   0  0  0  0  0  0
  -24.0017   -7.4635   22.7465 H   0  0  0  0  0  0
  -21.0875   -8.8818   19.8952 H   0  0  0  0  0  0
  -22.3754  -10.9696   19.6177 H   0  0  0  0  0  0
  -21.2012   -7.6162   23.9739 H   0  0  0  0  0  0
  -21.1470   -6.0518   25.9081 H   0  0  0  0  0  0
  -22.0606   -2.7618   23.2835 H   0  0  0  0  0  0
  -22.4083  -11.9849   22.4806 H   0  0  0  0  0  0
  -21.1086  -13.1230   22.2667 H   0  0  0  0  0  0
  -24.6637  -15.8587   20.5497 H   0  0  0  0  0  0
  -26.2722  -15.6312   20.0923 H   0  0  0  0  0  0
  -26.7241  -32.5362   23.1030 H   0  0  0  0  0  0
  -25.0081  -33.9635   25.0362 H   0  0  0  0  0  0
  -22.7404  -31.2979   21.3810 H   0  0  0  0  0  0
  -23.3763  -35.9612   23.3285 H   0  0  0  0  0  0
  -24.3593  -36.8912   22.2055 H   0  0  0  0  0  0
  -23.7241  -37.6477   23.6676 H   0  0  0  0  0  0
  -26.1410  -31.4964   20.6135 H   0  0  0  0  0  0
  -26.8676  -30.7932   22.0239 H   0  0  0  0  0  0
  -28.1267  -28.8388   21.2466 H   0  0  0  0  0  0
  -25.9586  -25.8748   18.9870 H   0  0  0  0  0  0
  -23.9877  -27.3251   18.9542 H   0  0  0  0  0  0
  -23.7964  -30.5826   19.3978 H   0  0  0  0  0  0
  -22.7837  -29.2420   19.8392 H   0  0  0  0  0  0
  -25.1287  -36.1912   25.0827 H   0  0  0  0  0  0
  -21.0020  -28.3329   24.1349 H   0  0  0  0  0  0
  -20.5675  -26.2345   23.3626 H   0  0  0  0  0  0
  -21.6661  -26.7426   22.1199 H   0  0  0  0  0  0
  -19.6937  -25.6278   21.1251 H   0  0  0  0  0  0
  -19.6694  -27.3184   20.6734 H   0  0  0  0  0  0
  -17.4206  -26.6661   21.4044 H   0  0  0  0  0  0
  -18.0363  -26.0060   22.9025 H   0  0  0  0  0  0
  -19.7942  -30.7268   24.2281 H   0  0  0  0  0  0
  -17.5022  -31.6260   24.5165 H   0  0  0  0  0  0
  -15.5362  -30.3000   23.7619 H   0  0  0  0  0  0
  -15.8695  -28.0813   22.7079 H   0  0  0  0  0  0
  -24.5894  -30.7082   25.7721 H   0  0  0  0  0  0
  -24.8919  -32.2934   26.4774 H   0  0  0  0  0  0
  -25.8006  -30.8938   27.0206 H   0  0  0  0  0  0
  -26.2966  -29.6670   24.1253 H   0  0  0  0  0  0
  -27.3986  -29.7207   25.4787 H   0  0  0  0  0  0
  -27.8874  -30.4152   23.9537 H   0  0  0  0  0  0
  -27.2672  -33.3586   26.2049 H   0  0  0  0  0  0
  -28.3908  -32.6818   25.0337 H   0  0  0  0  0  0
  -28.0718  -31.8412   26.5415 H   0  0  0  0  0  0
  -28.2579  -38.0111   24.7499 H   0  0  0  0  0  0
  -28.1096  -36.2638   24.6284 H   0  0  0  0  0  0
  -27.2301  -37.1426   25.8860 H   0  0  0  0  0  0
  -20.9432  -29.8812   21.6821 H   0  0  0  0  0  0
  -26.0176  -38.2837   24.1382 H   0  0  0  0  0  0
  -32.1729  -19.0848   17.9006 H   0  0  0  0  0  0
  -31.0014  -21.0461   18.5646 H   0  0  0  0  0  0
  -31.6543  -16.8849   18.7370 H   0  0  0  0  0  0
  -28.5254  -18.6497   21.1657 H   0  0  0  0  0  0
  -27.1059  -24.9220   21.3349 H   0  0  0  0  0  0
  -30.5481  -23.0094   19.8262 H   0  0  0  0  0  0
  -29.3760  -22.7846   18.4907 H   0  0  0  0  0  0
  -28.8732  -15.9045   20.8888 H   0  0  0  0  0  0
  1 25  1  0  0  0
  1 30  2  0  0  0
  1 82  1  0  0  0
  2  3  1  0  0  0
  2 25  1  0  0  0
  2 84  1  0  0  0
  2 85  1  0  0  0
  3  4  1  0  0  0
  3 86  1  0  0  0
  3 87  1  0  0  0
  4  5  1  0  0  0
  4 88  1  0  0  0
  4 89  1  0  0  0
  5  6  1  0  0  0
  5 26  1  0  0  0
  5 90  1  0  0  0
  6 25  1  0  0  0
  6 91  1  0  0  0
  6 92  1  0  0  0
  7  8  2  0  0  0
  7 26  1  0  0  0
  7 29  1  0  0  0
  8  9  1  0  0  0
  8 22  1  0  0  0
  9 10  1  0  0  0
  9 27  2  0  0  0
 10 11  2  0  0  0
 10 15  1  0  0  0
 11 12  1  0  0  0
 11 93  1  0  0  0
 12 13  2  0  0  0
 12 94  1  0  0  0
 13 14  1  0  0  0
 13 31  1  0  0  0
 14 15  2  0  0  0
 14 95  1  0  0  0
 15 96  1  0  0  0
 16 17  2  0  0  0
 16 21  1  0  0  0
 16 31  1  0  0  0
 17 18  1  0  0  0
 17 97  1  0  0  0
 18 19  2  0  0  0
 18 98  1  0  0  0
 19 20  1  0  0  0
 19 24  1  0  0  0
 20 21  2  0  0  0
 20 99  1  0  0  0
 21 23  1  0  0  0
 22 28  1  0  0  0
 22 32  2  0  0  0
 26 27  1  0  0  0
 28100  1  0  0  0
 28101  1  0  0  0
 29102  1  0  0  0
 29103  1  0  0  0
 33 34  1  0  0  0
 33 66  1  0  0  0
 33 70  2  0  0  0
 34 36  1  0  0  0
 34 59  1  0  0  0
 34104  1  0  0  0
 35 44  2  0  0  0
 35 45  1  0  0  0
 35 68  1  0  0  0
 36 56  1  0  0  0
 36105  1  0  0  0
 37 39  1  0  0  0
 37 47  1  0  0  0
 37 66  1  0  0  0
 37106  1  0  0  0
 38 43  2  0  0  0
 38 46  1  0  0  0
 38 47  1  0  0  0
 39 64  1  0  0  0
 39 67  2  0  0  0
 40 52  1  0  0  0
 40 53  2  0  0  0
 40 58  1  0  0  0
 41107  1  0  0  0
 41108  1  0  0  0
 41109  1  0  0  0
 41 48  1  0  0  0
 42 43  1  0  0  0
 42 66  1  0  0  0
 42110  1  0  0  0
 42111  1  0  0  0
 43 44  1  0  0  0
 44112  1  0  0  0
 45 46  2  0  0  0
 45113  1  0  0  0
 46114  1  0  0  0
 47115  1  0  0  0
 47116  1  0  0  0
 48 56  1  0  0  0
 48 65  1  0  0  0
 48117  1  0  0  0
 49 50  1  0  0  0
 49 53  1  0  0  0
 49 64  1  0  0  0
 49118  1  0  0  0
 50 51  1  0  0  0
 50119  1  0  0  0
 50120  1  0  0  0
 51 52  1  0  0  0
 51121  1  0  0  0
 51122  1  0  0  0
 52123  1  0  0  0
 52124  1  0  0  0
 53 54  1  0  0  0
 54 55  2  0  0  0
 54125  1  0  0  0
 55 57  1  0  0  0
 55126  1  0  0  0
 56 69  2  0  0  0
 57 58  2  0  0  0
 57127  1  0  0  0
 58128  1  0  0  0
 59 60  1  0  0  0
 59 61  1  0  0  0
 59 62  1  0  0  0
 60129  1  0  0  0
 60130  1  0  0  0
 60131  1  0  0  0
 61132  1  0  0  0
 61133  1  0  0  0
 61134  1  0  0  0
 62135  1  0  0  0
 62136  1  0  0  0
 62137  1  0  0  0
 63 65  1  0  0  0
 63138  1  0  0  0
 63139  1  0  0  0
 63140  1  0  0  0
 64141  1  0  0  0
 65142  1  0  0  0
 68 79  1  0  0  0
 71 72  2  0  0  0
 71 73  1  0  0  0
 71143  1  0  0  0
 72 75  1  0  0  0
 72144  1  0  0  0
 73 76  2  0  0  0
 73145  1  0  0  0
 74 75  2  0  0  0
 74 76  1  0  0  0
 74146  1  0  0  0
 75 81  1  0  0  0
 76 82  1  0  0  0
 77 78  1  0  0  0
 77 79  2  0  0  0
 77 80  1  0  0  0
 78 81  1  0  0  0
 78 83  2  0  0  0
 79147  1  0  0  0
 80 81  1  0  0  0
 80148  1  0  0  0
 80149  1  0  0  0
 82150  1  0  0  0
M  ISO  4   1 100  68 101  79 101  82 100
M  END
> <chiral flag>
0

> <version>
0

> <s_m_source_file>
/data/baiqing/PycharmProjects/Reinvent-master-3.2/result/LINK_invent/BTK/process_docking_weight1_custom_product_contain_oxygen_bond_distance_aromatic_linkinvent_7_9_3/rearranged_h_0087.sdf

> <i_m_source_file_index>
5

> <r_mmod_Potential_Energy-OPLS-2005>
425.725402832031

> <r_mmod_Stretch_Energy-OPLS-2005>
189.669448852539

> <r_mmod_Bend_Energy-OPLS-2005>
286.754455566406

> <r_mmod_Torsional_Energy-OPLS-2005>
228.405700683594

> <r_mmod_Improper_Torsional_Energy-OPLS-2005>
3.88542342185974

> <r_mmod_Van_der_Waal_Energy-OPLS-2005>
138.61311340332

> <r_mmod_Electrostatic_Energy-OPLS-2005>
-353.397705078125

> <r_mmod_Solvation_Energy-OPLS-2005>
-220.498596191406

> <b_mmod_Minimization_Converged-OPLS-2005>
0

> <r_mmod_RMS_Derivative-OPLS-2005>
2.75652432441711

$$$$
5
                    3D
 Structure written by MMmdl.
160169  0  0  1  0            999 V2000
  -30.5826  -14.9162   20.4904 C   0  0  0  0  0  0
  -30.4396  -12.5725   19.5112 C   0  0  0  0  0  0
  -29.5281  -12.5450   18.2627 C   0  0  0  0  0  0
  -28.0601  -12.3240   18.6684 C   0  0  0  0  0  0
  -27.6348  -13.2461   19.8390 C   0  0  2  0  0  0
  -28.6675  -13.2441   20.9813 C   0  0  0  0  0  0
  -25.2439  -13.8159   20.5582 C   0  0  0  0  0  0
  -24.1768  -13.0393   20.9108 C   0  0  0  0  0  0
  -24.6410  -11.6890   20.8703 C   0  0  0  0  0  0
  -23.9098  -10.4270   21.0384 C   0  0  0  0  0  0
  -24.3645   -9.4193   21.9165 C   0  0  0  0  0  0
  -23.6312   -8.2237   22.0757 C   0  0  0  0  0  0
  -22.4286   -8.0281   21.3548 C   0  0  0  0  0  0
  -21.9918   -9.0256   20.4641 C   0  0  0  0  0  0
  -22.7271  -10.2121   20.3038 C   0  0  0  0  0  0
  -21.6860   -6.0742   22.5289 C   0  0  0  0  0  0
  -21.4009   -6.5632   23.8224 C   0  0  0  0  0  0
  -21.3659   -5.6781   24.9180 C   0  0  0  0  0  0
  -21.6048   -4.3049   24.7218 C   0  0  0  0  0  0
  -21.8820   -3.8148   23.4336 C   0  0  0  0  0  0
  -21.9197   -4.6968   22.3398 C   0  0  0  0  0  0
  -22.7783  -13.5166   21.1805 C   0  0  0  0  0  0
  -22.1672   -4.2150   21.0975 F   0  0  0  0  0  0
  -21.5627   -3.4540   25.7732 F   0  0  0  0  0  0
  -29.9644  -13.6608   20.4190 N   0  0  0  0  0  0
  -26.2910  -12.9431   20.3210 N   0  0  0  0  0  0
  -25.9351  -11.6557   20.5719 N   0  0  0  0  0  0
  -22.0464  -12.8187   22.0404 N   0  0  0  0  0  0
  -25.3967  -15.1883   20.3977 N   0  0  0  0  0  0
  -31.7219  -15.0060   20.0166 O   0  0  0  0  0  0
  -21.6647   -6.8890   21.4252 O   0  0  0  0  0  0
  -22.3437  -14.5471   20.6678 O   0  0  0  0  0  0
  -24.6455  -31.8417   23.1868 C   0  0  0  0  0  0
  -25.9213  -32.4666   23.8274 C   0  0  1  0  0  0
  -27.2169  -27.1196   20.1596 C   0  0  0  0  0  0
  -25.5958  -33.8484   24.2190 N   0  0  0  0  0  0
  -23.4484  -30.4589   21.5335 C   0  0  2  0  0  0
  -24.9003  -28.8811   20.1151 C   0  0  0  0  0  0
  -22.7583  -29.4508   22.4870 C   0  0  0  0  0  0
  -18.0312  -28.1357   22.8474 C   0  0  0  0  0  0
  -24.1495  -36.7251   23.2636 C   0  0  0  0  0  0
  -26.0069  -30.7100   21.3900 C   0  0  0  0  0  0
  -26.0784  -29.3182   20.7336 C   0  0  0  0  0  0
  -27.2413  -28.4553   20.7343 C   0  0  0  0  0  0
  -26.0140  -26.7874   19.5005 C   0  0  0  0  0  0
  -24.8805  -27.6291   19.4842 C   0  0  0  0  0  0
  -23.6780  -29.7855   20.1541 C   0  0  0  0  0  0
  -25.4122  -36.3020   24.0321 C   0  0  1  0  0  0
  -20.5931  -28.3679   23.1246 C   0  0  2  0  0  0
  -20.6784  -26.9383   22.5405 C   0  0  0  0  0  0
  -19.5750  -26.6350   21.5207 C   0  0  0  0  0  0
  -18.1941  -26.7893   22.1627 C   0  0  0  0  0  0
  -19.1576  -28.8843   23.2833 C   0  0  0  0  0  0
  -18.9486  -30.1450   23.8845 C   0  0  0  0  0  0
  -17.6478  -30.6559   24.0543 C   0  0  0  0  0  0
  -25.9070  -34.9390   23.5056 C   0  0  0  0  0  0
  -16.5368  -29.9040   23.6332 C   0  0  0  0  0  0
  -16.7296  -28.6459   23.0348 C   0  0  0  0  0  0
  -26.4528  -31.6536   25.0717 C   0  0  0  0  0  0
  -25.3716  -31.3734   26.1418 C   0  0  0  0  0  0
  -27.0384  -30.2919   24.6316 C   0  0  0  0  0  0
  -27.6063  -32.4315   25.7483 C   0  0  0  0  0  0
  -27.5588  -37.1758   24.8454 C   0  0  0  0  0  0
  -21.4275  -29.3000   22.3627 N   0  0  0  0  0  0
  -26.4278  -37.3743   23.9427 N   0  0  0  0  0  0
  -24.7193  -31.0265   22.0911 N   0  0  0  0  0  0
  -23.4245  -28.8072   23.3016 O   0  0  0  0  0  0
  -28.2616  -26.1186   20.1764 O   0  0  0  0  0  0
  -26.5668  -34.8897   22.4642 O   0  0  0  0  0  0
  -23.5571  -32.1303   23.7070 O   0  0  0  0  0  0
  -30.3160  -19.9700   20.3142 C   0  0  0  0  0  0
  -30.6239  -18.5330   20.3728 C   0  0  0  0  0  0
  -28.0937  -19.4918   20.9012 C   0  0  0  0  0  0
  -29.0265  -20.5477   20.6138 C   0  0  0  0  0  0
  -29.6862  -17.4953   20.7338 C   0  0  0  0  0  0
  -28.3963  -18.0754   20.9763 C   0  0  0  0  0  0
  -28.7618  -23.2687   20.1594 C   0  0  0  0  0  0
  -28.3397  -23.4598   22.9277 C   0  0  0  0  0  0
  -27.9077  -24.7396   22.1963 C   0  0  0  0  0  0
  -27.9334  -22.1870   22.1612 C   0  0  0  0  0  0
  -27.9611  -24.6574   20.6558 C   0  0  2  0  0  0
  -30.1356  -15.8980   22.5902 C   0  0  0  0  0  0
  -28.6448  -22.0303   20.8772 N   0  0  0  0  0  0
  -27.3801  -17.2257   21.4018 N   0  0  0  0  0  0
  -29.9775  -16.0312   21.1340 N   0  0  0  0  0  0
  -29.4395  -23.3304   19.1287 O   0  0  0  0  0  0
  -31.4782  -12.7133   19.2108 H   0  0  0  0  0  0
  -30.4135  -11.6132   20.0286 H   0  0  0  0  0  0
  -29.8509  -11.7628   17.5740 H   0  0  0  0  0  0
  -29.6213  -13.4872   17.7221 H   0  0  0  0  0  0
  -27.9553  -11.2799   18.9667 H   0  0  0  0  0  0
  -27.4013  -12.4635   17.8105 H   0  0  0  0  0  0
  -27.6074  -14.2564   19.4284 H   0  0  0  0  0  0
  -28.7374  -12.2546   21.4355 H   0  0  0  0  0  0
  -28.3275  -13.9180   21.7652 H   0  0  0  0  0  0
  -25.2794   -9.5663   22.4739 H   0  0  0  0  0  0
  -24.0024   -7.4612   22.7467 H   0  0  0  0  0  0
  -21.0861   -8.8772   19.8940 H   0  0  0  0  0  0
  -22.3737  -10.9658   19.6134 H   0  0  0  0  0  0
  -21.2003   -7.6137   23.9721 H   0  0  0  0  0  0
  -21.1482   -6.0512   25.9082 H   0  0  0  0  0  0
  -22.0604   -2.7608   23.2838 H   0  0  0  0  0  0
  -22.4134  -11.9874   22.4801 H   0  0  0  0  0  0
  -21.1061  -13.1188   22.2592 H   0  0  0  0  0  0
  -24.6292  -15.8306   20.5554 H   0  0  0  0  0  0
  -26.2875  -15.6765   20.3291 H   0  0  0  0  0  0
  -26.7272  -32.5272   23.1006 H   0  0  0  0  0  0
  -25.0066  -33.9594   25.0305 H   0  0  0  0  0  0
  -22.7497  -31.2831   21.3761 H   0  0  0  0  0  0
  -23.3764  -35.9565   23.3246 H   0  0  0  0  0  0
  -24.3594  -36.8943   22.2062 H   0  0  0  0  0  0
  -23.7244  -37.6431   23.6700 H   0  0  0  0  0  0
  -26.1733  -31.4670   20.6224 H   0  0  0  0  0  0
  -26.8739  -30.7540   22.0367 H   0  0  0  0  0  0
  -28.1420  -28.7870   21.2310 H   0  0  0  0  0  0
  -25.9292  -25.8338   18.9992 H   0  0  0  0  0  0
  -23.9830  -27.2891   18.9864 H   0  0  0  0  0  0
  -23.8149  -30.5574   19.3970 H   0  0  0  0  0  0
  -22.7929  -29.2284   19.8412 H   0  0  0  0  0  0
  -25.1302  -36.1831   25.0810 H   0  0  0  0  0  0
  -21.0013  -28.3240   24.1366 H   0  0  0  0  0  0
  -20.5660  -26.2284   23.3613 H   0  0  0  0  0  0
  -21.6653  -26.7347   22.1215 H   0  0  0  0  0  0
  -19.6903  -25.6251   21.1245 H   0  0  0  0  0  0
  -19.6699  -27.3154   20.6732 H   0  0  0  0  0  0
  -17.4214  -26.6655   21.4025 H   0  0  0  0  0  0
  -18.0330  -26.0034   22.9025 H   0  0  0  0  0  0
  -19.7965  -30.7289   24.2184 H   0  0  0  0  0  0
  -17.5018  -31.6237   24.5146 H   0  0  0  0  0  0
  -15.5359  -30.2917   23.7658 H   0  0  0  0  0  0
  -15.8704  -28.0748   22.7080 H   0  0  0  0  0  0
  -24.5903  -30.7067   25.7756 H   0  0  0  0  0  0
  -24.8894  -32.2908   26.4791 H   0  0  0  0  0  0
  -25.8019  -30.8956   27.0224 H   0  0  0  0  0  0
  -26.2993  -29.6641   24.1326 H   0  0  0  0  0  0
  -27.3972  -29.7233   25.4902 H   0  0  0  0  0  0
  -27.8921  -30.4140   23.9653 H   0  0  0  0  0  0
  -27.2660  -33.3647   26.1981 H   0  0  0  0  0  0
  -28.3895  -32.6827   25.0317 H   0  0  0  0  0  0
  -28.0687  -31.8487   26.5457 H   0  0  0  0  0  0
  -28.2536  -38.0116   24.7574 H   0  0  0  0  0  0
  -28.1156  -36.2656   24.6176 H   0  0  0  0  0  0
  -27.2323  -37.1284   25.8853 H   0  0  0  0  0  0
  -20.9494  -29.8751   21.6835 H   0  0  0  0  0  0
  -26.0138  -38.2796   24.1469 H   0  0  0  0  0  0
  -31.1325  -20.6466   20.1071 H   0  0  0  0  0  0
  -31.6492  -18.2358   20.2070 H   0  0  0  0  0  0
  -27.0851  -19.7888   21.1512 H   0  0  0  0  0  0
  -27.9205  -23.4501   23.9341 H   0  0  0  0  0  0
  -29.4249  -23.4624   23.0579 H   0  0  0  0  0  0
  -28.5364  -25.5618   22.5407 H   0  0  0  0  0  0
  -26.8907  -25.0002   22.4923 H   0  0  0  0  0  0
  -26.8556  -22.1591   21.9924 H   0  0  0  0  0  0
  -28.1575  -21.3426   22.8161 H   0  0  0  0  0  0
  -26.9454  -24.4258   20.3388 H   0  0  0  0  0  0
  -29.5870  -16.6651   23.1351 H   0  0  0  0  0  0
  -31.1866  -16.0023   22.8611 H   0  0  0  0  0  0
  -29.8001  -14.9355   22.9745 H   0  0  0  0  0  0
  -26.5902  -17.6569   21.8703 H   0  0  0  0  0  0
  -27.7033  -16.4040   21.9003 H   0  0  0  0  0  0
  1 25  1  0  0  0
  1 30  2  0  0  0
  1 85  1  0  0  0
  2  3  1  0  0  0
  2 25  1  0  0  0
  2 87  1  0  0  0
  2 88  1  0  0  0
  3  4  1  0  0  0
  3 89  1  0  0  0
  3 90  1  0  0  0
  4  5  1  0  0  0
  4 91  1  0  0  0
  4 92  1  0  0  0
  5  6  1  0  0  0
  5 26  1  0  0  0
  5 93  1  0  0  0
  6 25  1  0  0  0
  6 94  1  0  0  0
  6 95  1  0  0  0
  7  8  2  0  0  0
  7 26  1  0  0  0
  7 29  1  0  0  0
  8  9  1  0  0  0
  8 22  1  0  0  0
  9 10  1  0  0  0
  9 27  2  0  0  0
 10 11  2  0  0  0
 10 15  1  0  0  0
 11 12  1  0  0  0
 11 96  1  0  0  0
 12 13  2  0  0  0
 12 97  1  0  0  0
 13 14  1  0  0  0
 13 31  1  0  0  0
 14 15  2  0  0  0
 14 98  1  0  0  0
 15 99  1  0  0  0
 16 17  2  0  0  0
 16 21  1  0  0  0
 16 31  1  0  0  0
 17 18  1  0  0  0
 17100  1  0  0  0
 18 19  2  0  0  0
 18101  1  0  0  0
 19 20  1  0  0  0
 19 24  1  0  0  0
 20 21  2  0  0  0
 20102  1  0  0  0
 21 23  1  0  0  0
 22 28  1  0  0  0
 22 32  2  0  0  0
 26 27  1  0  0  0
 28103  1  0  0  0
 28104  1  0  0  0
 29105  1  0  0  0
 29106  1  0  0  0
 33 34  1  0  0  0
 33 66  1  0  0  0
 33 70  2  0  0  0
 34 36  1  0  0  0
 34 59  1  0  0  0
 34107  1  0  0  0
 35 44  2  0  0  0
 35 45  1  0  0  0
 35 68  1  0  0  0
 36 56  1  0  0  0
 36108  1  0  0  0
 37 39  1  0  0  0
 37 47  1  0  0  0
 37 66  1  0  0  0
 37109  1  0  0  0
 38 43  2  0  0  0
 38 46  1  0  0  0
 38 47  1  0  0  0
 39 64  1  0  0  0
 39 67  2  0  0  0
 40 52  1  0  0  0
 40 53  2  0  0  0
 40 58  1  0  0  0
 41110  1  0  0  0
 41111  1  0  0  0
 41112  1  0  0  0
 41 48  1  0  0  0
 42 43  1  0  0  0
 42 66  1  0  0  0
 42113  1  0  0  0
 42114  1  0  0  0
 43 44  1  0  0  0
 44115  1  0  0  0
 45 46  2  0  0  0
 45116  1  0  0  0
 46117  1  0  0  0
 47118  1  0  0  0
 47119  1  0  0  0
 48 56  1  0  0  0
 48 65  1  0  0  0
 48120  1  0  0  0
 49 50  1  0  0  0
 49 53  1  0  0  0
 49 64  1  0  0  0
 49121  1  0  0  0
 50 51  1  0  0  0
 50122  1  0  0  0
 50123  1  0  0  0
 51 52  1  0  0  0
 51124  1  0  0  0
 51125  1  0  0  0
 52126  1  0  0  0
 52127  1  0  0  0
 53 54  1  0  0  0
 54 55  2  0  0  0
 54128  1  0  0  0
 55 57  1  0  0  0
 55129  1  0  0  0
 56 69  2  0  0  0
 57 58  2  0  0  0
 57130  1  0  0  0
 58131  1  0  0  0
 59 60  1  0  0  0
 59 61  1  0  0  0
 59 62  1  0  0  0
 60132  1  0  0  0
 60133  1  0  0  0
 60134  1  0  0  0
 61135  1  0  0  0
 61136  1  0  0  0
 61137  1  0  0  0
 62138  1  0  0  0
 62139  1  0  0  0
 62140  1  0  0  0
 63 65  1  0  0  0
 63141  1  0  0  0
 63142  1  0  0  0
 63143  1  0  0  0
 64144  1  0  0  0
 65145  1  0  0  0
 68 81  1  0  0  0
 71 72  2  0  0  0
 71 74  1  0  0  0
 71146  1  0  0  0
 72 75  1  0  0  0
 72147  1  0  0  0
 73 74  2  0  0  0
 73 76  1  0  0  0
 73148  1  0  0  0
 74 83  1  0  0  0
 75 76  2  0  0  0
 75 85  1  0  0  0
 76 84  1  0  0  0
 77 81  1  0  0  0
 77 83  1  0  0  0
 77 86  2  0  0  0
 78 79  1  0  0  0
 78 80  1  0  0  0
 78149  1  0  0  0
 78150  1  0  0  0
 79 81  1  0  0  0
 79151  1  0  0  0
 79152  1  0  0  0
 80 83  1  0  0  0
 80153  1  0  0  0
 80154  1  0  0  0
 81155  1  0  0  0
 82 85  1  0  0  0
 82156  1  0  0  0
 82157  1  0  0  0
 82158  1  0  0  0
 84159  1  0  0  0
 84160  1  0  0  0
M  ISO  4   1 100  68 101  81 101  85 100
M  END
> <chiral flag>
0

> <version>
0

> <s_m_source_file>
/data/baiqing/PycharmProjects/Reinvent-master-3.2/result/LINK_invent/BTK/process_docking_weight1_custom_product_contain_oxygen_bond_distance_aromatic_linkinvent_7_9_3/rearranged_h_0087.sdf

> <i_m_source_file_index>
6

> <r_mmod_Potential_Energy-OPLS-2005>
781.765197753906

> <r_mmod_Stretch_Energy-OPLS-2005>
262.285034179688

> <r_mmod_Bend_Energy-OPLS-2005>
281.016296386719

> <r_mmod_Torsional_Energy-OPLS-2005>
404.402038574219

> <r_mmod_Improper_Torsional_Energy-OPLS-2005>
12.5768518447876

> <r_mmod_Van_der_Waal_Energy-OPLS-2005>
149.099731445312

> <r_mmod_Electrostatic_Energy-OPLS-2005>
-300.239349365234

> <r_mmod_Solvation_Energy-OPLS-2005>
-211.310302734375

> <b_mmod_Minimization_Converged-OPLS-2005>
0

> <r_mmod_RMS_Derivative-OPLS-2005>
2.85698223114014

$$$$
6
                    3D
 Structure written by MMmdl.
155164  0  0  1  0            999 V2000
  -30.7533  -14.9134   20.2731 C   0  0  0  0  0  0
  -30.5647  -12.7051   19.2905 C   0  0  0  0  0  0
  -29.5130  -12.1746   18.2882 C   0  0  0  0  0  0
  -28.0127  -12.5537   18.4677 C   0  0  0  0  0  0
  -27.6331  -13.2508   19.8071 C   0  0  2  0  0  0
  -28.7751  -13.2120   20.8127 C   0  0  0  0  0  0
  -25.2302  -13.8174   20.5913 C   0  0  0  0  0  0
  -24.1658  -13.0122   20.9712 C   0  0  0  0  0  0
  -24.6342  -11.6566   20.8703 C   0  0  0  0  0  0
  -23.8942  -10.3839   21.0356 C   0  0  0  0  0  0
  -24.3428   -9.3806   21.9106 C   0  0  0  0  0  0
  -23.6056   -8.1923   22.0885 C   0  0  0  0  0  0
  -22.4056   -7.9960   21.3612 C   0  0  0  0  0  0
  -21.9577   -8.9908   20.4768 C   0  0  0  0  0  0
  -22.7074  -10.1663   20.3000 C   0  0  0  0  0  0
  -21.6623   -6.0542   22.5295 C   0  0  0  0  0  0
  -21.3770   -6.5591   23.8144 C   0  0  0  0  0  0
  -21.3577   -5.6863   24.9184 C   0  0  0  0  0  0
  -21.6028   -4.3055   24.7243 C   0  0  0  0  0  0
  -21.8866   -3.8123   23.4319 C   0  0  0  0  0  0
  -21.9053   -4.6888   22.3396 C   0  0  0  0  0  0
  -22.7592  -13.4896   21.2271 C   0  0  0  0  0  0
  -22.1620   -4.2083   21.0952 F   0  0  0  0  0  0
  -21.5597   -3.4594   25.7739 F   0  0  0  0  0  0
  -29.9607  -13.7832   20.0709 N   0  0  0  0  0  0
  -26.2881  -12.9311   20.3279 N   0  0  0  0  0  0
  -25.9236  -11.6382   20.5343 N   0  0  0  0  0  0
  -21.9979  -12.7761   22.0749 N   0  0  0  0  0  0
  -25.3244  -15.1814   20.4125 N   0  0  0  0  0  0
  -31.9346  -14.7237   20.5241 O   0  0  0  0  0  0
  -21.6334   -6.8519   21.4143 O   0  0  0  0  0  0
  -22.3388  -14.5207   20.7188 O   0  0  0  0  0  0
  -24.6199  -31.8640   23.2201 C   0  0  0  0  0  0
  -25.9103  -32.4768   23.8513 C   0  0  1  0  0  0
  -27.1780  -27.2450   20.1015 C   0  0  0  0  0  0
  -25.5894  -33.8617   24.2350 N   0  0  0  0  0  0
  -23.4168  -30.5109   21.5564 C   0  0  2  0  0  0
  -24.8734  -28.9932   20.1035 C   0  0  0  0  0  0
  -22.7467  -29.4660   22.4842 C   0  0  0  0  0  0
  -18.0281  -28.1388   22.8491 C   0  0  0  0  0  0
  -24.1442  -36.7124   23.2647 C   0  0  0  0  0  0
  -25.9830  -30.7788   21.4239 C   0  0  0  0  0  0
  -26.0535  -29.4186   20.7249 C   0  0  0  0  0  0
  -27.2058  -28.5566   20.7228 C   0  0  0  0  0  0
  -25.9524  -26.8874   19.4969 C   0  0  0  0  0  0
  -24.8308  -27.7348   19.4918 C   0  0  0  0  0  0
  -23.6409  -29.8920   20.1545 C   0  0  0  0  0  0
  -25.4089  -36.3070   24.0333 C   0  0  1  0  0  0
  -20.5872  -28.3671   23.1244 C   0  0  2  0  0  0
  -20.6761  -26.9373   22.5409 C   0  0  0  0  0  0
  -19.5751  -26.6355   21.5231 C   0  0  0  0  0  0
  -18.1922  -26.7924   22.1633 C   0  0  0  0  0  0
  -19.1532  -28.8866   23.2854 C   0  0  0  0  0  0
  -18.9468  -30.1464   23.8864 C   0  0  0  0  0  0
  -17.6479  -30.6594   24.0546 C   0  0  0  0  0  0
  -25.9068  -34.9461   23.5132 C   0  0  0  0  0  0
  -16.5354  -29.9083   23.6356 C   0  0  0  0  0  0
  -16.7267  -28.6494   23.0379 C   0  0  0  0  0  0
  -26.4524  -31.6697   25.0988 C   0  0  0  0  0  0
  -25.3676  -31.3859   26.1621 C   0  0  0  0  0  0
  -27.0497  -30.3056   24.6755 C   0  0  0  0  0  0
  -27.5997  -32.4610   25.7689 C   0  0  0  0  0  0
  -27.5578  -37.1699   24.8462 C   0  0  0  0  0  0
  -21.4159  -29.3012   22.3592 N   0  0  0  0  0  0
  -26.4245  -37.3758   23.9483 N   0  0  0  0  0  0
  -24.6905  -31.0713   22.1139 N   0  0  0  0  0  0
  -23.4225  -28.8225   23.2925 O   0  0  0  0  0  0
  -28.2422  -26.2947   20.1327 O   0  0  0  0  0  0
  -26.5668  -34.8861   22.4709 O   0  0  0  0  0  0
  -23.5360  -32.1500   23.7517 O   0  0  0  0  0  0
  -27.2041  -17.7679   18.8956 C   0  0  0  0  0  0
  -27.4328  -19.1018   19.2599 C   0  0  0  0  0  0
  -28.2802  -16.8368   18.9397 C   0  0  0  0  0  0
  -29.7748  -18.6135   19.7013 C   0  0  0  0  0  0
  -28.7241  -19.5929   19.5566 C   0  0  0  0  0  0
  -29.5381  -17.1856   19.4909 C   0  0  0  0  0  0
  -27.8856  -23.3604   21.2860 C   0  0  0  0  0  0
  -28.4647  -21.0283   21.3666 C   0  0  0  0  0  0
  -28.2941  -23.5012   20.0096 C   0  0  0  0  0  0
  -27.9684  -22.0992   21.9963 C   0  0  0  0  0  0
  -28.6669  -22.2140   19.2732 C   0  0  0  0  0  0
  -28.2826  -24.9838   19.3331 C   0  0  0  0  0  0
  -28.7948  -21.0176   20.0116 N   0  0  0  0  0  0
  -30.5708  -16.1551   19.6380 N   0  0  0  0  0  0
  -28.8814  -22.1968   18.0580 O   0  0  0  0  0  0
  -27.4749  -21.9412   23.2229 O   0  0  0  0  0  0
  -31.4068  -13.0741   18.7151 H   0  0  0  0  0  0
  -30.9342  -11.9300   19.9627 H   0  0  0  0  0  0
  -29.5533  -11.0825   18.4223 H   0  0  0  0  0  0
  -29.8668  -12.2844   17.2490 H   0  0  0  0  0  0
  -27.3719  -11.6957   18.3110 H   0  0  0  0  0  0
  -27.7307  -13.1727   17.6307 H   0  0  0  0  0  0
  -27.5471  -14.2918   19.5335 H   0  0  0  0  0  0
  -28.8614  -12.1398   21.0195 H   0  0  0  0  0  0
  -28.5775  -13.7350   21.7539 H   0  0  0  0  0  0
  -25.2422   -9.5316   22.4816 H   0  0  0  0  0  0
  -23.9673   -7.4309   22.7732 H   0  0  0  0  0  0
  -21.0405   -8.8357   19.9191 H   0  0  0  0  0  0
  -22.3552  -10.9077   19.6190 H   0  0  0  0  0  0
  -21.1715   -7.6085   23.9604 H   0  0  0  0  0  0
  -21.1413   -6.0552   25.9033 H   0  0  0  0  0  0
  -22.0746   -2.7596   23.2882 H   0  0  0  0  0  0
  -22.3013  -11.9386   22.5398 H   0  0  0  0  0  0
  -21.0427  -13.0818   22.2426 H   0  0  0  0  0  0
  -24.4727  -15.7407   20.4527 H   0  0  0  0  0  0
  -26.1343  -15.6968   20.1072 H   0  0  0  0  0  0
  -26.7243  -32.5515   23.1300 H   0  0  0  0  0  0
  -24.9965  -33.9868   25.0458 H   0  0  0  0  0  0
  -22.7062  -31.3303   21.4385 H   0  0  0  0  0  0
  -23.3850  -35.9309   23.3255 H   0  0  0  0  0  0
  -24.3516  -36.8822   22.2085 H   0  0  0  0  0  0
  -23.7071  -37.6189   23.6767 H   0  0  0  0  0  0
  -26.1890  -31.6121   20.7464 H   0  0  0  0  0  0
  -26.8013  -30.7493   22.1215 H   0  0  0  0  0  0
  -28.0831  -28.8693   21.2633 H   0  0  0  0  0  0
  -25.8009  -25.9095   19.0638 H   0  0  0  0  0  0
  -23.9204  -27.3986   19.0137 H   0  0  0  0  0  0
  -23.7573  -30.7034   19.4338 H   0  0  0  0  0  0
  -22.7537  -29.3456   19.8223 H   0  0  0  0  0  0
  -25.1311  -36.1794   25.0821 H   0  0  0  0  0  0
  -21.0011  -28.3283   24.1360 H   0  0  0  0  0  0
  -20.5673  -26.2291   23.3624 H   0  0  0  0  0  0
  -21.6634  -26.7421   22.1219 H   0  0  0  0  0  0
  -19.6896  -25.6270   21.1286 H   0  0  0  0  0  0
  -19.6689  -27.3146   20.6756 H   0  0  0  0  0  0
  -17.4177  -26.6647   21.4026 H   0  0  0  0  0  0
  -18.0294  -26.0070   22.9042 H   0  0  0  0  0  0
  -19.7934  -30.7281   24.2194 H   0  0  0  0  0  0
  -17.5026  -31.6288   24.5117 H   0  0  0  0  0  0
  -15.5339  -30.2992   23.7725 H   0  0  0  0  0  0
  -15.8635  -28.0828   22.7137 H   0  0  0  0  0  0
  -24.5820  -30.7258   25.7892 H   0  0  0  0  0  0
  -24.8899  -32.3054   26.4990 H   0  0  0  0  0  0
  -25.7880  -30.9027   27.0422 H   0  0  0  0  0  0
  -26.3168  -29.6492   24.1992 H   0  0  0  0  0  0
  -27.4221  -29.7659   25.5473 H   0  0  0  0  0  0
  -27.9036  -30.4183   24.0048 H   0  0  0  0  0  0
  -27.2447  -33.3857   26.2137 H   0  0  0  0  0  0
  -28.3704  -32.7210   25.0487 H   0  0  0  0  0  0
  -28.0705  -31.8909   26.5643 H   0  0  0  0  0  0
  -28.2486  -38.0095   24.7702 H   0  0  0  0  0  0
  -28.1175  -36.2660   24.6057 H   0  0  0  0  0  0
  -27.2327  -37.1034   25.8846 H   0  0  0  0  0  0
  -20.9306  -29.8655   21.6737 H   0  0  0  0  0  0
  -26.0075  -38.2742   24.1665 H   0  0  0  0  0  0
  -26.2016  -17.5384   18.5688 H   0  0  0  0  0  0
  -26.6088  -19.7605   19.2784 H   0  0  0  0  0  0
  -28.1947  -15.8995   18.4183 H   0  0  0  0  0  0
  -30.7421  -18.9619   20.0402 H   0  0  0  0  0  0
  -27.4931  -24.2322   21.8071 H   0  0  0  0  0  0
  -28.5570  -20.0663   21.8621 H   0  0  0  0  0  0
  -27.5339  -24.9647   18.5306 H   0  0  0  0  0  0
  -29.2060  -25.0276   18.7893 H   0  0  0  0  0  0
  -31.4997  -16.5403   19.4924 H   0  0  0  0  0  0
  -27.3337  -21.0150   23.3558 H   0  0  0  0  0  0
  1 25  1  0  0  0
  1 30  2  0  0  0
  1 84  1  0  0  0
  2  3  1  0  0  0
  2 25  1  0  0  0
  2 87  1  0  0  0
  2 88  1  0  0  0
  3  4  1  0  0  0
  3 89  1  0  0  0
  3 90  1  0  0  0
  4  5  1  0  0  0
  4 91  1  0  0  0
  4 92  1  0  0  0
  5  6  1  0  0  0
  5 26  1  0  0  0
  5 93  1  0  0  0
  6 25  1  0  0  0
  6 94  1  0  0  0
  6 95  1  0  0  0
  7  8  2  0  0  0
  7 26  1  0  0  0
  7 29  1  0  0  0
  8  9  1  0  0  0
  8 22  1  0  0  0
  9 10  1  0  0  0
  9 27  2  0  0  0
 10 11  2  0  0  0
 10 15  1  0  0  0
 11 12  1  0  0  0
 11 96  1  0  0  0
 12 13  2  0  0  0
 12 97  1  0  0  0
 13 14  1  0  0  0
 13 31  1  0  0  0
 14 15  2  0  0  0
 14 98  1  0  0  0
 15 99  1  0  0  0
 16 17  2  0  0  0
 16 21  1  0  0  0
 16 31  1  0  0  0
 17 18  1  0  0  0
 17100  1  0  0  0
 18 19  2  0  0  0
 18101  1  0  0  0
 19 20  1  0  0  0
 19 24  1  0  0  0
 20 21  2  0  0  0
 20102  1  0  0  0
 21 23  1  0  0  0
 22 28  1  0  0  0
 22 32  2  0  0  0
 26 27  1  0  0  0
 28103  1  0  0  0
 28104  1  0  0  0
 29105  1  0  0  0
 29106  1  0  0  0
 33 34  1  0  0  0
 33 66  1  0  0  0
 33 70  2  0  0  0
 34 36  1  0  0  0
 34 59  1  0  0  0
 34107  1  0  0  0
 35 44  2  0  0  0
 35 45  1  0  0  0
 35 68  1  0  0  0
 36 56  1  0  0  0
 36108  1  0  0  0
 37 39  1  0  0  0
 37 47  1  0  0  0
 37 66  1  0  0  0
 37109  1  0  0  0
 38 43  2  0  0  0
 38 46  1  0  0  0
 38 47  1  0  0  0
 39 64  1  0  0  0
 39 67  2  0  0  0
 40 52  1  0  0  0
 40 53  2  0  0  0
 40 58  1  0  0  0
 41110  1  0  0  0
 41111  1  0  0  0
 41112  1  0  0  0
 41 48  1  0  0  0
 42 43  1  0  0  0
 42 66  1  0  0  0
 42113  1  0  0  0
 42114  1  0  0  0
 43 44  1  0  0  0
 44115  1  0  0  0
 45 46  2  0  0  0
 45116  1  0  0  0
 46117  1  0  0  0
 47118  1  0  0  0
 47119  1  0  0  0
 48 56  1  0  0  0
 48 65  1  0  0  0
 48120  1  0  0  0
 49 50  1  0  0  0
 49 53  1  0  0  0
 49 64  1  0  0  0
 49121  1  0  0  0
 50 51  1  0  0  0
 50122  1  0  0  0
 50123  1  0  0  0
 51 52  1  0  0  0
 51124  1  0  0  0
 51125  1  0  0  0
 52126  1  0  0  0
 52127  1  0  0  0
 53 54  1  0  0  0
 54 55  2  0  0  0
 54128  1  0  0  0
 55 57  1  0  0  0
 55129  1  0  0  0
 56 69  2  0  0  0
 57 58  2  0  0  0
 57130  1  0  0  0
 58131  1  0  0  0
 59 60  1  0  0  0
 59 61  1  0  0  0
 59 62  1  0  0  0
 60132  1  0  0  0
 60133  1  0  0  0
 60134  1  0  0  0
 61135  1  0  0  0
 61136  1  0  0  0
 61137  1  0  0  0
 62138  1  0  0  0
 62139  1  0  0  0
 62140  1  0  0  0
 63 65  1  0  0  0
 63141  1  0  0  0
 63142  1  0  0  0
 63143  1  0  0  0
 64144  1  0  0  0
 65145  1  0  0  0
 68 82  1  0  0  0
 71 72  2  0  0  0
 71 73  1  0  0  0
 71146  1  0  0  0
 72 75  1  0  0  0
 72147  1  0  0  0
 73 76  2  0  0  0
 73148  1  0  0  0
 74 75  2  0  0  0
 74 76  1  0  0  0
 74149  1  0  0  0
 75 83  1  0  0  0
 76 84  1  0  0  0
 77 79  2  0  0  0
 77 80  1  0  0  0
 77150  1  0  0  0
 78 80  2  0  0  0
 78 83  1  0  0  0
 78151  1  0  0  0
 79 81  1  0  0  0
 79 82  1  0  0  0
 80 86  1  0  0  0
 81 83  1  0  0  0
 81 85  2  0  0  0
 82152  1  0  0  0
 82153  1  0  0  0
 84154  1  0  0  0
 86155  1  0  0  0
M  ISO  4   1 100  68 101  82 101  84 100
M  END
> <chiral flag>
0

> <version>
0

> <s_m_source_file>
/data/baiqing/PycharmProjects/Reinvent-master-3.2/result/LINK_invent/BTK/process_docking_weight1_custom_product_contain_oxygen_bond_distance_aromatic_linkinvent_7_9_3/rearranged_h_0087.sdf

> <i_m_source_file_index>
7

> <r_mmod_Potential_Energy-OPLS-2005>
687.881286621094

> <r_mmod_Stretch_Energy-OPLS-2005>
175.636169433594

> <r_mmod_Bend_Energy-OPLS-2005>
291.287963867188

> <r_mmod_Torsional_Energy-OPLS-2005>
376.716583251953

> <r_mmod_Improper_Torsional_Energy-OPLS-2005>
33.4986228942871

> <r_mmod_Van_der_Waal_Energy-OPLS-2005>
161.084548950195

> <r_mmod_Electrostatic_Energy-OPLS-2005>
-362.353912353516

> <r_mmod_Solvation_Energy-OPLS-2005>
-216.587951660156

> <b_mmod_Minimization_Converged-OPLS-2005>
0

> <r_mmod_RMS_Derivative-OPLS-2005>
36.6322898864746

$$$$
7
                    3D
 Structure written by MMmdl.
154162  0  0  1  0            999 V2000
  -30.7008  -14.5337   20.5368 C   0  0  0  0  0  0
  -30.4184  -12.3365   19.4387 C   0  0  0  0  0  0
  -29.4959  -12.5030   18.2141 C   0  0  0  0  0  0
  -28.0189  -12.3583   18.6273 C   0  0  0  0  0  0
  -27.6553  -13.2178   19.8678 C   0  0  2  0  0  0
  -28.6997  -13.0515   20.9956 C   0  0  0  0  0  0
  -25.2556  -13.8178   20.5690 C   0  0  0  0  0  0
  -24.1825  -13.0439   20.9196 C   0  0  0  0  0  0
  -24.6396  -11.6912   20.8744 C   0  0  0  0  0  0
  -23.9066  -10.4297   21.0397 C   0  0  0  0  0  0
  -24.3612   -9.4212   21.9177 C   0  0  0  0  0  0
  -23.6295   -8.2241   22.0751 C   0  0  0  0  0  0
  -22.4276   -8.0278   21.3543 C   0  0  0  0  0  0
  -21.9911   -9.0248   20.4640 C   0  0  0  0  0  0
  -22.7238  -10.2128   20.3045 C   0  0  0  0  0  0
  -21.6853   -6.0730   22.5280 C   0  0  0  0  0  0
  -21.4009   -6.5630   23.8215 C   0  0  0  0  0  0
  -21.3657   -5.6782   24.9177 C   0  0  0  0  0  0
  -21.6045   -4.3046   24.7226 C   0  0  0  0  0  0
  -21.8822   -3.8140   23.4346 C   0  0  0  0  0  0
  -21.9194   -4.6959   22.3399 C   0  0  0  0  0  0
  -22.7850  -13.5230   21.1860 C   0  0  0  0  0  0
  -22.1665   -4.2145   21.0980 F   0  0  0  0  0  0
  -21.5622   -3.4526   25.7736 F   0  0  0  0  0  0
  -30.0241  -13.3525   20.4317 N   0  0  0  0  0  0
  -26.2999  -12.9370   20.3351 N   0  0  0  0  0  0
  -25.9326  -11.6519   20.5771 N   0  0  0  0  0  0
  -22.0482  -12.8214   22.0403 N   0  0  0  0  0  0
  -25.4272  -15.1899   20.4099 N   0  0  0  0  0  0
  -31.8473  -14.6511   20.0997 O   0  0  0  0  0  0
  -21.6639   -6.8873   21.4245 O   0  0  0  0  0  0
  -22.3543  -14.5544   20.6726 O   0  0  0  0  0  0
  -24.6186  -31.8661   23.2088 C   0  0  0  0  0  0
  -25.9069  -32.4808   23.8400 C   0  0  1  0  0  0
  -27.2241  -27.3976   20.1059 C   0  0  0  0  0  0
  -25.5914  -33.8606   24.2329 N   0  0  0  0  0  0
  -23.4089  -30.4909   21.5488 C   0  0  2  0  0  0
  -24.8564  -28.9592   20.1081 C   0  0  0  0  0  0
  -22.7442  -29.4659   22.4968 C   0  0  0  0  0  0
  -18.0267  -28.1397   22.8493 C   0  0  0  0  0  0
  -24.1479  -36.7292   23.2642 C   0  0  0  0  0  0
  -25.9428  -30.8221   21.3676 C   0  0  0  0  0  0
  -26.0208  -29.4557   20.7101 C   0  0  0  0  0  0
  -27.2115  -28.6828   20.7062 C   0  0  0  0  0  0
  -26.0467  -26.9384   19.4745 C   0  0  0  0  0  0
  -24.8661  -27.7012   19.4845 C   0  0  0  0  0  0
  -23.6188  -29.8272   20.1625 C   0  0  0  0  0  0
  -25.4099  -36.3102   24.0351 C   0  0  1  0  0  0
  -20.5866  -28.3685   23.1308 C   0  0  2  0  0  0
  -20.6753  -26.9420   22.5417 C   0  0  0  0  0  0
  -19.5735  -26.6399   21.5216 C   0  0  0  0  0  0
  -18.1914  -26.7944   22.1622 C   0  0  0  0  0  0
  -19.1521  -28.8859   23.2890 C   0  0  0  0  0  0
  -18.9449  -30.1458   23.8903 C   0  0  0  0  0  0
  -17.6451  -30.6598   24.0566 C   0  0  0  0  0  0
  -25.9040  -34.9468   23.5136 C   0  0  0  0  0  0
  -16.5340  -29.9097   23.6337 C   0  0  0  0  0  0
  -16.7257  -28.6511   23.0361 C   0  0  0  0  0  0
  -26.4481  -31.6595   25.0736 C   0  0  0  0  0  0
  -25.3739  -31.3697   26.1475 C   0  0  0  0  0  0
  -27.0307  -30.3027   24.6135 C   0  0  0  0  0  0
  -27.6054  -32.4316   25.7497 C   0  0  0  0  0  0
  -27.5584  -37.1793   24.8467 C   0  0  0  0  0  0
  -21.4168  -29.3042   22.3716 N   0  0  0  0  0  0
  -26.4274  -37.3799   23.9442 N   0  0  0  0  0  0
  -24.6750  -31.0736   22.1002 N   0  0  0  0  0  0
  -23.4199  -28.8202   23.3020 O   0  0  0  0  0  0
  -28.3174  -26.5458   20.1691 O   0  0  0  0  0  0
  -26.5599  -34.8927   22.4690 O   0  0  0  0  0  0
  -23.5370  -32.1425   23.7466 O   0  0  0  0  0  0
  -31.0710  -19.7796   21.1719 C   0  0  0  0  0  0
  -29.3760  -18.0283   21.0316 C   0  0  0  0  0  0
  -31.7261  -17.4235   21.1045 C   0  0  0  0  0  0
  -29.7080  -19.4192   21.0991 C   0  0  0  0  0  0
  -32.0707  -18.7896   21.1735 C   0  0  0  0  0  0
  -30.3724  -17.0081   21.0215 C   0  0  0  0  0  0
  -28.0311  -25.2914   20.7022 C   0  0  0  0  0  0
  -28.6245  -20.4796   21.2253 C   0  0  0  0  0  0
  -28.6806  -24.1182   20.4678 C   0  0  0  0  0  0
  -28.1558  -22.8775   21.0791 C   0  0  0  0  0  0
  -33.4101  -19.1656   21.2619 N   0  0  0  0  0  0
  -29.9887  -15.6083   20.9758 N   0  0  0  0  0  0
  -28.9068  -21.7629   20.8598 N   0  0  0  0  0  0
  -27.5205  -20.1103   21.6430 O   0  0  0  0  0  0
  -27.1096  -22.8633   21.7395 O   0  0  0  0  0  0
  -29.7658  -24.0777   19.6810 O   0  0  0  0  0  0
  -31.4635  -12.4247   19.1368 H   0  0  0  0  0  0
  -30.3165  -11.3364   19.8623 H   0  0  0  0  0  0
  -29.7436  -11.7642   17.4504 H   0  0  0  0  0  0
  -29.6589  -13.4811   17.7576 H   0  0  0  0  0  0
  -27.8395  -11.3048   18.8430 H   0  0  0  0  0  0
  -27.3663  -12.6106   17.7907 H   0  0  0  0  0  0
  -27.6830  -14.2579   19.5428 H   0  0  0  0  0  0
  -28.6864  -12.0317   21.3828 H   0  0  0  0  0  0
  -28.4611  -13.6944   21.8445 H   0  0  0  0  0  0
  -25.2754   -9.5695   22.4757 H   0  0  0  0  0  0
  -24.0005   -7.4631   22.7474 H   0  0  0  0  0  0
  -21.0838   -8.8761   19.8951 H   0  0  0  0  0  0
  -22.3687  -10.9656   19.6149 H   0  0  0  0  0  0
  -21.1998   -7.6138   23.9719 H   0  0  0  0  0  0
  -21.1468   -6.0506   25.9082 H   0  0  0  0  0  0
  -22.0597   -2.7602   23.2840 H   0  0  0  0  0  0
  -22.4061  -11.9844   22.4762 H   0  0  0  0  0  0
  -21.1116  -13.1273   22.2624 H   0  0  0  0  0  0
  -24.6613  -15.8464   20.5153 H   0  0  0  0  0  0
  -26.2758  -15.6244   20.0706 H   0  0  0  0  0  0
  -26.7142  -32.5511   23.1164 H   0  0  0  0  0  0
  -25.0093  -33.9766   25.0491 H   0  0  0  0  0  0
  -22.6988  -31.3085   21.4101 H   0  0  0  0  0  0
  -23.3773  -35.9591   23.3267 H   0  0  0  0  0  0
  -24.3593  -36.8941   22.2066 H   0  0  0  0  0  0
  -23.7190  -37.6470   23.6663 H   0  0  0  0  0  0
  -26.0618  -31.5896   20.6013 H   0  0  0  0  0  0
  -26.8284  -30.8729   21.9893 H   0  0  0  0  0  0
  -28.1039  -29.0525   21.1911 H   0  0  0  0  0  0
  -26.0317  -25.9680   18.9995 H   0  0  0  0  0  0
  -23.9728  -27.3139   19.0139 H   0  0  0  0  0  0
  -23.7269  -30.6028   19.4033 H   0  0  0  0  0  0
  -22.7430  -29.2468   19.8673 H   0  0  0  0  0  0
  -25.1269  -36.1959   25.0840 H   0  0  0  0  0  0
  -20.9951  -28.3243   24.1433 H   0  0  0  0  0  0
  -20.5666  -26.2302   23.3611 H   0  0  0  0  0  0
  -21.6621  -26.7467   22.1207 H   0  0  0  0  0  0
  -19.6898  -25.6312   21.1248 H   0  0  0  0  0  0
  -19.6681  -27.3206   20.6742 H   0  0  0  0  0  0
  -17.4200  -26.6720   21.4006 H   0  0  0  0  0  0
  -18.0292  -26.0076   22.9000 H   0  0  0  0  0  0
  -19.7925  -30.7262   24.2286 H   0  0  0  0  0  0
  -17.5018  -31.6286   24.5160 H   0  0  0  0  0  0
  -15.5343  -30.3002   23.7666 H   0  0  0  0  0  0
  -15.8657  -28.0834   22.7082 H   0  0  0  0  0  0
  -24.5930  -30.7015   25.7819 H   0  0  0  0  0  0
  -24.8890  -32.2838   26.4913 H   0  0  0  0  0  0
  -25.8101  -30.8894   27.0241 H   0  0  0  0  0  0
  -26.2849  -29.6797   24.1177 H   0  0  0  0  0  0
  -27.4044  -29.7265   25.4612 H   0  0  0  0  0  0
  -27.8708  -30.4325   23.9305 H   0  0  0  0  0  0
  -27.2684  -33.3635   26.2045 H   0  0  0  0  0  0
  -28.3870  -32.6847   25.0321 H   0  0  0  0  0  0
  -28.0700  -31.8454   26.5433 H   0  0  0  0  0  0
  -28.2563  -38.0129   24.7575 H   0  0  0  0  0  0
  -28.1110  -36.2666   24.6189 H   0  0  0  0  0  0
  -27.2329  -37.1326   25.8874 H   0  0  0  0  0  0
  -20.9344  -29.8762   21.6925 H   0  0  0  0  0  0
  -26.0160  -38.2868   24.1480 H   0  0  0  0  0  0
  -31.3528  -20.8195   21.2589 H   0  0  0  0  0  0
  -28.3326  -17.7444   21.0013 H   0  0  0  0  0  0
  -32.5238  -16.6975   21.1364 H   0  0  0  0  0  0
  -27.1688  -25.3301   21.3576 H   0  0  0  0  0  0
  -33.6423  -20.0938   21.6043 H   0  0  0  0  0  0
  -34.1036  -18.4669   21.5155 H   0  0  0  0  0  0
  -29.0287  -15.4024   21.2057 H   0  0  0  0  0  0
  -29.7794  -21.9329   20.3853 H   0  0  0  0  0  0
  -29.9197  -24.9670   19.3879 H   0  0  0  0  0  0
  1 25  1  0  0  0
  1 30  2  0  0  0
  1 82  1  0  0  0
  2  3  1  0  0  0
  2 25  1  0  0  0
  2 87  1  0  0  0
  2 88  1  0  0  0
  3  4  1  0  0  0
  3 89  1  0  0  0
  3 90  1  0  0  0
  4  5  1  0  0  0
  4 91  1  0  0  0
  4 92  1  0  0  0
  5  6  1  0  0  0
  5 26  1  0  0  0
  5 93  1  0  0  0
  6 25  1  0  0  0
  6 94  1  0  0  0
  6 95  1  0  0  0
  7  8  2  0  0  0
  7 26  1  0  0  0
  7 29  1  0  0  0
  8  9  1  0  0  0
  8 22  1  0  0  0
  9 10  1  0  0  0
  9 27  2  0  0  0
 10 11  2  0  0  0
 10 15  1  0  0  0
 11 12  1  0  0  0
 11 96  1  0  0  0
 12 13  2  0  0  0
 12 97  1  0  0  0
 13 14  1  0  0  0
 13 31  1  0  0  0
 14 15  2  0  0  0
 14 98  1  0  0  0
 15 99  1  0  0  0
 16 17  2  0  0  0
 16 21  1  0  0  0
 16 31  1  0  0  0
 17 18  1  0  0  0
 17100  1  0  0  0
 18 19  2  0  0  0
 18101  1  0  0  0
 19 20  1  0  0  0
 19 24  1  0  0  0
 20 21  2  0  0  0
 20102  1  0  0  0
 21 23  1  0  0  0
 22 28  1  0  0  0
 22 32  2  0  0  0
 26 27  1  0  0  0
 28103  1  0  0  0
 28104  1  0  0  0
 29105  1  0  0  0
 29106  1  0  0  0
 33 34  1  0  0  0
 33 66  1  0  0  0
 33 70  2  0  0  0
 34 36  1  0  0  0
 34 59  1  0  0  0
 34107  1  0  0  0
 35 44  2  0  0  0
 35 45  1  0  0  0
 35 68  1  0  0  0
 36 56  1  0  0  0
 36108  1  0  0  0
 37 39  1  0  0  0
 37 47  1  0  0  0
 37 66  1  0  0  0
 37109  1  0  0  0
 38 43  2  0  0  0
 38 46  1  0  0  0
 38 47  1  0  0  0
 39 64  1  0  0  0
 39 67  2  0  0  0
 40 52  1  0  0  0
 40 53  2  0  0  0
 40 58  1  0  0  0
 41110  1  0  0  0
 41111  1  0  0  0
 41112  1  0  0  0
 41 48  1  0  0  0
 42 43  1  0  0  0
 42 66  1  0  0  0
 42113  1  0  0  0
 42114  1  0  0  0
 43 44  1  0  0  0
 44115  1  0  0  0
 45 46  2  0  0  0
 45116  1  0  0  0
 46117  1  0  0  0
 47118  1  0  0  0
 47119  1  0  0  0
 48 56  1  0  0  0
 48 65  1  0  0  0
 48120  1  0  0  0
 49 50  1  0  0  0
 49 53  1  0  0  0
 49 64  1  0  0  0
 49121  1  0  0  0
 50 51  1  0  0  0
 50122  1  0  0  0
 50123  1  0  0  0
 51 52  1  0  0  0
 51124  1  0  0  0
 51125  1  0  0  0
 52126  1  0  0  0
 52127  1  0  0  0
 53 54  1  0  0  0
 54 55  2  0  0  0
 54128  1  0  0  0
 55 57  1  0  0  0
 55129  1  0  0  0
 56 69  2  0  0  0
 57 58  2  0  0  0
 57130  1  0  0  0
 58131  1  0  0  0
 59 60  1  0  0  0
 59 61  1  0  0  0
 59 62  1  0  0  0
 60132  1  0  0  0
 60133  1  0  0  0
 60134  1  0  0  0
 61135  1  0  0  0
 61136  1  0  0  0
 61137  1  0  0  0
 62138  1  0  0  0
 62139  1  0  0  0
 62140  1  0  0  0
 63 65  1  0  0  0
 63141  1  0  0  0
 63142  1  0  0  0
 63143  1  0  0  0
 64144  1  0  0  0
 65145  1  0  0  0
 68 77  1  0  0  0
 71 74  2  0  0  0
 71 75  1  0  0  0
 71146  1  0  0  0
 72 74  1  0  0  0
 72 76  2  0  0  0
 72147  1  0  0  0
 73 75  2  0  0  0
 73 76  1  0  0  0
 73148  1  0  0  0
 74 78  1  0  0  0
 75 81  1  0  0  0
 76 82  1  0  0  0
 77 79  2  0  0  0
 77149  1  0  0  0
 78 83  1  0  0  0
 78 84  2  0  0  0
 79 80  1  0  0  0
 79 86  1  0  0  0
 80 83  1  0  0  0
 80 85  2  0  0  0
 81150  1  0  0  0
 81151  1  0  0  0
 82152  1  0  0  0
 83153  1  0  0  0
 86154  1  0  0  0
M  ISO  4   1 100  68 101  77 101  82 100
M  END
> <chiral flag>
0

> <version>
0

> <s_m_source_file>
/data/baiqing/PycharmProjects/Reinvent-master-3.2/result/LINK_invent/BTK/process_docking_weight1_custom_product_contain_oxygen_bond_distance_aromatic_linkinvent_7_9_3/rearranged_h_0087.sdf

> <i_m_source_file_index>
8

> <r_mmod_Potential_Energy-OPLS-2005>
-233.605728149414

> <r_mmod_Stretch_Energy-OPLS-2005>
51.7684860229492

> <r_mmod_Bend_Energy-OPLS-2005>
109.3037109375

> <r_mmod_Torsional_Energy-OPLS-2005>
218.936828613281

> <r_mmod_Improper_Torsional_Energy-OPLS-2005>
7.43406629562378

> <r_mmod_Van_der_Waal_Energy-OPLS-2005>
172.295822143555

> <r_mmod_Electrostatic_Energy-OPLS-2005>
-555.439819335938

> <r_mmod_Solvation_Energy-OPLS-2005>
-263.9384765625

> <b_mmod_Minimization_Converged-OPLS-2005>
0

> <r_mmod_RMS_Derivative-OPLS-2005>
1.39332211017609

$$$$
8
                    3D
 Structure written by MMmdl.
159168  0  0  1  0            999 V2000
  -28.2581  -16.5083   20.8752 C   0  0  0  0  0  0
  -29.8196  -14.1202   19.8050 C   0  0  0  0  0  0
  -29.4488  -13.0789   18.6318 C   0  0  0  0  0  0
  -28.1748  -12.2914   18.9366 C   0  0  0  0  0  0
  -27.3746  -13.2311   19.8290 C   0  0  2  0  0  0
  -28.0764  -13.7235   21.0950 C   0  0  0  0  0  0
  -25.1092  -13.7770   20.5429 C   0  0  0  0  0  0
  -24.0713  -13.0043   20.9271 C   0  0  0  0  0  0
  -24.5466  -11.6574   20.8760 C   0  0  0  0  0  0
  -23.8432  -10.4048   21.0533 C   0  0  0  0  0  0
  -24.3245   -9.4086   21.9285 C   0  0  0  0  0  0
  -23.6071   -8.2071   22.0822 C   0  0  0  0  0  0
  -22.4071   -8.0055   21.3584 C   0  0  0  0  0  0
  -21.9556   -8.9940   20.4672 C   0  0  0  0  0  0
  -22.6715  -10.1858   20.3095 C   0  0  0  0  0  0
  -21.6772   -6.0592   22.5337 C   0  0  0  0  0  0
  -21.3981   -6.5570   23.8246 C   0  0  0  0  0  0
  -21.3622   -5.6754   24.9237 C   0  0  0  0  0  0
  -21.6028   -4.3017   24.7305 C   0  0  0  0  0  0
  -21.8824   -3.8071   23.4450 C   0  0  0  0  0  0
  -21.9162   -4.6847   22.3482 C   0  0  0  0  0  0
  -22.6953  -13.5010   21.2136 C   0  0  0  0  0  0
  -22.1646   -4.2048   21.1055 F   0  0  0  0  0  0
  -21.5588   -3.4508   25.7827 F   0  0  0  0  0  0
  -28.6247  -14.9665   20.5863 N   0  0  0  0  0  0
  -26.1004  -12.8729   20.2421 N   0  0  0  0  0  0
  -25.8170  -11.5975   20.5334 N   0  0  0  0  0  0
  -21.9671  -12.8114   22.0801 N   0  0  0  0  0  0
  -25.2951  -15.1519   20.4109 N   0  0  0  0  0  0
  -29.5447  -16.6894   20.6535 O   0  0  0  0  0  0
  -21.6505   -6.8641   21.4269 O   0  0  0  0  0  0
  -22.2814  -14.5441   20.7064 O   0  0  0  0  0  0
  -24.6688  -31.9771   23.2302 C   0  0  0  0  0  0
  -25.9663  -32.5224   23.8721 C   0  0  1  0  0  0
  -25.9725  -27.2435   20.3789 C   0  0  0  0  0  0
  -25.6592  -33.8972   24.2714 N   0  0  0  0  0  0
  -23.4466  -30.7068   21.5486 C   0  0  2  0  0  0
  -24.8379  -29.4257   19.7723 C   0  0  0  0  0  0
  -22.9934  -29.6081   22.5673 C   0  0  0  0  0  0
  -19.1920  -26.6425   22.5839 C   0  0  0  0  0  0
  -24.1523  -36.7384   23.2577 C   0  0  0  0  0  0
  -25.9973  -30.8468   21.4439 C   0  0  0  0  0  0
  -25.8938  -29.5505   20.6742 C   0  0  0  0  0  0
  -26.6582  -28.3936   20.8840 C   0  0  0  0  0  0
  -25.7772  -27.2941   19.0310 C   0  0  0  0  0  0
  -24.8765  -28.3556   18.8234 C   0  0  0  0  0  0
  -23.6808  -30.3660   20.0220 C   0  0  0  0  0  0
  -25.4144  -36.3293   24.0329 C   0  0  1  0  0  0
  -21.4855  -27.9288   23.4558 C   0  0  2  0  0  0
  -22.7464  -26.6170   22.9599 C   0  0  0  0  0  0
  -22.7605  -25.2275   21.5040 C   0  0  0  0  0  0
  -21.1663  -24.8403   20.6705 C   0  0  0  0  0  0
  -19.8406  -27.8536   23.3587 C   0  0  0  0  0  0
  -19.2695  -29.1516   23.8445 C   0  0  0  0  0  0
  -17.9403  -29.5878   23.7296 C   0  0  0  0  0  0
  -25.9201  -34.9709   23.5191 C   0  0  0  0  0  0
  -17.1759  -28.6033   23.0876 C   0  0  0  0  0  0
  -17.7614  -27.3194   22.5488 C   0  0  0  0  0  0
  -26.4670  -31.6751   25.1019 C   0  0  0  0  0  0
  -25.3716  -31.3880   26.1533 C   0  0  0  0  0  0
  -27.0414  -30.3131   24.6497 C   0  0  0  0  0  0
  -27.6230  -32.4288   25.7949 C   0  0  0  0  0  0
  -27.5634  -37.1910   24.8451 C   0  0  0  0  0  0
  -21.7480  -29.1661   22.6564 N   0  0  0  0  0  0
  -26.4299  -37.3998   23.9471 N   0  0  0  0  0  0
  -24.7199  -31.2451   22.0919 N   0  0  0  0  0  0
  -23.7989  -29.1563   23.3775 O   0  0  0  0  0  0
  -24.6048  -27.0310   20.8888 O   0  0  0  0  0  0
  -26.5465  -34.9066   22.4580 O   0  0  0  0  0  0
  -23.5887  -32.2516   23.7796 O   0  0  0  0  0  0
  -22.9099  -19.7817   20.1363 C   0  0  0  0  0  0
  -22.1990  -20.9008   20.8126 C   0  0  0  0  0  0
  -24.1896  -19.0546   20.3437 C   0  0  0  0  0  0
  -24.1254  -20.6337   22.1251 C   0  0  0  0  0  0
  -22.5437  -21.7259   21.9626 C   0  0  0  0  0  0
  -25.1811  -19.1874   21.3921 C   0  0  0  0  0  0
  -19.6994  -26.5267   20.3532 C   0  0  0  0  0  0
  -19.4681  -23.6560   21.7993 C   0  0  0  0  0  0
  -21.0263  -26.8656   21.3041 C   0  0  0  0  0  0
  -18.8641  -24.8871   20.9014 C   0  0  0  0  0  0
  -20.8835  -24.9674   22.9463 C   0  0  0  0  0  0
  -26.3721  -18.1684   23.7868 C   0  0  0  0  0  0
  -27.2314  -17.9362   22.7667 C   0  0  0  0  0  0
  -22.7760  -27.4156   20.5117 C   0  0  0  0  0  0
  -21.0600  -23.3095   22.4688 N   0  0  0  0  0  0
  -26.8602  -17.7410   21.4292 N   0  0  0  0  0  0
  -20.7647  -25.1010   24.1833 O   0  0  0  0  0  0
  -17.6015  -24.7225   20.4895 O   0  0  0  0  0  0
  -30.4683  -14.8550   19.3294 H   0  0  0  0  0  0
  -30.4930  -13.6614   20.5343 H   0  0  0  0  0  0
  -30.2896  -12.4196   18.4069 H   0  0  0  0  0  0
  -29.2642  -13.6612   17.7289 H   0  0  0  0  0  0
  -28.4203  -11.3694   19.4673 H   0  0  0  0  0  0
  -27.6426  -12.0204   18.0245 H   0  0  0  0  0  0
  -27.1634  -14.0472   19.1273 H   0  0  0  0  0  0
  -27.3981  -13.9814   21.9108 H   0  0  0  0  0  0
  -28.7512  -12.9841   21.5345 H   0  0  0  0  0  0
  -25.2344   -9.5734   22.4864 H   0  0  0  0  0  0
  -23.9799   -7.4510   22.7575 H   0  0  0  0  0  0
  -21.0471   -8.8342   19.9035 H   0  0  0  0  0  0
  -22.3080  -10.9365   19.6225 H   0  0  0  0  0  0
  -21.2023   -7.6091   23.9712 H   0  0  0  0  0  0
  -21.1413   -6.0522   25.9119 H   0  0  0  0  0  0
  -22.0638   -2.7525   23.2988 H   0  0  0  0  0  0
  -22.3125  -11.9603   22.4973 H   0  0  0  0  0  0
  -21.0493  -13.1431   22.3353 H   0  0  0  0  0  0
  -24.5955  -15.8325   20.6873 H   0  0  0  0  0  0
  -26.1182  -15.5664   20.0010 H   0  0  0  0  0  0
  -26.7790  -32.5662   23.1488 H   0  0  0  0  0  0
  -25.1060  -34.0179   25.1071 H   0  0  0  0  0  0
  -22.6890  -31.4919   21.5727 H   0  0  0  0  0  0
  -23.3877  -35.9624   23.3183 H   0  0  0  0  0  0
  -24.3655  -36.9043   22.2008 H   0  0  0  0  0  0
  -23.7142  -37.6530   23.6580 H   0  0  0  0  0  0
  -26.2968  -31.6347   20.7513 H   0  0  0  0  0  0
  -26.8231  -30.7150   22.1286 H   0  0  0  0  0  0
  -27.3846  -28.3270   21.6821 H   0  0  0  0  0  0
  -25.6303  -26.4043   18.4336 H   0  0  0  0  0  0
  -24.1570  -28.3084   18.0153 H   0  0  0  0  0  0
  -23.9877  -31.2981   19.5411 H   0  0  0  0  0  0
  -22.7722  -30.1498   19.4640 H   0  0  0  0  0  0
  -25.1275  -36.2174   25.0808 H   0  0  0  0  0  0
  -21.6958  -28.1643   24.5012 H   0  0  0  0  0  0
  -22.9110  -26.0764   23.8950 H   0  0  0  0  0  0
  -23.7633  -26.9731   22.9862 H   0  0  0  0  0  0
  -23.1837  -24.3575   22.0072 H   0  0  0  0  0  0
  -23.5328  -25.1667   20.7427 H   0  0  0  0  0  0
  -21.3838  -25.1824   19.6389 H   0  0  0  0  0  0
  -21.0861  -23.8329   20.2306 H   0  0  0  0  0  0
  -19.9405  -29.8498   24.3294 H   0  0  0  0  0  0
  -17.5725  -30.5451   24.0751 H   0  0  0  0  0  0
  -16.1309  -28.8030   22.9032 H   0  0  0  0  0  0
  -17.0406  -26.7808   21.9507 H   0  0  0  0  0  0
  -24.5873  -30.7392   25.7622 H   0  0  0  0  0  0
  -24.8965  -32.3056   26.5009 H   0  0  0  0  0  0
  -25.7822  -30.8867   27.0307 H   0  0  0  0  0  0
  -26.2990  -29.7014   24.1371 H   0  0  0  0  0  0
  -27.3854  -29.7286   25.5047 H   0  0  0  0  0  0
  -27.9053  -30.4332   23.9946 H   0  0  0  0  0  0
  -27.2904  -33.3544   26.2654 H   0  0  0  0  0  0
  -28.4115  -32.6889   25.0877 H   0  0  0  0  0  0
  -28.0801  -31.8262   26.5811 H   0  0  0  0  0  0
  -28.2549  -38.0317   24.7732 H   0  0  0  0  0  0
  -28.1241  -36.2887   24.5987 H   0  0  0  0  0  0
  -27.2389  -37.1209   25.8846 H   0  0  0  0  0  0
  -21.0147  -29.5262   22.0651 H   0  0  0  0  0  0
  -26.0192  -38.3045   24.1617 H   0  0  0  0  0  0
  -22.3533  -19.3832   19.2986 H   0  0  0  0  0  0
  -21.2413  -21.1273   20.3565 H   0  0  0  0  0  0
  -24.3783  -18.2709   19.6218 H   0  0  0  0  0  0
  -24.6199  -20.9590   23.0324 H   0  0  0  0  0  0
  -19.6019  -26.9183   19.3523 H   0  0  0  0  0  0
  -18.8128  -22.8226   21.9922 H   0  0  0  0  0  0
  -26.7326  -18.3498   24.7885 H   0  0  0  0  0  0
  -25.2960  -18.1726   23.6689 H   0  0  0  0  0  0
  -28.3003  -17.9252   22.9317 H   0  0  0  0  0  0
  -22.5314  -28.4179   20.3255 H   0  0  0  0  0  0
  -22.6846  -27.0188   19.5012 H   0  0  0  0  0  0
  -17.3435  -25.5171   20.0350 H   0  0  0  0  0  0
  1 25  1  0  0  0
  1 30  2  0  0  0
  1 86  1  0  0  0
  2  3  1  0  0  0
  2 25  1  0  0  0
  2 89  1  0  0  0
  2 90  1  0  0  0
  3  4  1  0  0  0
  3 91  1  0  0  0
  3 92  1  0  0  0
  4  5  1  0  0  0
  4 93  1  0  0  0
  4 94  1  0  0  0
  5  6  1  0  0  0
  5 26  1  0  0  0
  5 95  1  0  0  0
  6 25  1  0  0  0
  6 96  1  0  0  0
  6 97  1  0  0  0
  7  8  2  0  0  0
  7 26  1  0  0  0
  7 29  1  0  0  0
  8  9  1  0  0  0
  8 22  1  0  0  0
  9 10  1  0  0  0
  9 27  2  0  0  0
 10 11  2  0  0  0
 10 15  1  0  0  0
 11 12  1  0  0  0
 11 98  1  0  0  0
 12 13  2  0  0  0
 12 99  1  0  0  0
 13 14  1  0  0  0
 13 31  1  0  0  0
 14 15  2  0  0  0
 14100  1  0  0  0
 15101  1  0  0  0
 16 17  2  0  0  0
 16 21  1  0  0  0
 16 31  1  0  0  0
 17 18  1  0  0  0
 17102  1  0  0  0
 18 19  2  0  0  0
 18103  1  0  0  0
 19 20  1  0  0  0
 19 24  1  0  0  0
 20 21  2  0  0  0
 20104  1  0  0  0
 21 23  1  0  0  0
 22 28  1  0  0  0
 22 32  2  0  0  0
 26 27  1  0  0  0
 28105  1  0  0  0
 28106  1  0  0  0
 29107  1  0  0  0
 29108  1  0  0  0
 33 34  1  0  0  0
 33 66  1  0  0  0
 33 70  2  0  0  0
 34 36  1  0  0  0
 34 59  1  0  0  0
 34109  1  0  0  0
 35 44  2  0  0  0
 35 45  1  0  0  0
 35 68  1  0  0  0
 36 56  1  0  0  0
 36110  1  0  0  0
 37 39  1  0  0  0
 37 47  1  0  0  0
 37 66  1  0  0  0
 37111  1  0  0  0
 38 43  2  0  0  0
 38 46  1  0  0  0
 38 47  1  0  0  0
 39 64  1  0  0  0
 39 67  2  0  0  0
 40 52  1  0  0  0
 40 53  2  0  0  0
 40 58  1  0  0  0
 41112  1  0  0  0
 41113  1  0  0  0
 41114  1  0  0  0
 41 48  1  0  0  0
 42 43  1  0  0  0
 42 66  1  0  0  0
 42115  1  0  0  0
 42116  1  0  0  0
 43 44  1  0  0  0
 44117  1  0  0  0
 45 46  2  0  0  0
 45118  1  0  0  0
 46119  1  0  0  0
 47120  1  0  0  0
 47121  1  0  0  0
 48 56  1  0  0  0
 48 65  1  0  0  0
 48122  1  0  0  0
 49 50  1  0  0  0
 49 53  1  0  0  0
 49 64  1  0  0  0
 49123  1  0  0  0
 50 51  1  0  0  0
 50124  1  0  0  0
 50125  1  0  0  0
 51 52  1  0  0  0
 51126  1  0  0  0
 51127  1  0  0  0
 52128  1  0  0  0
 52129  1  0  0  0
 53 54  1  0  0  0
 54 55  2  0  0  0
 54130  1  0  0  0
 55 57  1  0  0  0
 55131  1  0  0  0
 56 69  2  0  0  0
 57 58  2  0  0  0
 57132  1  0  0  0
 58133  1  0  0  0
 59 60  1  0  0  0
 59 61  1  0  0  0
 59 62  1  0  0  0
 60134  1  0  0  0
 60135  1  0  0  0
 60136  1  0  0  0
 61137  1  0  0  0
 61138  1  0  0  0
 61139  1  0  0  0
 62140  1  0  0  0
 62141  1  0  0  0
 62142  1  0  0  0
 63 65  1  0  0  0
 63143  1  0  0  0
 63144  1  0  0  0
 63145  1  0  0  0
 64146  1  0  0  0
 65147  1  0  0  0
 68 84  1  0  0  0
 71 72  2  0  0  0
 71 73  1  0  0  0
 71148  1  0  0  0
 72 75  1  0  0  0
 72149  1  0  0  0
 73 76  2  0  0  0
 73150  1  0  0  0
 74 75  2  0  0  0
 74 76  1  0  0  0
 74151  1  0  0  0
 75 85  1  0  0  0
 76 86  1  0  0  0
 77 79  2  0  0  0
 77 80  1  0  0  0
 77152  1  0  0  0
 78 80  2  0  0  0
 78 85  1  0  0  0
 78153  1  0  0  0
 79 81  1  0  0  0
 79 84  1  0  0  0
 80 88  1  0  0  0
 81 85  1  0  0  0
 81 87  2  0  0  0
 82 83  2  0  0  0
 82154  1  0  0  0
 82155  1  0  0  0
 83 86  1  0  0  0
 83156  1  0  0  0
 84157  1  0  0  0
 84158  1  0  0  0
 88159  1  0  0  0
M  ISO  4   1 100  68 101  84 101  86 100
M  END
> <chiral flag>
0

> <version>
0

> <s_m_source_file>
/data/baiqing/PycharmProjects/Reinvent-master-3.2/result/LINK_invent/BTK/process_docking_weight1_custom_product_contain_oxygen_bond_distance_aromatic_linkinvent_7_9_3/rearranged_h_0087.sdf

> <i_m_source_file_index>
9

> <r_mmod_Potential_Energy-OPLS-2005>
28987.537109375

> <r_mmod_Stretch_Energy-OPLS-2005>
13126.052734375

> <r_mmod_Bend_Energy-OPLS-2005>
2164.87939453125

> <r_mmod_Torsional_Energy-OPLS-2005>
802.761169433594

> <r_mmod_Improper_Torsional_Energy-OPLS-2005>
62.4305801391602

> <r_mmod_Van_der_Waal_Energy-OPLS-2005>
3543.90209960938

> <r_mmod_Electrostatic_Energy-OPLS-2005>
-277.910705566406

> <r_mmod_Solvation_Energy-OPLS-2005>
-216.749298095703

> <b_mmod_Minimization_Converged-OPLS-2005>
0

> <r_mmod_RMS_Derivative-OPLS-2005>
12.4041442871094

$$$$
9
                    3D
 Structure written by MMmdl.
152161  0  0  1  0            999 V2000
  -30.6162  -14.8331   20.4230 C   0  0  0  0  0  0
  -30.4303  -12.5079   19.4966 C   0  0  0  0  0  0
  -29.5182  -12.5116   18.2504 C   0  0  0  0  0  0
  -28.0477  -12.3201   18.6646 C   0  0  0  0  0  0
  -27.6362  -13.2437   19.8422 C   0  0  2  0  0  0
  -28.6798  -13.2434   20.9814 C   0  0  0  0  0  0
  -25.2488  -13.8215   20.5696 C   0  0  0  0  0  0
  -24.1787  -13.0445   20.9193 C   0  0  0  0  0  0
  -24.6392  -11.6927   20.8736 C   0  0  0  0  0  0
  -23.9071  -10.4298   21.0399 C   0  0  0  0  0  0
  -24.3618   -9.4212   21.9173 C   0  0  0  0  0  0
  -23.6287   -8.2253   22.0756 C   0  0  0  0  0  0
  -22.4267   -8.0288   21.3549 C   0  0  0  0  0  0
  -21.9899   -9.0264   20.4652 C   0  0  0  0  0  0
  -22.7239  -10.2138   20.3055 C   0  0  0  0  0  0
  -21.6856   -6.0727   22.5273 C   0  0  0  0  0  0
  -21.4026   -6.5633   23.8206 C   0  0  0  0  0  0
  -21.3661   -5.6792   24.9169 C   0  0  0  0  0  0
  -21.6042   -4.3054   24.7224 C   0  0  0  0  0  0
  -21.8818   -3.8139   23.4346 C   0  0  0  0  0  0
  -21.9194   -4.6953   22.3399 C   0  0  0  0  0  0
  -22.7809  -13.5226   21.1841 C   0  0  0  0  0  0
  -22.1658   -4.2139   21.0979 F   0  0  0  0  0  0
  -21.5625   -3.4538   25.7738 F   0  0  0  0  0  0
  -29.9728  -13.6066   20.3881 N   0  0  0  0  0  0
  -26.2918  -12.9440   20.3261 N   0  0  0  0  0  0
  -25.9330  -11.6572   20.5735 N   0  0  0  0  0  0
  -22.0453  -12.8240   22.0409 N   0  0  0  0  0  0
  -25.4171  -15.1945   20.4137 N   0  0  0  0  0  0
  -31.8199  -14.8444   20.1548 O   0  0  0  0  0  0
  -21.6645   -6.8875   21.4236 O   0  0  0  0  0  0
  -22.3494  -14.5521   20.6668 O   0  0  0  0  0  0
  -24.6372  -31.8496   23.1952 C   0  0  0  0  0  0
  -25.9178  -32.4723   23.8309 C   0  0  1  0  0  0
  -27.2176  -27.2151   20.1348 C   0  0  0  0  0  0
  -25.5958  -33.8524   24.2240 N   0  0  0  0  0  0
  -23.4376  -30.4718   21.5389 C   0  0  2  0  0  0
  -24.8891  -28.9163   20.1054 C   0  0  0  0  0  0
  -22.7535  -29.4562   22.4873 C   0  0  0  0  0  0
  -18.0298  -28.1375   22.8473 C   0  0  0  0  0  0
  -24.1493  -36.7268   23.2635 C   0  0  0  0  0  0
  -25.9886  -30.7475   21.3846 C   0  0  0  0  0  0
  -26.0632  -29.3664   20.7244 C   0  0  0  0  0  0
  -27.2342  -28.5288   20.7297 C   0  0  0  0  0  0
  -26.0253  -26.8512   19.4747 C   0  0  0  0  0  0
  -24.8773  -27.6676   19.4670 C   0  0  0  0  0  0
  -23.6607  -29.8082   20.1548 C   0  0  0  0  0  0
  -25.4120  -36.3048   24.0323 C   0  0  1  0  0  0
  -20.5907  -28.3690   23.1237 C   0  0  2  0  0  0
  -20.6785  -26.9399   22.5394 C   0  0  0  0  0  0
  -19.5765  -26.6369   21.5194 C   0  0  0  0  0  0
  -18.1944  -26.7917   22.1609 C   0  0  0  0  0  0
  -19.1552  -28.8852   23.2850 C   0  0  0  0  0  0
  -18.9474  -30.1452   23.8872 C   0  0  0  0  0  0
  -17.6473  -30.6579   24.0548 C   0  0  0  0  0  0
  -25.9062  -34.9421   23.5083 C   0  0  0  0  0  0
  -16.5364  -29.9072   23.6326 C   0  0  0  0  0  0
  -16.7282  -28.6484   23.0354 C   0  0  0  0  0  0
  -26.4529  -31.6561   25.0719 C   0  0  0  0  0  0
  -25.3746  -31.3757   26.1448 C   0  0  0  0  0  0
  -27.0360  -30.2949   24.6256 C   0  0  0  0  0  0
  -27.6080  -32.4300   25.7497 C   0  0  0  0  0  0
  -27.5581  -37.1793   24.8462 C   0  0  0  0  0  0
  -21.4232  -29.3035   22.3625 N   0  0  0  0  0  0
  -26.4290  -37.3755   23.9412 N   0  0  0  0  0  0
  -24.7067  -31.0415   22.0951 N   0  0  0  0  0  0
  -23.4208  -28.8101   23.2990 O   0  0  0  0  0  0
  -28.2307  -26.2131   20.1992 O   0  0  0  0  0  0
  -26.5628  -34.8905   22.4647 O   0  0  0  0  0  0
  -23.5505  -32.1336   23.7217 O   0  0  0  0  0  0
  -31.8465  -19.1003   19.3278 C   0  0  0  0  0  0
  -31.0245  -20.2045   19.6156 C   0  0  0  0  0  0
  -31.4672  -17.7817   19.6405 C   0  0  0  0  0  0
  -29.7616  -20.0622   20.2366 C   0  0  0  0  0  0
  -30.2386  -17.4796   20.2761 C   0  0  0  0  0  0
  -29.3976  -18.6602   20.5596 C   0  0  0  0  0  0
  -28.1688  -23.5985   20.8142 C   0  0  0  0  0  0
  -27.4252  -22.7043   21.6985 C   0  0  0  0  0  0
  -29.1173  -22.6716   20.1058 C   0  0  0  0  0  0
  -27.8451  -24.9768   20.8282 C   0  0  0  0  0  0
  -27.8790  -21.2643   21.5112 C   0  0  0  0  0  0
  -28.9736  -21.3289   20.5427 N   0  0  0  0  0  0
  -29.8884  -16.0312   20.5682 N   0  0  0  0  0  0
  -26.5383  -23.0147   22.5025 O   0  0  0  0  0  0
  -29.9131  -23.0359   19.2328 O   0  0  0  0  0  0
  -28.2060  -18.4246   21.1593 F   0  0  0  0  0  0
  -31.4723  -12.6212   19.1931 H   0  0  0  0  0  0
  -30.3766  -11.5494   20.0148 H   0  0  0  0  0  0
  -29.8203  -11.7251   17.5576 H   0  0  0  0  0  0
  -29.6318  -13.4552   17.7139 H   0  0  0  0  0  0
  -27.9265  -11.2759   18.9557 H   0  0  0  0  0  0
  -27.3901  -12.4771   17.8092 H   0  0  0  0  0  0
  -27.6119  -14.2524   19.4294 H   0  0  0  0  0  0
  -28.7349  -12.2653   21.4623 H   0  0  0  0  0  0
  -28.3997  -13.9550   21.7598 H   0  0  0  0  0  0
  -25.2764   -9.5688   22.4751 H   0  0  0  0  0  0
  -23.9992   -7.4646   22.7484 H   0  0  0  0  0  0
  -21.0827   -8.8784   19.8968 H   0  0  0  0  0  0
  -22.3689  -10.9672   19.6168 H   0  0  0  0  0  0
  -21.2031   -7.6141   23.9705 H   0  0  0  0  0  0
  -21.1483   -6.0522   25.9069 H   0  0  0  0  0  0
  -22.0596   -2.7598   23.2855 H   0  0  0  0  0  0
  -22.4069  -11.9929   22.4842 H   0  0  0  0  0  0
  -21.1068  -13.1279   22.2591 H   0  0  0  0  0  0
  -24.6512  -15.8489   20.5299 H   0  0  0  0  0  0
  -26.2701  -15.6396   20.1005 H   0  0  0  0  0  0
  -26.7241  -32.5365   23.1043 H   0  0  0  0  0  0
  -25.0133  -33.9644   25.0407 H   0  0  0  0  0  0
  -22.7367  -31.2961   21.3908 H   0  0  0  0  0  0
  -23.3751  -35.9601   23.3294 H   0  0  0  0  0  0
  -24.3584  -36.8887   22.2048 H   0  0  0  0  0  0
  -23.7249  -37.6474   23.6656 H   0  0  0  0  0  0
  -26.1365  -31.5076   20.6169 H   0  0  0  0  0  0
  -26.8615  -30.7944   22.0229 H   0  0  0  0  0  0
  -28.1277  -28.8615   21.2388 H   0  0  0  0  0  0
  -25.9658  -25.8857   18.9923 H   0  0  0  0  0  0
  -23.9808  -27.3188   18.9740 H   0  0  0  0  0  0
  -23.7912  -30.5863   19.4019 H   0  0  0  0  0  0
  -22.7780  -29.2458   19.8463 H   0  0  0  0  0  0
  -25.1297  -36.1891   25.0815 H   0  0  0  0  0  0
  -20.9990  -28.3280   24.1360 H   0  0  0  0  0  0
  -20.5654  -26.2304   23.3605 H   0  0  0  0  0  0
  -21.6657  -26.7401   22.1205 H   0  0  0  0  0  0
  -19.6922  -25.6272   21.1236 H   0  0  0  0  0  0
  -19.6699  -27.3163   20.6712 H   0  0  0  0  0  0
  -17.4205  -26.6633   21.4026 H   0  0  0  0  0  0
  -18.0356  -26.0063   22.9011 H   0  0  0  0  0  0
  -19.7956  -30.7266   24.2227 H   0  0  0  0  0  0
  -17.5034  -31.6262   24.5144 H   0  0  0  0  0  0
  -15.5364  -30.2965   23.7669 H   0  0  0  0  0  0
  -15.8679  -28.0794   22.7092 H   0  0  0  0  0  0
  -24.5880  -30.7149   25.7793 H   0  0  0  0  0  0
  -24.9006  -32.2952   26.4882 H   0  0  0  0  0  0
  -25.8052  -30.8915   27.0220 H   0  0  0  0  0  0
  -26.2946  -29.6697   24.1264 H   0  0  0  0  0  0
  -27.3980  -29.7221   25.4806 H   0  0  0  0  0  0
  -27.8862  -30.4174   23.9544 H   0  0  0  0  0  0
  -27.2686  -33.3604   26.2060 H   0  0  0  0  0  0
  -28.3909  -32.6845   25.0342 H   0  0  0  0  0  0
  -28.0727  -31.8434   26.5433 H   0  0  0  0  0  0
  -28.2593  -38.0095   24.7513 H   0  0  0  0  0  0
  -28.1084  -36.2629   24.6276 H   0  0  0  0  0  0
  -27.2303  -37.1430   25.8866 H   0  0  0  0  0  0
  -20.9421  -29.8778   21.6840 H   0  0  0  0  0  0
  -26.0163  -38.2822   24.1419 H   0  0  0  0  0  0
  -32.8047  -19.2694   18.8536 H   0  0  0  0  0  0
  -31.4154  -21.1765   19.3593 H   0  0  0  0  0  0
  -32.1666  -17.0112   19.3621 H   0  0  0  0  0  0
  -27.0636  -25.2368   21.5305 H   0  0  0  0  0  0
  -27.0549  -20.6612   21.1325 H   0  0  0  0  0  0
  -28.2215  -20.8522   22.4601 H   0  0  0  0  0  0
  -28.9309  -15.8928   20.8532 H   0  0  0  0  0  0
  1 25  1  0  0  0
  1 30  2  0  0  0
  1 83  1  0  0  0
  2  3  1  0  0  0
  2 25  1  0  0  0
  2 87  1  0  0  0
  2 88  1  0  0  0
  3  4  1  0  0  0
  3 89  1  0  0  0
  3 90  1  0  0  0
  4  5  1  0  0  0
  4 91  1  0  0  0
  4 92  1  0  0  0
  5  6  1  0  0  0
  5 26  1  0  0  0
  5 93  1  0  0  0
  6 25  1  0  0  0
  6 94  1  0  0  0
  6 95  1  0  0  0
  7  8  2  0  0  0
  7 26  1  0  0  0
  7 29  1  0  0  0
  8  9  1  0  0  0
  8 22  1  0  0  0
  9 10  1  0  0  0
  9 27  2  0  0  0
 10 11  2  0  0  0
 10 15  1  0  0  0
 11 12  1  0  0  0
 11 96  1  0  0  0
 12 13  2  0  0  0
 12 97  1  0  0  0
 13 14  1  0  0  0
 13 31  1  0  0  0
 14 15  2  0  0  0
 14 98  1  0  0  0
 15 99  1  0  0  0
 16 17  2  0  0  0
 16 21  1  0  0  0
 16 31  1  0  0  0
 17 18  1  0  0  0
 17100  1  0  0  0
 18 19  2  0  0  0
 18101  1  0  0  0
 19 20  1  0  0  0
 19 24  1  0  0  0
 20 21  2  0  0  0
 20102  1  0  0  0
 21 23  1  0  0  0
 22 28  1  0  0  0
 22 32  2  0  0  0
 26 27  1  0  0  0
 28103  1  0  0  0
 28104  1  0  0  0
 29105  1  0  0  0
 29106  1  0  0  0
 33 34  1  0  0  0
 33 66  1  0  0  0
 33 70  2  0  0  0
 34 36  1  0  0  0
 34 59  1  0  0  0
 34107  1  0  0  0
 35 44  2  0  0  0
 35 45  1  0  0  0
 35 68  1  0  0  0
 36 56  1  0  0  0
 36108  1  0  0  0
 37 39  1  0  0  0
 37 47  1  0  0  0
 37 66  1  0  0  0
 37109  1  0  0  0
 38 43  2  0  0  0
 38 46  1  0  0  0
 38 47  1  0  0  0
 39 64  1  0  0  0
 39 67  2  0  0  0
 40 52  1  0  0  0
 40 53  2  0  0  0
 40 58  1  0  0  0
 41110  1  0  0  0
 41111  1  0  0  0
 41112  1  0  0  0
 41 48  1  0  0  0
 42 43  1  0  0  0
 42 66  1  0  0  0
 42113  1  0  0  0
 42114  1  0  0  0
 43 44  1  0  0  0
 44115  1  0  0  0
 45 46  2  0  0  0
 45116  1  0  0  0
 46117  1  0  0  0
 47118  1  0  0  0
 47119  1  0  0  0
 48 56  1  0  0  0
 48 65  1  0  0  0
 48120  1  0  0  0
 49 50  1  0  0  0
 49 53  1  0  0  0
 49 64  1  0  0  0
 49121  1  0  0  0
 50 51  1  0  0  0
 50122  1  0  0  0
 50123  1  0  0  0
 51 52  1  0  0  0
 51124  1  0  0  0
 51125  1  0  0  0
 52126  1  0  0  0
 52127  1  0  0  0
 53 54  1  0  0  0
 54 55  2  0  0  0
 54128  1  0  0  0
 55 57  1  0  0  0
 55129  1  0  0  0
 56 69  2  0  0  0
 57 58  2  0  0  0
 57130  1  0  0  0
 58131  1  0  0  0
 59 60  1  0  0  0
 59 61  1  0  0  0
 59 62  1  0  0  0
 60132  1  0  0  0
 60133  1  0  0  0
 60134  1  0  0  0
 61135  1  0  0  0
 61136  1  0  0  0
 61137  1  0  0  0
 62138  1  0  0  0
 62139  1  0  0  0
 62140  1  0  0  0
 63 65  1  0  0  0
 63141  1  0  0  0
 63142  1  0  0  0
 63143  1  0  0  0
 64144  1  0  0  0
 65145  1  0  0  0
 68 80  1  0  0  0
 71 72  2  0  0  0
 71 73  1  0  0  0
 71146  1  0  0  0
 72 74  1  0  0  0
 72147  1  0  0  0
 73 75  2  0  0  0
 73148  1  0  0  0
 74 76  2  0  0  0
 74 82  1  0  0  0
 75 76  1  0  0  0
 75 83  1  0  0  0
 76 86  1  0  0  0
 77 78  1  0  0  0
 77 79  1  0  0  0
 77 80  2  0  0  0
 78 81  1  0  0  0
 78 84  2  0  0  0
 79 82  1  0  0  0
 79 85  2  0  0  0
 80149  1  0  0  0
 81 82  1  0  0  0
 81150  1  0  0  0
 81151  1  0  0  0
 83152  1  0  0  0
M  ISO  4   1 100  68 101  80 101  83 100
M  END
> <chiral flag>
0

> <version>
0

> <s_m_source_file>
/data/baiqing/PycharmProjects/Reinvent-master-3.2/result/LINK_invent/BTK/process_docking_weight1_custom_product_contain_oxygen_bond_distance_aromatic_linkinvent_7_9_3/rearranged_h_0087.sdf

> <i_m_source_file_index>
10

> <r_mmod_Potential_Energy-OPLS-2005>
353.203979492188

> <r_mmod_Stretch_Energy-OPLS-2005>
175.163299560547

> <r_mmod_Bend_Energy-OPLS-2005>
276.114807128906

> <r_mmod_Torsional_Energy-OPLS-2005>
253.714904785156

> <r_mmod_Improper_Torsional_Energy-OPLS-2005>
4.19779348373413

> <r_mmod_Van_der_Waal_Energy-OPLS-2005>
145.604278564453

> <r_mmod_Electrostatic_Energy-OPLS-2005>
-409.689544677734

> <r_mmod_Solvation_Energy-OPLS-2005>
-224.991439819336

> <b_mmod_Minimization_Converged-OPLS-2005>
0

> <r_mmod_RMS_Derivative-OPLS-2005>
1.46003913879395

$$$$
10
                    3D
 Structure written by MMmdl.
155164  0  0  1  0            999 V2000
  -30.5857  -14.6889   20.4992 C   0  0  0  0  0  0
  -30.4474  -12.4242   19.4585 C   0  0  0  0  0  0
  -29.5143  -12.5209   18.2287 C   0  0  0  0  0  0
  -28.0372  -12.3441   18.6384 C   0  0  0  0  0  0
  -27.6523  -13.2162   19.8630 C   0  0  2  0  0  0
  -28.6971  -13.0775   20.9932 C   0  0  0  0  0  0
  -25.2554  -13.8156   20.5669 C   0  0  0  0  0  0
  -24.1827  -13.0431   20.9203 C   0  0  0  0  0  0
  -24.6393  -11.6902   20.8747 C   0  0  0  0  0  0
  -23.9064  -10.4291   21.0417 C   0  0  0  0  0  0
  -24.3618   -9.4208   21.9192 C   0  0  0  0  0  0
  -23.6297   -8.2238   22.0755 C   0  0  0  0  0  0
  -22.4277   -8.0279   21.3548 C   0  0  0  0  0  0
  -21.9912   -9.0252   20.4649 C   0  0  0  0  0  0
  -22.7236  -10.2132   20.3066 C   0  0  0  0  0  0
  -21.6849   -6.0742   22.5284 C   0  0  0  0  0  0
  -21.4006   -6.5642   23.8219 C   0  0  0  0  0  0
  -21.3662   -5.6789   24.9177 C   0  0  0  0  0  0
  -21.6042   -4.3053   24.7224 C   0  0  0  0  0  0
  -21.8821   -3.8151   23.4344 C   0  0  0  0  0  0
  -21.9188   -4.6970   22.3401 C   0  0  0  0  0  0
  -22.7850  -13.5233   21.1849 C   0  0  0  0  0  0
  -22.1662   -4.2157   21.0979 F   0  0  0  0  0  0
  -21.5631   -3.4535   25.7735 F   0  0  0  0  0  0
  -30.0086  -13.4431   20.4341 N   0  0  0  0  0  0
  -26.2985  -12.9339   20.3311 N   0  0  0  0  0  0
  -25.9324  -11.6501   20.5757 N   0  0  0  0  0  0
  -22.0478  -12.8241   22.0410 N   0  0  0  0  0  0
  -25.4240  -15.1868   20.4037 N   0  0  0  0  0  0
  -31.7486  -14.8729   20.1234 O   0  0  0  0  0  0
  -21.6637   -6.8881   21.4246 O   0  0  0  0  0  0
  -22.3548  -14.5538   20.6683 O   0  0  0  0  0  0
  -24.6278  -31.8583   23.2005 C   0  0  0  0  0  0
  -25.9118  -32.4767   23.8350 C   0  0  1  0  0  0
  -27.2273  -27.3015   20.1293 C   0  0  0  0  0  0
  -25.5931  -33.8571   24.2273 N   0  0  0  0  0  0
  -23.4237  -30.4798   21.5430 C   0  0  2  0  0  0
  -24.8732  -28.9289   20.1132 C   0  0  0  0  0  0
  -22.7489  -29.4616   22.4931 C   0  0  0  0  0  0
  -18.0289  -28.1381   22.8490 C   0  0  0  0  0  0
  -24.1488  -36.7286   23.2634 C   0  0  0  0  0  0
  -25.9655  -30.7832   21.3751 C   0  0  0  0  0  0
  -26.0419  -29.4076   20.7204 C   0  0  0  0  0  0
  -27.2247  -28.6056   20.7182 C   0  0  0  0  0  0
  -26.0395  -26.8783   19.4966 C   0  0  0  0  0  0
  -24.8743  -27.6700   19.4909 C   0  0  0  0  0  0
  -23.6411  -29.8113   20.1599 C   0  0  0  0  0  0
  -25.4112  -36.3079   24.0327 C   0  0  1  0  0  0
  -20.5891  -28.3691   23.1277 C   0  0  2  0  0  0
  -20.6775  -26.9415   22.5403 C   0  0  0  0  0  0
  -19.5747  -26.6384   21.5214 C   0  0  0  0  0  0
  -18.1929  -26.7921   22.1633 C   0  0  0  0  0  0
  -19.1541  -28.8854   23.2879 C   0  0  0  0  0  0
  -18.9462  -30.1456   23.8892 C   0  0  0  0  0  0
  -17.6461  -30.6585   24.0560 C   0  0  0  0  0  0
  -25.9056  -34.9449   23.5102 C   0  0  0  0  0  0
  -16.5352  -29.9079   23.6332 C   0  0  0  0  0  0
  -16.7272  -28.6495   23.0357 C   0  0  0  0  0  0
  -26.4498  -31.6573   25.0722 C   0  0  0  0  0  0
  -25.3739  -31.3739   26.1460 C   0  0  0  0  0  0
  -27.0309  -30.2982   24.6187 C   0  0  0  0  0  0
  -27.6080  -32.4291   25.7474 C   0  0  0  0  0  0
  -27.5587  -37.1788   24.8458 C   0  0  0  0  0  0
  -21.4200  -29.3044   22.3673 N   0  0  0  0  0  0
  -26.4285  -37.3782   23.9419 N   0  0  0  0  0  0
  -24.6909  -31.0579   22.0962 N   0  0  0  0  0  0
  -23.4198  -28.8164   23.3030 O   0  0  0  0  0  0
  -28.3225  -26.4206   20.1404 O   0  0  0  0  0  0
  -26.5631  -34.8923   22.4671 O   0  0  0  0  0  0
  -23.5437  -32.1386   23.7321 O   0  0  0  0  0  0
  -28.4867  -17.8781   20.7642 C   0  0  0  0  0  0
  -30.8483  -18.0263   20.4758 C   0  0  0  0  0  0
  -29.4806  -20.1612   20.4332 C   0  0  0  0  0  0
  -29.7255  -17.1843   20.6824 C   0  0  0  0  0  0
  -28.3510  -19.2982   20.6336 C   0  0  0  0  0  0
  -30.7322  -19.4525   20.3592 C   0  0  0  0  0  0
  -28.8065  -23.9418   20.2352 C   0  0  0  0  0  0
  -28.5420  -22.5861   20.7858 C   0  0  0  0  0  0
  -28.1129  -25.0882   20.5782 C   0  0  0  0  0  0
  -29.9422  -23.8329   19.2673 C   0  0  0  0  0  0
  -30.3833  -22.3601   19.3954 C   0  0  0  0  0  0
  -29.4025  -21.6507   20.2401 N   0  0  0  0  0  0
  -27.0483  -19.7984   20.6715 N   0  0  0  0  0  0
  -29.7314  -15.7140   20.8446 N   0  0  0  0  0  0
  -27.6858  -22.3357   21.6392 O   0  0  0  0  0  0
  -31.8870  -20.1360   20.1813 F   0  0  0  0  0  0
  -31.4880  -12.5651   19.1601 H   0  0  0  0  0  0
  -30.3983  -11.4287   19.9011 H   0  0  0  0  0  0
  -29.7917  -11.7731   17.4845 H   0  0  0  0  0  0
  -29.6438  -13.4917   17.7468 H   0  0  0  0  0  0
  -27.8817  -11.2906   18.8722 H   0  0  0  0  0  0
  -27.3822  -12.5672   17.7959 H   0  0  0  0  0  0
  -27.6654  -14.2498   19.5181 H   0  0  0  0  0  0
  -28.7199  -12.0540   21.3693 H   0  0  0  0  0  0
  -28.4348  -13.6997   21.8502 H   0  0  0  0  0  0
  -25.2765   -9.5680   22.4759 H   0  0  0  0  0  0
  -24.0009   -7.4626   22.7470 H   0  0  0  0  0  0
  -21.0845   -8.8765   19.8957 H   0  0  0  0  0  0
  -22.3697  -10.9669   19.6172 H   0  0  0  0  0  0
  -21.1995   -7.6149   23.9726 H   0  0  0  0  0  0
  -21.1485   -6.0516   25.9079 H   0  0  0  0  0  0
  -22.0597   -2.7613   23.2833 H   0  0  0  0  0  0
  -22.4085  -11.9908   22.4821 H   0  0  0  0  0  0
  -21.1098  -13.1286   22.2601 H   0  0  0  0  0  0
  -24.6392  -15.8250   20.4723 H   0  0  0  0  0  0
  -26.2436  -15.6132   19.9936 H   0  0  0  0  0  0
  -26.7190  -32.5433   23.1104 H   0  0  0  0  0  0
  -25.0083  -33.9712   25.0422 H   0  0  0  0  0  0
  -22.7189  -31.3012   21.3979 H   0  0  0  0  0  0
  -23.3768  -35.9599   23.3264 H   0  0  0  0  0  0
  -24.3592  -36.8937   22.2056 H   0  0  0  0  0  0
  -23.7217  -37.6468   23.6676 H   0  0  0  0  0  0
  -26.0992  -31.5450   20.6060 H   0  0  0  0  0  0
  -26.8446  -30.8342   22.0054 H   0  0  0  0  0  0
  -28.1237  -28.9691   21.1963 H   0  0  0  0  0  0
  -26.0089  -25.9108   19.0165 H   0  0  0  0  0  0
  -23.9805  -27.2979   19.0097 H   0  0  0  0  0  0
  -23.7616  -30.5865   19.4025 H   0  0  0  0  0  0
  -22.7610  -29.2409   19.8582 H   0  0  0  0  0  0
  -25.1291  -36.1925   25.0820 H   0  0  0  0  0  0
  -20.9979  -28.3254   24.1399 H   0  0  0  0  0  0
  -20.5687  -26.2300   23.3603 H   0  0  0  0  0  0
  -21.6638  -26.7448   22.1180 H   0  0  0  0  0  0
  -19.6902  -25.6292   21.1248 H   0  0  0  0  0  0
  -19.6672  -27.3195   20.6743 H   0  0  0  0  0  0
  -17.4192  -26.6665   21.4042 H   0  0  0  0  0  0
  -18.0336  -26.0066   22.9034 H   0  0  0  0  0  0
  -19.7935  -30.7280   24.2253 H   0  0  0  0  0  0
  -17.5010  -31.6268   24.5150 H   0  0  0  0  0  0
  -15.5352  -30.2980   23.7658 H   0  0  0  0  0  0
  -15.8670  -28.0817   22.7076 H   0  0  0  0  0  0
  -24.5820  -30.7217   25.7764 H   0  0  0  0  0  0
  -24.9057  -32.2928   26.5000 H   0  0  0  0  0  0
  -25.8037  -30.8779   27.0169 H   0  0  0  0  0  0
  -26.2862  -29.6740   24.1233 H   0  0  0  0  0  0
  -27.4002  -29.7245   25.4696 H   0  0  0  0  0  0
  -27.8751  -30.4236   23.9403 H   0  0  0  0  0  0
  -27.2727  -33.3614   26.2034 H   0  0  0  0  0  0
  -28.3897  -32.6805   25.0291 H   0  0  0  0  0  0
  -28.0734  -31.8412   26.5395 H   0  0  0  0  0  0
  -28.2573  -38.0121   24.7562 H   0  0  0  0  0  0
  -28.1120  -36.2656   24.6210 H   0  0  0  0  0  0
  -27.2317  -37.1336   25.8862 H   0  0  0  0  0  0
  -20.9381  -29.8758   21.6872 H   0  0  0  0  0  0
  -26.0163  -38.2849   24.1456 H   0  0  0  0  0  0
  -27.5923  -17.2916   20.9191 H   0  0  0  0  0  0
  -31.8333  -17.5868   20.4145 H   0  0  0  0  0  0
  -27.3028  -25.0418   21.2949 H   0  0  0  0  0  0
  -30.7443  -24.5268   19.5215 H   0  0  0  0  0  0
  -29.5908  -24.0562   18.2593 H   0  0  0  0  0  0
  -31.3630  -22.3452   19.8715 H   0  0  0  0  0  0
  -30.4722  -21.8833   18.4183 H   0  0  0  0  0  0
  -26.3328  -19.1969   21.0665 H   0  0  0  0  0  0
  -26.9636  -20.7527   21.0259 H   0  0  0  0  0  0
  -28.8422  -15.3401   21.1385 H   0  0  0  0  0  0
  1 25  1  0  0  0
  1 30  2  0  0  0
  1 84  1  0  0  0
  2  3  1  0  0  0
  2 25  1  0  0  0
  2 87  1  0  0  0
  2 88  1  0  0  0
  3  4  1  0  0  0
  3 89  1  0  0  0
  3 90  1  0  0  0
  4  5  1  0  0  0
  4 91  1  0  0  0
  4 92  1  0  0  0
  5  6  1  0  0  0
  5 26  1  0  0  0
  5 93  1  0  0  0
  6 25  1  0  0  0
  6 94  1  0  0  0
  6 95  1  0  0  0
  7  8  2  0  0  0
  7 26  1  0  0  0
  7 29  1  0  0  0
  8  9  1  0  0  0
  8 22  1  0  0  0
  9 10  1  0  0  0
  9 27  2  0  0  0
 10 11  2  0  0  0
 10 15  1  0  0  0
 11 12  1  0  0  0
 11 96  1  0  0  0
 12 13  2  0  0  0
 12 97  1  0  0  0
 13 14  1  0  0  0
 13 31  1  0  0  0
 14 15  2  0  0  0
 14 98  1  0  0  0
 15 99  1  0  0  0
 16 17  2  0  0  0
 16 21  1  0  0  0
 16 31  1  0  0  0
 17 18  1  0  0  0
 17100  1  0  0  0
 18 19  2  0  0  0
 18101  1  0  0  0
 19 20  1  0  0  0
 19 24  1  0  0  0
 20 21  2  0  0  0
 20102  1  0  0  0
 21 23  1  0  0  0
 22 28  1  0  0  0
 22 32  2  0  0  0
 26 27  1  0  0  0
 28103  1  0  0  0
 28104  1  0  0  0
 29105  1  0  0  0
 29106  1  0  0  0
 33 34  1  0  0  0
 33 66  1  0  0  0
 33 70  2  0  0  0
 34 36  1  0  0  0
 34 59  1  0  0  0
 34107  1  0  0  0
 35 44  2  0  0  0
 35 45  1  0  0  0
 35 68  1  0  0  0
 36 56  1  0  0  0
 36108  1  0  0  0
 37 39  1  0  0  0
 37 47  1  0  0  0
 37 66  1  0  0  0
 37109  1  0  0  0
 38 43  2  0  0  0
 38 46  1  0  0  0
 38 47  1  0  0  0
 39 64  1  0  0  0
 39 67  2  0  0  0
 40 52  1  0  0  0
 40 53  2  0  0  0
 40 58  1  0  0  0
 41110  1  0  0  0
 41111  1  0  0  0
 41112  1  0  0  0
 41 48  1  0  0  0
 42 43  1  0  0  0
 42 66  1  0  0  0
 42113  1  0  0  0
 42114  1  0  0  0
 43 44  1  0  0  0
 44115  1  0  0  0
 45 46  2  0  0  0
 45116  1  0  0  0
 46117  1  0  0  0
 47118  1  0  0  0
 47119  1  0  0  0
 48 56  1  0  0  0
 48 65  1  0  0  0
 48120  1  0  0  0
 49 50  1  0  0  0
 49 53  1  0  0  0
 49 64  1  0  0  0
 49121  1  0  0  0
 50 51  1  0  0  0
 50122  1  0  0  0
 50123  1  0  0  0
 51 52  1  0  0  0
 51124  1  0  0  0
 51125  1  0  0  0
 52126  1  0  0  0
 52127  1  0  0  0
 53 54  1  0  0  0
 54 55  2  0  0  0
 54128  1  0  0  0
 55 57  1  0  0  0
 55129  1  0  0  0
 56 69  2  0  0  0
 57 58  2  0  0  0
 57130  1  0  0  0
 58131  1  0  0  0
 59 60  1  0  0  0
 59 61  1  0  0  0
 59 62  1  0  0  0
 60132  1  0  0  0
 60133  1  0  0  0
 60134  1  0  0  0
 61135  1  0  0  0
 61136  1  0  0  0
 61137  1  0  0  0
 62138  1  0  0  0
 62139  1  0  0  0
 62140  1  0  0  0
 63 65  1  0  0  0
 63141  1  0  0  0
 63142  1  0  0  0
 63143  1  0  0  0
 64144  1  0  0  0
 65145  1  0  0  0
 68 79  1  0  0  0
 71 74  2  0  0  0
 71 75  1  0  0  0
 71146  1  0  0  0
 72 74  1  0  0  0
 72 76  2  0  0  0
 72147  1  0  0  0
 73 75  2  0  0  0
 73 76  1  0  0  0
 73 82  1  0  0  0
 74 84  1  0  0  0
 75 83  1  0  0  0
 76 86  1  0  0  0
 77 78  1  0  0  0
 77 79  2  0  0  0
 77 80  1  0  0  0
 78 82  1  0  0  0
 78 85  2  0  0  0
 79148  1  0  0  0
 80 81  1  0  0  0
 80149  1  0  0  0
 80150  1  0  0  0
 81 82  1  0  0  0
 81151  1  0  0  0
 81152  1  0  0  0
 83153  1  0  0  0
 83154  1  0  0  0
 84155  1  0  0  0
M  ISO  4   1 100  68 101  79 101  84 100
M  END
> <chiral flag>
0

> <version>
0

> <s_m_source_file>
/data/baiqing/PycharmProjects/Reinvent-master-3.2/result/LINK_invent/BTK/process_docking_weight1_custom_product_contain_oxygen_bond_distance_aromatic_linkinvent_7_9_3/rearranged_h_0087.sdf

> <i_m_source_file_index>
11

> <r_mmod_Potential_Energy-OPLS-2005>
201.723403930664

> <r_mmod_Stretch_Energy-OPLS-2005>
98.5908508300781

> <r_mmod_Bend_Energy-OPLS-2005>
177.302520751953

> <r_mmod_Torsional_Energy-OPLS-2005>
271.044677734375

> <r_mmod_Improper_Torsional_Energy-OPLS-2005>
9.36205101013184

> <r_mmod_Van_der_Waal_Energy-OPLS-2005>
147.43962097168

> <r_mmod_Electrostatic_Energy-OPLS-2005>
-353.989532470703

> <r_mmod_Solvation_Energy-OPLS-2005>
-210.46989440918

> <b_mmod_Minimization_Converged-OPLS-2005>
0

> <r_mmod_RMS_Derivative-OPLS-2005>
1.33990585803986

$$$$
11
                    3D
 Structure written by MMmdl.
156164  0  0  1  0            999 V2000
  -30.6095  -14.7559   20.5025 C   0  0  0  0  0  0
  -30.4259  -12.4691   19.4775 C   0  0  0  0  0  0
  -29.5099  -12.5421   18.2371 C   0  0  0  0  0  0
  -28.0340  -12.3542   18.6390 C   0  0  0  0  0  0
  -27.6391  -13.2342   19.8532 C   0  0  2  0  0  0
  -28.6755  -13.1390   20.9868 C   0  0  0  0  0  0
  -25.2505  -13.8202   20.5728 C   0  0  0  0  0  0
  -24.1800  -13.0441   20.9199 C   0  0  0  0  0  0
  -24.6392  -11.6913   20.8732 C   0  0  0  0  0  0
  -23.9065  -10.4300   21.0385 C   0  0  0  0  0  0
  -24.3617   -9.4219   21.9161 C   0  0  0  0  0  0
  -23.6297   -8.2254   22.0739 C   0  0  0  0  0  0
  -22.4275   -8.0287   21.3534 C   0  0  0  0  0  0
  -21.9905   -9.0253   20.4626 C   0  0  0  0  0  0
  -22.7235  -10.2136   20.3034 C   0  0  0  0  0  0
  -21.6853   -6.0743   22.5276 C   0  0  0  0  0  0
  -21.4004   -6.5645   23.8209 C   0  0  0  0  0  0
  -21.3671   -5.6801   24.9171 C   0  0  0  0  0  0
  -21.6045   -4.3062   24.7222 C   0  0  0  0  0  0
  -21.8814   -3.8155   23.4341 C   0  0  0  0  0  0
  -21.9192   -4.6969   22.3399 C   0  0  0  0  0  0
  -22.7826  -13.5205   21.1880 C   0  0  0  0  0  0
  -22.1672   -4.2158   21.0975 F   0  0  0  0  0  0
  -21.5629   -3.4552   25.7738 F   0  0  0  0  0  0
  -29.9824  -13.5218   20.4256 N   0  0  0  0  0  0
  -26.2918  -12.9410   20.3279 N   0  0  0  0  0  0
  -25.9318  -11.6542   20.5734 N   0  0  0  0  0  0
  -22.0490  -12.8194   22.0433 N   0  0  0  0  0  0
  -25.4207  -15.1941   20.4221 N   0  0  0  0  0  0
  -31.7328  -14.8888   20.0058 O   0  0  0  0  0  0
  -21.6644   -6.8883   21.4236 O   0  0  0  0  0  0
  -22.3525  -14.5527   20.6742 O   0  0  0  0  0  0
  -24.6335  -31.8571   23.1980 C   0  0  0  0  0  0
  -25.9163  -32.4759   23.8339 C   0  0  1  0  0  0
  -27.2192  -27.2566   20.1085 C   0  0  0  0  0  0
  -25.5961  -33.8564   24.2267 N   0  0  0  0  0  0
  -23.4299  -30.4802   21.5434 C   0  0  2  0  0  0
  -24.8754  -28.9282   20.1090 C   0  0  0  0  0  0
  -22.7512  -29.4636   22.4922 C   0  0  0  0  0  0
  -18.0299  -28.1407   22.8475 C   0  0  0  0  0  0
  -24.1489  -36.7251   23.2638 C   0  0  0  0  0  0
  -25.9804  -30.7623   21.3846 C   0  0  0  0  0  0
  -26.0503  -29.3868   20.7207 C   0  0  0  0  0  0
  -27.2234  -28.5608   20.7149 C   0  0  0  0  0  0
  -26.0120  -26.8648   19.4857 C   0  0  0  0  0  0
  -24.8611  -27.6740   19.4833 C   0  0  0  0  0  0
  -23.6480  -29.8162   20.1594 C   0  0  0  0  0  0
  -25.4122  -36.3069   24.0329 C   0  0  1  0  0  0
  -20.5903  -28.3737   23.1260 C   0  0  2  0  0  0
  -20.6798  -26.9453   22.5411 C   0  0  0  0  0  0
  -19.5772  -26.6407   21.5216 C   0  0  0  0  0  0
  -18.1944  -26.7959   22.1612 C   0  0  0  0  0  0
  -19.1554  -28.8890   23.2860 C   0  0  0  0  0  0
  -18.9477  -30.1488   23.8888 C   0  0  0  0  0  0
  -17.6477  -30.6602   24.0579 C   0  0  0  0  0  0
  -25.9076  -34.9448   23.5101 C   0  0  0  0  0  0
  -16.5362  -29.9102   23.6348 C   0  0  0  0  0  0
  -16.7284  -28.6520   23.0358 C   0  0  0  0  0  0
  -26.4507  -31.6577   25.0736 C   0  0  0  0  0  0
  -25.3695  -31.3726   26.1422 C   0  0  0  0  0  0
  -27.0358  -30.2986   24.6249 C   0  0  0  0  0  0
  -27.6084  -32.4299   25.7492 C   0  0  0  0  0  0
  -27.5590  -37.1777   24.8464 C   0  0  0  0  0  0
  -21.4221  -29.3075   22.3654 N   0  0  0  0  0  0
  -26.4292  -37.3774   23.9423 N   0  0  0  0  0  0
  -24.7006  -31.0518   22.0975 N   0  0  0  0  0  0
  -23.4208  -28.8194   23.3042 O   0  0  0  0  0  0
  -28.2824  -26.3190   20.1770 O   0  0  0  0  0  0
  -26.5652  -34.8921   22.4675 O   0  0  0  0  0  0
  -23.5485  -32.1410   23.7267 O   0  0  0  0  0  0
  -30.0320  -18.3693   21.5678 C   0  0  0  0  0  0
  -29.7782  -19.7438   21.2383 C   0  0  0  0  0  0
  -29.2791  -17.6700   19.4210 C   0  0  0  0  0  0
  -29.8030  -17.2602   20.6851 C   0  0  0  0  0  0
  -29.2523  -20.1420   19.9835 C   0  0  0  0  0  0
  -28.9998  -19.0549   19.0848 C   0  0  0  0  0  0
  -28.6114  -23.9080   19.1739 C   0  0  0  0  0  0
  -28.3722  -25.2858   19.2080 C   0  0  0  0  0  0
  -28.8926  -22.7942   20.1478 C   0  0  0  0  0  0
  -29.9918  -15.6575   22.6073 C   0  0  0  0  0  0
  -27.5342  -18.5003   17.2835 C   0  0  0  0  0  0
  -28.9781  -21.5420   19.5442 N   0  0  0  0  0  0
  -29.9864  -15.8303   21.1442 N   0  0  0  0  0  0
  -29.0417  -22.9493   21.3610 O   0  0  0  0  0  0
  -28.4580  -19.4109   17.8688 O   0  0  0  0  0  0
  -31.4713  -12.5843   19.1875 H   0  0  0  0  0  0
  -30.3634  -11.4857   19.9461 H   0  0  0  0  0  0
  -29.7973  -11.7892   17.5044 H   0  0  0  0  0  0
  -29.6349  -13.5101   17.7466 H   0  0  0  0  0  0
  -27.8828  -11.3005   18.8807 H   0  0  0  0  0  0
  -27.3847  -12.5675   17.7891 H   0  0  0  0  0  0
  -27.6436  -14.2655   19.4993 H   0  0  0  0  0  0
  -28.7160  -12.1272   21.3919 H   0  0  0  0  0  0
  -28.3625  -13.7742   21.8118 H   0  0  0  0  0  0
  -25.2743   -9.5729   22.4745 H   0  0  0  0  0  0
  -24.0015   -7.4650   22.7452 H   0  0  0  0  0  0
  -21.0839   -8.8750   19.8931 H   0  0  0  0  0  0
  -22.3655  -10.9672   19.6163 H   0  0  0  0  0  0
  -21.1981   -7.6146   23.9723 H   0  0  0  0  0  0
  -21.1508   -6.0524   25.9081 H   0  0  0  0  0  0
  -22.0578   -2.7612   23.2837 H   0  0  0  0  0  0
  -22.4123  -11.9842   22.4781 H   0  0  0  0  0  0
  -21.1113  -13.1210   22.2654 H   0  0  0  0  0  0
  -24.6578  -15.8515   20.5411 H   0  0  0  0  0  0
  -26.2855  -15.6381   20.1421 H   0  0  0  0  0  0
  -26.7240  -32.5387   23.1091 H   0  0  0  0  0  0
  -25.0112  -33.9704   25.0413 H   0  0  0  0  0  0
  -22.7274  -31.3042   21.3983 H   0  0  0  0  0  0
  -23.3789  -35.9537   23.3277 H   0  0  0  0  0  0
  -24.3578  -36.8891   22.2053 H   0  0  0  0  0  0
  -23.7191  -37.6421   23.6679 H   0  0  0  0  0  0
  -26.1327  -31.5256   20.6207 H   0  0  0  0  0  0
  -26.8556  -30.8019   22.0222 H   0  0  0  0  0  0
  -28.1200  -28.9018   21.2132 H   0  0  0  0  0  0
  -25.9252  -25.8916   19.0244 H   0  0  0  0  0  0
  -23.9578  -27.3124   19.0099 H   0  0  0  0  0  0
  -23.7700  -30.5950   19.4063 H   0  0  0  0  0  0
  -22.7664  -29.2500   19.8544 H   0  0  0  0  0  0
  -25.1302  -36.1910   25.0817 H   0  0  0  0  0  0
  -20.9967  -28.3323   24.1390 H   0  0  0  0  0  0
  -20.5713  -26.2351   23.3618 H   0  0  0  0  0  0
  -21.6665  -26.7481   22.1202 H   0  0  0  0  0  0
  -19.6938  -25.6309   21.1277 H   0  0  0  0  0  0
  -19.6714  -27.3210   20.6737 H   0  0  0  0  0  0
  -17.4211  -26.6705   21.4016 H   0  0  0  0  0  0
  -18.0340  -26.0099   22.9008 H   0  0  0  0  0  0
  -19.7941  -30.7329   24.2233 H   0  0  0  0  0  0
  -17.5012  -31.6275   24.5207 H   0  0  0  0  0  0
  -15.5370  -30.3012   23.7664 H   0  0  0  0  0  0
  -15.8676  -28.0852   22.7079 H   0  0  0  0  0  0
  -24.5941  -30.7004   25.7738 H   0  0  0  0  0  0
  -24.8797  -32.2879   26.4757 H   0  0  0  0  0  0
  -25.7975  -30.8982   27.0261 H   0  0  0  0  0  0
  -26.2968  -29.6722   24.1244 H   0  0  0  0  0  0
  -27.4004  -29.7260   25.4792 H   0  0  0  0  0  0
  -27.8859  -30.4263   23.9538 H   0  0  0  0  0  0
  -27.2749  -33.3634   26.2031 H   0  0  0  0  0  0
  -28.3893  -32.6785   25.0296 H   0  0  0  0  0  0
  -28.0739  -31.8429   26.5411 H   0  0  0  0  0  0
  -28.2586  -38.0100   24.7561 H   0  0  0  0  0  0
  -28.1115  -36.2640   24.6233 H   0  0  0  0  0  0
  -27.2320  -37.1335   25.8868 H   0  0  0  0  0  0
  -20.9433  -29.8749   21.6806 H   0  0  0  0  0  0
  -26.0169  -38.2838   24.1455 H   0  0  0  0  0  0
  -30.4242  -18.1936   22.5569 H   0  0  0  0  0  0
  -29.9977  -20.5016   21.9759 H   0  0  0  0  0  0
  -29.0592  -16.9007   18.6964 H   0  0  0  0  0  0
  -28.5881  -23.5555   18.1524 H   0  0  0  0  0  0
  -28.2103  -25.7434   18.2412 H   0  0  0  0  0  0
  -30.8577  -16.1499   23.0525 H   0  0  0  0  0  0
  -30.0525  -14.6184   22.9361 H   0  0  0  0  0  0
  -29.0851  -16.0767   23.0439 H   0  0  0  0  0  0
  -26.8975  -19.0425   16.5839 H   0  0  0  0  0  0
  -26.8764  -18.0484   18.0284 H   0  0  0  0  0  0
  -28.0436  -17.7076   16.7330 H   0  0  0  0  0  0
  -28.7955  -21.5868   18.5508 H   0  0  0  0  0  0
  1 25  1  0  0  0
  1 30  2  0  0  0
  1 83  1  0  0  0
  2  3  1  0  0  0
  2 25  1  0  0  0
  2 86  1  0  0  0
  2 87  1  0  0  0
  3  4  1  0  0  0
  3 88  1  0  0  0
  3 89  1  0  0  0
  4  5  1  0  0  0
  4 90  1  0  0  0
  4 91  1  0  0  0
  5  6  1  0  0  0
  5 26  1  0  0  0
  5 92  1  0  0  0
  6 25  1  0  0  0
  6 93  1  0  0  0
  6 94  1  0  0  0
  7  8  2  0  0  0
  7 26  1  0  0  0
  7 29  1  0  0  0
  8  9  1  0  0  0
  8 22  1  0  0  0
  9 10  1  0  0  0
  9 27  2  0  0  0
 10 11  2  0  0  0
 10 15  1  0  0  0
 11 12  1  0  0  0
 11 95  1  0  0  0
 12 13  2  0  0  0
 12 96  1  0  0  0
 13 14  1  0  0  0
 13 31  1  0  0  0
 14 15  2  0  0  0
 14 97  1  0  0  0
 15 98  1  0  0  0
 16 17  2  0  0  0
 16 21  1  0  0  0
 16 31  1  0  0  0
 17 18  1  0  0  0
 17 99  1  0  0  0
 18 19  2  0  0  0
 18100  1  0  0  0
 19 20  1  0  0  0
 19 24  1  0  0  0
 20 21  2  0  0  0
 20101  1  0  0  0
 21 23  1  0  0  0
 22 28  1  0  0  0
 22 32  2  0  0  0
 26 27  1  0  0  0
 28102  1  0  0  0
 28103  1  0  0  0
 29104  1  0  0  0
 29105  1  0  0  0
 33 34  1  0  0  0
 33 66  1  0  0  0
 33 70  2  0  0  0
 34 36  1  0  0  0
 34 59  1  0  0  0
 34106  1  0  0  0
 35 44  2  0  0  0
 35 45  1  0  0  0
 35 68  1  0  0  0
 36 56  1  0  0  0
 36107  1  0  0  0
 37 39  1  0  0  0
 37 47  1  0  0  0
 37 66  1  0  0  0
 37108  1  0  0  0
 38 43  2  0  0  0
 38 46  1  0  0  0
 38 47  1  0  0  0
 39 64  1  0  0  0
 39 67  2  0  0  0
 40 52  1  0  0  0
 40 53  2  0  0  0
 40 58  1  0  0  0
 41109  1  0  0  0
 41110  1  0  0  0
 41111  1  0  0  0
 41 48  1  0  0  0
 42 43  1  0  0  0
 42 66  1  0  0  0
 42112  1  0  0  0
 42113  1  0  0  0
 43 44  1  0  0  0
 44114  1  0  0  0
 45 46  2  0  0  0
 45115  1  0  0  0
 46116  1  0  0  0
 47117  1  0  0  0
 47118  1  0  0  0
 48 56  1  0  0  0
 48 65  1  0  0  0
 48119  1  0  0  0
 49 50  1  0  0  0
 49 53  1  0  0  0
 49 64  1  0  0  0
 49120  1  0  0  0
 50 51  1  0  0  0
 50121  1  0  0  0
 50122  1  0  0  0
 51 52  1  0  0  0
 51123  1  0  0  0
 51124  1  0  0  0
 52125  1  0  0  0
 52126  1  0  0  0
 53 54  1  0  0  0
 54 55  2  0  0  0
 54127  1  0  0  0
 55 57  1  0  0  0
 55128  1  0  0  0
 56 69  2  0  0  0
 57 58  2  0  0  0
 57129  1  0  0  0
 58130  1  0  0  0
 59 60  1  0  0  0
 59 61  1  0  0  0
 59 62  1  0  0  0
 60131  1  0  0  0
 60132  1  0  0  0
 60133  1  0  0  0
 61134  1  0  0  0
 61135  1  0  0  0
 61136  1  0  0  0
 62137  1  0  0  0
 62138  1  0  0  0
 62139  1  0  0  0
 63 65  1  0  0  0
 63140  1  0  0  0
 63141  1  0  0  0
 63142  1  0  0  0
 64143  1  0  0  0
 65144  1  0  0  0
 68 78  1  0  0  0
 71 72  2  0  0  0
 71 74  1  0  0  0
 71145  1  0  0  0
 72 75  1  0  0  0
 72146  1  0  0  0
 73 74  2  0  0  0
 73 76  1  0  0  0
 73147  1  0  0  0
 74 83  1  0  0  0
 75 76  2  0  0  0
 75 82  1  0  0  0
 76 85  1  0  0  0
 77 78  2  0  0  0
 77 79  1  0  0  0
 77148  1  0  0  0
 78149  1  0  0  0
 79 82  1  0  0  0
 79 84  2  0  0  0
 80 83  1  0  0  0
 80150  1  0  0  0
 80151  1  0  0  0
 80152  1  0  0  0
 81 85  1  0  0  0
 81153  1  0  0  0
 81154  1  0  0  0
 81155  1  0  0  0
 82156  1  0  0  0
M  ISO  4   1 100  68 101  78 101  83 100
M  END
> <chiral flag>
0

> <version>
0

> <s_m_source_file>
/data/baiqing/PycharmProjects/Reinvent-master-3.2/result/LINK_invent/BTK/process_docking_weight1_custom_product_contain_oxygen_bond_distance_aromatic_linkinvent_7_9_3/rearranged_h_0087.sdf

> <i_m_source_file_index>
12

> <r_mmod_Potential_Energy-OPLS-2005>
341.357513427734

> <r_mmod_Stretch_Energy-OPLS-2005>
128.321701049805

> <r_mmod_Bend_Energy-OPLS-2005>
243.615447998047

> <r_mmod_Torsional_Energy-OPLS-2005>
299.284790039062

> <r_mmod_Improper_Torsional_Energy-OPLS-2005>
3.87788963317871

> <r_mmod_Van_der_Waal_Energy-OPLS-2005>
153.606781005859

> <r_mmod_Electrostatic_Energy-OPLS-2005>
-353.698028564453

> <r_mmod_Solvation_Energy-OPLS-2005>
-225.126251220703

> <b_mmod_Minimization_Converged-OPLS-2005>
0

> <r_mmod_RMS_Derivative-OPLS-2005>
2.95648717880249

$$$$
12
                    3D
 Structure written by MMmdl.
154163  0  0  1  0            999 V2000
  -30.6432  -14.7598   20.4795 C   0  0  0  0  0  0
  -30.4624  -12.4714   19.4909 C   0  0  0  0  0  0
  -29.5167  -12.4542   18.2692 C   0  0  0  0  0  0
  -28.0554  -12.2509   18.7059 C   0  0  0  0  0  0
  -27.6559  -13.1917   19.8650 C   0  0  2  0  0  0
  -28.7042  -13.1661   21.0031 C   0  0  0  0  0  0
  -25.2635  -13.8111   20.5814 C   0  0  0  0  0  0
  -24.1892  -13.0388   20.9287 C   0  0  0  0  0  0
  -24.6454  -11.6862   20.8880 C   0  0  0  0  0  0
  -23.9119  -10.4244   21.0481 C   0  0  0  0  0  0
  -24.3654   -9.4160   21.9246 C   0  0  0  0  0  0
  -23.6300   -8.2207   22.0776 C   0  0  0  0  0  0
  -22.4294   -8.0287   21.3541 C   0  0  0  0  0  0
  -21.9955   -9.0280   20.4676 C   0  0  0  0  0  0
  -22.7293  -10.2153   20.3104 C   0  0  0  0  0  0
  -21.6824   -6.0777   22.5302 C   0  0  0  0  0  0
  -21.3984   -6.5668   23.8237 C   0  0  0  0  0  0
  -21.3646   -5.6803   24.9185 C   0  0  0  0  0  0
  -21.6032   -4.3060   24.7203 C   0  0  0  0  0  0
  -21.8797   -3.8188   23.4314 C   0  0  0  0  0  0
  -21.9183   -4.7026   22.3399 C   0  0  0  0  0  0
  -22.7901  -13.5229   21.1816 C   0  0  0  0  0  0
  -22.1661   -4.2221   21.0964 F   0  0  0  0  0  0
  -21.5626   -3.4532   25.7709 F   0  0  0  0  0  0
  -30.0058  -13.5326   20.4280 N   0  0  0  0  0  0
  -26.3025  -12.9230   20.3382 N   0  0  0  0  0  0
  -25.9356  -11.6425   20.5867 N   0  0  0  0  0  0
  -22.0497  -12.8341   22.0397 N   0  0  0  0  0  0
  -25.4108  -15.1849   20.4143 N   0  0  0  0  0  0
  -31.7629  -14.8783   19.9769 O   0  0  0  0  0  0
  -21.6602   -6.8929   21.4256 O   0  0  0  0  0  0
  -22.3661  -14.5508   20.6518 O   0  0  0  0  0  0
  -24.6375  -31.8491   23.1824 C   0  0  0  0  0  0
  -25.9156  -32.4704   23.8208 C   0  0  1  0  0  0
  -27.2322  -27.2298   20.1135 C   0  0  0  0  0  0
  -25.5882  -33.8476   24.2048 N   0  0  0  0  0  0
  -23.4357  -30.4733   21.5289 C   0  0  2  0  0  0
  -24.8813  -28.9074   20.1095 C   0  0  0  0  0  0
  -22.7547  -29.4600   22.4834 C   0  0  0  0  0  0
  -18.0366  -28.1427   22.8512 C   0  0  0  0  0  0
  -24.1514  -36.7258   23.2668 C   0  0  0  0  0  0
  -25.9896  -30.7438   21.3717 C   0  0  0  0  0  0
  -26.0598  -29.3672   20.7102 C   0  0  0  0  0  0
  -27.2391  -28.5471   20.6935 C   0  0  0  0  0  0
  -26.0173  -26.8364   19.5031 C   0  0  0  0  0  0
  -24.8670  -27.6472   19.5028 C   0  0  0  0  0  0
  -23.6447  -29.7916   20.1550 C   0  0  0  0  0  0
  -25.4135  -36.2987   24.0297 C   0  0  1  0  0  0
  -20.5953  -28.3729   23.1247 C   0  0  2  0  0  0
  -20.6813  -26.9412   22.5394 C   0  0  0  0  0  0
  -19.5741  -26.6390   21.5249 C   0  0  0  0  0  0
  -18.1954  -26.7981   22.1666 C   0  0  0  0  0  0
  -19.1618  -28.8920   23.2888 C   0  0  0  0  0  0
  -18.9524  -30.1531   23.8858 C   0  0  0  0  0  0
  -17.6504  -30.6601   24.0645 C   0  0  0  0  0  0
  -25.9103  -34.9379   23.5010 C   0  0  0  0  0  0
  -16.5412  -29.9086   23.6398 C   0  0  0  0  0  0
  -16.7357  -28.6548   23.0326 C   0  0  0  0  0  0
  -26.4415  -31.6633   25.0693 C   0  0  0  0  0  0
  -25.3571  -31.3772   26.1396 C   0  0  0  0  0  0
  -27.0337  -30.3058   24.6264 C   0  0  0  0  0  0
  -27.5877  -32.4546   25.7435 C   0  0  0  0  0  0
  -27.5558  -37.1760   24.8465 C   0  0  0  0  0  0
  -21.4240  -29.3082   22.3601 N   0  0  0  0  0  0
  -26.4277  -37.3721   23.9432 N   0  0  0  0  0  0
  -24.7086  -31.0435   22.0815 N   0  0  0  0  0  0
  -23.4215  -28.8117   23.2958 O   0  0  0  0  0  0
  -28.3313  -26.3196   20.1568 O   0  0  0  0  0  0
  -26.5730  -34.8919   22.4603 O   0  0  0  0  0  0
  -23.5516  -32.1301   23.7107 O   0  0  0  0  0  0
  -27.7848  -18.2489   18.9417 C   0  0  0  0  0  0
  -28.4253  -17.1560   19.5490 C   0  0  0  0  0  0
  -28.1840  -19.5668   19.2407 C   0  0  0  0  0  0
  -29.9007  -18.6934   20.7354 C   0  0  0  0  0  0
  -30.4108  -23.3945   20.1820 C   0  0  0  0  0  0
  -28.5239  -22.2893   20.4497 C   0  0  0  0  0  0
  -29.5013  -17.3084   20.4672 C   0  0  0  0  0  0
  -28.9874  -23.5956   20.3173 C   0  0  0  0  0  0
  -29.2431  -19.8456   20.1314 C   0  0  0  0  0  0
  -30.6811  -22.0345   20.1955 C   0  0  0  0  0  0
  -30.0134  -16.0336   21.2175 C   0  0  0  0  0  0
  -27.9960  -24.8556   20.2963 C   0  0  0  0  0  0
  -29.9967  -16.0413   22.4875 N   0  0  0  0  0  0
  -29.5085  -21.2913   20.3015 N   0  0  0  0  0  0
  -31.8783  -21.3937   20.0652 O   0  0  0  0  0  0
  -31.4853  -12.6284   19.1451 H   0  0  0  0  0  0
  -30.4775  -11.5068   20.0015 H   0  0  0  0  0  0
  -29.8105  -11.6485   17.5943 H   0  0  0  0  0  0
  -29.6095  -13.3830   17.7040 H   0  0  0  0  0  0
  -27.9605  -11.2169   19.0417 H   0  0  0  0  0  0
  -27.3788  -12.3532   17.8596 H   0  0  0  0  0  0
  -27.6376  -14.1824   19.4331 H   0  0  0  0  0  0
  -28.7597  -12.1714   21.4536 H   0  0  0  0  0  0
  -28.4142  -13.8439   21.8087 H   0  0  0  0  0  0
  -25.2798   -9.5580   22.4853 H   0  0  0  0  0  0
  -23.9977   -7.4574   22.7522 H   0  0  0  0  0  0
  -21.0861   -8.8856   19.8984 H   0  0  0  0  0  0
  -22.3810  -10.9721   19.6242 H   0  0  0  0  0  0
  -21.1962   -7.6168   23.9759 H   0  0  0  0  0  0
  -21.1477   -6.0524   25.9086 H   0  0  0  0  0  0
  -22.0582   -2.7648   23.2778 H   0  0  0  0  0  0
  -22.4106  -12.0039   22.4873 H   0  0  0  0  0  0
  -21.1103  -13.1396   22.2505 H   0  0  0  0  0  0
  -24.6162  -15.7962   20.5688 H   0  0  0  0  0  0
  -26.1919  -15.6682   19.9838 H   0  0  0  0  0  0
  -26.7224  -32.5258   23.0939 H   0  0  0  0  0  0
  -24.9950  -33.9632   25.0153 H   0  0  0  0  0  0
  -22.7392  -31.3029   21.3742 H   0  0  0  0  0  0
  -23.3757  -35.9627   23.3273 H   0  0  0  0  0  0
  -24.3626  -36.8940   22.2106 H   0  0  0  0  0  0
  -23.7273  -37.6423   23.6769 H   0  0  0  0  0  0
  -26.1589  -31.4951   20.6017 H   0  0  0  0  0  0
  -26.8576  -30.7756   22.0123 H   0  0  0  0  0  0
  -28.1394  -28.8981   21.1749 H   0  0  0  0  0  0
  -25.8842  -25.8811   19.0257 H   0  0  0  0  0  0
  -23.9608  -27.2729   19.0456 H   0  0  0  0  0  0
  -23.7398  -30.5528   19.3829 H   0  0  0  0  0  0
  -22.7617  -29.2166   19.8680 H   0  0  0  0  0  0
  -25.1323  -36.1773   25.0788 H   0  0  0  0  0  0
  -21.0184  -28.3340   24.1318 H   0  0  0  0  0  0
  -20.5821  -26.2302   23.3618 H   0  0  0  0  0  0
  -21.6647  -26.7450   22.1074 H   0  0  0  0  0  0
  -19.6865  -25.6301   21.1262 H   0  0  0  0  0  0
  -19.6654  -27.3262   20.6854 H   0  0  0  0  0  0
  -17.4178  -26.6851   21.4077 H   0  0  0  0  0  0
  -18.0287  -26.0127   22.9080 H   0  0  0  0  0  0
  -19.7984  -30.7478   24.2039 H   0  0  0  0  0  0
  -17.5023  -31.6259   24.5274 H   0  0  0  0  0  0
  -15.5388  -30.2952   23.7757 H   0  0  0  0  0  0
  -15.8761  -28.0933   22.6896 H   0  0  0  0  0  0
  -24.5668  -30.7256   25.7589 H   0  0  0  0  0  0
  -24.8889  -32.2984   26.4935 H   0  0  0  0  0  0
  -25.7853  -30.8736   27.0107 H   0  0  0  0  0  0
  -26.2934  -29.6729   24.1353 H   0  0  0  0  0  0
  -27.4056  -29.7397   25.4818 H   0  0  0  0  0  0
  -27.8780  -30.4284   23.9466 H   0  0  0  0  0  0
  -27.2315  -33.3874   26.1861 H   0  0  0  0  0  0
  -28.3678  -32.7190   25.0261 H   0  0  0  0  0  0
  -28.0568  -31.8863   26.5482 H   0  0  0  0  0  0
  -28.2517  -38.0124   24.7583 H   0  0  0  0  0  0
  -28.1131  -36.2646   24.6220 H   0  0  0  0  0  0
  -27.2305  -37.1251   25.8881 H   0  0  0  0  0  0
  -20.9422  -29.8757   21.6752 H   0  0  0  0  0  0
  -26.0100  -38.2769   24.1523 H   0  0  0  0  0  0
  -26.9576  -18.0945   18.2486 H   0  0  0  0  0  0
  -28.0272  -16.1854   19.3070 H   0  0  0  0  0  0
  -27.6515  -20.3811   18.7625 H   0  0  0  0  0  0
  -30.7080  -18.8841   21.4313 H   0  0  0  0  0  0
  -31.1736  -24.1545   20.0548 H   0  0  0  0  0  0
  -27.5080  -21.9495   20.5828 H   0  0  0  0  0  0
  -27.4168  -24.7565   21.2147 H   0  0  0  0  0  0
  -27.3282  -24.5547   19.4926 H   0  0  0  0  0  0
  -29.6235  -16.9125   22.8422 H   0  0  0  0  0  0
  -32.5625  -22.0529   20.0155 H   0  0  0  0  0  0
  1 25  1  0  0  0
  1 30  2  0  0  0
  1 81  1  0  0  0
  2  3  1  0  0  0
  2 25  1  0  0  0
  2 86  1  0  0  0
  2 87  1  0  0  0
  3  4  1  0  0  0
  3 88  1  0  0  0
  3 89  1  0  0  0
  4  5  1  0  0  0
  4 90  1  0  0  0
  4 91  1  0  0  0
  5  6  1  0  0  0
  5 26  1  0  0  0
  5 92  1  0  0  0
  6 25  1  0  0  0
  6 93  1  0  0  0
  6 94  1  0  0  0
  7  8  2  0  0  0
  7 26  1  0  0  0
  7 29  1  0  0  0
  8  9  1  0  0  0
  8 22  1  0  0  0
  9 10  1  0  0  0
  9 27  2  0  0  0
 10 11  2  0  0  0
 10 15  1  0  0  0
 11 12  1  0  0  0
 11 95  1  0  0  0
 12 13  2  0  0  0
 12 96  1  0  0  0
 13 14  1  0  0  0
 13 31  1  0  0  0
 14 15  2  0  0  0
 14 97  1  0  0  0
 15 98  1  0  0  0
 16 17  2  0  0  0
 16 21  1  0  0  0
 16 31  1  0  0  0
 17 18  1  0  0  0
 17 99  1  0  0  0
 18 19  2  0  0  0
 18100  1  0  0  0
 19 20  1  0  0  0
 19 24  1  0  0  0
 20 21  2  0  0  0
 20101  1  0  0  0
 21 23  1  0  0  0
 22 28  1  0  0  0
 22 32  2  0  0  0
 26 27  1  0  0  0
 28102  1  0  0  0
 28103  1  0  0  0
 29104  1  0  0  0
 29105  1  0  0  0
 33 34  1  0  0  0
 33 66  1  0  0  0
 33 70  2  0  0  0
 34 36  1  0  0  0
 34 59  1  0  0  0
 34106  1  0  0  0
 35 44  2  0  0  0
 35 45  1  0  0  0
 35 68  1  0  0  0
 36 56  1  0  0  0
 36107  1  0  0  0
 37 39  1  0  0  0
 37 47  1  0  0  0
 37 66  1  0  0  0
 37108  1  0  0  0
 38 43  2  0  0  0
 38 46  1  0  0  0
 38 47  1  0  0  0
 39 64  1  0  0  0
 39 67  2  0  0  0
 40 52  1  0  0  0
 40 53  2  0  0  0
 40 58  1  0  0  0
 41109  1  0  0  0
 41110  1  0  0  0
 41111  1  0  0  0
 41 48  1  0  0  0
 42 43  1  0  0  0
 42 66  1  0  0  0
 42112  1  0  0  0
 42113  1  0  0  0
 43 44  1  0  0  0
 44114  1  0  0  0
 45 46  2  0  0  0
 45115  1  0  0  0
 46116  1  0  0  0
 47117  1  0  0  0
 47118  1  0  0  0
 48 56  1  0  0  0
 48 65  1  0  0  0
 48119  1  0  0  0
 49 50  1  0  0  0
 49 53  1  0  0  0
 49 64  1  0  0  0
 49120  1  0  0  0
 50 51  1  0  0  0
 50121  1  0  0  0
 50122  1  0  0  0
 51 52  1  0  0  0
 51123  1  0  0  0
 51124  1  0  0  0
 52125  1  0  0  0
 52126  1  0  0  0
 53 54  1  0  0  0
 54 55  2  0  0  0
 54127  1  0  0  0
 55 57  1  0  0  0
 55128  1  0  0  0
 56 69  2  0  0  0
 57 58  2  0  0  0
 57129  1  0  0  0
 58130  1  0  0  0
 59 60  1  0  0  0
 59 61  1  0  0  0
 59 62  1  0  0  0
 60131  1  0  0  0
 60132  1  0  0  0
 60133  1  0  0  0
 61134  1  0  0  0
 61135  1  0  0  0
 61136  1  0  0  0
 62137  1  0  0  0
 62138  1  0  0  0
 62139  1  0  0  0
 63 65  1  0  0  0
 63140  1  0  0  0
 63141  1  0  0  0
 63142  1  0  0  0
 64143  1  0  0  0
 65144  1  0  0  0
 68 82  1  0  0  0
 71 72  2  0  0  0
 71 73  1  0  0  0
 71145  1  0  0  0
 72 77  1  0  0  0
 72146  1  0  0  0
 73 79  2  0  0  0
 73147  1  0  0  0
 74 77  2  0  0  0
 74 79  1  0  0  0
 74148  1  0  0  0
 75 78  1  0  0  0
 75 80  2  0  0  0
 75149  1  0  0  0
 76 78  2  0  0  0
 76 84  1  0  0  0
 76150  1  0  0  0
 77 81  1  0  0  0
 78 82  1  0  0  0
 79 84  1  0  0  0
 80 84  1  0  0  0
 80 85  1  0  0  0
 81 83  2  0  0  0
 82151  1  0  0  0
 82152  1  0  0  0
 83153  1  0  0  0
 85154  1  0  0  0
M  ISO  4   1 100  68 101  81 100  82 101
M  END
> <chiral flag>
0

> <version>
0

> <s_m_source_file>
/data/baiqing/PycharmProjects/Reinvent-master-3.2/result/LINK_invent/BTK/process_docking_weight1_custom_product_contain_oxygen_bond_distance_aromatic_linkinvent_7_9_3/rearranged_h_0087.sdf

> <i_m_source_file_index>
13

> <r_mmod_Potential_Energy-OPLS-2005>
378.392395019531

> <r_mmod_Stretch_Energy-OPLS-2005>
133.316146850586

> <r_mmod_Bend_Energy-OPLS-2005>
206.609848022461

> <r_mmod_Torsional_Energy-OPLS-2005>
249.021713256836

> <r_mmod_Improper_Torsional_Energy-OPLS-2005>
4.28473711013794

> <r_mmod_Van_der_Waal_Energy-OPLS-2005>
135.528198242188

> <r_mmod_Electrostatic_Energy-OPLS-2005>
-230.894989013672

> <r_mmod_Solvation_Energy-OPLS-2005>
-220.240997314453

> <b_mmod_Minimization_Converged-OPLS-2005>
0

> <r_mmod_RMS_Derivative-OPLS-2005>
9.61849308013916

$$$$
13
                    3D
 Structure written by MMmdl.
149158  0  0  1  0            999 V2000
  -30.5905  -14.8517   20.4333 C   0  0  0  0  0  0
  -30.4309  -12.5229   19.4889 C   0  0  0  0  0  0
  -29.5135  -12.5149   18.2462 C   0  0  0  0  0  0
  -28.0433  -12.3214   18.6623 C   0  0  0  0  0  0
  -27.6327  -13.2429   19.8415 C   0  0  2  0  0  0
  -28.6767  -13.2385   20.9787 C   0  0  0  0  0  0
  -25.2472  -13.8212   20.5706 C   0  0  0  0  0  0
  -24.1783  -13.0440   20.9226 C   0  0  0  0  0  0
  -24.6391  -11.6924   20.8756 C   0  0  0  0  0  0
  -23.9075  -10.4294   21.0408 C   0  0  0  0  0  0
  -24.3623   -9.4208   21.9184 C   0  0  0  0  0  0
  -23.6297   -8.2243   22.0753 C   0  0  0  0  0  0
  -22.4279   -8.0282   21.3545 C   0  0  0  0  0  0
  -21.9916   -9.0256   20.4647 C   0  0  0  0  0  0
  -22.7246  -10.2135   20.3057 C   0  0  0  0  0  0
  -21.6855   -6.0737   22.5279 C   0  0  0  0  0  0
  -21.4016   -6.5640   23.8213 C   0  0  0  0  0  0
  -21.3660   -5.6792   24.9175 C   0  0  0  0  0  0
  -21.6044   -4.3055   24.7225 C   0  0  0  0  0  0
  -21.8819   -3.8147   23.4345 C   0  0  0  0  0  0
  -21.9193   -4.6964   22.3402 C   0  0  0  0  0  0
  -22.7803  -13.5214   21.1880 C   0  0  0  0  0  0
  -22.1661   -4.2150   21.0980 F   0  0  0  0  0  0
  -21.5629   -3.4538   25.7737 F   0  0  0  0  0  0
  -29.9636  -13.6157   20.3832 N   0  0  0  0  0  0
  -26.2897  -12.9438   20.3257 N   0  0  0  0  0  0
  -25.9323  -11.6571   20.5747 N   0  0  0  0  0  0
  -22.0453  -12.8203   22.0436 N   0  0  0  0  0  0
  -25.4133  -15.1941   20.4119 N   0  0  0  0  0  0
  -31.7943  -14.8872   20.1580 O   0  0  0  0  0  0
  -21.6642   -6.8880   21.4241 O   0  0  0  0  0  0
  -22.3487  -14.5518   20.6724 O   0  0  0  0  0  0
  -24.6375  -31.8494   23.1932 C   0  0  0  0  0  0
  -25.9171  -32.4723   23.8303 C   0  0  1  0  0  0
  -27.2159  -27.1927   20.1477 C   0  0  0  0  0  0
  -25.5940  -33.8527   24.2220 N   0  0  0  0  0  0
  -23.4384  -30.4699   21.5373 C   0  0  2  0  0  0
  -24.8877  -28.9045   20.1114 C   0  0  0  0  0  0
  -22.7537  -29.4572   22.4882 C   0  0  0  0  0  0
  -18.0299  -28.1392   22.8481 C   0  0  0  0  0  0
  -24.1492  -36.7270   23.2643 C   0  0  0  0  0  0
  -25.9897  -30.7394   21.3856 C   0  0  0  0  0  0
  -26.0612  -29.3544   20.7310 C   0  0  0  0  0  0
  -27.2277  -28.5111   20.7384 C   0  0  0  0  0  0
  -26.0234  -26.8329   19.4841 C   0  0  0  0  0  0
  -24.8772  -27.6540   19.4749 C   0  0  0  0  0  0
  -23.6622  -29.8008   20.1553 C   0  0  0  0  0  0
  -25.4122  -36.3050   24.0320 C   0  0  1  0  0  0
  -20.5908  -28.3713   23.1249 C   0  0  2  0  0  0
  -20.6785  -26.9422   22.5405 C   0  0  0  0  0  0
  -19.5759  -26.6383   21.5212 C   0  0  0  0  0  0
  -18.1940  -26.7932   22.1625 C   0  0  0  0  0  0
  -19.1554  -28.8870   23.2859 C   0  0  0  0  0  0
  -18.9472  -30.1467   23.8883 C   0  0  0  0  0  0
  -17.6470  -30.6591   24.0560 C   0  0  0  0  0  0
  -25.9066  -34.9422   23.5077 C   0  0  0  0  0  0
  -16.5361  -29.9086   23.6333 C   0  0  0  0  0  0
  -16.7284  -28.6503   23.0356 C   0  0  0  0  0  0
  -26.4514  -31.6573   25.0722 C   0  0  0  0  0  0
  -25.3714  -31.3746   26.1427 C   0  0  0  0  0  0
  -27.0373  -30.2977   24.6268 C   0  0  0  0  0  0
  -27.6053  -32.4331   25.7502 C   0  0  0  0  0  0
  -27.5576  -37.1795   24.8467 C   0  0  0  0  0  0
  -21.4236  -29.3047   22.3627 N   0  0  0  0  0  0
  -26.4292  -37.3755   23.9403 N   0  0  0  0  0  0
  -24.7078  -31.0397   22.0942 N   0  0  0  0  0  0
  -23.4205  -28.8119   23.3013 O   0  0  0  0  0  0
  -28.2799  -26.2396   20.1791 O   0  0  0  0  0  0
  -26.5649  -34.8909   22.4654 O   0  0  0  0  0  0
  -23.5507  -32.1347   23.7183 O   0  0  0  0  0  0
  -29.3615  -18.7532   20.4531 C   0  0  0  0  0  0
  -31.5335  -17.8753   20.4544 C   0  0  0  0  0  0
  -30.2168  -17.5089   20.4919 C   0  0  0  0  0  0
  -30.0299  -20.0171   20.3498 C   0  0  0  0  0  0
  -28.8570  -23.6971   20.2268 C   0  0  0  0  0  0
  -30.2265  -23.7544   19.7855 C   0  0  0  0  0  0
  -28.5868  -22.2195   20.4748 C   0  0  0  0  0  0
  -28.0244  -24.8229   20.3813 C   0  0  0  0  0  0
  -30.8010  -22.3429   19.8066 C   0  0  0  0  0  0
  -29.7131  -21.4203   20.2268 N   0  0  0  0  0  0
  -29.8344  -16.0398   20.5709 N   0  0  0  0  0  0
  -30.8753  -24.7506   19.4479 O   0  0  0  0  0  0
  -27.5097  -21.7483   20.8539 O   0  0  0  0  0  0
  -31.7514  -19.6033   20.3524 S   0  0  0  0  0  0
  -31.4699  -12.6527   19.1817 H   0  0  0  0  0  0
  -30.3926  -11.5624   20.0053 H   0  0  0  0  0  0
  -29.8152  -11.7250   17.5570 H   0  0  0  0  0  0
  -29.6219  -13.4547   17.7024 H   0  0  0  0  0  0
  -27.9210  -11.2772   18.9518 H   0  0  0  0  0  0
  -27.3828  -12.4789   17.8088 H   0  0  0  0  0  0
  -27.6071  -14.2522   19.4300 H   0  0  0  0  0  0
  -28.7391  -12.2572   21.4514 H   0  0  0  0  0  0
  -28.3948  -13.9423   21.7635 H   0  0  0  0  0  0
  -25.2766   -9.5684   22.4762 H   0  0  0  0  0  0
  -24.0006   -7.4634   22.7471 H   0  0  0  0  0  0
  -21.0848   -8.8775   19.8952 H   0  0  0  0  0  0
  -22.3703  -10.9674   19.6168 H   0  0  0  0  0  0
  -21.2008   -7.6148   23.9717 H   0  0  0  0  0  0
  -21.1483   -6.0521   25.9078 H   0  0  0  0  0  0
  -22.0597   -2.7609   23.2844 H   0  0  0  0  0  0
  -22.4075  -11.9869   22.4829 H   0  0  0  0  0  0
  -21.1068  -13.1222   22.2640 H   0  0  0  0  0  0
  -24.6406  -15.8423   20.5196 H   0  0  0  0  0  0
  -26.2498  -15.6353   20.0529 H   0  0  0  0  0  0
  -26.7237  -32.5350   23.1037 H   0  0  0  0  0  0
  -25.0064  -33.9654   25.0349 H   0  0  0  0  0  0
  -22.7382  -31.2941   21.3861 H   0  0  0  0  0  0
  -23.3753  -35.9604   23.3306 H   0  0  0  0  0  0
  -24.3575  -36.8896   22.2056 H   0  0  0  0  0  0
  -23.7250  -37.6471   23.6673 H   0  0  0  0  0  0
  -26.1385  -31.4950   20.6130 H   0  0  0  0  0  0
  -26.8631  -30.7900   22.0241 H   0  0  0  0  0  0
  -28.1245  -28.8484   21.2387 H   0  0  0  0  0  0
  -25.9606  -25.8761   18.9857 H   0  0  0  0  0  0
  -23.9822  -27.3065   18.9773 H   0  0  0  0  0  0
  -23.7946  -30.5760   19.3996 H   0  0  0  0  0  0
  -22.7785  -29.2395   19.8464 H   0  0  0  0  0  0
  -25.1310  -36.1889   25.0813 H   0  0  0  0  0  0
  -21.0000  -28.3299   24.1371 H   0  0  0  0  0  0
  -20.5682  -26.2326   23.3619 H   0  0  0  0  0  0
  -21.6652  -26.7437   22.1201 H   0  0  0  0  0  0
  -19.6921  -25.6289   21.1254 H   0  0  0  0  0  0
  -19.6695  -27.3184   20.6735 H   0  0  0  0  0  0
  -17.4208  -26.6674   21.4031 H   0  0  0  0  0  0
  -18.0343  -26.0079   22.9028 H   0  0  0  0  0  0
  -19.7948  -30.7285   24.2248 H   0  0  0  0  0  0
  -17.5024  -31.6271   24.5163 H   0  0  0  0  0  0
  -15.5361  -30.2984   23.7664 H   0  0  0  0  0  0
  -15.8684  -28.0816   22.7082 H   0  0  0  0  0  0
  -24.5891  -30.7096   25.7747 H   0  0  0  0  0  0
  -24.8906  -32.2923   26.4824 H   0  0  0  0  0  0
  -25.8009  -30.8935   27.0224 H   0  0  0  0  0  0
  -26.2978  -29.6707   24.1272 H   0  0  0  0  0  0
  -27.4000  -29.7264   25.4824 H   0  0  0  0  0  0
  -27.8881  -30.4226   23.9566 H   0  0  0  0  0  0
  -27.2649  -33.3641   26.2048 H   0  0  0  0  0  0
  -28.3880  -32.6876   25.0343 H   0  0  0  0  0  0
  -28.0704  -31.8479   26.5446 H   0  0  0  0  0  0
  -28.2600  -38.0084   24.7496 H   0  0  0  0  0  0
  -28.1065  -36.2613   24.6319 H   0  0  0  0  0  0
  -27.2289  -37.1473   25.8870 H   0  0  0  0  0  0
  -20.9436  -29.8760   21.6813 H   0  0  0  0  0  0
  -26.0165  -38.2829   24.1392 H   0  0  0  0  0  0
  -28.2839  -18.6738   20.4772 H   0  0  0  0  0  0
  -32.4167  -17.2484   20.4749 H   0  0  0  0  0  0
  -27.0157  -24.6686   20.7379 H   0  0  0  0  0  0
  -31.6309  -22.3368   20.5139 H   0  0  0  0  0  0
  -31.1749  -22.0842   18.8154 H   0  0  0  0  0  0
  -28.8500  -15.8676   20.7086 H   0  0  0  0  0  0
  1 25  1  0  0  0
  1 30  2  0  0  0
  1 81  1  0  0  0
  2  3  1  0  0  0
  2 25  1  0  0  0
  2 85  1  0  0  0
  2 86  1  0  0  0
  3  4  1  0  0  0
  3 87  1  0  0  0
  3 88  1  0  0  0
  4  5  1  0  0  0
  4 89  1  0  0  0
  4 90  1  0  0  0
  5  6  1  0  0  0
  5 26  1  0  0  0
  5 91  1  0  0  0
  6 25  1  0  0  0
  6 92  1  0  0  0
  6 93  1  0  0  0
  7  8  2  0  0  0
  7 26  1  0  0  0
  7 29  1  0  0  0
  8  9  1  0  0  0
  8 22  1  0  0  0
  9 10  1  0  0  0
  9 27  2  0  0  0
 10 11  2  0  0  0
 10 15  1  0  0  0
 11 12  1  0  0  0
 11 94  1  0  0  0
 12 13  2  0  0  0
 12 95  1  0  0  0
 13 14  1  0  0  0
 13 31  1  0  0  0
 14 15  2  0  0  0
 14 96  1  0  0  0
 15 97  1  0  0  0
 16 17  2  0  0  0
 16 21  1  0  0  0
 16 31  1  0  0  0
 17 18  1  0  0  0
 17 98  1  0  0  0
 18 19  2  0  0  0
 18 99  1  0  0  0
 19 20  1  0  0  0
 19 24  1  0  0  0
 20 21  2  0  0  0
 20100  1  0  0  0
 21 23  1  0  0  0
 22 28  1  0  0  0
 22 32  2  0  0  0
 26 27  1  0  0  0
 28101  1  0  0  0
 28102  1  0  0  0
 29103  1  0  0  0
 29104  1  0  0  0
 33 34  1  0  0  0
 33 66  1  0  0  0
 33 70  2  0  0  0
 34 36  1  0  0  0
 34 59  1  0  0  0
 34105  1  0  0  0
 35 44  2  0  0  0
 35 45  1  0  0  0
 35 68  1  0  0  0
 36 56  1  0  0  0
 36106  1  0  0  0
 37 39  1  0  0  0
 37 47  1  0  0  0
 37 66  1  0  0  0
 37107  1  0  0  0
 38 43  2  0  0  0
 38 46  1  0  0  0
 38 47  1  0  0  0
 39 64  1  0  0  0
 39 67  2  0  0  0
 40 52  1  0  0  0
 40 53  2  0  0  0
 40 58  1  0  0  0
 41108  1  0  0  0
 41109  1  0  0  0
 41110  1  0  0  0
 41 48  1  0  0  0
 42 43  1  0  0  0
 42 66  1  0  0  0
 42111  1  0  0  0
 42112  1  0  0  0
 43 44  1  0  0  0
 44113  1  0  0  0
 45 46  2  0  0  0
 45114  1  0  0  0
 46115  1  0  0  0
 47116  1  0  0  0
 47117  1  0  0  0
 48 56  1  0  0  0
 48 65  1  0  0  0
 48118  1  0  0  0
 49 50  1  0  0  0
 49 53  1  0  0  0
 49 64  1  0  0  0
 49119  1  0  0  0
 50 51  1  0  0  0
 50120  1  0  0  0
 50121  1  0  0  0
 51 52  1  0  0  0
 51122  1  0  0  0
 51123  1  0  0  0
 52124  1  0  0  0
 52125  1  0  0  0
 53 54  1  0  0  0
 54 55  2  0  0  0
 54126  1  0  0  0
 55 57  1  0  0  0
 55127  1  0  0  0
 56 69  2  0  0  0
 57 58  2  0  0  0
 57128  1  0  0  0
 58129  1  0  0  0
 59 60  1  0  0  0
 59 61  1  0  0  0
 59 62  1  0  0  0
 60130  1  0  0  0
 60131  1  0  0  0
 60132  1  0  0  0
 61133  1  0  0  0
 61134  1  0  0  0
 61135  1  0  0  0
 62136  1  0  0  0
 62137  1  0  0  0
 62138  1  0  0  0
 63 65  1  0  0  0
 63139  1  0  0  0
 63140  1  0  0  0
 63141  1  0  0  0
 64142  1  0  0  0
 65143  1  0  0  0
 68 78  1  0  0  0
 71 73  1  0  0  0
 71 74  2  0  0  0
 71144  1  0  0  0
 72 73  2  0  0  0
 72 84  1  0  0  0
 72145  1  0  0  0
 73 81  1  0  0  0
 74 80  1  0  0  0
 74 84  1  0  0  0
 75 76  1  0  0  0
 75 77  1  0  0  0
 75 78  2  0  0  0
 76 79  1  0  0  0
 76 82  2  0  0  0
 77 80  1  0  0  0
 77 83  2  0  0  0
 78146  1  0  0  0
 79 80  1  0  0  0
 79147  1  0  0  0
 79148  1  0  0  0
 81149  1  0  0  0
M  ISO  4   1 100  68 101  78 101  81 100
M  END
> <chiral flag>
0

> <version>
0

> <s_m_source_file>
/data/baiqing/PycharmProjects/Reinvent-master-3.2/result/LINK_invent/BTK/process_docking_weight1_custom_product_contain_oxygen_bond_distance_aromatic_linkinvent_7_9_3/rearranged_h_0087.sdf

> <i_m_source_file_index>
14

> <r_mmod_Potential_Energy-OPLS-2005>
347.470489501953

> <r_mmod_Stretch_Energy-OPLS-2005>
176.192199707031

> <r_mmod_Bend_Energy-OPLS-2005>
256.977905273438

> <r_mmod_Torsional_Energy-OPLS-2005>
235.88508605957

> <r_mmod_Improper_Torsional_Energy-OPLS-2005>
4.8258204460144

> <r_mmod_Van_der_Waal_Energy-OPLS-2005>
122.644371032715

> <r_mmod_Electrostatic_Energy-OPLS-2005>
-350.732299804688

> <r_mmod_Solvation_Energy-OPLS-2005>
-234.944778442383

> <b_mmod_Minimization_Converged-OPLS-2005>
0

> <r_mmod_RMS_Derivative-OPLS-2005>
0.1605104804039

$$$$
14
                    3D
 Structure written by MMmdl.
155164  0  0  1  0            999 V2000
  -30.6760  -14.6742   20.4719 C   0  0  0  0  0  0
  -30.4200  -12.4121   19.4672 C   0  0  0  0  0  0
  -29.5028  -12.4972   18.2301 C   0  0  0  0  0  0
  -28.0291  -12.3347   18.6460 C   0  0  0  0  0  0
  -27.6444  -13.2324   19.8529 C   0  0  2  0  0  0
  -28.6917  -13.1612   20.9873 C   0  0  0  0  0  0
  -25.2522  -13.8203   20.5698 C   0  0  0  0  0  0
  -24.1813  -13.0446   20.9207 C   0  0  0  0  0  0
  -24.6406  -11.6925   20.8756 C   0  0  0  0  0  0
  -23.9079  -10.4295   21.0406 C   0  0  0  0  0  0
  -24.3625   -9.4206   21.9184 C   0  0  0  0  0  0
  -23.6296   -8.2243   22.0753 C   0  0  0  0  0  0
  -22.4279   -8.0282   21.3539 C   0  0  0  0  0  0
  -21.9916   -9.0261   20.4644 C   0  0  0  0  0  0
  -22.7250  -10.2139   20.3055 C   0  0  0  0  0  0
  -21.6859   -6.0735   22.5275 C   0  0  0  0  0  0
  -21.4018   -6.5639   23.8208 C   0  0  0  0  0  0
  -21.3661   -5.6794   24.9170 C   0  0  0  0  0  0
  -21.6043   -4.3057   24.7223 C   0  0  0  0  0  0
  -21.8821   -3.8147   23.4345 C   0  0  0  0  0  0
  -21.9192   -4.6963   22.3400 C   0  0  0  0  0  0
  -22.7830  -13.5222   21.1863 C   0  0  0  0  0  0
  -22.1661   -4.2147   21.0980 F   0  0  0  0  0  0
  -21.5628   -3.4539   25.7735 F   0  0  0  0  0  0
  -29.9996  -13.4806   20.4013 N   0  0  0  0  0  0
  -26.2959  -12.9418   20.3306 N   0  0  0  0  0  0
  -25.9339  -11.6556   20.5770 N   0  0  0  0  0  0
  -22.0479  -12.8211   22.0418 N   0  0  0  0  0  0
  -25.4190  -15.1927   20.4094 N   0  0  0  0  0  0
  -31.8581  -14.7157   20.1244 O   0  0  0  0  0  0
  -21.6644   -6.8879   21.4238 O   0  0  0  0  0  0
  -22.3507  -14.5522   20.6704 O   0  0  0  0  0  0
  -24.6272  -31.8590   23.2025 C   0  0  0  0  0  0
  -25.9115  -32.4776   23.8358 C   0  0  1  0  0  0
  -27.2196  -27.3104   20.1174 C   0  0  0  0  0  0
  -25.5930  -33.8581   24.2283 N   0  0  0  0  0  0
  -23.4229  -30.4822   21.5448 C   0  0  2  0  0  0
  -24.8730  -28.9426   20.1048 C   0  0  0  0  0  0
  -22.7489  -29.4610   22.4924 C   0  0  0  0  0  0
  -18.0287  -28.1376   22.8482 C   0  0  0  0  0  0
  -24.1488  -36.7295   23.2635 C   0  0  0  0  0  0
  -25.9666  -30.7857   21.3794 C   0  0  0  0  0  0
  -26.0428  -29.4144   20.7167 C   0  0  0  0  0  0
  -27.2232  -28.6083   20.7183 C   0  0  0  0  0  0
  -26.0349  -26.9029   19.4667 C   0  0  0  0  0  0
  -24.8710  -27.6925   19.4691 C   0  0  0  0  0  0
  -23.6396  -29.8210   20.1586 C   0  0  0  0  0  0
  -25.4113  -36.3087   24.0330 C   0  0  1  0  0  0
  -20.5887  -28.3692   23.1268 C   0  0  2  0  0  0
  -20.6777  -26.9414   22.5405 C   0  0  0  0  0  0
  -19.5757  -26.6380   21.5205 C   0  0  0  0  0  0
  -18.1934  -26.7918   22.1620 C   0  0  0  0  0  0
  -19.1538  -28.8853   23.2866 C   0  0  0  0  0  0
  -18.9463  -30.1448   23.8891 C   0  0  0  0  0  0
  -17.6464  -30.6584   24.0554 C   0  0  0  0  0  0
  -25.9058  -34.9454   23.5112 C   0  0  0  0  0  0
  -16.5354  -29.9081   23.6326 C   0  0  0  0  0  0
  -16.7272  -28.6493   23.0356 C   0  0  0  0  0  0
  -26.4496  -31.6584   25.0729 C   0  0  0  0  0  0
  -25.3724  -31.3724   26.1449 C   0  0  0  0  0  0
  -27.0345  -30.3002   24.6205 C   0  0  0  0  0  0
  -27.6048  -32.4324   25.7503 C   0  0  0  0  0  0
  -27.5584  -37.1793   24.8460 C   0  0  0  0  0  0
  -21.4200  -29.3037   22.3663 N   0  0  0  0  0  0
  -26.4288  -37.3783   23.9416 N   0  0  0  0  0  0
  -24.6905  -31.0594   22.0987 N   0  0  0  0  0  0
  -23.4205  -28.8150   23.3011 O   0  0  0  0  0  0
  -28.2686  -26.3779   20.1867 O   0  0  0  0  0  0
  -26.5629  -34.8925   22.4678 O   0  0  0  0  0  0
  -23.5431  -32.1392   23.7342 O   0  0  0  0  0  0
  -32.3214  -18.8090   21.0783 C   0  0  0  0  0  0
  -31.5083  -19.9182   20.7969 C   0  0  0  0  0  0
  -31.8010  -17.5038   21.0556 C   0  0  0  0  0  0
  -29.6155  -18.4164   20.4973 C   0  0  0  0  0  0
  -30.1345  -19.7751   20.5042 C   0  0  0  0  0  0
  -30.4457  -17.2446   20.7364 C   0  0  0  0  0  0
  -29.5128  -23.4230   19.6887 C   0  0  0  0  0  0
  -29.9288  -22.1251   19.6038 C   0  0  0  0  0  0
  -28.3806  -23.8289   20.5146 C   0  0  0  0  0  0
  -27.9000  -25.1116   20.7007 C   0  0  0  0  0  0
  -27.6194  -22.6491   21.1481 C   0  0  0  0  0  0
  -28.3992  -21.2906   21.3146 C   0  0  0  0  0  0
  -29.3937  -20.9962   20.2701 N   0  0  0  0  0  0
  -29.9661  -15.8408   20.7049 N   0  0  0  0  0  0
  -31.4647  -12.5009   19.1650 H   0  0  0  0  0  0
  -30.3339  -11.4352   19.9452 H   0  0  0  0  0  0
  -29.7736  -11.7288   17.5048 H   0  0  0  0  0  0
  -29.6427  -13.4562   17.7286 H   0  0  0  0  0  0
  -27.8778  -11.2858   18.9030 H   0  0  0  0  0  0
  -27.3721  -12.5359   17.7992 H   0  0  0  0  0  0
  -27.6418  -14.2554   19.4764 H   0  0  0  0  0  0
  -28.7107  -12.1683   21.4385 H   0  0  0  0  0  0
  -28.4413  -13.8575   21.7893 H   0  0  0  0  0  0
  -25.2770   -9.5683   22.4756 H   0  0  0  0  0  0
  -24.0004   -7.4634   22.7473 H   0  0  0  0  0  0
  -21.0845   -8.8783   19.8948 H   0  0  0  0  0  0
  -22.3708  -10.9680   19.6162 H   0  0  0  0  0  0
  -21.2016   -7.6146   23.9710 H   0  0  0  0  0  0
  -21.1482   -6.0525   25.9074 H   0  0  0  0  0  0
  -22.0600   -2.7609   23.2847 H   0  0  0  0  0  0
  -22.4112  -11.9888   22.4822 H   0  0  0  0  0  0
  -21.1088  -13.1218   22.2612 H   0  0  0  0  0  0
  -24.6463  -15.8417   20.5112 H   0  0  0  0  0  0
  -26.2601  -15.6330   20.0603 H   0  0  0  0  0  0
  -26.7182  -32.5442   23.1102 H   0  0  0  0  0  0
  -25.0065  -33.9733   25.0421 H   0  0  0  0  0  0
  -22.7165  -31.3025   21.4008 H   0  0  0  0  0  0
  -23.3760  -35.9620   23.3305 H   0  0  0  0  0  0
  -24.3575  -36.8908   22.2048 H   0  0  0  0  0  0
  -23.7232  -37.6497   23.6649 H   0  0  0  0  0  0
  -26.1032  -31.5510   20.6146 H   0  0  0  0  0  0
  -26.8458  -30.8309   22.0110 H   0  0  0  0  0  0
  -28.1155  -28.9546   21.2212 H   0  0  0  0  0  0
  -25.9964  -25.9357   18.9856 H   0  0  0  0  0  0
  -23.9770  -27.3256   18.9837 H   0  0  0  0  0  0
  -23.7562  -30.5993   19.4036 H   0  0  0  0  0  0
  -22.7607  -29.2497   19.8546 H   0  0  0  0  0  0
  -25.1287  -36.1942   25.0821 H   0  0  0  0  0  0
  -20.9968  -28.3267   24.1391 H   0  0  0  0  0  0
  -20.5679  -26.2307   23.3613 H   0  0  0  0  0  0
  -21.6643  -26.7436   22.1198 H   0  0  0  0  0  0
  -19.6935  -25.6292   21.1234 H   0  0  0  0  0  0
  -19.6693  -27.3188   20.6732 H   0  0  0  0  0  0
  -17.4202  -26.6650   21.4024 H   0  0  0  0  0  0
  -18.0346  -26.0060   22.9017 H   0  0  0  0  0  0
  -19.7939  -30.7251   24.2272 H   0  0  0  0  0  0
  -17.5022  -31.6266   24.5150 H   0  0  0  0  0  0
  -15.5354  -30.2985   23.7660 H   0  0  0  0  0  0
  -15.8666  -28.0805   22.7094 H   0  0  0  0  0  0
  -24.5903  -30.7072   25.7769 H   0  0  0  0  0  0
  -24.8912  -32.2893   26.4863 H   0  0  0  0  0  0
  -25.8044  -30.8900   27.0227 H   0  0  0  0  0  0
  -26.2930  -29.6754   24.1213 H   0  0  0  0  0  0
  -27.4010  -29.7255   25.4722 H   0  0  0  0  0  0
  -27.8815  -30.4284   23.9461 H   0  0  0  0  0  0
  -27.2640  -33.3604   26.2111 H   0  0  0  0  0  0
  -28.3842  -32.6926   25.0328 H   0  0  0  0  0  0
  -28.0746  -31.8440   26.5397 H   0  0  0  0  0  0
  -28.2577  -38.0113   24.7541 H   0  0  0  0  0  0
  -28.1103  -36.2648   24.6239 H   0  0  0  0  0  0
  -27.2311  -37.1381   25.8862 H   0  0  0  0  0  0
  -20.9400  -29.8754   21.6853 H   0  0  0  0  0  0
  -26.0179  -38.2855   24.1440 H   0  0  0  0  0  0
  -33.3633  -18.9642   21.3221 H   0  0  0  0  0  0
  -31.9569  -20.9005   20.8393 H   0  0  0  0  0  0
  -32.4835  -16.7042   21.3013 H   0  0  0  0  0  0
  -28.5691  -18.2734   20.2708 H   0  0  0  0  0  0
  -30.0368  -24.1776   19.1167 H   0  0  0  0  0  0
  -30.7661  -21.8804   18.9624 H   0  0  0  0  0  0
  -27.0323  -25.2235   21.3395 H   0  0  0  0  0  0
  -26.7526  -22.4688   20.5110 H   0  0  0  0  0  0
  -27.2181  -22.9484   22.1177 H   0  0  0  0  0  0
  -27.6857  -20.4677   21.3839 H   0  0  0  0  0  0
  -28.9277  -21.3100   22.2684 H   0  0  0  0  0  0
  -28.9733  -15.7112   20.8241 H   0  0  0  0  0  0
  1 25  1  0  0  0
  1 30  2  0  0  0
  1 84  1  0  0  0
  2  3  1  0  0  0
  2 25  1  0  0  0
  2 85  1  0  0  0
  2 86  1  0  0  0
  3  4  1  0  0  0
  3 87  1  0  0  0
  3 88  1  0  0  0
  4  5  1  0  0  0
  4 89  1  0  0  0
  4 90  1  0  0  0
  5  6  1  0  0  0
  5 26  1  0  0  0
  5 91  1  0  0  0
  6 25  1  0  0  0
  6 92  1  0  0  0
  6 93  1  0  0  0
  7  8  2  0  0  0
  7 26  1  0  0  0
  7 29  1  0  0  0
  8  9  1  0  0  0
  8 22  1  0  0  0
  9 10  1  0  0  0
  9 27  2  0  0  0
 10 11  2  0  0  0
 10 15  1  0  0  0
 11 12  1  0  0  0
 11 94  1  0  0  0
 12 13  2  0  0  0
 12 95  1  0  0  0
 13 14  1  0  0  0
 13 31  1  0  0  0
 14 15  2  0  0  0
 14 96  1  0  0  0
 15 97  1  0  0  0
 16 17  2  0  0  0
 16 21  1  0  0  0
 16 31  1  0  0  0
 17 18  1  0  0  0
 17 98  1  0  0  0
 18 19  2  0  0  0
 18 99  1  0  0  0
 19 20  1  0  0  0
 19 24  1  0  0  0
 20 21  2  0  0  0
 20100  1  0  0  0
 21 23  1  0  0  0
 22 28  1  0  0  0
 22 32  2  0  0  0
 26 27  1  0  0  0
 28101  1  0  0  0
 28102  1  0  0  0
 29103  1  0  0  0
 29104  1  0  0  0
 33 34  1  0  0  0
 33 66  1  0  0  0
 33 70  2  0  0  0
 34 36  1  0  0  0
 34 59  1  0  0  0
 34105  1  0  0  0
 35 44  2  0  0  0
 35 45  1  0  0  0
 35 68  1  0  0  0
 36 56  1  0  0  0
 36106  1  0  0  0
 37 39  1  0  0  0
 37 47  1  0  0  0
 37 66  1  0  0  0
 37107  1  0  0  0
 38 43  2  0  0  0
 38 46  1  0  0  0
 38 47  1  0  0  0
 39 64  1  0  0  0
 39 67  2  0  0  0
 40 52  1  0  0  0
 40 53  2  0  0  0
 40 58  1  0  0  0
 41108  1  0  0  0
 41109  1  0  0  0
 41110  1  0  0  0
 41 48  1  0  0  0
 42 43  1  0  0  0
 42 66  1  0  0  0
 42111  1  0  0  0
 42112  1  0  0  0
 43 44  1  0  0  0
 44113  1  0  0  0
 45 46  2  0  0  0
 45114  1  0  0  0
 46115  1  0  0  0
 47116  1  0  0  0
 47117  1  0  0  0
 48 56  1  0  0  0
 48 65  1  0  0  0
 48118  1  0  0  0
 49 50  1  0  0  0
 49 53  1  0  0  0
 49 64  1  0  0  0
 49119  1  0  0  0
 50 51  1  0  0  0
 50120  1  0  0  0
 50121  1  0  0  0
 51 52  1  0  0  0
 51122  1  0  0  0
 51123  1  0  0  0
 52124  1  0  0  0
 52125  1  0  0  0
 53 54  1  0  0  0
 54 55  2  0  0  0
 54126  1  0  0  0
 55 57  1  0  0  0
 55127  1  0  0  0
 56 69  2  0  0  0
 57 58  2  0  0  0
 57128  1  0  0  0
 58129  1  0  0  0
 59 60  1  0  0  0
 59 61  1  0  0  0
 59 62  1  0  0  0
 60130  1  0  0  0
 60131  1  0  0  0
 60132  1  0  0  0
 61133  1  0  0  0
 61134  1  0  0  0
 61135  1  0  0  0
 62136  1  0  0  0
 62137  1  0  0  0
 62138  1  0  0  0
 63 65  1  0  0  0
 63139  1  0  0  0
 63140  1  0  0  0
 63141  1  0  0  0
 64142  1  0  0  0
 65143  1  0  0  0
 68 80  1  0  0  0
 71 72  2  0  0  0
 71 73  1  0  0  0
 71144  1  0  0  0
 72 75  1  0  0  0
 72145  1  0  0  0
 73 76  2  0  0  0
 73146  1  0  0  0
 74 75  2  0  0  0
 74 76  1  0  0  0
 74147  1  0  0  0
 75 83  1  0  0  0
 76 84  1  0  0  0
 77 78  2  0  0  0
 77 79  1  0  0  0
 77148  1  0  0  0
 78 83  1  0  0  0
 78149  1  0  0  0
 79 80  2  0  0  0
 79 81  1  0  0  0
 80150  1  0  0  0
 81 82  1  0  0  0
 81151  1  0  0  0
 81152  1  0  0  0
 82 83  1  0  0  0
 82153  1  0  0  0
 82154  1  0  0  0
 84155  1  0  0  0
M  ISO  4   1 100  68 101  80 101  84 100
M  END
> <chiral flag>
0

> <version>
0

> <s_m_source_file>
/data/baiqing/PycharmProjects/Reinvent-master-3.2/result/LINK_invent/BTK/process_docking_weight1_custom_product_contain_oxygen_bond_distance_aromatic_linkinvent_7_9_3/rearranged_h_0087.sdf

> <i_m_source_file_index>
15

> <r_mmod_Potential_Energy-OPLS-2005>
165.862670898438

> <r_mmod_Stretch_Energy-OPLS-2005>
90.7835159301758

> <r_mmod_Bend_Energy-OPLS-2005>
151.8798828125

> <r_mmod_Torsional_Energy-OPLS-2005>
248.234832763672

> <r_mmod_Improper_Torsional_Energy-OPLS-2005>
7.73937845230103

> <r_mmod_Van_der_Waal_Energy-OPLS-2005>
161.398696899414

> <r_mmod_Electrostatic_Energy-OPLS-2005>
-354.296081542969

> <r_mmod_Solvation_Energy-OPLS-2005>
-206.260391235352

> <b_mmod_Minimization_Converged-OPLS-2005>
0

> <r_mmod_RMS_Derivative-OPLS-2005>
1.17741179466248

$$$$
15
                    3D
 Structure written by MMmdl.
165174  0  0  1  0            999 V2000
  -30.7102  -14.5044   20.5490 C   0  0  0  0  0  0
  -30.4149  -12.3120   19.4480 C   0  0  0  0  0  0
  -29.5023  -12.4940   18.2179 C   0  0  0  0  0  0
  -28.0210  -12.3576   18.6215 C   0  0  0  0  0  0
  -27.6566  -13.2151   19.8639 C   0  0  2  0  0  0
  -28.6955  -13.0426   20.9935 C   0  0  0  0  0  0
  -25.2572  -13.8177   20.5657 C   0  0  0  0  0  0
  -24.1828  -13.0444   20.9147 C   0  0  0  0  0  0
  -24.6391  -11.6913   20.8715 C   0  0  0  0  0  0
  -23.9054  -10.4294   21.0390 C   0  0  0  0  0  0
  -24.3612   -9.4212   21.9171 C   0  0  0  0  0  0
  -23.6292   -8.2249   22.0749 C   0  0  0  0  0  0
  -22.4271   -8.0279   21.3537 C   0  0  0  0  0  0
  -21.9907   -9.0244   20.4632 C   0  0  0  0  0  0
  -22.7232  -10.2127   20.3039 C   0  0  0  0  0  0
  -21.6853   -6.0734   22.5274 C   0  0  0  0  0  0
  -21.4013   -6.5634   23.8206 C   0  0  0  0  0  0
  -21.3658   -5.6790   24.9166 C   0  0  0  0  0  0
  -21.6047   -4.3051   24.7216 C   0  0  0  0  0  0
  -21.8819   -3.8145   23.4338 C   0  0  0  0  0  0
  -21.9188   -4.6966   22.3398 C   0  0  0  0  0  0
  -22.7848  -13.5241   21.1819 C   0  0  0  0  0  0
  -22.1655   -4.2151   21.0976 F   0  0  0  0  0  0
  -21.5637   -3.4537   25.7735 F   0  0  0  0  0  0
  -30.0258  -13.3299   20.4396 N   0  0  0  0  0  0
  -26.2998  -12.9355   20.3302 N   0  0  0  0  0  0
  -25.9316  -11.6510   20.5741 N   0  0  0  0  0  0
  -22.0504  -12.8224   22.0378 N   0  0  0  0  0  0
  -25.4327  -15.1890   20.4101 N   0  0  0  0  0  0
  -31.8578  -14.5980   20.1039 O   0  0  0  0  0  0
  -21.6638   -6.8874   21.4236 O   0  0  0  0  0  0
  -22.3526  -14.5551   20.6678 O   0  0  0  0  0  0
  -24.6166  -31.8662   23.2103 C   0  0  0  0  0  0
  -25.9055  -32.4808   23.8409 C   0  0  1  0  0  0
  -27.2285  -27.4216   20.1077 C   0  0  0  0  0  0
  -25.5908  -33.8606   24.2333 N   0  0  0  0  0  0
  -23.4061  -30.4879   21.5503 C   0  0  2  0  0  0
  -24.8545  -28.9525   20.1148 C   0  0  0  0  0  0
  -22.7429  -29.4635   22.4993 C   0  0  0  0  0  0
  -18.0276  -28.1380   22.8491 C   0  0  0  0  0  0
  -24.1486  -36.7300   23.2638 C   0  0  0  0  0  0
  -25.9355  -30.8282   21.3662 C   0  0  0  0  0  0
  -26.0133  -29.4601   20.7177 C   0  0  0  0  0  0
  -27.2065  -28.6990   20.7156 C   0  0  0  0  0  0
  -26.0632  -26.9362   19.4852 C   0  0  0  0  0  0
  -24.8735  -27.6896   19.4964 C   0  0  0  0  0  0
  -23.6156  -29.8196   20.1651 C   0  0  0  0  0  0
  -25.4112  -36.3099   24.0339 C   0  0  1  0  0  0
  -20.5867  -28.3659   23.1314 C   0  0  2  0  0  0
  -20.6771  -26.9393   22.5419 C   0  0  0  0  0  0
  -19.5742  -26.6379   21.5216 C   0  0  0  0  0  0
  -18.1918  -26.7928   22.1619 C   0  0  0  0  0  0
  -19.1527  -28.8840   23.2895 C   0  0  0  0  0  0
  -18.9454  -30.1452   23.8902 C   0  0  0  0  0  0
  -17.6455  -30.6589   24.0568 C   0  0  0  0  0  0
  -25.9036  -34.9462   23.5130 C   0  0  0  0  0  0
  -16.5346  -29.9092   23.6340 C   0  0  0  0  0  0
  -16.7267  -28.6510   23.0360 C   0  0  0  0  0  0
  -26.4490  -31.6592   25.0735 C   0  0  0  0  0  0
  -25.3763  -31.3685   26.1485 C   0  0  0  0  0  0
  -27.0337  -30.3042   24.6111 C   0  0  0  0  0  0
  -27.6077  -32.4314   25.7492 C   0  0  0  0  0  0
  -27.5580  -37.1807   24.8471 C   0  0  0  0  0  0
  -21.4152  -29.3021   22.3725 N   0  0  0  0  0  0
  -26.4302  -37.3781   23.9405 N   0  0  0  0  0  0
  -24.6711  -31.0755   22.1007 N   0  0  0  0  0  0
  -23.4194  -28.8181   23.3044 O   0  0  0  0  0  0
  -28.3586  -26.6362   20.0908 O   0  0  0  0  0  0
  -26.5584  -34.8906   22.4681 O   0  0  0  0  0  0
  -23.5350  -32.1430   23.7482 O   0  0  0  0  0  0
  -29.1136  -18.4568   21.7528 C   0  0  0  0  0  0
  -28.7037  -19.7869   22.0145 C   0  0  0  0  0  0
  -29.2092  -20.3924   19.7300 C   0  0  0  0  0  0
  -29.5817  -18.0612   20.4773 C   0  0  0  0  0  0
  -28.7313  -20.7778   21.0032 C   0  0  0  0  0  0
  -29.6282  -19.0665   19.4602 C   0  0  0  0  0  0
  -28.1088  -24.4151   21.2493 C   0  0  0  0  0  0
  -26.9068  -23.9514   21.6095 C   0  0  0  0  0  0
  -28.9756  -23.2661   21.0029 C   0  0  0  0  0  0
  -30.0534  -16.6497   20.2330 C   0  0  0  0  0  0
  -26.8618  -22.4384   21.6029 C   0  0  0  0  0  0
  -25.7026  -24.7645   22.0639 C   0  0  0  0  0  0
  -26.4810  -21.8960   22.9970 C   0  0  0  0  0  0
  -25.8876  -21.9153   20.5294 C   0  0  0  0  0  0
  -28.5976  -25.8754   21.2904 C   0  0  0  0  0  0
  -29.9831  -15.6140   21.0039 N   0  0  0  0  0  0
  -28.2577  -22.1271   21.2292 N   0  0  0  0  0  0
  -30.0773  -18.8098   18.1593 N   0  0  0  0  0  0
  -30.1652  -23.3019   20.6696 O   0  0  0  0  0  0
  -31.4641  -12.3767   19.1546 H   0  0  0  0  0  0
  -30.2904  -11.3128   19.8711 H   0  0  0  0  0  0
  -29.7509  -11.7563   17.4542 H   0  0  0  0  0  0
  -29.6758  -13.4735   17.7691 H   0  0  0  0  0  0
  -27.8339  -11.3035   18.8309 H   0  0  0  0  0  0
  -27.3769  -12.6193   17.7812 H   0  0  0  0  0  0
  -27.6887  -14.2566   19.5437 H   0  0  0  0  0  0
  -28.6720  -12.0234   21.3843 H   0  0  0  0  0  0
  -28.4586  -13.6916   21.8382 H   0  0  0  0  0  0
  -25.2763   -9.5691   22.4731 H   0  0  0  0  0  0
  -24.0007   -7.4649   22.7476 H   0  0  0  0  0  0
  -21.0838   -8.8746   19.8938 H   0  0  0  0  0  0
  -22.3690  -10.9650   19.6136 H   0  0  0  0  0  0
  -21.2004   -7.6143   23.9712 H   0  0  0  0  0  0
  -21.1482   -6.0518   25.9070 H   0  0  0  0  0  0
  -22.0602   -2.7610   23.2839 H   0  0  0  0  0  0
  -22.4146  -11.9887   22.4743 H   0  0  0  0  0  0
  -21.1118  -13.1225   22.2599 H   0  0  0  0  0  0
  -24.6810  -15.8568   20.5368 H   0  0  0  0  0  0
  -26.3094  -15.6203   20.1443 H   0  0  0  0  0  0
  -26.7125  -32.5525   23.1176 H   0  0  0  0  0  0
  -25.0103  -33.9784   25.0509 H   0  0  0  0  0  0
  -22.6951  -31.3045   21.4105 H   0  0  0  0  0  0
  -23.3754  -35.9631   23.3306 H   0  0  0  0  0  0
  -24.3575  -36.8918   22.2055 H   0  0  0  0  0  0
  -23.7238  -37.6499   23.6664 H   0  0  0  0  0  0
  -26.0481  -31.5932   20.5963 H   0  0  0  0  0  0
  -26.8230  -30.8836   21.9853 H   0  0  0  0  0  0
  -28.1030  -29.0838   21.1803 H   0  0  0  0  0  0
  -26.0722  -25.9614   19.0178 H   0  0  0  0  0  0
  -23.9823  -27.2934   19.0288 H   0  0  0  0  0  0
  -23.7207  -30.5947   19.4052 H   0  0  0  0  0  0
  -22.7408  -29.2375   19.8701 H   0  0  0  0  0  0
  -25.1294  -36.1969   25.0832 H   0  0  0  0  0  0
  -20.9952  -28.3228   24.1435 H   0  0  0  0  0  0
  -20.5675  -26.2269   23.3607 H   0  0  0  0  0  0
  -21.6639  -26.7437   22.1210 H   0  0  0  0  0  0
  -19.6902  -25.6292   21.1243 H   0  0  0  0  0  0
  -19.6687  -27.3193   20.6752 H   0  0  0  0  0  0
  -17.4191  -26.6696   21.4013 H   0  0  0  0  0  0
  -18.0294  -26.0071   22.9005 H   0  0  0  0  0  0
  -19.7926  -30.7277   24.2267 H   0  0  0  0  0  0
  -17.5005  -31.6268   24.5162 H   0  0  0  0  0  0
  -15.5350  -30.2993   23.7668 H   0  0  0  0  0  0
  -15.8661  -28.0840   22.7076 H   0  0  0  0  0  0
  -24.5937  -30.7029   25.7816 H   0  0  0  0  0  0
  -24.8949  -32.2828   26.4964 H   0  0  0  0  0  0
  -25.8117  -30.8830   27.0229 H   0  0  0  0  0  0
  -26.2881  -29.6769   24.1203 H   0  0  0  0  0  0
  -27.4159  -29.7304   25.4566 H   0  0  0  0  0  0
  -27.8690  -30.4372   23.9233 H   0  0  0  0  0  0
  -27.2725  -33.3628   26.2070 H   0  0  0  0  0  0
  -28.3887  -32.6845   25.0310 H   0  0  0  0  0  0
  -28.0741  -31.8430   26.5406 H   0  0  0  0  0  0
  -28.2614  -38.0087   24.7508 H   0  0  0  0  0  0
  -28.1063  -36.2618   24.6328 H   0  0  0  0  0  0
  -27.2281  -37.1490   25.8870 H   0  0  0  0  0  0
  -20.9331  -29.8730   21.6924 H   0  0  0  0  0  0
  -26.0188  -38.2865   24.1402 H   0  0  0  0  0  0
  -29.0817  -17.7328   22.5552 H   0  0  0  0  0  0
  -28.3831  -20.0310   23.0160 H   0  0  0  0  0  0
  -29.2420  -21.1311   18.9407 H   0  0  0  0  0  0
  -30.5341  -16.5473   19.2544 H   0  0  0  0  0  0
  -25.8927  -25.8353   22.0352 H   0  0  0  0  0  0
  -25.4275  -24.5223   23.0893 H   0  0  0  0  0  0
  -24.8447  -24.5642   21.4223 H   0  0  0  0  0  0
  -25.5220  -22.2883   23.3339 H   0  0  0  0  0  0
  -27.2269  -22.1585   23.7486 H   0  0  0  0  0  0
  -26.3627  -20.8133   22.9911 H   0  0  0  0  0  0
  -24.8617  -22.2215   20.7361 H   0  0  0  0  0  0
  -25.8979  -20.8256   20.4873 H   0  0  0  0  0  0
  -26.1492  -22.2846   19.5370 H   0  0  0  0  0  0
  -29.6708  -25.8808   21.4788 H   0  0  0  0  0  0
  -28.1575  -26.3706   22.1582 H   0  0  0  0  0  0
  -30.2716  -19.5883   17.5375 H   0  0  0  0  0  0
  -30.6351  -17.9878   17.9540 H   0  0  0  0  0  0
  1 25  1  0  0  0
  1 30  2  0  0  0
  1 86  1  0  0  0
  2  3  1  0  0  0
  2 25  1  0  0  0
  2 90  1  0  0  0
  2 91  1  0  0  0
  3  4  1  0  0  0
  3 92  1  0  0  0
  3 93  1  0  0  0
  4  5  1  0  0  0
  4 94  1  0  0  0
  4 95  1  0  0  0
  5  6  1  0  0  0
  5 26  1  0  0  0
  5 96  1  0  0  0
  6 25  1  0  0  0
  6 97  1  0  0  0
  6 98  1  0  0  0
  7  8  2  0  0  0
  7 26  1  0  0  0
  7 29  1  0  0  0
  8  9  1  0  0  0
  8 22  1  0  0  0
  9 10  1  0  0  0
  9 27  2  0  0  0
 10 11  2  0  0  0
 10 15  1  0  0  0
 11 12  1  0  0  0
 11 99  1  0  0  0
 12 13  2  0  0  0
 12100  1  0  0  0
 13 14  1  0  0  0
 13 31  1  0  0  0
 14 15  2  0  0  0
 14101  1  0  0  0
 15102  1  0  0  0
 16 17  2  0  0  0
 16 21  1  0  0  0
 16 31  1  0  0  0
 17 18  1  0  0  0
 17103  1  0  0  0
 18 19  2  0  0  0
 18104  1  0  0  0
 19 20  1  0  0  0
 19 24  1  0  0  0
 20 21  2  0  0  0
 20105  1  0  0  0
 21 23  1  0  0  0
 22 28  1  0  0  0
 22 32  2  0  0  0
 26 27  1  0  0  0
 28106  1  0  0  0
 28107  1  0  0  0
 29108  1  0  0  0
 29109  1  0  0  0
 33 34  1  0  0  0
 33 66  1  0  0  0
 33 70  2  0  0  0
 34 36  1  0  0  0
 34 59  1  0  0  0
 34110  1  0  0  0
 35 44  2  0  0  0
 35 45  1  0  0  0
 35 68  1  0  0  0
 36 56  1  0  0  0
 36111  1  0  0  0
 37 39  1  0  0  0
 37 47  1  0  0  0
 37 66  1  0  0  0
 37112  1  0  0  0
 38 43  2  0  0  0
 38 46  1  0  0  0
 38 47  1  0  0  0
 39 64  1  0  0  0
 39 67  2  0  0  0
 40 52  1  0  0  0
 40 53  2  0  0  0
 40 58  1  0  0  0
 41113  1  0  0  0
 41114  1  0  0  0
 41115  1  0  0  0
 41 48  1  0  0  0
 42 43  1  0  0  0
 42 66  1  0  0  0
 42116  1  0  0  0
 42117  1  0  0  0
 43 44  1  0  0  0
 44118  1  0  0  0
 45 46  2  0  0  0
 45119  1  0  0  0
 46120  1  0  0  0
 47121  1  0  0  0
 47122  1  0  0  0
 48 56  1  0  0  0
 48 65  1  0  0  0
 48123  1  0  0  0
 49 50  1  0  0  0
 49 53  1  0  0  0
 49 64  1  0  0  0
 49124  1  0  0  0
 50 51  1  0  0  0
 50125  1  0  0  0
 50126  1  0  0  0
 51 52  1  0  0  0
 51127  1  0  0  0
 51128  1  0  0  0
 52129  1  0  0  0
 52130  1  0  0  0
 53 54  1  0  0  0
 54 55  2  0  0  0
 54131  1  0  0  0
 55 57  1  0  0  0
 55132  1  0  0  0
 56 69  2  0  0  0
 57 58  2  0  0  0
 57133  1  0  0  0
 58134  1  0  0  0
 59 60  1  0  0  0
 59 61  1  0  0  0
 59 62  1  0  0  0
 60135  1  0  0  0
 60136  1  0  0  0
 60137  1  0  0  0
 61138  1  0  0  0
 61139  1  0  0  0
 61140  1  0  0  0
 62141  1  0  0  0
 62142  1  0  0  0
 62143  1  0  0  0
 63 65  1  0  0  0
 63144  1  0  0  0
 63145  1  0  0  0
 63146  1  0  0  0
 64147  1  0  0  0
 65148  1  0  0  0
 68 85  1  0  0  0
 71 72  2  0  0  0
 71 74  1  0  0  0
 71149  1  0  0  0
 72 75  1  0  0  0
 72150  1  0  0  0
 73 75  2  0  0  0
 73 76  1  0  0  0
 73151  1  0  0  0
 74 76  2  0  0  0
 74 80  1  0  0  0
 75 87  1  0  0  0
 76 88  1  0  0  0
 77 78  2  0  0  0
 77 79  1  0  0  0
 77 85  1  0  0  0
 78 81  1  0  0  0
 78 82  1  0  0  0
 79 87  1  0  0  0
 79 89  2  0  0  0
 80 86  2  0  0  0
 80152  1  0  0  0
 81 83  1  0  0  0
 81 84  1  0  0  0
 81 87  1  0  0  0
 82153  1  0  0  0
 82154  1  0  0  0
 82155  1  0  0  0
 83156  1  0  0  0
 83157  1  0  0  0
 83158  1  0  0  0
 84159  1  0  0  0
 84160  1  0  0  0
 84161  1  0  0  0
 85162  1  0  0  0
 85163  1  0  0  0
 88164  1  0  0  0
 88165  1  0  0  0
M  ISO  4   1 100  68 101  85 101  86 100
M  END
> <chiral flag>
0

> <version>
0

> <s_m_source_file>
/data/baiqing/PycharmProjects/Reinvent-master-3.2/result/LINK_invent/BTK/process_docking_weight1_custom_product_contain_oxygen_bond_distance_aromatic_linkinvent_7_9_3/rearranged_h_0087.sdf

> <i_m_source_file_index>
16

> <r_mmod_Potential_Energy-OPLS-2005>
183.361114501953

> <r_mmod_Stretch_Energy-OPLS-2005>
50.4245796203613

> <r_mmod_Bend_Energy-OPLS-2005>
148.745269775391

> <r_mmod_Torsional_Energy-OPLS-2005>
254.03108215332

> <r_mmod_Improper_Torsional_Energy-OPLS-2005>
6.6519718170166

> <r_mmod_Van_der_Waal_Energy-OPLS-2005>
151.625305175781

> <r_mmod_Electrostatic_Energy-OPLS-2005>
-251.698883056641

> <r_mmod_Solvation_Energy-OPLS-2005>
-194.339370727539

> <b_mmod_Minimization_Converged-OPLS-2005>
0

> <r_mmod_RMS_Derivative-OPLS-2005>
1.65681266784668

$$$$
16
                    3D
 Structure written by MMmdl.
152161  0  0  1  0            999 V2000
  -30.6606  -14.6100   20.4888 C   0  0  0  0  0  0
  -30.4239  -12.3669   19.4602 C   0  0  0  0  0  0
  -29.5028  -12.4941   18.2273 C   0  0  0  0  0  0
  -28.0251  -12.3417   18.6377 C   0  0  0  0  0  0
  -27.6502  -13.2188   19.8628 C   0  0  2  0  0  0
  -28.6939  -13.0865   20.9947 C   0  0  0  0  0  0
  -25.2551  -13.8181   20.5715 C   0  0  0  0  0  0
  -24.1817  -13.0440   20.9193 C   0  0  0  0  0  0
  -24.6389  -11.6910   20.8744 C   0  0  0  0  0  0
  -23.9057  -10.4298   21.0405 C   0  0  0  0  0  0
  -24.3613   -9.4211   21.9182 C   0  0  0  0  0  0
  -23.6291   -8.2247   22.0752 C   0  0  0  0  0  0
  -22.4277   -8.0281   21.3541 C   0  0  0  0  0  0
  -21.9906   -9.0254   20.4644 C   0  0  0  0  0  0
  -22.7230  -10.2133   20.3054 C   0  0  0  0  0  0
  -21.6850   -6.0733   22.5282 C   0  0  0  0  0  0
  -21.4014   -6.5640   23.8213 C   0  0  0  0  0  0
  -21.3660   -5.6791   24.9179 C   0  0  0  0  0  0
  -21.6045   -4.3055   24.7225 C   0  0  0  0  0  0
  -21.8822   -3.8144   23.4348 C   0  0  0  0  0  0
  -21.9196   -4.6962   22.3404 C   0  0  0  0  0  0
  -22.7848  -13.5232   21.1866 C   0  0  0  0  0  0
  -22.1665   -4.2149   21.0978 F   0  0  0  0  0  0
  -21.5628   -3.4540   25.7737 F   0  0  0  0  0  0
  -30.0126  -13.4037   20.4287 N   0  0  0  0  0  0
  -26.2973  -12.9365   20.3330 N   0  0  0  0  0  0
  -25.9313  -11.6516   20.5760 N   0  0  0  0  0  0
  -22.0484  -12.8209   22.0407 N   0  0  0  0  0  0
  -25.4260  -15.1901   20.4148 N   0  0  0  0  0  0
  -31.8353  -14.6981   20.1180 O   0  0  0  0  0  0
  -21.6639   -6.8877   21.4243 O   0  0  0  0  0  0
  -22.3526  -14.5539   20.6715 O   0  0  0  0  0  0
  -24.6416  -31.8683   23.2099 C   0  0  0  0  0  0
  -25.9220  -32.4844   23.8441 C   0  0  1  0  0  0
  -27.2178  -27.3459   20.1141 C   0  0  0  0  0  0
  -25.5995  -33.8631   24.2348 N   0  0  0  0  0  0
  -23.4503  -30.4936   21.5652 C   0  0  2  0  0  0
  -24.8731  -28.9534   20.1113 C   0  0  0  0  0  0
  -22.7809  -29.4811   22.5196 C   0  0  0  0  0  0
  -17.9946  -28.1202   22.8707 C   0  0  0  0  0  0
  -24.1487  -36.7301   23.2634 C   0  0  0  0  0  0
  -25.9770  -30.8040   21.3757 C   0  0  0  0  0  0
  -26.0451  -29.4358   20.7115 C   0  0  0  0  0  0
  -27.2264  -28.6410   20.7068 C   0  0  0  0  0  0
  -26.0334  -26.9117   19.4841 C   0  0  0  0  0  0
  -24.8667  -27.6958   19.4854 C   0  0  0  0  0  0
  -23.6407  -29.8271   20.1765 C   0  0  0  0  0  0
  -25.4114  -36.3112   24.0333 C   0  0  1  0  0  0
  -20.4810  -28.4583   22.7795 C   0  0  2  0  0  0
  -20.6916  -26.9609   22.5318 C   0  0  0  0  0  0
  -19.5550  -26.4571   21.6179 C   0  0  0  0  0  0
  -18.1574  -26.7514   22.2047 C   0  0  0  0  0  0
  -19.1160  -28.8976   23.2505 C   0  0  0  0  0  0
  -18.9354  -30.1484   23.8755 C   0  0  0  0  0  0
  -17.6372  -30.6503   24.0793 C   0  0  0  0  0  0
  -25.9066  -34.9484   23.5129 C   0  0  0  0  0  0
  -16.5205  -29.8957   23.6743 C   0  0  0  0  0  0
  -16.6989  -28.6294   23.0880 C   0  0  0  0  0  0
  -26.4526  -31.6611   25.0797 C   0  0  0  0  0  0
  -25.3725  -31.3743   26.1488 C   0  0  0  0  0  0
  -27.0355  -30.3036   24.6237 C   0  0  0  0  0  0
  -27.6078  -32.4330   25.7588 C   0  0  0  0  0  0
  -27.5584  -37.1819   24.8469 C   0  0  0  0  0  0
  -21.4593  -29.4429   22.3932 N   0  0  0  0  0  0
  -26.4299  -37.3800   23.9409 N   0  0  0  0  0  0
  -24.7112  -31.0704   22.1076 N   0  0  0  0  0  0
  -23.4258  -28.7608   23.2834 O   0  0  0  0  0  0
  -28.2577  -26.4227   20.2189 O   0  0  0  0  0  0
  -26.5607  -34.8939   22.4677 O   0  0  0  0  0  0
  -23.5555  -32.1448   23.7395 O   0  0  0  0  0  0
  -27.1645  -18.6413   22.3625 C   0  0  0  0  0  0
  -28.0871  -17.6911   21.9088 C   0  0  0  0  0  0
  -27.3207  -20.0021   22.0481 C   0  0  0  0  0  0
  -29.2950  -19.5006   20.7888 C   0  0  0  0  0  0
  -29.1759  -18.0917   21.1085 C   0  0  0  0  0  0
  -28.3856  -20.5192   21.2610 C   0  0  0  0  0  0
  -28.1978  -23.9990   21.0372 C   0  0  0  0  0  0
  -28.9054  -23.0147   20.2186 C   0  0  0  0  0  0
  -27.9401  -25.3500   21.0653 C   0  0  0  0  0  0
  -30.2137  -17.0425   20.6810 C   0  0  0  0  0  0
  -27.6919  -22.8897   21.9448 C   0  0  0  0  0  0
  -28.4295  -21.9746   21.0585 N   0  0  0  0  0  0
  -29.8995  -15.7089   20.7958 N   0  0  0  0  0  0
  -29.5861  -23.1204   19.2186 O   0  0  0  0  0  0
  -31.2867  -17.4558   20.2276 O   0  0  0  0  0  0
  -31.4694  -12.4590   19.1595 H   0  0  0  0  0  0
  -30.3316  -11.3757   19.9073 H   0  0  0  0  0  0
  -29.7621  -11.7408   17.4819 H   0  0  0  0  0  0
  -29.6563  -13.4625   17.7487 H   0  0  0  0  0  0
  -27.8600  -11.2894   18.8724 H   0  0  0  0  0  0
  -27.3716  -12.5693   17.7951 H   0  0  0  0  0  0
  -27.6685  -14.2527   19.5173 H   0  0  0  0  0  0
  -28.6931  -12.0719   21.3950 H   0  0  0  0  0  0
  -28.4464  -13.7397   21.8316 H   0  0  0  0  0  0
  -25.2762   -9.5689   22.4751 H   0  0  0  0  0  0
  -24.0008   -7.4636   22.7463 H   0  0  0  0  0  0
  -21.0843   -8.8762   19.8945 H   0  0  0  0  0  0
  -22.3689  -10.9671   19.6159 H   0  0  0  0  0  0
  -21.2007   -7.6149   23.9717 H   0  0  0  0  0  0
  -21.1478   -6.0522   25.9077 H   0  0  0  0  0  0
  -22.0600   -2.7610   23.2844 H   0  0  0  0  0  0
  -22.4113  -11.9873   22.4801 H   0  0  0  0  0  0
  -21.1102  -13.1226   22.2625 H   0  0  0  0  0  0
  -24.6550  -15.8388   20.5257 H   0  0  0  0  0  0
  -26.2608  -15.6321   20.0541 H   0  0  0  0  0  0
  -26.7320  -32.5507   23.1228 H   0  0  0  0  0  0
  -25.0155  -33.9777   25.0503 H   0  0  0  0  0  0
  -22.7528  -31.3226   21.4196 H   0  0  0  0  0  0
  -23.3762  -35.9624   23.3309 H   0  0  0  0  0  0
  -24.3576  -36.8905   22.2048 H   0  0  0  0  0  0
  -23.7229  -37.6507   23.6638 H   0  0  0  0  0  0
  -26.1056  -31.5723   20.6122 H   0  0  0  0  0  0
  -26.8601  -30.8490   22.0022 H   0  0  0  0  0  0
  -28.1216  -28.9895   21.2012 H   0  0  0  0  0  0
  -25.9994  -25.9292   19.0350 H   0  0  0  0  0  0
  -23.9658  -27.3162   19.0212 H   0  0  0  0  0  0
  -23.7390  -30.6007   19.4148 H   0  0  0  0  0  0
  -22.7588  -29.2500   19.8914 H   0  0  0  0  0  0
  -25.1289  -36.1984   25.0829 H   0  0  0  0  0  0
  -20.1626  -28.6786   21.7597 H   0  0  0  0  0  0
  -20.6751  -26.4256   23.4818 H   0  0  0  0  0  0
  -21.6618  -26.7646   22.0745 H   0  0  0  0  0  0
  -19.6604  -25.3863   21.4420 H   0  0  0  0  0  0
  -19.6393  -26.9182   20.6323 H   0  0  0  0  0  0
  -17.4026  -26.6301   21.4256 H   0  0  0  0  0  0
  -17.9299  -26.0007   22.9630 H   0  0  0  0  0  0
  -19.7912  -30.7515   24.1486 H   0  0  0  0  0  0
  -17.4977  -31.6210   24.5361 H   0  0  0  0  0  0
  -15.5236  -30.2834   23.8282 H   0  0  0  0  0  0
  -15.8325  -28.0520   22.7943 H   0  0  0  0  0  0
  -24.5908  -30.7092   25.7792 H   0  0  0  0  0  0
  -24.8898  -32.2907   26.4901 H   0  0  0  0  0  0
  -25.8014  -30.8921   27.0282 H   0  0  0  0  0  0
  -26.2941  -29.6823   24.1202 H   0  0  0  0  0  0
  -27.3987  -29.7256   25.4747 H   0  0  0  0  0  0
  -27.8839  -30.4324   23.9514 H   0  0  0  0  0  0
  -27.2688  -33.3636   26.2161 H   0  0  0  0  0  0
  -28.3902  -32.6892   25.0425 H   0  0  0  0  0  0
  -28.0731  -31.8454   26.5514 H   0  0  0  0  0  0
  -28.2612  -38.0106   24.7517 H   0  0  0  0  0  0
  -28.1073  -36.2643   24.6299 H   0  0  0  0  0  0
  -27.2302  -37.1475   25.8872 H   0  0  0  0  0  0
  -21.0814  -30.1532   21.7808 H   0  0  0  0  0  0
  -26.0190  -38.2885   24.1398 H   0  0  0  0  0  0
  -26.3311  -18.3290   22.9776 H   0  0  0  0  0  0
  -27.9464  -16.6607   22.2021 H   0  0  0  0  0  0
  -26.5646  -20.6555   22.4529 H   0  0  0  0  0  0
  -30.1400  -19.8136   20.1906 H   0  0  0  0  0  0
  -27.3173  -25.7072   21.8762 H   0  0  0  0  0  0
  -26.6124  -22.7313   21.9230 H   0  0  0  0  0  0
  -28.0625  -22.8687   22.9708 H   0  0  0  0  0  0
  -28.9686  -15.5149   21.1189 H   0  0  0  0  0  0
  1 25  1  0  0  0
  1 30  2  0  0  0
  1 83  1  0  0  0
  2  3  1  0  0  0
  2 25  1  0  0  0
  2 86  1  0  0  0
  2 87  1  0  0  0
  3  4  1  0  0  0
  3 88  1  0  0  0
  3 89  1  0  0  0
  4  5  1  0  0  0
  4 90  1  0  0  0
  4 91  1  0  0  0
  5  6  1  0  0  0
  5 26  1  0  0  0
  5 92  1  0  0  0
  6 25  1  0  0  0
  6 93  1  0  0  0
  6 94  1  0  0  0
  7  8  2  0  0  0
  7 26  1  0  0  0
  7 29  1  0  0  0
  8  9  1  0  0  0
  8 22  1  0  0  0
  9 10  1  0  0  0
  9 27  2  0  0  0
 10 11  2  0  0  0
 10 15  1  0  0  0
 11 12  1  0  0  0
 11 95  1  0  0  0
 12 13  2  0  0  0
 12 96  1  0  0  0
 13 14  1  0  0  0
 13 31  1  0  0  0
 14 15  2  0  0  0
 14 97  1  0  0  0
 15 98  1  0  0  0
 16 17  2  0  0  0
 16 21  1  0  0  0
 16 31  1  0  0  0
 17 18  1  0  0  0
 17 99  1  0  0  0
 18 19  2  0  0  0
 18100  1  0  0  0
 19 20  1  0  0  0
 19 24  1  0  0  0
 20 21  2  0  0  0
 20101  1  0  0  0
 21 23  1  0  0  0
 22 28  1  0  0  0
 22 32  2  0  0  0
 26 27  1  0  0  0
 28102  1  0  0  0
 28103  1  0  0  0
 29104  1  0  0  0
 29105  1  0  0  0
 33 34  1  0  0  0
 33 66  1  0  0  0
 33 70  2  0  0  0
 34 36  1  0  0  0
 34 59  1  0  0  0
 34106  1  0  0  0
 35 44  2  0  0  0
 35 45  1  0  0  0
 35 68  1  0  0  0
 36 56  1  0  0  0
 36107  1  0  0  0
 37 39  1  0  0  0
 37 47  1  0  0  0
 37 66  1  0  0  0
 37108  1  0  0  0
 38 43  2  0  0  0
 38 46  1  0  0  0
 38 47  1  0  0  0
 39 64  1  0  0  0
 39 67  2  0  0  0
 40 52  1  0  0  0
 40 53  2  0  0  0
 40 58  1  0  0  0
 41109  1  0  0  0
 41110  1  0  0  0
 41111  1  0  0  0
 41 48  1  0  0  0
 42 43  1  0  0  0
 42 66  1  0  0  0
 42112  1  0  0  0
 42113  1  0  0  0
 43 44  1  0  0  0
 44114  1  0  0  0
 45 46  2  0  0  0
 45115  1  0  0  0
 46116  1  0  0  0
 47117  1  0  0  0
 47118  1  0  0  0
 48 56  1  0  0  0
 48 65  1  0  0  0
 48119  1  0  0  0
 49 50  1  0  0  0
 49 53  1  0  0  0
 49 64  1  0  0  0
 49120  1  0  0  0
 50 51  1  0  0  0
 50121  1  0  0  0
 50122  1  0  0  0
 51 52  1  0  0  0
 51123  1  0  0  0
 51124  1  0  0  0
 52125  1  0  0  0
 52126  1  0  0  0
 53 54  1  0  0  0
 54 55  2  0  0  0
 54127  1  0  0  0
 55 57  1  0  0  0
 55128  1  0  0  0
 56 69  2  0  0  0
 57 58  2  0  0  0
 57129  1  0  0  0
 58130  1  0  0  0
 59 60  1  0  0  0
 59 61  1  0  0  0
 59 62  1  0  0  0
 60131  1  0  0  0
 60132  1  0  0  0
 60133  1  0  0  0
 61134  1  0  0  0
 61135  1  0  0  0
 61136  1  0  0  0
 62137  1  0  0  0
 62138  1  0  0  0
 62139  1  0  0  0
 63 65  1  0  0  0
 63140  1  0  0  0
 63141  1  0  0  0
 63142  1  0  0  0
 64143  1  0  0  0
 65144  1  0  0  0
 68 79  1  0  0  0
 71 72  2  0  0  0
 71 73  1  0  0  0
 71145  1  0  0  0
 72 75  1  0  0  0
 72146  1  0  0  0
 73 76  2  0  0  0
 73147  1  0  0  0
 74 75  2  0  0  0
 74 76  1  0  0  0
 74148  1  0  0  0
 75 80  1  0  0  0
 76 82  1  0  0  0
 77 78  1  0  0  0
 77 79  2  0  0  0
 77 81  1  0  0  0
 78 82  1  0  0  0
 78 84  2  0  0  0
 79149  1  0  0  0
 80 83  1  0  0  0
 80 85  2  0  0  0
 81 82  1  0  0  0
 81150  1  0  0  0
 81151  1  0  0  0
 83152  1  0  0  0
M  ISO  4   1 100  68 101  79 101  83 100
M  END
> <chiral flag>
0

> <version>
0

> <s_m_source_file>
/data/baiqing/PycharmProjects/Reinvent-master-3.2/result/LINK_invent/BTK/process_docking_weight1_custom_product_contain_oxygen_bond_distance_aromatic_linkinvent_7_9_3/rearranged_h_0087.sdf

> <i_m_source_file_index>
17

> <r_mmod_Potential_Energy-OPLS-2005>
189.944732666016

> <r_mmod_Stretch_Energy-OPLS-2005>
67.1467590332031

> <r_mmod_Bend_Energy-OPLS-2005>
329.0849609375

> <r_mmod_Torsional_Energy-OPLS-2005>
239.714813232422

> <r_mmod_Improper_Torsional_Energy-OPLS-2005>
6.25810098648071

> <r_mmod_Van_der_Waal_Energy-OPLS-2005>
156.312866210938

> <r_mmod_Electrostatic_Energy-OPLS-2005>
-426.518463134766

> <r_mmod_Solvation_Energy-OPLS-2005>
-251.006057739258

> <b_mmod_Minimization_Converged-OPLS-2005>
0

> <r_mmod_RMS_Derivative-OPLS-2005>
2.41813516616821

$$$$
17
                    3D
 Structure written by MMmdl.
148156  0  0  1  0            999 V2000
  -30.4746  -15.1228   20.4546 C   0  0  0  0  0  0
  -30.4546  -12.7244   19.5027 C   0  0  0  0  0  0
  -29.5299  -12.5843   18.2651 C   0  0  0  0  0  0
  -28.0659  -12.3332   18.6765 C   0  0  0  0  0  0
  -27.6294  -13.2514   19.8449 C   0  0  2  0  0  0
  -28.6784  -13.2494   20.9731 C   0  0  0  0  0  0
  -25.2427  -13.8193   20.5670 C   0  0  0  0  0  0
  -24.1766  -13.0415   20.9218 C   0  0  0  0  0  0
  -24.6403  -11.6906   20.8757 C   0  0  0  0  0  0
  -23.9089  -10.4280   21.0412 C   0  0  0  0  0  0
  -24.3631   -9.4195   21.9190 C   0  0  0  0  0  0
  -23.6299   -8.2235   22.0756 C   0  0  0  0  0  0
  -22.4280   -8.0279   21.3546 C   0  0  0  0  0  0
  -21.9923   -9.0255   20.4647 C   0  0  0  0  0  0
  -22.7261  -10.2128   20.3059 C   0  0  0  0  0  0
  -21.6851   -6.0737   22.5280 C   0  0  0  0  0  0
  -21.4013   -6.5642   23.8213 C   0  0  0  0  0  0
  -21.3659   -5.6795   24.9175 C   0  0  0  0  0  0
  -21.6044   -4.3058   24.7226 C   0  0  0  0  0  0
  -21.8819   -3.8149   23.4347 C   0  0  0  0  0  0
  -21.9193   -4.6966   22.3403 C   0  0  0  0  0  0
  -22.7787  -13.5186   21.1879 C   0  0  0  0  0  0
  -22.1661   -4.2152   21.0981 F   0  0  0  0  0  0
  -21.5629   -3.4541   25.7738 F   0  0  0  0  0  0
  -29.9172  -13.8141   20.3936 N   0  0  0  0  0  0
  -26.2881  -12.9437   20.3259 N   0  0  0  0  0  0
  -25.9341  -11.6563   20.5746 N   0  0  0  0  0  0
  -22.0448  -12.8173   22.0440 N   0  0  0  0  0  0
  -25.4020  -15.1918   20.4012 N   0  0  0  0  0  0
  -31.6617  -15.1669   20.0978 O   0  0  0  0  0  0
  -21.6639   -6.8880   21.4242 O   0  0  0  0  0  0
  -22.3465  -14.5493   20.6731 O   0  0  0  0  0  0
  -24.6547  -31.8341   23.1799 C   0  0  0  0  0  0
  -25.9272  -32.4643   23.8225 C   0  0  1  0  0  0
  -27.2190  -27.0278   20.1644 C   0  0  0  0  0  0
  -25.5978  -33.8452   24.2137 N   0  0  0  0  0  0
  -23.4637  -30.4505   21.5282 C   0  0  2  0  0  0
  -24.9151  -28.8586   20.1137 C   0  0  0  0  0  0
  -22.7624  -29.4499   22.4828 C   0  0  0  0  0  0
  -18.0313  -28.1409   22.8472 C   0  0  0  0  0  0
  -24.1491  -36.7226   23.2644 C   0  0  0  0  0  0
  -26.0281  -30.6733   21.3950 C   0  0  0  0  0  0
  -26.0982  -29.2736   20.7380 C   0  0  0  0  0  0
  -27.2489  -28.3782   20.7406 C   0  0  0  0  0  0
  -26.0050  -26.7450   19.4971 C   0  0  0  0  0  0
  -24.8880  -27.6111   19.4752 C   0  0  0  0  0  0
  -23.6971  -29.7740   20.1514 C   0  0  0  0  0  0
  -25.4128  -36.2998   24.0307 C   0  0  1  0  0  0
  -20.5933  -28.3744   23.1211 C   0  0  2  0  0  0
  -20.6795  -26.9437   22.5404 C   0  0  0  0  0  0
  -19.5766  -26.6385   21.5215 C   0  0  0  0  0  0
  -18.1947  -26.7945   22.1624 C   0  0  0  0  0  0
  -19.1573  -28.8896   23.2831 C   0  0  0  0  0  0
  -18.9486  -30.1490   23.8859 C   0  0  0  0  0  0
  -17.6481  -30.6600   24.0558 C   0  0  0  0  0  0
  -25.9091  -34.9378   23.5036 C   0  0  0  0  0  0
  -16.5371  -29.9089   23.6344 C   0  0  0  0  0  0
  -16.7297  -28.6511   23.0359 C   0  0  0  0  0  0
  -26.4555  -31.6546   25.0709 C   0  0  0  0  0  0
  -25.3707  -31.3764   26.1380 C   0  0  0  0  0  0
  -27.0442  -30.2927   24.6368 C   0  0  0  0  0  0
  -27.6065  -32.4332   25.7507 C   0  0  0  0  0  0
  -27.5572  -37.1771   24.8467 C   0  0  0  0  0  0
  -21.4303  -29.3052   22.3573 N   0  0  0  0  0  0
  -26.4280  -37.3725   23.9412 N   0  0  0  0  0  0
  -24.7363  -31.0098   22.0887 N   0  0  0  0  0  0
  -23.4215  -28.8053   23.3024 O   0  0  0  0  0  0
  -28.2420  -25.9717   20.2195 O   0  0  0  0  0  0
  -26.5684  -34.8895   22.4621 O   0  0  0  0  0  0
  -23.5640  -32.1265   23.6954 O   0  0  0  0  0  0
  -30.6578  -19.8470   19.6338 C   0  0  0  0  0  0
  -30.8984  -18.4034   19.7105 C   0  0  0  0  0  0
  -29.4558  -20.2319   20.2050 C   0  0  0  0  0  0
  -29.8664  -17.7812   20.3722 C   0  0  0  0  0  0
  -28.7071  -21.6259   20.3472 C   0  0  0  0  0  0
  -28.9046  -23.0450   20.1138 C   0  0  0  0  0  0
  -28.7474  -16.2417   21.8332 C   0  0  0  0  0  0
  -27.8928  -24.4045   20.1990 C   0  0  0  0  0  0
  -29.7221  -16.3586   20.7442 N   0  0  0  0  0  0
  -28.9749  -18.9215   20.6735 O   0  0  0  0  0  0
  -31.4699  -12.9370   19.1660 H   0  0  0  0  0  0
  -30.5310  -11.7768   20.0383 H   0  0  0  0  0  0
  -29.8814  -11.7812   17.6157 H   0  0  0  0  0  0
  -29.5839  -13.4999   17.6742 H   0  0  0  0  0  0
  -27.9802  -11.2891   18.9798 H   0  0  0  0  0  0
  -27.4017  -12.4594   17.8208 H   0  0  0  0  0  0
  -27.5925  -14.2611   19.4348 H   0  0  0  0  0  0
  -28.8362  -12.2323   21.3353 H   0  0  0  0  0  0
  -28.3188  -13.7737   21.8501 H   0  0  0  0  0  0
  -25.2775   -9.5669   22.4768 H   0  0  0  0  0  0
  -24.0005   -7.4624   22.7477 H   0  0  0  0  0  0
  -21.0856   -8.8782   19.8949 H   0  0  0  0  0  0
  -22.3728  -10.9671   19.6168 H   0  0  0  0  0  0
  -21.2004   -7.6149   23.9717 H   0  0  0  0  0  0
  -21.1481   -6.0525   25.9079 H   0  0  0  0  0  0
  -22.0598   -2.7612   23.2847 H   0  0  0  0  0  0
  -22.4075  -11.9830   22.4812 H   0  0  0  0  0  0
  -21.1067  -13.1192   22.2663 H   0  0  0  0  0  0
  -24.6301  -15.8406   20.5086 H   0  0  0  0  0  0
  -26.2455  -15.6343   20.0599 H   0  0  0  0  0  0
  -26.7338  -32.5213   23.0946 H   0  0  0  0  0  0
  -25.0093  -33.9545   25.0264 H   0  0  0  0  0  0
  -22.7721  -31.2797   21.3658 H   0  0  0  0  0  0
  -23.3764  -35.9545   23.3283 H   0  0  0  0  0  0
  -24.3572  -36.8889   22.2063 H   0  0  0  0  0  0
  -23.7234  -37.6407   23.6704 H   0  0  0  0  0  0
  -26.1957  -31.4209   20.6184 H   0  0  0  0  0  0
  -26.8936  -30.7280   22.0436 H   0  0  0  0  0  0
  -28.1476  -28.6943   21.2514 H   0  0  0  0  0  0
  -25.8760  -25.7998   18.9943 H   0  0  0  0  0  0
  -23.9878  -27.2886   18.9701 H   0  0  0  0  0  0
  -23.8440  -30.5454   19.3946 H   0  0  0  0  0  0
  -22.8090  -29.2228   19.8371 H   0  0  0  0  0  0
  -25.1321  -36.1808   25.0798 H   0  0  0  0  0  0
  -21.0020  -28.3344   24.1334 H   0  0  0  0  0  0
  -20.5687  -26.2361   23.3634 H   0  0  0  0  0  0
  -21.6659  -26.7431   22.1203 H   0  0  0  0  0  0
  -19.6927  -25.6287   21.1268 H   0  0  0  0  0  0
  -19.6703  -27.3176   20.6729 H   0  0  0  0  0  0
  -17.4217  -26.6690   21.4027 H   0  0  0  0  0  0
  -18.0344  -26.0096   22.9029 H   0  0  0  0  0  0
  -19.7961  -30.7320   24.2208 H   0  0  0  0  0  0
  -17.5032  -31.6274   24.5172 H   0  0  0  0  0  0
  -15.5371  -30.2979   23.7691 H   0  0  0  0  0  0
  -15.8697  -28.0822   22.7090 H   0  0  0  0  0  0
  -24.5908  -30.7090   25.7696 H   0  0  0  0  0  0
  -24.8871  -32.2953   26.4704 H   0  0  0  0  0  0
  -25.7963  -30.9007   27.0224 H   0  0  0  0  0  0
  -26.3092  -29.6621   24.1352 H   0  0  0  0  0  0
  -27.3995  -29.7263   25.4987 H   0  0  0  0  0  0
  -27.9022  -30.4140   23.9752 H   0  0  0  0  0  0
  -27.2650  -33.3670   26.1985 H   0  0  0  0  0  0
  -28.3930  -32.6829   25.0373 H   0  0  0  0  0  0
  -28.0670  -31.8518   26.5506 H   0  0  0  0  0  0
  -28.2575  -38.0080   24.7518 H   0  0  0  0  0  0
  -28.1082  -36.2608   24.6288 H   0  0  0  0  0  0
  -27.2288  -37.1407   25.8869 H   0  0  0  0  0  0
  -20.9540  -29.8754   21.6724 H   0  0  0  0  0  0
  -26.0136  -38.2787   24.1420 H   0  0  0  0  0  0
  -31.3298  -20.5536   19.1671 H   0  0  0  0  0  0
  -31.7699  -17.8891   19.3300 H   0  0  0  0  0  0
  -27.7034  -21.4411   20.7036 H   0  0  0  0  0  0
  -29.8875  -23.3087   19.7513 H   0  0  0  0  0  0
  -28.5475  -17.1901   22.3326 H   0  0  0  0  0  0
  -29.1115  -15.5899   22.6288 H   0  0  0  0  0  0
  -27.7910  -15.8808   21.4625 H   0  0  0  0  0  0
  -27.2135  -24.2268   21.0333 H   0  0  0  0  0  0
  -27.2815  -24.2642   19.3100 H   0  0  0  0  0  0
  1 25  1  0  0  0
  1 30  2  0  0  0
  1 79  1  0  0  0
  2  3  1  0  0  0
  2 25  1  0  0  0
  2 81  1  0  0  0
  2 82  1  0  0  0
  3  4  1  0  0  0
  3 83  1  0  0  0
  3 84  1  0  0  0
  4  5  1  0  0  0
  4 85  1  0  0  0
  4 86  1  0  0  0
  5  6  1  0  0  0
  5 26  1  0  0  0
  5 87  1  0  0  0
  6 25  1  0  0  0
  6 88  1  0  0  0
  6 89  1  0  0  0
  7  8  2  0  0  0
  7 26  1  0  0  0
  7 29  1  0  0  0
  8  9  1  0  0  0
  8 22  1  0  0  0
  9 10  1  0  0  0
  9 27  2  0  0  0
 10 11  2  0  0  0
 10 15  1  0  0  0
 11 12  1  0  0  0
 11 90  1  0  0  0
 12 13  2  0  0  0
 12 91  1  0  0  0
 13 14  1  0  0  0
 13 31  1  0  0  0
 14 15  2  0  0  0
 14 92  1  0  0  0
 15 93  1  0  0  0
 16 17  2  0  0  0
 16 21  1  0  0  0
 16 31  1  0  0  0
 17 18  1  0  0  0
 17 94  1  0  0  0
 18 19  2  0  0  0
 18 95  1  0  0  0
 19 20  1  0  0  0
 19 24  1  0  0  0
 20 21  2  0  0  0
 20 96  1  0  0  0
 21 23  1  0  0  0
 22 28  1  0  0  0
 22 32  2  0  0  0
 26 27  1  0  0  0
 28 97  1  0  0  0
 28 98  1  0  0  0
 29 99  1  0  0  0
 29100  1  0  0  0
 33 34  1  0  0  0
 33 66  1  0  0  0
 33 70  2  0  0  0
 34 36  1  0  0  0
 34 59  1  0  0  0
 34101  1  0  0  0
 35 44  2  0  0  0
 35 45  1  0  0  0
 35 68  1  0  0  0
 36 56  1  0  0  0
 36102  1  0  0  0
 37 39  1  0  0  0
 37 47  1  0  0  0
 37 66  1  0  0  0
 37103  1  0  0  0
 38 43  2  0  0  0
 38 46  1  0  0  0
 38 47  1  0  0  0
 39 64  1  0  0  0
 39 67  2  0  0  0
 40 52  1  0  0  0
 40 53  2  0  0  0
 40 58  1  0  0  0
 41104  1  0  0  0
 41105  1  0  0  0
 41106  1  0  0  0
 41 48  1  0  0  0
 42 43  1  0  0  0
 42 66  1  0  0  0
 42107  1  0  0  0
 42108  1  0  0  0
 43 44  1  0  0  0
 44109  1  0  0  0
 45 46  2  0  0  0
 45110  1  0  0  0
 46111  1  0  0  0
 47112  1  0  0  0
 47113  1  0  0  0
 48 56  1  0  0  0
 48 65  1  0  0  0
 48114  1  0  0  0
 49 50  1  0  0  0
 49 53  1  0  0  0
 49 64  1  0  0  0
 49115  1  0  0  0
 50 51  1  0  0  0
 50116  1  0  0  0
 50117  1  0  0  0
 51 52  1  0  0  0
 51118  1  0  0  0
 51119  1  0  0  0
 52120  1  0  0  0
 52121  1  0  0  0
 53 54  1  0  0  0
 54 55  2  0  0  0
 54122  1  0  0  0
 55 57  1  0  0  0
 55123  1  0  0  0
 56 69  2  0  0  0
 57 58  2  0  0  0
 57124  1  0  0  0
 58125  1  0  0  0
 59 60  1  0  0  0
 59 61  1  0  0  0
 59 62  1  0  0  0
 60126  1  0  0  0
 60127  1  0  0  0
 60128  1  0  0  0
 61129  1  0  0  0
 61130  1  0  0  0
 61131  1  0  0  0
 62132  1  0  0  0
 62133  1  0  0  0
 62134  1  0  0  0
 63 65  1  0  0  0
 63135  1  0  0  0
 63136  1  0  0  0
 63137  1  0  0  0
 64138  1  0  0  0
 65139  1  0  0  0
 68 78  1  0  0  0
 71 72  1  0  0  0
 71 73  2  0  0  0
 71140  1  0  0  0
 72 74  2  0  0  0
 72141  1  0  0  0
 73 75  1  0  0  0
 73 80  1  0  0  0
 74 79  1  0  0  0
 74 80  1  0  0  0
 75 76  2  0  0  0
 75142  1  0  0  0
 76 78  1  0  0  0
 76143  1  0  0  0
 77 79  1  0  0  0
 77144  1  0  0  0
 77145  1  0  0  0
 77146  1  0  0  0
 78147  1  0  0  0
 78148  1  0  0  0
M  ISO  4   1 100  68 101  78 101  79 100
M  END
> <chiral flag>
0

> <version>
0

> <s_m_source_file>
/data/baiqing/PycharmProjects/Reinvent-master-3.2/result/LINK_invent/BTK/process_docking_weight1_custom_product_contain_oxygen_bond_distance_aromatic_linkinvent_7_9_3/rearranged_h_0087.sdf

> <i_m_source_file_index>
18

> <r_mmod_Potential_Energy-OPLS-2005>
911.560424804688

> <r_mmod_Stretch_Energy-OPLS-2005>
380.313323974609

> <r_mmod_Bend_Energy-OPLS-2005>
328.131683349609

> <r_mmod_Torsional_Energy-OPLS-2005>
263.212066650391

> <r_mmod_Improper_Torsional_Energy-OPLS-2005>
4.26455497741699

> <r_mmod_Van_der_Waal_Energy-OPLS-2005>
125.852531433105

> <r_mmod_Electrostatic_Energy-OPLS-2005>
-305.243499755859

> <r_mmod_Solvation_Energy-OPLS-2005>
-192.039810180664

> <b_mmod_Minimization_Converged-OPLS-2005>
0

> <r_mmod_RMS_Derivative-OPLS-2005>
0.34641095995903

$$$$
18
                    3D
 Structure written by MMmdl.
150159  0  0  1  0            999 V2000
  -30.7550  -14.7828   20.4428 C   0  0  0  0  0  0
  -30.3850  -12.5066   19.4724 C   0  0  0  0  0  0
  -29.4801  -12.5005   18.2299 C   0  0  0  0  0  0
  -28.0181  -12.3149   18.6624 C   0  0  0  0  0  0
  -27.6195  -13.2534   19.8329 C   0  0  2  0  0  0
  -28.6770  -13.3107   20.9594 C   0  0  0  0  0  0
  -25.2419  -13.8238   20.5768 C   0  0  0  0  0  0
  -24.1732  -13.0437   20.9214 C   0  0  0  0  0  0
  -24.6376  -11.6932   20.8769 C   0  0  0  0  0  0
  -23.9080  -10.4291   21.0414 C   0  0  0  0  0  0
  -24.3625   -9.4204   21.9193 C   0  0  0  0  0  0
  -23.6296   -8.2243   22.0758 C   0  0  0  0  0  0
  -22.4282   -8.0280   21.3542 C   0  0  0  0  0  0
  -21.9920   -9.0255   20.4644 C   0  0  0  0  0  0
  -22.7256  -10.2130   20.3054 C   0  0  0  0  0  0
  -21.6851   -6.0738   22.5280 C   0  0  0  0  0  0
  -21.4017   -6.5638   23.8217 C   0  0  0  0  0  0
  -21.3655   -5.6788   24.9174 C   0  0  0  0  0  0
  -21.6038   -4.3055   24.7224 C   0  0  0  0  0  0
  -21.8818   -3.8149   23.4347 C   0  0  0  0  0  0
  -21.9191   -4.6966   22.3403 C   0  0  0  0  0  0
  -22.7753  -13.5200   21.1861 C   0  0  0  0  0  0
  -22.1659   -4.2149   21.0979 F   0  0  0  0  0  0
  -21.5623   -3.4540   25.7739 F   0  0  0  0  0  0
  -29.9536  -13.6553   20.3234 N   0  0  0  0  0  0
  -26.2858  -12.9494   20.3349 N   0  0  0  0  0  0
  -25.9320  -11.6612   20.5824 N   0  0  0  0  0  0
  -22.0419  -12.8182   22.0423 N   0  0  0  0  0  0
  -25.4107  -15.1960   20.4273 N   0  0  0  0  0  0
  -31.9549  -14.5866   20.2381 O   0  0  0  0  0  0
  -21.6633   -6.8883   21.4244 O   0  0  0  0  0  0
  -22.3432  -14.5507   20.6721 O   0  0  0  0  0  0
  -24.6371  -31.8519   23.1970 C   0  0  0  0  0  0
  -25.9176  -32.4738   23.8326 C   0  0  1  0  0  0
  -27.2048  -27.2168   20.1355 C   0  0  0  0  0  0
  -25.5966  -33.8540   24.2249 N   0  0  0  0  0  0
  -23.4348  -30.4773   21.5398 C   0  0  2  0  0  0
  -24.8812  -28.9246   20.1065 C   0  0  0  0  0  0
  -22.7523  -29.4606   22.4879 C   0  0  0  0  0  0
  -18.0291  -28.1406   22.8482 C   0  0  0  0  0  0
  -24.1483  -36.7257   23.2627 C   0  0  0  0  0  0
  -25.9845  -30.7523   21.3825 C   0  0  0  0  0  0
  -26.0552  -29.3698   20.7285 C   0  0  0  0  0  0
  -27.2206  -28.5268   20.7392 C   0  0  0  0  0  0
  -26.0146  -26.8703   19.4553 C   0  0  0  0  0  0
  -24.8683  -27.6834   19.4572 C   0  0  0  0  0  0
  -23.6549  -29.8164   20.1547 C   0  0  0  0  0  0
  -25.4100  -36.3048   24.0332 C   0  0  1  0  0  0
  -20.5898  -28.3723   23.1256 C   0  0  2  0  0  0
  -20.6792  -26.9442   22.5395 C   0  0  0  0  0  0
  -19.5767  -26.6399   21.5207 C   0  0  0  0  0  0
  -18.1940  -26.7947   22.1614 C   0  0  0  0  0  0
  -19.1546  -28.8881   23.2863 C   0  0  0  0  0  0
  -18.9468  -30.1475   23.8892 C   0  0  0  0  0  0
  -17.6468  -30.6606   24.0569 C   0  0  0  0  0  0
  -25.9068  -34.9429   23.5086 C   0  0  0  0  0  0
  -16.5360  -29.9104   23.6341 C   0  0  0  0  0  0
  -16.7277  -28.6522   23.0364 C   0  0  0  0  0  0
  -26.4539  -31.6556   25.0712 C   0  0  0  0  0  0
  -25.3758  -31.3679   26.1425 C   0  0  0  0  0  0
  -27.0389  -30.2971   24.6195 C   0  0  0  0  0  0
  -27.6089  -32.4313   25.7476 C   0  0  0  0  0  0
  -27.5596  -37.1741   24.8442 C   0  0  0  0  0  0
  -21.4222  -29.3065   22.3629 N   0  0  0  0  0  0
  -26.4246  -37.3780   23.9482 N   0  0  0  0  0  0
  -24.7050  -31.0454   22.0964 N   0  0  0  0  0  0
  -23.4202  -28.8145   23.2998 O   0  0  0  0  0  0
  -28.2385  -26.2371   20.1927 O   0  0  0  0  0  0
  -26.5640  -34.8923   22.4654 O   0  0  0  0  0  0
  -23.5512  -32.1363   23.7239 O   0  0  0  0  0  0
  -31.5918  -19.7660   20.4801 C   0  0  0  0  0  0
  -30.8360  -20.9663   20.4499 C   0  0  0  0  0  0
  -28.7788  -19.6531   20.4961 C   0  0  0  0  0  0
  -29.5630  -18.4211   20.5192 C   0  0  0  0  0  0
  -30.9295  -18.5240   20.5181 C   0  0  0  0  0  0
  -29.4099  -20.9801   20.4581 C   0  0  0  0  0  0
  -29.2177  -16.9066   20.5327 C   0  0  0  0  0  0
  -29.0651  -23.6279   20.2817 C   0  0  0  0  0  0
  -27.9214  -24.7958   20.5029 C   0  0  0  0  0  0
  -31.5180  -17.1325   20.5476 C   0  0  0  0  0  0
  -30.3846  -16.1481   20.5433 N   0  0  0  0  0  0
  -28.6712  -22.2914   20.4678 N   0  0  0  0  0  0
  -28.0580  -16.4889   20.5145 O   0  0  0  0  0  0
  -30.2123  -23.9523   19.9550 O   0  0  0  0  0  0
  -26.8152  -24.4417   20.9261 O   0  0  0  0  0  0
  -31.4259  -12.5542   19.1511 H   0  0  0  0  0  0
  -30.2984  -11.5664   20.0204 H   0  0  0  0  0  0
  -29.7742  -11.7011   17.5481 H   0  0  0  0  0  0
  -29.5927  -13.4367   17.6804 H   0  0  0  0  0  0
  -27.8984  -11.2747   18.9662 H   0  0  0  0  0  0
  -27.3489  -12.4628   17.8132 H   0  0  0  0  0  0
  -27.5721  -14.2458   19.3866 H   0  0  0  0  0  0
  -28.7454  -12.3562   21.4825 H   0  0  0  0  0  0
  -28.4082  -14.0572   21.7079 H   0  0  0  0  0  0
  -25.2766   -9.5671   22.4771 H   0  0  0  0  0  0
  -23.9993   -7.4633   22.7480 H   0  0  0  0  0  0
  -21.0850   -8.8776   19.8950 H   0  0  0  0  0  0
  -22.3722  -10.9664   19.6155 H   0  0  0  0  0  0
  -21.2015   -7.6149   23.9718 H   0  0  0  0  0  0
  -21.1475   -6.0520   25.9071 H   0  0  0  0  0  0
  -22.0601   -2.7611   23.2848 H   0  0  0  0  0  0
  -22.4053  -11.9847   22.4803 H   0  0  0  0  0  0
  -21.1033  -13.1187   22.2642 H   0  0  0  0  0  0
  -24.6614  -15.8607   20.5789 H   0  0  0  0  0  0
  -26.3202  -15.6416   20.3038 H   0  0  0  0  0  0
  -26.7236  -32.5372   23.1056 H   0  0  0  0  0  0
  -25.0160  -33.9671   25.0433 H   0  0  0  0  0  0
  -22.7339  -31.3016   21.3937 H   0  0  0  0  0  0
  -23.3796  -35.9532   23.3178 H   0  0  0  0  0  0
  -24.3616  -36.8985   22.2072 H   0  0  0  0  0  0
  -23.7158  -37.6389   23.6722 H   0  0  0  0  0  0
  -26.1231  -31.5063   20.6066 H   0  0  0  0  0  0
  -26.8641  -30.8067   22.0121 H   0  0  0  0  0  0
  -28.1138  -28.8546   21.2515 H   0  0  0  0  0  0
  -25.9412  -25.9199   18.9464 H   0  0  0  0  0  0
  -23.9736  -27.3407   18.9567 H   0  0  0  0  0  0
  -23.7824  -30.5954   19.4012 H   0  0  0  0  0  0
  -22.7716  -29.2533   19.8486 H   0  0  0  0  0  0
  -25.1252  -36.1857   25.0815 H   0  0  0  0  0  0
  -20.9991  -28.3310   24.1380 H   0  0  0  0  0  0
  -20.5713  -26.2338   23.3596 H   0  0  0  0  0  0
  -21.6658  -26.7482   22.1172 H   0  0  0  0  0  0
  -19.6942  -25.6308   21.1246 H   0  0  0  0  0  0
  -19.6710  -27.3208   20.6731 H   0  0  0  0  0  0
  -17.4205  -26.6695   21.4013 H   0  0  0  0  0  0
  -18.0355  -26.0085   22.9011 H   0  0  0  0  0  0
  -19.7943  -30.7294   24.2266 H   0  0  0  0  0  0
  -17.5024  -31.6291   24.5172 H   0  0  0  0  0  0
  -15.5368  -30.3013   23.7678 H   0  0  0  0  0  0
  -15.8667  -28.0843   22.7106 H   0  0  0  0  0  0
  -24.6002  -30.6941   25.7760 H   0  0  0  0  0  0
  -24.8879  -32.2820   26.4813 H   0  0  0  0  0  0
  -25.8105  -30.8913   27.0216 H   0  0  0  0  0  0
  -26.2967  -29.6704   24.1234 H   0  0  0  0  0  0
  -27.4088  -29.7249   25.4709 H   0  0  0  0  0  0
  -27.8836  -30.4253   23.9424 H   0  0  0  0  0  0
  -27.2724  -33.3674   26.1948 H   0  0  0  0  0  0
  -28.3944  -32.6760   25.0311 H   0  0  0  0  0  0
  -28.0691  -31.8485   26.5462 H   0  0  0  0  0  0
  -28.2443  -38.0204   24.7738 H   0  0  0  0  0  0
  -28.1259  -36.2756   24.5930 H   0  0  0  0  0  0
  -27.2374  -37.0967   25.8840 H   0  0  0  0  0  0
  -20.9424  -29.8767   21.6799 H   0  0  0  0  0  0
  -26.0097  -38.2805   24.1646 H   0  0  0  0  0  0
  -32.6732  -19.8044   20.4748 H   0  0  0  0  0  0
  -31.3945  -21.8900   20.4319 H   0  0  0  0  0  0
  -27.7007  -19.5737   20.5064 H   0  0  0  0  0  0
  -32.1377  -17.0108   21.4379 H   0  0  0  0  0  0
  -32.1545  -17.0091   19.6686 H   0  0  0  0  0  0
  -27.6828  -22.2271   20.6752 H   0  0  0  0  0  0
  1 25  1  0  0  0
  1 30  2  0  0  0
  1 81  1  0  0  0
  2  3  1  0  0  0
  2 25  1  0  0  0
  2 86  1  0  0  0
  2 87  1  0  0  0
  3  4  1  0  0  0
  3 88  1  0  0  0
  3 89  1  0  0  0
  4  5  1  0  0  0
  4 90  1  0  0  0
  4 91  1  0  0  0
  5  6  1  0  0  0
  5 26  1  0  0  0
  5 92  1  0  0  0
  6 25  1  0  0  0
  6 93  1  0  0  0
  6 94  1  0  0  0
  7  8  2  0  0  0
  7 26  1  0  0  0
  7 29  1  0  0  0
  8  9  1  0  0  0
  8 22  1  0  0  0
  9 10  1  0  0  0
  9 27  2  0  0  0
 10 11  2  0  0  0
 10 15  1  0  0  0
 11 12  1  0  0  0
 11 95  1  0  0  0
 12 13  2  0  0  0
 12 96  1  0  0  0
 13 14  1  0  0  0
 13 31  1  0  0  0
 14 15  2  0  0  0
 14 97  1  0  0  0
 15 98  1  0  0  0
 16 17  2  0  0  0
 16 21  1  0  0  0
 16 31  1  0  0  0
 17 18  1  0  0  0
 17 99  1  0  0  0
 18 19  2  0  0  0
 18100  1  0  0  0
 19 20  1  0  0  0
 19 24  1  0  0  0
 20 21  2  0  0  0
 20101  1  0  0  0
 21 23  1  0  0  0
 22 28  1  0  0  0
 22 32  2  0  0  0
 26 27  1  0  0  0
 28102  1  0  0  0
 28103  1  0  0  0
 29104  1  0  0  0
 29105  1  0  0  0
 33 34  1  0  0  0
 33 66  1  0  0  0
 33 70  2  0  0  0
 34 36  1  0  0  0
 34 59  1  0  0  0
 34106  1  0  0  0
 35 44  2  0  0  0
 35 45  1  0  0  0
 35 68  1  0  0  0
 36 56  1  0  0  0
 36107  1  0  0  0
 37 39  1  0  0  0
 37 47  1  0  0  0
 37 66  1  0  0  0
 37108  1  0  0  0
 38 43  2  0  0  0
 38 46  1  0  0  0
 38 47  1  0  0  0
 39 64  1  0  0  0
 39 67  2  0  0  0
 40 52  1  0  0  0
 40 53  2  0  0  0
 40 58  1  0  0  0
 41109  1  0  0  0
 41110  1  0  0  0
 41111  1  0  0  0
 41 48  1  0  0  0
 42 43  1  0  0  0
 42 66  1  0  0  0
 42112  1  0  0  0
 42113  1  0  0  0
 43 44  1  0  0  0
 44114  1  0  0  0
 45 46  2  0  0  0
 45115  1  0  0  0
 46116  1  0  0  0
 47117  1  0  0  0
 47118  1  0  0  0
 48 56  1  0  0  0
 48 65  1  0  0  0
 48119  1  0  0  0
 49 50  1  0  0  0
 49 53  1  0  0  0
 49 64  1  0  0  0
 49120  1  0  0  0
 50 51  1  0  0  0
 50121  1  0  0  0
 50122  1  0  0  0
 51 52  1  0  0  0
 51123  1  0  0  0
 51124  1  0  0  0
 52125  1  0  0  0
 52126  1  0  0  0
 53 54  1  0  0  0
 54 55  2  0  0  0
 54127  1  0  0  0
 55 57  1  0  0  0
 55128  1  0  0  0
 56 69  2  0  0  0
 57 58  2  0  0  0
 57129  1  0  0  0
 58130  1  0  0  0
 59 60  1  0  0  0
 59 61  1  0  0  0
 59 62  1  0  0  0
 60131  1  0  0  0
 60132  1  0  0  0
 60133  1  0  0  0
 61134  1  0  0  0
 61135  1  0  0  0
 61136  1  0  0  0
 62137  1  0  0  0
 62138  1  0  0  0
 62139  1  0  0  0
 63 65  1  0  0  0
 63140  1  0  0  0
 63141  1  0  0  0
 63142  1  0  0  0
 64143  1  0  0  0
 65144  1  0  0  0
 68 79  1  0  0  0
 71 72  2  0  0  0
 71 75  1  0  0  0
 71145  1  0  0  0
 72 76  1  0  0  0
 72146  1  0  0  0
 73 74  1  0  0  0
 73 76  2  0  0  0
 73147  1  0  0  0
 74 75  2  0  0  0
 74 77  1  0  0  0
 75 80  1  0  0  0
 76 82  1  0  0  0
 77 81  1  0  0  0
 77 83  2  0  0  0
 78 79  1  0  0  0
 78 82  1  0  0  0
 78 84  2  0  0  0
 79 85  2  0  0  0
 80 81  1  0  0  0
 80148  1  0  0  0
 80149  1  0  0  0
 82150  1  0  0  0
M  ISO  4   1 100  68 101  79 101  81 100
M  END
> <chiral flag>
0

> <version>
0

> <s_m_source_file>
/data/baiqing/PycharmProjects/Reinvent-master-3.2/result/LINK_invent/BTK/process_docking_weight1_custom_product_contain_oxygen_bond_distance_aromatic_linkinvent_7_9_3/rearranged_h_0087.sdf

> <i_m_source_file_index>
19

> <r_mmod_Potential_Energy-OPLS-2005>
427.315979003906

> <r_mmod_Stretch_Energy-OPLS-2005>
174.23908996582

> <r_mmod_Bend_Energy-OPLS-2005>
297.320892333984

> <r_mmod_Torsional_Energy-OPLS-2005>
230.074066162109

> <r_mmod_Improper_Torsional_Energy-OPLS-2005>
5.28106117248535

> <r_mmod_Van_der_Waal_Energy-OPLS-2005>
149.735794067383

> <r_mmod_Electrostatic_Energy-OPLS-2005>
-357.404754638672

> <r_mmod_Solvation_Energy-OPLS-2005>
-206.575469970703

> <b_mmod_Minimization_Converged-OPLS-2005>
0

> <r_mmod_RMS_Derivative-OPLS-2005>
1.77155470848083

$$$$
19
                    3D
 Structure written by MMmdl.
155164  0  0  1  0            999 V2000
  -30.6127  -14.8296   20.4933 C   0  0  0  0  0  0
  -30.4336  -12.5228   19.4860 C   0  0  0  0  0  0
  -29.5150  -12.5339   18.2432 C   0  0  0  0  0  0
  -28.0422  -12.3404   18.6503 C   0  0  0  0  0  0
  -27.6369  -13.2409   19.8452 C   0  0  2  0  0  0
  -28.6767  -13.1852   20.9799 C   0  0  0  0  0  0
  -25.2488  -13.8215   20.5698 C   0  0  0  0  0  0
  -24.1785  -13.0449   20.9199 C   0  0  0  0  0  0
  -24.6387  -11.6929   20.8725 C   0  0  0  0  0  0
  -23.9069  -10.4300   21.0395 C   0  0  0  0  0  0
  -24.3621   -9.4214   21.9170 C   0  0  0  0  0  0
  -23.6299   -8.2249   22.0747 C   0  0  0  0  0  0
  -22.4277   -8.0284   21.3545 C   0  0  0  0  0  0
  -21.9910   -9.0254   20.4643 C   0  0  0  0  0  0
  -22.7239  -10.2135   20.3048 C   0  0  0  0  0  0
  -21.6853   -6.0736   22.5279 C   0  0  0  0  0  0
  -21.4012   -6.5641   23.8213 C   0  0  0  0  0  0
  -21.3663   -5.6793   24.9175 C   0  0  0  0  0  0
  -21.6043   -4.3055   24.7223 C   0  0  0  0  0  0
  -21.8819   -3.8147   23.4344 C   0  0  0  0  0  0
  -21.9191   -4.6964   22.3401 C   0  0  0  0  0  0
  -22.7805  -13.5220   21.1875 C   0  0  0  0  0  0
  -22.1658   -4.2152   21.0978 F   0  0  0  0  0  0
  -21.5634   -3.4538   25.7732 F   0  0  0  0  0  0
  -29.9712  -13.5960   20.4107 N   0  0  0  0  0  0
  -26.2907  -12.9432   20.3239 N   0  0  0  0  0  0
  -25.9314  -11.6565   20.5706 N   0  0  0  0  0  0
  -22.0463  -12.8203   22.0438 N   0  0  0  0  0  0
  -25.4206  -15.1942   20.4171 N   0  0  0  0  0  0
  -31.7807  -14.8902   20.0938 O   0  0  0  0  0  0
  -21.6645   -6.8877   21.4239 O   0  0  0  0  0  0
  -22.3475  -14.5517   20.6719 O   0  0  0  0  0  0
  -24.6379  -31.8493   23.1936 C   0  0  0  0  0  0
  -25.9178  -32.4722   23.8310 C   0  0  1  0  0  0
  -27.2209  -27.2080   20.1373 C   0  0  0  0  0  0
  -25.5954  -33.8530   24.2233 N   0  0  0  0  0  0
  -23.4393  -30.4705   21.5369 C   0  0  2  0  0  0
  -24.8904  -28.9085   20.1100 C   0  0  0  0  0  0
  -22.7541  -29.4581   22.4882 C   0  0  0  0  0  0
  -18.0301  -28.1393   22.8480 C   0  0  0  0  0  0
  -24.1489  -36.7268   23.2642 C   0  0  0  0  0  0
  -25.9906  -30.7445   21.3840 C   0  0  0  0  0  0
  -26.0654  -29.3620   20.7259 C   0  0  0  0  0  0
  -27.2370  -28.5244   20.7292 C   0  0  0  0  0  0
  -26.0250  -26.8372   19.4898 C   0  0  0  0  0  0
  -24.8776  -27.6552   19.4795 C   0  0  0  0  0  0
  -23.6626  -29.8010   20.1551 C   0  0  0  0  0  0
  -25.4115  -36.3053   24.0328 C   0  0  1  0  0  0
  -20.5913  -28.3719   23.1246 C   0  0  2  0  0  0
  -20.6786  -26.9427   22.5411 C   0  0  0  0  0  0
  -19.5761  -26.6384   21.5216 C   0  0  0  0  0  0
  -18.1940  -26.7936   22.1623 C   0  0  0  0  0  0
  -19.1556  -28.8875   23.2855 C   0  0  0  0  0  0
  -18.9473  -30.1469   23.8877 C   0  0  0  0  0  0
  -17.6471  -30.6591   24.0562 C   0  0  0  0  0  0
  -25.9063  -34.9425   23.5086 C   0  0  0  0  0  0
  -16.5362  -29.9084   23.6335 C   0  0  0  0  0  0
  -16.7284  -28.6502   23.0357 C   0  0  0  0  0  0
  -26.4515  -31.6575   25.0730 C   0  0  0  0  0  0
  -25.3715  -31.3757   26.1435 C   0  0  0  0  0  0
  -27.0370  -30.2975   24.6285 C   0  0  0  0  0  0
  -27.6060  -32.4331   25.7503 C   0  0  0  0  0  0
  -27.5576  -37.1784   24.8459 C   0  0  0  0  0  0
  -21.4242  -29.3055   22.3623 N   0  0  0  0  0  0
  -26.4279  -37.3763   23.9415 N   0  0  0  0  0  0
  -24.7086  -31.0407   22.0941 N   0  0  0  0  0  0
  -23.4210  -28.8128   23.3011 O   0  0  0  0  0  0
  -28.2467  -26.2172   20.1726 O   0  0  0  0  0  0
  -26.5639  -34.8912   22.4655 O   0  0  0  0  0  0
  -23.5513  -32.1344   23.7191 O   0  0  0  0  0  0
  -30.6198  -18.7125   18.2415 C   0  0  0  0  0  0
  -30.1299  -19.9196   18.7818 C   0  0  0  0  0  0
  -30.5289  -17.4849   18.9275 C   0  0  0  0  0  0
  -29.4971  -19.9767   20.0455 C   0  0  0  0  0  0
  -29.9533  -17.3831   20.2150 C   0  0  0  0  0  0
  -29.4217  -18.6685   20.7374 C   0  0  0  0  0  0
  -28.2527  -23.6221   20.8696 C   0  0  0  0  0  0
  -27.6779  -22.7787   21.9139 C   0  0  0  0  0  0
  -29.0466  -22.6443   20.0401 C   0  0  0  0  0  0
  -27.9484  -25.0064   20.8906 C   0  0  0  0  0  0
  -28.1233  -21.3352   21.7454 C   0  0  0  0  0  0
  -29.5522  -16.0214   22.3086 C   0  0  0  0  0  0
  -28.9510  -21.3170   20.5388 N   0  0  0  0  0  0
  -29.9377  -16.0123   20.8918 N   0  0  0  0  0  0
  -26.9334  -23.1329   22.8359 O   0  0  0  0  0  0
  -29.7066  -22.9636   19.0451 O   0  0  0  0  0  0
  -28.8056  -18.6513   21.9423 F   0  0  0  0  0  0
  -31.4709  -12.6571   19.1765 H   0  0  0  0  0  0
  -30.4026  -11.5500   19.9794 H   0  0  0  0  0  0
  -29.8158  -11.7543   17.5417 H   0  0  0  0  0  0
  -29.6264  -13.4815   17.7136 H   0  0  0  0  0  0
  -27.9092  -11.2917   18.9175 H   0  0  0  0  0  0
  -27.3852  -12.5230   17.7989 H   0  0  0  0  0  0
  -27.6275  -14.2636   19.4661 H   0  0  0  0  0  0
  -28.7411  -12.1790   21.3977 H   0  0  0  0  0  0
  -28.3530  -13.8208   21.7990 H   0  0  0  0  0  0
  -25.2766   -9.5694   22.4741 H   0  0  0  0  0  0
  -24.0011   -7.4638   22.7462 H   0  0  0  0  0  0
  -21.0842   -8.8769   19.8948 H   0  0  0  0  0  0
  -22.3690  -10.9671   19.6156 H   0  0  0  0  0  0
  -21.1999   -7.6149   23.9719 H   0  0  0  0  0  0
  -21.1488   -6.0521   25.9079 H   0  0  0  0  0  0
  -22.0594   -2.7612   23.2840 H   0  0  0  0  0  0
  -22.4095  -11.9870   22.4820 H   0  0  0  0  0  0
  -21.1078  -13.1216   22.2660 H   0  0  0  0  0  0
  -24.6623  -15.8552   20.5433 H   0  0  0  0  0  0
  -26.2869  -15.6347   20.1340 H   0  0  0  0  0  0
  -26.7252  -32.5351   23.1057 H   0  0  0  0  0  0
  -25.0092  -33.9661   25.0376 H   0  0  0  0  0  0
  -22.7395  -31.2950   21.3849 H   0  0  0  0  0  0
  -23.3760  -35.9591   23.3284 H   0  0  0  0  0  0
  -24.3577  -36.8909   22.2059 H   0  0  0  0  0  0
  -23.7233  -37.6458   23.6680 H   0  0  0  0  0  0
  -26.1389  -31.5022   20.6137 H   0  0  0  0  0  0
  -26.8638  -30.7942   22.0222 H   0  0  0  0  0  0
  -28.1332  -28.8616   21.2308 H   0  0  0  0  0  0
  -25.9649  -25.8675   19.0159 H   0  0  0  0  0  0
  -23.9789  -27.3006   18.9929 H   0  0  0  0  0  0
  -23.7916  -30.5747   19.3975 H   0  0  0  0  0  0
  -22.7805  -29.2363   19.8477 H   0  0  0  0  0  0
  -25.1299  -36.1885   25.0821 H   0  0  0  0  0  0
  -21.0006  -28.3301   24.1367 H   0  0  0  0  0  0
  -20.5671  -26.2335   23.3628 H   0  0  0  0  0  0
  -21.6647  -26.7429   22.1204 H   0  0  0  0  0  0
  -19.6912  -25.6286   21.1258 H   0  0  0  0  0  0
  -19.6689  -27.3183   20.6736 H   0  0  0  0  0  0
  -17.4211  -26.6693   21.4027 H   0  0  0  0  0  0
  -18.0324  -26.0079   22.9015 H   0  0  0  0  0  0
  -19.7949  -30.7293   24.2238 H   0  0  0  0  0  0
  -17.5023  -31.6264   24.5170 H   0  0  0  0  0  0
  -15.5360  -30.2981   23.7667 H   0  0  0  0  0  0
  -15.8687  -28.0814   22.7086 H   0  0  0  0  0  0
  -24.5917  -30.7073   25.7771 H   0  0  0  0  0  0
  -24.8873  -32.2932   26.4790 H   0  0  0  0  0  0
  -25.8015  -30.8994   27.0255 H   0  0  0  0  0  0
  -26.2982  -29.6708   24.1276 H   0  0  0  0  0  0
  -27.3976  -29.7266   25.4853 H   0  0  0  0  0  0
  -27.8896  -30.4218   23.9604 H   0  0  0  0  0  0
  -27.2667  -33.3652   26.2034 H   0  0  0  0  0  0
  -28.3886  -32.6854   25.0337 H   0  0  0  0  0  0
  -28.0707  -31.8483   26.5450 H   0  0  0  0  0  0
  -28.2576  -38.0095   24.7518 H   0  0  0  0  0  0
  -28.1088  -36.2628   24.6264 H   0  0  0  0  0  0
  -27.2298  -37.1398   25.8861 H   0  0  0  0  0  0
  -20.9451  -29.8773   21.6808 H   0  0  0  0  0  0
  -26.0150  -38.2831   24.1430 H   0  0  0  0  0  0
  -31.0819  -18.7286   17.2636 H   0  0  0  0  0  0
  -30.2423  -20.8031   18.1738 H   0  0  0  0  0  0
  -30.9317  -16.6143   18.4312 H   0  0  0  0  0  0
  -27.2996  -25.3079   21.7025 H   0  0  0  0  0  0
  -27.2553  -20.6860   21.6304 H   0  0  0  0  0  0
  -28.6959  -21.0227   22.6185 H   0  0  0  0  0  0
  -30.0630  -16.8283   22.8348 H   0  0  0  0  0  0
  -29.8237  -15.1117   22.8491 H   0  0  0  0  0  0
  -28.4761  -16.1651   22.4148 H   0  0  0  0  0  0
  1 25  1  0  0  0
  1 30  2  0  0  0
  1 84  1  0  0  0
  2  3  1  0  0  0
  2 25  1  0  0  0
  2 88  1  0  0  0
  2 89  1  0  0  0
  3  4  1  0  0  0
  3 90  1  0  0  0
  3 91  1  0  0  0
  4  5  1  0  0  0
  4 92  1  0  0  0
  4 93  1  0  0  0
  5  6  1  0  0  0
  5 26  1  0  0  0
  5 94  1  0  0  0
  6 25  1  0  0  0
  6 95  1  0  0  0
  6 96  1  0  0  0
  7  8  2  0  0  0
  7 26  1  0  0  0
  7 29  1  0  0  0
  8  9  1  0  0  0
  8 22  1  0  0  0
  9 10  1  0  0  0
  9 27  2  0  0  0
 10 11  2  0  0  0
 10 15  1  0  0  0
 11 12  1  0  0  0
 11 97  1  0  0  0
 12 13  2  0  0  0
 12 98  1  0  0  0
 13 14  1  0  0  0
 13 31  1  0  0  0
 14 15  2  0  0  0
 14 99  1  0  0  0
 15100  1  0  0  0
 16 17  2  0  0  0
 16 21  1  0  0  0
 16 31  1  0  0  0
 17 18  1  0  0  0
 17101  1  0  0  0
 18 19  2  0  0  0
 18102  1  0  0  0
 19 20  1  0  0  0
 19 24  1  0  0  0
 20 21  2  0  0  0
 20103  1  0  0  0
 21 23  1  0  0  0
 22 28  1  0  0  0
 22 32  2  0  0  0
 26 27  1  0  0  0
 28104  1  0  0  0
 28105  1  0  0  0
 29106  1  0  0  0
 29107  1  0  0  0
 33 34  1  0  0  0
 33 66  1  0  0  0
 33 70  2  0  0  0
 34 36  1  0  0  0
 34 59  1  0  0  0
 34108  1  0  0  0
 35 44  2  0  0  0
 35 45  1  0  0  0
 35 68  1  0  0  0
 36 56  1  0  0  0
 36109  1  0  0  0
 37 39  1  0  0  0
 37 47  1  0  0  0
 37 66  1  0  0  0
 37110  1  0  0  0
 38 43  2  0  0  0
 38 46  1  0  0  0
 38 47  1  0  0  0
 39 64  1  0  0  0
 39 67  2  0  0  0
 40 52  1  0  0  0
 40 53  2  0  0  0
 40 58  1  0  0  0
 41111  1  0  0  0
 41112  1  0  0  0
 41113  1  0  0  0
 41 48  1  0  0  0
 42 43  1  0  0  0
 42 66  1  0  0  0
 42114  1  0  0  0
 42115  1  0  0  0
 43 44  1  0  0  0
 44116  1  0  0  0
 45 46  2  0  0  0
 45117  1  0  0  0
 46118  1  0  0  0
 47119  1  0  0  0
 47120  1  0  0  0
 48 56  1  0  0  0
 48 65  1  0  0  0
 48121  1  0  0  0
 49 50  1  0  0  0
 49 53  1  0  0  0
 49 64  1  0  0  0
 49122  1  0  0  0
 50 51  1  0  0  0
 50123  1  0  0  0
 50124  1  0  0  0
 51 52  1  0  0  0
 51125  1  0  0  0
 51126  1  0  0  0
 52127  1  0  0  0
 52128  1  0  0  0
 53 54  1  0  0  0
 54 55  2  0  0  0
 54129  1  0  0  0
 55 57  1  0  0  0
 55130  1  0  0  0
 56 69  2  0  0  0
 57 58  2  0  0  0
 57131  1  0  0  0
 58132  1  0  0  0
 59 60  1  0  0  0
 59 61  1  0  0  0
 59 62  1  0  0  0
 60133  1  0  0  0
 60134  1  0  0  0
 60135  1  0  0  0
 61136  1  0  0  0
 61137  1  0  0  0
 61138  1  0  0  0
 62139  1  0  0  0
 62140  1  0  0  0
 62141  1  0  0  0
 63 65  1  0  0  0
 63142  1  0  0  0
 63143  1  0  0  0
 63144  1  0  0  0
 64145  1  0  0  0
 65146  1  0  0  0
 68 80  1  0  0  0
 71 72  2  0  0  0
 71 73  1  0  0  0
 71147  1  0  0  0
 72 74  1  0  0  0
 72148  1  0  0  0
 73 75  2  0  0  0
 73149  1  0  0  0
 74 76  2  0  0  0
 74 83  1  0  0  0
 75 76  1  0  0  0
 75 84  1  0  0  0
 76 87  1  0  0  0
 77 78  1  0  0  0
 77 79  1  0  0  0
 77 80  2  0  0  0
 78 81  1  0  0  0
 78 85  2  0  0  0
 79 83  1  0  0  0
 79 86  2  0  0  0
 80150  1  0  0  0
 81 83  1  0  0  0
 81151  1  0  0  0
 81152  1  0  0  0
 82 84  1  0  0  0
 82153  1  0  0  0
 82154  1  0  0  0
 82155  1  0  0  0
M  ISO  4   1 100  68 101  80 101  84 100
M  END
> <chiral flag>
0

> <version>
0

> <s_m_source_file>
/data/baiqing/PycharmProjects/Reinvent-master-3.2/result/LINK_invent/BTK/process_docking_weight1_custom_product_contain_oxygen_bond_distance_aromatic_linkinvent_7_9_3/rearranged_h_0087.sdf

> <i_m_source_file_index>
20

> <r_mmod_Potential_Energy-OPLS-2005>
536.594970703125

> <r_mmod_Stretch_Energy-OPLS-2005>
191.479675292969

> <r_mmod_Bend_Energy-OPLS-2005>
288.360687255859

> <r_mmod_Torsional_Energy-OPLS-2005>
309.890563964844

> <r_mmod_Improper_Torsional_Energy-OPLS-2005>
3.67642736434937

> <r_mmod_Van_der_Waal_Energy-OPLS-2005>
151.537628173828

> <r_mmod_Electrostatic_Energy-OPLS-2005>
-322.290466308594

> <r_mmod_Solvation_Energy-OPLS-2005>
-212.2138671875

> <b_mmod_Minimization_Converged-OPLS-2005>
0

> <r_mmod_RMS_Derivative-OPLS-2005>
1.02926921844482

$$$$
20
                    3D
 Structure written by MMmdl.
150159  0  0  1  0            999 V2000
  -30.5692  -14.7421   20.4850 C   0  0  0  0  0  0
  -30.4511  -12.4556   19.4667 C   0  0  0  0  0  0
  -29.5167  -12.5196   18.2354 C   0  0  0  0  0  0
  -28.0415  -12.3384   18.6472 C   0  0  0  0  0  0
  -27.6514  -13.2208   19.8618 C   0  0  2  0  0  0
  -28.6968  -13.1055   20.9942 C   0  0  0  0  0  0
  -25.2559  -13.8174   20.5689 C   0  0  0  0  0  0
  -24.1830  -13.0437   20.9196 C   0  0  0  0  0  0
  -24.6401  -11.6907   20.8741 C   0  0  0  0  0  0
  -23.9068  -10.4291   21.0407 C   0  0  0  0  0  0
  -24.3618   -9.4205   21.9186 C   0  0  0  0  0  0
  -23.6292   -8.2241   22.0755 C   0  0  0  0  0  0
  -22.4275   -8.0280   21.3543 C   0  0  0  0  0  0
  -21.9909   -9.0255   20.4647 C   0  0  0  0  0  0
  -22.7237  -10.2136   20.3058 C   0  0  0  0  0  0
  -21.6853   -6.0734   22.5277 C   0  0  0  0  0  0
  -21.4013   -6.5638   23.8211 C   0  0  0  0  0  0
  -21.3661   -5.6792   24.9174 C   0  0  0  0  0  0
  -21.6046   -4.3055   24.7226 C   0  0  0  0  0  0
  -21.8819   -3.8144   23.4347 C   0  0  0  0  0  0
  -21.9194   -4.6961   22.3402 C   0  0  0  0  0  0
  -22.7851  -13.5229   21.1858 C   0  0  0  0  0  0
  -22.1663   -4.2146   21.0980 F   0  0  0  0  0  0
  -21.5630   -3.4539   25.7739 F   0  0  0  0  0  0
  -30.0028  -13.4861   20.4307 N   0  0  0  0  0  0
  -26.2984  -12.9356   20.3309 N   0  0  0  0  0  0
  -25.9333  -11.6509   20.5755 N   0  0  0  0  0  0
  -22.0493  -12.8223   22.0415 N   0  0  0  0  0  0
  -25.4275  -15.1895   20.4100 N   0  0  0  0  0  0
  -31.7264  -14.9244   20.0924 O   0  0  0  0  0  0
  -21.6639   -6.8876   21.4239 O   0  0  0  0  0  0
  -22.3536  -14.5535   20.6704 O   0  0  0  0  0  0
  -24.6314  -31.8549   23.1984 C   0  0  0  0  0  0
  -25.9134  -32.4756   23.8333 C   0  0  1  0  0  0
  -27.2250  -27.2670   20.1294 C   0  0  0  0  0  0
  -25.5927  -33.8558   24.2257 N   0  0  0  0  0  0
  -23.4299  -30.4768   21.5412 C   0  0  2  0  0  0
  -24.8813  -28.9255   20.1089 C   0  0  0  0  0  0
  -22.7508  -29.4598   22.4904 C   0  0  0  0  0  0
  -18.0293  -28.1387   22.8484 C   0  0  0  0  0  0
  -24.1489  -36.7287   23.2640 C   0  0  0  0  0  0
  -25.9762  -30.7685   21.3801 C   0  0  0  0  0  0
  -26.0527  -29.3913   20.7223 C   0  0  0  0  0  0
  -27.2303  -28.5734   20.7248 C   0  0  0  0  0  0
  -26.0356  -26.8726   19.4803 C   0  0  0  0  0  0
  -24.8772  -27.6731   19.4764 C   0  0  0  0  0  0
  -23.6501  -29.8107   20.1576 C   0  0  0  0  0  0
  -25.4115  -36.3072   24.0326 C   0  0  1  0  0  0
  -20.5898  -28.3700   23.1263 C   0  0  2  0  0  0
  -20.6781  -26.9416   22.5405 C   0  0  0  0  0  0
  -19.5756  -26.6381   21.5211 C   0  0  0  0  0  0
  -18.1937  -26.7927   22.1628 C   0  0  0  0  0  0
  -19.1547  -28.8861   23.2868 C   0  0  0  0  0  0
  -18.9469  -30.1460   23.8888 C   0  0  0  0  0  0
  -17.6468  -30.6588   24.0562 C   0  0  0  0  0  0
  -25.9054  -34.9440   23.5096 C   0  0  0  0  0  0
  -16.5358  -29.9085   23.6332 C   0  0  0  0  0  0
  -16.7280  -28.6503   23.0354 C   0  0  0  0  0  0
  -26.4501  -31.6579   25.0723 C   0  0  0  0  0  0
  -25.3721  -31.3735   26.1441 C   0  0  0  0  0  0
  -27.0351  -30.2993   24.6217 C   0  0  0  0  0  0
  -27.6049  -32.4325   25.7499 C   0  0  0  0  0  0
  -27.5577  -37.1802   24.8467 C   0  0  0  0  0  0
  -21.4213  -29.3046   22.3649 N   0  0  0  0  0  0
  -26.4294  -37.3768   23.9402 N   0  0  0  0  0  0
  -24.6980  -31.0509   22.0963 N   0  0  0  0  0  0
  -23.4201  -28.8136   23.3008 O   0  0  0  0  0  0
  -28.2753  -26.3204   20.1787 O   0  0  0  0  0  0
  -26.5632  -34.8914   22.4668 O   0  0  0  0  0  0
  -23.5459  -32.1370   23.7272 O   0  0  0  0  0  0
  -28.4147  -19.3382   21.3791 C   0  0  0  0  0  0
  -28.6190  -17.9253   21.4410 C   0  0  0  0  0  0
  -30.5052  -18.1406   20.0189 C   0  0  0  0  0  0
  -29.2142  -20.2597   20.6377 C   0  0  0  0  0  0
  -29.6714  -17.2542   20.7664 C   0  0  0  0  0  0
  -30.2800  -19.5711   19.9586 C   0  0  0  0  0  0
  -28.4329  -23.7445   20.6059 C   0  0  0  0  0  0
  -27.9293  -22.5503   21.2765 C   0  0  0  0  0  0
  -27.9469  -25.0473   20.7329 C   0  0  0  0  0  0
  -29.4929  -22.8503   19.8929 C   0  0  0  0  0  0
  -28.8819  -21.7191   20.6560 N   0  0  0  0  0  0
  -29.7268  -15.7694   20.8755 N   0  0  0  0  0  0
  -27.0121  -22.4075   22.0586 O   0  0  0  0  0  0
  -31.1316  -20.3109   19.2077 F   0  0  0  0  0  0
  -31.4873  -12.6086   19.1603 H   0  0  0  0  0  0
  -30.4187  -11.4666   19.9261 H   0  0  0  0  0  0
  -29.7977  -11.7565   17.5082 H   0  0  0  0  0  0
  -29.6392  -13.4802   17.7325 H   0  0  0  0  0  0
  -27.8950  -11.2863   18.8949 H   0  0  0  0  0  0
  -27.3838  -12.5451   17.8020 H   0  0  0  0  0  0
  -27.6590  -14.2508   19.5047 H   0  0  0  0  0  0
  -28.7335  -12.0856   21.3802 H   0  0  0  0  0  0
  -28.4237  -13.7328   21.8440 H   0  0  0  0  0  0
  -25.2766   -9.5679   22.4757 H   0  0  0  0  0  0
  -24.0002   -7.4631   22.7474 H   0  0  0  0  0  0
  -21.0839   -8.8773   19.8953 H   0  0  0  0  0  0
  -22.3696  -10.9675   19.6166 H   0  0  0  0  0  0
  -21.2003   -7.6146   23.9713 H   0  0  0  0  0  0
  -21.1484   -6.0523   25.9077 H   0  0  0  0  0  0
  -22.0597   -2.7606   23.2849 H   0  0  0  0  0  0
  -22.4110  -11.9886   22.4805 H   0  0  0  0  0  0
  -21.1109  -13.1249   22.2618 H   0  0  0  0  0  0
  -24.6575  -15.8417   20.5111 H   0  0  0  0  0  0
  -26.2692  -15.6257   20.0557 H   0  0  0  0  0  0
  -26.7202  -32.5412   23.1077 H   0  0  0  0  0  0
  -25.0057  -33.9692   25.0390 H   0  0  0  0  0  0
  -22.7266  -31.2991   21.3942 H   0  0  0  0  0  0
  -23.3747  -35.9625   23.3312 H   0  0  0  0  0  0
  -24.3575  -36.8900   22.2053 H   0  0  0  0  0  0
  -23.7250  -37.6494   23.6659 H   0  0  0  0  0  0
  -26.1149  -31.5293   20.6105 H   0  0  0  0  0  0
  -26.8530  -30.8180   22.0142 H   0  0  0  0  0  0
  -28.1244  -28.9185   21.2249 H   0  0  0  0  0  0
  -25.9906  -25.9060   18.9985 H   0  0  0  0  0  0
  -23.9820  -27.3108   18.9898 H   0  0  0  0  0  0
  -23.7730  -30.5874   19.4019 H   0  0  0  0  0  0
  -22.7692  -29.2432   19.8524 H   0  0  0  0  0  0
  -25.1299  -36.1923   25.0821 H   0  0  0  0  0  0
  -20.9994  -28.3282   24.1382 H   0  0  0  0  0  0
  -20.5678  -26.2313   23.3613 H   0  0  0  0  0  0
  -21.6649  -26.7436   22.1201 H   0  0  0  0  0  0
  -19.6918  -25.6290   21.1246 H   0  0  0  0  0  0
  -19.6690  -27.3187   20.6737 H   0  0  0  0  0  0
  -17.4204  -26.6666   21.4035 H   0  0  0  0  0  0
  -18.0347  -26.0071   22.9028 H   0  0  0  0  0  0
  -19.7944  -30.7279   24.2254 H   0  0  0  0  0  0
  -17.5022  -31.6267   24.5165 H   0  0  0  0  0  0
  -15.5359  -30.2987   23.7655 H   0  0  0  0  0  0
  -15.8680  -28.0818   22.7075 H   0  0  0  0  0  0
  -24.5883  -30.7104   25.7763 H   0  0  0  0  0  0
  -24.8932  -32.2912   26.4868 H   0  0  0  0  0  0
  -25.8030  -30.8900   27.0218 H   0  0  0  0  0  0
  -26.2942  -29.6738   24.1227 H   0  0  0  0  0  0
  -27.4010  -29.7259   25.4744 H   0  0  0  0  0  0
  -27.8829  -30.4260   23.9480 H   0  0  0  0  0  0
  -27.2645  -33.3622   26.2070 H   0  0  0  0  0  0
  -28.3863  -32.6891   25.0335 H   0  0  0  0  0  0
  -28.0714  -31.8458   26.5423 H   0  0  0  0  0  0
  -28.2605  -38.0089   24.7496 H   0  0  0  0  0  0
  -28.1064  -36.2619   24.6320 H   0  0  0  0  0  0
  -27.2292  -37.1482   25.8870 H   0  0  0  0  0  0
  -20.9399  -29.8771   21.6856 H   0  0  0  0  0  0
  -26.0176  -38.2846   24.1388 H   0  0  0  0  0  0
  -27.5767  -19.7268   21.9396 H   0  0  0  0  0  0
  -27.9237  -17.3468   22.0337 H   0  0  0  0  0  0
  -31.3323  -17.7308   19.4585 H   0  0  0  0  0  0
  -27.1165  -25.1720   21.4163 H   0  0  0  0  0  0
  -30.5402  -22.9998   20.1597 H   0  0  0  0  0  0
  -29.3912  -22.7119   18.8152 H   0  0  0  0  0  0
  -28.8841  -15.3800   21.2699 H   0  0  0  0  0  0
  1 25  1  0  0  0
  1 30  2  0  0  0
  1 82  1  0  0  0
  2  3  1  0  0  0
  2 25  1  0  0  0
  2 85  1  0  0  0
  2 86  1  0  0  0
  3  4  1  0  0  0
  3 87  1  0  0  0
  3 88  1  0  0  0
  4  5  1  0  0  0
  4 89  1  0  0  0
  4 90  1  0  0  0
  5  6  1  0  0  0
  5 26  1  0  0  0
  5 91  1  0  0  0
  6 25  1  0  0  0
  6 92  1  0  0  0
  6 93  1  0  0  0
  7  8  2  0  0  0
  7 26  1  0  0  0
  7 29  1  0  0  0
  8  9  1  0  0  0
  8 22  1  0  0  0
  9 10  1  0  0  0
  9 27  2  0  0  0
 10 11  2  0  0  0
 10 15  1  0  0  0
 11 12  1  0  0  0
 11 94  1  0  0  0
 12 13  2  0  0  0
 12 95  1  0  0  0
 13 14  1  0  0  0
 13 31  1  0  0  0
 14 15  2  0  0  0
 14 96  1  0  0  0
 15 97  1  0  0  0
 16 17  2  0  0  0
 16 21  1  0  0  0
 16 31  1  0  0  0
 17 18  1  0  0  0
 17 98  1  0  0  0
 18 19  2  0  0  0
 18 99  1  0  0  0
 19 20  1  0  0  0
 19 24  1  0  0  0
 20 21  2  0  0  0
 20100  1  0  0  0
 21 23  1  0  0  0
 22 28  1  0  0  0
 22 32  2  0  0  0
 26 27  1  0  0  0
 28101  1  0  0  0
 28102  1  0  0  0
 29103  1  0  0  0
 29104  1  0  0  0
 33 34  1  0  0  0
 33 66  1  0  0  0
 33 70  2  0  0  0
 34 36  1  0  0  0
 34 59  1  0  0  0
 34105  1  0  0  0
 35 44  2  0  0  0
 35 45  1  0  0  0
 35 68  1  0  0  0
 36 56  1  0  0  0
 36106  1  0  0  0
 37 39  1  0  0  0
 37 47  1  0  0  0
 37 66  1  0  0  0
 37107  1  0  0  0
 38 43  2  0  0  0
 38 46  1  0  0  0
 38 47  1  0  0  0
 39 64  1  0  0  0
 39 67  2  0  0  0
 40 52  1  0  0  0
 40 53  2  0  0  0
 40 58  1  0  0  0
 41108  1  0  0  0
 41109  1  0  0  0
 41110  1  0  0  0
 41 48  1  0  0  0
 42 43  1  0  0  0
 42 66  1  0  0  0
 42111  1  0  0  0
 42112  1  0  0  0
 43 44  1  0  0  0
 44113  1  0  0  0
 45 46  2  0  0  0
 45114  1  0  0  0
 46115  1  0  0  0
 47116  1  0  0  0
 47117  1  0  0  0
 48 56  1  0  0  0
 48 65  1  0  0  0
 48118  1  0  0  0
 49 50  1  0  0  0
 49 53  1  0  0  0
 49 64  1  0  0  0
 49119  1  0  0  0
 50 51  1  0  0  0
 50120  1  0  0  0
 50121  1  0  0  0
 51 52  1  0  0  0
 51122  1  0  0  0
 51123  1  0  0  0
 52124  1  0  0  0
 52125  1  0  0  0
 53 54  1  0  0  0
 54 55  2  0  0  0
 54126  1  0  0  0
 55 57  1  0  0  0
 55127  1  0  0  0
 56 69  2  0  0  0
 57 58  2  0  0  0
 57128  1  0  0  0
 58129  1  0  0  0
 59 60  1  0  0  0
 59 61  1  0  0  0
 59 62  1  0  0  0
 60130  1  0  0  0
 60131  1  0  0  0
 60132  1  0  0  0
 61133  1  0  0  0
 61134  1  0  0  0
 61135  1  0  0  0
 62136  1  0  0  0
 62137  1  0  0  0
 62138  1  0  0  0
 63 65  1  0  0  0
 63139  1  0  0  0
 63140  1  0  0  0
 63141  1  0  0  0
 64142  1  0  0  0
 65143  1  0  0  0
 68 79  1  0  0  0
 71 72  2  0  0  0
 71 74  1  0  0  0
 71144  1  0  0  0
 72 75  1  0  0  0
 72145  1  0  0  0
 73 75  2  0  0  0
 73 76  1  0  0  0
 73146  1  0  0  0
 74 76  2  0  0  0
 74 81  1  0  0  0
 75 82  1  0  0  0
 76 84  1  0  0  0
 77 78  1  0  0  0
 77 79  2  0  0  0
 77 80  1  0  0  0
 78 81  1  0  0  0
 78 83  2  0  0  0
 79147  1  0  0  0
 80 81  1  0  0  0
 80148  1  0  0  0
 80149  1  0  0  0
 82150  1  0  0  0
M  ISO  4   1 100  68 101  79 101  82 100
M  END
> <chiral flag>
0

> <version>
0

> <s_m_source_file>
/data/baiqing/PycharmProjects/Reinvent-master-3.2/result/LINK_invent/BTK/process_docking_weight1_custom_product_contain_oxygen_bond_distance_aromatic_linkinvent_7_9_3/rearranged_h_0087.sdf

> <i_m_source_file_index>
21

> <r_mmod_Potential_Energy-OPLS-2005>
227.970703125

> <r_mmod_Stretch_Energy-OPLS-2005>
107.681640625

> <r_mmod_Bend_Energy-OPLS-2005>
270.576690673828

> <r_mmod_Torsional_Energy-OPLS-2005>
220.03254699707

> <r_mmod_Improper_Torsional_Energy-OPLS-2005>
3.48363852500916

> <r_mmod_Van_der_Waal_Energy-OPLS-2005>
134.12727355957

> <r_mmod_Electrostatic_Energy-OPLS-2005>
-381.995819091797

> <r_mmod_Solvation_Energy-OPLS-2005>
-213.960922241211

> <b_mmod_Minimization_Converged-OPLS-2005>
0

> <r_mmod_RMS_Derivative-OPLS-2005>
0.390327841043472

$$$$
21
                    3D
 Structure written by MMmdl.
155164  0  0  1  0            999 V2000
  -30.6318  -14.7403   20.5632 C   0  0  0  0  0  0
  -30.4345  -12.4794   19.4722 C   0  0  0  0  0  0
  -29.5102  -12.5469   18.2333 C   0  0  0  0  0  0
  -28.0378  -12.3514   18.6397 C   0  0  0  0  0  0
  -27.6457  -13.2318   19.8530 C   0  0  2  0  0  0
  -28.6811  -13.1266   20.9881 C   0  0  0  0  0  0
  -25.2542  -13.8207   20.5689 C   0  0  0  0  0  0
  -24.1825  -13.0453   20.9184 C   0  0  0  0  0  0
  -24.6413  -11.6925   20.8720 C   0  0  0  0  0  0
  -23.9091  -10.4298   21.0392 C   0  0  0  0  0  0
  -24.3631   -9.4211   21.9179 C   0  0  0  0  0  0
  -23.6298   -8.2247   22.0749 C   0  0  0  0  0  0
  -22.4284   -8.0292   21.3532 C   0  0  0  0  0  0
  -21.9918   -9.0279   20.4645 C   0  0  0  0  0  0
  -22.7255  -10.2154   20.3050 C   0  0  0  0  0  0
  -21.6856   -6.0730   22.5267 C   0  0  0  0  0  0
  -21.4015   -6.5632   23.8203 C   0  0  0  0  0  0
  -21.3669   -5.6785   24.9168 C   0  0  0  0  0  0
  -21.6043   -4.3049   24.7214 C   0  0  0  0  0  0
  -21.8818   -3.8141   23.4336 C   0  0  0  0  0  0
  -21.9198   -4.6956   22.3391 C   0  0  0  0  0  0
  -22.7841  -13.5237   21.1858 C   0  0  0  0  0  0
  -22.1660   -4.2136   21.0968 F   0  0  0  0  0  0
  -21.5648   -3.4537   25.7733 F   0  0  0  0  0  0
  -29.9933  -13.5157   20.4420 N   0  0  0  0  0  0
  -26.2956  -12.9409   20.3250 N   0  0  0  0  0  0
  -25.9336  -11.6549   20.5698 N   0  0  0  0  0  0
  -22.0490  -12.8230   22.0418 N   0  0  0  0  0  0
  -25.4274  -15.1928   20.4141 N   0  0  0  0  0  0
  -31.7407  -14.8941   20.0410 O   0  0  0  0  0  0
  -21.6647   -6.8885   21.4233 O   0  0  0  0  0  0
  -22.3513  -14.5540   20.6707 O   0  0  0  0  0  0
  -24.6316  -31.8533   23.1966 C   0  0  0  0  0  0
  -25.9139  -32.4737   23.8331 C   0  0  1  0  0  0
  -27.2263  -27.2613   20.1336 C   0  0  0  0  0  0
  -25.5934  -33.8544   24.2244 N   0  0  0  0  0  0
  -23.4305  -30.4746   21.5385 C   0  0  2  0  0  0
  -24.8844  -28.9208   20.1103 C   0  0  0  0  0  0
  -22.7518  -29.4575   22.4883 C   0  0  0  0  0  0
  -18.0296  -28.1365   22.8480 C   0  0  0  0  0  0
  -24.1496  -36.7279   23.2642 C   0  0  0  0  0  0
  -25.9776  -30.7667   21.3780 C   0  0  0  0  0  0
  -26.0558  -29.3873   20.7237 C   0  0  0  0  0  0
  -27.2340  -28.5694   20.7269 C   0  0  0  0  0  0
  -26.0358  -26.8590   19.4974 C   0  0  0  0  0  0
  -24.8795  -27.6636   19.4846 C   0  0  0  0  0  0
  -23.6537  -29.8073   20.1550 C   0  0  0  0  0  0
  -25.4118  -36.3050   24.0326 C   0  0  1  0  0  0
  -20.5903  -28.3675   23.1254 C   0  0  2  0  0  0
  -20.6764  -26.9381   22.5406 C   0  0  0  0  0  0
  -19.5747  -26.6358   21.5200 C   0  0  0  0  0  0
  -18.1930  -26.7911   22.1610 C   0  0  0  0  0  0
  -19.1554  -28.8835   23.2867 C   0  0  0  0  0  0
  -18.9471  -30.1429   23.8894 C   0  0  0  0  0  0
  -17.6468  -30.6564   24.0549 C   0  0  0  0  0  0
  -25.9058  -34.9424   23.5081 C   0  0  0  0  0  0
  -16.5359  -29.9055   23.6319 C   0  0  0  0  0  0
  -16.7283  -28.6472   23.0347 C   0  0  0  0  0  0
  -26.4499  -31.6563   25.0723 C   0  0  0  0  0  0
  -25.3722  -31.3726   26.1446 C   0  0  0  0  0  0
  -27.0347  -30.2977   24.6207 C   0  0  0  0  0  0
  -27.6060  -32.4296   25.7500 C   0  0  0  0  0  0
  -27.5579  -37.1795   24.8460 C   0  0  0  0  0  0
  -21.4220  -29.3029   22.3650 N   0  0  0  0  0  0
  -26.4287  -37.3749   23.9409 N   0  0  0  0  0  0
  -24.6988  -31.0491   22.0946 N   0  0  0  0  0  0
  -23.4216  -28.8107   23.2980 O   0  0  0  0  0  0
  -28.2709  -26.3108   20.1527 O   0  0  0  0  0  0
  -26.5630  -34.8906   22.4650 O   0  0  0  0  0  0
  -23.5459  -32.1358   23.7242 O   0  0  0  0  0  0
  -30.5131  -19.6192   21.4791 C   0  0  0  0  0  0
  -30.7753  -18.2107   21.5248 C   0  0  0  0  0  0
  -28.6149  -19.2235   20.0874 C   0  0  0  0  0  0
  -29.4001  -20.1899   20.7941 C   0  0  0  0  0  0
  -29.9429  -17.2345   20.9000 C   0  0  0  0  0  0
  -28.8712  -17.8002   20.1410 C   0  0  0  0  0  0
  -28.4344  -23.9130   21.2379 C   0  0  0  0  0  0
  -28.2432  -23.3022   22.5474 C   0  0  0  0  0  0
  -28.8880  -22.7825   20.3539 C   0  0  0  0  0  0
  -28.1798  -25.2899   21.1332 C   0  0  0  0  0  0
  -28.6239  -21.8406   22.4932 C   0  0  0  0  0  0
  -29.9523  -15.5685   22.7183 C   0  0  0  0  0  0
  -28.9720  -21.5927   21.0943 N   0  0  0  0  0  0
  -30.0276  -15.7852   21.2641 N   0  0  0  0  0  0
  -27.8479  -23.8475   23.5854 O   0  0  0  0  0  0
  -29.1486  -22.8607   19.1481 O   0  0  0  0  0  0
  -28.0016  -16.9594   19.5312 F   0  0  0  0  0  0
  -31.4748  -12.6126   19.1707 H   0  0  0  0  0  0
  -30.3879  -11.4896   19.9275 H   0  0  0  0  0  0
  -29.7992  -11.7942   17.4982 H   0  0  0  0  0  0
  -29.6273  -13.5138   17.7411 H   0  0  0  0  0  0
  -27.8971  -11.2983   18.8850 H   0  0  0  0  0  0
  -27.3809  -12.5603   17.7941 H   0  0  0  0  0  0
  -27.6520  -14.2623   19.4970 H   0  0  0  0  0  0
  -28.7220  -12.1091   21.3817 H   0  0  0  0  0  0
  -28.3598  -13.7534   21.8172 H   0  0  0  0  0  0
  -25.2769   -9.5677   22.4768 H   0  0  0  0  0  0
  -23.9998   -7.4625   22.7458 H   0  0  0  0  0  0
  -21.0850   -8.8809   19.8953 H   0  0  0  0  0  0
  -22.3715  -10.9703   19.6166 H   0  0  0  0  0  0
  -21.1996   -7.6138   23.9699 H   0  0  0  0  0  0
  -21.1502   -6.0517   25.9071 H   0  0  0  0  0  0
  -22.0591   -2.7601   23.2835 H   0  0  0  0  0  0
  -22.4136  -11.9897   22.4789 H   0  0  0  0  0  0
  -21.1108  -13.1246   22.2657 H   0  0  0  0  0  0
  -24.6612  -15.8480   20.5215 H   0  0  0  0  0  0
  -26.2902  -15.6363   20.1170 H   0  0  0  0  0  0
  -26.7215  -32.5387   23.1087 H   0  0  0  0  0  0
  -25.0096  -33.9690   25.0398 H   0  0  0  0  0  0
  -22.7272  -31.2970   21.3882 H   0  0  0  0  0  0
  -23.3748  -35.9621   23.3284 H   0  0  0  0  0  0
  -24.3591  -36.8915   22.2061 H   0  0  0  0  0  0
  -23.7274  -37.6487   23.6673 H   0  0  0  0  0  0
  -26.1170  -31.5256   20.6067 H   0  0  0  0  0  0
  -26.8549  -30.8196   22.0109 H   0  0  0  0  0  0
  -28.1315  -28.9195   21.2175 H   0  0  0  0  0  0
  -25.9940  -25.8853   19.0303 H   0  0  0  0  0  0
  -23.9838  -27.3005   18.9994 H   0  0  0  0  0  0
  -23.7819  -30.5843   19.4005 H   0  0  0  0  0  0
  -22.7733  -29.2411   19.8447 H   0  0  0  0  0  0
  -25.1307  -36.1883   25.0822 H   0  0  0  0  0  0
  -21.0013  -28.3241   24.1366 H   0  0  0  0  0  0
  -20.5595  -26.2296   23.3623 H   0  0  0  0  0  0
  -21.6634  -26.7348   22.1231 H   0  0  0  0  0  0
  -19.6894  -25.6262   21.1238 H   0  0  0  0  0  0
  -19.6688  -27.3162   20.6726 H   0  0  0  0  0  0
  -17.4198  -26.6663   21.4009 H   0  0  0  0  0  0
  -18.0323  -26.0043   22.8997 H   0  0  0  0  0  0
  -19.7947  -30.7240   24.2274 H   0  0  0  0  0  0
  -17.5017  -31.6251   24.5135 H   0  0  0  0  0  0
  -15.5354  -30.2952   23.7632 H   0  0  0  0  0  0
  -15.8690  -28.0778   22.7070 H   0  0  0  0  0  0
  -24.5930  -30.7022   25.7793 H   0  0  0  0  0  0
  -24.8875  -32.2896   26.4807 H   0  0  0  0  0  0
  -25.8047  -30.8977   27.0261 H   0  0  0  0  0  0
  -26.2934  -29.6725   24.1212 H   0  0  0  0  0  0
  -27.4017  -29.7233   25.4724 H   0  0  0  0  0  0
  -27.8816  -30.4250   23.9459 H   0  0  0  0  0  0
  -27.2671  -33.3596   26.2073 H   0  0  0  0  0  0
  -28.3881  -32.6843   25.0337 H   0  0  0  0  0  0
  -28.0715  -31.8419   26.5422 H   0  0  0  0  0  0
  -28.2578  -38.0102   24.7484 H   0  0  0  0  0  0
  -28.1084  -36.2630   24.6289 H   0  0  0  0  0  0
  -27.2298  -37.1448   25.8861 H   0  0  0  0  0  0
  -20.9396  -29.8824   21.6929 H   0  0  0  0  0  0
  -26.0150  -38.2815   24.1408 H   0  0  0  0  0  0
  -31.1537  -20.2675   22.0619 H   0  0  0  0  0  0
  -31.6066  -17.8765   22.1289 H   0  0  0  0  0  0
  -27.7289  -19.5590   19.5681 H   0  0  0  0  0  0
  -27.8518  -25.7804   22.0406 H   0  0  0  0  0  0
  -27.7847  -21.2167   22.8018 H   0  0  0  0  0  0
  -29.4701  -21.6512   23.1537 H   0  0  0  0  0  0
  -30.7327  -16.1199   23.2432 H   0  0  0  0  0  0
  -30.0684  -14.5274   23.0228 H   0  0  0  0  0  0
  -28.9895  -15.9150   23.0962 H   0  0  0  0  0  0
  1 25  1  0  0  0
  1 30  2  0  0  0
  1 84  1  0  0  0
  2  3  1  0  0  0
  2 25  1  0  0  0
  2 88  1  0  0  0
  2 89  1  0  0  0
  3  4  1  0  0  0
  3 90  1  0  0  0
  3 91  1  0  0  0
  4  5  1  0  0  0
  4 92  1  0  0  0
  4 93  1  0  0  0
  5  6  1  0  0  0
  5 26  1  0  0  0
  5 94  1  0  0  0
  6 25  1  0  0  0
  6 95  1  0  0  0
  6 96  1  0  0  0
  7  8  2  0  0  0
  7 26  1  0  0  0
  7 29  1  0  0  0
  8  9  1  0  0  0
  8 22  1  0  0  0
  9 10  1  0  0  0
  9 27  2  0  0  0
 10 11  2  0  0  0
 10 15  1  0  0  0
 11 12  1  0  0  0
 11 97  1  0  0  0
 12 13  2  0  0  0
 12 98  1  0  0  0
 13 14  1  0  0  0
 13 31  1  0  0  0
 14 15  2  0  0  0
 14 99  1  0  0  0
 15100  1  0  0  0
 16 17  2  0  0  0
 16 21  1  0  0  0
 16 31  1  0  0  0
 17 18  1  0  0  0
 17101  1  0  0  0
 18 19  2  0  0  0
 18102  1  0  0  0
 19 20  1  0  0  0
 19 24  1  0  0  0
 20 21  2  0  0  0
 20103  1  0  0  0
 21 23  1  0  0  0
 22 28  1  0  0  0
 22 32  2  0  0  0
 26 27  1  0  0  0
 28104  1  0  0  0
 28105  1  0  0  0
 29106  1  0  0  0
 29107  1  0  0  0
 33 34  1  0  0  0
 33 66  1  0  0  0
 33 70  2  0  0  0
 34 36  1  0  0  0
 34 59  1  0  0  0
 34108  1  0  0  0
 35 44  2  0  0  0
 35 45  1  0  0  0
 35 68  1  0  0  0
 36 56  1  0  0  0
 36109  1  0  0  0
 37 39  1  0  0  0
 37 47  1  0  0  0
 37 66  1  0  0  0
 37110  1  0  0  0
 38 43  2  0  0  0
 38 46  1  0  0  0
 38 47  1  0  0  0
 39 64  1  0  0  0
 39 67  2  0  0  0
 40 52  1  0  0  0
 40 53  2  0  0  0
 40 58  1  0  0  0
 41111  1  0  0  0
 41112  1  0  0  0
 41113  1  0  0  0
 41 48  1  0  0  0
 42 43  1  0  0  0
 42 66  1  0  0  0
 42114  1  0  0  0
 42115  1  0  0  0
 43 44  1  0  0  0
 44116  1  0  0  0
 45 46  2  0  0  0
 45117  1  0  0  0
 46118  1  0  0  0
 47119  1  0  0  0
 47120  1  0  0  0
 48 56  1  0  0  0
 48 65  1  0  0  0
 48121  1  0  0  0
 49 50  1  0  0  0
 49 53  1  0  0  0
 49 64  1  0  0  0
 49122  1  0  0  0
 50 51  1  0  0  0
 50123  1  0  0  0
 50124  1  0  0  0
 51 52  1  0  0  0
 51125  1  0  0  0
 51126  1  0  0  0
 52127  1  0  0  0
 52128  1  0  0  0
 53 54  1  0  0  0
 54 55  2  0  0  0
 54129  1  0  0  0
 55 57  1  0  0  0
 55130  1  0  0  0
 56 69  2  0  0  0
 57 58  2  0  0  0
 57131  1  0  0  0
 58132  1  0  0  0
 59 60  1  0  0  0
 59 61  1  0  0  0
 59 62  1  0  0  0
 60133  1  0  0  0
 60134  1  0  0  0
 60135  1  0  0  0
 61136  1  0  0  0
 61137  1  0  0  0
 61138  1  0  0  0
 62139  1  0  0  0
 62140  1  0  0  0
 62141  1  0  0  0
 63 65  1  0  0  0
 63142  1  0  0  0
 63143  1  0  0  0
 63144  1  0  0  0
 64145  1  0  0  0
 65146  1  0  0  0
 68 80  1  0  0  0
 71 72  2  0  0  0
 71 74  1  0  0  0
 71147  1  0  0  0
 72 75  1  0  0  0
 72148  1  0  0  0
 73 74  2  0  0  0
 73 76  1  0  0  0
 73149  1  0  0  0
 74 83  1  0  0  0
 75 76  2  0  0  0
 75 84  1  0  0  0
 76 87  1  0  0  0
 77 78  1  0  0  0
 77 79  1  0  0  0
 77 80  2  0  0  0
 78 81  1  0  0  0
 78 85  2  0  0  0
 79 83  1  0  0  0
 79 86  2  0  0  0
 80150  1  0  0  0
 81 83  1  0  0  0
 81151  1  0  0  0
 81152  1  0  0  0
 82 84  1  0  0  0
 82153  1  0  0  0
 82154  1  0  0  0
 82155  1  0  0  0
M  ISO  4   1 100  68 101  80 101  84 100
M  END
> <chiral flag>
0

> <version>
0

> <s_m_source_file>
/data/baiqing/PycharmProjects/Reinvent-master-3.2/result/LINK_invent/BTK/process_docking_weight1_custom_product_contain_oxygen_bond_distance_aromatic_linkinvent_7_9_3/rearranged_h_0087.sdf

> <i_m_source_file_index>
22

> <r_mmod_Potential_Energy-OPLS-2005>
472.268707275391

> <r_mmod_Stretch_Energy-OPLS-2005>
125.282218933105

> <r_mmod_Bend_Energy-OPLS-2005>
263.186553955078

> <r_mmod_Torsional_Energy-OPLS-2005>
391.527526855469

> <r_mmod_Improper_Torsional_Energy-OPLS-2005>
8.02611541748047

> <r_mmod_Van_der_Waal_Energy-OPLS-2005>
132.530944824219

> <r_mmod_Electrostatic_Energy-OPLS-2005>
-316.719390869141

> <r_mmod_Solvation_Energy-OPLS-2005>
-218.086395263672

> <b_mmod_Minimization_Converged-OPLS-2005>
0

> <r_mmod_RMS_Derivative-OPLS-2005>
1.84877157211304

$$$$
22
                    3D
 Structure written by MMmdl.
159168  0  0  1  0            999 V2000
  -30.6876  -14.5943   20.4531 C   0  0  0  0  0  0
  -30.4243  -12.3531   19.4443 C   0  0  0  0  0  0
  -29.4962  -12.4518   18.2162 C   0  0  0  0  0  0
  -28.0178  -12.3186   18.6371 C   0  0  0  0  0  0
  -27.6415  -13.2007   19.8579 C   0  0  2  0  0  0
  -28.7000  -13.1152   20.9808 C   0  0  0  0  0  0
  -25.2558  -13.8118   20.5739 C   0  0  0  0  0  0
  -24.1803  -13.0409   20.9214 C   0  0  0  0  0  0
  -24.6350  -11.6872   20.8781 C   0  0  0  0  0  0
  -23.9027  -10.4271   21.0431 C   0  0  0  0  0  0
  -24.3589   -9.4187   21.9202 C   0  0  0  0  0  0
  -23.6275   -8.2219   22.0762 C   0  0  0  0  0  0
  -22.4262   -8.0266   21.3547 C   0  0  0  0  0  0
  -21.9892   -9.0237   20.4644 C   0  0  0  0  0  0
  -22.7211  -10.2120   20.3066 C   0  0  0  0  0  0
  -21.6849   -6.0729   22.5277 C   0  0  0  0  0  0
  -21.4005   -6.5633   23.8209 C   0  0  0  0  0  0
  -21.3664   -5.6788   24.9173 C   0  0  0  0  0  0
  -21.6044   -4.3050   24.7226 C   0  0  0  0  0  0
  -21.8813   -3.8145   23.4344 C   0  0  0  0  0  0
  -21.9189   -4.6959   22.3401 C   0  0  0  0  0  0
  -22.7833  -13.5231   21.1862 C   0  0  0  0  0  0
  -22.1665   -4.2146   21.0979 F   0  0  0  0  0  0
  -21.5637   -3.4532   25.7740 F   0  0  0  0  0  0
  -30.0129  -13.4065   20.3861 N   0  0  0  0  0  0
  -26.2949  -12.9242   20.3393 N   0  0  0  0  0  0
  -25.9277  -11.6421   20.5839 N   0  0  0  0  0  0
  -22.0466  -12.8237   22.0416 N   0  0  0  0  0  0
  -25.4320  -15.1842   20.4173 N   0  0  0  0  0  0
  -31.8941  -14.6721   20.2142 O   0  0  0  0  0  0
  -21.6632   -6.8866   21.4237 O   0  0  0  0  0  0
  -22.3539  -14.5549   20.6713 O   0  0  0  0  0  0
  -24.6218  -31.8652   23.2086 C   0  0  0  0  0  0
  -25.9091  -32.4804   23.8387 C   0  0  1  0  0  0
  -27.2176  -27.3698   20.0976 C   0  0  0  0  0  0
  -25.5920  -33.8604   24.2311 N   0  0  0  0  0  0
  -23.4104  -30.4938   21.5509 C   0  0  2  0  0  0
  -24.8532  -28.9635   20.1073 C   0  0  0  0  0  0
  -22.7443  -29.4660   22.4957 C   0  0  0  0  0  0
  -18.0279  -28.1380   22.8489 C   0  0  0  0  0  0
  -24.1485  -36.7313   23.2637 C   0  0  0  0  0  0
  -25.9488  -30.8100   21.3744 C   0  0  0  0  0  0
  -26.0202  -29.4432   20.7149 C   0  0  0  0  0  0
  -27.2034  -28.6547   20.7089 C   0  0  0  0  0  0
  -26.0294  -26.9459   19.4497 C   0  0  0  0  0  0
  -24.8568  -27.7169   19.4694 C   0  0  0  0  0  0
  -23.6201  -29.8377   20.1622 C   0  0  0  0  0  0
  -25.4106  -36.3100   24.0333 C   0  0  1  0  0  0
  -20.5876  -28.3677   23.1292 C   0  0  2  0  0  0
  -20.6763  -26.9406   22.5409 C   0  0  0  0  0  0
  -19.5737  -26.6385   21.5209 C   0  0  0  0  0  0
  -18.1921  -26.7926   22.1628 C   0  0  0  0  0  0
  -19.1532  -28.8845   23.2889 C   0  0  0  0  0  0
  -18.9460  -30.1451   23.8899 C   0  0  0  0  0  0
  -17.6459  -30.6584   24.0571 C   0  0  0  0  0  0
  -25.9044  -34.9466   23.5122 C   0  0  0  0  0  0
  -16.5350  -29.9087   23.6331 C   0  0  0  0  0  0
  -16.7269  -28.6508   23.0345 C   0  0  0  0  0  0
  -26.4489  -31.6586   25.0733 C   0  0  0  0  0  0
  -25.3743  -31.3713   26.1474 C   0  0  0  0  0  0
  -27.0324  -30.3011   24.6156 C   0  0  0  0  0  0
  -27.6048  -32.4317   25.7502 C   0  0  0  0  0  0
  -27.5581  -37.1810   24.8467 C   0  0  0  0  0  0
  -21.4163  -29.3045   22.3697 N   0  0  0  0  0  0
  -26.4291  -37.3787   23.9414 N   0  0  0  0  0  0
  -24.6790  -31.0711   22.1020 N   0  0  0  0  0  0
  -23.4199  -28.8188   23.3005 O   0  0  0  0  0  0
  -28.3435  -26.5434   20.1613 O   0  0  0  0  0  0
  -26.5615  -34.8923   22.4691 O   0  0  0  0  0  0
  -23.5395  -32.1431   23.7449 O   0  0  0  0  0  0
  -32.3742  -19.3879   19.4386 C   0  0  0  0  0  0
  -31.8685  -18.2005   20.0000 C   0  0  0  0  0  0
  -31.7529  -20.6233   19.6992 C   0  0  0  0  0  0
  -30.0922  -19.4811   21.0770 C   0  0  0  0  0  0
  -30.7156  -18.2184   20.8139 C   0  0  0  0  0  0
  -30.6142  -20.6958   20.5312 C   0  0  0  0  0  0
  -30.0293  -24.2246   21.3402 C   0  0  0  0  0  0
  -29.1091  -24.0903   20.3862 C   0  0  0  0  0  0
  -30.6500  -22.9334   21.5952 C   0  0  0  0  0  0
  -29.0421  -22.6378   19.9491 C   0  0  0  0  0  0
  -29.3231  -16.1903   19.2374 C   0  0  0  0  0  0
  -30.2052  -16.8794   21.4191 C   0  0  0  0  0  0
  -28.1420  -25.1392   19.8097 C   0  0  0  0  0  0
  -30.0599  -22.0024   20.7995 N   0  0  0  0  0  0
  -29.9312  -15.7346   20.4974 N   0  0  0  0  0  0
  -31.5483  -22.7092   22.4117 O   0  0  0  0  0  0
  -31.4669  -12.4522   19.1375 H   0  0  0  0  0  0
  -30.3392  -11.3729   19.9157 H   0  0  0  0  0  0
  -29.7461  -11.6719   17.4958 H   0  0  0  0  0  0
  -29.6587  -13.3961   17.6975 H   0  0  0  0  0  0
  -27.8436  -11.2696   18.8797 H   0  0  0  0  0  0
  -27.3624  -12.5446   17.7957 H   0  0  0  0  0  0
  -27.6143  -14.2197   19.4934 H   0  0  0  0  0  0
  -28.7040  -12.1238   21.4353 H   0  0  0  0  0  0
  -28.4677  -13.8212   21.7798 H   0  0  0  0  0  0
  -25.2731   -9.5672   22.4780 H   0  0  0  0  0  0
  -23.9990   -7.4607   22.7477 H   0  0  0  0  0  0
  -21.0830   -8.8740   19.8941 H   0  0  0  0  0  0
  -22.3669  -10.9661   19.6176 H   0  0  0  0  0  0
  -21.1987   -7.6140   23.9709 H   0  0  0  0  0  0
  -21.1505   -6.0524   25.9079 H   0  0  0  0  0  0
  -22.0592   -2.7608   23.2846 H   0  0  0  0  0  0
  -22.4080  -11.9901   22.4810 H   0  0  0  0  0  0
  -21.1082  -13.1269   22.2615 H   0  0  0  0  0  0
  -24.6735  -15.8464   20.5391 H   0  0  0  0  0  0
  -26.2996  -15.6244   20.1379 H   0  0  0  0  0  0
  -26.7159  -32.5490   23.1136 H   0  0  0  0  0  0
  -25.0042  -33.9752   25.0438 H   0  0  0  0  0  0
  -22.7022  -31.3140   21.4163 H   0  0  0  0  0  0
  -23.3736  -35.9658   23.3304 H   0  0  0  0  0  0
  -24.3580  -36.8931   22.2053 H   0  0  0  0  0  0
  -23.7248  -37.6521   23.6654 H   0  0  0  0  0  0
  -26.0755  -31.5768   20.6086 H   0  0  0  0  0  0
  -26.8317  -30.8550   22.0004 H   0  0  0  0  0  0
  -28.0963  -29.0170   21.1987 H   0  0  0  0  0  0
  -25.9661  -26.0086   18.9181 H   0  0  0  0  0  0
  -23.9651  -27.3492   18.9799 H   0  0  0  0  0  0
  -23.7339  -30.6190   19.4099 H   0  0  0  0  0  0
  -22.7405  -29.2659   19.8601 H   0  0  0  0  0  0
  -25.1279  -36.1959   25.0823 H   0  0  0  0  0  0
  -20.9967  -28.3243   24.1413 H   0  0  0  0  0  0
  -20.5658  -26.2287   23.3604 H   0  0  0  0  0  0
  -21.6634  -26.7436   22.1210 H   0  0  0  0  0  0
  -19.6895  -25.6297   21.1235 H   0  0  0  0  0  0
  -19.6670  -27.3198   20.6742 H   0  0  0  0  0  0
  -17.4189  -26.6675   21.4035 H   0  0  0  0  0  0
  -18.0327  -26.0063   22.9020 H   0  0  0  0  0  0
  -19.7936  -30.7272   24.2260 H   0  0  0  0  0  0
  -17.5016  -31.6263   24.5176 H   0  0  0  0  0  0
  -15.5352  -30.2995   23.7644 H   0  0  0  0  0  0
  -15.8671  -28.0837   22.7040 H   0  0  0  0  0  0
  -24.5903  -30.7075   25.7813 H   0  0  0  0  0  0
  -24.8958  -32.2880   26.4931 H   0  0  0  0  0  0
  -25.8090  -30.8872   27.0228 H   0  0  0  0  0  0
  -26.2888  -29.6770   24.1186 H   0  0  0  0  0  0
  -27.4028  -29.7254   25.4648 H   0  0  0  0  0  0
  -27.8755  -30.4294   23.9364 H   0  0  0  0  0  0
  -27.2639  -33.3593   26.2108 H   0  0  0  0  0  0
  -28.3840  -32.6917   25.0328 H   0  0  0  0  0  0
  -28.0731  -31.8433   26.5398 H   0  0  0  0  0  0
  -28.2599  -38.0104   24.7507 H   0  0  0  0  0  0
  -28.1072  -36.2639   24.6289 H   0  0  0  0  0  0
  -27.2311  -37.1463   25.8872 H   0  0  0  0  0  0
  -20.9320  -29.8790   21.6942 H   0  0  0  0  0  0
  -26.0176  -38.2867   24.1398 H   0  0  0  0  0  0
  -33.2500  -19.3525   18.8053 H   0  0  0  0  0  0
  -32.3687  -17.2642   19.7921 H   0  0  0  0  0  0
  -32.1678  -21.5230   19.2642 H   0  0  0  0  0  0
  -29.2186  -19.5219   21.7133 H   0  0  0  0  0  0
  -30.2696  -25.1430   21.8546 H   0  0  0  0  0  0
  -29.2797  -22.5331   18.8902 H   0  0  0  0  0  0
  -28.0557  -22.2143   20.1429 H   0  0  0  0  0  0
  -28.3968  -16.7299   19.4363 H   0  0  0  0  0  0
  -29.0993  -15.3813   18.5454 H   0  0  0  0  0  0
  -29.9858  -16.8523   18.6831 H   0  0  0  0  0  0
  -30.9299  -16.5630   22.1723 H   0  0  0  0  0  0
  -29.2864  -17.0765   21.9731 H   0  0  0  0  0  0
  -27.1748  -24.7865   20.1708 H   0  0  0  0  0  0
  -28.1420  -25.0455   18.7229 H   0  0  0  0  0  0
  1 25  1  0  0  0
  1 30  2  0  0  0
  1 85  1  0  0  0
  2  3  1  0  0  0
  2 25  1  0  0  0
  2 87  1  0  0  0
  2 88  1  0  0  0
  3  4  1  0  0  0
  3 89  1  0  0  0
  3 90  1  0  0  0
  4  5  1  0  0  0
  4 91  1  0  0  0
  4 92  1  0  0  0
  5  6  1  0  0  0
  5 26  1  0  0  0
  5 93  1  0  0  0
  6 25  1  0  0  0
  6 94  1  0  0  0
  6 95  1  0  0  0
  7  8  2  0  0  0
  7 26  1  0  0  0
  7 29  1  0  0  0
  8  9  1  0  0  0
  8 22  1  0  0  0
  9 10  1  0  0  0
  9 27  2  0  0  0
 10 11  2  0  0  0
 10 15  1  0  0  0
 11 12  1  0  0  0
 11 96  1  0  0  0
 12 13  2  0  0  0
 12 97  1  0  0  0
 13 14  1  0  0  0
 13 31  1  0  0  0
 14 15  2  0  0  0
 14 98  1  0  0  0
 15 99  1  0  0  0
 16 17  2  0  0  0
 16 21  1  0  0  0
 16 31  1  0  0  0
 17 18  1  0  0  0
 17100  1  0  0  0
 18 19  2  0  0  0
 18101  1  0  0  0
 19 20  1  0  0  0
 19 24  1  0  0  0
 20 21  2  0  0  0
 20102  1  0  0  0
 21 23  1  0  0  0
 22 28  1  0  0  0
 22 32  2  0  0  0
 26 27  1  0  0  0
 28103  1  0  0  0
 28104  1  0  0  0
 29105  1  0  0  0
 29106  1  0  0  0
 33 34  1  0  0  0
 33 66  1  0  0  0
 33 70  2  0  0  0
 34 36  1  0  0  0
 34 59  1  0  0  0
 34107  1  0  0  0
 35 44  2  0  0  0
 35 45  1  0  0  0
 35 68  1  0  0  0
 36 56  1  0  0  0
 36108  1  0  0  0
 37 39  1  0  0  0
 37 47  1  0  0  0
 37 66  1  0  0  0
 37109  1  0  0  0
 38 43  2  0  0  0
 38 46  1  0  0  0
 38 47  1  0  0  0
 39 64  1  0  0  0
 39 67  2  0  0  0
 40 52  1  0  0  0
 40 53  2  0  0  0
 40 58  1  0  0  0
 41110  1  0  0  0
 41111  1  0  0  0
 41112  1  0  0  0
 41 48  1  0  0  0
 42 43  1  0  0  0
 42 66  1  0  0  0
 42113  1  0  0  0
 42114  1  0  0  0
 43 44  1  0  0  0
 44115  1  0  0  0
 45 46  2  0  0  0
 45116  1  0  0  0
 46117  1  0  0  0
 47118  1  0  0  0
 47119  1  0  0  0
 48 56  1  0  0  0
 48 65  1  0  0  0
 48120  1  0  0  0
 49 50  1  0  0  0
 49 53  1  0  0  0
 49 64  1  0  0  0
 49121  1  0  0  0
 50 51  1  0  0  0
 50122  1  0  0  0
 50123  1  0  0  0
 51 52  1  0  0  0
 51124  1  0  0  0
 51125  1  0  0  0
 52126  1  0  0  0
 52127  1  0  0  0
 53 54  1  0  0  0
 54 55  2  0  0  0
 54128  1  0  0  0
 55 57  1  0  0  0
 55129  1  0  0  0
 56 69  2  0  0  0
 57 58  2  0  0  0
 57130  1  0  0  0
 58131  1  0  0  0
 59 60  1  0  0  0
 59 61  1  0  0  0
 59 62  1  0  0  0
 60132  1  0  0  0
 60133  1  0  0  0
 60134  1  0  0  0
 61135  1  0  0  0
 61136  1  0  0  0
 61137  1  0  0  0
 62138  1  0  0  0
 62139  1  0  0  0
 62140  1  0  0  0
 63 65  1  0  0  0
 63141  1  0  0  0
 63142  1  0  0  0
 63143  1  0  0  0
 64144  1  0  0  0
 65145  1  0  0  0
 68 83  1  0  0  0
 71 72  2  0  0  0
 71 73  1  0  0  0
 71146  1  0  0  0
 72 75  1  0  0  0
 72147  1  0  0  0
 73 76  2  0  0  0
 73148  1  0  0  0
 74 75  2  0  0  0
 74 76  1  0  0  0
 74149  1  0  0  0
 75 82  1  0  0  0
 76 84  1  0  0  0
 77 78  2  0  0  0
 77 79  1  0  0  0
 77150  1  0  0  0
 78 80  1  0  0  0
 78 83  1  0  0  0
 79 84  1  0  0  0
 79 86  2  0  0  0
 80 84  1  0  0  0
 80151  1  0  0  0
 80152  1  0  0  0
 81 85  1  0  0  0
 81153  1  0  0  0
 81154  1  0  0  0
 81155  1  0  0  0
 82 85  1  0  0  0
 82156  1  0  0  0
 82157  1  0  0  0
 83158  1  0  0  0
 83159  1  0  0  0
M  ISO  4   1 100  68 101  83 101  85 100
M  END
> <chiral flag>
0

> <version>
0

> <s_m_source_file>
/data/baiqing/PycharmProjects/Reinvent-master-3.2/result/LINK_invent/BTK/process_docking_weight1_custom_product_contain_oxygen_bond_distance_aromatic_linkinvent_7_9_3/rearranged_h_0087.sdf

> <i_m_source_file_index>
23

> <r_mmod_Potential_Energy-OPLS-2005>
253.316146850586

> <r_mmod_Stretch_Energy-OPLS-2005>
56.5609512329102

> <r_mmod_Bend_Energy-OPLS-2005>
158.626663208008

> <r_mmod_Torsional_Energy-OPLS-2005>
348.525207519531

> <r_mmod_Improper_Torsional_Energy-OPLS-2005>
10.0770854949951

> <r_mmod_Van_der_Waal_Energy-OPLS-2005>
149.865585327148

> <r_mmod_Electrostatic_Energy-OPLS-2005>
-298.603668212891

> <r_mmod_Solvation_Energy-OPLS-2005>
-214.05078125

> <b_mmod_Minimization_Converged-OPLS-2005>
0

> <r_mmod_RMS_Derivative-OPLS-2005>
1.26908135414124

$$$$
23
                    3D
 Structure written by MMmdl.
150159  0  0  1  0            999 V2000
  -30.5692  -14.7421   20.4850 C   0  0  0  0  0  0
  -30.4511  -12.4556   19.4667 C   0  0  0  0  0  0
  -29.5167  -12.5196   18.2354 C   0  0  0  0  0  0
  -28.0415  -12.3384   18.6472 C   0  0  0  0  0  0
  -27.6514  -13.2208   19.8618 C   0  0  2  0  0  0
  -28.6968  -13.1055   20.9942 C   0  0  0  0  0  0
  -25.2559  -13.8174   20.5689 C   0  0  0  0  0  0
  -24.1830  -13.0437   20.9196 C   0  0  0  0  0  0
  -24.6401  -11.6907   20.8741 C   0  0  0  0  0  0
  -23.9068  -10.4291   21.0407 C   0  0  0  0  0  0
  -24.3618   -9.4205   21.9186 C   0  0  0  0  0  0
  -23.6292   -8.2241   22.0755 C   0  0  0  0  0  0
  -22.4275   -8.0280   21.3543 C   0  0  0  0  0  0
  -21.9909   -9.0255   20.4647 C   0  0  0  0  0  0
  -22.7237  -10.2136   20.3058 C   0  0  0  0  0  0
  -21.6853   -6.0734   22.5277 C   0  0  0  0  0  0
  -21.4013   -6.5638   23.8211 C   0  0  0  0  0  0
  -21.3661   -5.6792   24.9174 C   0  0  0  0  0  0
  -21.6046   -4.3055   24.7226 C   0  0  0  0  0  0
  -21.8819   -3.8144   23.4347 C   0  0  0  0  0  0
  -21.9194   -4.6961   22.3402 C   0  0  0  0  0  0
  -22.7851  -13.5229   21.1858 C   0  0  0  0  0  0
  -22.1663   -4.2146   21.0980 F   0  0  0  0  0  0
  -21.5630   -3.4539   25.7739 F   0  0  0  0  0  0
  -30.0028  -13.4861   20.4307 N   0  0  0  0  0  0
  -26.2984  -12.9356   20.3309 N   0  0  0  0  0  0
  -25.9333  -11.6509   20.5755 N   0  0  0  0  0  0
  -22.0493  -12.8223   22.0415 N   0  0  0  0  0  0
  -25.4275  -15.1895   20.4100 N   0  0  0  0  0  0
  -31.7264  -14.9244   20.0924 O   0  0  0  0  0  0
  -21.6639   -6.8876   21.4239 O   0  0  0  0  0  0
  -22.3536  -14.5535   20.6704 O   0  0  0  0  0  0
  -24.6314  -31.8549   23.1984 C   0  0  0  0  0  0
  -25.9134  -32.4756   23.8333 C   0  0  1  0  0  0
  -27.2250  -27.2670   20.1294 C   0  0  0  0  0  0
  -25.5927  -33.8558   24.2257 N   0  0  0  0  0  0
  -23.4299  -30.4768   21.5412 C   0  0  2  0  0  0
  -24.8813  -28.9255   20.1089 C   0  0  0  0  0  0
  -22.7508  -29.4598   22.4904 C   0  0  0  0  0  0
  -18.0293  -28.1387   22.8484 C   0  0  0  0  0  0
  -24.1489  -36.7287   23.2640 C   0  0  0  0  0  0
  -25.9762  -30.7685   21.3801 C   0  0  0  0  0  0
  -26.0527  -29.3913   20.7223 C   0  0  0  0  0  0
  -27.2303  -28.5734   20.7248 C   0  0  0  0  0  0
  -26.0356  -26.8726   19.4803 C   0  0  0  0  0  0
  -24.8772  -27.6731   19.4764 C   0  0  0  0  0  0
  -23.6501  -29.8107   20.1576 C   0  0  0  0  0  0
  -25.4115  -36.3072   24.0326 C   0  0  1  0  0  0
  -20.5898  -28.3700   23.1263 C   0  0  2  0  0  0
  -20.6781  -26.9416   22.5405 C   0  0  0  0  0  0
  -19.5756  -26.6381   21.5211 C   0  0  0  0  0  0
  -18.1937  -26.7927   22.1628 C   0  0  0  0  0  0
  -19.1547  -28.8861   23.2868 C   0  0  0  0  0  0
  -18.9469  -30.1460   23.8888 C   0  0  0  0  0  0
  -17.6468  -30.6588   24.0562 C   0  0  0  0  0  0
  -25.9054  -34.9440   23.5096 C   0  0  0  0  0  0
  -16.5358  -29.9085   23.6332 C   0  0  0  0  0  0
  -16.7280  -28.6503   23.0354 C   0  0  0  0  0  0
  -26.4501  -31.6579   25.0723 C   0  0  0  0  0  0
  -25.3721  -31.3735   26.1441 C   0  0  0  0  0  0
  -27.0351  -30.2993   24.6217 C   0  0  0  0  0  0
  -27.6049  -32.4325   25.7499 C   0  0  0  0  0  0
  -27.5577  -37.1802   24.8467 C   0  0  0  0  0  0
  -21.4213  -29.3046   22.3649 N   0  0  0  0  0  0
  -26.4294  -37.3768   23.9402 N   0  0  0  0  0  0
  -24.6980  -31.0509   22.0963 N   0  0  0  0  0  0
  -23.4201  -28.8136   23.3008 O   0  0  0  0  0  0
  -28.2753  -26.3204   20.1787 O   0  0  0  0  0  0
  -26.5632  -34.8914   22.4668 O   0  0  0  0  0  0
  -23.5459  -32.1370   23.7272 O   0  0  0  0  0  0
  -28.4147  -19.3382   21.3791 C   0  0  0  0  0  0
  -28.6190  -17.9253   21.4410 C   0  0  0  0  0  0
  -30.5052  -18.1406   20.0189 C   0  0  0  0  0  0
  -29.2142  -20.2597   20.6377 C   0  0  0  0  0  0
  -29.6714  -17.2542   20.7664 C   0  0  0  0  0  0
  -30.2800  -19.5711   19.9586 C   0  0  0  0  0  0
  -28.4329  -23.7445   20.6059 C   0  0  0  0  0  0
  -27.9293  -22.5503   21.2765 C   0  0  0  0  0  0
  -27.9469  -25.0473   20.7329 C   0  0  0  0  0  0
  -29.4929  -22.8503   19.8929 C   0  0  0  0  0  0
  -28.8819  -21.7191   20.6560 N   0  0  0  0  0  0
  -29.7268  -15.7694   20.8755 N   0  0  0  0  0  0
  -27.0121  -22.4075   22.0586 O   0  0  0  0  0  0
  -31.1316  -20.3109   19.2077 F   0  0  0  0  0  0
  -31.4873  -12.6086   19.1603 H   0  0  0  0  0  0
  -30.4187  -11.4666   19.9261 H   0  0  0  0  0  0
  -29.7977  -11.7565   17.5082 H   0  0  0  0  0  0
  -29.6392  -13.4802   17.7325 H   0  0  0  0  0  0
  -27.8950  -11.2863   18.8949 H   0  0  0  0  0  0
  -27.3838  -12.5451   17.8020 H   0  0  0  0  0  0
  -27.6590  -14.2508   19.5047 H   0  0  0  0  0  0
  -28.7335  -12.0856   21.3802 H   0  0  0  0  0  0
  -28.4237  -13.7328   21.8440 H   0  0  0  0  0  0
  -25.2766   -9.5679   22.4757 H   0  0  0  0  0  0
  -24.0002   -7.4631   22.7474 H   0  0  0  0  0  0
  -21.0839   -8.8773   19.8953 H   0  0  0  0  0  0
  -22.3696  -10.9675   19.6166 H   0  0  0  0  0  0
  -21.2003   -7.6146   23.9713 H   0  0  0  0  0  0
  -21.1484   -6.0523   25.9077 H   0  0  0  0  0  0
  -22.0597   -2.7606   23.2849 H   0  0  0  0  0  0
  -22.4110  -11.9886   22.4805 H   0  0  0  0  0  0
  -21.1109  -13.1249   22.2618 H   0  0  0  0  0  0
  -24.6575  -15.8417   20.5111 H   0  0  0  0  0  0
  -26.2692  -15.6257   20.0557 H   0  0  0  0  0  0
  -26.7202  -32.5412   23.1077 H   0  0  0  0  0  0
  -25.0057  -33.9692   25.0390 H   0  0  0  0  0  0
  -22.7266  -31.2991   21.3942 H   0  0  0  0  0  0
  -23.3747  -35.9625   23.3312 H   0  0  0  0  0  0
  -24.3575  -36.8900   22.2053 H   0  0  0  0  0  0
  -23.7250  -37.6494   23.6659 H   0  0  0  0  0  0
  -26.1149  -31.5293   20.6105 H   0  0  0  0  0  0
  -26.8530  -30.8180   22.0142 H   0  0  0  0  0  0
  -28.1244  -28.9185   21.2249 H   0  0  0  0  0  0
  -25.9906  -25.9060   18.9985 H   0  0  0  0  0  0
  -23.9820  -27.3108   18.9898 H   0  0  0  0  0  0
  -23.7730  -30.5874   19.4019 H   0  0  0  0  0  0
  -22.7692  -29.2432   19.8524 H   0  0  0  0  0  0
  -25.1299  -36.1923   25.0821 H   0  0  0  0  0  0
  -20.9994  -28.3282   24.1382 H   0  0  0  0  0  0
  -20.5678  -26.2313   23.3613 H   0  0  0  0  0  0
  -21.6649  -26.7436   22.1201 H   0  0  0  0  0  0
  -19.6918  -25.6290   21.1246 H   0  0  0  0  0  0
  -19.6690  -27.3187   20.6737 H   0  0  0  0  0  0
  -17.4204  -26.6666   21.4035 H   0  0  0  0  0  0
  -18.0347  -26.0071   22.9028 H   0  0  0  0  0  0
  -19.7944  -30.7279   24.2254 H   0  0  0  0  0  0
  -17.5022  -31.6267   24.5165 H   0  0  0  0  0  0
  -15.5359  -30.2987   23.7655 H   0  0  0  0  0  0
  -15.8680  -28.0818   22.7075 H   0  0  0  0  0  0
  -24.5883  -30.7104   25.7763 H   0  0  0  0  0  0
  -24.8932  -32.2912   26.4868 H   0  0  0  0  0  0
  -25.8030  -30.8900   27.0218 H   0  0  0  0  0  0
  -26.2942  -29.6738   24.1227 H   0  0  0  0  0  0
  -27.4010  -29.7259   25.4744 H   0  0  0  0  0  0
  -27.8829  -30.4260   23.9480 H   0  0  0  0  0  0
  -27.2645  -33.3622   26.2070 H   0  0  0  0  0  0
  -28.3863  -32.6891   25.0335 H   0  0  0  0  0  0
  -28.0714  -31.8458   26.5423 H   0  0  0  0  0  0
  -28.2605  -38.0089   24.7496 H   0  0  0  0  0  0
  -28.1064  -36.2619   24.6320 H   0  0  0  0  0  0
  -27.2292  -37.1482   25.8870 H   0  0  0  0  0  0
  -20.9399  -29.8771   21.6856 H   0  0  0  0  0  0
  -26.0176  -38.2846   24.1388 H   0  0  0  0  0  0
  -27.5767  -19.7268   21.9396 H   0  0  0  0  0  0
  -27.9237  -17.3468   22.0337 H   0  0  0  0  0  0
  -31.3323  -17.7308   19.4585 H   0  0  0  0  0  0
  -27.1165  -25.1720   21.4163 H   0  0  0  0  0  0
  -30.5402  -22.9998   20.1597 H   0  0  0  0  0  0
  -29.3912  -22.7119   18.8152 H   0  0  0  0  0  0
  -28.8841  -15.3800   21.2699 H   0  0  0  0  0  0
  1 25  1  0  0  0
  1 30  2  0  0  0
  1 82  1  0  0  0
  2  3  1  0  0  0
  2 25  1  0  0  0
  2 85  1  0  0  0
  2 86  1  0  0  0
  3  4  1  0  0  0
  3 87  1  0  0  0
  3 88  1  0  0  0
  4  5  1  0  0  0
  4 89  1  0  0  0
  4 90  1  0  0  0
  5  6  1  0  0  0
  5 26  1  0  0  0
  5 91  1  0  0  0
  6 25  1  0  0  0
  6 92  1  0  0  0
  6 93  1  0  0  0
  7  8  2  0  0  0
  7 26  1  0  0  0
  7 29  1  0  0  0
  8  9  1  0  0  0
  8 22  1  0  0  0
  9 10  1  0  0  0
  9 27  2  0  0  0
 10 11  2  0  0  0
 10 15  1  0  0  0
 11 12  1  0  0  0
 11 94  1  0  0  0
 12 13  2  0  0  0
 12 95  1  0  0  0
 13 14  1  0  0  0
 13 31  1  0  0  0
 14 15  2  0  0  0
 14 96  1  0  0  0
 15 97  1  0  0  0
 16 17  2  0  0  0
 16 21  1  0  0  0
 16 31  1  0  0  0
 17 18  1  0  0  0
 17 98  1  0  0  0
 18 19  2  0  0  0
 18 99  1  0  0  0
 19 20  1  0  0  0
 19 24  1  0  0  0
 20 21  2  0  0  0
 20100  1  0  0  0
 21 23  1  0  0  0
 22 28  1  0  0  0
 22 32  2  0  0  0
 26 27  1  0  0  0
 28101  1  0  0  0
 28102  1  0  0  0
 29103  1  0  0  0
 29104  1  0  0  0
 33 34  1  0  0  0
 33 66  1  0  0  0
 33 70  2  0  0  0
 34 36  1  0  0  0
 34 59  1  0  0  0
 34105  1  0  0  0
 35 44  2  0  0  0
 35 45  1  0  0  0
 35 68  1  0  0  0
 36 56  1  0  0  0
 36106  1  0  0  0
 37 39  1  0  0  0
 37 47  1  0  0  0
 37 66  1  0  0  0
 37107  1  0  0  0
 38 43  2  0  0  0
 38 46  1  0  0  0
 38 47  1  0  0  0
 39 64  1  0  0  0
 39 67  2  0  0  0
 40 52  1  0  0  0
 40 53  2  0  0  0
 40 58  1  0  0  0
 41108  1  0  0  0
 41109  1  0  0  0
 41110  1  0  0  0
 41 48  1  0  0  0
 42 43  1  0  0  0
 42 66  1  0  0  0
 42111  1  0  0  0
 42112  1  0  0  0
 43 44  1  0  0  0
 44113  1  0  0  0
 45 46  2  0  0  0
 45114  1  0  0  0
 46115  1  0  0  0
 47116  1  0  0  0
 47117  1  0  0  0
 48 56  1  0  0  0
 48 65  1  0  0  0
 48118  1  0  0  0
 49 50  1  0  0  0
 49 53  1  0  0  0
 49 64  1  0  0  0
 49119  1  0  0  0
 50 51  1  0  0  0
 50120  1  0  0  0
 50121  1  0  0  0
 51 52  1  0  0  0
 51122  1  0  0  0
 51123  1  0  0  0
 52124  1  0  0  0
 52125  1  0  0  0
 53 54  1  0  0  0
 54 55  2  0  0  0
 54126  1  0  0  0
 55 57  1  0  0  0
 55127  1  0  0  0
 56 69  2  0  0  0
 57 58  2  0  0  0
 57128  1  0  0  0
 58129  1  0  0  0
 59 60  1  0  0  0
 59 61  1  0  0  0
 59 62  1  0  0  0
 60130  1  0  0  0
 60131  1  0  0  0
 60132  1  0  0  0
 61133  1  0  0  0
 61134  1  0  0  0
 61135  1  0  0  0
 62136  1  0  0  0
 62137  1  0  0  0
 62138  1  0  0  0
 63 65  1  0  0  0
 63139  1  0  0  0
 63140  1  0  0  0
 63141  1  0  0  0
 64142  1  0  0  0
 65143  1  0  0  0
 68 79  1  0  0  0
 71 72  2  0  0  0
 71 74  1  0  0  0
 71144  1  0  0  0
 72 75  1  0  0  0
 72145  1  0  0  0
 73 75  2  0  0  0
 73 76  1  0  0  0
 73146  1  0  0  0
 74 76  2  0  0  0
 74 81  1  0  0  0
 75 82  1  0  0  0
 76 84  1  0  0  0
 77 78  1  0  0  0
 77 79  2  0  0  0
 77 80  1  0  0  0
 78 81  1  0  0  0
 78 83  2  0  0  0
 79147  1  0  0  0
 80 81  1  0  0  0
 80148  1  0  0  0
 80149  1  0  0  0
 82150  1  0  0  0
M  ISO  4   1 100  68 101  79 101  82 100
M  END
> <chiral flag>
0

> <version>
0

> <s_m_source_file>
/data/baiqing/PycharmProjects/Reinvent-master-3.2/result/LINK_invent/BTK/process_docking_weight1_custom_product_contain_oxygen_bond_distance_aromatic_linkinvent_7_9_3/rearranged_h_0087.sdf

> <i_m_source_file_index>
24

> <r_mmod_Potential_Energy-OPLS-2005>
227.970703125

> <r_mmod_Stretch_Energy-OPLS-2005>
107.681640625

> <r_mmod_Bend_Energy-OPLS-2005>
270.576690673828

> <r_mmod_Torsional_Energy-OPLS-2005>
220.03254699707

> <r_mmod_Improper_Torsional_Energy-OPLS-2005>
3.48363852500916

> <r_mmod_Van_der_Waal_Energy-OPLS-2005>
134.12727355957

> <r_mmod_Electrostatic_Energy-OPLS-2005>
-381.995819091797

> <r_mmod_Solvation_Energy-OPLS-2005>
-213.960922241211

> <b_mmod_Minimization_Converged-OPLS-2005>
0

> <r_mmod_RMS_Derivative-OPLS-2005>
0.390327841043472

$$$$
24
                    3D
 Structure written by MMmdl.
152161  0  0  1  0            999 V2000
  -30.5968  -14.7023   20.4777 C   0  0  0  0  0  0
  -30.4466  -12.4300   19.4564 C   0  0  0  0  0  0
  -29.5126  -12.5144   18.2280 C   0  0  0  0  0  0
  -28.0362  -12.3426   18.6414 C   0  0  0  0  0  0
  -27.6509  -13.2216   19.8611 C   0  0  2  0  0  0
  -28.6995  -13.1014   20.9901 C   0  0  0  0  0  0
  -25.2533  -13.8156   20.5682 C   0  0  0  0  0  0
  -24.1806  -13.0412   20.9157 C   0  0  0  0  0  0
  -24.6395  -11.6894   20.8723 C   0  0  0  0  0  0
  -23.9066  -10.4282   21.0397 C   0  0  0  0  0  0
  -24.3616   -9.4203   21.9181 C   0  0  0  0  0  0
  -23.6288   -8.2241   22.0753 C   0  0  0  0  0  0
  -22.4269   -8.0282   21.3545 C   0  0  0  0  0  0
  -21.9906   -9.0254   20.4646 C   0  0  0  0  0  0
  -22.7236  -10.2128   20.3050 C   0  0  0  0  0  0
  -21.6853   -6.0733   22.5279 C   0  0  0  0  0  0
  -21.4017   -6.5634   23.8213 C   0  0  0  0  0  0
  -21.3657   -5.6786   24.9173 C   0  0  0  0  0  0
  -21.6044   -4.3049   24.7222 C   0  0  0  0  0  0
  -21.8820   -3.8143   23.4344 C   0  0  0  0  0  0
  -21.9195   -4.6962   22.3402 C   0  0  0  0  0  0
  -22.7833  -13.5215   21.1833 C   0  0  0  0  0  0
  -22.1665   -4.2148   21.0981 F   0  0  0  0  0  0
  -21.5626   -3.4533   25.7734 F   0  0  0  0  0  0
  -30.0084  -13.4611   20.4204 N   0  0  0  0  0  0
  -26.2987  -12.9363   20.3334 N   0  0  0  0  0  0
  -25.9334  -11.6507   20.5755 N   0  0  0  0  0  0
  -22.0474  -12.8222   22.0400 N   0  0  0  0  0  0
  -25.4153  -15.1884   20.4161 N   0  0  0  0  0  0
  -31.7711  -14.8631   20.1311 O   0  0  0  0  0  0
  -21.6636   -6.8878   21.4242 O   0  0  0  0  0  0
  -22.3514  -14.5525   20.6688 O   0  0  0  0  0  0
  -24.6281  -31.8573   23.2001 C   0  0  0  0  0  0
  -25.9120  -32.4761   23.8342 C   0  0  1  0  0  0
  -27.2292  -27.2962   20.1280 C   0  0  0  0  0  0
  -25.5927  -33.8562   24.2269 N   0  0  0  0  0  0
  -23.4244  -30.4789   21.5424 C   0  0  2  0  0  0
  -24.8746  -28.9276   20.1129 C   0  0  0  0  0  0
  -22.7490  -29.4606   22.4923 C   0  0  0  0  0  0
  -18.0284  -28.1386   22.8480 C   0  0  0  0  0  0
  -24.1492  -36.7289   23.2638 C   0  0  0  0  0  0
  -25.9671  -30.7806   21.3759 C   0  0  0  0  0  0
  -26.0433  -29.4039   20.7222 C   0  0  0  0  0  0
  -27.2247  -28.5991   20.7217 C   0  0  0  0  0  0
  -26.0412  -26.8786   19.4902 C   0  0  0  0  0  0
  -24.8759  -27.6705   19.4875 C   0  0  0  0  0  0
  -23.6425  -29.8103   20.1591 C   0  0  0  0  0  0
  -25.4111  -36.3074   24.0332 C   0  0  1  0  0  0
  -20.5887  -28.3695   23.1275 C   0  0  2  0  0  0
  -20.6774  -26.9417   22.5407 C   0  0  0  0  0  0
  -19.5751  -26.6384   21.5206 C   0  0  0  0  0  0
  -18.1930  -26.7927   22.1621 C   0  0  0  0  0  0
  -19.1537  -28.8857   23.2873 C   0  0  0  0  0  0
  -18.9462  -30.1456   23.8894 C   0  0  0  0  0  0
  -17.6460  -30.6590   24.0555 C   0  0  0  0  0  0
  -25.9050  -34.9443   23.5104 C   0  0  0  0  0  0
  -16.5350  -29.9086   23.6328 C   0  0  0  0  0  0
  -16.7269  -28.6501   23.0352 C   0  0  0  0  0  0
  -26.4498  -31.6570   25.0719 C   0  0  0  0  0  0
  -25.3728  -31.3719   26.1445 C   0  0  0  0  0  0
  -27.0324  -30.2983   24.6187 C   0  0  0  0  0  0
  -27.6069  -32.4294   25.7481 C   0  0  0  0  0  0
  -27.5587  -37.1787   24.8455 C   0  0  0  0  0  0
  -21.4199  -29.3047   22.3668 N   0  0  0  0  0  0
  -26.4285  -37.3773   23.9419 N   0  0  0  0  0  0
  -24.6919  -31.0560   22.0961 N   0  0  0  0  0  0
  -23.4198  -28.8144   23.3016 O   0  0  0  0  0  0
  -28.3272  -26.4159   20.1422 O   0  0  0  0  0  0
  -26.5624  -34.8918   22.4675 O   0  0  0  0  0  0
  -23.5439  -32.1385   23.7309 O   0  0  0  0  0  0
  -30.8724  -19.4619   20.3814 C   0  0  0  0  0  0
  -30.9598  -18.0331   20.4981 C   0  0  0  0  0  0
  -28.4863  -19.3480   20.4383 C   0  0  0  0  0  0
  -29.6343  -20.1879   20.3335 C   0  0  0  0  0  0
  -29.8016  -17.2158   20.5913 C   0  0  0  0  0  0
  -28.5694  -17.9246   20.5648 C   0  0  0  0  0  0
  -28.8763  -23.9460   20.2137 C   0  0  0  0  0  0
  -28.5996  -22.5482   20.6525 C   0  0  0  0  0  0
  -30.4354  -22.3854   19.4005 C   0  0  0  0  0  0
  -28.1128  -25.0610   20.5112 C   0  0  0  0  0  0
  -30.1204  -23.8797   19.3918 C   0  0  0  0  0  0
  -29.5518  -21.6772   20.1507 N   0  0  0  0  0  0
  -29.7498  -15.7504   20.7557 N   0  0  0  0  0  0
  -27.6604  -22.2008   21.3783 O   0  0  0  0  0  0
  -31.3857  -21.9287   18.7539 O   0  0  0  0  0  0
  -27.4229  -17.2091   20.6521 F   0  0  0  0  0  0
  -31.4850  -12.5700   19.1501 H   0  0  0  0  0  0
  -30.3981  -11.4399   19.9110 H   0  0  0  0  0  0
  -29.7859  -11.7567   17.4920 H   0  0  0  0  0  0
  -29.6434  -13.4790   17.7346 H   0  0  0  0  0  0
  -27.8825  -11.2901   18.8824 H   0  0  0  0  0  0
  -27.3802  -12.5605   17.7979 H   0  0  0  0  0  0
  -27.6570  -14.2526   19.5065 H   0  0  0  0  0  0
  -28.7257  -12.0847   21.3846 H   0  0  0  0  0  0
  -28.4384  -13.7419   21.8346 H   0  0  0  0  0  0
  -25.2762   -9.5685   22.4753 H   0  0  0  0  0  0
  -24.0000   -7.4634   22.7473 H   0  0  0  0  0  0
  -21.0837   -8.8774   19.8954 H   0  0  0  0  0  0
  -22.3698  -10.9666   19.6159 H   0  0  0  0  0  0
  -21.2010   -7.6141   23.9716 H   0  0  0  0  0  0
  -21.1477   -6.0515   25.9077 H   0  0  0  0  0  0
  -22.0600   -2.7605   23.2843 H   0  0  0  0  0  0
  -22.4078  -11.9890   22.4811 H   0  0  0  0  0  0
  -21.1099  -13.1275   22.2602 H   0  0  0  0  0  0
  -24.6445  -15.8318   20.5536 H   0  0  0  0  0  0
  -26.2849  -15.6704   20.2161 H   0  0  0  0  0  0
  -26.7188  -32.5428   23.1087 H   0  0  0  0  0  0
  -25.0055  -33.9701   25.0404 H   0  0  0  0  0  0
  -22.7193  -31.2997   21.3959 H   0  0  0  0  0  0
  -23.3761  -35.9612   23.3263 H   0  0  0  0  0  0
  -24.3599  -36.8945   22.2061 H   0  0  0  0  0  0
  -23.7232  -37.6476   23.6682 H   0  0  0  0  0  0
  -26.1007  -31.5410   20.6053 H   0  0  0  0  0  0
  -26.8469  -30.8322   22.0055 H   0  0  0  0  0  0
  -28.1223  -28.9580   21.2051 H   0  0  0  0  0  0
  -26.0066  -25.9141   19.0040 H   0  0  0  0  0  0
  -23.9820  -27.3003   19.0043 H   0  0  0  0  0  0
  -23.7639  -30.5852   19.4012 H   0  0  0  0  0  0
  -22.7625  -29.2402   19.8561 H   0  0  0  0  0  0
  -25.1284  -36.1920   25.0821 H   0  0  0  0  0  0
  -20.9976  -28.3273   24.1395 H   0  0  0  0  0  0
  -20.5672  -26.2305   23.3608 H   0  0  0  0  0  0
  -21.6645  -26.7443   22.1205 H   0  0  0  0  0  0
  -19.6916  -25.6291   21.1245 H   0  0  0  0  0  0
  -19.6688  -27.3185   20.6727 H   0  0  0  0  0  0
  -17.4199  -26.6666   21.4024 H   0  0  0  0  0  0
  -18.0335  -26.0072   22.9022 H   0  0  0  0  0  0
  -19.7938  -30.7266   24.2274 H   0  0  0  0  0  0
  -17.5017  -31.6275   24.5151 H   0  0  0  0  0  0
  -15.5352  -30.2989   23.7651 H   0  0  0  0  0  0
  -15.8668  -28.0814   22.7079 H   0  0  0  0  0  0
  -24.5874  -30.7107   25.7766 H   0  0  0  0  0  0
  -24.8952  -32.2890   26.4903 H   0  0  0  0  0  0
  -25.8042  -30.8857   27.0203 H   0  0  0  0  0  0
  -26.2890  -29.6736   24.1223 H   0  0  0  0  0  0
  -27.4012  -29.7243   25.4697 H   0  0  0  0  0  0
  -27.8771  -30.4244   23.9411 H   0  0  0  0  0  0
  -27.2699  -33.3603   26.2051 H   0  0  0  0  0  0
  -28.3880  -32.6832   25.0303 H   0  0  0  0  0  0
  -28.0733  -31.8414   26.5397 H   0  0  0  0  0  0
  -28.2566  -38.0122   24.7553 H   0  0  0  0  0  0
  -28.1121  -36.2655   24.6204 H   0  0  0  0  0  0
  -27.2319  -37.1348   25.8858 H   0  0  0  0  0  0
  -20.9384  -29.8769   21.6876 H   0  0  0  0  0  0
  -26.0161  -38.2843   24.1441 H   0  0  0  0  0  0
  -31.8070  -20.0021   20.3260 H   0  0  0  0  0  0
  -31.9372  -17.5727   20.5267 H   0  0  0  0  0  0
  -27.5002  -19.7867   20.4082 H   0  0  0  0  0  0
  -27.2261  -24.9616   21.1248 H   0  0  0  0  0  0
  -30.9272  -24.4507   19.8508 H   0  0  0  0  0  0
  -29.9444  -24.2379   18.3780 H   0  0  0  0  0  0
  -28.8218  -15.4275   20.9835 H   0  0  0  0  0  0
  1 25  1  0  0  0
  1 30  2  0  0  0
  1 83  1  0  0  0
  2  3  1  0  0  0
  2 25  1  0  0  0
  2 87  1  0  0  0
  2 88  1  0  0  0
  3  4  1  0  0  0
  3 89  1  0  0  0
  3 90  1  0  0  0
  4  5  1  0  0  0
  4 91  1  0  0  0
  4 92  1  0  0  0
  5  6  1  0  0  0
  5 26  1  0  0  0
  5 93  1  0  0  0
  6 25  1  0  0  0
  6 94  1  0  0  0
  6 95  1  0  0  0
  7  8  2  0  0  0
  7 26  1  0  0  0
  7 29  1  0  0  0
  8  9  1  0  0  0
  8 22  1  0  0  0
  9 10  1  0  0  0
  9 27  2  0  0  0
 10 11  2  0  0  0
 10 15  1  0  0  0
 11 12  1  0  0  0
 11 96  1  0  0  0
 12 13  2  0  0  0
 12 97  1  0  0  0
 13 14  1  0  0  0
 13 31  1  0  0  0
 14 15  2  0  0  0
 14 98  1  0  0  0
 15 99  1  0  0  0
 16 17  2  0  0  0
 16 21  1  0  0  0
 16 31  1  0  0  0
 17 18  1  0  0  0
 17100  1  0  0  0
 18 19  2  0  0  0
 18101  1  0  0  0
 19 20  1  0  0  0
 19 24  1  0  0  0
 20 21  2  0  0  0
 20102  1  0  0  0
 21 23  1  0  0  0
 22 28  1  0  0  0
 22 32  2  0  0  0
 26 27  1  0  0  0
 28103  1  0  0  0
 28104  1  0  0  0
 29105  1  0  0  0
 29106  1  0  0  0
 33 34  1  0  0  0
 33 66  1  0  0  0
 33 70  2  0  0  0
 34 36  1  0  0  0
 34 59  1  0  0  0
 34107  1  0  0  0
 35 44  2  0  0  0
 35 45  1  0  0  0
 35 68  1  0  0  0
 36 56  1  0  0  0
 36108  1  0  0  0
 37 39  1  0  0  0
 37 47  1  0  0  0
 37 66  1  0  0  0
 37109  1  0  0  0
 38 43  2  0  0  0
 38 46  1  0  0  0
 38 47  1  0  0  0
 39 64  1  0  0  0
 39 67  2  0  0  0
 40 52  1  0  0  0
 40 53  2  0  0  0
 40 58  1  0  0  0
 41110  1  0  0  0
 41111  1  0  0  0
 41112  1  0  0  0
 41 48  1  0  0  0
 42 43  1  0  0  0
 42 66  1  0  0  0
 42113  1  0  0  0
 42114  1  0  0  0
 43 44  1  0  0  0
 44115  1  0  0  0
 45 46  2  0  0  0
 45116  1  0  0  0
 46117  1  0  0  0
 47118  1  0  0  0
 47119  1  0  0  0
 48 56  1  0  0  0
 48 65  1  0  0  0
 48120  1  0  0  0
 49 50  1  0  0  0
 49 53  1  0  0  0
 49 64  1  0  0  0
 49121  1  0  0  0
 50 51  1  0  0  0
 50122  1  0  0  0
 50123  1  0  0  0
 51 52  1  0  0  0
 51124  1  0  0  0
 51125  1  0  0  0
 52126  1  0  0  0
 52127  1  0  0  0
 53 54  1  0  0  0
 54 55  2  0  0  0
 54128  1  0  0  0
 55 57  1  0  0  0
 55129  1  0  0  0
 56 69  2  0  0  0
 57 58  2  0  0  0
 57130  1  0  0  0
 58131  1  0  0  0
 59 60  1  0  0  0
 59 61  1  0  0  0
 59 62  1  0  0  0
 60132  1  0  0  0
 60133  1  0  0  0
 60134  1  0  0  0
 61135  1  0  0  0
 61136  1  0  0  0
 61137  1  0  0  0
 62138  1  0  0  0
 62139  1  0  0  0
 62140  1  0  0  0
 63 65  1  0  0  0
 63141  1  0  0  0
 63142  1  0  0  0
 63143  1  0  0  0
 64144  1  0  0  0
 65145  1  0  0  0
 68 80  1  0  0  0
 71 72  2  0  0  0
 71 74  1  0  0  0
 71146  1  0  0  0
 72 75  1  0  0  0
 72147  1  0  0  0
 73 74  2  0  0  0
 73 76  1  0  0  0
 73148  1  0  0  0
 74 82  1  0  0  0
 75 76  2  0  0  0
 75 83  1  0  0  0
 76 86  1  0  0  0
 77 78  1  0  0  0
 77 80  2  0  0  0
 77 81  1  0  0  0
 78 82  1  0  0  0
 78 84  2  0  0  0
 79 81  1  0  0  0
 79 82  1  0  0  0
 79 85  2  0  0  0
 80149  1  0  0  0
 81150  1  0  0  0
 81151  1  0  0  0
 83152  1  0  0  0
M  ISO  4   1 100  68 101  80 101  83 100
M  END
> <chiral flag>
0

> <version>
0

> <s_m_source_file>
/data/baiqing/PycharmProjects/Reinvent-master-3.2/result/LINK_invent/BTK/process_docking_weight1_custom_product_contain_oxygen_bond_distance_aromatic_linkinvent_7_9_3/rearranged_h_0087.sdf

> <i_m_source_file_index>
25

> <r_mmod_Potential_Energy-OPLS-2005>
112.208374023438

> <r_mmod_Stretch_Energy-OPLS-2005>
97.5548858642578

> <r_mmod_Bend_Energy-OPLS-2005>
191.690444946289

> <r_mmod_Torsional_Energy-OPLS-2005>
244.75080871582

> <r_mmod_Improper_Torsional_Energy-OPLS-2005>
4.56817722320557

> <r_mmod_Van_der_Waal_Energy-OPLS-2005>
140.179153442383

> <r_mmod_Electrostatic_Energy-OPLS-2005>
-412.936340332031

> <r_mmod_Solvation_Energy-OPLS-2005>
-219.734756469727

> <b_mmod_Minimization_Converged-OPLS-2005>
0

> <r_mmod_RMS_Derivative-OPLS-2005>
0.806186258792877

$$$$
25
                    3D
 Structure written by MMmdl.
154162  0  0  1  0            999 V2000
  -30.7461  -14.5843   20.4455 C   0  0  0  0  0  0
  -30.4369  -12.3519   19.4527 C   0  0  0  0  0  0
  -29.4982  -12.4480   18.2362 C   0  0  0  0  0  0
  -28.0344  -12.2924   18.6821 C   0  0  0  0  0  0
  -27.6568  -13.2067   19.8742 C   0  0  2  0  0  0
  -28.7175  -13.1178   20.9965 C   0  0  0  0  0  0
  -25.2609  -13.8143   20.5793 C   0  0  0  0  0  0
  -24.1844  -13.0424   20.9203 C   0  0  0  0  0  0
  -24.6403  -11.6904   20.8780 C   0  0  0  0  0  0
  -23.9098  -10.4302   21.0450 C   0  0  0  0  0  0
  -24.3626   -9.4200   21.9229 C   0  0  0  0  0  0
  -23.6286   -8.2235   22.0782 C   0  0  0  0  0  0
  -22.4276   -8.0279   21.3558 C   0  0  0  0  0  0
  -21.9932   -9.0272   20.4658 C   0  0  0  0  0  0
  -22.7283  -10.2154   20.3094 C   0  0  0  0  0  0
  -21.6863   -6.0741   22.5276 C   0  0  0  0  0  0
  -21.4002   -6.5637   23.8202 C   0  0  0  0  0  0
  -21.3653   -5.6797   24.9165 C   0  0  0  0  0  0
  -21.6065   -4.3060   24.7226 C   0  0  0  0  0  0
  -21.8805   -3.8144   23.4337 C   0  0  0  0  0  0
  -21.9183   -4.6966   22.3392 C   0  0  0  0  0  0
  -22.7858  -13.5231   21.1802 C   0  0  0  0  0  0
  -22.1668   -4.2138   21.0974 F   0  0  0  0  0  0
  -21.5634   -3.4544   25.7737 F   0  0  0  0  0  0
  -30.0340  -13.4125   20.3948 N   0  0  0  0  0  0
  -26.3040  -12.9315   20.3500 N   0  0  0  0  0  0
  -25.9350  -11.6497   20.5946 N   0  0  0  0  0  0
  -22.0501  -12.8241   22.0354 N   0  0  0  0  0  0
  -25.4247  -15.1858   20.4071 N   0  0  0  0  0  0
  -31.9428  -14.5959   20.1600 O   0  0  0  0  0  0
  -21.6643   -6.8879   21.4242 O   0  0  0  0  0  0
  -22.3526  -14.5546   20.6666 O   0  0  0  0  0  0
  -24.6310  -31.8570   23.1967 C   0  0  0  0  0  0
  -25.9122  -32.4741   23.8324 C   0  0  1  0  0  0
  -27.2720  -27.3319   20.0981 C   0  0  0  0  0  0
  -25.5955  -33.8560   24.2291 N   0  0  0  0  0  0
  -23.4295  -30.4719   21.5388 C   0  0  2  0  0  0
  -24.8915  -28.9222   20.1094 C   0  0  0  0  0  0
  -22.7530  -29.4542   22.4888 C   0  0  0  0  0  0
  -18.0339  -28.1408   22.8655 C   0  0  0  0  0  0
  -24.1484  -36.7265   23.2646 C   0  0  0  0  0  0
  -25.9697  -30.7975   21.3615 C   0  0  0  0  0  0
  -26.0599  -29.4237   20.6962 C   0  0  0  0  0  0
  -27.2551  -28.6374   20.6818 C   0  0  0  0  0  0
  -26.0714  -26.8783   19.5008 C   0  0  0  0  0  0
  -24.8961  -27.6526   19.5098 C   0  0  0  0  0  0
  -23.6517  -29.7937   20.1595 C   0  0  0  0  0  0
  -25.4105  -36.3073   24.0321 C   0  0  1  0  0  0
  -20.5989  -28.3538   23.1140 C   0  0  2  0  0  0
  -20.6779  -26.9306   22.5230 C   0  0  0  0  0  0
  -19.5559  -26.6267   21.5266 C   0  0  0  0  0  0
  -18.1862  -26.7963   22.1780 C   0  0  0  0  0  0
  -19.1698  -28.8808   23.2879 C   0  0  0  0  0  0
  -18.9833  -30.1449   23.8820 C   0  0  0  0  0  0
  -17.6908  -30.6764   24.0559 C   0  0  0  0  0  0
  -25.9017  -34.9405   23.5106 C   0  0  0  0  0  0
  -16.5655  -29.9377   23.6433 C   0  0  0  0  0  0
  -16.7376  -28.6736   23.0515 C   0  0  0  0  0  0
  -26.4494  -31.6546   25.0681 C   0  0  0  0  0  0
  -25.3764  -31.3649   26.1434 C   0  0  0  0  0  0
  -27.0342  -30.2987   24.6089 C   0  0  0  0  0  0
  -27.6050  -32.4267   25.7467 C   0  0  0  0  0  0
  -27.5571  -37.1770   24.8464 C   0  0  0  0  0  0
  -21.4276  -29.2864   22.3437 N   0  0  0  0  0  0
  -26.4288  -37.3769   23.9393 N   0  0  0  0  0  0
  -24.6938  -31.0590   22.0903 N   0  0  0  0  0  0
  -23.4231  -28.8254   23.3097 O   0  0  0  0  0  0
  -28.3504  -26.4281   20.1469 O   0  0  0  0  0  0
  -26.5640  -34.8833   22.4695 O   0  0  0  0  0  0
  -23.5516  -32.1357   23.7327 O   0  0  0  0  0  0
  -27.4804  -19.1580   21.8553 C   0  0  0  0  0  0
  -27.7646  -20.4330   21.3344 C   0  0  0  0  0  0
  -29.7953  -19.5297   20.3710 C   0  0  0  0  0  0
  -29.5023  -18.1930   20.8518 C   0  0  0  0  0  0
  -28.3028  -18.0393   21.6183 C   0  0  0  0  0  0
  -28.9304  -20.6563   20.5884 C   0  0  0  0  0  0
  -28.4896  -23.9586   20.9387 C   0  0  0  0  0  0
  -28.0905  -25.2827   20.9286 C   0  0  0  0  0  0
  -30.4845  -17.0431   20.5445 C   0  0  0  0  0  0
  -29.4345  -23.1410   20.1539 C   0  0  0  0  0  0
  -27.8063  -16.7024   22.1840 C   0  0  0  0  0  0
  -28.9591  -21.8995   19.8436 N   0  0  0  0  0  0
  -30.0441  -15.7408   20.6156 N   0  0  0  0  0  0
  -31.6245  -17.3555   20.1830 O   0  0  0  0  0  0
  -30.5680  -23.4930   19.8154 O   0  0  0  0  0  0
  -31.4674  -12.4485   19.1120 H   0  0  0  0  0  0
  -30.3751  -11.3695   19.9294 H   0  0  0  0  0  0
  -29.7567  -11.6678   17.5195 H   0  0  0  0  0  0
  -29.6353  -13.3999   17.7199 H   0  0  0  0  0  0
  -27.9143  -11.2538   18.9921 H   0  0  0  0  0  0
  -27.3523  -12.4487   17.8487 H   0  0  0  0  0  0
  -27.6711  -14.2339   19.5110 H   0  0  0  0  0  0
  -28.7260  -12.1257   21.4584 H   0  0  0  0  0  0
  -28.4859  -13.8084   21.8075 H   0  0  0  0  0  0
  -25.2766   -9.5663   22.4820 H   0  0  0  0  0  0
  -23.9994   -7.4621   22.7493 H   0  0  0  0  0  0
  -21.0883   -8.8808   19.8927 H   0  0  0  0  0  0
  -22.3769  -10.9712   19.6200 H   0  0  0  0  0  0
  -21.1997   -7.6144   23.9696 H   0  0  0  0  0  0
  -21.1498   -6.0533   25.9070 H   0  0  0  0  0  0
  -22.0591   -2.7600   23.2847 H   0  0  0  0  0  0
  -22.4098  -11.9907   22.4764 H   0  0  0  0  0  0
  -21.1098  -13.1253   22.2519 H   0  0  0  0  0  0
  -24.6655  -15.8420   20.5427 H   0  0  0  0  0  0
  -26.2538  -15.6289   20.0295 H   0  0  0  0  0  0
  -26.7180  -32.5411   23.1086 H   0  0  0  0  0  0
  -24.9953  -33.9699   25.0335 H   0  0  0  0  0  0
  -22.7208  -31.2863   21.3782 H   0  0  0  0  0  0
  -23.3738  -35.9629   23.3338 H   0  0  0  0  0  0
  -24.3580  -36.8903   22.2075 H   0  0  0  0  0  0
  -23.7220  -37.6425   23.6667 H   0  0  0  0  0  0
  -26.0959  -31.5651   20.5955 H   0  0  0  0  0  0
  -26.8542  -30.8655   21.9806 H   0  0  0  0  0  0
  -28.1450  -29.0130   21.1631 H   0  0  0  0  0  0
  -26.0427  -25.8915   19.0590 H   0  0  0  0  0  0
  -23.9846  -27.2525   19.0885 H   0  0  0  0  0  0
  -23.7638  -30.5598   19.3960 H   0  0  0  0  0  0
  -22.7836  -29.2062   19.8584 H   0  0  0  0  0  0
  -25.1303  -36.1922   25.0823 H   0  0  0  0  0  0
  -21.0115  -28.3007   24.1265 H   0  0  0  0  0  0
  -20.5893  -26.2118   23.3399 H   0  0  0  0  0  0
  -21.6492  -26.7276   22.0762 H   0  0  0  0  0  0
  -19.6565  -25.6112   21.1546 H   0  0  0  0  0  0
  -19.6418  -27.2793   20.6573 H   0  0  0  0  0  0
  -17.4052  -26.6857   21.4241 H   0  0  0  0  0  0
  -18.0175  -26.0122   22.9198 H   0  0  0  0  0  0
  -19.8516  -30.7198   24.1894 H   0  0  0  0  0  0
  -17.5639  -31.6573   24.4891 H   0  0  0  0  0  0
  -15.5723  -30.3467   23.7753 H   0  0  0  0  0  0
  -15.8652  -28.1171   22.7307 H   0  0  0  0  0  0
  -24.5895  -30.7066   25.7751 H   0  0  0  0  0  0
  -24.8973  -32.2786   26.4923 H   0  0  0  0  0  0
  -25.8103  -30.8728   27.0163 H   0  0  0  0  0  0
  -26.2903  -29.6714   24.1138 H   0  0  0  0  0  0
  -27.4140  -29.7251   25.4566 H   0  0  0  0  0  0
  -27.8709  -30.4304   23.9236 H   0  0  0  0  0  0
  -27.2645  -33.3537   26.2086 H   0  0  0  0  0  0
  -28.3806  -32.6923   25.0279 H   0  0  0  0  0  0
  -28.0738  -31.8354   26.5345 H   0  0  0  0  0  0
  -28.2567  -38.0078   24.7541 H   0  0  0  0  0  0
  -28.1084  -36.2611   24.6269 H   0  0  0  0  0  0
  -27.2299  -37.1381   25.8870 H   0  0  0  0  0  0
  -20.9606  -29.8144   21.6199 H   0  0  0  0  0  0
  -26.0161  -38.2834   24.1460 H   0  0  0  0  0  0
  -26.5625  -19.0192   22.4019 H   0  0  0  0  0  0
  -27.0253  -21.2134   21.4482 H   0  0  0  0  0  0
  -30.6911  -19.6691   19.7882 H   0  0  0  0  0  0
  -28.0161  -23.4005   21.7319 H   0  0  0  0  0  0
  -27.3982  -25.5495   21.7190 H   0  0  0  0  0  0
  -26.8177  -16.7455   22.6456 H   0  0  0  0  0  0
  -28.4690  -16.2911   22.9380 H   0  0  0  0  0  0
  -27.6876  -15.9819   21.3807 H   0  0  0  0  0  0
  -28.0094  -22.0297   19.5197 H   0  0  0  0  0  0
  -29.0784  -15.6321   20.8593 H   0  0  0  0  0  0
  1 25  1  0  0  0
  1 30  2  0  0  0
  1 83  1  0  0  0
  2  3  1  0  0  0
  2 25  1  0  0  0
  2 86  1  0  0  0
  2 87  1  0  0  0
  3  4  1  0  0  0
  3 88  1  0  0  0
  3 89  1  0  0  0
  4  5  1  0  0  0
  4 90  1  0  0  0
  4 91  1  0  0  0
  5  6  1  0  0  0
  5 26  1  0  0  0
  5 92  1  0  0  0
  6 25  1  0  0  0
  6 93  1  0  0  0
  6 94  1  0  0  0
  7  8  2  0  0  0
  7 26  1  0  0  0
  7 29  1  0  0  0
  8  9  1  0  0  0
  8 22  1  0  0  0
  9 10  1  0  0  0
  9 27  2  0  0  0
 10 11  2  0  0  0
 10 15  1  0  0  0
 11 12  1  0  0  0
 11 95  1  0  0  0
 12 13  2  0  0  0
 12 96  1  0  0  0
 13 14  1  0  0  0
 13 31  1  0  0  0
 14 15  2  0  0  0
 14 97  1  0  0  0
 15 98  1  0  0  0
 16 17  2  0  0  0
 16 21  1  0  0  0
 16 31  1  0  0  0
 17 18  1  0  0  0
 17 99  1  0  0  0
 18 19  2  0  0  0
 18100  1  0  0  0
 19 20  1  0  0  0
 19 24  1  0  0  0
 20 21  2  0  0  0
 20101  1  0  0  0
 21 23  1  0  0  0
 22 28  1  0  0  0
 22 32  2  0  0  0
 26 27  1  0  0  0
 28102  1  0  0  0
 28103  1  0  0  0
 29104  1  0  0  0
 29105  1  0  0  0
 33 34  1  0  0  0
 33 66  1  0  0  0
 33 70  2  0  0  0
 34 36  1  0  0  0
 34 59  1  0  0  0
 34106  1  0  0  0
 35 44  2  0  0  0
 35 45  1  0  0  0
 35 68  1  0  0  0
 36 56  1  0  0  0
 36107  1  0  0  0
 37 39  1  0  0  0
 37 47  1  0  0  0
 37 66  1  0  0  0
 37108  1  0  0  0
 38 43  2  0  0  0
 38 46  1  0  0  0
 38 47  1  0  0  0
 39 64  1  0  0  0
 39 67  2  0  0  0
 40 52  1  0  0  0
 40 53  2  0  0  0
 40 58  1  0  0  0
 41109  1  0  0  0
 41110  1  0  0  0
 41111  1  0  0  0
 41 48  1  0  0  0
 42 43  1  0  0  0
 42 66  1  0  0  0
 42112  1  0  0  0
 42113  1  0  0  0
 43 44  1  0  0  0
 44114  1  0  0  0
 45 46  2  0  0  0
 45115  1  0  0  0
 46116  1  0  0  0
 47117  1  0  0  0
 47118  1  0  0  0
 48 56  1  0  0  0
 48 65  1  0  0  0
 48119  1  0  0  0
 49 50  1  0  0  0
 49 53  1  0  0  0
 49 64  1  0  0  0
 49120  1  0  0  0
 50 51  1  0  0  0
 50121  1  0  0  0
 50122  1  0  0  0
 51 52  1  0  0  0
 51123  1  0  0  0
 51124  1  0  0  0
 52125  1  0  0  0
 52126  1  0  0  0
 53 54  1  0  0  0
 54 55  2  0  0  0
 54127  1  0  0  0
 55 57  1  0  0  0
 55128  1  0  0  0
 56 69  2  0  0  0
 57 58  2  0  0  0
 57129  1  0  0  0
 58130  1  0  0  0
 59 60  1  0  0  0
 59 61  1  0  0  0
 59 62  1  0  0  0
 60131  1  0  0  0
 60132  1  0  0  0
 60133  1  0  0  0
 61134  1  0  0  0
 61135  1  0  0  0
 61136  1  0  0  0
 62137  1  0  0  0
 62138  1  0  0  0
 62139  1  0  0  0
 63 65  1  0  0  0
 63140  1  0  0  0
 63141  1  0  0  0
 63142  1  0  0  0
 64143  1  0  0  0
 65144  1  0  0  0
 68 78  1  0  0  0
 71 72  2  0  0  0
 71 75  1  0  0  0
 71145  1  0  0  0
 72 76  1  0  0  0
 72146  1  0  0  0
 73 74  1  0  0  0
 73 76  2  0  0  0
 73147  1  0  0  0
 74 75  2  0  0  0
 74 79  1  0  0  0
 75 81  1  0  0  0
 76 82  1  0  0  0
 77 78  2  0  0  0
 77 80  1  0  0  0
 77148  1  0  0  0
 78149  1  0  0  0
 79 83  1  0  0  0
 79 84  2  0  0  0
 80 82  1  0  0  0
 80 85  2  0  0  0
 81150  1  0  0  0
 81151  1  0  0  0
 81152  1  0  0  0
 82153  1  0  0  0
 83154  1  0  0  0
M  ISO  4   1 100  68 101  78 101  83 100
M  END
> <chiral flag>
0

> <version>
0

> <s_m_source_file>
/data/baiqing/PycharmProjects/Reinvent-master-3.2/result/LINK_invent/BTK/process_docking_weight1_custom_product_contain_oxygen_bond_distance_aromatic_linkinvent_7_9_3/rearranged_h_0087.sdf

> <i_m_source_file_index>
26

> <r_mmod_Potential_Energy-OPLS-2005>
119.475776672363

> <r_mmod_Stretch_Energy-OPLS-2005>
76.2205810546875

> <r_mmod_Bend_Energy-OPLS-2005>
202.373794555664

> <r_mmod_Torsional_Energy-OPLS-2005>
327.246124267578

> <r_mmod_Improper_Torsional_Energy-OPLS-2005>
13.2771844863892

> <r_mmod_Van_der_Waal_Energy-OPLS-2005>
152.494232177734

> <r_mmod_Electrostatic_Energy-OPLS-2005>
-449.011505126953

> <r_mmod_Solvation_Energy-OPLS-2005>
-256.795715332031

> <b_mmod_Minimization_Converged-OPLS-2005>
0

> <r_mmod_RMS_Derivative-OPLS-2005>
13.5417375564575

$$$$
26
                    3D
 Structure written by MMmdl.
160169  0  0  1  0            999 V2000
  -30.7414  -14.4777   20.5967 C   0  0  0  0  0  0
  -30.4025  -12.3230   19.4174 C   0  0  0  0  0  0
  -29.4821  -12.5167   18.1978 C   0  0  0  0  0  0
  -28.0098  -12.3650   18.6196 C   0  0  0  0  0  0
  -27.6572  -13.2107   19.8733 C   0  0  2  0  0  0
  -28.7027  -13.0259   20.9978 C   0  0  0  0  0  0
  -25.2600  -13.8165   20.5690 C   0  0  0  0  0  0
  -24.1863  -13.0439   20.9194 C   0  0  0  0  0  0
  -24.6426  -11.6903   20.8759 C   0  0  0  0  0  0
  -23.9072  -10.4298   21.0434 C   0  0  0  0  0  0
  -24.3627   -9.4219   21.9214 C   0  0  0  0  0  0
  -23.6309   -8.2248   22.0760 C   0  0  0  0  0  0
  -22.4294   -8.0293   21.3537 C   0  0  0  0  0  0
  -21.9931   -9.0268   20.4637 C   0  0  0  0  0  0
  -22.7249  -10.2158   20.3070 C   0  0  0  0  0  0
  -21.6855   -6.0755   22.5282 C   0  0  0  0  0  0
  -21.4002   -6.5646   23.8215 C   0  0  0  0  0  0
  -21.3656   -5.6794   24.9175 C   0  0  0  0  0  0
  -21.6048   -4.3056   24.7229 C   0  0  0  0  0  0
  -21.8821   -3.8160   23.4344 C   0  0  0  0  0  0
  -21.9197   -4.6983   22.3403 C   0  0  0  0  0  0
  -22.7892  -13.5262   21.1840 C   0  0  0  0  0  0
  -22.1665   -4.2167   21.0978 F   0  0  0  0  0  0
  -21.5631   -3.4533   25.7735 F   0  0  0  0  0  0
  -30.0204  -13.3309   20.4271 N   0  0  0  0  0  0
  -26.3024  -12.9335   20.3394 N   0  0  0  0  0  0
  -25.9353  -11.6487   20.5794 N   0  0  0  0  0  0
  -22.0512  -12.8251   22.0380 N   0  0  0  0  0  0
  -25.4344  -15.1877   20.4041 N   0  0  0  0  0  0
  -31.8866  -14.5686   20.1422 O   0  0  0  0  0  0
  -21.6644   -6.8903   21.4247 O   0  0  0  0  0  0
  -22.3597  -14.5588   20.6710 O   0  0  0  0  0  0
  -24.6227  -31.8638   23.2065 C   0  0  0  0  0  0
  -25.9109  -32.4803   23.8365 C   0  0  1  0  0  0
  -27.2440  -27.3940   20.0913 C   0  0  0  0  0  0
  -25.5984  -33.8611   24.2348 N   0  0  0  0  0  0
  -23.4119  -30.4889   21.5472 C   0  0  2  0  0  0
  -24.8595  -28.9521   20.1075 C   0  0  0  0  0  0
  -22.7443  -29.4669   22.4967 C   0  0  0  0  0  0
  -18.0292  -28.1355   22.8498 C   0  0  0  0  0  0
  -24.1505  -36.7291   23.2616 C   0  0  0  0  0  0
  -25.9433  -30.8212   21.3595 C   0  0  0  0  0  0
  -26.0208  -29.4507   20.7091 C   0  0  0  0  0  0
  -27.2103  -28.6764   20.7036 C   0  0  0  0  0  0
  -26.0608  -26.9295   19.4840 C   0  0  0  0  0  0
  -24.8761  -27.6901   19.4920 C   0  0  0  0  0  0
  -23.6220  -29.8207   20.1622 C   0  0  0  0  0  0
  -25.4113  -36.3097   24.0339 C   0  0  1  0  0  0
  -20.5891  -28.3671   23.1276 C   0  0  2  0  0  0
  -20.6787  -26.9403   22.5385 C   0  0  0  0  0  0
  -19.5762  -26.6384   21.5195 C   0  0  0  0  0  0
  -18.1944  -26.7907   22.1613 C   0  0  0  0  0  0
  -19.1532  -28.8828   23.2892 C   0  0  0  0  0  0
  -18.9458  -30.1451   23.8888 C   0  0  0  0  0  0
  -17.6445  -30.6567   24.0566 C   0  0  0  0  0  0
  -25.9063  -34.9471   23.5129 C   0  0  0  0  0  0
  -16.5350  -29.9065   23.6334 C   0  0  0  0  0  0
  -16.7264  -28.6485   23.0353 C   0  0  0  0  0  0
  -26.4536  -31.6534   25.0669 C   0  0  0  0  0  0
  -25.3791  -31.3561   26.1387 C   0  0  0  0  0  0
  -27.0367  -30.2985   24.5991 C   0  0  0  0  0  0
  -27.6138  -32.4202   25.7430 C   0  0  0  0  0  0
  -27.5581  -37.1788   24.8478 C   0  0  0  0  0  0
  -21.4174  -29.3046   22.3690 N   0  0  0  0  0  0
  -26.4294  -37.3782   23.9430 N   0  0  0  0  0  0
  -24.6792  -31.0740   22.0956 N   0  0  0  0  0  0
  -23.4189  -28.8207   23.3022 O   0  0  0  0  0  0
  -28.3864  -26.6064   20.1739 O   0  0  0  0  0  0
  -26.5576  -34.8937   22.4659 O   0  0  0  0  0  0
  -23.5422  -32.1413   23.7442 O   0  0  0  0  0  0
  -28.7250  -18.3911   21.4610 C   0  0  0  0  0  0
  -28.2047  -19.6747   21.1530 C   0  0  0  0  0  0
  -30.8434  -19.0740   20.5168 C   0  0  0  0  0  0
  -30.0563  -18.0616   21.1183 C   0  0  0  0  0  0
  -28.9739  -20.6802   20.5029 C   0  0  0  0  0  0
  -30.3302  -20.3583   20.2112 C   0  0  0  0  0  0
  -28.7376  -23.2186   20.0700 C   0  0  0  0  0  0
  -28.2513  -24.1833   19.2263 C   0  0  0  0  0  0
  -27.1715  -22.3055   17.8890 C   0  0  0  0  0  0
  -30.7069  -16.7252   21.4368 C   0  0  0  0  0  0
  -27.2766  -23.8119   18.0940 C   0  0  0  0  0  0
  -27.1995  -21.4788   19.1680 C   0  0  0  0  0  0
  -28.7503  -25.6549   19.1413 C   0  0  0  0  0  0
  -28.3204  -21.8645   20.0373 N   0  0  0  0  0  0
  -31.1736  -21.2689   19.5744 N   0  0  0  0  0  0
  -30.0917  -15.5627   21.0972 N   0  0  0  0  0  0
  -27.0420  -21.7970   16.7713 O   0  0  0  0  0  0
  -31.8383  -16.7595   21.9384 O   0  0  0  0  0  0
  -31.4495  -12.3941   19.1168 H   0  0  0  0  0  0
  -30.2782  -11.3163   19.8178 H   0  0  0  0  0  0
  -29.7218  -11.7963   17.4151 H   0  0  0  0  0  0
  -29.6439  -13.5038   17.7608 H   0  0  0  0  0  0
  -27.8387  -11.3083   18.8261 H   0  0  0  0  0  0
  -27.3463  -12.6212   17.7930 H   0  0  0  0  0  0
  -27.6923  -14.2550   19.5640 H   0  0  0  0  0  0
  -28.6918  -11.9972   21.3651 H   0  0  0  0  0  0
  -28.4741  -13.6507   21.8623 H   0  0  0  0  0  0
  -25.2784   -9.5694   22.4786 H   0  0  0  0  0  0
  -24.0006   -7.4648   22.7497 H   0  0  0  0  0  0
  -21.0848   -8.8802   19.8956 H   0  0  0  0  0  0
  -22.3720  -10.9702   19.6177 H   0  0  0  0  0  0
  -21.1979   -7.6151   23.9725 H   0  0  0  0  0  0
  -21.1466   -6.0519   25.9077 H   0  0  0  0  0  0
  -22.0606   -2.7620   23.2839 H   0  0  0  0  0  0
  -22.4079  -11.9883   22.4737 H   0  0  0  0  0  0
  -21.1150  -13.1325   22.2566 H   0  0  0  0  0  0
  -24.6684  -15.8436   20.5146 H   0  0  0  0  0  0
  -26.2681  -15.6156   20.0209 H   0  0  0  0  0  0
  -26.7165  -32.5512   23.1125 H   0  0  0  0  0  0
  -25.0236  -33.9793   25.0562 H   0  0  0  0  0  0
  -22.7025  -31.3083   21.4049 H   0  0  0  0  0  0
  -23.3789  -35.9609   23.3280 H   0  0  0  0  0  0
  -24.3606  -36.8884   22.2034 H   0  0  0  0  0  0
  -23.7253  -37.6493   23.6608 H   0  0  0  0  0  0
  -26.0532  -31.5825   20.5859 H   0  0  0  0  0  0
  -26.8340  -30.8830   21.9719 H   0  0  0  0  0  0
  -28.1068  -29.0580   21.1750 H   0  0  0  0  0  0
  -26.0276  -25.9600   19.0340 H   0  0  0  0  0  0
  -23.9823  -27.2899   19.0359 H   0  0  0  0  0  0
  -23.7285  -30.5937   19.4005 H   0  0  0  0  0  0
  -22.7451  -29.2408   19.8657 H   0  0  0  0  0  0
  -25.1281  -36.1939   25.0822 H   0  0  0  0  0  0
  -21.0014  -28.3231   24.1382 H   0  0  0  0  0  0
  -20.5706  -26.2281   23.3584 H   0  0  0  0  0  0
  -21.6654  -26.7445   22.1163 H   0  0  0  0  0  0
  -19.6933  -25.6309   21.1196 H   0  0  0  0  0  0
  -19.6683  -27.3222   20.6751 H   0  0  0  0  0  0
  -17.4224  -26.6684   21.4006 H   0  0  0  0  0  0
  -18.0332  -26.0011   22.8958 H   0  0  0  0  0  0
  -19.7923  -30.7282   24.2240 H   0  0  0  0  0  0
  -17.4992  -31.6249   24.5171 H   0  0  0  0  0  0
  -15.5353  -30.2962   23.7655 H   0  0  0  0  0  0
  -15.8670  -28.0809   22.7063 H   0  0  0  0  0  0
  -24.6083  -30.6796   25.7662 H   0  0  0  0  0  0
  -24.8856  -32.2661   26.4772 H   0  0  0  0  0  0
  -25.8154  -30.8756   27.0155 H   0  0  0  0  0  0
  -26.2869  -29.6716   24.1134 H   0  0  0  0  0  0
  -27.4271  -29.7225   25.4384 H   0  0  0  0  0  0
  -27.8652  -30.4323   23.9039 H   0  0  0  0  0  0
  -27.2838  -33.3555   26.1952 H   0  0  0  0  0  0
  -28.3978  -32.6627   25.0244 H   0  0  0  0  0  0
  -28.0762  -31.8307   26.5359 H   0  0  0  0  0  0
  -28.2599  -38.0082   24.7527 H   0  0  0  0  0  0
  -28.1079  -36.2611   24.6300 H   0  0  0  0  0  0
  -27.2292  -37.1421   25.8878 H   0  0  0  0  0  0
  -20.9359  -29.8747   21.6878 H   0  0  0  0  0  0
  -26.0184  -38.2863   24.1418 H   0  0  0  0  0  0
  -28.1003  -17.6708   21.9705 H   0  0  0  0  0  0
  -27.1757  -19.8813   21.4104 H   0  0  0  0  0  0
  -31.8680  -18.8403   20.2682 H   0  0  0  0  0  0
  -29.4700  -23.4453   20.8333 H   0  0  0  0  0  0
  -27.6272  -24.2497   17.1613 H   0  0  0  0  0  0
  -26.2744  -24.1810   18.2826 H   0  0  0  0  0  0
  -27.2515  -20.4289   18.8775 H   0  0  0  0  0  0
  -26.2571  -21.6225   19.6974 H   0  0  0  0  0  0
  -28.5140  -26.0880   18.1674 H   0  0  0  0  0  0
  -29.8383  -25.6013   19.1603 H   0  0  0  0  0  0
  -32.1739  -21.1000   19.5882 H   0  0  0  0  0  0
  -30.9235  -22.2515   19.6187 H   0  0  0  0  0  0
  -29.0864  -15.5338   21.1033 H   0  0  0  0  0  0
  1 25  1  0  0  0
  1 30  2  0  0  0
  1 86  1  0  0  0
  2  3  1  0  0  0
  2 25  1  0  0  0
  2 89  1  0  0  0
  2 90  1  0  0  0
  3  4  1  0  0  0
  3 91  1  0  0  0
  3 92  1  0  0  0
  4  5  1  0  0  0
  4 93  1  0  0  0
  4 94  1  0  0  0
  5  6  1  0  0  0
  5 26  1  0  0  0
  5 95  1  0  0  0
  6 25  1  0  0  0
  6 96  1  0  0  0
  6 97  1  0  0  0
  7  8  2  0  0  0
  7 26  1  0  0  0
  7 29  1  0  0  0
  8  9  1  0  0  0
  8 22  1  0  0  0
  9 10  1  0  0  0
  9 27  2  0  0  0
 10 11  2  0  0  0
 10 15  1  0  0  0
 11 12  1  0  0  0
 11 98  1  0  0  0
 12 13  2  0  0  0
 12 99  1  0  0  0
 13 14  1  0  0  0
 13 31  1  0  0  0
 14 15  2  0  0  0
 14100  1  0  0  0
 15101  1  0  0  0
 16 17  2  0  0  0
 16 21  1  0  0  0
 16 31  1  0  0  0
 17 18  1  0  0  0
 17102  1  0  0  0
 18 19  2  0  0  0
 18103  1  0  0  0
 19 20  1  0  0  0
 19 24  1  0  0  0
 20 21  2  0  0  0
 20104  1  0  0  0
 21 23  1  0  0  0
 22 28  1  0  0  0
 22 32  2  0  0  0
 26 27  1  0  0  0
 28105  1  0  0  0
 28106  1  0  0  0
 29107  1  0  0  0
 29108  1  0  0  0
 33 34  1  0  0  0
 33 66  1  0  0  0
 33 70  2  0  0  0
 34 36  1  0  0  0
 34 59  1  0  0  0
 34109  1  0  0  0
 35 44  2  0  0  0
 35 45  1  0  0  0
 35 68  1  0  0  0
 36 56  1  0  0  0
 36110  1  0  0  0
 37 39  1  0  0  0
 37 47  1  0  0  0
 37 66  1  0  0  0
 37111  1  0  0  0
 38 43  2  0  0  0
 38 46  1  0  0  0
 38 47  1  0  0  0
 39 64  1  0  0  0
 39 67  2  0  0  0
 40 52  1  0  0  0
 40 53  2  0  0  0
 40 58  1  0  0  0
 41112  1  0  0  0
 41113  1  0  0  0
 41114  1  0  0  0
 41 48  1  0  0  0
 42 43  1  0  0  0
 42 66  1  0  0  0
 42115  1  0  0  0
 42116  1  0  0  0
 43 44  1  0  0  0
 44117  1  0  0  0
 45 46  2  0  0  0
 45118  1  0  0  0
 46119  1  0  0  0
 47120  1  0  0  0
 47121  1  0  0  0
 48 56  1  0  0  0
 48 65  1  0  0  0
 48122  1  0  0  0
 49 50  1  0  0  0
 49 53  1  0  0  0
 49 64  1  0  0  0
 49123  1  0  0  0
 50 51  1  0  0  0
 50124  1  0  0  0
 50125  1  0  0  0
 51 52  1  0  0  0
 51126  1  0  0  0
 51127  1  0  0  0
 52128  1  0  0  0
 52129  1  0  0  0
 53 54  1  0  0  0
 54 55  2  0  0  0
 54130  1  0  0  0
 55 57  1  0  0  0
 55131  1  0  0  0
 56 69  2  0  0  0
 57 58  2  0  0  0
 57132  1  0  0  0
 58133  1  0  0  0
 59 60  1  0  0  0
 59 61  1  0  0  0
 59 62  1  0  0  0
 60134  1  0  0  0
 60135  1  0  0  0
 60136  1  0  0  0
 61137  1  0  0  0
 61138  1  0  0  0
 61139  1  0  0  0
 62140  1  0  0  0
 62141  1  0  0  0
 62142  1  0  0  0
 63 65  1  0  0  0
 63143  1  0  0  0
 63144  1  0  0  0
 63145  1  0  0  0
 64146  1  0  0  0
 65147  1  0  0  0
 68 83  1  0  0  0
 71 72  2  0  0  0
 71 74  1  0  0  0
 71148  1  0  0  0
 72 75  1  0  0  0
 72149  1  0  0  0
 73 74  2  0  0  0
 73 76  1  0  0  0
 73150  1  0  0  0
 74 80  1  0  0  0
 75 76  2  0  0  0
 75 84  1  0  0  0
 76 85  1  0  0  0
 77 78  2  0  0  0
 77 84  1  0  0  0
 77151  1  0  0  0
 78 81  1  0  0  0
 78 83  1  0  0  0
 79 81  1  0  0  0
 79 82  1  0  0  0
 79 87  2  0  0  0
 80 86  1  0  0  0
 80 88  2  0  0  0
 81152  1  0  0  0
 81153  1  0  0  0
 82 84  1  0  0  0
 82154  1  0  0  0
 82155  1  0  0  0
 83156  1  0  0  0
 83157  1  0  0  0
 85158  1  0  0  0
 85159  1  0  0  0
 86160  1  0  0  0
M  ISO  4   1 100  68 101  83 101  86 100
M  END
> <chiral flag>
0

> <version>
0

> <s_m_source_file>
/data/baiqing/PycharmProjects/Reinvent-master-3.2/result/LINK_invent/BTK/process_docking_weight1_custom_product_contain_oxygen_bond_distance_aromatic_linkinvent_7_9_3/rearranged_h_0087.sdf

> <i_m_source_file_index>
27

> <r_mmod_Potential_Energy-OPLS-2005>
-38.4116325378418

> <r_mmod_Stretch_Energy-OPLS-2005>
56.0458564758301

> <r_mmod_Bend_Energy-OPLS-2005>
134.979156494141

> <r_mmod_Torsional_Energy-OPLS-2005>
283.395965576172

> <r_mmod_Improper_Torsional_Energy-OPLS-2005>
9.77140617370605

> <r_mmod_Van_der_Waal_Energy-OPLS-2005>
174.738586425781

> <r_mmod_Electrostatic_Energy-OPLS-2005>
-468.652954101562

> <r_mmod_Solvation_Energy-OPLS-2005>
-249.606094360352

> <b_mmod_Minimization_Converged-OPLS-2005>
0

> <r_mmod_RMS_Derivative-OPLS-2005>
4.63388013839722

$$$$
27
                    3D
 Structure written by MMmdl.
150159  0  0  1  0            999 V2000
  -30.5590  -14.8807   20.3801 C   0  0  0  0  0  0
  -30.4303  -12.5339   19.4850 C   0  0  0  0  0  0
  -29.5126  -12.5183   18.2417 C   0  0  0  0  0  0
  -28.0414  -12.3232   18.6548 C   0  0  0  0  0  0
  -27.6300  -13.2443   19.8341 C   0  0  2  0  0  0
  -28.6736  -13.2470   20.9712 C   0  0  0  0  0  0
  -25.2489  -13.8227   20.5710 C   0  0  0  0  0  0
  -24.1801  -13.0456   20.9233 C   0  0  0  0  0  0
  -24.6404  -11.6935   20.8769 C   0  0  0  0  0  0
  -23.9084  -10.4300   21.0415 C   0  0  0  0  0  0
  -24.3636   -9.4208   21.9185 C   0  0  0  0  0  0
  -23.6315   -8.2241   22.0749 C   0  0  0  0  0  0
  -22.4300   -8.0282   21.3535 C   0  0  0  0  0  0
  -21.9935   -9.0261   20.4644 C   0  0  0  0  0  0
  -22.7260  -10.2142   20.3059 C   0  0  0  0  0  0
  -21.6860   -6.0746   22.5282 C   0  0  0  0  0  0
  -21.4016   -6.5646   23.8218 C   0  0  0  0  0  0
  -21.3659   -5.6794   24.9175 C   0  0  0  0  0  0
  -21.6046   -4.3055   24.7224 C   0  0  0  0  0  0
  -21.8821   -3.8152   23.4342 C   0  0  0  0  0  0
  -21.9202   -4.6973   22.3403 C   0  0  0  0  0  0
  -22.7823  -13.5221   21.1889 C   0  0  0  0  0  0
  -22.1664   -4.2155   21.0982 F   0  0  0  0  0  0
  -21.5626   -3.4534   25.7729 F   0  0  0  0  0  0
  -29.9591  -13.6286   20.3751 N   0  0  0  0  0  0
  -26.2890  -12.9439   20.3226 N   0  0  0  0  0  0
  -25.9327  -11.6577   20.5745 N   0  0  0  0  0  0
  -22.0475  -12.8191   22.0435 N   0  0  0  0  0  0
  -25.4193  -15.1956   20.4126 N   0  0  0  0  0  0
  -31.7714  -14.9281   20.1486 O   0  0  0  0  0  0
  -21.6648   -6.8886   21.4241 O   0  0  0  0  0  0
  -22.3498  -14.5530   20.6743 O   0  0  0  0  0  0
  -24.6393  -31.8484   23.1908 C   0  0  0  0  0  0
  -25.9186  -32.4713   23.8291 C   0  0  1  0  0  0
  -27.2173  -27.1784   20.1434 C   0  0  0  0  0  0
  -25.5943  -33.8514   24.2212 N   0  0  0  0  0  0
  -23.4413  -30.4698   21.5346 C   0  0  2  0  0  0
  -24.8925  -28.9016   20.1105 C   0  0  0  0  0  0
  -22.7546  -29.4577   22.4854 C   0  0  0  0  0  0
  -18.0301  -28.1382   22.8483 C   0  0  0  0  0  0
  -24.1495  -36.7272   23.2638 C   0  0  0  0  0  0
  -25.9953  -30.7333   21.3865 C   0  0  0  0  0  0
  -26.0684  -29.3471   20.7301 C   0  0  0  0  0  0
  -27.2347  -28.4990   20.7352 C   0  0  0  0  0  0
  -26.0213  -26.8263   19.4849 C   0  0  0  0  0  0
  -24.8785  -27.6520   19.4736 C   0  0  0  0  0  0
  -23.6677  -29.8002   20.1535 C   0  0  0  0  0  0
  -25.4119  -36.3051   24.0325 C   0  0  1  0  0  0
  -20.5917  -28.3719   23.1226 C   0  0  2  0  0  0
  -20.6788  -26.9424   22.5396 C   0  0  0  0  0  0
  -19.5761  -26.6372   21.5209 C   0  0  0  0  0  0
  -18.1943  -26.7916   22.1624 C   0  0  0  0  0  0
  -19.1559  -28.8865   23.2850 C   0  0  0  0  0  0
  -18.9474  -30.1458   23.8889 C   0  0  0  0  0  0
  -17.6473  -30.6585   24.0565 C   0  0  0  0  0  0
  -25.9061  -34.9422   23.5078 C   0  0  0  0  0  0
  -16.5363  -29.9092   23.6320 C   0  0  0  0  0  0
  -16.7288  -28.6498   23.0359 C   0  0  0  0  0  0
  -26.4518  -31.6544   25.0704 C   0  0  0  0  0  0
  -25.3709  -31.3743   26.1405 C   0  0  0  0  0  0
  -27.0368  -30.2935   24.6253 C   0  0  0  0  0  0
  -27.6058  -32.4296   25.7488 C   0  0  0  0  0  0
  -27.5577  -37.1793   24.8458 C   0  0  0  0  0  0
  -21.4240  -29.3064   22.3606 N   0  0  0  0  0  0
  -26.4293  -37.3754   23.9399 N   0  0  0  0  0  0
  -24.7110  -31.0374   22.0929 N   0  0  0  0  0  0
  -23.4208  -28.8118   23.2982 O   0  0  0  0  0  0
  -28.2571  -26.1941   20.1540 O   0  0  0  0  0  0
  -26.5653  -34.8916   22.4658 O   0  0  0  0  0  0
  -23.5516  -32.1344   23.7139 O   0  0  0  0  0  0
  -30.3910  -20.0400   18.6744 C   0  0  0  0  0  0
  -30.9287  -18.8517   18.1479 C   0  0  0  0  0  0
  -29.3812  -18.7489   20.4167 C   0  0  0  0  0  0
  -29.5597  -20.1051   19.8208 C   0  0  0  0  0  0
  -29.9685  -17.4675   19.9346 C   0  0  0  0  0  0
  -30.7115  -17.5970   18.7373 C   0  0  0  0  0  0
  -28.4719  -23.5462   20.3509 C   0  0  0  0  0  0
  -28.0955  -22.2302   20.9270 C   0  0  0  0  0  0
  -27.9627  -24.8447   20.6044 C   0  0  0  0  0  0
  -29.5139  -22.7861   19.4840 C   0  0  0  0  0  0
  -29.0573  -21.5141   20.1528 N   0  0  0  0  0  0
  -29.7815  -16.0587   20.4947 N   0  0  0  0  0  0
  -27.2461  -21.9425   21.7448 O   0  0  0  0  0  0
  -31.1882  -16.5113   18.0837 F   0  0  0  0  0  0
  -31.4662  -12.6749   19.1738 H   0  0  0  0  0  0
  -30.4003  -11.5747   20.0047 H   0  0  0  0  0  0
  -29.8147  -11.7268   17.5540 H   0  0  0  0  0  0
  -29.6204  -13.4576   17.6954 H   0  0  0  0  0  0
  -27.9167  -11.2789   18.9392 H   0  0  0  0  0  0
  -27.3838  -12.4824   17.7996 H   0  0  0  0  0  0
  -27.6000  -14.2520   19.4206 H   0  0  0  0  0  0
  -28.7392  -12.2676   21.4481 H   0  0  0  0  0  0
  -28.3870  -13.9529   21.7530 H   0  0  0  0  0  0
  -25.2784   -9.5684   22.4755 H   0  0  0  0  0  0
  -24.0022   -7.4630   22.7469 H   0  0  0  0  0  0
  -21.0865   -8.8792   19.8956 H   0  0  0  0  0  0
  -22.3726  -10.9684   19.6172 H   0  0  0  0  0  0
  -21.2001   -7.6157   23.9727 H   0  0  0  0  0  0
  -21.1476   -6.0520   25.9079 H   0  0  0  0  0  0
  -22.0603   -2.7615   23.2848 H   0  0  0  0  0  0
  -22.4096  -11.9852   22.4808 H   0  0  0  0  0  0
  -21.1099  -13.1216   22.2664 H   0  0  0  0  0  0
  -24.6582  -15.8552   20.5296 H   0  0  0  0  0  0
  -26.2651  -15.6281   20.0639 H   0  0  0  0  0  0
  -26.7247  -32.5340   23.1022 H   0  0  0  0  0  0
  -25.0074  -33.9629   25.0350 H   0  0  0  0  0  0
  -22.7419  -31.2951   21.3812 H   0  0  0  0  0  0
  -23.3761  -35.9602   23.3297 H   0  0  0  0  0  0
  -24.3580  -36.8899   22.2049 H   0  0  0  0  0  0
  -23.7248  -37.6470   23.6672 H   0  0  0  0  0  0
  -26.1460  -31.4910   20.6164 H   0  0  0  0  0  0
  -26.8673  -30.7842   22.0267 H   0  0  0  0  0  0
  -28.1320  -28.8349   21.2364 H   0  0  0  0  0  0
  -25.9584  -25.8684   18.9889 H   0  0  0  0  0  0
  -23.9839  -27.3091   18.9727 H   0  0  0  0  0  0
  -23.8019  -30.5767   19.3994 H   0  0  0  0  0  0
  -22.7831  -29.2416   19.8415 H   0  0  0  0  0  0
  -25.1301  -36.1901   25.0820 H   0  0  0  0  0  0
  -21.0008  -28.3327   24.1347 H   0  0  0  0  0  0
  -20.5665  -26.2353   23.3627 H   0  0  0  0  0  0
  -21.6657  -26.7426   22.1208 H   0  0  0  0  0  0
  -19.6935  -25.6279   21.1249 H   0  0  0  0  0  0
  -19.6685  -27.3176   20.6735 H   0  0  0  0  0  0
  -17.4206  -26.6662   21.4037 H   0  0  0  0  0  0
  -18.0360  -26.0058   22.9020 H   0  0  0  0  0  0
  -19.7953  -30.7269   24.2265 H   0  0  0  0  0  0
  -17.5030  -31.6262   24.5172 H   0  0  0  0  0  0
  -15.5364  -30.2998   23.7625 H   0  0  0  0  0  0
  -15.8690  -28.0804   22.7086 H   0  0  0  0  0  0
  -24.5898  -30.7076   25.7727 H   0  0  0  0  0  0
  -24.8893  -32.2935   26.4748 H   0  0  0  0  0  0
  -25.7995  -30.8965   27.0225 H   0  0  0  0  0  0
  -26.2973  -29.6664   24.1256 H   0  0  0  0  0  0
  -27.3982  -29.7212   25.4805 H   0  0  0  0  0  0
  -27.8889  -30.4155   23.9569 H   0  0  0  0  0  0
  -27.2654  -33.3609   26.2030 H   0  0  0  0  0  0
  -28.3901  -32.6824   25.0340 H   0  0  0  0  0  0
  -28.0703  -31.8443   26.5434 H   0  0  0  0  0  0
  -28.2590  -38.0092   24.7497 H   0  0  0  0  0  0
  -28.1085  -36.2619   24.6308 H   0  0  0  0  0  0
  -27.2293  -37.1461   25.8862 H   0  0  0  0  0  0
  -20.9438  -29.8802   21.6814 H   0  0  0  0  0  0
  -26.0173  -38.2837   24.1375 H   0  0  0  0  0  0
  -30.6254  -20.9353   18.1198 H   0  0  0  0  0  0
  -31.5117  -18.9013   17.2397 H   0  0  0  0  0  0
  -28.7575  -18.6893   21.2972 H   0  0  0  0  0  0
  -27.1707  -24.9002   21.3388 H   0  0  0  0  0  0
  -30.5669  -22.9922   19.6782 H   0  0  0  0  0  0
  -29.3254  -22.7778   18.4094 H   0  0  0  0  0  0
  -28.8664  -15.8942   20.8834 H   0  0  0  0  0  0
  1 25  1  0  0  0
  1 30  2  0  0  0
  1 82  1  0  0  0
  2  3  1  0  0  0
  2 25  1  0  0  0
  2 85  1  0  0  0
  2 86  1  0  0  0
  3  4  1  0  0  0
  3 87  1  0  0  0
  3 88  1  0  0  0
  4  5  1  0  0  0
  4 89  1  0  0  0
  4 90  1  0  0  0
  5  6  1  0  0  0
  5 26  1  0  0  0
  5 91  1  0  0  0
  6 25  1  0  0  0
  6 92  1  0  0  0
  6 93  1  0  0  0
  7  8  2  0  0  0
  7 26  1  0  0  0
  7 29  1  0  0  0
  8  9  1  0  0  0
  8 22  1  0  0  0
  9 10  1  0  0  0
  9 27  2  0  0  0
 10 11  2  0  0  0
 10 15  1  0  0  0
 11 12  1  0  0  0
 11 94  1  0  0  0
 12 13  2  0  0  0
 12 95  1  0  0  0
 13 14  1  0  0  0
 13 31  1  0  0  0
 14 15  2  0  0  0
 14 96  1  0  0  0
 15 97  1  0  0  0
 16 17  2  0  0  0
 16 21  1  0  0  0
 16 31  1  0  0  0
 17 18  1  0  0  0
 17 98  1  0  0  0
 18 19  2  0  0  0
 18 99  1  0  0  0
 19 20  1  0  0  0
 19 24  1  0  0  0
 20 21  2  0  0  0
 20100  1  0  0  0
 21 23  1  0  0  0
 22 28  1  0  0  0
 22 32  2  0  0  0
 26 27  1  0  0  0
 28101  1  0  0  0
 28102  1  0  0  0
 29103  1  0  0  0
 29104  1  0  0  0
 33 34  1  0  0  0
 33 66  1  0  0  0
 33 70  2  0  0  0
 34 36  1  0  0  0
 34 59  1  0  0  0
 34105  1  0  0  0
 35 44  2  0  0  0
 35 45  1  0  0  0
 35 68  1  0  0  0
 36 56  1  0  0  0
 36106  1  0  0  0
 37 39  1  0  0  0
 37 47  1  0  0  0
 37 66  1  0  0  0
 37107  1  0  0  0
 38 43  2  0  0  0
 38 46  1  0  0  0
 38 47  1  0  0  0
 39 64  1  0  0  0
 39 67  2  0  0  0
 40 52  1  0  0  0
 40 53  2  0  0  0
 40 58  1  0  0  0
 41108  1  0  0  0
 41109  1  0  0  0
 41110  1  0  0  0
 41 48  1  0  0  0
 42 43  1  0  0  0
 42 66  1  0  0  0
 42111  1  0  0  0
 42112  1  0  0  0
 43 44  1  0  0  0
 44113  1  0  0  0
 45 46  2  0  0  0
 45114  1  0  0  0
 46115  1  0  0  0
 47116  1  0  0  0
 47117  1  0  0  0
 48 56  1  0  0  0
 48 65  1  0  0  0
 48118  1  0  0  0
 49 50  1  0  0  0
 49 53  1  0  0  0
 49 64  1  0  0  0
 49119  1  0  0  0
 50 51  1  0  0  0
 50120  1  0  0  0
 50121  1  0  0  0
 51 52  1  0  0  0
 51122  1  0  0  0
 51123  1  0  0  0
 52124  1  0  0  0
 52125  1  0  0  0
 53 54  1  0  0  0
 54 55  2  0  0  0
 54126  1  0  0  0
 55 57  1  0  0  0
 55127  1  0  0  0
 56 69  2  0  0  0
 57 58  2  0  0  0
 57128  1  0  0  0
 58129  1  0  0  0
 59 60  1  0  0  0
 59 61  1  0  0  0
 59 62  1  0  0  0
 60130  1  0  0  0
 60131  1  0  0  0
 60132  1  0  0  0
 61133  1  0  0  0
 61134  1  0  0  0
 61135  1  0  0  0
 62136  1  0  0  0
 62137  1  0  0  0
 62138  1  0  0  0
 63 65  1  0  0  0
 63139  1  0  0  0
 63140  1  0  0  0
 63141  1  0  0  0
 64142  1  0  0  0
 65143  1  0  0  0
 68 79  1  0  0  0
 71 72  2  0  0  0
 71 74  1  0  0  0
 71144  1  0  0  0
 72 76  1  0  0  0
 72145  1  0  0  0
 73 74  2  0  0  0
 73 75  1  0  0  0
 73146  1  0  0  0
 74 81  1  0  0  0
 75 76  2  0  0  0
 75 82  1  0  0  0
 76 84  1  0  0  0
 77 78  1  0  0  0
 77 79  2  0  0  0
 77 80  1  0  0  0
 78 81  1  0  0  0
 78 83  2  0  0  0
 79147  1  0  0  0
 80 81  1  0  0  0
 80148  1  0  0  0
 80149  1  0  0  0
 82150  1  0  0  0
M  ISO  4   1 100  68 101  79 101  82 100
M  END
> <chiral flag>
0

> <version>
0

> <s_m_source_file>
/data/baiqing/PycharmProjects/Reinvent-master-3.2/result/LINK_invent/BTK/process_docking_weight1_custom_product_contain_oxygen_bond_distance_aromatic_linkinvent_7_9_3/rearranged_h_0087.sdf

> <i_m_source_file_index>
28

> <r_mmod_Potential_Energy-OPLS-2005>
394.800140380859

> <r_mmod_Stretch_Energy-OPLS-2005>
190.914184570312

> <r_mmod_Bend_Energy-OPLS-2005>
287.24951171875

> <r_mmod_Torsional_Energy-OPLS-2005>
239.973739624023

> <r_mmod_Improper_Torsional_Energy-OPLS-2005>
4.04099130630493

> <r_mmod_Van_der_Waal_Energy-OPLS-2005>
137.345153808594

> <r_mmod_Electrostatic_Energy-OPLS-2005>
-393.162384033203

> <r_mmod_Solvation_Energy-OPLS-2005>
-226.341339111328

> <b_mmod_Minimization_Converged-OPLS-2005>
0

> <r_mmod_RMS_Derivative-OPLS-2005>
2.09190702438354

$$$$
28
                    3D
 Structure written by MMmdl.
159168  0  0  1  0            999 V2000
  -30.5902  -14.7674   20.4437 C   0  0  0  0  0  0
  -30.4452  -12.4357   19.5448 C   0  0  0  0  0  0
  -29.5542  -12.4506   18.2840 C   0  0  0  0  0  0
  -28.0600  -12.3369   18.6541 C   0  0  0  0  0  0
  -27.6492  -13.2342   19.8530 C   0  0  2  0  0  0
  -28.6780  -13.1769   21.0035 C   0  0  0  0  0  0
  -25.2509  -13.8185   20.5611 C   0  0  0  0  0  0
  -24.1794  -13.0439   20.9145 C   0  0  0  0  0  0
  -24.6370  -11.6917   20.8695 C   0  0  0  0  0  0
  -23.9041  -10.4287   21.0386 C   0  0  0  0  0  0
  -24.3594   -9.4212   21.9178 C   0  0  0  0  0  0
  -23.6279   -8.2241   22.0762 C   0  0  0  0  0  0
  -22.4267   -8.0273   21.3530 C   0  0  0  0  0  0
  -21.9884   -9.0249   20.4633 C   0  0  0  0  0  0
  -22.7212  -10.2124   20.3030 C   0  0  0  0  0  0
  -21.6844   -6.0717   22.5280 C   0  0  0  0  0  0
  -21.4021   -6.5625   23.8211 C   0  0  0  0  0  0
  -21.3672   -5.6782   24.9178 C   0  0  0  0  0  0
  -21.6042   -4.3035   24.7227 C   0  0  0  0  0  0
  -21.8825   -3.8124   23.4350 C   0  0  0  0  0  0
  -21.9183   -4.6939   22.3407 C   0  0  0  0  0  0
  -22.7818  -13.5233   21.1869 C   0  0  0  0  0  0
  -22.1666   -4.2109   21.0984 F   0  0  0  0  0  0
  -21.5623   -3.4517   25.7753 F   0  0  0  0  0  0
  -29.9904  -13.5241   20.4451 N   0  0  0  0  0  0
  -26.2952  -12.9391   20.3194 N   0  0  0  0  0  0
  -25.9293  -11.6539   20.5699 N   0  0  0  0  0  0
  -22.0434  -12.8244   22.0428 N   0  0  0  0  0  0
  -25.4188  -15.1910   20.4045 N   0  0  0  0  0  0
  -31.7599  -14.8758   20.0578 O   0  0  0  0  0  0
  -21.6619   -6.8872   21.4247 O   0  0  0  0  0  0
  -22.3506  -14.5547   20.6733 O   0  0  0  0  0  0
  -24.6340  -31.8578   23.2015 C   0  0  0  0  0  0
  -25.9167  -32.4760   23.8356 C   0  0  1  0  0  0
  -27.2016  -27.2499   20.1195 C   0  0  0  0  0  0
  -25.5971  -33.8554   24.2282 N   0  0  0  0  0  0
  -23.4295  -30.4867   21.5445 C   0  0  2  0  0  0
  -24.8721  -28.9382   20.1105 C   0  0  0  0  0  0
  -22.7499  -29.4650   22.4899 C   0  0  0  0  0  0
  -18.0295  -28.1394   22.8488 C   0  0  0  0  0  0
  -24.1494  -36.7266   23.2642 C   0  0  0  0  0  0
  -25.9799  -30.7661   21.3874 C   0  0  0  0  0  0
  -26.0485  -29.3894   20.7232 C   0  0  0  0  0  0
  -27.2147  -28.5556   20.7245 C   0  0  0  0  0  0
  -26.0034  -26.8869   19.4593 C   0  0  0  0  0  0
  -24.8536  -27.6919   19.4750 C   0  0  0  0  0  0
  -23.6485  -29.8291   20.1591 C   0  0  0  0  0  0
  -25.4109  -36.3055   24.0338 C   0  0  1  0  0  0
  -20.5908  -28.3719   23.1261 C   0  0  2  0  0  0
  -20.6788  -26.9434   22.5412 C   0  0  0  0  0  0
  -19.5762  -26.6392   21.5224 C   0  0  0  0  0  0
  -18.1940  -26.7942   22.1622 C   0  0  0  0  0  0
  -19.1547  -28.8864   23.2873 C   0  0  0  0  0  0
  -18.9462  -30.1454   23.8908 C   0  0  0  0  0  0
  -17.6463  -30.6592   24.0560 C   0  0  0  0  0  0
  -25.9059  -34.9433   23.5100 C   0  0  0  0  0  0
  -16.5354  -29.9091   23.6338 C   0  0  0  0  0  0
  -16.7278  -28.6506   23.0367 C   0  0  0  0  0  0
  -26.4509  -31.6599   25.0755 C   0  0  0  0  0  0
  -25.3735  -31.3770   26.1488 C   0  0  0  0  0  0
  -27.0377  -30.3015   24.6293 C   0  0  0  0  0  0
  -27.6067  -32.4353   25.7525 C   0  0  0  0  0  0
  -27.5573  -37.1786   24.8453 C   0  0  0  0  0  0
  -21.4206  -29.3066   22.3634 N   0  0  0  0  0  0
  -26.4277  -37.3771   23.9427 N   0  0  0  0  0  0
  -24.7004  -31.0544   22.0998 N   0  0  0  0  0  0
  -23.4198  -28.8195   23.2994 O   0  0  0  0  0  0
  -28.2651  -26.3120   20.1978 O   0  0  0  0  0  0
  -26.5591  -34.8912   22.4642 O   0  0  0  0  0  0
  -23.5492  -32.1400   23.7313 O   0  0  0  0  0  0
  -29.1975  -19.5606   18.4733 C   0  0  0  0  0  0
  -29.1892  -18.2843   17.8869 C   0  0  0  0  0  0
  -29.6514  -18.5254   20.6179 C   0  0  0  0  0  0
  -29.3916  -19.7545   19.8600 C   0  0  0  0  0  0
  -29.6846  -17.1835   20.0286 C   0  0  0  0  0  0
  -29.3890  -17.1006   18.6402 C   0  0  0  0  0  0
  -29.8108  -23.8206   21.3111 C   0  0  0  0  0  0
  -30.3631  -21.4629   21.3504 C   0  0  0  0  0  0
  -28.8464  -23.6494   20.3859 C   0  0  0  0  0  0
  -30.5915  -22.7067   21.8190 C   0  0  0  0  0  0
  -28.5909  -22.2307   19.8963 C   0  0  0  0  0  0
  -28.7100  -15.7502   16.7674 C   0  0  0  0  0  0
  -27.9576  -24.8670   19.8791 C   0  0  0  0  0  0
  -29.3933  -21.1695   20.3726 N   0  0  0  0  0  0
  -29.8420  -15.8965   20.7700 N   0  0  0  0  0  0
  -27.6607  -22.0124   19.1119 O   0  0  0  0  0  0
  -31.5408  -22.9019   22.7414 O   0  0  0  0  0  0
  -29.2673  -15.8467   18.0741 O   0  0  0  0  0  0
  -31.4943  -12.5434   19.2680 H   0  0  0  0  0  0
  -30.3780  -11.4720   20.0532 H   0  0  0  0  0  0
  -29.8365  -11.6289   17.6236 H   0  0  0  0  0  0
  -29.7535  -13.3608   17.7267 H   0  0  0  0  0  0
  -27.8754  -11.2924   18.9043 H   0  0  0  0  0  0
  -27.4359  -12.5554   17.7868 H   0  0  0  0  0  0
  -27.6432  -14.2555   19.4728 H   0  0  0  0  0  0
  -28.7007  -12.1814   21.4495 H   0  0  0  0  0  0
  -28.3976  -13.8614   21.8058 H   0  0  0  0  0  0
  -25.2748   -9.5673   22.4751 H   0  0  0  0  0  0
  -23.9965   -7.4631   22.7508 H   0  0  0  0  0  0
  -21.0800   -8.8754   19.8976 H   0  0  0  0  0  0
  -22.3666  -10.9645   19.6115 H   0  0  0  0  0  0
  -21.2039   -7.6141   23.9707 H   0  0  0  0  0  0
  -21.1495   -6.0521   25.9088 H   0  0  0  0  0  0
  -22.0595   -2.7585   23.2853 H   0  0  0  0  0  0
  -22.4003  -11.9891   22.4824 H   0  0  0  0  0  0
  -21.1038  -13.1288   22.2602 H   0  0  0  0  0  0
  -24.6456  -15.8392   20.5151 H   0  0  0  0  0  0
  -26.2592  -15.6328   20.0552 H   0  0  0  0  0  0
  -26.7235  -32.5421   23.1097 H   0  0  0  0  0  0
  -25.0165  -33.9693   25.0463 H   0  0  0  0  0  0
  -22.7291  -31.3124   21.4010 H   0  0  0  0  0  0
  -23.3776  -35.9577   23.3261 H   0  0  0  0  0  0
  -24.3613  -36.8920   22.2071 H   0  0  0  0  0  0
  -23.7219  -37.6443   23.6675 H   0  0  0  0  0  0
  -26.1314  -31.5319   20.6247 H   0  0  0  0  0  0
  -26.8511  -30.8043   22.0291 H   0  0  0  0  0  0
  -28.1076  -28.8888   21.2356 H   0  0  0  0  0  0
  -25.9057  -25.9486   18.9338 H   0  0  0  0  0  0
  -23.9487  -27.3410   18.9973 H   0  0  0  0  0  0
  -23.7847  -30.6099   19.4101 H   0  0  0  0  0  0
  -22.7635  -29.2722   19.8454 H   0  0  0  0  0  0
  -25.1301  -36.1888   25.0832 H   0  0  0  0  0  0
  -21.0011  -28.3292   24.1375 H   0  0  0  0  0  0
  -20.5712  -26.2317   23.3610 H   0  0  0  0  0  0
  -21.6644  -26.7470   22.1181 H   0  0  0  0  0  0
  -19.6919  -25.6298   21.1262 H   0  0  0  0  0  0
  -19.6713  -27.3184   20.6742 H   0  0  0  0  0  0
  -17.4222  -26.6694   21.4015 H   0  0  0  0  0  0
  -18.0323  -26.0084   22.9008 H   0  0  0  0  0  0
  -19.7936  -30.7260   24.2299 H   0  0  0  0  0  0
  -17.5023  -31.6284   24.5128 H   0  0  0  0  0  0
  -15.5355  -30.2986   23.7676 H   0  0  0  0  0  0
  -15.8674  -28.0826   22.7093 H   0  0  0  0  0  0
  -24.5857  -30.7186   25.7796 H   0  0  0  0  0  0
  -24.8995  -32.2959   26.4950 H   0  0  0  0  0  0
  -25.8046  -30.8888   27.0237 H   0  0  0  0  0  0
  -26.2979  -29.6750   24.1294 H   0  0  0  0  0  0
  -27.3998  -29.7313   25.4850 H   0  0  0  0  0  0
  -27.8881  -30.4276   23.9595 H   0  0  0  0  0  0
  -27.2656  -33.3641   26.2109 H   0  0  0  0  0  0
  -28.3853  -32.6942   25.0336 H   0  0  0  0  0  0
  -28.0752  -31.8484   26.5432 H   0  0  0  0  0  0
  -28.2556  -38.0117   24.7543 H   0  0  0  0  0  0
  -28.1102  -36.2653   24.6210 H   0  0  0  0  0  0
  -27.2310  -37.1348   25.8858 H   0  0  0  0  0  0
  -20.9367  -29.8797   21.6856 H   0  0  0  0  0  0
  -26.0145  -38.2831   24.1455 H   0  0  0  0  0  0
  -29.0515  -20.4014   17.8106 H   0  0  0  0  0  0
  -29.0045  -18.2493   16.8222 H   0  0  0  0  0  0
  -29.8087  -18.6125   21.6841 H   0  0  0  0  0  0
  -29.9805  -24.8223   21.6812 H   0  0  0  0  0  0
  -30.9383  -20.6107   21.6799 H   0  0  0  0  0  0
  -27.7404  -16.2469   16.7073 H   0  0  0  0  0  0
  -28.5419  -14.7092   16.4998 H   0  0  0  0  0  0
  -29.3896  -16.1662   16.0233 H   0  0  0  0  0  0
  -26.9707  -24.6282   20.2808 H   0  0  0  0  0  0
  -27.8827  -24.7807   18.7930 H   0  0  0  0  0  0
  -29.0538  -15.6871   21.3633 H   0  0  0  0  0  0
  -31.5392  -23.8218   22.9763 H   0  0  0  0  0  0
  1 25  1  0  0  0
  1 30  2  0  0  0
  1 85  1  0  0  0
  2  3  1  0  0  0
  2 25  1  0  0  0
  2 89  1  0  0  0
  2 90  1  0  0  0
  3  4  1  0  0  0
  3 91  1  0  0  0
  3 92  1  0  0  0
  4  5  1  0  0  0
  4 93  1  0  0  0
  4 94  1  0  0  0
  5  6  1  0  0  0
  5 26  1  0  0  0
  5 95  1  0  0  0
  6 25  1  0  0  0
  6 96  1  0  0  0
  6 97  1  0  0  0
  7  8  2  0  0  0
  7 26  1  0  0  0
  7 29  1  0  0  0
  8  9  1  0  0  0
  8 22  1  0  0  0
  9 10  1  0  0  0
  9 27  2  0  0  0
 10 11  2  0  0  0
 10 15  1  0  0  0
 11 12  1  0  0  0
 11 98  1  0  0  0
 12 13  2  0  0  0
 12 99  1  0  0  0
 13 14  1  0  0  0
 13 31  1  0  0  0
 14 15  2  0  0  0
 14100  1  0  0  0
 15101  1  0  0  0
 16 17  2  0  0  0
 16 21  1  0  0  0
 16 31  1  0  0  0
 17 18  1  0  0  0
 17102  1  0  0  0
 18 19  2  0  0  0
 18103  1  0  0  0
 19 20  1  0  0  0
 19 24  1  0  0  0
 20 21  2  0  0  0
 20104  1  0  0  0
 21 23  1  0  0  0
 22 28  1  0  0  0
 22 32  2  0  0  0
 26 27  1  0  0  0
 28105  1  0  0  0
 28106  1  0  0  0
 29107  1  0  0  0
 29108  1  0  0  0
 33 34  1  0  0  0
 33 66  1  0  0  0
 33 70  2  0  0  0
 34 36  1  0  0  0
 34 59  1  0  0  0
 34109  1  0  0  0
 35 44  2  0  0  0
 35 45  1  0  0  0
 35 68  1  0  0  0
 36 56  1  0  0  0
 36110  1  0  0  0
 37 39  1  0  0  0
 37 47  1  0  0  0
 37 66  1  0  0  0
 37111  1  0  0  0
 38 43  2  0  0  0
 38 46  1  0  0  0
 38 47  1  0  0  0
 39 64  1  0  0  0
 39 67  2  0  0  0
 40 52  1  0  0  0
 40 53  2  0  0  0
 40 58  1  0  0  0
 41112  1  0  0  0
 41113  1  0  0  0
 41114  1  0  0  0
 41 48  1  0  0  0
 42 43  1  0  0  0
 42 66  1  0  0  0
 42115  1  0  0  0
 42116  1  0  0  0
 43 44  1  0  0  0
 44117  1  0  0  0
 45 46  2  0  0  0
 45118  1  0  0  0
 46119  1  0  0  0
 47120  1  0  0  0
 47121  1  0  0  0
 48 56  1  0  0  0
 48 65  1  0  0  0
 48122  1  0  0  0
 49 50  1  0  0  0
 49 53  1  0  0  0
 49 64  1  0  0  0
 49123  1  0  0  0
 50 51  1  0  0  0
 50124  1  0  0  0
 50125  1  0  0  0
 51 52  1  0  0  0
 51126  1  0  0  0
 51127  1  0  0  0
 52128  1  0  0  0
 52129  1  0  0  0
 53 54  1  0  0  0
 54 55  2  0  0  0
 54130  1  0  0  0
 55 57  1  0  0  0
 55131  1  0  0  0
 56 69  2  0  0  0
 57 58  2  0  0  0
 57132  1  0  0  0
 58133  1  0  0  0
 59 60  1  0  0  0
 59 61  1  0  0  0
 59 62  1  0  0  0
 60134  1  0  0  0
 60135  1  0  0  0
 60136  1  0  0  0
 61137  1  0  0  0
 61138  1  0  0  0
 61139  1  0  0  0
 62140  1  0  0  0
 62141  1  0  0  0
 62142  1  0  0  0
 63 65  1  0  0  0
 63143  1  0  0  0
 63144  1  0  0  0
 63145  1  0  0  0
 64146  1  0  0  0
 65147  1  0  0  0
 68 83  1  0  0  0
 71 72  2  0  0  0
 71 74  1  0  0  0
 71148  1  0  0  0
 72 76  1  0  0  0
 72149  1  0  0  0
 73 74  2  0  0  0
 73 75  1  0  0  0
 73150  1  0  0  0
 74 84  1  0  0  0
 75 76  2  0  0  0
 75 85  1  0  0  0
 76 88  1  0  0  0
 77 79  2  0  0  0
 77 80  1  0  0  0
 77151  1  0  0  0
 78 80  2  0  0  0
 78 84  1  0  0  0
 78152  1  0  0  0
 79 81  1  0  0  0
 79 83  1  0  0  0
 80 87  1  0  0  0
 81 84  1  0  0  0
 81 86  2  0  0  0
 82 88  1  0  0  0
 82153  1  0  0  0
 82154  1  0  0  0
 82155  1  0  0  0
 83156  1  0  0  0
 83157  1  0  0  0
 85158  1  0  0  0
 87159  1  0  0  0
M  ISO  4   1 100  68 101  83 101  85 100
M  END
> <chiral flag>
0

> <version>
0

> <s_m_source_file>
/data/baiqing/PycharmProjects/Reinvent-master-3.2/result/LINK_invent/BTK/process_docking_weight1_custom_product_contain_oxygen_bond_distance_aromatic_linkinvent_7_9_3/rearranged_h_0087.sdf

> <i_m_source_file_index>
29

> <r_mmod_Potential_Energy-OPLS-2005>
239.102600097656

> <r_mmod_Stretch_Energy-OPLS-2005>
146.985641479492

> <r_mmod_Bend_Energy-OPLS-2005>
168.571655273438

> <r_mmod_Torsional_Energy-OPLS-2005>
271.320831298828

> <r_mmod_Improper_Torsional_Energy-OPLS-2005>
5.40778875350952

> <r_mmod_Van_der_Waal_Energy-OPLS-2005>
178.180068969727

> <r_mmod_Electrostatic_Energy-OPLS-2005>
-395.096466064453

> <r_mmod_Solvation_Energy-OPLS-2005>
-237.049026489258

> <b_mmod_Minimization_Converged-OPLS-2005>
0

> <r_mmod_RMS_Derivative-OPLS-2005>
3.66883420944214

$$$$
29
                    3D
 Structure written by MMmdl.
153162  0  0  1  0            999 V2000
  -30.6458  -14.6692   20.5566 C   0  0  0  0  0  0
  -30.4328  -12.4194   19.4878 C   0  0  0  0  0  0
  -29.5183  -12.5243   18.2453 C   0  0  0  0  0  0
  -28.0399  -12.3481   18.6388 C   0  0  0  0  0  0
  -27.6496  -13.2245   19.8553 C   0  0  2  0  0  0
  -28.6783  -13.1009   20.9959 C   0  0  0  0  0  0
  -25.2535  -13.8187   20.5661 C   0  0  0  0  0  0
  -24.1814  -13.0443   20.9174 C   0  0  0  0  0  0
  -24.6392  -11.6917   20.8716 C   0  0  0  0  0  0
  -23.9069  -10.4298   21.0396 C   0  0  0  0  0  0
  -24.3622   -9.4219   21.9178 C   0  0  0  0  0  0
  -23.6299   -8.2251   22.0751 C   0  0  0  0  0  0
  -22.4280   -8.0284   21.3544 C   0  0  0  0  0  0
  -21.9913   -9.0255   20.4644 C   0  0  0  0  0  0
  -22.7240  -10.2134   20.3049 C   0  0  0  0  0  0
  -21.6852   -6.0740   22.5282 C   0  0  0  0  0  0
  -21.4016   -6.5645   23.8216 C   0  0  0  0  0  0
  -21.3659   -5.6795   24.9177 C   0  0  0  0  0  0
  -21.6042   -4.3057   24.7225 C   0  0  0  0  0  0
  -21.8818   -3.8153   23.4345 C   0  0  0  0  0  0
  -21.9195   -4.6970   22.3404 C   0  0  0  0  0  0
  -22.7841  -13.5228   21.1864 C   0  0  0  0  0  0
  -22.1661   -4.2158   21.0980 F   0  0  0  0  0  0
  -21.5629   -3.4538   25.7737 F   0  0  0  0  0  0
  -30.0080  -13.4478   20.4686 N   0  0  0  0  0  0
  -26.2955  -12.9381   20.3230 N   0  0  0  0  0  0
  -25.9316  -11.6527   20.5695 N   0  0  0  0  0  0
  -22.0493  -12.8203   22.0415 N   0  0  0  0  0  0
  -25.4260  -15.1909   20.4109 N   0  0  0  0  0  0
  -31.7289  -14.8518   19.9851 O   0  0  0  0  0  0
  -21.6641   -6.8883   21.4245 O   0  0  0  0  0  0
  -22.3518  -14.5540   20.6731 O   0  0  0  0  0  0
  -24.6279  -31.8575   23.2001 C   0  0  0  0  0  0
  -25.9116  -32.4761   23.8339 C   0  0  1  0  0  0
  -27.2265  -27.2947   20.1133 C   0  0  0  0  0  0
  -25.5924  -33.8566   24.2261 N   0  0  0  0  0  0
  -23.4228  -30.4799   21.5428 C   0  0  2  0  0  0
  -24.8691  -28.9294   20.1080 C   0  0  0  0  0  0
  -22.7483  -29.4609   22.4921 C   0  0  0  0  0  0
  -18.0289  -28.1386   22.8484 C   0  0  0  0  0  0
  -24.1488  -36.7286   23.2641 C   0  0  0  0  0  0
  -25.9657  -30.7780   21.3763 C   0  0  0  0  0  0
  -26.0377  -29.4038   20.7159 C   0  0  0  0  0  0
  -27.2155  -28.5966   20.7107 C   0  0  0  0  0  0
  -26.0309  -26.8735   19.4870 C   0  0  0  0  0  0
  -24.8686  -27.6707   19.4860 C   0  0  0  0  0  0
  -23.6386  -29.8134   20.1581 C   0  0  0  0  0  0
  -25.4116  -36.3075   24.0327 C   0  0  1  0  0  0
  -20.5889  -28.3692   23.1275 C   0  0  2  0  0  0
  -20.6775  -26.9414   22.5408 C   0  0  0  0  0  0
  -19.5752  -26.6384   21.5211 C   0  0  0  0  0  0
  -18.1932  -26.7930   22.1620 C   0  0  0  0  0  0
  -19.1541  -28.8856   23.2874 C   0  0  0  0  0  0
  -18.9465  -30.1455   23.8895 C   0  0  0  0  0  0
  -17.6466  -30.6587   24.0563 C   0  0  0  0  0  0
  -25.9056  -34.9446   23.5098 C   0  0  0  0  0  0
  -16.5356  -29.9086   23.6329 C   0  0  0  0  0  0
  -16.7276  -28.6502   23.0353 C   0  0  0  0  0  0
  -26.4497  -31.6585   25.0725 C   0  0  0  0  0  0
  -25.3721  -31.3733   26.1443 C   0  0  0  0  0  0
  -27.0354  -30.3005   24.6206 C   0  0  0  0  0  0
  -27.6042  -32.4337   25.7503 C   0  0  0  0  0  0
  -27.5578  -37.1802   24.8465 C   0  0  0  0  0  0
  -21.4195  -29.3044   22.3666 N   0  0  0  0  0  0
  -26.4289  -37.3772   23.9408 N   0  0  0  0  0  0
  -24.6908  -31.0564   22.0962 N   0  0  0  0  0  0
  -23.4197  -28.8158   23.3015 O   0  0  0  0  0  0
  -28.3476  -26.4452   20.1892 O   0  0  0  0  0  0
  -26.5628  -34.8916   22.4669 O   0  0  0  0  0  0
  -23.5436  -32.1389   23.7312 O   0  0  0  0  0  0
  -30.0526  -18.0154   19.6830 C   0  0  0  0  0  0
  -29.7785  -19.4253   19.6352 C   0  0  0  0  0  0
  -29.1734  -19.3686   21.9560 C   0  0  0  0  0  0
  -29.3372  -17.0178   23.1042 C   0  0  0  0  0  0
  -29.4266  -17.9588   22.0342 C   0  0  0  0  0  0
  -29.8954  -17.2524   20.8781 C   0  0  0  0  0  0
  -29.3403  -20.1514   20.7798 C   0  0  0  0  0  0
  -29.7894  -15.8105   22.6425 C   0  0  0  0  0  0
  -28.3212  -25.0887   19.7732 C   0  0  0  0  0  0
  -28.7643  -23.9964   20.4927 C   0  0  0  0  0  0
  -28.7875  -22.5869   19.9550 C   0  0  0  0  0  0
  -30.0865  -15.8725   21.2648 N   0  0  0  0  0  0
  -29.1452  -21.6155   20.8617 N   0  0  0  0  0  0
  -28.5085  -22.2957   18.7897 O   0  0  0  0  0  0
  -30.0235  -14.6629   23.3436 O   0  0  0  0  0  0
  -29.2129  -24.2039   21.7400 O   0  0  0  0  0  0
  -31.4787  -12.5307   19.1976 H   0  0  0  0  0  0
  -30.3592  -11.4267   19.9337 H   0  0  0  0  0  0
  -29.7999  -11.7755   17.5040 H   0  0  0  0  0  0
  -29.6570  -13.4955   17.7670 H   0  0  0  0  0  0
  -27.8815  -11.2954   18.8755 H   0  0  0  0  0  0
  -27.3923  -12.5697   17.7897 H   0  0  0  0  0  0
  -27.6651  -14.2586   19.5100 H   0  0  0  0  0  0
  -28.6889  -12.0889   21.4029 H   0  0  0  0  0  0
  -28.3594  -13.7458   21.8095 H   0  0  0  0  0  0
  -25.2767   -9.5697   22.4750 H   0  0  0  0  0  0
  -24.0012   -7.4643   22.7464 H   0  0  0  0  0  0
  -21.0847   -8.8770   19.8947 H   0  0  0  0  0  0
  -22.3701  -10.9670   19.6153 H   0  0  0  0  0  0
  -21.2007   -7.6153   23.9726 H   0  0  0  0  0  0
  -21.1481   -6.0521   25.9079 H   0  0  0  0  0  0
  -22.0598   -2.7616   23.2842 H   0  0  0  0  0  0
  -22.4105  -11.9847   22.4778 H   0  0  0  0  0  0
  -21.1114  -13.1225   22.2639 H   0  0  0  0  0  0
  -24.6644  -15.8507   20.5265 H   0  0  0  0  0  0
  -26.2854  -15.6293   20.1048 H   0  0  0  0  0  0
  -26.7182  -32.5412   23.1080 H   0  0  0  0  0  0
  -25.0067  -33.9713   25.0403 H   0  0  0  0  0  0
  -22.7173  -31.3006   21.3982 H   0  0  0  0  0  0
  -23.3754  -35.9616   23.3304 H   0  0  0  0  0  0
  -24.3577  -36.8907   22.2055 H   0  0  0  0  0  0
  -23.7235  -37.6485   23.6665 H   0  0  0  0  0  0
  -26.1049  -31.5418   20.6099 H   0  0  0  0  0  0
  -26.8432  -30.8227   22.0101 H   0  0  0  0  0  0
  -28.1116  -28.9542   21.1981 H   0  0  0  0  0  0
  -25.9640  -25.9048   19.0156 H   0  0  0  0  0  0
  -23.9705  -27.2995   19.0112 H   0  0  0  0  0  0
  -23.7604  -30.5902   19.4021 H   0  0  0  0  0  0
  -22.7572  -29.2457   19.8545 H   0  0  0  0  0  0
  -25.1298  -36.1929   25.0819 H   0  0  0  0  0  0
  -20.9980  -28.3272   24.1398 H   0  0  0  0  0  0
  -20.5678  -26.2307   23.3613 H   0  0  0  0  0  0
  -21.6643  -26.7447   22.1202 H   0  0  0  0  0  0
  -19.6919  -25.6296   21.1240 H   0  0  0  0  0  0
  -19.6689  -27.3194   20.6742 H   0  0  0  0  0  0
  -17.4203  -26.6678   21.4021 H   0  0  0  0  0  0
  -18.0333  -26.0071   22.9016 H   0  0  0  0  0  0
  -19.7940  -30.7269   24.2268 H   0  0  0  0  0  0
  -17.5021  -31.6269   24.5164 H   0  0  0  0  0  0
  -15.5356  -30.2990   23.7660 H   0  0  0  0  0  0
  -15.8672  -28.0823   22.7075 H   0  0  0  0  0  0
  -24.5886  -30.7097   25.7764 H   0  0  0  0  0  0
  -24.8925  -32.2904   26.4872 H   0  0  0  0  0  0
  -25.8030  -30.8898   27.0216 H   0  0  0  0  0  0
  -26.2945  -29.6745   24.1216 H   0  0  0  0  0  0
  -27.4027  -29.7273   25.4728 H   0  0  0  0  0  0
  -27.8822  -30.4291   23.9461 H   0  0  0  0  0  0
  -27.2639  -33.3639   26.2067 H   0  0  0  0  0  0
  -28.3859  -32.6897   25.0339 H   0  0  0  0  0  0
  -28.0702  -31.8474   26.5431 H   0  0  0  0  0  0
  -28.2593  -38.0102   24.7508 H   0  0  0  0  0  0
  -28.1076  -36.2630   24.6296 H   0  0  0  0  0  0
  -27.2294  -37.1454   25.8867 H   0  0  0  0  0  0
  -20.9382  -29.8765   21.6868 H   0  0  0  0  0  0
  -26.0171  -38.2849   24.1398 H   0  0  0  0  0  0
  -30.4009  -17.5182   18.7880 H   0  0  0  0  0  0
  -29.9415  -19.9534   18.7046 H   0  0  0  0  0  0
  -28.8471  -19.8594   22.8622 H   0  0  0  0  0  0
  -29.0320  -17.2560   24.1129 H   0  0  0  0  0  0
  -27.9388  -24.9860   18.7664 H   0  0  0  0  0  0
  -29.2600  -22.0210   21.7824 H   0  0  0  0  0  0
  -29.8244  -14.8314   24.2605 H   0  0  0  0  0  0
  -29.1396  -25.1364   21.9029 H   0  0  0  0  0  0
  1 25  1  0  0  0
  1 30  2  0  0  0
  1 82  1  0  0  0
  2  3  1  0  0  0
  2 25  1  0  0  0
  2 87  1  0  0  0
  2 88  1  0  0  0
  3  4  1  0  0  0
  3 89  1  0  0  0
  3 90  1  0  0  0
  4  5  1  0  0  0
  4 91  1  0  0  0
  4 92  1  0  0  0
  5  6  1  0  0  0
  5 26  1  0  0  0
  5 93  1  0  0  0
  6 25  1  0  0  0
  6 94  1  0  0  0
  6 95  1  0  0  0
  7  8  2  0  0  0
  7 26  1  0  0  0
  7 29  1  0  0  0
  8  9  1  0  0  0
  8 22  1  0  0  0
  9 10  1  0  0  0
  9 27  2  0  0  0
 10 11  2  0  0  0
 10 15  1  0  0  0
 11 12  1  0  0  0
 11 96  1  0  0  0
 12 13  2  0  0  0
 12 97  1  0  0  0
 13 14  1  0  0  0
 13 31  1  0  0  0
 14 15  2  0  0  0
 14 98  1  0  0  0
 15 99  1  0  0  0
 16 17  2  0  0  0
 16 21  1  0  0  0
 16 31  1  0  0  0
 17 18  1  0  0  0
 17100  1  0  0  0
 18 19  2  0  0  0
 18101  1  0  0  0
 19 20  1  0  0  0
 19 24  1  0  0  0
 20 21  2  0  0  0
 20102  1  0  0  0
 21 23  1  0  0  0
 22 28  1  0  0  0
 22 32  2  0  0  0
 26 27  1  0  0  0
 28103  1  0  0  0
 28104  1  0  0  0
 29105  1  0  0  0
 29106  1  0  0  0
 33 34  1  0  0  0
 33 66  1  0  0  0
 33 70  2  0  0  0
 34 36  1  0  0  0
 34 59  1  0  0  0
 34107  1  0  0  0
 35 44  2  0  0  0
 35 45  1  0  0  0
 35 68  1  0  0  0
 36 56  1  0  0  0
 36108  1  0  0  0
 37 39  1  0  0  0
 37 47  1  0  0  0
 37 66  1  0  0  0
 37109  1  0  0  0
 38 43  2  0  0  0
 38 46  1  0  0  0
 38 47  1  0  0  0
 39 64  1  0  0  0
 39 67  2  0  0  0
 40 52  1  0  0  0
 40 53  2  0  0  0
 40 58  1  0  0  0
 41110  1  0  0  0
 41111  1  0  0  0
 41112  1  0  0  0
 41 48  1  0  0  0
 42 43  1  0  0  0
 42 66  1  0  0  0
 42113  1  0  0  0
 42114  1  0  0  0
 43 44  1  0  0  0
 44115  1  0  0  0
 45 46  2  0  0  0
 45116  1  0  0  0
 46117  1  0  0  0
 47118  1  0  0  0
 47119  1  0  0  0
 48 56  1  0  0  0
 48 65  1  0  0  0
 48120  1  0  0  0
 49 50  1  0  0  0
 49 53  1  0  0  0
 49 64  1  0  0  0
 49121  1  0  0  0
 50 51  1  0  0  0
 50122  1  0  0  0
 50123  1  0  0  0
 51 52  1  0  0  0
 51124  1  0  0  0
 51125  1  0  0  0
 52126  1  0  0  0
 52127  1  0  0  0
 53 54  1  0  0  0
 54 55  2  0  0  0
 54128  1  0  0  0
 55 57  1  0  0  0
 55129  1  0  0  0
 56 69  2  0  0  0
 57 58  2  0  0  0
 57130  1  0  0  0
 58131  1  0  0  0
 59 60  1  0  0  0
 59 61  1  0  0  0
 59 62  1  0  0  0
 60132  1  0  0  0
 60133  1  0  0  0
 60134  1  0  0  0
 61135  1  0  0  0
 61136  1  0  0  0
 61137  1  0  0  0
 62138  1  0  0  0
 62139  1  0  0  0
 62140  1  0  0  0
 63 65  1  0  0  0
 63141  1  0  0  0
 63142  1  0  0  0
 63143  1  0  0  0
 64144  1  0  0  0
 65145  1  0  0  0
 68 79  1  0  0  0
 71 72  2  0  0  0
 71 76  1  0  0  0
 71146  1  0  0  0
 72 77  1  0  0  0
 72147  1  0  0  0
 73 75  1  0  0  0
 73 77  2  0  0  0
 73148  1  0  0  0
 74 75  1  0  0  0
 74 78  2  0  0  0
 74149  1  0  0  0
 75 76  2  0  0  0
 76 82  1  0  0  0
 77 83  1  0  0  0
 78 82  1  0  0  0
 78 85  1  0  0  0
 79 80  2  0  0  0
 79150  1  0  0  0
 80 81  1  0  0  0
 80 86  1  0  0  0
 81 83  1  0  0  0
 81 84  2  0  0  0
 83151  1  0  0  0
 85152  1  0  0  0
 86153  1  0  0  0
M  ISO  4   1 100  68 101  79 101  82 100
M  END
> <chiral flag>
0

> <version>
0

> <s_m_source_file>
/data/baiqing/PycharmProjects/Reinvent-master-3.2/result/LINK_invent/BTK/process_docking_weight1_custom_product_contain_oxygen_bond_distance_aromatic_linkinvent_7_9_3/rearranged_h_0087.sdf

> <i_m_source_file_index>
30

> <r_mmod_Potential_Energy-OPLS-2005>
137.287216186523

> <r_mmod_Stretch_Energy-OPLS-2005>
98.5970077514648

> <r_mmod_Bend_Energy-OPLS-2005>
150.735763549805

> <r_mmod_Torsional_Energy-OPLS-2005>
211.901809692383

> <r_mmod_Improper_Torsional_Energy-OPLS-2005>
3.35392689704895

> <r_mmod_Van_der_Waal_Energy-OPLS-2005>
140.454788208008

> <r_mmod_Electrostatic_Energy-OPLS-2005>
-299.348571777344

> <r_mmod_Solvation_Energy-OPLS-2005>
-227.799453735352

> <b_mmod_Minimization_Converged-OPLS-2005>
0

> <r_mmod_RMS_Derivative-OPLS-2005>
0.755981683731079

$$$$
30
                    3D
 Structure written by MMmdl.
156164  0  0  1  0            999 V2000
  -30.7151  -14.6477   20.4848 C   0  0  0  0  0  0
  -30.4064  -12.4012   19.4650 C   0  0  0  0  0  0
  -29.4947  -12.4917   18.2267 C   0  0  0  0  0  0
  -28.0231  -12.3304   18.6458 C   0  0  0  0  0  0
  -27.6401  -13.2346   19.8491 C   0  0  2  0  0  0
  -28.6882  -13.1775   20.9835 C   0  0  0  0  0  0
  -25.2508  -13.8218   20.5708 C   0  0  0  0  0  0
  -24.1801  -13.0454   20.9214 C   0  0  0  0  0  0
  -24.6396  -11.6934   20.8761 C   0  0  0  0  0  0
  -23.9077  -10.4301   21.0409 C   0  0  0  0  0  0
  -24.3624   -9.4214   21.9185 C   0  0  0  0  0  0
  -23.6298   -8.2250   22.0754 C   0  0  0  0  0  0
  -22.4281   -8.0288   21.3544 C   0  0  0  0  0  0
  -21.9918   -9.0262   20.4646 C   0  0  0  0  0  0
  -22.7248  -10.2142   20.3056 C   0  0  0  0  0  0
  -21.6856   -6.0742   22.5277 C   0  0  0  0  0  0
  -21.4014   -6.5641   23.8212 C   0  0  0  0  0  0
  -21.3659   -5.6792   24.9171 C   0  0  0  0  0  0
  -21.6045   -4.3057   24.7223 C   0  0  0  0  0  0
  -21.8819   -3.8150   23.4344 C   0  0  0  0  0  0
  -21.9191   -4.6969   22.3399 C   0  0  0  0  0  0
  -22.7823  -13.5232   21.1864 C   0  0  0  0  0  0
  -22.1662   -4.2155   21.0978 F   0  0  0  0  0  0
  -21.5627   -3.4540   25.7732 F   0  0  0  0  0  0
  -29.9952  -13.4813   20.3909 N   0  0  0  0  0  0
  -26.2934  -12.9428   20.3302 N   0  0  0  0  0  0
  -25.9326  -11.6567   20.5778 N   0  0  0  0  0  0
  -22.0470  -12.8217   22.0419 N   0  0  0  0  0  0
  -25.4197  -15.1938   20.4121 N   0  0  0  0  0  0
  -31.9035  -14.6230   20.1558 O   0  0  0  0  0  0
  -21.6641   -6.8887   21.4238 O   0  0  0  0  0  0
  -22.3507  -14.5537   20.6710 O   0  0  0  0  0  0
  -24.6273  -31.8611   23.2051 C   0  0  0  0  0  0
  -25.9122  -32.4785   23.8374 C   0  0  1  0  0  0
  -27.2078  -27.3076   20.1146 C   0  0  0  0  0  0
  -25.5935  -33.8586   24.2296 N   0  0  0  0  0  0
  -23.4200  -30.4882   21.5487 C   0  0  2  0  0  0
  -24.8635  -28.9509   20.1075 C   0  0  0  0  0  0
  -22.7483  -29.4633   22.4940 C   0  0  0  0  0  0
  -18.0290  -28.1384   22.8489 C   0  0  0  0  0  0
  -24.1488  -36.7294   23.2638 C   0  0  0  0  0  0
  -25.9642  -30.7874   21.3806 C   0  0  0  0  0  0
  -26.0348  -29.4168   20.7181 C   0  0  0  0  0  0
  -27.2106  -28.6056   20.7160 C   0  0  0  0  0  0
  -26.0162  -26.9137   19.4587 C   0  0  0  0  0  0
  -24.8570  -27.7056   19.4679 C   0  0  0  0  0  0
  -23.6336  -29.8322   20.1611 C   0  0  0  0  0  0
  -25.4113  -36.3090   24.0331 C   0  0  1  0  0  0
  -20.5892  -28.3694   23.1281 C   0  0  2  0  0  0
  -20.6780  -26.9419   22.5408 C   0  0  0  0  0  0
  -19.5751  -26.6388   21.5214 C   0  0  0  0  0  0
  -18.1932  -26.7929   22.1625 C   0  0  0  0  0  0
  -19.1542  -28.8853   23.2880 C   0  0  0  0  0  0
  -18.9464  -30.1455   23.8900 C   0  0  0  0  0  0
  -17.6464  -30.6590   24.0562 C   0  0  0  0  0  0
  -25.9048  -34.9456   23.5111 C   0  0  0  0  0  0
  -16.5355  -29.9088   23.6328 C   0  0  0  0  0  0
  -16.7277  -28.6503   23.0358 C   0  0  0  0  0  0
  -26.4500  -31.6596   25.0746 C   0  0  0  0  0  0
  -25.3723  -31.3733   26.1463 C   0  0  0  0  0  0
  -27.0345  -30.3015   24.6217 C   0  0  0  0  0  0
  -27.6063  -32.4333   25.7510 C   0  0  0  0  0  0
  -27.5582  -37.1804   24.8464 C   0  0  0  0  0  0
  -21.4197  -29.3045   22.3674 N   0  0  0  0  0  0
  -26.4293  -37.3783   23.9407 N   0  0  0  0  0  0
  -24.6892  -31.0619   22.1010 N   0  0  0  0  0  0
  -23.4208  -28.8167   23.3013 O   0  0  0  0  0  0
  -28.2979  -26.4192   20.1915 O   0  0  0  0  0  0
  -26.5620  -34.8919   22.4681 O   0  0  0  0  0  0
  -23.5432  -32.1426   23.7362 O   0  0  0  0  0  0
  -28.8177  -18.7154   19.9734 C   0  0  0  0  0  0
  -30.5181  -19.5722   21.4272 C   0  0  0  0  0  0
  -29.9444  -18.4399   20.7849 C   0  0  0  0  0  0
  -28.3122  -20.0496   19.7927 C   0  0  0  0  0  0
  -30.0397  -20.9023   21.2608 C   0  0  0  0  0  0
  -28.9262  -21.1901   20.4168 C   0  0  0  0  0  0
  -26.3495  -19.3335   18.3648 C   0  0  0  0  0  0
  -27.1258  -20.2728   18.9346 C   0  0  0  0  0  0
  -30.6783  -17.0795   20.8483 C   0  0  0  0  0  0
  -28.0121  -24.9760   19.9616 C   0  0  0  0  0  0
  -28.9419  -23.7908   20.4769 C   0  0  0  0  0  0
  -30.7047  -21.9053   21.9634 N   0  0  0  0  0  0
  -30.0654  -15.8481   20.7155 N   0  0  0  0  0  0
  -31.8926  -17.1723   21.0694 O   0  0  0  0  0  0
  -28.3676  -22.4712   20.1617 O   0  0  0  0  0  0
  -31.4513  -12.4688   19.1590 H   0  0  0  0  0  0
  -30.3047  -11.4282   19.9480 H   0  0  0  0  0  0
  -29.7635  -11.7220   17.5018 H   0  0  0  0  0  0
  -29.6369  -13.4505   17.7261 H   0  0  0  0  0  0
  -27.8742  -11.2827   18.9101 H   0  0  0  0  0  0
  -27.3637  -12.5238   17.7988 H   0  0  0  0  0  0
  -27.6338  -14.2553   19.4658 H   0  0  0  0  0  0
  -28.7038  -12.1932   21.4525 H   0  0  0  0  0  0
  -28.4409  -13.8899   21.7726 H   0  0  0  0  0  0
  -25.2762   -9.5692   22.4766 H   0  0  0  0  0  0
  -24.0003   -7.4643   22.7474 H   0  0  0  0  0  0
  -21.0847   -8.8789   19.8950 H   0  0  0  0  0  0
  -22.3704  -10.9688   19.6174 H   0  0  0  0  0  0
  -21.2010   -7.6151   23.9716 H   0  0  0  0  0  0
  -21.1480   -6.0522   25.9074 H   0  0  0  0  0  0
  -22.0600   -2.7612   23.2839 H   0  0  0  0  0  0
  -22.4081  -11.9879   22.4809 H   0  0  0  0  0  0
  -21.1092  -13.1248   22.2624 H   0  0  0  0  0  0
  -24.6523  -15.8477   20.5218 H   0  0  0  0  0  0
  -26.2677  -15.6333   20.0803 H   0  0  0  0  0  0
  -26.7191  -32.5451   23.1124 H   0  0  0  0  0  0
  -25.0063  -33.9729   25.0430 H   0  0  0  0  0  0
  -22.7142  -31.3099   21.4109 H   0  0  0  0  0  0
  -23.3750  -35.9625   23.3305 H   0  0  0  0  0  0
  -24.3572  -36.8911   22.2052 H   0  0  0  0  0  0
  -23.7243  -37.6498   23.6658 H   0  0  0  0  0  0
  -26.0998  -31.5530   20.6157 H   0  0  0  0  0  0
  -26.8430  -30.8310   22.0125 H   0  0  0  0  0  0
  -28.1048  -28.9526   21.2146 H   0  0  0  0  0  0
  -25.9381  -25.9710   18.9394 H   0  0  0  0  0  0
  -23.9620  -27.3485   18.9772 H   0  0  0  0  0  0
  -23.7532  -30.6137   19.4096 H   0  0  0  0  0  0
  -22.7525  -29.2651   19.8561 H   0  0  0  0  0  0
  -25.1292  -36.1945   25.0826 H   0  0  0  0  0  0
  -20.9981  -28.3272   24.1402 H   0  0  0  0  0  0
  -20.5684  -26.2305   23.3609 H   0  0  0  0  0  0
  -21.6650  -26.7451   22.1202 H   0  0  0  0  0  0
  -19.6911  -25.6299   21.1245 H   0  0  0  0  0  0
  -19.6684  -27.3195   20.6740 H   0  0  0  0  0  0
  -17.4204  -26.6681   21.4027 H   0  0  0  0  0  0
  -18.0320  -26.0069   22.9013 H   0  0  0  0  0  0
  -19.7938  -30.7265   24.2281 H   0  0  0  0  0  0
  -17.5019  -31.6271   24.5165 H   0  0  0  0  0  0
  -15.5355  -30.2993   23.7649 H   0  0  0  0  0  0
  -15.8674  -28.0820   22.7081 H   0  0  0  0  0  0
  -24.5917  -30.7062   25.7788 H   0  0  0  0  0  0
  -24.8888  -32.2892   26.4870 H   0  0  0  0  0  0
  -25.8038  -30.8932   27.0254 H   0  0  0  0  0  0
  -26.2927  -29.6760   24.1233 H   0  0  0  0  0  0
  -27.4026  -29.7281   25.4736 H   0  0  0  0  0  0
  -27.8809  -30.4299   23.9461 H   0  0  0  0  0  0
  -27.2691  -33.3644   26.2076 H   0  0  0  0  0  0
  -28.3871  -32.6873   25.0329 H   0  0  0  0  0  0
  -28.0730  -31.8462   26.5429 H   0  0  0  0  0  0
  -28.2608  -38.0096   24.7519 H   0  0  0  0  0  0
  -28.1076  -36.2631   24.6290 H   0  0  0  0  0  0
  -27.2296  -37.1457   25.8867 H   0  0  0  0  0  0
  -20.9373  -29.8778   21.6895 H   0  0  0  0  0  0
  -26.0177  -38.2859   24.1409 H   0  0  0  0  0  0
  -28.3725  -17.8865   19.4452 H   0  0  0  0  0  0
  -31.3896  -19.4159   22.0479 H   0  0  0  0  0  0
  -25.5081  -19.6237   17.7516 H   0  0  0  0  0  0
  -26.5156  -18.2743   18.4865 H   0  0  0  0  0  0
  -26.8577  -21.3018   18.7408 H   0  0  0  0  0  0
  -27.0436  -24.7510   20.4109 H   0  0  0  0  0  0
  -27.8923  -24.8420   18.8859 H   0  0  0  0  0  0
  -29.0463  -23.8926   21.5562 H   0  0  0  0  0  0
  -29.9347  -23.8766   20.0341 H   0  0  0  0  0  0
  -31.2776  -21.6238   22.7516 H   0  0  0  0  0  0
  -30.1837  -22.7522   22.1551 H   0  0  0  0  0  0
  -29.0609  -15.8340   20.7436 H   0  0  0  0  0  0
  1 25  1  0  0  0
  1 30  2  0  0  0
  1 83  1  0  0  0
  2  3  1  0  0  0
  2 25  1  0  0  0
  2 86  1  0  0  0
  2 87  1  0  0  0
  3  4  1  0  0  0
  3 88  1  0  0  0
  3 89  1  0  0  0
  4  5  1  0  0  0
  4 90  1  0  0  0
  4 91  1  0  0  0
  5  6  1  0  0  0
  5 26  1  0  0  0
  5 92  1  0  0  0
  6 25  1  0  0  0
  6 93  1  0  0  0
  6 94  1  0  0  0
  7  8  2  0  0  0
  7 26  1  0  0  0
  7 29  1  0  0  0
  8  9  1  0  0  0
  8 22  1  0  0  0
  9 10  1  0  0  0
  9 27  2  0  0  0
 10 11  2  0  0  0
 10 15  1  0  0  0
 11 12  1  0  0  0
 11 95  1  0  0  0
 12 13  2  0  0  0
 12 96  1  0  0  0
 13 14  1  0  0  0
 13 31  1  0  0  0
 14 15  2  0  0  0
 14 97  1  0  0  0
 15 98  1  0  0  0
 16 17  2  0  0  0
 16 21  1  0  0  0
 16 31  1  0  0  0
 17 18  1  0  0  0
 17 99  1  0  0  0
 18 19  2  0  0  0
 18100  1  0  0  0
 19 20  1  0  0  0
 19 24  1  0  0  0
 20 21  2  0  0  0
 20101  1  0  0  0
 21 23  1  0  0  0
 22 28  1  0  0  0
 22 32  2  0  0  0
 26 27  1  0  0  0
 28102  1  0  0  0
 28103  1  0  0  0
 29104  1  0  0  0
 29105  1  0  0  0
 33 34  1  0  0  0
 33 66  1  0  0  0
 33 70  2  0  0  0
 34 36  1  0  0  0
 34 59  1  0  0  0
 34106  1  0  0  0
 35 44  2  0  0  0
 35 45  1  0  0  0
 35 68  1  0  0  0
 36 56  1  0  0  0
 36107  1  0  0  0
 37 39  1  0  0  0
 37 47  1  0  0  0
 37 66  1  0  0  0
 37108  1  0  0  0
 38 43  2  0  0  0
 38 46  1  0  0  0
 38 47  1  0  0  0
 39 64  1  0  0  0
 39 67  2  0  0  0
 40 52  1  0  0  0
 40 53  2  0  0  0
 40 58  1  0  0  0
 41109  1  0  0  0
 41110  1  0  0  0
 41111  1  0  0  0
 41 48  1  0  0  0
 42 43  1  0  0  0
 42 66  1  0  0  0
 42112  1  0  0  0
 42113  1  0  0  0
 43 44  1  0  0  0
 44114  1  0  0  0
 45 46  2  0  0  0
 45115  1  0  0  0
 46116  1  0  0  0
 47117  1  0  0  0
 47118  1  0  0  0
 48 56  1  0  0  0
 48 65  1  0  0  0
 48119  1  0  0  0
 49 50  1  0  0  0
 49 53  1  0  0  0
 49 64  1  0  0  0
 49120  1  0  0  0
 50 51  1  0  0  0
 50121  1  0  0  0
 50122  1  0  0  0
 51 52  1  0  0  0
 51123  1  0  0  0
 51124  1  0  0  0
 52125  1  0  0  0
 52126  1  0  0  0
 53 54  1  0  0  0
 54 55  2  0  0  0
 54127  1  0  0  0
 55 57  1  0  0  0
 55128  1  0  0  0
 56 69  2  0  0  0
 57 58  2  0  0  0
 57129  1  0  0  0
 58130  1  0  0  0
 59 60  1  0  0  0
 59 61  1  0  0  0
 59 62  1  0  0  0
 60131  1  0  0  0
 60132  1  0  0  0
 60133  1  0  0  0
 61134  1  0  0  0
 61135  1  0  0  0
 61136  1  0  0  0
 62137  1  0  0  0
 62138  1  0  0  0
 62139  1  0  0  0
 63 65  1  0  0  0
 63140  1  0  0  0
 63141  1  0  0  0
 63142  1  0  0  0
 64143  1  0  0  0
 65144  1  0  0  0
 68 80  1  0  0  0
 71 73  2  0  0  0
 71 74  1  0  0  0
 71145  1  0  0  0
 72 73  1  0  0  0
 72 75  2  0  0  0
 72146  1  0  0  0
 73 79  1  0  0  0
 74 76  2  0  0  0
 74 78  1  0  0  0
 75 76  1  0  0  0
 75 82  1  0  0  0
 76 85  1  0  0  0
 77 78  2  0  0  0
 77147  1  0  0  0
 77148  1  0  0  0
 78149  1  0  0  0
 79 83  1  0  0  0
 79 84  2  0  0  0
 80 81  1  0  0  0
 80150  1  0  0  0
 80151  1  0  0  0
 81 85  1  0  0  0
 81152  1  0  0  0
 81153  1  0  0  0
 82154  1  0  0  0
 82155  1  0  0  0
 83156  1  0  0  0
M  ISO  4   1 100  68 101  80 101  83 100
M  END
> <chiral flag>
0

> <version>
0

> <s_m_source_file>
/data/baiqing/PycharmProjects/Reinvent-master-3.2/result/LINK_invent/BTK/process_docking_weight1_custom_product_contain_oxygen_bond_distance_aromatic_linkinvent_7_9_3/rearranged_h_0087.sdf

> <i_m_source_file_index>
31

> <r_mmod_Potential_Energy-OPLS-2005>
17.3003177642822

> <r_mmod_Stretch_Energy-OPLS-2005>
88.3219909667969

> <r_mmod_Bend_Energy-OPLS-2005>
176.085266113281

> <r_mmod_Torsional_Energy-OPLS-2005>
223.977554321289

> <r_mmod_Improper_Torsional_Energy-OPLS-2005>
9.80815029144287

> <r_mmod_Van_der_Waal_Energy-OPLS-2005>
173.2958984375

> <r_mmod_Electrostatic_Energy-OPLS-2005>
-478.588104248047

> <r_mmod_Solvation_Energy-OPLS-2005>
-238.49739074707

> <b_mmod_Minimization_Converged-OPLS-2005>
0

> <r_mmod_RMS_Derivative-OPLS-2005>
0.873034179210663

$$$$
31
                    3D
 Structure written by MMmdl.
157165  0  0  1  0            999 V2000
  -30.4309  -15.2626   20.4349 C   0  0  0  0  0  0
  -30.4410  -12.8079   19.5482 C   0  0  0  0  0  0
  -29.5437  -12.5973   18.3002 C   0  0  0  0  0  0
  -28.0894  -12.3137   18.7120 C   0  0  0  0  0  0
  -27.6163  -13.2741   19.8287 C   0  0  2  0  0  0
  -28.6379  -13.4147   20.9731 C   0  0  0  0  0  0
  -25.2417  -13.8252   20.5743 C   0  0  0  0  0  0
  -24.1757  -13.0445   20.9252 C   0  0  0  0  0  0
  -24.6417  -11.6940   20.8755 C   0  0  0  0  0  0
  -23.9110  -10.4301   21.0416 C   0  0  0  0  0  0
  -24.3655   -9.4214   21.9193 C   0  0  0  0  0  0
  -23.6321   -8.2253   22.0754 C   0  0  0  0  0  0
  -22.4303   -8.0293   21.3543 C   0  0  0  0  0  0
  -21.9947   -9.0276   20.4655 C   0  0  0  0  0  0
  -22.7286  -10.2147   20.3063 C   0  0  0  0  0  0
  -21.6868   -6.0757   22.5282 C   0  0  0  0  0  0
  -21.4017   -6.5656   23.8216 C   0  0  0  0  0  0
  -21.3656   -5.6807   24.9178 C   0  0  0  0  0  0
  -21.6045   -4.3068   24.7231 C   0  0  0  0  0  0
  -21.8815   -3.8163   23.4348 C   0  0  0  0  0  0
  -21.9197   -4.6982   22.3407 C   0  0  0  0  0  0
  -22.7781  -13.5190   21.1923 C   0  0  0  0  0  0
  -22.1667   -4.2164   21.0987 F   0  0  0  0  0  0
  -21.5628   -3.4547   25.7739 F   0  0  0  0  0  0
  -29.8861  -13.9392   20.3868 N   0  0  0  0  0  0
  -26.2830  -12.9521   20.3188 N   0  0  0  0  0  0
  -25.9342  -11.6626   20.5688 N   0  0  0  0  0  0
  -22.0445  -12.8156   22.0471 N   0  0  0  0  0  0
  -25.4081  -15.1992   20.4251 N   0  0  0  0  0  0
  -31.5987  -15.3036   20.0198 O   0  0  0  0  0  0
  -21.6653   -6.8896   21.4240 O   0  0  0  0  0  0
  -22.3457  -14.5505   20.6786 O   0  0  0  0  0  0
  -24.6623  -31.8264   23.1702 C   0  0  0  0  0  0
  -25.9311  -32.4609   23.8168 C   0  0  1  0  0  0
  -27.2227  -26.9278   20.1857 C   0  0  0  0  0  0
  -25.5986  -33.8426   24.2077 N   0  0  0  0  0  0
  -23.4764  -30.4334   21.5203 C   0  0  2  0  0  0
  -24.9295  -28.8133   20.1195 C   0  0  0  0  0  0
  -22.7653  -29.4449   22.4795 C   0  0  0  0  0  0
  -18.0309  -28.1423   22.8483 C   0  0  0  0  0  0
  -24.1480  -36.7204   23.2642 C   0  0  0  0  0  0
  -26.0434  -30.6309   21.3999 C   0  0  0  0  0  0
  -26.1123  -29.2169   20.7507 C   0  0  0  0  0  0
  -27.2532  -28.2951   20.7568 C   0  0  0  0  0  0
  -26.0088  -26.6715   19.5126 C   0  0  0  0  0  0
  -24.9014  -27.5605   19.4828 C   0  0  0  0  0  0
  -23.7168  -29.7441   20.1488 C   0  0  0  0  0  0
  -25.4128  -36.2985   24.0291 C   0  0  1  0  0  0
  -20.5925  -28.3774   23.1197 C   0  0  2  0  0  0
  -20.6783  -26.9453   22.5416 C   0  0  0  0  0  0
  -19.5759  -26.6395   21.5219 C   0  0  0  0  0  0
  -18.1940  -26.7962   22.1626 C   0  0  0  0  0  0
  -19.1571  -28.8917   23.2829 C   0  0  0  0  0  0
  -18.9483  -30.1500   23.8882 C   0  0  0  0  0  0
  -17.6480  -30.6623   24.0562 C   0  0  0  0  0  0
  -25.9102  -34.9371   23.5006 C   0  0  0  0  0  0
  -16.5368  -29.9112   23.6348 C   0  0  0  0  0  0
  -16.7293  -28.6523   23.0383 C   0  0  0  0  0  0
  -26.4574  -31.6541   25.0687 C   0  0  0  0  0  0
  -25.3696  -31.3806   26.1336 C   0  0  0  0  0  0
  -27.0450  -30.2903   24.6405 C   0  0  0  0  0  0
  -27.6087  -32.4328   25.7500 C   0  0  0  0  0  0
  -27.5561  -37.1750   24.8466 C   0  0  0  0  0  0
  -21.4317  -29.3061   22.3541 N   0  0  0  0  0  0
  -26.4280  -37.3718   23.9403 N   0  0  0  0  0  0
  -24.7489  -30.9908   22.0846 N   0  0  0  0  0  0
  -23.4191  -28.8033   23.3058 O   0  0  0  0  0  0
  -28.2702  -25.8677   20.1950 O   0  0  0  0  0  0
  -26.5724  -34.8920   22.4607 O   0  0  0  0  0  0
  -23.5695  -32.1244   23.6795 O   0  0  0  0  0  0
  -28.2725  -20.4112   21.0504 C   0  0  0  0  0  0
  -28.4834  -18.9445   21.2152 C   0  0  0  0  0  0
  -29.0077  -21.3324   20.1988 C   0  0  0  0  0  0
  -29.4825  -18.0486   20.5960 C   0  0  0  0  0  0
  -29.9361  -20.4199   19.4905 C   0  0  0  0  0  0
  -30.1770  -18.9501   19.6854 C   0  0  0  0  0  0
  -29.9615  -15.4043   23.2563 C   0  0  0  0  0  0
  -28.9358  -23.0350   19.9802 C   0  0  0  0  0  0
  -29.5333  -16.3546   22.3943 C   0  0  0  0  0  0
  -28.2092  -24.3245   20.2134 C   0  0  0  0  0  0
  -28.6743  -21.8040   16.7332 C   0  0  0  0  0  0
  -30.7060  -20.9769   18.4680 N   0  0  0  0  0  0
  -29.7485  -16.4722   20.9899 N   0  0  0  0  0  0
  -31.2900  -21.7533   16.1132 O   0  0  0  0  0  0
  -30.0754  -19.5306   16.4542 O   0  0  0  0  0  0
  -31.1736  -18.3973   18.9514 F   0  0  0  0  0  0
  -30.2733  -20.9454   16.8036 S   0  0  0  0  0  0
  -31.4645  -13.0063   19.2275 H   0  0  0  0  0  0
  -30.5029  -11.8904   20.1353 H   0  0  0  0  0  0
  -29.9277  -11.7785   17.6903 H   0  0  0  0  0  0
  -29.5796  -13.4907   17.6749 H   0  0  0  0  0  0
  -28.0401  -11.2846   19.0703 H   0  0  0  0  0  0
  -27.4269  -12.3700   17.8480 H   0  0  0  0  0  0
  -27.5439  -14.2521   19.3514 H   0  0  0  0  0  0
  -28.7959  -12.4684   21.4921 H   0  0  0  0  0  0
  -28.2349  -14.1027   21.7140 H   0  0  0  0  0  0
  -25.2791   -9.5689   22.4790 H   0  0  0  0  0  0
  -24.0035   -7.4630   22.7461 H   0  0  0  0  0  0
  -21.0886   -8.8814   19.8949 H   0  0  0  0  0  0
  -22.3757  -10.9705   19.6188 H   0  0  0  0  0  0
  -21.2003   -7.6163   23.9725 H   0  0  0  0  0  0
  -21.1486   -6.0537   25.9081 H   0  0  0  0  0  0
  -22.0595   -2.7624   23.2851 H   0  0  0  0  0  0
  -22.4080  -11.9808   22.4829 H   0  0  0  0  0  0
  -21.1056  -13.1153   22.2685 H   0  0  0  0  0  0
  -24.6437  -15.8516   20.5613 H   0  0  0  0  0  0
  -26.2660  -15.6491   20.1315 H   0  0  0  0  0  0
  -26.7373  -32.5158   23.0876 H   0  0  0  0  0  0
  -25.0042  -33.9512   25.0165 H   0  0  0  0  0  0
  -22.7900  -31.2637   21.3466 H   0  0  0  0  0  0
  -23.3777  -35.9498   23.3297 H   0  0  0  0  0  0
  -24.3537  -36.8868   22.2056 H   0  0  0  0  0  0
  -23.7208  -37.6374   23.6715 H   0  0  0  0  0  0
  -26.2120  -31.3694   20.6155 H   0  0  0  0  0  0
  -26.9090  -30.6977   22.0479 H   0  0  0  0  0  0
  -28.1595  -28.6062   21.2574 H   0  0  0  0  0  0
  -25.8959  -25.7144   19.0245 H   0  0  0  0  0  0
  -24.0012  -27.2441   18.9755 H   0  0  0  0  0  0
  -23.8776  -30.5122   19.3922 H   0  0  0  0  0  0
  -22.8268  -29.1987   19.8309 H   0  0  0  0  0  0
  -25.1316  -36.1785   25.0781 H   0  0  0  0  0  0
  -21.0008  -28.3413   24.1321 H   0  0  0  0  0  0
  -20.5645  -26.2409   23.3669 H   0  0  0  0  0  0
  -21.6647  -26.7434   22.1216 H   0  0  0  0  0  0
  -19.6920  -25.6292   21.1280 H   0  0  0  0  0  0
  -19.6691  -27.3189   20.6733 H   0  0  0  0  0  0
  -17.4191  -26.6722   21.4040 H   0  0  0  0  0  0
  -18.0339  -26.0109   22.9033 H   0  0  0  0  0  0
  -19.7958  -30.7305   24.2274 H   0  0  0  0  0  0
  -17.5037  -31.6301   24.5164 H   0  0  0  0  0  0
  -15.5370  -30.3009   23.7687 H   0  0  0  0  0  0
  -15.8693  -28.0828   22.7134 H   0  0  0  0  0  0
  -24.5921  -30.7114   25.7639 H   0  0  0  0  0  0
  -24.8841  -32.3010   26.4595 H   0  0  0  0  0  0
  -25.7909  -30.9092   27.0223 H   0  0  0  0  0  0
  -26.3103  -29.6594   24.1389 H   0  0  0  0  0  0
  -27.3962  -29.7256   25.5053 H   0  0  0  0  0  0
  -27.9058  -30.4087   23.9820 H   0  0  0  0  0  0
  -27.2695  -33.3693   26.1944 H   0  0  0  0  0  0
  -28.3984  -32.6766   25.0381 H   0  0  0  0  0  0
  -28.0658  -31.8526   26.5529 H   0  0  0  0  0  0
  -28.2568  -38.0056   24.7506 H   0  0  0  0  0  0
  -28.1065  -36.2579   24.6302 H   0  0  0  0  0  0
  -27.2275  -37.1394   25.8871 H   0  0  0  0  0  0
  -20.9590  -29.8727   21.6634 H   0  0  0  0  0  0
  -26.0135  -38.2773   24.1449 H   0  0  0  0  0  0
  -27.4882  -20.8495   21.6511 H   0  0  0  0  0  0
  -27.7851  -18.4985   21.9071 H   0  0  0  0  0  0
  -29.7039  -15.4800   24.3032 H   0  0  0  0  0  0
  -30.5614  -14.5496   22.9794 H   0  0  0  0  0  0
  -29.8937  -23.1763   19.4782 H   0  0  0  0  0  0
  -28.9614  -17.1462   22.8410 H   0  0  0  0  0  0
  -28.9103  -24.6168   19.4483 H   0  0  0  0  0  0
  -28.7823  -22.8157   17.1144 H   0  0  0  0  0  0
  -27.9395  -21.2568   17.3192 H   0  0  0  0  0  0
  -28.3471  -21.8458   15.6964 H   0  0  0  0  0  0
  -31.6339  -20.5754   18.5186 H   0  0  0  0  0  0
  1 25  1  0  0  0
  1 30  2  0  0  0
  1 83  1  0  0  0
  2  3  1  0  0  0
  2 25  1  0  0  0
  2 88  1  0  0  0
  2 89  1  0  0  0
  3  4  1  0  0  0
  3 90  1  0  0  0
  3 91  1  0  0  0
  4  5  1  0  0  0
  4 92  1  0  0  0
  4 93  1  0  0  0
  5  6  1  0  0  0
  5 26  1  0  0  0
  5 94  1  0  0  0
  6 25  1  0  0  0
  6 95  1  0  0  0
  6 96  1  0  0  0
  7  8  2  0  0  0
  7 26  1  0  0  0
  7 29  1  0  0  0
  8  9  1  0  0  0
  8 22  1  0  0  0
  9 10  1  0  0  0
  9 27  2  0  0  0
 10 11  2  0  0  0
 10 15  1  0  0  0
 11 12  1  0  0  0
 11 97  1  0  0  0
 12 13  2  0  0  0
 12 98  1  0  0  0
 13 14  1  0  0  0
 13 31  1  0  0  0
 14 15  2  0  0  0
 14 99  1  0  0  0
 15100  1  0  0  0
 16 17  2  0  0  0
 16 21  1  0  0  0
 16 31  1  0  0  0
 17 18  1  0  0  0
 17101  1  0  0  0
 18 19  2  0  0  0
 18102  1  0  0  0
 19 20  1  0  0  0
 19 24  1  0  0  0
 20 21  2  0  0  0
 20103  1  0  0  0
 21 23  1  0  0  0
 22 28  1  0  0  0
 22 32  2  0  0  0
 26 27  1  0  0  0
 28104  1  0  0  0
 28105  1  0  0  0
 29106  1  0  0  0
 29107  1  0  0  0
 33 34  1  0  0  0
 33 66  1  0  0  0
 33 70  2  0  0  0
 34 36  1  0  0  0
 34 59  1  0  0  0
 34108  1  0  0  0
 35 44  2  0  0  0
 35 45  1  0  0  0
 35 68  1  0  0  0
 36 56  1  0  0  0
 36109  1  0  0  0
 37 39  1  0  0  0
 37 47  1  0  0  0
 37 66  1  0  0  0
 37110  1  0  0  0
 38 43  2  0  0  0
 38 46  1  0  0  0
 38 47  1  0  0  0
 39 64  1  0  0  0
 39 67  2  0  0  0
 40 52  1  0  0  0
 40 53  2  0  0  0
 40 58  1  0  0  0
 41111  1  0  0  0
 41112  1  0  0  0
 41113  1  0  0  0
 41 48  1  0  0  0
 42 43  1  0  0  0
 42 66  1  0  0  0
 42114  1  0  0  0
 42115  1  0  0  0
 43 44  1  0  0  0
 44116  1  0  0  0
 45 46  2  0  0  0
 45117  1  0  0  0
 46118  1  0  0  0
 47119  1  0  0  0
 47120  1  0  0  0
 48 56  1  0  0  0
 48 65  1  0  0  0
 48121  1  0  0  0
 49 50  1  0  0  0
 49 53  1  0  0  0
 49 64  1  0  0  0
 49122  1  0  0  0
 50 51  1  0  0  0
 50123  1  0  0  0
 50124  1  0  0  0
 51 52  1  0  0  0
 51125  1  0  0  0
 51126  1  0  0  0
 52127  1  0  0  0
 52128  1  0  0  0
 53 54  1  0  0  0
 54 55  2  0  0  0
 54129  1  0  0  0
 55 57  1  0  0  0
 55130  1  0  0  0
 56 69  2  0  0  0
 57 58  2  0  0  0
 57131  1  0  0  0
 58132  1  0  0  0
 59 60  1  0  0  0
 59 61  1  0  0  0
 59 62  1  0  0  0
 60133  1  0  0  0
 60134  1  0  0  0
 60135  1  0  0  0
 61136  1  0  0  0
 61137  1  0  0  0
 61138  1  0  0  0
 62139  1  0  0  0
 62140  1  0  0  0
 62141  1  0  0  0
 63 65  1  0  0  0
 63142  1  0  0  0
 63143  1  0  0  0
 63144  1  0  0  0
 64145  1  0  0  0
 65146  1  0  0  0
 68 80  1  0  0  0
 71 72  2  0  0  0
 71 73  1  0  0  0
 71147  1  0  0  0
 72 74  1  0  0  0
 72148  1  0  0  0
 73 75  2  0  0  0
 73 78  1  0  0  0
 74 76  2  0  0  0
 74 83  1  0  0  0
 75 76  1  0  0  0
 75 82  1  0  0  0
 76 86  1  0  0  0
 77 79  2  0  0  0
 77149  1  0  0  0
 77150  1  0  0  0
 78 80  2  0  0  0
 78151  1  0  0  0
 79 83  1  0  0  0
 79152  1  0  0  0
 80153  1  0  0  0
 81154  1  0  0  0
 81155  1  0  0  0
 81156  1  0  0  0
 81 87  1  0  0  0
 82 87  1  0  0  0
 82157  1  0  0  0
 84 87  2  0  0  0
 85 87  2  0  0  0
M  ISO  4   1 100  68 101  80 101  83 100
M  END
> <chiral flag>
0

> <version>
0

> <s_m_source_file>
/data/baiqing/PycharmProjects/Reinvent-master-3.2/result/LINK_invent/BTK/process_docking_weight1_custom_product_contain_oxygen_bond_distance_aromatic_linkinvent_7_9_3/rearranged_h_0087.sdf

> <i_m_source_file_index>
32

> <r_mmod_Potential_Energy-OPLS-2005>
1375.06921386719

> <r_mmod_Stretch_Energy-OPLS-2005>
542.9248046875

> <r_mmod_Bend_Energy-OPLS-2005>
689.075256347656

> <r_mmod_Torsional_Energy-OPLS-2005>
321.022613525391

> <r_mmod_Improper_Torsional_Energy-OPLS-2005>
18.60129737854

> <r_mmod_Van_der_Waal_Energy-OPLS-2005>
155.216186523438

> <r_mmod_Electrostatic_Energy-OPLS-2005>
-556.8876953125

> <r_mmod_Solvation_Energy-OPLS-2005>
-236.91064453125

> <b_mmod_Minimization_Converged-OPLS-2005>
0

> <r_mmod_RMS_Derivative-OPLS-2005>
2.27566742897034

$$$$
32
                    3D
 Structure written by MMmdl.
147155  0  0  1  0            999 V2000
  -30.5896  -14.7469   20.4704 C   0  0  0  0  0  0
  -30.4408  -12.4539   19.4800 C   0  0  0  0  0  0
  -29.5160  -12.5157   18.2425 C   0  0  0  0  0  0
  -28.0411  -12.3375   18.6524 C   0  0  0  0  0  0
  -27.6485  -13.2284   19.8607 C   0  0  2  0  0  0
  -28.6910  -13.1373   20.9978 C   0  0  0  0  0  0
  -25.2537  -13.8191   20.5699 C   0  0  0  0  0  0
  -24.1816  -13.0441   20.9195 C   0  0  0  0  0  0
  -24.6401  -11.6916   20.8741 C   0  0  0  0  0  0
  -23.9073  -10.4294   21.0404 C   0  0  0  0  0  0
  -24.3622   -9.4209   21.9183 C   0  0  0  0  0  0
  -23.6295   -8.2245   22.0754 C   0  0  0  0  0  0
  -22.4278   -8.0284   21.3545 C   0  0  0  0  0  0
  -21.9914   -9.0258   20.4647 C   0  0  0  0  0  0
  -22.7245  -10.2136   20.3055 C   0  0  0  0  0  0
  -21.6854   -6.0737   22.5279 C   0  0  0  0  0  0
  -21.4015   -6.5641   23.8213 C   0  0  0  0  0  0
  -21.3659   -5.6794   24.9175 C   0  0  0  0  0  0
  -21.6043   -4.3056   24.7225 C   0  0  0  0  0  0
  -21.8819   -3.8148   23.4347 C   0  0  0  0  0  0
  -21.9193   -4.6965   22.3403 C   0  0  0  0  0  0
  -22.7837  -13.5226   21.1856 C   0  0  0  0  0  0
  -22.1662   -4.2150   21.0981 F   0  0  0  0  0  0
  -21.5628   -3.4540   25.7738 F   0  0  0  0  0  0
  -29.9982  -13.5013   20.4314 N   0  0  0  0  0  0
  -26.2970  -12.9391   20.3314 N   0  0  0  0  0  0
  -25.9334  -11.6535   20.5758 N   0  0  0  0  0  0
  -22.0483  -12.8216   22.0415 N   0  0  0  0  0  0
  -25.4245  -15.1915   20.4126 N   0  0  0  0  0  0
  -31.7492  -14.8893   20.0686 O   0  0  0  0  0  0
  -21.6642   -6.8881   21.4241 O   0  0  0  0  0  0
  -22.3520  -14.5532   20.6707 O   0  0  0  0  0  0
  -24.6325  -31.8542   23.1985 C   0  0  0  0  0  0
  -25.9147  -32.4748   23.8331 C   0  0  1  0  0  0
  -27.2185  -27.2443   20.1244 C   0  0  0  0  0  0
  -25.5939  -33.8552   24.2250 N   0  0  0  0  0  0
  -23.4297  -30.4777   21.5418 C   0  0  2  0  0  0
  -24.8769  -28.9256   20.1079 C   0  0  0  0  0  0
  -22.7508  -29.4597   22.4903 C   0  0  0  0  0  0
  -18.0293  -28.1388   22.8483 C   0  0  0  0  0  0
  -24.1491  -36.7279   23.2640 C   0  0  0  0  0  0
  -25.9779  -30.7589   21.3849 C   0  0  0  0  0  0
  -26.0478  -29.3808   20.7256 C   0  0  0  0  0  0
  -27.2164  -28.5502   20.7288 C   0  0  0  0  0  0
  -26.0282  -26.8764   19.4534 C   0  0  0  0  0  0
  -24.8738  -27.6822   19.4615 C   0  0  0  0  0  0
  -23.6487  -29.8141   20.1572 C   0  0  0  0  0  0
  -25.4119  -36.3065   24.0324 C   0  0  1  0  0  0
  -20.5897  -28.3702   23.1263 C   0  0  2  0  0  0
  -20.6780  -26.9418   22.5406 C   0  0  0  0  0  0
  -19.5756  -26.6383   21.5211 C   0  0  0  0  0  0
  -18.1936  -26.7930   22.1623 C   0  0  0  0  0  0
  -19.1547  -28.8862   23.2868 C   0  0  0  0  0  0
  -18.9468  -30.1461   23.8890 C   0  0  0  0  0  0
  -17.6467  -30.6589   24.0562 C   0  0  0  0  0  0
  -25.9060  -34.9436   23.5089 C   0  0  0  0  0  0
  -16.5358  -29.9086   23.6333 C   0  0  0  0  0  0
  -16.7279  -28.6503   23.0355 C   0  0  0  0  0  0
  -26.4508  -31.6582   25.0730 C   0  0  0  0  0  0
  -25.3722  -31.3738   26.1443 C   0  0  0  0  0  0
  -27.0365  -30.2994   24.6242 C   0  0  0  0  0  0
  -27.6054  -32.4333   25.7505 C   0  0  0  0  0  0
  -27.5578  -37.1797   24.8466 C   0  0  0  0  0  0
  -21.4213  -29.3047   22.3648 N   0  0  0  0  0  0
  -26.4292  -37.3765   23.9406 N   0  0  0  0  0  0
  -24.6988  -31.0490   22.0974 N   0  0  0  0  0  0
  -23.4201  -28.8134   23.3006 O   0  0  0  0  0  0
  -28.3137  -26.3437   20.2148 O   0  0  0  0  0  0
  -26.5634  -34.8913   22.4659 O   0  0  0  0  0  0
  -23.5471  -32.1377   23.7269 O   0  0  0  0  0  0
  -30.1949  -19.3584   19.5270 C   0  0  0  0  0  0
  -30.3989  -17.9123   19.5224 C   0  0  0  0  0  0
  -29.5088  -19.8689   20.6116 C   0  0  0  0  0  0
  -29.8708  -17.2100   20.5931 C   0  0  0  0  0  0
  -29.2149  -21.3002   21.1574 C   0  0  0  0  0  0
  -28.8475  -23.7675   20.7564 C   0  0  0  0  0  0
  -28.2037  -24.8857   19.8040 C   0  0  0  0  0  0
  -29.8086  -15.8272   20.8568 N   0  0  0  0  0  0
  -28.9756  -22.4256   20.3710 N   0  0  0  0  0  0
  -29.1827  -21.3845   22.3899 O   0  0  0  0  0  0
  -29.2075  -24.1621   21.8723 O   0  0  0  0  0  0
  -29.1103  -18.4512   21.6371 S   0  0  0  0  0  0
  -31.4813  -12.5853   19.1782 H   0  0  0  0  0  0
  -30.3909  -11.4704   19.9498 H   0  0  0  0  0  0
  -29.7984  -11.7480   17.5210 H   0  0  0  0  0  0
  -29.6428  -13.4736   17.7355 H   0  0  0  0  0  0
  -27.8962  -11.2871   18.9076 H   0  0  0  0  0  0
  -27.3847  -12.5371   17.8047 H   0  0  0  0  0  0
  -27.6512  -14.2551   19.4936 H   0  0  0  0  0  0
  -28.7238  -12.1286   21.4123 H   0  0  0  0  0  0
  -28.4187  -13.7929   21.8262 H   0  0  0  0  0  0
  -25.2767   -9.5684   22.4758 H   0  0  0  0  0  0
  -24.0004   -7.4637   22.7474 H   0  0  0  0  0  0
  -21.0845   -8.8777   19.8954 H   0  0  0  0  0  0
  -22.3703  -10.9674   19.6164 H   0  0  0  0  0  0
  -21.2008   -7.6149   23.9716 H   0  0  0  0  0  0
  -21.1480   -6.0525   25.9078 H   0  0  0  0  0  0
  -22.0598   -2.7610   23.2848 H   0  0  0  0  0  0
  -22.4103  -11.9878   22.4802 H   0  0  0  0  0  0
  -21.1101  -13.1239   22.2624 H   0  0  0  0  0  0
  -24.6579  -15.8464   20.5224 H   0  0  0  0  0  0
  -26.2750  -15.6310   20.0835 H   0  0  0  0  0  0
  -26.7209  -32.5388   23.1065 H   0  0  0  0  0  0
  -25.0082  -33.9688   25.0392 H   0  0  0  0  0  0
  -22.7269  -31.3008   21.3963 H   0  0  0  0  0  0
  -23.3752  -35.9613   23.3309 H   0  0  0  0  0  0
  -24.3576  -36.8896   22.2053 H   0  0  0  0  0  0
  -23.7249  -37.6483   23.6664 H   0  0  0  0  0  0
  -26.1233  -31.5189   20.6160 H   0  0  0  0  0  0
  -26.8533  -30.8047   22.0210 H   0  0  0  0  0  0
  -28.1077  -28.8899   21.2377 H   0  0  0  0  0  0
  -25.9418  -25.9491   18.9115 H   0  0  0  0  0  0
  -23.9821  -27.3349   18.9579 H   0  0  0  0  0  0
  -23.7747  -30.5918   19.4030 H   0  0  0  0  0  0
  -22.7666  -29.2494   19.8503 H   0  0  0  0  0  0
  -25.1303  -36.1909   25.0817 H   0  0  0  0  0  0
  -20.9992  -28.3283   24.1383 H   0  0  0  0  0  0
  -20.5679  -26.2313   23.3613 H   0  0  0  0  0  0
  -21.6648  -26.7438   22.1200 H   0  0  0  0  0  0
  -19.6918  -25.6292   21.1246 H   0  0  0  0  0  0
  -19.6692  -27.3189   20.6738 H   0  0  0  0  0  0
  -17.4204  -26.6675   21.4027 H   0  0  0  0  0  0
  -18.0339  -26.0073   22.9022 H   0  0  0  0  0  0
  -19.7944  -30.7279   24.2257 H   0  0  0  0  0  0
  -17.5022  -31.6269   24.5164 H   0  0  0  0  0  0
  -15.5359  -30.2986   23.7662 H   0  0  0  0  0  0
  -15.8678  -28.0819   22.7079 H   0  0  0  0  0  0
  -24.5908  -30.7075   25.7770 H   0  0  0  0  0  0
  -24.8902  -32.2909   26.4841 H   0  0  0  0  0  0
  -25.8033  -30.8936   27.0237 H   0  0  0  0  0  0
  -26.2962  -29.6731   24.1253 H   0  0  0  0  0  0
  -27.4019  -29.7271   25.4779 H   0  0  0  0  0  0
  -27.8851  -30.4259   23.9516 H   0  0  0  0  0  0
  -27.2655  -33.3640   26.2061 H   0  0  0  0  0  0
  -28.3875  -32.6885   25.0341 H   0  0  0  0  0  0
  -28.0713  -31.8475   26.5439 H   0  0  0  0  0  0
  -28.2597  -38.0091   24.7506 H   0  0  0  0  0  0
  -28.1071  -36.2621   24.6304 H   0  0  0  0  0  0
  -27.2293  -37.1458   25.8869 H   0  0  0  0  0  0
  -20.9401  -29.8770   21.6853 H   0  0  0  0  0  0
  -26.0168  -38.2838   24.1403 H   0  0  0  0  0  0
  -30.6005  -19.9758   18.7381 H   0  0  0  0  0  0
  -30.9263  -17.4402   18.7050 H   0  0  0  0  0  0
  -27.1702  -24.5602   19.7313 H   0  0  0  0  0  0
  -28.6326  -24.7788   18.8078 H   0  0  0  0  0  0
  -28.9755  -15.5412   21.3496 H   0  0  0  0  0  0
  -28.8319  -22.2358   19.3916 H   0  0  0  0  0  0
  1 25  1  0  0  0
  1 30  2  0  0  0
  1 78  1  0  0  0
  2  3  1  0  0  0
  2 25  1  0  0  0
  2 83  1  0  0  0
  2 84  1  0  0  0
  3  4  1  0  0  0
  3 85  1  0  0  0
  3 86  1  0  0  0
  4  5  1  0  0  0
  4 87  1  0  0  0
  4 88  1  0  0  0
  5  6  1  0  0  0
  5 26  1  0  0  0
  5 89  1  0  0  0
  6 25  1  0  0  0
  6 90  1  0  0  0
  6 91  1  0  0  0
  7  8  2  0  0  0
  7 26  1  0  0  0
  7 29  1  0  0  0
  8  9  1  0  0  0
  8 22  1  0  0  0
  9 10  1  0  0  0
  9 27  2  0  0  0
 10 11  2  0  0  0
 10 15  1  0  0  0
 11 12  1  0  0  0
 11 92  1  0  0  0
 12 13  2  0  0  0
 12 93  1  0  0  0
 13 14  1  0  0  0
 13 31  1  0  0  0
 14 15  2  0  0  0
 14 94  1  0  0  0
 15 95  1  0  0  0
 16 17  2  0  0  0
 16 21  1  0  0  0
 16 31  1  0  0  0
 17 18  1  0  0  0
 17 96  1  0  0  0
 18 19  2  0  0  0
 18 97  1  0  0  0
 19 20  1  0  0  0
 19 24  1  0  0  0
 20 21  2  0  0  0
 20 98  1  0  0  0
 21 23  1  0  0  0
 22 28  1  0  0  0
 22 32  2  0  0  0
 26 27  1  0  0  0
 28 99  1  0  0  0
 28100  1  0  0  0
 29101  1  0  0  0
 29102  1  0  0  0
 33 34  1  0  0  0
 33 66  1  0  0  0
 33 70  2  0  0  0
 34 36  1  0  0  0
 34 59  1  0  0  0
 34103  1  0  0  0
 35 44  2  0  0  0
 35 45  1  0  0  0
 35 68  1  0  0  0
 36 56  1  0  0  0
 36104  1  0  0  0
 37 39  1  0  0  0
 37 47  1  0  0  0
 37 66  1  0  0  0
 37105  1  0  0  0
 38 43  2  0  0  0
 38 46  1  0  0  0
 38 47  1  0  0  0
 39 64  1  0  0  0
 39 67  2  0  0  0
 40 52  1  0  0  0
 40 53  2  0  0  0
 40 58  1  0  0  0
 41106  1  0  0  0
 41107  1  0  0  0
 41108  1  0  0  0
 41 48  1  0  0  0
 42 43  1  0  0  0
 42 66  1  0  0  0
 42109  1  0  0  0
 42110  1  0  0  0
 43 44  1  0  0  0
 44111  1  0  0  0
 45 46  2  0  0  0
 45112  1  0  0  0
 46113  1  0  0  0
 47114  1  0  0  0
 47115  1  0  0  0
 48 56  1  0  0  0
 48 65  1  0  0  0
 48116  1  0  0  0
 49 50  1  0  0  0
 49 53  1  0  0  0
 49 64  1  0  0  0
 49117  1  0  0  0
 50 51  1  0  0  0
 50118  1  0  0  0
 50119  1  0  0  0
 51 52  1  0  0  0
 51120  1  0  0  0
 51121  1  0  0  0
 52122  1  0  0  0
 52123  1  0  0  0
 53 54  1  0  0  0
 54 55  2  0  0  0
 54124  1  0  0  0
 55 57  1  0  0  0
 55125  1  0  0  0
 56 69  2  0  0  0
 57 58  2  0  0  0
 57126  1  0  0  0
 58127  1  0  0  0
 59 60  1  0  0  0
 59 61  1  0  0  0
 59 62  1  0  0  0
 60128  1  0  0  0
 60129  1  0  0  0
 60130  1  0  0  0
 61131  1  0  0  0
 61132  1  0  0  0
 61133  1  0  0  0
 62134  1  0  0  0
 62135  1  0  0  0
 62136  1  0  0  0
 63 65  1  0  0  0
 63137  1  0  0  0
 63138  1  0  0  0
 63139  1  0  0  0
 64140  1  0  0  0
 65141  1  0  0  0
 68 77  1  0  0  0
 71 72  1  0  0  0
 71 73  2  0  0  0
 71142  1  0  0  0
 72 74  2  0  0  0
 72143  1  0  0  0
 73 75  1  0  0  0
 73 82  1  0  0  0
 74 78  1  0  0  0
 74 82  1  0  0  0
 75 79  1  0  0  0
 75 80  2  0  0  0
 76 77  1  0  0  0
 76 79  1  0  0  0
 76 81  2  0  0  0
 77144  1  0  0  0
 77145  1  0  0  0
 78146  1  0  0  0
 79147  1  0  0  0
M  ISO  4   1 100  68 101  77 101  78 100
M  END
> <chiral flag>
0

> <version>
0

> <s_m_source_file>
/data/baiqing/PycharmProjects/Reinvent-master-3.2/result/LINK_invent/BTK/process_docking_weight1_custom_product_contain_oxygen_bond_distance_aromatic_linkinvent_7_9_3/rearranged_h_0087.sdf

> <i_m_source_file_index>
33

> <r_mmod_Potential_Energy-OPLS-2005>
0.59157931804657

> <r_mmod_Stretch_Energy-OPLS-2005>
120.522315979004

> <r_mmod_Bend_Energy-OPLS-2005>
176.184722900391

> <r_mmod_Torsional_Energy-OPLS-2005>
236.689514160156

> <r_mmod_Improper_Torsional_Energy-OPLS-2005>
3.8349461555481

> <r_mmod_Van_der_Waal_Energy-OPLS-2005>
126.348724365234

> <r_mmod_Electrostatic_Energy-OPLS-2005>
-456.690155029297

> <r_mmod_Solvation_Energy-OPLS-2005>
-296.411560058594

> <b_mmod_Minimization_Converged-OPLS-2005>
0

> <r_mmod_RMS_Derivative-OPLS-2005>
0.200033023953438

$$$$
33
                    3D
 Structure written by MMmdl.
156165  0  0  1  0            999 V2000
  -30.6913  -14.6483   20.4660 C   0  0  0  0  0  0
  -30.4146  -12.3828   19.4804 C   0  0  0  0  0  0
  -29.5069  -12.4885   18.2369 C   0  0  0  0  0  0
  -28.0281  -12.3383   18.6411 C   0  0  0  0  0  0
  -27.6448  -13.2365   19.8469 C   0  0  2  0  0  0
  -28.6876  -13.1637   20.9828 C   0  0  0  0  0  0
  -25.2535  -13.8228   20.5706 C   0  0  0  0  0  0
  -24.1813  -13.0466   20.9183 C   0  0  0  0  0  0
  -24.6398  -11.6946   20.8721 C   0  0  0  0  0  0
  -23.9074  -10.4321   21.0387 C   0  0  0  0  0  0
  -24.3629   -9.4231   21.9162 C   0  0  0  0  0  0
  -23.6310   -8.2266   22.0744 C   0  0  0  0  0  0
  -22.4291   -8.0291   21.3535 C   0  0  0  0  0  0
  -21.9917   -9.0262   20.4641 C   0  0  0  0  0  0
  -22.7247  -10.2145   20.3039 C   0  0  0  0  0  0
  -21.6878   -6.0741   22.5282 C   0  0  0  0  0  0
  -21.4028   -6.5641   23.8214 C   0  0  0  0  0  0
  -21.3655   -5.6788   24.9170 C   0  0  0  0  0  0
  -21.6035   -4.3051   24.7219 C   0  0  0  0  0  0
  -21.8827   -3.8151   23.4344 C   0  0  0  0  0  0
  -21.9202   -4.6969   22.3398 C   0  0  0  0  0  0
  -22.7832  -13.5235   21.1857 C   0  0  0  0  0  0
  -22.1670   -4.2154   21.0980 F   0  0  0  0  0  0
  -21.5619   -3.4537   25.7726 F   0  0  0  0  0  0
  -30.0108  -13.4553   20.4177 N   0  0  0  0  0  0
  -26.2962  -12.9441   20.3275 N   0  0  0  0  0  0
  -25.9329  -11.6574   20.5731 N   0  0  0  0  0  0
  -22.0504  -12.8211   22.0429 N   0  0  0  0  0  0
  -25.4276  -15.1950   20.4164 N   0  0  0  0  0  0
  -31.8789  -14.6408   20.1324 O   0  0  0  0  0  0
  -21.6660   -6.8882   21.4243 O   0  0  0  0  0  0
  -22.3493  -14.5540   20.6713 O   0  0  0  0  0  0
  -24.6287  -31.8620   23.2055 C   0  0  0  0  0  0
  -25.9129  -32.4800   23.8382 C   0  0  1  0  0  0
  -27.2025  -27.2993   20.0962 C   0  0  0  0  0  0
  -25.5952  -33.8607   24.2308 N   0  0  0  0  0  0
  -23.4219  -30.4913   21.5504 C   0  0  2  0  0  0
  -24.8609  -28.9562   20.1115 C   0  0  0  0  0  0
  -22.7499  -29.4641   22.4926 C   0  0  0  0  0  0
  -18.0297  -28.1405   22.8480 C   0  0  0  0  0  0
  -24.1484  -36.7284   23.2633 C   0  0  0  0  0  0
  -25.9694  -30.7834   21.3844 C   0  0  0  0  0  0
  -26.0356  -29.4117   20.7223 C   0  0  0  0  0  0
  -27.2081  -28.5927   20.7129 C   0  0  0  0  0  0
  -25.9989  -26.9223   19.4481 C   0  0  0  0  0  0
  -24.8459  -27.7175   19.4663 C   0  0  0  0  0  0
  -23.6349  -29.8405   20.1618 C   0  0  0  0  0  0
  -25.4115  -36.3102   24.0330 C   0  0  1  0  0  0
  -20.5904  -28.3703   23.1270 C   0  0  2  0  0  0
  -20.6783  -26.9415   22.5409 C   0  0  0  0  0  0
  -19.5750  -26.6395   21.5214 C   0  0  0  0  0  0
  -18.1932  -26.7945   22.1631 C   0  0  0  0  0  0
  -19.1554  -28.8866   23.2874 C   0  0  0  0  0  0
  -18.9472  -30.1466   23.8892 C   0  0  0  0  0  0
  -17.6471  -30.6592   24.0571 C   0  0  0  0  0  0
  -25.9055  -34.9471   23.5114 C   0  0  0  0  0  0
  -16.5357  -29.9100   23.6330 C   0  0  0  0  0  0
  -16.7288  -28.6527   23.0338 C   0  0  0  0  0  0
  -26.4490  -31.6602   25.0747 C   0  0  0  0  0  0
  -25.3722  -31.3736   26.1470 C   0  0  0  0  0  0
  -27.0323  -30.3021   24.6203 C   0  0  0  0  0  0
  -27.6065  -32.4327   25.7512 C   0  0  0  0  0  0
  -27.5573  -37.1810   24.8471 C   0  0  0  0  0  0
  -21.4207  -29.3071   22.3673 N   0  0  0  0  0  0
  -26.4294  -37.3789   23.9406 N   0  0  0  0  0  0
  -24.6930  -31.0619   22.1027 N   0  0  0  0  0  0
  -23.4231  -28.8152   23.2975 O   0  0  0  0  0  0
  -28.3028  -26.4131   20.1544 O   0  0  0  0  0  0
  -26.5613  -34.8927   22.4675 O   0  0  0  0  0  0
  -23.5445  -32.1423   23.7369 O   0  0  0  0  0  0
  -31.0441  -19.4273   19.9957 C   0  0  0  0  0  0
  -28.8079  -18.9702   20.7363 C   0  0  0  0  0  0
  -30.7235  -20.7992   19.8110 C   0  0  0  0  0  0
  -28.4821  -20.3575   20.5666 C   0  0  0  0  0  0
  -30.0978  -18.4548   20.4262 C   0  0  0  0  0  0
  -29.4270  -21.3062   20.0742 C   0  0  0  0  0  0
  -28.8888  -23.8094   20.2890 C   0  0  0  0  0  0
  -30.5439  -16.9837   20.4571 C   0  0  0  0  0  0
  -28.1077  -23.7107   17.4714 C   0  0  0  0  0  0
  -28.3706  -25.0823   18.0839 C   0  0  0  0  0  0
  -29.0531  -22.6806   18.0957 C   0  0  0  0  0  0
  -28.1360  -25.0352   19.6033 C   0  0  2  0  0  0
  -29.9434  -15.8452   20.7101 N   0  0  0  0  0  0
  -29.0433  -22.6295   19.5705 N   0  0  0  0  0  0
  -29.2426  -23.9085   21.4694 O   0  0  0  0  0  0
  -31.4632  -12.4451   19.1847 H   0  0  0  0  0  0
  -30.2993  -11.4064   19.9544 H   0  0  0  0  0  0
  -29.7721  -11.7224   17.5075 H   0  0  0  0  0  0
  -29.6607  -13.4492   17.7419 H   0  0  0  0  0  0
  -27.8647  -11.2901   18.8931 H   0  0  0  0  0  0
  -27.3773  -12.5480   17.7912 H   0  0  0  0  0  0
  -27.6459  -14.2607   19.4726 H   0  0  0  0  0  0
  -28.6861  -12.1808   21.4526 H   0  0  0  0  0  0
  -28.4386  -13.8778   21.7703 H   0  0  0  0  0  0
  -25.2769   -9.5726   22.4723 H   0  0  0  0  0  0
  -24.0036   -7.4663   22.7456 H   0  0  0  0  0  0
  -21.0852   -8.8768   19.8947 H   0  0  0  0  0  0
  -22.3690  -10.9669   19.6146 H   0  0  0  0  0  0
  -21.2031   -7.6150   23.9722 H   0  0  0  0  0  0
  -21.1462   -6.0516   25.9077 H   0  0  0  0  0  0
  -22.0608   -2.7614   23.2843 H   0  0  0  0  0  0
  -22.4156  -11.9878   22.4801 H   0  0  0  0  0  0
  -21.1106  -13.1209   22.2633 H   0  0  0  0  0  0
  -24.6757  -15.8636   20.5425 H   0  0  0  0  0  0
  -26.3034  -15.6273   20.1461 H   0  0  0  0  0  0
  -26.7197  -32.5434   23.1128 H   0  0  0  0  0  0
  -25.0146  -33.9778   25.0484 H   0  0  0  0  0  0
  -22.7165  -31.3133   21.4149 H   0  0  0  0  0  0
  -23.3753  -35.9606   23.3327 H   0  0  0  0  0  0
  -24.3559  -36.8860   22.2032 H   0  0  0  0  0  0
  -23.7214  -37.6494   23.6625 H   0  0  0  0  0  0
  -26.1121  -31.5460   20.6177 H   0  0  0  0  0  0
  -26.8479  -30.8268   22.0167 H   0  0  0  0  0  0
  -28.1058  -28.9336   21.2093 H   0  0  0  0  0  0
  -25.8792  -25.9988   18.9058 H   0  0  0  0  0  0
  -23.9506  -27.3690   18.9702 H   0  0  0  0  0  0
  -23.7638  -30.6238   19.4141 H   0  0  0  0  0  0
  -22.7514  -29.2812   19.8478 H   0  0  0  0  0  0
  -25.1292  -36.1967   25.0821 H   0  0  0  0  0  0
  -21.0003  -28.3266   24.1390 H   0  0  0  0  0  0
  -20.5674  -26.2302   23.3615 H   0  0  0  0  0  0
  -21.6645  -26.7442   22.1188 H   0  0  0  0  0  0
  -19.6896  -25.6309   21.1236 H   0  0  0  0  0  0
  -19.6671  -27.3209   20.6744 H   0  0  0  0  0  0
  -17.4192  -26.6681   21.4047 H   0  0  0  0  0  0
  -18.0334  -26.0107   22.9048 H   0  0  0  0  0  0
  -19.7943  -30.7293   24.2238 H   0  0  0  0  0  0
  -17.5025  -31.6268   24.5189 H   0  0  0  0  0  0
  -15.5354  -30.3006   23.7663 H   0  0  0  0  0  0
  -15.8688  -28.0862   22.7032 H   0  0  0  0  0  0
  -24.5920  -30.7060   25.7796 H   0  0  0  0  0  0
  -24.8879  -32.2890   26.4878 H   0  0  0  0  0  0
  -25.8044  -30.8937   27.0250 H   0  0  0  0  0  0
  -26.2899  -29.6803   24.1181 H   0  0  0  0  0  0
  -27.3960  -29.7250   25.4705 H   0  0  0  0  0  0
  -27.8805  -30.4306   23.9477 H   0  0  0  0  0  0
  -27.2692  -33.3617   26.2114 H   0  0  0  0  0  0
  -28.3853  -32.6885   25.0325 H   0  0  0  0  0  0
  -28.0752  -31.8429   26.5392 H   0  0  0  0  0  0
  -28.2624  -38.0080   24.7510 H   0  0  0  0  0  0
  -28.1044  -36.2614   24.6329 H   0  0  0  0  0  0
  -27.2291  -37.1493   25.8877 H   0  0  0  0  0  0
  -20.9378  -29.8828   21.6913 H   0  0  0  0  0  0
  -26.0181  -38.2869   24.1417 H   0  0  0  0  0  0
  -32.0475  -19.1135   19.7408 H   0  0  0  0  0  0
  -28.0396  -18.2845   21.0659 H   0  0  0  0  0  0
  -31.4794  -21.4541   19.3973 H   0  0  0  0  0  0
  -27.4636  -20.6748   20.7436 H   0  0  0  0  0  0
  -31.6020  -16.9520   20.1820 H   0  0  0  0  0  0
  -28.2535  -23.7449   16.3905 H   0  0  0  0  0  0
  -27.0705  -23.4139   17.6348 H   0  0  0  0  0  0
  -27.7243  -25.8161   17.6044 H   0  0  0  0  0  0
  -29.3926  -25.4013   17.8791 H   0  0  0  0  0  0
  -30.0751  -22.8995   17.7808 H   0  0  0  0  0  0
  -28.8154  -21.6986   17.6857 H   0  0  0  0  0  0
  -27.1226  -24.6981   19.8033 H   0  0  0  0  0  0
  1 25  1  0  0  0
  1 30  2  0  0  0
  1 83  1  0  0  0
  2  3  1  0  0  0
  2 25  1  0  0  0
  2 86  1  0  0  0
  2 87  1  0  0  0
  3  4  1  0  0  0
  3 88  1  0  0  0
  3 89  1  0  0  0
  4  5  1  0  0  0
  4 90  1  0  0  0
  4 91  1  0  0  0
  5  6  1  0  0  0
  5 26  1  0  0  0
  5 92  1  0  0  0
  6 25  1  0  0  0
  6 93  1  0  0  0
  6 94  1  0  0  0
  7  8  2  0  0  0
  7 26  1  0  0  0
  7 29  1  0  0  0
  8  9  1  0  0  0
  8 22  1  0  0  0
  9 10  1  0  0  0
  9 27  2  0  0  0
 10 11  2  0  0  0
 10 15  1  0  0  0
 11 12  1  0  0  0
 11 95  1  0  0  0
 12 13  2  0  0  0
 12 96  1  0  0  0
 13 14  1  0  0  0
 13 31  1  0  0  0
 14 15  2  0  0  0
 14 97  1  0  0  0
 15 98  1  0  0  0
 16 17  2  0  0  0
 16 21  1  0  0  0
 16 31  1  0  0  0
 17 18  1  0  0  0
 17 99  1  0  0  0
 18 19  2  0  0  0
 18100  1  0  0  0
 19 20  1  0  0  0
 19 24  1  0  0  0
 20 21  2  0  0  0
 20101  1  0  0  0
 21 23  1  0  0  0
 22 28  1  0  0  0
 22 32  2  0  0  0
 26 27  1  0  0  0
 28102  1  0  0  0
 28103  1  0  0  0
 29104  1  0  0  0
 29105  1  0  0  0
 33 34  1  0  0  0
 33 66  1  0  0  0
 33 70  2  0  0  0
 34 36  1  0  0  0
 34 59  1  0  0  0
 34106  1  0  0  0
 35 44  2  0  0  0
 35 45  1  0  0  0
 35 68  1  0  0  0
 36 56  1  0  0  0
 36107  1  0  0  0
 37 39  1  0  0  0
 37 47  1  0  0  0
 37 66  1  0  0  0
 37108  1  0  0  0
 38 43  2  0  0  0
 38 46  1  0  0  0
 38 47  1  0  0  0
 39 64  1  0  0  0
 39 67  2  0  0  0
 40 52  1  0  0  0
 40 53  2  0  0  0
 40 58  1  0  0  0
 41109  1  0  0  0
 41110  1  0  0  0
 41111  1  0  0  0
 41 48  1  0  0  0
 42 43  1  0  0  0
 42 66  1  0  0  0
 42112  1  0  0  0
 42113  1  0  0  0
 43 44  1  0  0  0
 44114  1  0  0  0
 45 46  2  0  0  0
 45115  1  0  0  0
 46116  1  0  0  0
 47117  1  0  0  0
 47118  1  0  0  0
 48 56  1  0  0  0
 48 65  1  0  0  0
 48119  1  0  0  0
 49 50  1  0  0  0
 49 53  1  0  0  0
 49 64  1  0  0  0
 49120  1  0  0  0
 50 51  1  0  0  0
 50121  1  0  0  0
 50122  1  0  0  0
 51 52  1  0  0  0
 51123  1  0  0  0
 51124  1  0  0  0
 52125  1  0  0  0
 52126  1  0  0  0
 53 54  1  0  0  0
 54 55  2  0  0  0
 54127  1  0  0  0
 55 57  1  0  0  0
 55128  1  0  0  0
 56 69  2  0  0  0
 57 58  2  0  0  0
 57129  1  0  0  0
 58130  1  0  0  0
 59 60  1  0  0  0
 59 61  1  0  0  0
 59 62  1  0  0  0
 60131  1  0  0  0
 60132  1  0  0  0
 60133  1  0  0  0
 61134  1  0  0  0
 61135  1  0  0  0
 61136  1  0  0  0
 62137  1  0  0  0
 62138  1  0  0  0
 62139  1  0  0  0
 63 65  1  0  0  0
 63140  1  0  0  0
 63141  1  0  0  0
 63142  1  0  0  0
 64143  1  0  0  0
 65144  1  0  0  0
 68 82  1  0  0  0
 71 73  2  0  0  0
 71 75  1  0  0  0
 71145  1  0  0  0
 72 74  1  0  0  0
 72 75  2  0  0  0
 72146  1  0  0  0
 73 76  1  0  0  0
 73147  1  0  0  0
 74 76  2  0  0  0
 74148  1  0  0  0
 75 78  1  0  0  0
 76 84  1  0  0  0
 77 82  1  0  0  0
 77 84  1  0  0  0
 77 85  2  0  0  0
 78 83  2  0  0  0
 78149  1  0  0  0
 79 80  1  0  0  0
 79 81  1  0  0  0
 79150  1  0  0  0
 79151  1  0  0  0
 80 82  1  0  0  0
 80152  1  0  0  0
 80153  1  0  0  0
 81 84  1  0  0  0
 81154  1  0  0  0
 81155  1  0  0  0
 82156  1  0  0  0
M  ISO  4   1 100  68 101  82 101  83 100
M  END
> <chiral flag>
0

> <version>
0

> <s_m_source_file>
/data/baiqing/PycharmProjects/Reinvent-master-3.2/result/LINK_invent/BTK/process_docking_weight1_custom_product_contain_oxygen_bond_distance_aromatic_linkinvent_7_9_3/rearranged_h_0087.sdf

> <i_m_source_file_index>
34

> <r_mmod_Potential_Energy-OPLS-2005>
275.318176269531

> <r_mmod_Stretch_Energy-OPLS-2005>
96.5683288574219

> <r_mmod_Bend_Energy-OPLS-2005>
160.047729492188

> <r_mmod_Torsional_Energy-OPLS-2005>
246.337158203125

> <r_mmod_Improper_Torsional_Energy-OPLS-2005>
7.23707962036133

> <r_mmod_Van_der_Waal_Energy-OPLS-2005>
175.01008605957

> <r_mmod_Electrostatic_Energy-OPLS-2005>
-263.869171142578

> <r_mmod_Solvation_Energy-OPLS-2005>
-207.166870117188

> <b_mmod_Minimization_Converged-OPLS-2005>
0

> <r_mmod_RMS_Derivative-OPLS-2005>
2.19013738632202

$$$$
34
                    3D
 Structure written by MMmdl.
152160  0  0  1  0            999 V2000
  -30.6898  -14.6367   20.4774 C   0  0  0  0  0  0
  -30.4125  -12.3940   19.4419 C   0  0  0  0  0  0
  -29.4905  -12.4849   18.2107 C   0  0  0  0  0  0
  -28.0193  -12.3236   18.6363 C   0  0  0  0  0  0
  -27.6406  -13.2235   19.8449 C   0  0  2  0  0  0
  -28.6913  -13.1414   20.9724 C   0  0  0  0  0  0
  -25.2523  -13.8184   20.5699 C   0  0  0  0  0  0
  -24.1805  -13.0442   20.9211 C   0  0  0  0  0  0
  -24.6384  -11.6912   20.8752 C   0  0  0  0  0  0
  -23.9066  -10.4287   21.0412 C   0  0  0  0  0  0
  -24.3618   -9.4208   21.9187 C   0  0  0  0  0  0
  -23.6288   -8.2243   22.0755 C   0  0  0  0  0  0
  -22.4275   -8.0278   21.3545 C   0  0  0  0  0  0
  -21.9917   -9.0257   20.4655 C   0  0  0  0  0  0
  -22.7240  -10.2132   20.3062 C   0  0  0  0  0  0
  -21.6853   -6.0734   22.5281 C   0  0  0  0  0  0
  -21.4009   -6.5641   23.8214 C   0  0  0  0  0  0
  -21.3652   -5.6796   24.9175 C   0  0  0  0  0  0
  -21.6044   -4.3058   24.7226 C   0  0  0  0  0  0
  -21.8818   -3.8151   23.4351 C   0  0  0  0  0  0
  -21.9194   -4.6968   22.3406 C   0  0  0  0  0  0
  -22.7829  -13.5234   21.1861 C   0  0  0  0  0  0
  -22.1659   -4.2152   21.0986 F   0  0  0  0  0  0
  -21.5629   -3.4545   25.7739 F   0  0  0  0  0  0
  -29.9917  -13.4608   20.3753 N   0  0  0  0  0  0
  -26.2932  -12.9376   20.3285 N   0  0  0  0  0  0
  -25.9309  -11.6527   20.5759 N   0  0  0  0  0  0
  -22.0475  -12.8217   22.0412 N   0  0  0  0  0  0
  -25.4254  -15.1898   20.4079 N   0  0  0  0  0  0
  -31.8872  -14.6403   20.1812 O   0  0  0  0  0  0
  -21.6640   -6.8874   21.4240 O   0  0  0  0  0  0
  -22.3519  -14.5547   20.6715 O   0  0  0  0  0  0
  -24.6298  -31.8612   23.2044 C   0  0  0  0  0  0
  -25.9142  -32.4786   23.8363 C   0  0  1  0  0  0
  -27.1992  -27.3052   20.1124 C   0  0  0  0  0  0
  -25.5953  -33.8584   24.2281 N   0  0  0  0  0  0
  -23.4197  -30.4890   21.5501 C   0  0  2  0  0  0
  -24.8586  -28.9542   20.1088 C   0  0  0  0  0  0
  -22.7491  -29.4627   22.4954 C   0  0  0  0  0  0
  -18.0283  -28.1399   22.8470 C   0  0  0  0  0  0
  -24.1487  -36.7289   23.2635 C   0  0  0  0  0  0
  -25.9648  -30.7912   21.3734 C   0  0  0  0  0  0
  -26.0344  -29.4201   20.7117 C   0  0  0  0  0  0
  -27.2103  -28.6096   20.7022 C   0  0  0  0  0  0
  -25.9955  -26.9046   19.4830 C   0  0  0  0  0  0
  -24.8420  -27.7017   19.4875 C   0  0  0  0  0  0
  -23.6307  -29.8359   20.1622 C   0  0  0  0  0  0
  -25.4104  -36.3085   24.0330 C   0  0  1  0  0  0
  -20.5881  -28.3694   23.1293 C   0  0  2  0  0  0
  -20.6780  -26.9420   22.5414 C   0  0  0  0  0  0
  -19.5754  -26.6386   21.5223 C   0  0  0  0  0  0
  -18.1922  -26.7934   22.1619 C   0  0  0  0  0  0
  -19.1537  -28.8862   23.2874 C   0  0  0  0  0  0
  -18.9465  -30.1460   23.8890 C   0  0  0  0  0  0
  -17.6465  -30.6600   24.0553 C   0  0  0  0  0  0
  -25.9061  -34.9455   23.5101 C   0  0  0  0  0  0
  -16.5348  -29.9092   23.6342 C   0  0  0  0  0  0
  -16.7268  -28.6510   23.0345 C   0  0  0  0  0  0
  -26.4497  -31.6601   25.0742 C   0  0  0  0  0  0
  -25.3715  -31.3768   26.1464 C   0  0  0  0  0  0
  -27.0334  -30.3022   24.6205 C   0  0  0  0  0  0
  -27.6071  -32.4310   25.7505 C   0  0  0  0  0  0
  -27.5576  -37.1784   24.8453 C   0  0  0  0  0  0
  -21.4200  -29.3047   22.3693 N   0  0  0  0  0  0
  -26.4276  -37.3787   23.9432 N   0  0  0  0  0  0
  -24.6911  -31.0635   22.0992 N   0  0  0  0  0  0
  -23.4222  -28.8138   23.3005 O   0  0  0  0  0  0
  -28.2870  -26.4120   20.1709 O   0  0  0  0  0  0
  -26.5625  -34.8918   22.4664 O   0  0  0  0  0  0
  -23.5456  -32.1398   23.7370 O   0  0  0  0  0  0
  -28.5449  -18.7392   20.8115 C   0  0  0  0  0  0
  -28.0732  -20.0850   20.6679 C   0  0  0  0  0  0
  -30.7239  -19.4972   20.1577 C   0  0  0  0  0  0
  -29.9041  -18.4118   20.5754 C   0  0  0  0  0  0
  -30.2585  -20.8344   20.0075 C   0  0  0  0  0  0
  -28.9072  -21.1814   20.2934 C   0  0  0  0  0  0
  -30.5755  -17.0511   20.8752 C   0  0  0  0  0  0
  -27.9596  -24.9665   20.0202 C   0  0  0  0  0  0
  -28.9738  -23.7721   20.2938 C   0  0  0  0  0  0
  -31.1655  -21.7754   19.5293 N   0  0  0  0  0  0
  -29.9982  -15.8207   20.6487 N   0  0  0  0  0  0
  -31.7269  -17.1424   21.3202 O   0  0  0  0  0  0
  -28.3081  -22.4604   20.1726 O   0  0  0  0  0  0
  -31.4554  -12.4798   19.1316 H   0  0  0  0  0  0
  -30.3247  -11.4147   19.9155 H   0  0  0  0  0  0
  -29.7553  -11.7168   17.4826 H   0  0  0  0  0  0
  -29.6292  -13.4433   17.7080 H   0  0  0  0  0  0
  -27.8698  -11.2745   18.8954 H   0  0  0  0  0  0
  -27.3564  -12.5216   17.7928 H   0  0  0  0  0  0
  -27.6414  -14.2471   19.4697 H   0  0  0  0  0  0
  -28.7104  -12.1415   21.4096 H   0  0  0  0  0  0
  -28.4489  -13.8291   21.7840 H   0  0  0  0  0  0
  -25.2769   -9.5676   22.4758 H   0  0  0  0  0  0
  -24.0005   -7.4632   22.7465 H   0  0  0  0  0  0
  -21.0858   -8.8771   19.8954 H   0  0  0  0  0  0
  -22.3708  -10.9670   19.6167 H   0  0  0  0  0  0
  -21.1997   -7.6143   23.9712 H   0  0  0  0  0  0
  -21.1470   -6.0528   25.9076 H   0  0  0  0  0  0
  -22.0606   -2.7613   23.2855 H   0  0  0  0  0  0
  -22.4107  -11.9891   22.4808 H   0  0  0  0  0  0
  -21.1082  -13.1231   22.2599 H   0  0  0  0  0  0
  -24.6607  -15.8466   20.5139 H   0  0  0  0  0  0
  -26.2669  -15.6211   20.0493 H   0  0  0  0  0  0
  -26.7206  -32.5433   23.1102 H   0  0  0  0  0  0
  -25.0102  -33.9736   25.0427 H   0  0  0  0  0  0
  -22.7127  -31.3102   21.4135 H   0  0  0  0  0  0
  -23.3770  -35.9607   23.3273 H   0  0  0  0  0  0
  -24.3585  -36.8943   22.2062 H   0  0  0  0  0  0
  -23.7216  -37.6469   23.6666 H   0  0  0  0  0  0
  -26.0982  -31.5564   20.6076 H   0  0  0  0  0  0
  -26.8468  -30.8374   22.0006 H   0  0  0  0  0  0
  -28.1094  -28.9615   21.1867 H   0  0  0  0  0  0
  -25.8899  -25.9501   18.9913 H   0  0  0  0  0  0
  -23.9402  -27.3359   19.0172 H   0  0  0  0  0  0
  -23.7470  -30.6170   19.4112 H   0  0  0  0  0  0
  -22.7479  -29.2713   19.8556 H   0  0  0  0  0  0
  -25.1277  -36.1928   25.0823 H   0  0  0  0  0  0
  -20.9945  -28.3257   24.1428 H   0  0  0  0  0  0
  -20.5719  -26.2293   23.3612 H   0  0  0  0  0  0
  -21.6637  -26.7467   22.1176 H   0  0  0  0  0  0
  -19.6929  -25.6301   21.1246 H   0  0  0  0  0  0
  -19.6705  -27.3200   20.6762 H   0  0  0  0  0  0
  -17.4198  -26.6681   21.4012 H   0  0  0  0  0  0
  -18.0305  -26.0093   22.9030 H   0  0  0  0  0  0
  -19.7944  -30.7266   24.2254 H   0  0  0  0  0  0
  -17.5028  -31.6280   24.5155 H   0  0  0  0  0  0
  -15.5350  -30.2990   23.7700 H   0  0  0  0  0  0
  -15.8656  -28.0837   22.7071 H   0  0  0  0  0  0
  -24.5895  -30.7098   25.7800 H   0  0  0  0  0  0
  -24.8892  -32.2949   26.4832 H   0  0  0  0  0  0
  -25.8024  -30.8984   27.0273 H   0  0  0  0  0  0
  -26.2909  -29.6787   24.1204 H   0  0  0  0  0  0
  -27.4013  -29.7264   25.4715 H   0  0  0  0  0  0
  -27.8787  -30.4320   23.9440 H   0  0  0  0  0  0
  -27.2717  -33.3636   26.2048 H   0  0  0  0  0  0
  -28.3900  -32.6825   25.0337 H   0  0  0  0  0  0
  -28.0709  -31.8446   26.5450 H   0  0  0  0  0  0
  -28.2558  -38.0120   24.7553 H   0  0  0  0  0  0
  -28.1111  -36.2647   24.6191 H   0  0  0  0  0  0
  -27.2308  -37.1326   25.8862 H   0  0  0  0  0  0
  -20.9381  -29.8801   21.6931 H   0  0  0  0  0  0
  -26.0154  -38.2859   24.1477 H   0  0  0  0  0  0
  -27.8558  -17.9728   21.1391 H   0  0  0  0  0  0
  -27.0300  -20.2829   20.8724 H   0  0  0  0  0  0
  -31.7653  -19.2906   19.9535 H   0  0  0  0  0  0
  -27.0903  -24.7636   20.6474 H   0  0  0  0  0  0
  -27.6440  -24.8141   18.9889 H   0  0  0  0  0  0
  -29.3959  -23.8593   21.2965 H   0  0  0  0  0  0
  -29.7888  -23.8754   19.5818 H   0  0  0  0  0  0
  -32.0025  -21.4242   19.0770 H   0  0  0  0  0  0
  -30.7652  -22.5568   19.0232 H   0  0  0  0  0  0
  -29.0011  -15.7947   20.5274 H   0  0  0  0  0  0
  1 25  1  0  0  0
  1 30  2  0  0  0
  1 81  1  0  0  0
  2  3  1  0  0  0
  2 25  1  0  0  0
  2 84  1  0  0  0
  2 85  1  0  0  0
  3  4  1  0  0  0
  3 86  1  0  0  0
  3 87  1  0  0  0
  4  5  1  0  0  0
  4 88  1  0  0  0
  4 89  1  0  0  0
  5  6  1  0  0  0
  5 26  1  0  0  0
  5 90  1  0  0  0
  6 25  1  0  0  0
  6 91  1  0  0  0
  6 92  1  0  0  0
  7  8  2  0  0  0
  7 26  1  0  0  0
  7 29  1  0  0  0
  8  9  1  0  0  0
  8 22  1  0  0  0
  9 10  1  0  0  0
  9 27  2  0  0  0
 10 11  2  0  0  0
 10 15  1  0  0  0
 11 12  1  0  0  0
 11 93  1  0  0  0
 12 13  2  0  0  0
 12 94  1  0  0  0
 13 14  1  0  0  0
 13 31  1  0  0  0
 14 15  2  0  0  0
 14 95  1  0  0  0
 15 96  1  0  0  0
 16 17  2  0  0  0
 16 21  1  0  0  0
 16 31  1  0  0  0
 17 18  1  0  0  0
 17 97  1  0  0  0
 18 19  2  0  0  0
 18 98  1  0  0  0
 19 20  1  0  0  0
 19 24  1  0  0  0
 20 21  2  0  0  0
 20 99  1  0  0  0
 21 23  1  0  0  0
 22 28  1  0  0  0
 22 32  2  0  0  0
 26 27  1  0  0  0
 28100  1  0  0  0
 28101  1  0  0  0
 29102  1  0  0  0
 29103  1  0  0  0
 33 34  1  0  0  0
 33 66  1  0  0  0
 33 70  2  0  0  0
 34 36  1  0  0  0
 34 59  1  0  0  0
 34104  1  0  0  0
 35 44  2  0  0  0
 35 45  1  0  0  0
 35 68  1  0  0  0
 36 56  1  0  0  0
 36105  1  0  0  0
 37 39  1  0  0  0
 37 47  1  0  0  0
 37 66  1  0  0  0
 37106  1  0  0  0
 38 43  2  0  0  0
 38 46  1  0  0  0
 38 47  1  0  0  0
 39 64  1  0  0  0
 39 67  2  0  0  0
 40 52  1  0  0  0
 40 53  2  0  0  0
 40 58  1  0  0  0
 41107  1  0  0  0
 41108  1  0  0  0
 41109  1  0  0  0
 41 48  1  0  0  0
 42 43  1  0  0  0
 42 66  1  0  0  0
 42110  1  0  0  0
 42111  1  0  0  0
 43 44  1  0  0  0
 44112  1  0  0  0
 45 46  2  0  0  0
 45113  1  0  0  0
 46114  1  0  0  0
 47115  1  0  0  0
 47116  1  0  0  0
 48 56  1  0  0  0
 48 65  1  0  0  0
 48117  1  0  0  0
 49 50  1  0  0  0
 49 53  1  0  0  0
 49 64  1  0  0  0
 49118  1  0  0  0
 50 51  1  0  0  0
 50119  1  0  0  0
 50120  1  0  0  0
 51 52  1  0  0  0
 51121  1  0  0  0
 51122  1  0  0  0
 52123  1  0  0  0
 52124  1  0  0  0
 53 54  1  0  0  0
 54 55  2  0  0  0
 54125  1  0  0  0
 55 57  1  0  0  0
 55126  1  0  0  0
 56 69  2  0  0  0
 57 58  2  0  0  0
 57127  1  0  0  0
 58128  1  0  0  0
 59 60  1  0  0  0
 59 61  1  0  0  0
 59 62  1  0  0  0
 60129  1  0  0  0
 60130  1  0  0  0
 60131  1  0  0  0
 61132  1  0  0  0
 61133  1  0  0  0
 61134  1  0  0  0
 62135  1  0  0  0
 62136  1  0  0  0
 62137  1  0  0  0
 63 65  1  0  0  0
 63138  1  0  0  0
 63139  1  0  0  0
 63140  1  0  0  0
 64141  1  0  0  0
 65142  1  0  0  0
 68 78  1  0  0  0
 71 72  2  0  0  0
 71 74  1  0  0  0
 71143  1  0  0  0
 72 76  1  0  0  0
 72144  1  0  0  0
 73 74  2  0  0  0
 73 75  1  0  0  0
 73145  1  0  0  0
 74 77  1  0  0  0
 75 76  2  0  0  0
 75 80  1  0  0  0
 76 83  1  0  0  0
 77 81  1  0  0  0
 77 82  2  0  0  0
 78 79  1  0  0  0
 78146  1  0  0  0
 78147  1  0  0  0
 79 83  1  0  0  0
 79148  1  0  0  0
 79149  1  0  0  0
 80150  1  0  0  0
 80151  1  0  0  0
 81152  1  0  0  0
M  ISO  4   1 100  68 101  78 101  81 100
M  END
> <chiral flag>
0

> <version>
0

> <s_m_source_file>
/data/baiqing/PycharmProjects/Reinvent-master-3.2/result/LINK_invent/BTK/process_docking_weight1_custom_product_contain_oxygen_bond_distance_aromatic_linkinvent_7_9_3/rearranged_h_0087.sdf

> <i_m_source_file_index>
35

> <r_mmod_Potential_Energy-OPLS-2005>
5.63725662231445

> <r_mmod_Stretch_Energy-OPLS-2005>
83.6613159179688

> <r_mmod_Bend_Energy-OPLS-2005>
172.836929321289

> <r_mmod_Torsional_Energy-OPLS-2005>
238.247604370117

> <r_mmod_Improper_Torsional_Energy-OPLS-2005>
11.0228090286255

> <r_mmod_Van_der_Waal_Energy-OPLS-2005>
166.725143432617

> <r_mmod_Electrostatic_Energy-OPLS-2005>
-487.866424560547

> <r_mmod_Solvation_Energy-OPLS-2005>
-239.389755249023

> <b_mmod_Minimization_Converged-OPLS-2005>
0

> <r_mmod_RMS_Derivative-OPLS-2005>
2.30067896842957

$$$$
35
                    3D
 Structure written by MMmdl.
152161  0  0  1  0            999 V2000
  -30.5624  -14.7553   20.4739 C   0  0  0  0  0  0
  -30.4531  -12.4633   19.4598 C   0  0  0  0  0  0
  -29.5170  -12.5185   18.2306 C   0  0  0  0  0  0
  -28.0417  -12.3339   18.6450 C   0  0  0  0  0  0
  -27.6495  -13.2200   19.8551 C   0  0  2  0  0  0
  -28.6957  -13.1161   20.9866 C   0  0  0  0  0  0
  -25.2539  -13.8172   20.5668 C   0  0  0  0  0  0
  -24.1818  -13.0442   20.9216 C   0  0  0  0  0  0
  -24.6389  -11.6914   20.8760 C   0  0  0  0  0  0
  -23.9059  -10.4296   21.0413 C   0  0  0  0  0  0
  -24.3611   -9.4208   21.9183 C   0  0  0  0  0  0
  -23.6285   -8.2246   22.0752 C   0  0  0  0  0  0
  -22.4262   -8.0285   21.3553 C   0  0  0  0  0  0
  -21.9898   -9.0257   20.4654 C   0  0  0  0  0  0
  -22.7232  -10.2134   20.3061 C   0  0  0  0  0  0
  -21.6851   -6.0726   22.5272 C   0  0  0  0  0  0
  -21.4013   -6.5628   23.8206 C   0  0  0  0  0  0
  -21.3665   -5.6783   24.9168 C   0  0  0  0  0  0
  -21.6044   -4.3046   24.7220 C   0  0  0  0  0  0
  -21.8821   -3.8140   23.4341 C   0  0  0  0  0  0
  -21.9195   -4.6955   22.3397 C   0  0  0  0  0  0
  -22.7835  -13.5226   21.1864 C   0  0  0  0  0  0
  -22.1663   -4.2143   21.0976 F   0  0  0  0  0  0
  -21.5632   -3.4528   25.7738 F   0  0  0  0  0  0
  -29.9997  -13.4972   20.4169 N   0  0  0  0  0  0
  -26.2967  -12.9352   20.3279 N   0  0  0  0  0  0
  -25.9312  -11.6509   20.5754 N   0  0  0  0  0  0
  -22.0452  -12.8233   22.0416 N   0  0  0  0  0  0
  -25.4218  -15.1892   20.3982 N   0  0  0  0  0  0
  -31.7381  -14.9302   20.1373 O   0  0  0  0  0  0
  -21.6635   -6.8873   21.4240 O   0  0  0  0  0  0
  -22.3531  -14.5526   20.6695 O   0  0  0  0  0  0
  -24.6307  -31.8569   23.1978 C   0  0  0  0  0  0
  -25.9128  -32.4782   23.8330 C   0  0  1  0  0  0
  -27.2356  -27.2767   20.1307 C   0  0  0  0  0  0
  -25.5917  -33.8573   24.2267 N   0  0  0  0  0  0
  -23.4294  -30.4770   21.5401 C   0  0  2  0  0  0
  -24.8825  -28.9192   20.1169 C   0  0  0  0  0  0
  -22.7509  -29.4617   22.4916 C   0  0  0  0  0  0
  -18.0299  -28.1426   22.8502 C   0  0  0  0  0  0
  -24.1480  -36.7286   23.2629 C   0  0  0  0  0  0
  -25.9731  -30.7757   21.3721 C   0  0  0  0  0  0
  -26.0540  -29.3936   20.7246 C   0  0  0  0  0  0
  -27.2358  -28.5833   20.7252 C   0  0  0  0  0  0
  -26.0431  -26.8612   19.5052 C   0  0  0  0  0  0
  -24.8799  -27.6575   19.5001 C   0  0  0  0  0  0
  -23.6513  -29.8055   20.1587 C   0  0  0  0  0  0
  -25.4108  -36.3094   24.0329 C   0  0  1  0  0  0
  -20.5907  -28.3732   23.1283 C   0  0  2  0  0  0
  -20.6781  -26.9442   22.5423 C   0  0  0  0  0  0
  -19.5756  -26.6423   21.5223 C   0  0  0  0  0  0
  -18.1939  -26.7973   22.1634 C   0  0  0  0  0  0
  -19.1555  -28.8893   23.2893 C   0  0  0  0  0  0
  -18.9472  -30.1486   23.8929 C   0  0  0  0  0  0
  -17.6474  -30.6611   24.0586 C   0  0  0  0  0  0
  -25.9060  -34.9462   23.5117 C   0  0  0  0  0  0
  -16.5368  -29.9126   23.6323 C   0  0  0  0  0  0
  -16.7286  -28.6538   23.0353 C   0  0  0  0  0  0
  -26.4492  -31.6586   25.0704 C   0  0  0  0  0  0
  -25.3712  -31.3733   26.1432 C   0  0  0  0  0  0
  -27.0291  -30.2997   24.6141 C   0  0  0  0  0  0
  -27.6084  -32.4278   25.7463 C   0  0  0  0  0  0
  -27.5600  -37.1785   24.8447 C   0  0  0  0  0  0
  -21.4218  -29.3075   22.3661 N   0  0  0  0  0  0
  -26.4279  -37.3805   23.9442 N   0  0  0  0  0  0
  -24.6974  -31.0540   22.0942 N   0  0  0  0  0  0
  -23.4199  -28.8159   23.3020 O   0  0  0  0  0  0
  -28.3013  -26.3520   20.1204 O   0  0  0  0  0  0
  -26.5649  -34.8939   22.4695 O   0  0  0  0  0  0
  -23.5460  -32.1373   23.7282 O   0  0  0  0  0  0
  -28.2080  -19.3407   20.7756 C   0  0  0  0  0  0
  -28.3839  -17.9215   20.7486 C   0  0  0  0  0  0
  -30.7482  -18.1951   20.5420 C   0  0  0  0  0  0
  -29.2927  -20.2569   20.7115 C   0  0  0  0  0  0
  -29.6525  -17.2809   20.6526 C   0  0  0  0  0  0
  -30.5753  -19.6323   20.5810 C   0  0  0  0  0  0
  -28.6026  -24.0061   21.2504 C   0  0  0  0  0  0
  -28.5354  -23.4135   22.5790 C   0  0  0  0  0  0
  -28.9600  -22.8685   20.3379 C   0  0  0  0  0  0
  -28.3229  -25.3748   21.1415 C   0  0  0  0  0  0
  -28.8233  -21.9331   22.4952 C   0  0  0  0  0  0
  -29.0805  -21.6852   21.0771 N   0  0  0  0  0  0
  -29.6797  -15.7919   20.7370 N   0  0  0  0  0  0
  -28.2922  -23.9836   23.6503 O   0  0  0  0  0  0
  -29.1240  -22.9352   19.1135 O   0  0  0  0  0  0
  -31.6776  -20.4205   20.5664 F   0  0  0  0  0  0
  -31.4867  -12.6248   19.1467 H   0  0  0  0  0  0
  -30.4290  -11.4748   19.9230 H   0  0  0  0  0  0
  -29.7976  -11.7545   17.5048 H   0  0  0  0  0  0
  -29.6375  -13.4780   17.7271 H   0  0  0  0  0  0
  -27.8966  -11.2838   18.8965 H   0  0  0  0  0  0
  -27.3850  -12.5366   17.7985 H   0  0  0  0  0  0
  -27.6522  -14.2458   19.4879 H   0  0  0  0  0  0
  -28.7344  -12.1013   21.3842 H   0  0  0  0  0  0
  -28.4236  -13.7537   21.8297 H   0  0  0  0  0  0
  -25.2749   -9.5682   22.4764 H   0  0  0  0  0  0
  -23.9998   -7.4625   22.7464 H   0  0  0  0  0  0
  -21.0831   -8.8779   19.8952 H   0  0  0  0  0  0
  -22.3689  -10.9674   19.6181 H   0  0  0  0  0  0
  -21.1994   -7.6133   23.9711 H   0  0  0  0  0  0
  -21.1487   -6.0507   25.9074 H   0  0  0  0  0  0
  -22.0594   -2.7602   23.2847 H   0  0  0  0  0  0
  -22.4017  -11.9900   22.4847 H   0  0  0  0  0  0
  -21.1067  -13.1293   22.2570 H   0  0  0  0  0  0
  -24.6368  -15.8280   20.4595 H   0  0  0  0  0  0
  -26.2304  -15.6055   19.9548 H   0  0  0  0  0  0
  -26.7206  -32.5461   23.1089 H   0  0  0  0  0  0
  -25.0017  -33.9695   25.0381 H   0  0  0  0  0  0
  -22.7246  -31.2985   21.3920 H   0  0  0  0  0  0
  -23.3787  -35.9568   23.3226 H   0  0  0  0  0  0
  -24.3579  -36.8968   22.2054 H   0  0  0  0  0  0
  -23.7162  -37.6439   23.6688 H   0  0  0  0  0  0
  -26.0956  -31.5285   20.5925 H   0  0  0  0  0  0
  -26.8554  -30.8431   21.9961 H   0  0  0  0  0  0
  -28.1344  -28.9428   21.2067 H   0  0  0  0  0  0
  -26.0073  -25.8865   19.0388 H   0  0  0  0  0  0
  -23.9825  -27.2843   19.0268 H   0  0  0  0  0  0
  -23.7795  -30.5793   19.4006 H   0  0  0  0  0  0
  -22.7697  -29.2405   19.8514 H   0  0  0  0  0  0
  -25.1262  -36.1951   25.0815 H   0  0  0  0  0  0
  -21.0004  -28.3323   24.1402 H   0  0  0  0  0  0
  -20.5690  -26.2331   23.3626 H   0  0  0  0  0  0
  -21.6651  -26.7469   22.1217 H   0  0  0  0  0  0
  -19.6901  -25.6338   21.1243 H   0  0  0  0  0  0
  -19.6688  -27.3239   20.6757 H   0  0  0  0  0  0
  -17.4199  -26.6741   21.4040 H   0  0  0  0  0  0
  -18.0325  -26.0110   22.9022 H   0  0  0  0  0  0
  -19.7948  -30.7301   24.2311 H   0  0  0  0  0  0
  -17.5026  -31.6286   24.5211 H   0  0  0  0  0  0
  -15.5369  -30.3044   23.7625 H   0  0  0  0  0  0
  -15.8683  -28.0863   22.7064 H   0  0  0  0  0  0
  -24.5914  -30.7043   25.7770 H   0  0  0  0  0  0
  -24.8875  -32.2900   26.4824 H   0  0  0  0  0  0
  -25.8040  -30.8948   27.0229 H   0  0  0  0  0  0
  -26.2830  -29.6787   24.1176 H   0  0  0  0  0  0
  -27.3989  -29.7225   25.4629 H   0  0  0  0  0  0
  -27.8712  -30.4265   23.9329 H   0  0  0  0  0  0
  -27.2757  -33.3618   26.2003 H   0  0  0  0  0  0
  -28.3919  -32.6751   25.0282 H   0  0  0  0  0  0
  -28.0715  -31.8398   26.5401 H   0  0  0  0  0  0
  -28.2560  -38.0146   24.7626 H   0  0  0  0  0  0
  -28.1155  -36.2696   24.6094 H   0  0  0  0  0  0
  -27.2345  -37.1224   25.8849 H   0  0  0  0  0  0
  -20.9411  -29.8786   21.6855 H   0  0  0  0  0  0
  -26.0162  -38.2858   24.1532 H   0  0  0  0  0  0
  -27.2075  -19.7267   20.9126 H   0  0  0  0  0  0
  -27.4942  -17.3153   20.8456 H   0  0  0  0  0  0
  -31.7533  -17.8022   20.4792 H   0  0  0  0  0  0
  -28.0793  -25.8919   22.0610 H   0  0  0  0  0  0
  -27.9664  -21.3636   22.8560 H   0  0  0  0  0  0
  -29.6974  -21.6839   23.0966 H   0  0  0  0  0  0
  -28.7755  -15.4070   20.9655 H   0  0  0  0  0  0
  1 25  1  0  0  0
  1 30  2  0  0  0
  1 83  1  0  0  0
  2  3  1  0  0  0
  2 25  1  0  0  0
  2 87  1  0  0  0
  2 88  1  0  0  0
  3  4  1  0  0  0
  3 89  1  0  0  0
  3 90  1  0  0  0
  4  5  1  0  0  0
  4 91  1  0  0  0
  4 92  1  0  0  0
  5  6  1  0  0  0
  5 26  1  0  0  0
  5 93  1  0  0  0
  6 25  1  0  0  0
  6 94  1  0  0  0
  6 95  1  0  0  0
  7  8  2  0  0  0
  7 26  1  0  0  0
  7 29  1  0  0  0
  8  9  1  0  0  0
  8 22  1  0  0  0
  9 10  1  0  0  0
  9 27  2  0  0  0
 10 11  2  0  0  0
 10 15  1  0  0  0
 11 12  1  0  0  0
 11 96  1  0  0  0
 12 13  2  0  0  0
 12 97  1  0  0  0
 13 14  1  0  0  0
 13 31  1  0  0  0
 14 15  2  0  0  0
 14 98  1  0  0  0
 15 99  1  0  0  0
 16 17  2  0  0  0
 16 21  1  0  0  0
 16 31  1  0  0  0
 17 18  1  0  0  0
 17100  1  0  0  0
 18 19  2  0  0  0
 18101  1  0  0  0
 19 20  1  0  0  0
 19 24  1  0  0  0
 20 21  2  0  0  0
 20102  1  0  0  0
 21 23  1  0  0  0
 22 28  1  0  0  0
 22 32  2  0  0  0
 26 27  1  0  0  0
 28103  1  0  0  0
 28104  1  0  0  0
 29105  1  0  0  0
 29106  1  0  0  0
 33 34  1  0  0  0
 33 66  1  0  0  0
 33 70  2  0  0  0
 34 36  1  0  0  0
 34 59  1  0  0  0
 34107  1  0  0  0
 35 44  2  0  0  0
 35 45  1  0  0  0
 35 68  1  0  0  0
 36 56  1  0  0  0
 36108  1  0  0  0
 37 39  1  0  0  0
 37 47  1  0  0  0
 37 66  1  0  0  0
 37109  1  0  0  0
 38 43  2  0  0  0
 38 46  1  0  0  0
 38 47  1  0  0  0
 39 64  1  0  0  0
 39 67  2  0  0  0
 40 52  1  0  0  0
 40 53  2  0  0  0
 40 58  1  0  0  0
 41110  1  0  0  0
 41111  1  0  0  0
 41112  1  0  0  0
 41 48  1  0  0  0
 42 43  1  0  0  0
 42 66  1  0  0  0
 42113  1  0  0  0
 42114  1  0  0  0
 43 44  1  0  0  0
 44115  1  0  0  0
 45 46  2  0  0  0
 45116  1  0  0  0
 46117  1  0  0  0
 47118  1  0  0  0
 47119  1  0  0  0
 48 56  1  0  0  0
 48 65  1  0  0  0
 48120  1  0  0  0
 49 50  1  0  0  0
 49 53  1  0  0  0
 49 64  1  0  0  0
 49121  1  0  0  0
 50 51  1  0  0  0
 50122  1  0  0  0
 50123  1  0  0  0
 51 52  1  0  0  0
 51124  1  0  0  0
 51125  1  0  0  0
 52126  1  0  0  0
 52127  1  0  0  0
 53 54  1  0  0  0
 54 55  2  0  0  0
 54128  1  0  0  0
 55 57  1  0  0  0
 55129  1  0  0  0
 56 69  2  0  0  0
 57 58  2  0  0  0
 57130  1  0  0  0
 58131  1  0  0  0
 59 60  1  0  0  0
 59 61  1  0  0  0
 59 62  1  0  0  0
 60132  1  0  0  0
 60133  1  0  0  0
 60134  1  0  0  0
 61135  1  0  0  0
 61136  1  0  0  0
 61137  1  0  0  0
 62138  1  0  0  0
 62139  1  0  0  0
 62140  1  0  0  0
 63 65  1  0  0  0
 63141  1  0  0  0
 63142  1  0  0  0
 63143  1  0  0  0
 64144  1  0  0  0
 65145  1  0  0  0
 68 80  1  0  0  0
 71 72  2  0  0  0
 71 74  1  0  0  0
 71146  1  0  0  0
 72 75  1  0  0  0
 72147  1  0  0  0
 73 75  2  0  0  0
 73 76  1  0  0  0
 73148  1  0  0  0
 74 76  2  0  0  0
 74 82  1  0  0  0
 75 83  1  0  0  0
 76 86  1  0  0  0
 77 78  1  0  0  0
 77 79  1  0  0  0
 77 80  2  0  0  0
 78 81  1  0  0  0
 78 84  2  0  0  0
 79 82  1  0  0  0
 79 85  2  0  0  0
 80149  1  0  0  0
 81 82  1  0  0  0
 81150  1  0  0  0
 81151  1  0  0  0
 83152  1  0  0  0
M  ISO  4   1 100  68 101  80 101  83 100
M  END
> <chiral flag>
0

> <version>
0

> <s_m_source_file>
/data/baiqing/PycharmProjects/Reinvent-master-3.2/result/LINK_invent/BTK/process_docking_weight1_custom_product_contain_oxygen_bond_distance_aromatic_linkinvent_7_9_3/rearranged_h_0087.sdf

> <i_m_source_file_index>
36

> <r_mmod_Potential_Energy-OPLS-2005>
280.198608398438

> <r_mmod_Stretch_Energy-OPLS-2005>
112.381683349609

> <r_mmod_Bend_Energy-OPLS-2005>
260.190368652344

> <r_mmod_Torsional_Energy-OPLS-2005>
301.230712890625

> <r_mmod_Improper_Torsional_Energy-OPLS-2005>
7.79251050949097

> <r_mmod_Van_der_Waal_Energy-OPLS-2005>
125.019226074219

> <r_mmod_Electrostatic_Energy-OPLS-2005>
-373.0458984375

> <r_mmod_Solvation_Energy-OPLS-2005>
-239.428329467773

> <b_mmod_Minimization_Converged-OPLS-2005>
0

> <r_mmod_RMS_Derivative-OPLS-2005>
2.17042231559753

$$$$
36
                    3D
 Structure written by MMmdl.
151159  0  0  1  0            999 V2000
  -30.6689  -14.5349   20.5259 C   0  0  0  0  0  0
  -30.4284  -12.3294   19.4411 C   0  0  0  0  0  0
  -29.5016  -12.4969   18.2171 C   0  0  0  0  0  0
  -28.0230  -12.3503   18.6286 C   0  0  0  0  0  0
  -27.6589  -13.2084   19.8698 C   0  0  2  0  0  0
  -28.7008  -13.0187   20.9958 C   0  0  0  0  0  0
  -25.2592  -13.8160   20.5698 C   0  0  0  0  0  0
  -24.1842  -13.0437   20.9186 C   0  0  0  0  0  0
  -24.6398  -11.6903   20.8743 C   0  0  0  0  0  0
  -23.9073  -10.4290   21.0417 C   0  0  0  0  0  0
  -24.3619   -9.4198   21.9194 C   0  0  0  0  0  0
  -23.6281   -8.2239   22.0759 C   0  0  0  0  0  0
  -22.4262   -8.0291   21.3550 C   0  0  0  0  0  0
  -21.9910   -9.0272   20.4650 C   0  0  0  0  0  0
  -22.7253  -10.2140   20.3058 C   0  0  0  0  0  0
  -21.6846   -6.0750   22.5289 C   0  0  0  0  0  0
  -21.4010   -6.5655   23.8226 C   0  0  0  0  0  0
  -21.3650   -5.6802   24.9190 C   0  0  0  0  0  0
  -21.6037   -4.3064   24.7233 C   0  0  0  0  0  0
  -21.8815   -3.8158   23.4353 C   0  0  0  0  0  0
  -21.9187   -4.6978   22.3410 C   0  0  0  0  0  0
  -22.7867  -13.5241   21.1844 C   0  0  0  0  0  0
  -22.1654   -4.2166   21.0985 F   0  0  0  0  0  0
  -21.5625   -3.4540   25.7741 F   0  0  0  0  0  0
  -30.0280  -13.3328   20.4420 N   0  0  0  0  0  0
  -26.3015  -12.9328   20.3344 N   0  0  0  0  0  0
  -25.9324  -11.6492   20.5762 N   0  0  0  0  0  0
  -22.0487  -12.8245   22.0390 N   0  0  0  0  0  0
  -25.4348  -15.1880   20.4165 N   0  0  0  0  0  0
  -31.8199  -14.6855   20.1085 O   0  0  0  0  0  0
  -21.6623   -6.8892   21.4249 O   0  0  0  0  0  0
  -22.3565  -14.5559   20.6703 O   0  0  0  0  0  0
  -24.6196  -31.8644   23.2067 C   0  0  0  0  0  0
  -25.9078  -32.4797   23.8376 C   0  0  1  0  0  0
  -27.2334  -27.4043   20.1034 C   0  0  0  0  0  0
  -25.5926  -33.8595   24.2316 N   0  0  0  0  0  0
  -23.4104  -30.4877   21.5466 C   0  0  2  0  0  0
  -24.8598  -28.9498   20.1099 C   0  0  0  0  0  0
  -22.7444  -29.4645   22.4961 C   0  0  0  0  0  0
  -18.0270  -28.1382   22.8483 C   0  0  0  0  0  0
  -24.1489  -36.7302   23.2637 C   0  0  0  0  0  0
  -25.9425  -30.8215   21.3639 C   0  0  0  0  0  0
  -26.0221  -29.4538   20.7103 C   0  0  0  0  0  0
  -27.2158  -28.6881   20.7060 C   0  0  0  0  0  0
  -26.0585  -26.9256   19.4903 C   0  0  0  0  0  0
  -24.8739  -27.6860   19.4951 C   0  0  0  0  0  0
  -23.6217  -29.8191   20.1612 C   0  0  0  0  0  0
  -25.4105  -36.3095   24.0343 C   0  0  1  0  0  0
  -20.5870  -28.3673   23.1305 C   0  0  2  0  0  0
  -20.6760  -26.9403   22.5417 C   0  0  0  0  0  0
  -19.5736  -26.6385   21.5216 C   0  0  0  0  0  0
  -18.1914  -26.7920   22.1622 C   0  0  0  0  0  0
  -19.1523  -28.8842   23.2889 C   0  0  0  0  0  0
  -18.9451  -30.1452   23.8892 C   0  0  0  0  0  0
  -17.6453  -30.6585   24.0563 C   0  0  0  0  0  0
  -25.9046  -34.9467   23.5125 C   0  0  0  0  0  0
  -16.5340  -29.9086   23.6333 C   0  0  0  0  0  0
  -16.7261  -28.6511   23.0335 C   0  0  0  0  0  0
  -26.4487  -31.6570   25.0712 C   0  0  0  0  0  0
  -25.3762  -31.3694   26.1478 C   0  0  0  0  0  0
  -27.0295  -30.2999   24.6094 C   0  0  0  0  0  0
  -27.6074  -32.4275   25.7464 C   0  0  0  0  0  0
  -27.5584  -37.1793   24.8457 C   0  0  0  0  0  0
  -21.4165  -29.3036   22.3707 N   0  0  0  0  0  0
  -26.4275  -37.3797   23.9437 N   0  0  0  0  0  0
  -24.6760  -31.0723   22.0975 N   0  0  0  0  0  0
  -23.4202  -28.8185   23.3015 O   0  0  0  0  0  0
  -28.3283  -26.5623   20.1520 O   0  0  0  0  0  0
  -26.5607  -34.8926   22.4685 O   0  0  0  0  0  0
  -23.5383  -32.1406   23.7445 O   0  0  0  0  0  0
  -31.0743  -18.9923   19.7286 C   0  0  0  0  0  0
  -28.8673  -19.2010   20.6882 C   0  0  0  0  0  0
  -31.1021  -17.6147   20.0547 C   0  0  0  0  0  0
  -28.8927  -17.8172   21.0144 C   0  0  0  0  0  0
  -29.9567  -19.8125   20.0205 C   0  0  0  0  0  0
  -29.9951  -16.9880   20.6819 C   0  0  0  0  0  0
  -28.5811  -24.2691   21.0933 C   0  0  0  0  0  0
  -28.2349  -25.5868   21.1319 C   0  0  0  0  0  0
  -29.9159  -21.2453   19.4966 C   0  0  0  0  0  0
  -29.1644  -23.5324   19.9708 C   0  0  0  0  0  0
  -29.9087  -15.5711   20.9663 N   0  0  0  0  0  0
  -29.3317  -22.2081   20.2543 N   0  0  0  0  0  0
  -30.4657  -21.4678   18.4110 O   0  0  0  0  0  0
  -29.4673  -24.0608   18.8949 O   0  0  0  0  0  0
  -31.4735  -12.4289   19.1435 H   0  0  0  0  0  0
  -30.3348  -11.3262   19.8598 H   0  0  0  0  0  0
  -29.7505  -11.7586   17.4536 H   0  0  0  0  0  0
  -29.6612  -13.4749   17.7604 H   0  0  0  0  0  0
  -27.8487  -11.2966   18.8474 H   0  0  0  0  0  0
  -27.3698  -12.5968   17.7912 H   0  0  0  0  0  0
  -27.6931  -14.2508   19.5521 H   0  0  0  0  0  0
  -28.6855  -11.9877   21.3526 H   0  0  0  0  0  0
  -28.4569  -13.6326   21.8640 H   0  0  0  0  0  0
  -25.2770   -9.5661   22.4770 H   0  0  0  0  0  0
  -23.9984   -7.4625   22.7480 H   0  0  0  0  0  0
  -21.0840   -8.8807   19.8954 H   0  0  0  0  0  0
  -22.3734  -10.9684   19.6158 H   0  0  0  0  0  0
  -21.1999   -7.6163   23.9739 H   0  0  0  0  0  0
  -21.1475   -6.0532   25.9095 H   0  0  0  0  0  0
  -22.0597   -2.7622   23.2851 H   0  0  0  0  0  0
  -22.4066  -11.9885   22.4761 H   0  0  0  0  0  0
  -21.1114  -13.1301   22.2598 H   0  0  0  0  0  0
  -24.6752  -15.8480   20.5400 H   0  0  0  0  0  0
  -26.2931  -15.6258   20.1058 H   0  0  0  0  0  0
  -26.7151  -32.5496   23.1140 H   0  0  0  0  0  0
  -25.0105  -33.9736   25.0482 H   0  0  0  0  0  0
  -22.7014  -31.3065   21.4047 H   0  0  0  0  0  0
  -23.3766  -35.9612   23.3243 H   0  0  0  0  0  0
  -24.3618  -36.8973   22.2064 H   0  0  0  0  0  0
  -23.7206  -37.6479   23.6681 H   0  0  0  0  0  0
  -26.0596  -31.5847   20.5935 H   0  0  0  0  0  0
  -26.8301  -30.8756   21.9821 H   0  0  0  0  0  0
  -28.1085  -29.0617   21.1885 H   0  0  0  0  0  0
  -26.0588  -25.9468   19.0313 H   0  0  0  0  0  0
  -23.9810  -27.2890   19.0319 H   0  0  0  0  0  0
  -23.7324  -30.5942   19.4020 H   0  0  0  0  0  0
  -22.7452  -29.2408   19.8629 H   0  0  0  0  0  0
  -25.1270  -36.1944   25.0830 H   0  0  0  0  0  0
  -20.9956  -28.3229   24.1429 H   0  0  0  0  0  0
  -20.5661  -26.2278   23.3607 H   0  0  0  0  0  0
  -21.6626  -26.7437   22.1207 H   0  0  0  0  0  0
  -19.6898  -25.6304   21.1223 H   0  0  0  0  0  0
  -19.6673  -27.3213   20.6761 H   0  0  0  0  0  0
  -17.4190  -26.6676   21.4015 H   0  0  0  0  0  0
  -18.0304  -26.0058   22.9011 H   0  0  0  0  0  0
  -19.7939  -30.7264   24.2241 H   0  0  0  0  0  0
  -17.5022  -31.6261   24.5168 H   0  0  0  0  0  0
  -15.5347  -30.2990   23.7671 H   0  0  0  0  0  0
  -15.8655  -28.0851   22.7024 H   0  0  0  0  0  0
  -24.5904  -30.7066   25.7838 H   0  0  0  0  0  0
  -24.8991  -32.2852   26.4972 H   0  0  0  0  0  0
  -25.8131  -30.8833   27.0209 H   0  0  0  0  0  0
  -26.2821  -29.6764   24.1170 H   0  0  0  0  0  0
  -27.4077  -29.7235   25.4549 H   0  0  0  0  0  0
  -27.8665  -30.4298   23.9231 H   0  0  0  0  0  0
  -27.2721  -33.3599   26.2014 H   0  0  0  0  0  0
  -28.3900  -32.6779   25.0289 H   0  0  0  0  0  0
  -28.0710  -31.8397   26.5395 H   0  0  0  0  0  0
  -28.2562  -38.0132   24.7574 H   0  0  0  0  0  0
  -28.1119  -36.2672   24.6172 H   0  0  0  0  0  0
  -27.2329  -37.1306   25.8864 H   0  0  0  0  0  0
  -20.9326  -29.8792   21.6954 H   0  0  0  0  0  0
  -26.0154  -38.2863   24.1476 H   0  0  0  0  0  0
  -31.9247  -19.4172   19.2132 H   0  0  0  0  0  0
  -27.9814  -19.7769   20.9163 H   0  0  0  0  0  0
  -31.9854  -17.0576   19.7815 H   0  0  0  0  0  0
  -28.0268  -17.3877   21.4996 H   0  0  0  0  0  0
  -28.3957  -23.7183   22.0040 H   0  0  0  0  0  0
  -27.8091  -25.9957   22.0388 H   0  0  0  0  0  0
  -29.0314  -15.2718   21.3632 H   0  0  0  0  0  0
  -29.0002  -21.8979   21.1530 H   0  0  0  0  0  0
  1 25  1  0  0  0
  1 30  2  0  0  0
  1 81  1  0  0  0
  2  3  1  0  0  0
  2 25  1  0  0  0
  2 85  1  0  0  0
  2 86  1  0  0  0
  3  4  1  0  0  0
  3 87  1  0  0  0
  3 88  1  0  0  0
  4  5  1  0  0  0
  4 89  1  0  0  0
  4 90  1  0  0  0
  5  6  1  0  0  0
  5 26  1  0  0  0
  5 91  1  0  0  0
  6 25  1  0  0  0
  6 92  1  0  0  0
  6 93  1  0  0  0
  7  8  2  0  0  0
  7 26  1  0  0  0
  7 29  1  0  0  0
  8  9  1  0  0  0
  8 22  1  0  0  0
  9 10  1  0  0  0
  9 27  2  0  0  0
 10 11  2  0  0  0
 10 15  1  0  0  0
 11 12  1  0  0  0
 11 94  1  0  0  0
 12 13  2  0  0  0
 12 95  1  0  0  0
 13 14  1  0  0  0
 13 31  1  0  0  0
 14 15  2  0  0  0
 14 96  1  0  0  0
 15 97  1  0  0  0
 16 17  2  0  0  0
 16 21  1  0  0  0
 16 31  1  0  0  0
 17 18  1  0  0  0
 17 98  1  0  0  0
 18 19  2  0  0  0
 18 99  1  0  0  0
 19 20  1  0  0  0
 19 24  1  0  0  0
 20 21  2  0  0  0
 20100  1  0  0  0
 21 23  1  0  0  0
 22 28  1  0  0  0
 22 32  2  0  0  0
 26 27  1  0  0  0
 28101  1  0  0  0
 28102  1  0  0  0
 29103  1  0  0  0
 29104  1  0  0  0
 33 34  1  0  0  0
 33 66  1  0  0  0
 33 70  2  0  0  0
 34 36  1  0  0  0
 34 59  1  0  0  0
 34105  1  0  0  0
 35 44  2  0  0  0
 35 45  1  0  0  0
 35 68  1  0  0  0
 36 56  1  0  0  0
 36106  1  0  0  0
 37 39  1  0  0  0
 37 47  1  0  0  0
 37 66  1  0  0  0
 37107  1  0  0  0
 38 43  2  0  0  0
 38 46  1  0  0  0
 38 47  1  0  0  0
 39 64  1  0  0  0
 39 67  2  0  0  0
 40 52  1  0  0  0
 40 53  2  0  0  0
 40 58  1  0  0  0
 41108  1  0  0  0
 41109  1  0  0  0
 41110  1  0  0  0
 41 48  1  0  0  0
 42 43  1  0  0  0
 42 66  1  0  0  0
 42111  1  0  0  0
 42112  1  0  0  0
 43 44  1  0  0  0
 44113  1  0  0  0
 45 46  2  0  0  0
 45114  1  0  0  0
 46115  1  0  0  0
 47116  1  0  0  0
 47117  1  0  0  0
 48 56  1  0  0  0
 48 65  1  0  0  0
 48118  1  0  0  0
 49 50  1  0  0  0
 49 53  1  0  0  0
 49 64  1  0  0  0
 49119  1  0  0  0
 50 51  1  0  0  0
 50120  1  0  0  0
 50121  1  0  0  0
 51 52  1  0  0  0
 51122  1  0  0  0
 51123  1  0  0  0
 52124  1  0  0  0
 52125  1  0  0  0
 53 54  1  0  0  0
 54 55  2  0  0  0
 54126  1  0  0  0
 55 57  1  0  0  0
 55127  1  0  0  0
 56 69  2  0  0  0
 57 58  2  0  0  0
 57128  1  0  0  0
 58129  1  0  0  0
 59 60  1  0  0  0
 59 61  1  0  0  0
 59 62  1  0  0  0
 60130  1  0  0  0
 60131  1  0  0  0
 60132  1  0  0  0
 61133  1  0  0  0
 61134  1  0  0  0
 61135  1  0  0  0
 62136  1  0  0  0
 62137  1  0  0  0
 62138  1  0  0  0
 63 65  1  0  0  0
 63139  1  0  0  0
 63140  1  0  0  0
 63141  1  0  0  0
 64142  1  0  0  0
 65143  1  0  0  0
 68 78  1  0  0  0
 71 73  2  0  0  0
 71 75  1  0  0  0
 71144  1  0  0  0
 72 74  1  0  0  0
 72 75  2  0  0  0
 72145  1  0  0  0
 73 76  1  0  0  0
 73146  1  0  0  0
 74 76  2  0  0  0
 74147  1  0  0  0
 75 79  1  0  0  0
 76 81  1  0  0  0
 77 78  2  0  0  0
 77 80  1  0  0  0
 77148  1  0  0  0
 78149  1  0  0  0
 79 82  1  0  0  0
 79 83  2  0  0  0
 80 82  1  0  0  0
 80 84  2  0  0  0
 81150  1  0  0  0
 82151  1  0  0  0
M  ISO  4   1 100  68 101  78 101  81 100
M  END
> <chiral flag>
0

> <version>
0

> <s_m_source_file>
/data/baiqing/PycharmProjects/Reinvent-master-3.2/result/LINK_invent/BTK/process_docking_weight1_custom_product_contain_oxygen_bond_distance_aromatic_linkinvent_7_9_3/rearranged_h_0087.sdf

> <i_m_source_file_index>
37

> <r_mmod_Potential_Energy-OPLS-2005>
-126.637298583984

> <r_mmod_Stretch_Energy-OPLS-2005>
47.7020263671875

> <r_mmod_Bend_Energy-OPLS-2005>
122.66480255127

> <r_mmod_Torsional_Energy-OPLS-2005>
235.770004272461

> <r_mmod_Improper_Torsional_Energy-OPLS-2005>
4.65158271789551

> <r_mmod_Van_der_Waal_Energy-OPLS-2005>
154.391845703125

> <r_mmod_Electrostatic_Energy-OPLS-2005>
-436.145172119141

> <r_mmod_Solvation_Energy-OPLS-2005>
-279.576538085938

> <b_mmod_Minimization_Converged-OPLS-2005>
0

> <r_mmod_RMS_Derivative-OPLS-2005>
1.27324020862579

$$$$
37
                    3D
 Structure written by MMmdl.
155164  0  0  1  0            999 V2000
  -30.7253  -14.5401   20.5222 C   0  0  0  0  0  0
  -30.4108  -12.3339   19.4515 C   0  0  0  0  0  0
  -29.4987  -12.5090   18.2204 C   0  0  0  0  0  0
  -28.0200  -12.3639   18.6278 C   0  0  0  0  0  0
  -27.6549  -13.2285   19.8651 C   0  0  2  0  0  0
  -28.6985  -13.0895   20.9948 C   0  0  0  0  0  0
  -25.2559  -13.8209   20.5712 C   0  0  0  0  0  0
  -24.1825  -13.0460   20.9184 C   0  0  0  0  0  0
  -24.6412  -11.6935   20.8734 C   0  0  0  0  0  0
  -23.9085  -10.4311   21.0400 C   0  0  0  0  0  0
  -24.3623   -9.4222   21.9188 C   0  0  0  0  0  0
  -23.6291   -8.2263   22.0766 C   0  0  0  0  0  0
  -22.4276   -8.0296   21.3544 C   0  0  0  0  0  0
  -21.9920   -9.0273   20.4645 C   0  0  0  0  0  0
  -22.7260  -10.2146   20.3048 C   0  0  0  0  0  0
  -21.6861   -6.0738   22.5279 C   0  0  0  0  0  0
  -21.4017   -6.5638   23.8211 C   0  0  0  0  0  0
  -21.3655   -5.6793   24.9172 C   0  0  0  0  0  0
  -21.6039   -4.3054   24.7227 C   0  0  0  0  0  0
  -21.8817   -3.8149   23.4346 C   0  0  0  0  0  0
  -21.9195   -4.6965   22.3400 C   0  0  0  0  0  0
  -22.7848  -13.5241   21.1844 C   0  0  0  0  0  0
  -22.1666   -4.2152   21.0978 F   0  0  0  0  0  0
  -21.5624   -3.4541   25.7738 F   0  0  0  0  0  0
  -30.0269  -13.3682   20.4317 N   0  0  0  0  0  0
  -26.3003  -12.9419   20.3350 N   0  0  0  0  0  0
  -25.9344  -11.6547   20.5762 N   0  0  0  0  0  0
  -22.0475  -12.8219   22.0373 N   0  0  0  0  0  0
  -25.4266  -15.1934   20.4162 N   0  0  0  0  0  0
  -31.8853  -14.5840   20.1021 O   0  0  0  0  0  0
  -21.6637   -6.8891   21.4242 O   0  0  0  0  0  0
  -22.3546  -14.5569   20.6721 O   0  0  0  0  0  0
  -24.6184  -31.8645   23.2086 C   0  0  0  0  0  0
  -25.9064  -32.4814   23.8394 C   0  0  1  0  0  0
  -27.2277  -27.4015   20.1090 C   0  0  0  0  0  0
  -25.5907  -33.8610   24.2327 N   0  0  0  0  0  0
  -23.4092  -30.4864   21.5485 C   0  0  2  0  0  0
  -24.8594  -28.9523   20.1104 C   0  0  0  0  0  0
  -22.7435  -29.4636   22.4983 C   0  0  0  0  0  0
  -18.0273  -28.1387   22.8499 C   0  0  0  0  0  0
  -24.1473  -36.7289   23.2631 C   0  0  0  0  0  0
  -25.9402  -30.8227   21.3675 C   0  0  0  0  0  0
  -26.0203  -29.4538   20.7151 C   0  0  0  0  0  0
  -27.2122  -28.6861   20.7128 C   0  0  0  0  0  0
  -26.0576  -26.9263   19.4890 C   0  0  0  0  0  0
  -24.8743  -27.6892   19.4918 C   0  0  0  0  0  0
  -23.6203  -29.8194   20.1636 C   0  0  0  0  0  0
  -25.4096  -36.3102   24.0341 C   0  0  1  0  0  0
  -20.5864  -28.3669   23.1319 C   0  0  2  0  0  0
  -20.6746  -26.9398   22.5427 C   0  0  0  0  0  0
  -19.5726  -26.6395   21.5211 C   0  0  0  0  0  0
  -18.1898  -26.7951   22.1597 C   0  0  0  0  0  0
  -19.1525  -28.8848   23.2899 C   0  0  0  0  0  0
  -18.9447  -30.1453   23.8914 C   0  0  0  0  0  0
  -17.6447  -30.6580   24.0583 C   0  0  0  0  0  0
  -25.9033  -34.9471   23.5135 C   0  0  0  0  0  0
  -16.5342  -29.9077   23.6344 C   0  0  0  0  0  0
  -16.7267  -28.6499   23.0366 C   0  0  0  0  0  0
  -26.4478  -31.6605   25.0741 C   0  0  0  0  0  0
  -25.3736  -31.3695   26.1487 C   0  0  0  0  0  0
  -27.0321  -30.3044   24.6147 C   0  0  0  0  0  0
  -27.6072  -32.4325   25.7481 C   0  0  0  0  0  0
  -27.5600  -37.1780   24.8446 C   0  0  0  0  0  0
  -21.4158  -29.3029   22.3730 N   0  0  0  0  0  0
  -26.4270  -37.3810   23.9450 N   0  0  0  0  0  0
  -24.6741  -31.0722   22.0998 N   0  0  0  0  0  0
  -23.4186  -28.8175   23.3046 O   0  0  0  0  0  0
  -28.3161  -26.5506   20.1432 O   0  0  0  0  0  0
  -26.5586  -34.8936   22.4697 O   0  0  0  0  0  0
  -23.5376  -32.1423   23.7467 O   0  0  0  0  0  0
  -28.9950  -18.5593   21.5828 C   0  0  0  0  0  0
  -28.6668  -19.9063   21.8819 C   0  0  0  0  0  0
  -30.1878  -20.6667   20.1701 C   0  0  0  0  0  0
  -29.9362  -18.2254   20.5800 C   0  0  0  0  0  0
  -29.2782  -20.9947   21.2035 C   0  0  0  0  0  0
  -30.5198  -19.3207   19.8603 C   0  0  0  0  0  0
  -28.7650  -24.6567   21.6916 C   0  0  0  0  0  0
  -28.8144  -23.4644   20.8319 C   0  0  0  0  0  0
  -29.2015  -22.7310   22.9255 C   0  0  0  0  0  0
  -30.3274  -16.7839   20.3107 C   0  0  0  0  0  0
  -28.5509  -25.9653   21.3718 C   0  0  0  0  0  0
  -28.9974  -24.2142   23.0979 C   0  0  0  0  0  0
  -30.0128  -15.6869   20.9338 N   0  0  0  0  0  0
  -29.0718  -22.3743   21.6282 N   0  0  0  0  0  0
  -31.4714  -19.1403   18.8485 N   0  0  0  0  0  0
  -28.6405  -23.4217   19.6081 O   0  0  0  0  0  0
  -29.4654  -21.9924   23.8825 O   0  0  0  0  0  0
  -31.4587  -12.3862   19.1529 H   0  0  0  0  0  0
  -30.2795  -11.3399   19.8835 H   0  0  0  0  0  0
  -29.7518  -11.7739   17.4546 H   0  0  0  0  0  0
  -29.6638  -13.4911   17.7729 H   0  0  0  0  0  0
  -27.8417  -11.3106   18.8439 H   0  0  0  0  0  0
  -27.3717  -12.6168   17.7871 H   0  0  0  0  0  0
  -27.6794  -14.2675   19.5352 H   0  0  0  0  0  0
  -28.6802  -12.0833   21.4176 H   0  0  0  0  0  0
  -28.4634  -13.7675   21.8174 H   0  0  0  0  0  0
  -25.2755   -9.5700   22.4780 H   0  0  0  0  0  0
  -23.9994   -7.4658   22.7497 H   0  0  0  0  0  0
  -21.0851   -8.8784   19.8953 H   0  0  0  0  0  0
  -22.3713  -10.9680   19.6161 H   0  0  0  0  0  0
  -21.2010   -7.6149   23.9717 H   0  0  0  0  0  0
  -21.1477   -6.0521   25.9072 H   0  0  0  0  0  0
  -22.0596   -2.7612   23.2844 H   0  0  0  0  0  0
  -22.4070  -11.9838   22.4686 H   0  0  0  0  0  0
  -21.1089  -13.1244   22.2576 H   0  0  0  0  0  0
  -24.6674  -15.8529   20.5416 H   0  0  0  0  0  0
  -26.2979  -15.6333   20.1479 H   0  0  0  0  0  0
  -26.7143  -32.5522   23.1166 H   0  0  0  0  0  0
  -25.0116  -33.9775   25.0508 H   0  0  0  0  0  0
  -22.6985  -31.3035   21.4063 H   0  0  0  0  0  0
  -23.3802  -35.9552   23.3200 H   0  0  0  0  0  0
  -24.3589  -36.9008   22.2073 H   0  0  0  0  0  0
  -23.7141  -37.6421   23.6715 H   0  0  0  0  0  0
  -26.0567  -31.5875   20.5985 H   0  0  0  0  0  0
  -26.8243  -30.8769   21.9911 H   0  0  0  0  0  0
  -28.1057  -29.0616   21.1915 H   0  0  0  0  0  0
  -26.0597  -25.9477   19.0315 H   0  0  0  0  0  0
  -23.9818  -27.2946   19.0276 H   0  0  0  0  0  0
  -23.7293  -30.5936   19.4034 H   0  0  0  0  0  0
  -22.7454  -29.2383   19.8682 H   0  0  0  0  0  0
  -25.1260  -36.1954   25.0832 H   0  0  0  0  0  0
  -20.9935  -28.3232   24.1448 H   0  0  0  0  0  0
  -20.5626  -26.2275   23.3623 H   0  0  0  0  0  0
  -21.6620  -26.7409   22.1242 H   0  0  0  0  0  0
  -19.6871  -25.6306   21.1240 H   0  0  0  0  0  0
  -19.6691  -27.3215   20.6757 H   0  0  0  0  0  0
  -17.4188  -26.6790   21.3967 H   0  0  0  0  0  0
  -18.0228  -26.0055   22.8941 H   0  0  0  0  0  0
  -19.7906  -30.7287   24.2299 H   0  0  0  0  0  0
  -17.4980  -31.6268   24.5169 H   0  0  0  0  0  0
  -15.5337  -30.2978   23.7664 H   0  0  0  0  0  0
  -15.8668  -28.0824   22.7080 H   0  0  0  0  0  0
  -24.5964  -30.6973   25.7825 H   0  0  0  0  0  0
  -24.8855  -32.2827   26.4902 H   0  0  0  0  0  0
  -25.8101  -30.8914   27.0264 H   0  0  0  0  0  0
  -26.2872  -29.6787   24.1220 H   0  0  0  0  0  0
  -27.4091  -29.7314   25.4625 H   0  0  0  0  0  0
  -27.8699  -30.4354   23.9299 H   0  0  0  0  0  0
  -27.2747  -33.3681   26.1987 H   0  0  0  0  0  0
  -28.3902  -32.6787   25.0295 H   0  0  0  0  0  0
  -28.0702  -31.8478   26.5440 H   0  0  0  0  0  0
  -28.2528  -38.0164   24.7625 H   0  0  0  0  0  0
  -28.1176  -36.2711   24.6069 H   0  0  0  0  0  0
  -27.2353  -37.1192   25.8846 H   0  0  0  0  0  0
  -20.9339  -29.8757   21.6955 H   0  0  0  0  0  0
  -26.0150  -38.2860   24.1555 H   0  0  0  0  0  0
  -28.5334  -17.7720   22.1619 H   0  0  0  0  0  0
  -27.9639  -20.0932   22.6816 H   0  0  0  0  0  0
  -30.6818  -21.4694   19.6409 H   0  0  0  0  0  0
  -30.9943  -16.7194   19.4451 H   0  0  0  0  0  0
  -28.5447  -26.7106   22.1549 H   0  0  0  0  0  0
  -28.1343  -24.4187   23.7310 H   0  0  0  0  0  0
  -29.8840  -24.6844   23.5201 H   0  0  0  0  0  0
  -32.0066  -19.9460   18.5382 H   0  0  0  0  0  0
  -32.0234  -18.2895   18.8291 H   0  0  0  0  0  0
  1 25  1  0  0  0
  1 30  2  0  0  0
  1 83  1  0  0  0
  2  3  1  0  0  0
  2 25  1  0  0  0
  2 88  1  0  0  0
  2 89  1  0  0  0
  3  4  1  0  0  0
  3 90  1  0  0  0
  3 91  1  0  0  0
  4  5  1  0  0  0
  4 92  1  0  0  0
  4 93  1  0  0  0
  5  6  1  0  0  0
  5 26  1  0  0  0
  5 94  1  0  0  0
  6 25  1  0  0  0
  6 95  1  0  0  0
  6 96  1  0  0  0
  7  8  2  0  0  0
  7 26  1  0  0  0
  7 29  1  0  0  0
  8  9  1  0  0  0
  8 22  1  0  0  0
  9 10  1  0  0  0
  9 27  2  0  0  0
 10 11  2  0  0  0
 10 15  1  0  0  0
 11 12  1  0  0  0
 11 97  1  0  0  0
 12 13  2  0  0  0
 12 98  1  0  0  0
 13 14  1  0  0  0
 13 31  1  0  0  0
 14 15  2  0  0  0
 14 99  1  0  0  0
 15100  1  0  0  0
 16 17  2  0  0  0
 16 21  1  0  0  0
 16 31  1  0  0  0
 17 18  1  0  0  0
 17101  1  0  0  0
 18 19  2  0  0  0
 18102  1  0  0  0
 19 20  1  0  0  0
 19 24  1  0  0  0
 20 21  2  0  0  0
 20103  1  0  0  0
 21 23  1  0  0  0
 22 28  1  0  0  0
 22 32  2  0  0  0
 26 27  1  0  0  0
 28104  1  0  0  0
 28105  1  0  0  0
 29106  1  0  0  0
 29107  1  0  0  0
 33 34  1  0  0  0
 33 66  1  0  0  0
 33 70  2  0  0  0
 34 36  1  0  0  0
 34 59  1  0  0  0
 34108  1  0  0  0
 35 44  2  0  0  0
 35 45  1  0  0  0
 35 68  1  0  0  0
 36 56  1  0  0  0
 36109  1  0  0  0
 37 39  1  0  0  0
 37 47  1  0  0  0
 37 66  1  0  0  0
 37110  1  0  0  0
 38 43  2  0  0  0
 38 46  1  0  0  0
 38 47  1  0  0  0
 39 64  1  0  0  0
 39 67  2  0  0  0
 40 52  1  0  0  0
 40 53  2  0  0  0
 40 58  1  0  0  0
 41111  1  0  0  0
 41112  1  0  0  0
 41113  1  0  0  0
 41 48  1  0  0  0
 42 43  1  0  0  0
 42 66  1  0  0  0
 42114  1  0  0  0
 42115  1  0  0  0
 43 44  1  0  0  0
 44116  1  0  0  0
 45 46  2  0  0  0
 45117  1  0  0  0
 46118  1  0  0  0
 47119  1  0  0  0
 47120  1  0  0  0
 48 56  1  0  0  0
 48 65  1  0  0  0
 48121  1  0  0  0
 49 50  1  0  0  0
 49 53  1  0  0  0
 49 64  1  0  0  0
 49122  1  0  0  0
 50 51  1  0  0  0
 50123  1  0  0  0
 50124  1  0  0  0
 51 52  1  0  0  0
 51125  1  0  0  0
 51126  1  0  0  0
 52127  1  0  0  0
 52128  1  0  0  0
 53 54  1  0  0  0
 54 55  2  0  0  0
 54129  1  0  0  0
 55 57  1  0  0  0
 55130  1  0  0  0
 56 69  2  0  0  0
 57 58  2  0  0  0
 57131  1  0  0  0
 58132  1  0  0  0
 59 60  1  0  0  0
 59 61  1  0  0  0
 59 62  1  0  0  0
 60133  1  0  0  0
 60134  1  0  0  0
 60135  1  0  0  0
 61136  1  0  0  0
 61137  1  0  0  0
 61138  1  0  0  0
 62139  1  0  0  0
 62140  1  0  0  0
 62141  1  0  0  0
 63 65  1  0  0  0
 63142  1  0  0  0
 63143  1  0  0  0
 63144  1  0  0  0
 64145  1  0  0  0
 65146  1  0  0  0
 68 81  1  0  0  0
 71 72  2  0  0  0
 71 74  1  0  0  0
 71147  1  0  0  0
 72 75  1  0  0  0
 72148  1  0  0  0
 73 75  2  0  0  0
 73 76  1  0  0  0
 73149  1  0  0  0
 74 76  2  0  0  0
 74 80  1  0  0  0
 75 84  1  0  0  0
 76 85  1  0  0  0
 77 78  1  0  0  0
 77 81  2  0  0  0
 77 82  1  0  0  0
 78 84  1  0  0  0
 78 86  2  0  0  0
 79 82  1  0  0  0
 79 84  1  0  0  0
 79 87  2  0  0  0
 80 83  2  0  0  0
 80150  1  0  0  0
 81151  1  0  0  0
 82152  1  0  0  0
 82153  1  0  0  0
 85154  1  0  0  0
 85155  1  0  0  0
M  ISO  4   1 100  68 101  81 101  83 100
M  END
> <chiral flag>
0

> <version>
0

> <s_m_source_file>
/data/baiqing/PycharmProjects/Reinvent-master-3.2/result/LINK_invent/BTK/process_docking_weight1_custom_product_contain_oxygen_bond_distance_aromatic_linkinvent_7_9_3/rearranged_h_0087.sdf

> <i_m_source_file_index>
38

> <r_mmod_Potential_Energy-OPLS-2005>
140.659057617188

> <r_mmod_Stretch_Energy-OPLS-2005>
59.8326606750488

> <r_mmod_Bend_Energy-OPLS-2005>
168.950012207031

> <r_mmod_Torsional_Energy-OPLS-2005>
226.011764526367

> <r_mmod_Improper_Torsional_Energy-OPLS-2005>
7.34589815139771

> <r_mmod_Van_der_Waal_Energy-OPLS-2005>
160.605285644531

> <r_mmod_Electrostatic_Energy-OPLS-2005>
-286.477874755859

> <r_mmod_Solvation_Energy-OPLS-2005>
-223.582595825195

> <b_mmod_Minimization_Converged-OPLS-2005>
0

> <r_mmod_RMS_Derivative-OPLS-2005>
2.47506427764893

$$$$
38
                    3D
 Structure written by MMmdl.
155164  0  0  1  0            999 V2000
  -30.6280  -14.7309   20.3745 C   0  0  0  0  0  0
  -30.4368  -12.4199   19.4666 C   0  0  0  0  0  0
  -29.5041  -12.4093   18.2335 C   0  0  0  0  0  0
  -28.0236  -12.2996   18.6539 C   0  0  0  0  0  0
  -27.6367  -13.2179   19.8469 C   0  0  2  0  0  0
  -28.6969  -13.1904   20.9693 C   0  0  0  0  0  0
  -25.2515  -13.8154   20.5756 C   0  0  0  0  0  0
  -24.1791  -13.0425   20.9258 C   0  0  0  0  0  0
  -24.6365  -11.6898   20.8816 C   0  0  0  0  0  0
  -23.9044  -10.4286   21.0448 C   0  0  0  0  0  0
  -24.3612   -9.4196   21.9207 C   0  0  0  0  0  0
  -23.6295   -8.2228   22.0756 C   0  0  0  0  0  0
  -22.4274   -8.0278   21.3550 C   0  0  0  0  0  0
  -21.9911   -9.0247   20.4647 C   0  0  0  0  0  0
  -22.7232  -10.2130   20.3073 C   0  0  0  0  0  0
  -21.6837   -6.0741   22.5286 C   0  0  0  0  0  0
  -21.3997   -6.5640   23.8221 C   0  0  0  0  0  0
  -21.3660   -5.6792   24.9184 C   0  0  0  0  0  0
  -21.6049   -4.3056   24.7228 C   0  0  0  0  0  0
  -21.8817   -3.8151   23.4346 C   0  0  0  0  0  0
  -21.9184   -4.6971   22.3406 C   0  0  0  0  0  0
  -22.7814  -13.5220   21.1890 C   0  0  0  0  0  0
  -22.1661   -4.2161   21.0981 F   0  0  0  0  0  0
  -21.5639   -3.4537   25.7739 F   0  0  0  0  0  0
  -29.9897  -13.5122   20.3534 N   0  0  0  0  0  0
  -26.2930  -12.9331   20.3368 N   0  0  0  0  0  0
  -25.9294  -11.6495   20.5854 N   0  0  0  0  0  0
  -22.0439  -12.8224   22.0437 N   0  0  0  0  0  0
  -25.4226  -15.1871   20.4149 N   0  0  0  0  0  0
  -31.8554  -14.7836   20.2585 O   0  0  0  0  0  0
  -21.6633   -6.8883   21.4246 O   0  0  0  0  0  0
  -22.3518  -14.5529   20.6722 O   0  0  0  0  0  0
  -24.6275  -31.8588   23.2009 C   0  0  0  0  0  0
  -25.9117  -32.4777   23.8341 C   0  0  1  0  0  0
  -27.2242  -27.2973   20.1358 C   0  0  0  0  0  0
  -25.5930  -33.8577   24.2265 N   0  0  0  0  0  0
  -23.4230  -30.4798   21.5434 C   0  0  2  0  0  0
  -24.8748  -28.9349   20.1090 C   0  0  0  0  0  0
  -22.7491  -29.4602   22.4929 C   0  0  0  0  0  0
  -18.0285  -28.1385   22.8482 C   0  0  0  0  0  0
  -24.1493  -36.7292   23.2636 C   0  0  0  0  0  0
  -25.9656  -30.7821   21.3788 C   0  0  0  0  0  0
  -26.0419  -29.4069   20.7244 C   0  0  0  0  0  0
  -27.2203  -28.5978   20.7331 C   0  0  0  0  0  0
  -26.0434  -26.8951   19.4721 C   0  0  0  0  0  0
  -24.8783  -27.6850   19.4723 C   0  0  0  0  0  0
  -23.6407  -29.8140   20.1586 C   0  0  0  0  0  0
  -25.4116  -36.3077   24.0324 C   0  0  1  0  0  0
  -20.5886  -28.3682   23.1286 C   0  0  2  0  0  0
  -20.6772  -26.9402   22.5416 C   0  0  0  0  0  0
  -19.5748  -26.6375   21.5218 C   0  0  0  0  0  0
  -18.1925  -26.7926   22.1624 C   0  0  0  0  0  0
  -19.1539  -28.8852   23.2873 C   0  0  0  0  0  0
  -18.9463  -30.1460   23.8878 C   0  0  0  0  0  0
  -17.6462  -30.6585   24.0561 C   0  0  0  0  0  0
  -25.9055  -34.9451   23.5093 C   0  0  0  0  0  0
  -16.5352  -29.9081   23.6335 C   0  0  0  0  0  0
  -16.7274  -28.6505   23.0343 C   0  0  0  0  0  0
  -26.4489  -31.6593   25.0720 C   0  0  0  0  0  0
  -25.3710  -31.3763   26.1442 C   0  0  0  0  0  0
  -27.0337  -30.3007   24.6202 C   0  0  0  0  0  0
  -27.6041  -32.4335   25.7495 C   0  0  0  0  0  0
  -27.5579  -37.1794   24.8455 C   0  0  0  0  0  0
  -21.4200  -29.3030   22.3680 N   0  0  0  0  0  0
  -26.4287  -37.3775   23.9405 N   0  0  0  0  0  0
  -24.6902  -31.0575   22.0975 N   0  0  0  0  0  0
  -23.4207  -28.8142   23.3017 O   0  0  0  0  0  0
  -28.3091  -26.4010   20.1930 O   0  0  0  0  0  0
  -26.5626  -34.8918   22.4661 O   0  0  0  0  0  0
  -23.5434  -32.1393   23.7324 O   0  0  0  0  0  0
  -28.4926  -19.3344   20.4589 C   0  0  0  0  0  0
  -28.5818  -17.9100   20.3708 C   0  0  0  0  0  0
  -30.9558  -18.0266   20.6224 C   0  0  0  0  0  0
  -29.6363  -20.1765   20.5885 C   0  0  0  0  0  0
  -29.8168  -17.2050   20.4139 C   0  0  0  0  0  0
  -30.8721  -19.4550   20.7048 C   0  0  0  0  0  0
  -28.8741  -23.9261   20.4087 C   0  0  0  0  0  0
  -30.2803  -23.9115   20.0827 C   0  0  0  0  0  0
  -28.4874  -22.5180   20.6823 C   0  0  0  0  0  0
  -28.0406  -25.0294   20.4600 C   0  0  0  0  0  0
  -30.7748  -22.4761   20.2315 C   0  0  0  0  0  0
  -29.7261  -15.8314   18.4493 C   0  0  0  0  0  0
  -29.5723  -21.6707   20.5308 N   0  0  0  0  0  0
  -29.8817  -15.8161   19.9182 N   0  0  0  0  0  0
  -30.9993  -24.8618   19.7535 O   0  0  0  0  0  0
  -27.3544  -22.1458   21.0088 O   0  0  0  0  0  0
  -32.0378  -20.1263   20.8602 F   0  0  0  0  0  0
  -31.4740  -12.5440   19.1504 H   0  0  0  0  0  0
  -30.3925  -11.4662   19.9952 H   0  0  0  0  0  0
  -29.7627  -11.5696   17.5866 H   0  0  0  0  0  0
  -29.6559  -13.2932   17.6205 H   0  0  0  0  0  0
  -27.8527  -11.2584   18.9283 H   0  0  0  0  0  0
  -27.3723  -12.4961   17.8010 H   0  0  0  0  0  0
  -27.6039  -14.2300   19.4565 H   0  0  0  0  0  0
  -28.7345  -12.2142   21.4553 H   0  0  0  0  0  0
  -28.4520  -13.9197   21.7444 H   0  0  0  0  0  0
  -25.2757   -9.5670   22.4786 H   0  0  0  0  0  0
  -24.0012   -7.4602   22.7453 H   0  0  0  0  0  0
  -21.0849   -8.8755   19.8942 H   0  0  0  0  0  0
  -22.3695  -10.9676   19.6186 H   0  0  0  0  0  0
  -21.1981   -7.6146   23.9731 H   0  0  0  0  0  0
  -21.1491   -6.0523   25.9090 H   0  0  0  0  0  0
  -22.0595   -2.7614   23.2836 H   0  0  0  0  0  0
  -22.4036  -11.9893   22.4862 H   0  0  0  0  0  0
  -21.1045  -13.1250   22.2606 H   0  0  0  0  0  0
  -24.6579  -15.8444   20.5232 H   0  0  0  0  0  0
  -26.2789  -15.6199   20.0951 H   0  0  0  0  0  0
  -26.7188  -32.5441   23.1090 H   0  0  0  0  0  0
  -25.0064  -33.9726   25.0402 H   0  0  0  0  0  0
  -22.7168  -31.2998   21.3988 H   0  0  0  0  0  0
  -23.3759  -35.9621   23.3293 H   0  0  0  0  0  0
  -24.3575  -36.8923   22.2049 H   0  0  0  0  0  0
  -23.7249  -37.6490   23.6673 H   0  0  0  0  0  0
  -26.0989  -31.5434   20.6087 H   0  0  0  0  0  0
  -26.8449  -30.8332   22.0093 H   0  0  0  0  0  0
  -28.1127  -28.9491   21.2314 H   0  0  0  0  0  0
  -26.0055  -25.9379   18.9712 H   0  0  0  0  0  0
  -23.9870  -27.3199   18.9812 H   0  0  0  0  0  0
  -23.7570  -30.5901   19.4012 H   0  0  0  0  0  0
  -22.7620  -29.2402   19.8567 H   0  0  0  0  0  0
  -25.1299  -36.1920   25.0817 H   0  0  0  0  0  0
  -20.9969  -28.3264   24.1412 H   0  0  0  0  0  0
  -20.5676  -26.2289   23.3616 H   0  0  0  0  0  0
  -21.6641  -26.7428   22.1207 H   0  0  0  0  0  0
  -19.6908  -25.6286   21.1241 H   0  0  0  0  0  0
  -19.6688  -27.3191   20.6752 H   0  0  0  0  0  0
  -17.4193  -26.6672   21.4029 H   0  0  0  0  0  0
  -18.0319  -26.0072   22.9024 H   0  0  0  0  0  0
  -19.7938  -30.7287   24.2230 H   0  0  0  0  0  0
  -17.5014  -31.6261   24.5170 H   0  0  0  0  0  0
  -15.5350  -30.2975   23.7677 H   0  0  0  0  0  0
  -15.8671  -28.0830   22.7050 H   0  0  0  0  0  0
  -24.5863  -30.7138   25.7769 H   0  0  0  0  0  0
  -24.8927  -32.2951   26.4849 H   0  0  0  0  0  0
  -25.8014  -30.8937   27.0226 H   0  0  0  0  0  0
  -26.2929  -29.6755   24.1203 H   0  0  0  0  0  0
  -27.3994  -29.7266   25.4724 H   0  0  0  0  0  0
  -27.8815  -30.4274   23.9465 H   0  0  0  0  0  0
  -27.2639  -33.3631   26.2069 H   0  0  0  0  0  0
  -28.3858  -32.6902   25.0335 H   0  0  0  0  0  0
  -28.0705  -31.8463   26.5413 H   0  0  0  0  0  0
  -28.2582  -38.0103   24.7517 H   0  0  0  0  0  0
  -28.1089  -36.2633   24.6266 H   0  0  0  0  0  0
  -27.2294  -37.1427   25.8855 H   0  0  0  0  0  0
  -20.9386  -29.8764   21.6894 H   0  0  0  0  0  0
  -26.0168  -38.2844   24.1421 H   0  0  0  0  0  0
  -27.5115  -19.7711   20.3525 H   0  0  0  0  0  0
  -27.6742  -17.3554   20.1797 H   0  0  0  0  0  0
  -31.9367  -17.5743   20.6316 H   0  0  0  0  0  0
  -27.0106  -24.8784   20.7530 H   0  0  0  0  0  0
  -31.4888  -22.4340   21.0535 H   0  0  0  0  0  0
  -31.2581  -22.1405   19.3140 H   0  0  0  0  0  0
  -29.7436  -16.8436   18.0401 H   0  0  0  0  0  0
  -28.7808  -15.3982   18.1331 H   0  0  0  0  0  0
  -30.5325  -15.3070   17.9323 H   0  0  0  0  0  0
  1 25  1  0  0  0
  1 30  2  0  0  0
  1 84  1  0  0  0
  2  3  1  0  0  0
  2 25  1  0  0  0
  2 88  1  0  0  0
  2 89  1  0  0  0
  3  4  1  0  0  0
  3 90  1  0  0  0
  3 91  1  0  0  0
  4  5  1  0  0  0
  4 92  1  0  0  0
  4 93  1  0  0  0
  5  6  1  0  0  0
  5 26  1  0  0  0
  5 94  1  0  0  0
  6 25  1  0  0  0
  6 95  1  0  0  0
  6 96  1  0  0  0
  7  8  2  0  0  0
  7 26  1  0  0  0
  7 29  1  0  0  0
  8  9  1  0  0  0
  8 22  1  0  0  0
  9 10  1  0  0  0
  9 27  2  0  0  0
 10 11  2  0  0  0
 10 15  1  0  0  0
 11 12  1  0  0  0
 11 97  1  0  0  0
 12 13  2  0  0  0
 12 98  1  0  0  0
 13 14  1  0  0  0
 13 31  1  0  0  0
 14 15  2  0  0  0
 14 99  1  0  0  0
 15100  1  0  0  0
 16 17  2  0  0  0
 16 21  1  0  0  0
 16 31  1  0  0  0
 17 18  1  0  0  0
 17101  1  0  0  0
 18 19  2  0  0  0
 18102  1  0  0  0
 19 20  1  0  0  0
 19 24  1  0  0  0
 20 21  2  0  0  0
 20103  1  0  0  0
 21 23  1  0  0  0
 22 28  1  0  0  0
 22 32  2  0  0  0
 26 27  1  0  0  0
 28104  1  0  0  0
 28105  1  0  0  0
 29106  1  0  0  0
 29107  1  0  0  0
 33 34  1  0  0  0
 33 66  1  0  0  0
 33 70  2  0  0  0
 34 36  1  0  0  0
 34 59  1  0  0  0
 34108  1  0  0  0
 35 44  2  0  0  0
 35 45  1  0  0  0
 35 68  1  0  0  0
 36 56  1  0  0  0
 36109  1  0  0  0
 37 39  1  0  0  0
 37 47  1  0  0  0
 37 66  1  0  0  0
 37110  1  0  0  0
 38 43  2  0  0  0
 38 46  1  0  0  0
 38 47  1  0  0  0
 39 64  1  0  0  0
 39 67  2  0  0  0
 40 52  1  0  0  0
 40 53  2  0  0  0
 40 58  1  0  0  0
 41111  1  0  0  0
 41112  1  0  0  0
 41113  1  0  0  0
 41 48  1  0  0  0
 42 43  1  0  0  0
 42 66  1  0  0  0
 42114  1  0  0  0
 42115  1  0  0  0
 43 44  1  0  0  0
 44116  1  0  0  0
 45 46  2  0  0  0
 45117  1  0  0  0
 46118  1  0  0  0
 47119  1  0  0  0
 47120  1  0  0  0
 48 56  1  0  0  0
 48 65  1  0  0  0
 48121  1  0  0  0
 49 50  1  0  0  0
 49 53  1  0  0  0
 49 64  1  0  0  0
 49122  1  0  0  0
 50 51  1  0  0  0
 50123  1  0  0  0
 50124  1  0  0  0
 51 52  1  0  0  0
 51125  1  0  0  0
 51126  1  0  0  0
 52127  1  0  0  0
 52128  1  0  0  0
 53 54  1  0  0  0
 54 55  2  0  0  0
 54129  1  0  0  0
 55 57  1  0  0  0
 55130  1  0  0  0
 56 69  2  0  0  0
 57 58  2  0  0  0
 57131  1  0  0  0
 58132  1  0  0  0
 59 60  1  0  0  0
 59 61  1  0  0  0
 59 62  1  0  0  0
 60133  1  0  0  0
 60134  1  0  0  0
 60135  1  0  0  0
 61136  1  0  0  0
 61137  1  0  0  0
 61138  1  0  0  0
 62139  1  0  0  0
 62140  1  0  0  0
 62141  1  0  0  0
 63 65  1  0  0  0
 63142  1  0  0  0
 63143  1  0  0  0
 63144  1  0  0  0
 64145  1  0  0  0
 65146  1  0  0  0
 68 80  1  0  0  0
 71 72  2  0  0  0
 71 74  1  0  0  0
 71147  1  0  0  0
 72 75  1  0  0  0
 72148  1  0  0  0
 73 75  2  0  0  0
 73 76  1  0  0  0
 73149  1  0  0  0
 74 76  2  0  0  0
 74 83  1  0  0  0
 75 84  1  0  0  0
 76 87  1  0  0  0
 77 78  1  0  0  0
 77 79  1  0  0  0
 77 80  2  0  0  0
 78 81  1  0  0  0
 78 85  2  0  0  0
 79 83  1  0  0  0
 79 86  2  0  0  0
 80150  1  0  0  0
 81 83  1  0  0  0
 81151  1  0  0  0
 81152  1  0  0  0
 82 84  1  0  0  0
 82153  1  0  0  0
 82154  1  0  0  0
 82155  1  0  0  0
M  ISO  4   1 100  68 101  80 101  84 100
M  END
> <chiral flag>
0

> <version>
0

> <s_m_source_file>
/data/baiqing/PycharmProjects/Reinvent-master-3.2/result/LINK_invent/BTK/process_docking_weight1_custom_product_contain_oxygen_bond_distance_aromatic_linkinvent_7_9_3/rearranged_h_0087.sdf

> <i_m_source_file_index>
39

> <r_mmod_Potential_Energy-OPLS-2005>
395.718231201172

> <r_mmod_Stretch_Energy-OPLS-2005>
99.4284744262695

> <r_mmod_Bend_Energy-OPLS-2005>
201.815628051758

> <r_mmod_Torsional_Energy-OPLS-2005>
363.380035400391

> <r_mmod_Improper_Torsional_Energy-OPLS-2005>
26.9568328857422

> <r_mmod_Van_der_Waal_Energy-OPLS-2005>
148.262008666992

> <r_mmod_Electrostatic_Energy-OPLS-2005>
-313.452117919922

> <r_mmod_Solvation_Energy-OPLS-2005>
-216.67936706543

> <b_mmod_Minimization_Converged-OPLS-2005>
0

> <r_mmod_RMS_Derivative-OPLS-2005>
1.15873515605927

$$$$
39
                    3D
 Structure written by MMmdl.
149157  0  0  1  0            999 V2000
  -30.6006  -14.6846   20.4905 C   0  0  0  0  0  0
  -30.4439  -12.4190   19.4599 C   0  0  0  0  0  0
  -29.5119  -12.5137   18.2301 C   0  0  0  0  0  0
  -28.0353  -12.3443   18.6417 C   0  0  0  0  0  0
  -27.6527  -13.2199   19.8646 C   0  0  2  0  0  0
  -28.6984  -13.0877   20.9950 C   0  0  0  0  0  0
  -25.2548  -13.8166   20.5687 C   0  0  0  0  0  0
  -24.1815  -13.0426   20.9169 C   0  0  0  0  0  0
  -24.6396  -11.6902   20.8730 C   0  0  0  0  0  0
  -23.9067  -10.4286   21.0400 C   0  0  0  0  0  0
  -24.3618   -9.4205   21.9181 C   0  0  0  0  0  0
  -23.6292   -8.2242   22.0753 C   0  0  0  0  0  0
  -22.4274   -8.0280   21.3544 C   0  0  0  0  0  0
  -21.9908   -9.0252   20.4646 C   0  0  0  0  0  0
  -22.7238  -10.2130   20.3052 C   0  0  0  0  0  0
  -21.6852   -6.0735   22.5280 C   0  0  0  0  0  0
  -21.4013   -6.5639   23.8214 C   0  0  0  0  0  0
  -21.3660   -5.6792   24.9176 C   0  0  0  0  0  0
  -21.6045   -4.3055   24.7226 C   0  0  0  0  0  0
  -21.8819   -3.8146   23.4347 C   0  0  0  0  0  0
  -21.9192   -4.6963   22.3403 C   0  0  0  0  0  0
  -22.7840  -13.5222   21.1842 C   0  0  0  0  0  0
  -22.1661   -4.2149   21.0981 F   0  0  0  0  0  0
  -21.5630   -3.4539   25.7739 F   0  0  0  0  0  0
  -30.0104  -13.4451   20.4314 N   0  0  0  0  0  0
  -26.2990  -12.9360   20.3338 N   0  0  0  0  0  0
  -25.9331  -11.6510   20.5765 N   0  0  0  0  0  0
  -22.0489  -12.8217   22.0409 N   0  0  0  0  0  0
  -25.4237  -15.1890   20.4149 N   0  0  0  0  0  0
  -31.7619  -14.8530   20.1057 O   0  0  0  0  0  0
  -21.6638   -6.8877   21.4241 O   0  0  0  0  0  0
  -22.3520  -14.5529   20.6698 O   0  0  0  0  0  0
  -24.6274  -31.8582   23.2012 C   0  0  0  0  0  0
  -25.9114  -32.4772   23.8348 C   0  0  1  0  0  0
  -27.2273  -27.3021   20.1264 C   0  0  0  0  0  0
  -25.5924  -33.8573   24.2272 N   0  0  0  0  0  0
  -23.4231  -30.4803   21.5433 C   0  0  2  0  0  0
  -24.8725  -28.9309   20.1121 C   0  0  0  0  0  0
  -22.7483  -29.4615   22.4926 C   0  0  0  0  0  0
  -18.0288  -28.1385   22.8487 C   0  0  0  0  0  0
  -24.1489  -36.7291   23.2636 C   0  0  0  0  0  0
  -25.9653  -30.7825   21.3767 C   0  0  0  0  0  0
  -26.0408  -29.4069   20.7222 C   0  0  0  0  0  0
  -27.2219  -28.6029   20.7224 C   0  0  0  0  0  0
  -26.0405  -26.8858   19.4842 C   0  0  0  0  0  0
  -24.8744  -27.6754   19.4841 C   0  0  0  0  0  0
  -23.6405  -29.8129   20.1595 C   0  0  0  0  0  0
  -25.4113  -36.3080   24.0329 C   0  0  1  0  0  0
  -20.5890  -28.3693   23.1277 C   0  0  2  0  0  0
  -20.6776  -26.9414   22.5408 C   0  0  0  0  0  0
  -19.5752  -26.6384   21.5212 C   0  0  0  0  0  0
  -18.1933  -26.7928   22.1626 C   0  0  0  0  0  0
  -19.1540  -28.8856   23.2878 C   0  0  0  0  0  0
  -18.9462  -30.1457   23.8896 C   0  0  0  0  0  0
  -17.6462  -30.6588   24.0562 C   0  0  0  0  0  0
  -25.9054  -34.9449   23.5104 C   0  0  0  0  0  0
  -16.5353  -29.9086   23.6329 C   0  0  0  0  0  0
  -16.7275  -28.6502   23.0353 C   0  0  0  0  0  0
  -26.4495  -31.6586   25.0723 C   0  0  0  0  0  0
  -25.3726  -31.3724   26.1447 C   0  0  0  0  0  0
  -27.0341  -30.3008   24.6190 C   0  0  0  0  0  0
  -27.6053  -32.4323   25.7495 C   0  0  0  0  0  0
  -27.5585  -37.1792   24.8457 C   0  0  0  0  0  0
  -21.4194  -29.3044   22.3667 N   0  0  0  0  0  0
  -26.4287  -37.3781   23.9417 N   0  0  0  0  0  0
  -24.6906  -31.0576   22.0971 N   0  0  0  0  0  0
  -23.4196  -28.8157   23.3016 O   0  0  0  0  0  0
  -28.3277  -26.4260   20.1474 O   0  0  0  0  0  0
  -26.5627  -34.8920   22.4673 O   0  0  0  0  0  0
  -23.5432  -32.1388   23.7327 O   0  0  0  0  0  0
  -30.7482  -19.3984   20.0250 C   0  0  0  0  0  0
  -30.8585  -17.9735   20.1501 C   0  0  0  0  0  0
  -28.5432  -19.3366   20.9596 C   0  0  0  0  0  0
  -29.5911  -20.1361   20.4210 C   0  0  0  0  0  0
  -29.8032  -17.1862   20.6863 C   0  0  0  0  0  0
  -28.6497  -17.9160   21.0849 C   0  0  0  0  0  0
  -28.9501  -23.9849   20.1955 C   0  0  0  0  0  0
  -28.1084  -25.0535   20.4350 C   0  0  0  0  0  0
  -28.6077  -22.5654   20.5435 C   0  0  0  0  0  0
  -29.5560  -21.6086   20.2480 N   0  0  0  0  0  0
  -29.7767  -15.7230   20.8531 N   0  0  0  0  0  0
  -27.5357  -22.2561   21.0677 O   0  0  0  0  0  0
  -27.6032  -17.2247   21.5982 F   0  0  0  0  0  0
  -31.4836  -12.5545   19.1566 H   0  0  0  0  0  0
  -30.3913  -11.4259   19.9092 H   0  0  0  0  0  0
  -29.7833  -11.7579   17.4920 H   0  0  0  0  0  0
  -29.6464  -13.4799   17.7411 H   0  0  0  0  0  0
  -27.8791  -11.2915   18.8796 H   0  0  0  0  0  0
  -27.3796  -12.5651   17.7985 H   0  0  0  0  0  0
  -27.6649  -14.2533   19.5173 H   0  0  0  0  0  0
  -28.7200  -12.0672   21.3804 H   0  0  0  0  0  0
  -28.4366  -13.7194   21.8452 H   0  0  0  0  0  0
  -25.2763   -9.5683   22.4754 H   0  0  0  0  0  0
  -24.0002   -7.4634   22.7473 H   0  0  0  0  0  0
  -21.0838   -8.8769   19.8955 H   0  0  0  0  0  0
  -22.3695  -10.9666   19.6159 H   0  0  0  0  0  0
  -21.2003   -7.6147   23.9717 H   0  0  0  0  0  0
  -21.1485   -6.0522   25.9079 H   0  0  0  0  0  0
  -22.0597   -2.7608   23.2847 H   0  0  0  0  0  0
  -22.4105  -11.9878   22.4795 H   0  0  0  0  0  0
  -21.1110  -13.1249   22.2623 H   0  0  0  0  0  0
  -24.6649  -15.8437   20.5671 H   0  0  0  0  0  0
  -26.2980  -15.6483   20.1946 H   0  0  0  0  0  0
  -26.7181  -32.5439   23.1095 H   0  0  0  0  0  0
  -25.0061  -33.9717   25.0410 H   0  0  0  0  0  0
  -22.7181  -31.3014   21.3977 H   0  0  0  0  0  0
  -23.3757  -35.9616   23.3283 H   0  0  0  0  0  0
  -24.3585  -36.8929   22.2054 H   0  0  0  0  0  0
  -23.7233  -37.6485   23.6668 H   0  0  0  0  0  0
  -26.0989  -31.5434   20.6066 H   0  0  0  0  0  0
  -26.8447  -30.8329   22.0070 H   0  0  0  0  0  0
  -28.1182  -28.9613   21.2088 H   0  0  0  0  0  0
  -26.0055  -25.9233   18.9937 H   0  0  0  0  0  0
  -23.9810  -27.3059   18.9995 H   0  0  0  0  0  0
  -23.7614  -30.5884   19.4023 H   0  0  0  0  0  0
  -22.7605  -29.2427   19.8565 H   0  0  0  0  0  0
  -25.1291  -36.1927   25.0820 H   0  0  0  0  0  0
  -20.9984  -28.3269   24.1397 H   0  0  0  0  0  0
  -20.5676  -26.2305   23.3612 H   0  0  0  0  0  0
  -21.6644  -26.7442   22.1200 H   0  0  0  0  0  0
  -19.6913  -25.6294   21.1245 H   0  0  0  0  0  0
  -19.6688  -27.3192   20.6740 H   0  0  0  0  0  0
  -17.4202  -26.6672   21.4030 H   0  0  0  0  0  0
  -18.0337  -26.0069   22.9023 H   0  0  0  0  0  0
  -19.7938  -30.7272   24.2266 H   0  0  0  0  0  0
  -17.5017  -31.6269   24.5162 H   0  0  0  0  0  0
  -15.5354  -30.2988   23.7653 H   0  0  0  0  0  0
  -15.8674  -28.0820   22.7073 H   0  0  0  0  0  0
  -24.5904  -30.7072   25.7771 H   0  0  0  0  0  0
  -24.8914  -32.2888   26.4872 H   0  0  0  0  0  0
  -25.8048  -30.8898   27.0222 H   0  0  0  0  0  0
  -26.2919  -29.6756   24.1213 H   0  0  0  0  0  0
  -27.4029  -29.7268   25.4702 H   0  0  0  0  0  0
  -27.8794  -30.4289   23.9425 H   0  0  0  0  0  0
  -27.2661  -33.3618   26.2079 H   0  0  0  0  0  0
  -28.3861  -32.6892   25.0323 H   0  0  0  0  0  0
  -28.0726  -31.8445   26.5407 H   0  0  0  0  0  0
  -28.2572  -38.0120   24.7554 H   0  0  0  0  0  0
  -28.1115  -36.2656   24.6217 H   0  0  0  0  0  0
  -27.2313  -37.1358   25.8860 H   0  0  0  0  0  0
  -20.9375  -29.8765   21.6874 H   0  0  0  0  0  0
  -26.0166  -38.2848   24.1448 H   0  0  0  0  0  0
  -31.5896  -19.9323   19.6054 H   0  0  0  0  0  0
  -31.7695  -17.4938   19.8220 H   0  0  0  0  0  0
  -27.6237  -19.7956   21.2874 H   0  0  0  0  0  0
  -29.9039  -24.1857   19.7305 H   0  0  0  0  0  0
  -27.1459  -24.8976   20.9055 H   0  0  0  0  0  0
  -30.3897  -21.9981   19.8297 H   0  0  0  0  0  0
  -28.8902  -15.3965   21.2077 H   0  0  0  0  0  0
  1 25  1  0  0  0
  1 30  2  0  0  0
  1 81  1  0  0  0
  2  3  1  0  0  0
  2 25  1  0  0  0
  2 84  1  0  0  0
  2 85  1  0  0  0
  3  4  1  0  0  0
  3 86  1  0  0  0
  3 87  1  0  0  0
  4  5  1  0  0  0
  4 88  1  0  0  0
  4 89  1  0  0  0
  5  6  1  0  0  0
  5 26  1  0  0  0
  5 90  1  0  0  0
  6 25  1  0  0  0
  6 91  1  0  0  0
  6 92  1  0  0  0
  7  8  2  0  0  0
  7 26  1  0  0  0
  7 29  1  0  0  0
  8  9  1  0  0  0
  8 22  1  0  0  0
  9 10  1  0  0  0
  9 27  2  0  0  0
 10 11  2  0  0  0
 10 15  1  0  0  0
 11 12  1  0  0  0
 11 93  1  0  0  0
 12 13  2  0  0  0
 12 94  1  0  0  0
 13 14  1  0  0  0
 13 31  1  0  0  0
 14 15  2  0  0  0
 14 95  1  0  0  0
 15 96  1  0  0  0
 16 17  2  0  0  0
 16 21  1  0  0  0
 16 31  1  0  0  0
 17 18  1  0  0  0
 17 97  1  0  0  0
 18 19  2  0  0  0
 18 98  1  0  0  0
 19 20  1  0  0  0
 19 24  1  0  0  0
 20 21  2  0  0  0
 20 99  1  0  0  0
 21 23  1  0  0  0
 22 28  1  0  0  0
 22 32  2  0  0  0
 26 27  1  0  0  0
 28100  1  0  0  0
 28101  1  0  0  0
 29102  1  0  0  0
 29103  1  0  0  0
 33 34  1  0  0  0
 33 66  1  0  0  0
 33 70  2  0  0  0
 34 36  1  0  0  0
 34 59  1  0  0  0
 34104  1  0  0  0
 35 44  2  0  0  0
 35 45  1  0  0  0
 35 68  1  0  0  0
 36 56  1  0  0  0
 36105  1  0  0  0
 37 39  1  0  0  0
 37 47  1  0  0  0
 37 66  1  0  0  0
 37106  1  0  0  0
 38 43  2  0  0  0
 38 46  1  0  0  0
 38 47  1  0  0  0
 39 64  1  0  0  0
 39 67  2  0  0  0
 40 52  1  0  0  0
 40 53  2  0  0  0
 40 58  1  0  0  0
 41107  1  0  0  0
 41108  1  0  0  0
 41109  1  0  0  0
 41 48  1  0  0  0
 42 43  1  0  0  0
 42 66  1  0  0  0
 42110  1  0  0  0
 42111  1  0  0  0
 43 44  1  0  0  0
 44112  1  0  0  0
 45 46  2  0  0  0
 45113  1  0  0  0
 46114  1  0  0  0
 47115  1  0  0  0
 47116  1  0  0  0
 48 56  1  0  0  0
 48 65  1  0  0  0
 48117  1  0  0  0
 49 50  1  0  0  0
 49 53  1  0  0  0
 49 64  1  0  0  0
 49118  1  0  0  0
 50 51  1  0  0  0
 50119  1  0  0  0
 50120  1  0  0  0
 51 52  1  0  0  0
 51121  1  0  0  0
 51122  1  0  0  0
 52123  1  0  0  0
 52124  1  0  0  0
 53 54  1  0  0  0
 54 55  2  0  0  0
 54125  1  0  0  0
 55 57  1  0  0  0
 55126  1  0  0  0
 56 69  2  0  0  0
 57 58  2  0  0  0
 57127  1  0  0  0
 58128  1  0  0  0
 59 60  1  0  0  0
 59 61  1  0  0  0
 59 62  1  0  0  0
 60129  1  0  0  0
 60130  1  0  0  0
 60131  1  0  0  0
 61132  1  0  0  0
 61133  1  0  0  0
 61134  1  0  0  0
 62135  1  0  0  0
 62136  1  0  0  0
 62137  1  0  0  0
 63 65  1  0  0  0
 63138  1  0  0  0
 63139  1  0  0  0
 63140  1  0  0  0
 64141  1  0  0  0
 65142  1  0  0  0
 68 78  1  0  0  0
 71 72  2  0  0  0
 71 74  1  0  0  0
 71143  1  0  0  0
 72 75  1  0  0  0
 72144  1  0  0  0
 73 74  2  0  0  0
 73 76  1  0  0  0
 73145  1  0  0  0
 74 80  1  0  0  0
 75 76  2  0  0  0
 75 81  1  0  0  0
 76 83  1  0  0  0
 77 78  2  0  0  0
 77 79  1  0  0  0
 77146  1  0  0  0
 78147  1  0  0  0
 79 80  1  0  0  0
 79 82  2  0  0  0
 80148  1  0  0  0
 81149  1  0  0  0
M  ISO  4   1 100  68 101  78 101  81 100
M  END
> <chiral flag>
0

> <version>
0

> <s_m_source_file>
/data/baiqing/PycharmProjects/Reinvent-master-3.2/result/LINK_invent/BTK/process_docking_weight1_custom_product_contain_oxygen_bond_distance_aromatic_linkinvent_7_9_3/rearranged_h_0087.sdf

> <i_m_source_file_index>
40

> <r_mmod_Potential_Energy-OPLS-2005>
-7.31897020339966

> <r_mmod_Stretch_Energy-OPLS-2005>
87.5515823364258

> <r_mmod_Bend_Energy-OPLS-2005>
147.4384765625

> <r_mmod_Torsional_Energy-OPLS-2005>
214.333694458008

> <r_mmod_Improper_Torsional_Energy-OPLS-2005>
3.55884337425232

> <r_mmod_Van_der_Waal_Energy-OPLS-2005>
142.758316040039

> <r_mmod_Electrostatic_Energy-OPLS-2005>
-446.06982421875

> <r_mmod_Solvation_Energy-OPLS-2005>
-217.706436157227

> <b_mmod_Minimization_Converged-OPLS-2005>
0

> <r_mmod_RMS_Derivative-OPLS-2005>
0.220335930585861

$$$$
40
                    3D
 Structure written by MMmdl.
158167  0  0  1  0            999 V2000
  -30.7324  -14.5016   20.5812 C   0  0  0  0  0  0
  -30.4070  -12.3268   19.4408 C   0  0  0  0  0  0
  -29.4924  -12.4933   18.2135 C   0  0  0  0  0  0
  -28.0160  -12.3503   18.6264 C   0  0  0  0  0  0
  -27.6515  -13.2157   19.8640 C   0  0  2  0  0  0
  -28.6925  -13.0585   20.9949 C   0  0  0  0  0  0
  -25.2553  -13.8180   20.5668 C   0  0  0  0  0  0
  -24.1828  -13.0442   20.9179 C   0  0  0  0  0  0
  -24.6392  -11.6908   20.8749 C   0  0  0  0  0  0
  -23.9067  -10.4289   21.0408 C   0  0  0  0  0  0
  -24.3615   -9.4208   21.9192 C   0  0  0  0  0  0
  -23.6284   -8.2247   22.0773 C   0  0  0  0  0  0
  -22.4273   -8.0276   21.3551 C   0  0  0  0  0  0
  -21.9913   -9.0251   20.4648 C   0  0  0  0  0  0
  -22.7245  -10.2130   20.3054 C   0  0  0  0  0  0
  -21.6850   -6.0736   22.5281 C   0  0  0  0  0  0
  -21.4011   -6.5640   23.8215 C   0  0  0  0  0  0
  -21.3654   -5.6792   24.9173 C   0  0  0  0  0  0
  -21.6046   -4.3059   24.7227 C   0  0  0  0  0  0
  -21.8818   -3.8147   23.4349 C   0  0  0  0  0  0
  -21.9195   -4.6962   22.3402 C   0  0  0  0  0  0
  -22.7852  -13.5240   21.1828 C   0  0  0  0  0  0
  -22.1659   -4.2144   21.0979 F   0  0  0  0  0  0
  -21.5632   -3.4544   25.7743 F   0  0  0  0  0  0
  -30.0141  -13.3526   20.4257 N   0  0  0  0  0  0
  -26.2979  -12.9363   20.3324 N   0  0  0  0  0  0
  -25.9317  -11.6515   20.5771 N   0  0  0  0  0  0
  -22.0486  -12.8226   22.0367 N   0  0  0  0  0  0
  -25.4243  -15.1899   20.4057 N   0  0  0  0  0  0
  -31.8839  -14.5788   20.1424 O   0  0  0  0  0  0
  -21.6639   -6.8880   21.4243 O   0  0  0  0  0  0
  -22.3547  -14.5555   20.6674 O   0  0  0  0  0  0
  -24.6182  -31.8671   23.2118 C   0  0  0  0  0  0
  -25.9075  -32.4809   23.8413 C   0  0  1  0  0  0
  -27.2315  -27.4111   20.1121 C   0  0  0  0  0  0
  -25.5930  -33.8620   24.2326 N   0  0  0  0  0  0
  -23.4073  -30.4891   21.5527 C   0  0  2  0  0  0
  -24.8551  -28.9497   20.1218 C   0  0  0  0  0  0
  -22.7438  -29.4647   22.5016 C   0  0  0  0  0  0
  -18.0291  -28.1361   22.8518 C   0  0  0  0  0  0
  -24.1485  -36.7280   23.2642 C   0  0  0  0  0  0
  -25.9389  -30.8223   21.3741 C   0  0  0  0  0  0
  -26.0157  -29.4526   20.7256 C   0  0  0  0  0  0
  -27.2098  -28.6893   20.7224 C   0  0  0  0  0  0
  -26.0581  -26.9261   19.5032 C   0  0  0  0  0  0
  -24.8697  -27.6828   19.5119 C   0  0  0  0  0  0
  -23.6178  -29.8200   20.1682 C   0  0  0  0  0  0
  -25.4109  -36.3074   24.0325 C   0  0  1  0  0  0
  -20.5882  -28.3647   23.1317 C   0  0  2  0  0  0
  -20.6767  -26.9382   22.5406 C   0  0  0  0  0  0
  -19.5733  -26.6375   21.5218 C   0  0  0  0  0  0
  -18.1919  -26.7921   22.1628 C   0  0  0  0  0  0
  -19.1542  -28.8833   23.2907 C   0  0  0  0  0  0
  -18.9459  -30.1456   23.8895 C   0  0  0  0  0  0
  -17.6452  -30.6577   24.0566 C   0  0  0  0  0  0
  -25.9047  -34.9467   23.5111 C   0  0  0  0  0  0
  -16.5350  -29.9060   23.6345 C   0  0  0  0  0  0
  -16.7278  -28.6475   23.0379 C   0  0  0  0  0  0
  -26.4506  -31.6591   25.0749 C   0  0  0  0  0  0
  -25.3749  -31.3658   26.1461 C   0  0  0  0  0  0
  -27.0405  -30.3057   24.6149 C   0  0  0  0  0  0
  -27.6060  -32.4350   25.7512 C   0  0  0  0  0  0
  -27.5581  -37.1776   24.8463 C   0  0  0  0  0  0
  -21.4175  -29.3002   22.3719 N   0  0  0  0  0  0
  -26.4280  -37.3780   23.9428 N   0  0  0  0  0  0
  -24.6729  -31.0756   22.1032 N   0  0  0  0  0  0
  -23.4193  -28.8207   23.3089 O   0  0  0  0  0  0
  -28.3803  -26.6523   20.0217 O   0  0  0  0  0  0
  -26.5594  -34.8917   22.4674 O   0  0  0  0  0  0
  -23.5365  -32.1462   23.7489 O   0  0  0  0  0  0
  -30.1544  -19.0322   22.4297 C   0  0  0  0  0  0
  -28.9772  -18.4161   20.4024 C   0  0  0  0  0  0
  -29.6270  -20.3413   22.3504 C   0  0  0  0  0  0
  -28.4538  -19.7359   20.3183 C   0  0  0  0  0  0
  -26.9842  -23.8791   21.0897 C   0  0  0  0  0  0
  -29.8648  -18.0535   21.4464 C   0  0  0  0  0  0
  -28.3228  -24.3682   21.0997 C   0  0  0  0  0  0
  -28.7983  -20.7251   21.2733 C   0  0  0  0  0  0
  -29.1376  -23.2472   21.1274 C   0  0  0  0  0  0
  -27.0286  -22.5153   21.1260 C   0  0  0  0  0  0
  -30.6644  -16.7598   21.4262 C   0  0  0  0  0  0
  -30.6361  -23.1621   21.1523 C   0  0  0  0  0  0
  -28.7366  -25.8499   21.1600 C   0  0  0  0  0  0
  -28.3456  -22.0862   21.1656 N   0  0  0  0  0  0
  -30.0760  -15.5937   21.0579 N   0  0  0  0  0  0
  -31.8479  -16.8360   21.7828 O   0  0  0  0  0  0
  -25.9950  -21.6326   21.1668 O   0  0  0  0  0  0
  -31.4542  -12.3973   19.1439 H   0  0  0  0  0  0
  -30.2914  -11.3313   19.8724 H   0  0  0  0  0  0
  -29.7416  -11.7527   17.4527 H   0  0  0  0  0  0
  -29.6558  -13.4708   17.7574 H   0  0  0  0  0  0
  -27.8359  -11.2969   18.8457 H   0  0  0  0  0  0
  -27.3640  -12.5987   17.7878 H   0  0  0  0  0  0
  -27.6779  -14.2534   19.5323 H   0  0  0  0  0  0
  -28.6791  -12.0423   21.3938 H   0  0  0  0  0  0
  -28.4542  -13.7098   21.8374 H   0  0  0  0  0  0
  -25.2755   -9.5688   22.4771 H   0  0  0  0  0  0
  -23.9985   -7.4655   22.7513 H   0  0  0  0  0  0
  -21.0849   -8.8773   19.8943 H   0  0  0  0  0  0
  -22.3712  -10.9669   19.6161 H   0  0  0  0  0  0
  -21.2001   -7.6148   23.9706 H   0  0  0  0  0  0
  -21.1476   -6.0529   25.9075 H   0  0  0  0  0  0
  -22.0600   -2.7603   23.2856 H   0  0  0  0  0  0
  -22.4101  -11.9873   22.4725 H   0  0  0  0  0  0
  -21.1099  -13.1240   22.2553 H   0  0  0  0  0  0
  -24.6537  -15.8397   20.5159 H   0  0  0  0  0  0
  -26.2672  -15.6321   20.0632 H   0  0  0  0  0  0
  -26.7163  -32.5510   23.1192 H   0  0  0  0  0  0
  -25.0120  -33.9789   25.0494 H   0  0  0  0  0  0
  -22.6948  -31.3060   21.4132 H   0  0  0  0  0  0
  -23.3779  -35.9583   23.3273 H   0  0  0  0  0  0
  -24.3580  -36.8956   22.2067 H   0  0  0  0  0  0
  -23.7210  -37.6454   23.6709 H   0  0  0  0  0  0
  -26.0582  -31.5888   20.6068 H   0  0  0  0  0  0
  -26.8227  -30.8723   21.9977 H   0  0  0  0  0  0
  -28.1094  -29.0770   21.1813 H   0  0  0  0  0  0
  -26.0664  -25.9561   19.0265 H   0  0  0  0  0  0
  -23.9771  -27.2903   19.0445 H   0  0  0  0  0  0
  -23.7242  -30.5950   19.4079 H   0  0  0  0  0  0
  -22.7424  -29.2383   19.8750 H   0  0  0  0  0  0
  -25.1286  -36.1921   25.0821 H   0  0  0  0  0  0
  -20.9976  -28.3215   24.1442 H   0  0  0  0  0  0
  -20.5700  -26.2252   23.3594 H   0  0  0  0  0  0
  -21.6629  -26.7428   22.1181 H   0  0  0  0  0  0
  -19.6880  -25.6290   21.1232 H   0  0  0  0  0  0
  -19.6666  -27.3213   20.6771 H   0  0  0  0  0  0
  -17.4188  -26.6750   21.4012 H   0  0  0  0  0  0
  -18.0269  -26.0037   22.8986 H   0  0  0  0  0  0
  -19.7930  -30.7300   24.2236 H   0  0  0  0  0  0
  -17.4992  -31.6250   24.5156 H   0  0  0  0  0  0
  -15.5343  -30.2937   23.7672 H   0  0  0  0  0  0
  -15.8687  -28.0777   22.7093 H   0  0  0  0  0  0
  -24.5934  -30.7014   25.7756 H   0  0  0  0  0  0
  -24.8916  -32.2793   26.4943 H   0  0  0  0  0  0
  -25.8074  -30.8780   27.0207 H   0  0  0  0  0  0
  -26.2982  -29.6731   24.1266 H   0  0  0  0  0  0
  -27.4285  -29.7361   25.4608 H   0  0  0  0  0  0
  -27.8751  -30.4430   23.9269 H   0  0  0  0  0  0
  -27.2681  -33.3680   26.2050 H   0  0  0  0  0  0
  -28.3868  -32.6885   25.0322 H   0  0  0  0  0  0
  -28.0733  -31.8510   26.5448 H   0  0  0  0  0  0
  -28.2534  -38.0132   24.7594 H   0  0  0  0  0  0
  -28.1136  -36.2666   24.6189 H   0  0  0  0  0  0
  -27.2295  -37.1294   25.8858 H   0  0  0  0  0  0
  -20.9365  -29.8665   21.6869 H   0  0  0  0  0  0
  -26.0152  -38.2847   24.1493 H   0  0  0  0  0  0
  -30.8361  -18.7962   23.2360 H   0  0  0  0  0  0
  -28.7431  -17.7068   19.6215 H   0  0  0  0  0  0
  -29.8924  -21.0704   23.1029 H   0  0  0  0  0  0
  -27.8102  -20.0008   19.4915 H   0  0  0  0  0  0
  -26.0868  -24.4797   21.0904 H   0  0  0  0  0  0
  -31.0952  -24.0159   20.6533 H   0  0  0  0  0  0
  -31.0004  -22.2670   20.6485 H   0  0  0  0  0  0
  -31.0054  -23.1377   22.1786 H   0  0  0  0  0  0
  -29.8219  -25.9026   21.2557 H   0  0  0  0  0  0
  -28.3348  -26.2853   22.0750 H   0  0  0  0  0  0
  -29.0720  -15.5573   21.0916 H   0  0  0  0  0  0
  -25.1866  -22.1341   21.2084 H   0  0  0  0  0  0
  1 25  1  0  0  0
  1 30  2  0  0  0
  1 85  1  0  0  0
  2  3  1  0  0  0
  2 25  1  0  0  0
  2 88  1  0  0  0
  2 89  1  0  0  0
  3  4  1  0  0  0
  3 90  1  0  0  0
  3 91  1  0  0  0
  4  5  1  0  0  0
  4 92  1  0  0  0
  4 93  1  0  0  0
  5  6  1  0  0  0
  5 26  1  0  0  0
  5 94  1  0  0  0
  6 25  1  0  0  0
  6 95  1  0  0  0
  6 96  1  0  0  0
  7  8  2  0  0  0
  7 26  1  0  0  0
  7 29  1  0  0  0
  8  9  1  0  0  0
  8 22  1  0  0  0
  9 10  1  0  0  0
  9 27  2  0  0  0
 10 11  2  0  0  0
 10 15  1  0  0  0
 11 12  1  0  0  0
 11 97  1  0  0  0
 12 13  2  0  0  0
 12 98  1  0  0  0
 13 14  1  0  0  0
 13 31  1  0  0  0
 14 15  2  0  0  0
 14 99  1  0  0  0
 15100  1  0  0  0
 16 17  2  0  0  0
 16 21  1  0  0  0
 16 31  1  0  0  0
 17 18  1  0  0  0
 17101  1  0  0  0
 18 19  2  0  0  0
 18102  1  0  0  0
 19 20  1  0  0  0
 19 24  1  0  0  0
 20 21  2  0  0  0
 20103  1  0  0  0
 21 23  1  0  0  0
 22 28  1  0  0  0
 22 32  2  0  0  0
 26 27  1  0  0  0
 28104  1  0  0  0
 28105  1  0  0  0
 29106  1  0  0  0
 29107  1  0  0  0
 33 34  1  0  0  0
 33 66  1  0  0  0
 33 70  2  0  0  0
 34 36  1  0  0  0
 34 59  1  0  0  0
 34108  1  0  0  0
 35 44  2  0  0  0
 35 45  1  0  0  0
 35 68  1  0  0  0
 36 56  1  0  0  0
 36109  1  0  0  0
 37 39  1  0  0  0
 37 47  1  0  0  0
 37 66  1  0  0  0
 37110  1  0  0  0
 38 43  2  0  0  0
 38 46  1  0  0  0
 38 47  1  0  0  0
 39 64  1  0  0  0
 39 67  2  0  0  0
 40 52  1  0  0  0
 40 53  2  0  0  0
 40 58  1  0  0  0
 41111  1  0  0  0
 41112  1  0  0  0
 41113  1  0  0  0
 41 48  1  0  0  0
 42 43  1  0  0  0
 42 66  1  0  0  0
 42114  1  0  0  0
 42115  1  0  0  0
 43 44  1  0  0  0
 44116  1  0  0  0
 45 46  2  0  0  0
 45117  1  0  0  0
 46118  1  0  0  0
 47119  1  0  0  0
 47120  1  0  0  0
 48 56  1  0  0  0
 48 65  1  0  0  0
 48121  1  0  0  0
 49 50  1  0  0  0
 49 53  1  0  0  0
 49 64  1  0  0  0
 49122  1  0  0  0
 50 51  1  0  0  0
 50123  1  0  0  0
 50124  1  0  0  0
 51 52  1  0  0  0
 51125  1  0  0  0
 51126  1  0  0  0
 52127  1  0  0  0
 52128  1  0  0  0
 53 54  1  0  0  0
 54 55  2  0  0  0
 54129  1  0  0  0
 55 57  1  0  0  0
 55130  1  0  0  0
 56 69  2  0  0  0
 57 58  2  0  0  0
 57131  1  0  0  0
 58132  1  0  0  0
 59 60  1  0  0  0
 59 61  1  0  0  0
 59 62  1  0  0  0
 60133  1  0  0  0
 60134  1  0  0  0
 60135  1  0  0  0
 61136  1  0  0  0
 61137  1  0  0  0
 61138  1  0  0  0
 62139  1  0  0  0
 62140  1  0  0  0
 62141  1  0  0  0
 63 65  1  0  0  0
 63142  1  0  0  0
 63143  1  0  0  0
 63144  1  0  0  0
 64145  1  0  0  0
 65146  1  0  0  0
 68 83  1  0  0  0
 71 73  2  0  0  0
 71 76  1  0  0  0
 71147  1  0  0  0
 72 74  1  0  0  0
 72 76  2  0  0  0
 72148  1  0  0  0
 73 78  1  0  0  0
 73149  1  0  0  0
 74 78  2  0  0  0
 74150  1  0  0  0
 75 77  1  0  0  0
 75 80  2  0  0  0
 75151  1  0  0  0
 76 81  1  0  0  0
 77 79  2  0  0  0
 77 83  1  0  0  0
 78 84  1  0  0  0
 79 82  1  0  0  0
 79 84  1  0  0  0
 80 84  1  0  0  0
 80 87  1  0  0  0
 81 85  1  0  0  0
 81 86  2  0  0  0
 82152  1  0  0  0
 82153  1  0  0  0
 82154  1  0  0  0
 83155  1  0  0  0
 83156  1  0  0  0
 85157  1  0  0  0
 87158  1  0  0  0
M  ISO  4   1 100  68 101  83 101  85 100
M  END
> <chiral flag>
0

> <version>
0

> <s_m_source_file>
/data/baiqing/PycharmProjects/Reinvent-master-3.2/result/LINK_invent/BTK/process_docking_weight1_custom_product_contain_oxygen_bond_distance_aromatic_linkinvent_7_9_3/rearranged_h_0087.sdf

> <i_m_source_file_index>
41

> <r_mmod_Potential_Energy-OPLS-2005>
-57.7296485900879

> <r_mmod_Stretch_Energy-OPLS-2005>
45.0508766174316

> <r_mmod_Bend_Energy-OPLS-2005>
104.989707946777

> <r_mmod_Torsional_Energy-OPLS-2005>
276.650848388672

> <r_mmod_Improper_Torsional_Energy-OPLS-2005>
5.40927743911743

> <r_mmod_Van_der_Waal_Energy-OPLS-2005>
146.382904052734

> <r_mmod_Electrostatic_Energy-OPLS-2005>
-422.458099365234

> <r_mmod_Solvation_Energy-OPLS-2005>
-232.717651367188

> <b_mmod_Minimization_Converged-OPLS-2005>
0

> <r_mmod_RMS_Derivative-OPLS-2005>
2.35229420661926

$$$$
41
                    3D
 Structure written by MMmdl.
152161  0  0  1  0            999 V2000
  -30.6130  -14.6499   20.5056 C   0  0  0  0  0  0
  -30.4430  -12.3996   19.4520 C   0  0  0  0  0  0
  -29.5094  -12.5124   18.2252 C   0  0  0  0  0  0
  -28.0314  -12.3486   18.6349 C   0  0  0  0  0  0
  -27.6545  -13.2158   19.8655 C   0  0  2  0  0  0
  -28.6994  -13.0623   20.9935 C   0  0  0  0  0  0
  -25.2560  -13.8173   20.5692 C   0  0  0  0  0  0
  -24.1822  -13.0441   20.9192 C   0  0  0  0  0  0
  -24.6388  -11.6913   20.8747 C   0  0  0  0  0  0
  -23.9059  -10.4293   21.0407 C   0  0  0  0  0  0
  -24.3613   -9.4208   21.9180 C   0  0  0  0  0  0
  -23.6294   -8.2245   22.0746 C   0  0  0  0  0  0
  -22.4275   -8.0281   21.3541 C   0  0  0  0  0  0
  -21.9908   -9.0253   20.4641 C   0  0  0  0  0  0
  -22.7235  -10.2134   20.3052 C   0  0  0  0  0  0
  -21.6851   -6.0742   22.5285 C   0  0  0  0  0  0
  -21.4012   -6.5643   23.8220 C   0  0  0  0  0  0
  -21.3659   -5.6792   24.9181 C   0  0  0  0  0  0
  -21.6044   -4.3055   24.7226 C   0  0  0  0  0  0
  -21.8817   -3.8151   23.4345 C   0  0  0  0  0  0
  -21.9189   -4.6971   22.3406 C   0  0  0  0  0  0
  -22.7843  -13.5239   21.1856 C   0  0  0  0  0  0
  -22.1658   -4.2160   21.0981 F   0  0  0  0  0  0
  -21.5627   -3.4535   25.7735 F   0  0  0  0  0  0
  -30.0156  -13.4158   20.4357 N   0  0  0  0  0  0
  -26.2993  -12.9352   20.3326 N   0  0  0  0  0  0
  -25.9315  -11.6509   20.5756 N   0  0  0  0  0  0
  -22.0474  -12.8239   22.0411 N   0  0  0  0  0  0
  -25.4279  -15.1896   20.4115 N   0  0  0  0  0  0
  -31.7676  -14.8244   20.1043 O   0  0  0  0  0  0
  -21.6637   -6.8882   21.4244 O   0  0  0  0  0  0
  -22.3534  -14.5552   20.6710 O   0  0  0  0  0  0
  -24.6299  -31.8600   23.2056 C   0  0  0  0  0  0
  -25.9146  -32.4778   23.8379 C   0  0  1  0  0  0
  -27.2169  -27.2994   20.1109 C   0  0  0  0  0  0
  -25.5966  -33.8578   24.2312 N   0  0  0  0  0  0
  -23.4252  -30.4906   21.5456 C   0  0  2  0  0  0
  -24.8710  -28.9531   20.1073 C   0  0  0  0  0  0
  -22.7501  -29.4653   22.4886 C   0  0  0  0  0  0
  -18.0307  -28.1400   22.8487 C   0  0  0  0  0  0
  -24.1493  -36.7275   23.2635 C   0  0  0  0  0  0
  -25.9716  -30.7843   21.3838 C   0  0  0  0  0  0
  -26.0433  -29.4129   20.7207 C   0  0  0  0  0  0
  -27.2191  -28.5977   20.7168 C   0  0  0  0  0  0
  -26.0185  -26.9159   19.4563 C   0  0  0  0  0  0
  -24.8621  -27.7106   19.4652 C   0  0  0  0  0  0
  -23.6434  -29.8375   20.1575 C   0  0  0  0  0  0
  -25.4111  -36.3077   24.0341 C   0  0  1  0  0  0
  -20.5913  -28.3725   23.1253 C   0  0  2  0  0  0
  -20.6803  -26.9442   22.5393 C   0  0  0  0  0  0
  -19.5776  -26.6394   21.5210 C   0  0  0  0  0  0
  -18.1956  -26.7946   22.1622 C   0  0  0  0  0  0
  -19.1558  -28.8874   23.2873 C   0  0  0  0  0  0
  -18.9480  -30.1468   23.8903 C   0  0  0  0  0  0
  -17.6479  -30.6598   24.0574 C   0  0  0  0  0  0
  -25.9054  -34.9449   23.5116 C   0  0  0  0  0  0
  -16.5370  -29.9101   23.6331 C   0  0  0  0  0  0
  -16.7292  -28.6518   23.0353 C   0  0  0  0  0  0
  -26.4522  -31.6571   25.0735 C   0  0  0  0  0  0
  -25.3753  -31.3714   26.1456 C   0  0  0  0  0  0
  -27.0354  -30.2991   24.6186 C   0  0  0  0  0  0
  -27.6108  -32.4273   25.7488 C   0  0  0  0  0  0
  -27.5590  -37.1785   24.8463 C   0  0  0  0  0  0
  -21.4209  -29.3078   22.3633 N   0  0  0  0  0  0
  -26.4282  -37.3780   23.9433 N   0  0  0  0  0  0
  -24.6945  -31.0610   22.1017 N   0  0  0  0  0  0
  -23.4217  -28.8171   23.2956 O   0  0  0  0  0  0
  -28.3037  -26.3973   20.1762 O   0  0  0  0  0  0
  -26.5598  -34.8920   22.4667 O   0  0  0  0  0  0
  -23.5451  -32.1401   23.7367 O   0  0  0  0  0  0
  -30.8040  -19.3318   20.0734 C   0  0  0  0  0  0
  -28.6562  -19.3138   21.1394 C   0  0  0  0  0  0
  -30.8774  -17.9043   20.1691 C   0  0  0  0  0  0
  -28.7304  -17.8927   21.2391 C   0  0  0  0  0  0
  -29.6951  -20.0937   20.5589 C   0  0  0  0  0  0
  -29.8379  -17.1388   20.7641 C   0  0  0  0  0  0
  -30.2284  -23.7745   20.6108 C   0  0  0  0  0  0
  -28.9380  -23.7751   20.2762 C   0  0  0  0  0  0
  -30.6865  -22.4012   20.7552 C   0  0  0  0  0  0
  -28.5469  -22.3545   20.2089 C   0  0  0  0  0  0
  -27.9677  -24.9628   19.9418 C   0  0  0  0  0  0
  -29.6382  -21.5789   20.4974 N   0  0  0  0  0  0
  -29.7994  -15.6782   20.9094 N   0  0  0  0  0  0
  -31.8284  -22.0433   21.0673 O   0  0  0  0  0  0
  -27.4252  -21.9192   19.9225 O   0  0  0  0  0  0
  -31.4822  -12.5350   19.1474 H   0  0  0  0  0  0
  -30.3891  -11.4014   19.8893 H   0  0  0  0  0  0
  -29.7753  -11.7617   17.4796 H   0  0  0  0  0  0
  -29.6485  -13.4822   17.7448 H   0  0  0  0  0  0
  -27.8665  -11.2947   18.8608 H   0  0  0  0  0  0
  -27.3787  -12.5830   17.7931 H   0  0  0  0  0  0
  -27.6733  -14.2527   19.5298 H   0  0  0  0  0  0
  -28.7115  -12.0355   21.3621 H   0  0  0  0  0  0
  -28.4402  -13.6796   21.8545 H   0  0  0  0  0  0
  -25.2757   -9.5691   22.4757 H   0  0  0  0  0  0
  -24.0006   -7.4632   22.7459 H   0  0  0  0  0  0
  -21.0843   -8.8774   19.8942 H   0  0  0  0  0  0
  -22.3695  -10.9677   19.6166 H   0  0  0  0  0  0
  -21.2005   -7.6150   23.9733 H   0  0  0  0  0  0
  -21.1482   -6.0516   25.9086 H   0  0  0  0  0  0
  -22.0596   -2.7615   23.2838 H   0  0  0  0  0  0
  -22.4080  -11.9901   22.4815 H   0  0  0  0  0  0
  -21.1093  -13.1270   22.2603 H   0  0  0  0  0  0
  -24.6589  -15.8430   20.5148 H   0  0  0  0  0  0
  -26.2767  -15.6301   20.0809 H   0  0  0  0  0  0
  -26.7212  -32.5449   23.1125 H   0  0  0  0  0  0
  -25.0184  -33.9726   25.0507 H   0  0  0  0  0  0
  -22.7216  -31.3136   21.4046 H   0  0  0  0  0  0
  -23.3779  -35.9580   23.3250 H   0  0  0  0  0  0
  -24.3615  -36.8922   22.2061 H   0  0  0  0  0  0
  -23.7201  -37.6452   23.6666 H   0  0  0  0  0  0
  -26.1093  -31.5509   20.6201 H   0  0  0  0  0  0
  -26.8501  -30.8279   22.0155 H   0  0  0  0  0  0
  -28.1127  -28.9422   21.2188 H   0  0  0  0  0  0
  -25.9243  -25.9789   18.9308 H   0  0  0  0  0  0
  -23.9681  -27.3581   18.9691 H   0  0  0  0  0  0
  -23.7744  -30.6211   19.4100 H   0  0  0  0  0  0
  -22.7618  -29.2758   19.8437 H   0  0  0  0  0  0
  -25.1278  -36.1923   25.0830 H   0  0  0  0  0  0
  -21.0020  -28.3312   24.1368 H   0  0  0  0  0  0
  -20.5731  -26.2340   23.3602 H   0  0  0  0  0  0
  -21.6670  -26.7488   22.1168 H   0  0  0  0  0  0
  -19.6949  -25.6301   21.1252 H   0  0  0  0  0  0
  -19.6716  -27.3196   20.6736 H   0  0  0  0  0  0
  -17.4229  -26.6701   21.4017 H   0  0  0  0  0  0
  -18.0356  -26.0081   22.9012 H   0  0  0  0  0  0
  -19.7955  -30.7281   24.2277 H   0  0  0  0  0  0
  -17.5039  -31.6280   24.5172 H   0  0  0  0  0  0
  -15.5375  -30.3015   23.7647 H   0  0  0  0  0  0
  -15.8693  -28.0841   22.7063 H   0  0  0  0  0  0
  -24.5963  -30.7019   25.7789 H   0  0  0  0  0  0
  -24.8907  -32.2876   26.4839 H   0  0  0  0  0  0
  -25.8079  -30.8936   27.0253 H   0  0  0  0  0  0
  -26.2926  -29.6729   24.1230 H   0  0  0  0  0  0
  -27.4076  -29.7247   25.4678 H   0  0  0  0  0  0
  -27.8791  -30.4267   23.9402 H   0  0  0  0  0  0
  -27.2779  -33.3604   26.2041 H   0  0  0  0  0  0
  -28.3942  -32.6756   25.0315 H   0  0  0  0  0  0
  -28.0746  -31.8389   26.5413 H   0  0  0  0  0  0
  -28.2557  -38.0132   24.7572 H   0  0  0  0  0  0
  -28.1130  -36.2664   24.6189 H   0  0  0  0  0  0
  -27.2328  -37.1311   25.8868 H   0  0  0  0  0  0
  -20.9380  -29.8822   21.6862 H   0  0  0  0  0  0
  -26.0155  -38.2838   24.1486 H   0  0  0  0  0  0
  -31.6365  -19.8435   19.6110 H   0  0  0  0  0  0
  -27.7791  -19.8035   21.5391 H   0  0  0  0  0  0
  -31.7534  -17.4080   19.7761 H   0  0  0  0  0  0
  -27.9011  -17.3765   21.7024 H   0  0  0  0  0  0
  -30.8483  -24.6484   20.7322 H   0  0  0  0  0  0
  -27.0538  -24.7343   20.4940 H   0  0  0  0  0  0
  -27.7419  -24.8423   18.8815 H   0  0  0  0  0  0
  -28.9289  -15.3308   21.2808 H   0  0  0  0  0  0
  1 25  1  0  0  0
  1 30  2  0  0  0
  1 83  1  0  0  0
  2  3  1  0  0  0
  2 25  1  0  0  0
  2 86  1  0  0  0
  2 87  1  0  0  0
  3  4  1  0  0  0
  3 88  1  0  0  0
  3 89  1  0  0  0
  4  5  1  0  0  0
  4 90  1  0  0  0
  4 91  1  0  0  0
  5  6  1  0  0  0
  5 26  1  0  0  0
  5 92  1  0  0  0
  6 25  1  0  0  0
  6 93  1  0  0  0
  6 94  1  0  0  0
  7  8  2  0  0  0
  7 26  1  0  0  0
  7 29  1  0  0  0
  8  9  1  0  0  0
  8 22  1  0  0  0
  9 10  1  0  0  0
  9 27  2  0  0  0
 10 11  2  0  0  0
 10 15  1  0  0  0
 11 12  1  0  0  0
 11 95  1  0  0  0
 12 13  2  0  0  0
 12 96  1  0  0  0
 13 14  1  0  0  0
 13 31  1  0  0  0
 14 15  2  0  0  0
 14 97  1  0  0  0
 15 98  1  0  0  0
 16 17  2  0  0  0
 16 21  1  0  0  0
 16 31  1  0  0  0
 17 18  1  0  0  0
 17 99  1  0  0  0
 18 19  2  0  0  0
 18100  1  0  0  0
 19 20  1  0  0  0
 19 24  1  0  0  0
 20 21  2  0  0  0
 20101  1  0  0  0
 21 23  1  0  0  0
 22 28  1  0  0  0
 22 32  2  0  0  0
 26 27  1  0  0  0
 28102  1  0  0  0
 28103  1  0  0  0
 29104  1  0  0  0
 29105  1  0  0  0
 33 34  1  0  0  0
 33 66  1  0  0  0
 33 70  2  0  0  0
 34 36  1  0  0  0
 34 59  1  0  0  0
 34106  1  0  0  0
 35 44  2  0  0  0
 35 45  1  0  0  0
 35 68  1  0  0  0
 36 56  1  0  0  0
 36107  1  0  0  0
 37 39  1  0  0  0
 37 47  1  0  0  0
 37 66  1  0  0  0
 37108  1  0  0  0
 38 43  2  0  0  0
 38 46  1  0  0  0
 38 47  1  0  0  0
 39 64  1  0  0  0
 39 67  2  0  0  0
 40 52  1  0  0  0
 40 53  2  0  0  0
 40 58  1  0  0  0
 41109  1  0  0  0
 41110  1  0  0  0
 41111  1  0  0  0
 41 48  1  0  0  0
 42 43  1  0  0  0
 42 66  1  0  0  0
 42112  1  0  0  0
 42113  1  0  0  0
 43 44  1  0  0  0
 44114  1  0  0  0
 45 46  2  0  0  0
 45115  1  0  0  0
 46116  1  0  0  0
 47117  1  0  0  0
 47118  1  0  0  0
 48 56  1  0  0  0
 48 65  1  0  0  0
 48119  1  0  0  0
 49 50  1  0  0  0
 49 53  1  0  0  0
 49 64  1  0  0  0
 49120  1  0  0  0
 50 51  1  0  0  0
 50121  1  0  0  0
 50122  1  0  0  0
 51 52  1  0  0  0
 51123  1  0  0  0
 51124  1  0  0  0
 52125  1  0  0  0
 52126  1  0  0  0
 53 54  1  0  0  0
 54 55  2  0  0  0
 54127  1  0  0  0
 55 57  1  0  0  0
 55128  1  0  0  0
 56 69  2  0  0  0
 57 58  2  0  0  0
 57129  1  0  0  0
 58130  1  0  0  0
 59 60  1  0  0  0
 59 61  1  0  0  0
 59 62  1  0  0  0
 60131  1  0  0  0
 60132  1  0  0  0
 60133  1  0  0  0
 61134  1  0  0  0
 61135  1  0  0  0
 61136  1  0  0  0
 62137  1  0  0  0
 62138  1  0  0  0
 62139  1  0  0  0
 63 65  1  0  0  0
 63140  1  0  0  0
 63141  1  0  0  0
 63142  1  0  0  0
 64143  1  0  0  0
 65144  1  0  0  0
 68 81  1  0  0  0
 71 73  2  0  0  0
 71 75  1  0  0  0
 71145  1  0  0  0
 72 74  1  0  0  0
 72 75  2  0  0  0
 72146  1  0  0  0
 73 76  1  0  0  0
 73147  1  0  0  0
 74 76  2  0  0  0
 74148  1  0  0  0
 75 82  1  0  0  0
 76 83  1  0  0  0
 77 78  2  0  0  0
 77 79  1  0  0  0
 77149  1  0  0  0
 78 80  1  0  0  0
 78 81  1  0  0  0
 79 82  1  0  0  0
 79 84  2  0  0  0
 80 82  1  0  0  0
 80 85  2  0  0  0
 81150  1  0  0  0
 81151  1  0  0  0
 83152  1  0  0  0
M  ISO  4   1 100  68 101  81 101  83 100
M  END
> <chiral flag>
0

> <version>
0

> <s_m_source_file>
/data/baiqing/PycharmProjects/Reinvent-master-3.2/result/LINK_invent/BTK/process_docking_weight1_custom_product_contain_oxygen_bond_distance_aromatic_linkinvent_7_9_3/rearranged_h_0087.sdf

> <i_m_source_file_index>
42

> <r_mmod_Potential_Energy-OPLS-2005>
82.7786254882812

> <r_mmod_Stretch_Energy-OPLS-2005>
87.6945190429688

> <r_mmod_Bend_Energy-OPLS-2005>
189.800857543945

> <r_mmod_Torsional_Energy-OPLS-2005>
235.467269897461

> <r_mmod_Improper_Torsional_Energy-OPLS-2005>
3.68464469909668

> <r_mmod_Van_der_Waal_Energy-OPLS-2005>
148.999633789062

> <r_mmod_Electrostatic_Energy-OPLS-2005>
-403.608795166016

> <r_mmod_Solvation_Energy-OPLS-2005>
-237.189315795898

> <b_mmod_Minimization_Converged-OPLS-2005>
0

> <r_mmod_RMS_Derivative-OPLS-2005>
1.06836152076721

$$$$
42
                    3D
 Structure written by MMmdl.
155164  0  0  1  0            999 V2000
  -30.7615  -14.3996   20.5679 C   0  0  0  0  0  0
  -30.4055  -12.2601   19.4197 C   0  0  0  0  0  0
  -29.4882  -12.4989   18.2052 C   0  0  0  0  0  0
  -28.0094  -12.3743   18.6151 C   0  0  0  0  0  0
  -27.6617  -13.2159   19.8722 C   0  0  2  0  0  0
  -28.7034  -13.0072   20.9936 C   0  0  0  0  0  0
  -25.2596  -13.8201   20.5671 C   0  0  0  0  0  0
  -24.1844  -13.0469   20.9167 C   0  0  0  0  0  0
  -24.6404  -11.6934   20.8746 C   0  0  0  0  0  0
  -23.9070  -10.4304   21.0402 C   0  0  0  0  0  0
  -24.3608   -9.4205   21.9180 C   0  0  0  0  0  0
  -23.6276   -8.2245   22.0759 C   0  0  0  0  0  0
  -22.4263   -8.0286   21.3541 C   0  0  0  0  0  0
  -21.9909   -9.0253   20.4635 C   0  0  0  0  0  0
  -22.7245  -10.2131   20.3046 C   0  0  0  0  0  0
  -21.6841   -6.0738   22.5264 C   0  0  0  0  0  0
  -21.3998   -6.5640   23.8198 C   0  0  0  0  0  0
  -21.3651   -5.6792   24.9158 C   0  0  0  0  0  0
  -21.6045   -4.3060   24.7206 C   0  0  0  0  0  0
  -21.8816   -3.8149   23.4327 C   0  0  0  0  0  0
  -21.9186   -4.6971   22.3388 C   0  0  0  0  0  0
  -22.7870  -13.5265   21.1847 C   0  0  0  0  0  0
  -22.1668   -4.2162   21.0966 F   0  0  0  0  0  0
  -21.5621   -3.4544   25.7721 F   0  0  0  0  0  0
  -30.0425  -13.2549   20.4386 N   0  0  0  0  0  0
  -26.3043  -12.9388   20.3381 N   0  0  0  0  0  0
  -25.9336  -11.6536   20.5766 N   0  0  0  0  0  0
  -22.0527  -12.8228   22.0386 N   0  0  0  0  0  0
  -25.4354  -15.1921   20.4048 N   0  0  0  0  0  0
  -31.9173  -14.4823   20.1410 O   0  0  0  0  0  0
  -21.6618   -6.8882   21.4231 O   0  0  0  0  0  0
  -22.3542  -14.5575   20.6726 O   0  0  0  0  0  0
  -24.6092  -31.8711   23.2150 C   0  0  0  0  0  0
  -25.9018  -32.4827   23.8429 C   0  0  1  0  0  0
  -27.2368  -27.4708   20.1065 C   0  0  0  0  0  0
  -25.5918  -33.8635   24.2377 N   0  0  0  0  0  0
  -23.3957  -30.4938   21.5515 C   0  0  2  0  0  0
  -24.8458  -28.9616   20.1161 C   0  0  0  0  0  0
  -22.7376  -29.4679   22.5016 C   0  0  0  0  0  0
  -18.0264  -28.1387   22.8487 C   0  0  0  0  0  0
  -24.1480  -36.7299   23.2652 C   0  0  0  0  0  0
  -25.9190  -30.8448   21.3661 C   0  0  0  0  0  0
  -25.9980  -29.4793   20.7220 C   0  0  0  0  0  0
  -27.1962  -28.7377   20.7253 C   0  0  0  0  0  0
  -26.0802  -26.9643   19.4811 C   0  0  0  0  0  0
  -24.8787  -27.6990   19.4957 C   0  0  0  0  0  0
  -23.6035  -29.8215   20.1658 C   0  0  0  0  0  0
  -25.4104  -36.3117   24.0359 C   0  0  1  0  0  0
  -20.5849  -28.3653   23.1338 C   0  0  2  0  0  0
  -20.6754  -26.9387   22.5439 C   0  0  0  0  0  0
  -19.5740  -26.6389   21.5228 C   0  0  0  0  0  0
  -18.1900  -26.7962   22.1581 C   0  0  0  0  0  0
  -19.1516  -28.8837   23.2909 C   0  0  0  0  0  0
  -18.9449  -30.1452   23.8903 C   0  0  0  0  0  0
  -17.6447  -30.6581   24.0576 C   0  0  0  0  0  0
  -25.9018  -34.9479   23.5145 C   0  0  0  0  0  0
  -16.5337  -29.9074   23.6350 C   0  0  0  0  0  0
  -16.7254  -28.6507   23.0340 C   0  0  0  0  0  0
  -26.4502  -31.6591   25.0735 C   0  0  0  0  0  0
  -25.3789  -31.3600   26.1474 C   0  0  0  0  0  0
  -27.0411  -30.3073   24.6089 C   0  0  0  0  0  0
  -27.6073  -32.4326   25.7501 C   0  0  0  0  0  0
  -27.5584  -37.1796   24.8468 C   0  0  0  0  0  0
  -21.4109  -29.3027   22.3757 N   0  0  0  0  0  0
  -26.4292  -37.3789   23.9429 N   0  0  0  0  0  0
  -24.6589  -31.0853   22.1023 N   0  0  0  0  0  0
  -23.4171  -28.8234   23.3054 O   0  0  0  0  0  0
  -28.3752  -26.7100   20.0934 O   0  0  0  0  0  0
  -26.5535  -34.8913   22.4682 O   0  0  0  0  0  0
  -23.5298  -32.1465   23.7558 O   0  0  0  0  0  0
  -30.2729  -20.0840   19.3259 C   0  0  0  0  0  0
  -30.3528  -18.6877   19.2127 C   0  0  0  0  0  0
  -29.1440  -18.4193   21.3210 C   0  0  0  0  0  0
  -29.6297  -20.6460   20.4397 C   0  0  0  0  0  0
  -29.8032  -17.8484   20.2074 C   0  0  0  0  0  0
  -29.0534  -19.8254   21.4281 C   0  0  0  0  0  0
  -29.5389  -22.0867   20.6167 C   0  0  0  0  0  0
  -28.9096  -22.6369   21.6816 C   0  0  0  0  0  0
  -28.2608  -21.7836   22.6916 C   0  0  0  0  0  0
  -30.0355  -16.4062   20.0500 C   0  0  0  0  0  0
  -29.5090  -25.0136   21.3406 C   0  0  0  0  0  0
  -28.9097  -26.4187   21.3869 C   0  0  0  0  0  0
  -30.0538  -15.5194   20.9713 N   0  0  0  0  0  0
  -28.3929  -20.4496   22.5199 N   0  0  0  0  0  0
  -28.7616  -24.0217   21.8585 N   0  0  0  0  0  0
  -27.6192  -22.2284   23.6455 O   0  0  0  0  0  0
  -30.6129  -24.8445   20.8110 O   0  0  0  0  0  0
  -31.4527  -12.3163   19.1174 H   0  0  0  0  0  0
  -30.2688  -11.2504   19.8100 H   0  0  0  0  0  0
  -29.7144  -11.7871   17.4104 H   0  0  0  0  0  0
  -29.6722  -13.4890   17.7870 H   0  0  0  0  0  0
  -27.8065  -11.3204   18.8075 H   0  0  0  0  0  0
  -27.3634  -12.6598   17.7841 H   0  0  0  0  0  0
  -27.7052  -14.2622   19.5714 H   0  0  0  0  0  0
  -28.6548  -11.9867   21.3768 H   0  0  0  0  0  0
  -28.4892  -13.6550   21.8453 H   0  0  0  0  0  0
  -25.2752   -9.5646   22.4759 H   0  0  0  0  0  0
  -23.9957   -7.4627   22.7501 H   0  0  0  0  0  0
  -21.0833   -8.8746   19.8947 H   0  0  0  0  0  0
  -22.3699  -10.9647   19.6139 H   0  0  0  0  0  0
  -21.1987   -7.6148   23.9694 H   0  0  0  0  0  0
  -21.1489   -6.0533   25.9058 H   0  0  0  0  0  0
  -22.0615   -2.7614   23.2813 H   0  0  0  0  0  0
  -22.4167  -11.9869   22.4714 H   0  0  0  0  0  0
  -21.1139  -13.1225   22.2635 H   0  0  0  0  0  0
  -24.6795  -15.8604   20.5050 H   0  0  0  0  0  0
  -26.3077  -15.6182   20.1170 H   0  0  0  0  0  0
  -26.7084  -32.5575   23.1195 H   0  0  0  0  0  0
  -25.0205  -33.9837   25.0611 H   0  0  0  0  0  0
  -22.6816  -31.3080   21.4093 H   0  0  0  0  0  0
  -23.3756  -35.9611   23.3303 H   0  0  0  0  0  0
  -24.3573  -36.8913   22.2063 H   0  0  0  0  0  0
  -23.7178  -37.6483   23.6663 H   0  0  0  0  0  0
  -26.0298  -31.6045   20.5914 H   0  0  0  0  0  0
  -26.8081  -30.9024   21.9816 H   0  0  0  0  0  0
  -28.0848  -29.1392   21.1931 H   0  0  0  0  0  0
  -26.1078  -25.9994   18.9965 H   0  0  0  0  0  0
  -23.9921  -27.2973   19.0241 H   0  0  0  0  0  0
  -23.7052  -30.5942   19.4033 H   0  0  0  0  0  0
  -22.7310  -29.2346   19.8730 H   0  0  0  0  0  0
  -25.1279  -36.1994   25.0846 H   0  0  0  0  0  0
  -20.9940  -28.3217   24.1456 H   0  0  0  0  0  0
  -20.5671  -26.2258   23.3631 H   0  0  0  0  0  0
  -21.6629  -26.7443   22.1219 H   0  0  0  0  0  0
  -19.6895  -25.6304   21.1242 H   0  0  0  0  0  0
  -19.6722  -27.3226   20.6787 H   0  0  0  0  0  0
  -17.4223  -26.6806   21.3914 H   0  0  0  0  0  0
  -18.0185  -26.0066   22.8911 H   0  0  0  0  0  0
  -19.7921  -30.7286   24.2250 H   0  0  0  0  0  0
  -17.4989  -31.6264   24.5172 H   0  0  0  0  0  0
  -15.5337  -30.2959   23.7697 H   0  0  0  0  0  0
  -15.8656  -28.0846   22.7015 H   0  0  0  0  0  0
  -24.6143  -30.6724   25.7843 H   0  0  0  0  0  0
  -24.8755  -32.2669   26.4824 H   0  0  0  0  0  0
  -25.8213  -30.8943   27.0287 H   0  0  0  0  0  0
  -26.2966  -29.6710   24.1292 H   0  0  0  0  0  0
  -27.4390  -29.7420   25.4531 H   0  0  0  0  0  0
  -27.8678  -30.4467   23.9119 H   0  0  0  0  0  0
  -27.2704  -33.3597   26.2144 H   0  0  0  0  0  0
  -28.3850  -32.6924   25.0310 H   0  0  0  0  0  0
  -28.0785  -31.8412   26.5359 H   0  0  0  0  0  0
  -28.2599  -38.0103   24.7541 H   0  0  0  0  0  0
  -28.1089  -36.2631   24.6269 H   0  0  0  0  0  0
  -27.2310  -37.1407   25.8875 H   0  0  0  0  0  0
  -20.9271  -29.8742   21.6969 H   0  0  0  0  0  0
  -26.0190  -38.2869   24.1440 H   0  0  0  0  0  0
  -30.7160  -20.7154   18.5688 H   0  0  0  0  0  0
  -30.8793  -18.2660   18.3669 H   0  0  0  0  0  0
  -28.7279  -17.7807   22.0883 H   0  0  0  0  0  0
  -29.9863  -22.6892   19.8412 H   0  0  0  0  0  0
  -30.2950  -16.1393   19.0166 H   0  0  0  0  0  0
  -29.6808  -27.1411   21.6522 H   0  0  0  0  0  0
  -28.1434  -26.4589   22.1647 H   0  0  0  0  0  0
  -27.9649  -19.8527   23.2125 H   0  0  0  0  0  0
  -27.9653  -24.2888   22.4221 H   0  0  0  0  0  0
  1 25  1  0  0  0
  1 30  2  0  0  0
  1 83  1  0  0  0
  2  3  1  0  0  0
  2 25  1  0  0  0
  2 88  1  0  0  0
  2 89  1  0  0  0
  3  4  1  0  0  0
  3 90  1  0  0  0
  3 91  1  0  0  0
  4  5  1  0  0  0
  4 92  1  0  0  0
  4 93  1  0  0  0
  5  6  1  0  0  0
  5 26  1  0  0  0
  5 94  1  0  0  0
  6 25  1  0  0  0
  6 95  1  0  0  0
  6 96  1  0  0  0
  7  8  2  0  0  0
  7 26  1  0  0  0
  7 29  1  0  0  0
  8  9  1  0  0  0
  8 22  1  0  0  0
  9 10  1  0  0  0
  9 27  2  0  0  0
 10 11  2  0  0  0
 10 15  1  0  0  0
 11 12  1  0  0  0
 11 97  1  0  0  0
 12 13  2  0  0  0
 12 98  1  0  0  0
 13 14  1  0  0  0
 13 31  1  0  0  0
 14 15  2  0  0  0
 14 99  1  0  0  0
 15100  1  0  0  0
 16 17  2  0  0  0
 16 21  1  0  0  0
 16 31  1  0  0  0
 17 18  1  0  0  0
 17101  1  0  0  0
 18 19  2  0  0  0
 18102  1  0  0  0
 19 20  1  0  0  0
 19 24  1  0  0  0
 20 21  2  0  0  0
 20103  1  0  0  0
 21 23  1  0  0  0
 22 28  1  0  0  0
 22 32  2  0  0  0
 26 27  1  0  0  0
 28104  1  0  0  0
 28105  1  0  0  0
 29106  1  0  0  0
 29107  1  0  0  0
 33 34  1  0  0  0
 33 66  1  0  0  0
 33 70  2  0  0  0
 34 36  1  0  0  0
 34 59  1  0  0  0
 34108  1  0  0  0
 35 44  2  0  0  0
 35 45  1  0  0  0
 35 68  1  0  0  0
 36 56  1  0  0  0
 36109  1  0  0  0
 37 39  1  0  0  0
 37 47  1  0  0  0
 37 66  1  0  0  0
 37110  1  0  0  0
 38 43  2  0  0  0
 38 46  1  0  0  0
 38 47  1  0  0  0
 39 64  1  0  0  0
 39 67  2  0  0  0
 40 52  1  0  0  0
 40 53  2  0  0  0
 40 58  1  0  0  0
 41111  1  0  0  0
 41112  1  0  0  0
 41113  1  0  0  0
 41 48  1  0  0  0
 42 43  1  0  0  0
 42 66  1  0  0  0
 42114  1  0  0  0
 42115  1  0  0  0
 43 44  1  0  0  0
 44116  1  0  0  0
 45 46  2  0  0  0
 45117  1  0  0  0
 46118  1  0  0  0
 47119  1  0  0  0
 47120  1  0  0  0
 48 56  1  0  0  0
 48 65  1  0  0  0
 48121  1  0  0  0
 49 50  1  0  0  0
 49 53  1  0  0  0
 49 64  1  0  0  0
 49122  1  0  0  0
 50 51  1  0  0  0
 50123  1  0  0  0
 50124  1  0  0  0
 51 52  1  0  0  0
 51125  1  0  0  0
 51126  1  0  0  0
 52127  1  0  0  0
 52128  1  0  0  0
 53 54  1  0  0  0
 54 55  2  0  0  0
 54129  1  0  0  0
 55 57  1  0  0  0
 55130  1  0  0  0
 56 69  2  0  0  0
 57 58  2  0  0  0
 57131  1  0  0  0
 58132  1  0  0  0
 59 60  1  0  0  0
 59 61  1  0  0  0
 59 62  1  0  0  0
 60133  1  0  0  0
 60134  1  0  0  0
 60135  1  0  0  0
 61136  1  0  0  0
 61137  1  0  0  0
 61138  1  0  0  0
 62139  1  0  0  0
 62140  1  0  0  0
 62141  1  0  0  0
 63 65  1  0  0  0
 63142  1  0  0  0
 63143  1  0  0  0
 63144  1  0  0  0
 64145  1  0  0  0
 65146  1  0  0  0
 68 82  1  0  0  0
 71 72  2  0  0  0
 71 74  1  0  0  0
 71147  1  0  0  0
 72 75  1  0  0  0
 72148  1  0  0  0
 73 75  2  0  0  0
 73 76  1  0  0  0
 73149  1  0  0  0
 74 76  2  0  0  0
 74 77  1  0  0  0
 75 80  1  0  0  0
 76 84  1  0  0  0
 77 78  2  0  0  0
 77150  1  0  0  0
 78 79  1  0  0  0
 78 85  1  0  0  0
 79 84  1  0  0  0
 79 86  2  0  0  0
 80 83  2  0  0  0
 80151  1  0  0  0
 81 82  1  0  0  0
 81 85  1  0  0  0
 81 87  2  0  0  0
 82152  1  0  0  0
 82153  1  0  0  0
 84154  1  0  0  0
 85155  1  0  0  0
M  ISO  4   1 100  68 101  82 101  83 100
M  END
> <chiral flag>
0

> <version>
0

> <s_m_source_file>
/data/baiqing/PycharmProjects/Reinvent-master-3.2/result/LINK_invent/BTK/process_docking_weight1_custom_product_contain_oxygen_bond_distance_aromatic_linkinvent_7_9_3/rearranged_h_0087.sdf

> <i_m_source_file_index>
43

> <r_mmod_Potential_Energy-OPLS-2005>
-127.522521972656

> <r_mmod_Stretch_Energy-OPLS-2005>
35.0577774047852

> <r_mmod_Bend_Energy-OPLS-2005>
97.2378158569336

> <r_mmod_Torsional_Energy-OPLS-2005>
227.040985107422

> <r_mmod_Improper_Torsional_Energy-OPLS-2005>
6.21067190170288

> <r_mmod_Van_der_Waal_Energy-OPLS-2005>
192.423629760742

> <r_mmod_Electrostatic_Energy-OPLS-2005>
-472.454071044922

> <r_mmod_Solvation_Energy-OPLS-2005>
-227.450164794922

> <b_mmod_Minimization_Converged-OPLS-2005>
0

> <r_mmod_RMS_Derivative-OPLS-2005>
2.84205317497253

$$$$
43
                    3D
 Structure written by MMmdl.
155164  0  0  1  0            999 V2000
  -30.5930  -14.8680   20.4884 C   0  0  0  0  0  0
  -30.4322  -12.5508   19.4778 C   0  0  0  0  0  0
  -29.5124  -12.5624   18.2358 C   0  0  0  0  0  0
  -28.0366  -12.3699   18.6395 C   0  0  0  0  0  0
  -27.6367  -13.2415   19.8597 C   0  0  2  0  0  0
  -28.6859  -13.1435   20.9826 C   0  0  0  0  0  0
  -25.2460  -13.8203   20.5709 C   0  0  0  0  0  0
  -24.1772  -13.0436   20.9198 C   0  0  0  0  0  0
  -24.6375  -11.6911   20.8734 C   0  0  0  0  0  0
  -23.9057  -10.4287   21.0371 C   0  0  0  0  0  0
  -24.3602   -9.4222   21.9169 C   0  0  0  0  0  0
  -23.6276   -8.2261   22.0750 C   0  0  0  0  0  0
  -22.4262   -8.0285   21.3535 C   0  0  0  0  0  0
  -21.9895   -9.0254   20.4641 C   0  0  0  0  0  0
  -22.7212  -10.2134   20.3045 C   0  0  0  0  0  0
  -21.6858   -6.0728   22.5274 C   0  0  0  0  0  0
  -21.3991   -6.5621   23.8205 C   0  0  0  0  0  0
  -21.3675   -5.6777   24.9168 C   0  0  0  0  0  0
  -21.6072   -4.3047   24.7216 C   0  0  0  0  0  0
  -21.8808   -3.8132   23.4331 C   0  0  0  0  0  0
  -21.9178   -4.6952   22.3388 C   0  0  0  0  0  0
  -22.7794  -13.5213   21.1879 C   0  0  0  0  0  0
  -22.1648   -4.2149   21.0958 F   0  0  0  0  0  0
  -21.5647   -3.4525   25.7722 F   0  0  0  0  0  0
  -29.9586  -13.6204   20.4098 N   0  0  0  0  0  0
  -26.2889  -12.9430   20.3300 N   0  0  0  0  0  0
  -25.9294  -11.6555   20.5704 N   0  0  0  0  0  0
  -22.0464  -12.8190   22.0445 N   0  0  0  0  0  0
  -25.4119  -15.1934   20.4157 N   0  0  0  0  0  0
  -31.7772  -14.8732   20.1386 O   0  0  0  0  0  0
  -21.6644   -6.8874   21.4230 O   0  0  0  0  0  0
  -22.3498  -14.5552   20.6766 O   0  0  0  0  0  0
  -24.6331  -31.8493   23.1916 C   0  0  0  0  0  0
  -25.9130  -32.4705   23.8294 C   0  0  1  0  0  0
  -27.2186  -27.2143   20.1607 C   0  0  0  0  0  0
  -25.5933  -33.8519   24.2220 N   0  0  0  0  0  0
  -23.4322  -30.4699   21.5299 C   0  0  2  0  0  0
  -24.8844  -28.8990   20.1165 C   0  0  0  0  0  0
  -22.7501  -29.4585   22.4828 C   0  0  0  0  0  0
  -18.0291  -28.1398   22.8488 C   0  0  0  0  0  0
  -24.1521  -36.7269   23.2649 C   0  0  0  0  0  0
  -25.9782  -30.7524   21.3752 C   0  0  0  0  0  0
  -26.0528  -29.3620   20.7363 C   0  0  0  0  0  0
  -27.2287  -28.5343   20.7418 C   0  0  0  0  0  0
  -26.0287  -26.8216   19.5213 C   0  0  0  0  0  0
  -24.8790  -27.6399   19.4946 C   0  0  0  0  0  0
  -23.6569  -29.7928   20.1504 C   0  0  0  0  0  0
  -25.4139  -36.3028   24.0331 C   0  0  1  0  0  0
  -20.5906  -28.3735   23.1255 C   0  0  2  0  0  0
  -20.6789  -26.9447   22.5407 C   0  0  0  0  0  0
  -19.5754  -26.6400   21.5227 C   0  0  0  0  0  0
  -18.1936  -26.7937   22.1632 C   0  0  0  0  0  0
  -19.1544  -28.8877   23.2886 C   0  0  0  0  0  0
  -18.9463  -30.1475   23.8905 C   0  0  0  0  0  0
  -17.6465  -30.6611   24.0565 C   0  0  0  0  0  0
  -25.9072  -34.9400   23.5073 C   0  0  0  0  0  0
  -16.5363  -29.9106   23.6325 C   0  0  0  0  0  0
  -16.7275  -28.6518   23.0345 C   0  0  0  0  0  0
  -26.4494  -31.6527   25.0679 C   0  0  0  0  0  0
  -25.3746  -31.3592   26.1403 C   0  0  0  0  0  0
  -27.0303  -30.2937   24.6150 C   0  0  0  0  0  0
  -27.6034  -32.4301   25.7435 C   0  0  0  0  0  0
  -27.5573  -37.1807   24.8470 C   0  0  0  0  0  0
  -21.4198  -29.3078   22.3612 N   0  0  0  0  0  0
  -26.4275  -37.3755   23.9426 N   0  0  0  0  0  0
  -24.6997  -31.0460   22.0881 N   0  0  0  0  0  0
  -23.4198  -28.8156   23.2944 O   0  0  0  0  0  0
  -28.3240  -26.3338   20.0532 O   0  0  0  0  0  0
  -26.5635  -34.8880   22.4642 O   0  0  0  0  0  0
  -23.5477  -32.1318   23.7221 O   0  0  0  0  0  0
  -31.9440  -19.1467   19.5540 C   0  0  0  0  0  0
  -31.0848  -20.2514   19.6844 C   0  0  0  0  0  0
  -31.5286  -17.8334   19.8474 C   0  0  0  0  0  0
  -29.3405  -18.7213   20.4135 C   0  0  0  0  0  0
  -29.7399  -20.1066   20.0899 C   0  0  0  0  0  0
  -30.2278  -17.5310   20.3223 C   0  0  0  0  0  0
  -28.4722  -23.7526   20.1585 C   0  0  0  0  0  0
  -28.9669  -22.5020   20.8428 C   0  0  0  0  0  0
  -28.4062  -21.7884   18.8154 C   0  0  0  0  0  0
  -28.4441  -25.0502   20.6905 C   0  0  0  0  0  0
  -28.0881  -23.2933   18.7833 C   0  0  0  0  0  0
  -28.9427  -16.0906   21.8680 C   0  0  0  0  0  0
  -28.9330  -21.3895   20.0004 N   0  0  0  0  0  0
  -29.8977  -16.0997   20.7562 N   0  0  0  0  0  0
  -29.3488  -22.4430   22.0166 O   0  0  0  0  0  0
  -28.1746  -21.0540   17.8476 O   0  0  0  0  0  0
  -31.4706  -12.6840   19.1676 H   0  0  0  0  0  0
  -30.4004  -11.5709   19.9592 H   0  0  0  0  0  0
  -29.8123  -11.7816   17.5342 H   0  0  0  0  0  0
  -29.6294  -13.5118   17.7079 H   0  0  0  0  0  0
  -27.8902  -11.3155   18.8757 H   0  0  0  0  0  0
  -27.3862  -12.5865   17.7919 H   0  0  0  0  0  0
  -27.6301  -14.2737   19.5073 H   0  0  0  0  0  0
  -28.7802  -12.1127   21.3262 H   0  0  0  0  0  0
  -28.3674  -13.6665   21.8764 H   0  0  0  0  0  0
  -25.2724   -9.5751   22.4752 H   0  0  0  0  0  0
  -24.0005   -7.4678   22.7473 H   0  0  0  0  0  0
  -21.0826   -8.8750   19.8949 H   0  0  0  0  0  0
  -22.3627  -10.9674   19.6178 H   0  0  0  0  0  0
  -21.1954   -7.6128   23.9711 H   0  0  0  0  0  0
  -21.1513   -6.0496   25.9081 H   0  0  0  0  0  0
  -22.0562   -2.7588   23.2814 H   0  0  0  0  0  0
  -22.4016  -11.9794   22.4783 H   0  0  0  0  0  0
  -21.1113  -13.1266   22.2709 H   0  0  0  0  0  0
  -24.6448  -15.8471   20.5292 H   0  0  0  0  0  0
  -26.2631  -15.6371   20.0949 H   0  0  0  0  0  0
  -26.7187  -32.5346   23.1041 H   0  0  0  0  0  0
  -25.0143  -33.9672   25.0401 H   0  0  0  0  0  0
  -22.7348  -31.2953   21.3733 H   0  0  0  0  0  0
  -23.3758  -35.9617   23.3267 H   0  0  0  0  0  0
  -24.3614  -36.8923   22.2063 H   0  0  0  0  0  0
  -23.7286  -37.6472   23.6704 H   0  0  0  0  0  0
  -26.1121  -31.4994   20.5916 H   0  0  0  0  0  0
  -26.8587  -30.8191   22.0020 H   0  0  0  0  0  0
  -28.1337  -28.8967   21.2107 H   0  0  0  0  0  0
  -25.9866  -25.8549   19.0381 H   0  0  0  0  0  0
  -23.9893  -27.2867   18.9939 H   0  0  0  0  0  0
  -23.7899  -30.5621   19.3884 H   0  0  0  0  0  0
  -22.7769  -29.2246   19.8426 H   0  0  0  0  0  0
  -25.1330  -36.1845   25.0816 H   0  0  0  0  0  0
  -21.0015  -28.3322   24.1371 H   0  0  0  0  0  0
  -20.5704  -26.2356   23.3623 H   0  0  0  0  0  0
  -21.6657  -26.7477   22.1189 H   0  0  0  0  0  0
  -19.6938  -25.6316   21.1247 H   0  0  0  0  0  0
  -19.6687  -27.3218   20.6761 H   0  0  0  0  0  0
  -17.4216  -26.6682   21.4020 H   0  0  0  0  0  0
  -18.0355  -26.0081   22.9029 H   0  0  0  0  0  0
  -19.7944  -30.7292   24.2271 H   0  0  0  0  0  0
  -17.5020  -31.6270   24.5203 H   0  0  0  0  0  0
  -15.5370  -30.3011   23.7651 H   0  0  0  0  0  0
  -15.8666  -28.0845   22.7054 H   0  0  0  0  0  0
  -24.6055  -30.6783   25.7741 H   0  0  0  0  0  0
  -24.8776  -32.2672   26.4827 H   0  0  0  0  0  0
  -25.8145  -30.8827   27.0173 H   0  0  0  0  0  0
  -26.2809  -29.6692   24.1270 H   0  0  0  0  0  0
  -27.4033  -29.7226   25.4661 H   0  0  0  0  0  0
  -27.8693  -30.4163   23.9299 H   0  0  0  0  0  0
  -27.2665  -33.3704   26.1833 H   0  0  0  0  0  0
  -28.3913  -32.6695   25.0273 H   0  0  0  0  0  0
  -28.0605  -31.8514   26.5483 H   0  0  0  0  0  0
  -28.2570  -38.0131   24.7518 H   0  0  0  0  0  0
  -28.1084  -36.2644   24.6283 H   0  0  0  0  0  0
  -27.2273  -37.1428   25.8869 H   0  0  0  0  0  0
  -20.9403  -29.8814   21.6812 H   0  0  0  0  0  0
  -26.0113  -38.2806   24.1445 H   0  0  0  0  0  0
  -32.9571  -19.3095   19.2146 H   0  0  0  0  0  0
  -31.4657  -21.2299   19.4214 H   0  0  0  0  0  0
  -32.2853  -17.0797   19.7233 H   0  0  0  0  0  0
  -28.3185  -18.5697   20.7316 H   0  0  0  0  0  0
  -28.7683  -25.1983   21.7127 H   0  0  0  0  0  0
  -28.6742  -23.8046   18.0188 H   0  0  0  0  0  0
  -27.0245  -23.4531   18.5964 H   0  0  0  0  0  0
  -27.9491  -15.8062   21.5272 H   0  0  0  0  0  0
  -28.8593  -17.0599   22.3623 H   0  0  0  0  0  0
  -29.2683  -15.4195   22.6639 H   0  0  0  0  0  0
  1 25  1  0  0  0
  1 30  2  0  0  0
  1 84  1  0  0  0
  2  3  1  0  0  0
  2 25  1  0  0  0
  2 87  1  0  0  0
  2 88  1  0  0  0
  3  4  1  0  0  0
  3 89  1  0  0  0
  3 90  1  0  0  0
  4  5  1  0  0  0
  4 91  1  0  0  0
  4 92  1  0  0  0
  5  6  1  0  0  0
  5 26  1  0  0  0
  5 93  1  0  0  0
  6 25  1  0  0  0
  6 94  1  0  0  0
  6 95  1  0  0  0
  7  8  2  0  0  0
  7 26  1  0  0  0
  7 29  1  0  0  0
  8  9  1  0  0  0
  8 22  1  0  0  0
  9 10  1  0  0  0
  9 27  2  0  0  0
 10 11  2  0  0  0
 10 15  1  0  0  0
 11 12  1  0  0  0
 11 96  1  0  0  0
 12 13  2  0  0  0
 12 97  1  0  0  0
 13 14  1  0  0  0
 13 31  1  0  0  0
 14 15  2  0  0  0
 14 98  1  0  0  0
 15 99  1  0  0  0
 16 17  2  0  0  0
 16 21  1  0  0  0
 16 31  1  0  0  0
 17 18  1  0  0  0
 17100  1  0  0  0
 18 19  2  0  0  0
 18101  1  0  0  0
 19 20  1  0  0  0
 19 24  1  0  0  0
 20 21  2  0  0  0
 20102  1  0  0  0
 21 23  1  0  0  0
 22 28  1  0  0  0
 22 32  2  0  0  0
 26 27  1  0  0  0
 28103  1  0  0  0
 28104  1  0  0  0
 29105  1  0  0  0
 29106  1  0  0  0
 33 34  1  0  0  0
 33 66  1  0  0  0
 33 70  2  0  0  0
 34 36  1  0  0  0
 34 59  1  0  0  0
 34107  1  0  0  0
 35 44  2  0  0  0
 35 45  1  0  0  0
 35 68  1  0  0  0
 36 56  1  0  0  0
 36108  1  0  0  0
 37 39  1  0  0  0
 37 47  1  0  0  0
 37 66  1  0  0  0
 37109  1  0  0  0
 38 43  2  0  0  0
 38 46  1  0  0  0
 38 47  1  0  0  0
 39 64  1  0  0  0
 39 67  2  0  0  0
 40 52  1  0  0  0
 40 53  2  0  0  0
 40 58  1  0  0  0
 41110  1  0  0  0
 41111  1  0  0  0
 41112  1  0  0  0
 41 48  1  0  0  0
 42 43  1  0  0  0
 42 66  1  0  0  0
 42113  1  0  0  0
 42114  1  0  0  0
 43 44  1  0  0  0
 44115  1  0  0  0
 45 46  2  0  0  0
 45116  1  0  0  0
 46117  1  0  0  0
 47118  1  0  0  0
 47119  1  0  0  0
 48 56  1  0  0  0
 48 65  1  0  0  0
 48120  1  0  0  0
 49 50  1  0  0  0
 49 53  1  0  0  0
 49 64  1  0  0  0
 49121  1  0  0  0
 50 51  1  0  0  0
 50122  1  0  0  0
 50123  1  0  0  0
 51 52  1  0  0  0
 51124  1  0  0  0
 51125  1  0  0  0
 52126  1  0  0  0
 52127  1  0  0  0
 53 54  1  0  0  0
 54 55  2  0  0  0
 54128  1  0  0  0
 55 57  1  0  0  0
 55129  1  0  0  0
 56 69  2  0  0  0
 57 58  2  0  0  0
 57130  1  0  0  0
 58131  1  0  0  0
 59 60  1  0  0  0
 59 61  1  0  0  0
 59 62  1  0  0  0
 60132  1  0  0  0
 60133  1  0  0  0
 60134  1  0  0  0
 61135  1  0  0  0
 61136  1  0  0  0
 61137  1  0  0  0
 62138  1  0  0  0
 62139  1  0  0  0
 62140  1  0  0  0
 63 65  1  0  0  0
 63141  1  0  0  0
 63142  1  0  0  0
 63143  1  0  0  0
 64144  1  0  0  0
 65145  1  0  0  0
 68 80  1  0  0  0
 71 72  2  0  0  0
 71 73  1  0  0  0
 71146  1  0  0  0
 72 75  1  0  0  0
 72147  1  0  0  0
 73 76  2  0  0  0
 73148  1  0  0  0
 74 75  2  0  0  0
 74 76  1  0  0  0
 74149  1  0  0  0
 75 83  1  0  0  0
 76 84  1  0  0  0
 77 78  1  0  0  0
 77 80  2  0  0  0
 77 81  1  0  0  0
 78 83  1  0  0  0
 78 85  2  0  0  0
 79 81  1  0  0  0
 79 83  1  0  0  0
 79 86  2  0  0  0
 80150  1  0  0  0
 81151  1  0  0  0
 81152  1  0  0  0
 82 84  1  0  0  0
 82153  1  0  0  0
 82154  1  0  0  0
 82155  1  0  0  0
M  ISO  4   1 100  68 101  80 101  84 100
M  END
> <chiral flag>
0

> <version>
0

> <s_m_source_file>
/data/baiqing/PycharmProjects/Reinvent-master-3.2/result/LINK_invent/BTK/process_docking_weight1_custom_product_contain_oxygen_bond_distance_aromatic_linkinvent_7_9_3/rearranged_h_0087.sdf

> <i_m_source_file_index>
44

> <r_mmod_Potential_Energy-OPLS-2005>
563.151977539062

> <r_mmod_Stretch_Energy-OPLS-2005>
184.757965087891

> <r_mmod_Bend_Energy-OPLS-2005>
261.755645751953

> <r_mmod_Torsional_Energy-OPLS-2005>
356.787231445312

> <r_mmod_Improper_Torsional_Energy-OPLS-2005>
7.24093627929688

> <r_mmod_Van_der_Waal_Energy-OPLS-2005>
145.102584838867

> <r_mmod_Electrostatic_Energy-OPLS-2005>
-288.024444580078

> <r_mmod_Solvation_Energy-OPLS-2005>
-220.090866088867

> <b_mmod_Minimization_Converged-OPLS-2005>
0

> <r_mmod_RMS_Derivative-OPLS-2005>
3.82931876182556

$$$$
44
                    3D
 Structure written by MMmdl.
151159  0  0  1  0            999 V2000
  -30.5964  -14.7735   20.4311 C   0  0  0  0  0  0
  -30.4310  -12.4666   19.4845 C   0  0  0  0  0  0
  -29.5123  -12.5208   18.2422 C   0  0  0  0  0  0
  -28.0394  -12.3392   18.6536 C   0  0  0  0  0  0
  -27.6437  -13.2385   19.8547 C   0  0  2  0  0  0
  -28.6873  -13.1781   20.9935 C   0  0  0  0  0  0
  -25.2515  -13.8217   20.5690 C   0  0  0  0  0  0
  -24.1811  -13.0451   20.9187 C   0  0  0  0  0  0
  -24.6414  -11.6931   20.8744 C   0  0  0  0  0  0
  -23.9093  -10.4303   21.0407 C   0  0  0  0  0  0
  -24.3644   -9.4213   21.9183 C   0  0  0  0  0  0
  -23.6317   -8.2246   22.0763 C   0  0  0  0  0  0
  -22.4298   -8.0288   21.3547 C   0  0  0  0  0  0
  -21.9929   -9.0262   20.4655 C   0  0  0  0  0  0
  -22.7264  -10.2141   20.3054 C   0  0  0  0  0  0
  -21.6854   -6.0741   22.5277 C   0  0  0  0  0  0
  -21.4017   -6.5643   23.8207 C   0  0  0  0  0  0
  -21.3662   -5.6797   24.9169 C   0  0  0  0  0  0
  -21.6044   -4.3060   24.7219 C   0  0  0  0  0  0
  -21.8819   -3.8150   23.4340 C   0  0  0  0  0  0
  -21.9195   -4.6964   22.3400 C   0  0  0  0  0  0
  -22.7825  -13.5222   21.1841 C   0  0  0  0  0  0
  -22.1657   -4.2150   21.0976 F   0  0  0  0  0  0
  -21.5639   -3.4545   25.7731 F   0  0  0  0  0  0
  -29.9908  -13.5323   20.4193 N   0  0  0  0  0  0
  -26.2955  -12.9438   20.3299 N   0  0  0  0  0  0
  -25.9352  -11.6572   20.5762 N   0  0  0  0  0  0
  -22.0475  -12.8220   22.0409 N   0  0  0  0  0  0
  -25.4227  -15.1944   20.4123 N   0  0  0  0  0  0
  -31.7696  -14.8724   20.0604 O   0  0  0  0  0  0
  -21.6655   -6.8889   21.4241 O   0  0  0  0  0  0
  -22.3498  -14.5516   20.6677 O   0  0  0  0  0  0
  -24.6328  -31.8544   23.1994 C   0  0  0  0  0  0
  -25.9151  -32.4750   23.8334 C   0  0  1  0  0  0
  -27.2090  -27.2336   20.1270 C   0  0  0  0  0  0
  -25.5947  -33.8556   24.2254 N   0  0  0  0  0  0
  -23.4307  -30.4796   21.5422 C   0  0  2  0  0  0
  -24.8772  -28.9294   20.1069 C   0  0  0  0  0  0
  -22.7504  -29.4607   22.4888 C   0  0  0  0  0  0
  -18.0297  -28.1398   22.8465 C   0  0  0  0  0  0
  -24.1496  -36.7282   23.2634 C   0  0  0  0  0  0
  -25.9806  -30.7547   21.3889 C   0  0  0  0  0  0
  -26.0503  -29.3771   20.7275 C   0  0  0  0  0  0
  -27.2170  -28.5399   20.7341 C   0  0  0  0  0  0
  -26.0199  -26.8829   19.4454 C   0  0  0  0  0  0
  -24.8693  -27.6907   19.4547 C   0  0  0  0  0  0
  -23.6500  -29.8195   20.1572 C   0  0  0  0  0  0
  -25.4124  -36.3069   24.0322 C   0  0  1  0  0  0
  -20.5897  -28.3715   23.1244 C   0  0  2  0  0  0
  -20.6791  -26.9431   22.5390 C   0  0  0  0  0  0
  -19.5776  -26.6387   21.5190 C   0  0  0  0  0  0
  -18.1956  -26.7942   22.1603 C   0  0  0  0  0  0
  -19.1549  -28.8869   23.2854 C   0  0  0  0  0  0
  -18.9471  -30.1465   23.8880 C   0  0  0  0  0  0
  -17.6472  -30.6596   24.0558 C   0  0  0  0  0  0
  -25.9062  -34.9438   23.5086 C   0  0  0  0  0  0
  -16.5360  -29.9089   23.6334 C   0  0  0  0  0  0
  -16.7285  -28.6510   23.0347 C   0  0  0  0  0  0
  -26.4512  -31.6586   25.0732 C   0  0  0  0  0  0
  -25.3718  -31.3733   26.1430 C   0  0  0  0  0  0
  -27.0351  -30.2993   24.6255 C   0  0  0  0  0  0
  -27.6081  -32.4315   25.7501 C   0  0  0  0  0  0
  -27.5594  -37.1790   24.8459 C   0  0  0  0  0  0
  -21.4208  -29.3061   22.3627 N   0  0  0  0  0  0
  -26.4297  -37.3772   23.9407 N   0  0  0  0  0  0
  -24.7003  -31.0478   22.0991 N   0  0  0  0  0  0
  -23.4187  -28.8129   23.2989 O   0  0  0  0  0  0
  -28.2708  -26.2881   20.2175 O   0  0  0  0  0  0
  -26.5633  -34.8916   22.4654 O   0  0  0  0  0  0
  -23.5473  -32.1379   23.7267 O   0  0  0  0  0  0
  -29.7886  -19.8038   18.6889 C   0  0  0  0  0  0
  -29.5429  -18.5375   20.7572 C   0  0  0  0  0  0
  -30.1334  -17.3645   18.7108 C   0  0  0  0  0  0
  -29.5164  -19.8325   20.0719 C   0  0  0  0  0  0
  -30.0846  -18.5983   18.0193 C   0  0  0  0  0  0
  -29.8676  -17.2712   20.0996 C   0  0  0  0  0  0
  -28.8105  -23.5849   20.4721 C   0  0  0  0  0  0
  -29.3313  -21.2290   20.7552 C   0  0  0  0  0  0
  -27.9851  -24.8345   19.8792 C   0  0  0  0  0  0
  -28.7379  -22.3310   20.0409 N   0  0  0  0  0  0
  -30.3446  -18.6382   16.6497 N   0  0  0  0  0  0
  -29.8443  -15.9113   20.7258 N   0  0  0  0  0  0
  -29.7075  -21.3069   21.9256 O   0  0  0  0  0  0
  -31.4736  -12.5814   19.1840 H   0  0  0  0  0  0
  -30.3682  -11.4880   19.9635 H   0  0  0  0  0  0
  -29.7987  -11.7503   17.5251 H   0  0  0  0  0  0
  -29.6353  -13.4764   17.7288 H   0  0  0  0  0  0
  -27.9008  -11.2905   18.9183 H   0  0  0  0  0  0
  -27.3800  -12.5286   17.8056 H   0  0  0  0  0  0
  -27.6380  -14.2611   19.4757 H   0  0  0  0  0  0
  -28.7236  -12.1811   21.4365 H   0  0  0  0  0  0
  -28.4192  -13.8615   21.7999 H   0  0  0  0  0  0
  -25.2781   -9.5686   22.4761 H   0  0  0  0  0  0
  -24.0018   -7.4644   22.7494 H   0  0  0  0  0  0
  -21.0843   -8.8787   19.8979 H   0  0  0  0  0  0
  -22.3715  -10.9679   19.6168 H   0  0  0  0  0  0
  -21.2005   -7.6153   23.9705 H   0  0  0  0  0  0
  -21.1486   -6.0530   25.9071 H   0  0  0  0  0  0
  -22.0599   -2.7610   23.2835 H   0  0  0  0  0  0
  -22.4090  -11.9890   22.4808 H   0  0  0  0  0  0
  -21.1096  -13.1250   22.2622 H   0  0  0  0  0  0
  -24.6606  -15.8534   20.5319 H   0  0  0  0  0  0
  -26.2770  -15.6320   20.0911 H   0  0  0  0  0  0
  -26.7209  -32.5387   23.1062 H   0  0  0  0  0  0
  -25.0099  -33.9692   25.0403 H   0  0  0  0  0  0
  -22.7302  -31.3043   21.3979 H   0  0  0  0  0  0
  -23.3772  -35.9598   23.3269 H   0  0  0  0  0  0
  -24.3596  -36.8933   22.2055 H   0  0  0  0  0  0
  -23.7232  -37.6465   23.6677 H   0  0  0  0  0  0
  -26.1290  -31.5156   20.6212 H   0  0  0  0  0  0
  -26.8550  -30.7980   22.0267 H   0  0  0  0  0  0
  -28.1057  -28.8695   21.2537 H   0  0  0  0  0  0
  -25.9327  -25.9542   18.9036 H   0  0  0  0  0  0
  -23.9783  -27.3466   18.9474 H   0  0  0  0  0  0
  -23.7782  -30.5984   19.4050 H   0  0  0  0  0  0
  -22.7671  -29.2565   19.8494 H   0  0  0  0  0  0
  -25.1307  -36.1916   25.0816 H   0  0  0  0  0  0
  -20.9996  -28.3307   24.1359 H   0  0  0  0  0  0
  -20.5675  -26.2330   23.3593 H   0  0  0  0  0  0
  -21.6665  -26.7453   22.1193 H   0  0  0  0  0  0
  -19.6943  -25.6286   21.1247 H   0  0  0  0  0  0
  -19.6732  -27.3167   20.6697 H   0  0  0  0  0  0
  -17.4218  -26.6656   21.4018 H   0  0  0  0  0  0
  -18.0389  -26.0093   22.9015 H   0  0  0  0  0  0
  -19.7946  -30.7284   24.2247 H   0  0  0  0  0  0
  -17.5028  -31.6278   24.5162 H   0  0  0  0  0  0
  -15.5361  -30.2988   23.7677 H   0  0  0  0  0  0
  -15.8683  -28.0828   22.7072 H   0  0  0  0  0  0
  -24.5911  -30.7077   25.7734 H   0  0  0  0  0  0
  -24.8873  -32.2882   26.4847 H   0  0  0  0  0  0
  -25.8000  -30.8902   27.0218 H   0  0  0  0  0  0
  -26.2930  -29.6736   24.1277 H   0  0  0  0  0  0
  -27.3999  -29.7286   25.4806 H   0  0  0  0  0  0
  -27.8841  -30.4252   23.9530 H   0  0  0  0  0  0
  -27.2731  -33.3640   26.2062 H   0  0  0  0  0  0
  -28.3903  -32.6827   25.0323 H   0  0  0  0  0  0
  -28.0737  -31.8433   26.5421 H   0  0  0  0  0  0
  -28.2581  -38.0118   24.7544 H   0  0  0  0  0  0
  -28.1118  -36.2646   24.6239 H   0  0  0  0  0  0
  -27.2308  -37.1385   25.8859 H   0  0  0  0  0  0
  -20.9386  -29.8789   21.6839 H   0  0  0  0  0  0
  -26.0176  -38.2841   24.1425 H   0  0  0  0  0  0
  -29.7919  -20.7334   18.1348 H   0  0  0  0  0  0
  -29.3321  -18.5262   21.8179 H   0  0  0  0  0  0
  -30.3598  -16.4671   18.1498 H   0  0  0  0  0  0
  -29.4354  -23.8597   21.3259 H   0  0  0  0  0  0
  -26.9657  -24.6119   20.1923 H   0  0  0  0  0  0
  -27.9958  -24.7449   18.7925 H   0  0  0  0  0  0
  -30.0878  -19.4621   16.1133 H   0  0  0  0  0  0
  -30.3374  -17.7824   16.1029 H   0  0  0  0  0  0
  -29.0264  -15.7228   21.2869 H   0  0  0  0  0  0
  1 25  1  0  0  0
  1 30  2  0  0  0
  1 82  1  0  0  0
  2  3  1  0  0  0
  2 25  1  0  0  0
  2 84  1  0  0  0
  2 85  1  0  0  0
  3  4  1  0  0  0
  3 86  1  0  0  0
  3 87  1  0  0  0
  4  5  1  0  0  0
  4 88  1  0  0  0
  4 89  1  0  0  0
  5  6  1  0  0  0
  5 26  1  0  0  0
  5 90  1  0  0  0
  6 25  1  0  0  0
  6 91  1  0  0  0
  6 92  1  0  0  0
  7  8  2  0  0  0
  7 26  1  0  0  0
  7 29  1  0  0  0
  8  9  1  0  0  0
  8 22  1  0  0  0
  9 10  1  0  0  0
  9 27  2  0  0  0
 10 11  2  0  0  0
 10 15  1  0  0  0
 11 12  1  0  0  0
 11 93  1  0  0  0
 12 13  2  0  0  0
 12 94  1  0  0  0
 13 14  1  0  0  0
 13 31  1  0  0  0
 14 15  2  0  0  0
 14 95  1  0  0  0
 15 96  1  0  0  0
 16 17  2  0  0  0
 16 21  1  0  0  0
 16 31  1  0  0  0
 17 18  1  0  0  0
 17 97  1  0  0  0
 18 19  2  0  0  0
 18 98  1  0  0  0
 19 20  1  0  0  0
 19 24  1  0  0  0
 20 21  2  0  0  0
 20 99  1  0  0  0
 21 23  1  0  0  0
 22 28  1  0  0  0
 22 32  2  0  0  0
 26 27  1  0  0  0
 28100  1  0  0  0
 28101  1  0  0  0
 29102  1  0  0  0
 29103  1  0  0  0
 33 34  1  0  0  0
 33 66  1  0  0  0
 33 70  2  0  0  0
 34 36  1  0  0  0
 34 59  1  0  0  0
 34104  1  0  0  0
 35 44  2  0  0  0
 35 45  1  0  0  0
 35 68  1  0  0  0
 36 56  1  0  0  0
 36105  1  0  0  0
 37 39  1  0  0  0
 37 47  1  0  0  0
 37 66  1  0  0  0
 37106  1  0  0  0
 38 43  2  0  0  0
 38 46  1  0  0  0
 38 47  1  0  0  0
 39 64  1  0  0  0
 39 67  2  0  0  0
 40 52  1  0  0  0
 40 53  2  0  0  0
 40 58  1  0  0  0
 41107  1  0  0  0
 41108  1  0  0  0
 41109  1  0  0  0
 41 48  1  0  0  0
 42 43  1  0  0  0
 42 66  1  0  0  0
 42110  1  0  0  0
 42111  1  0  0  0
 43 44  1  0  0  0
 44112  1  0  0  0
 45 46  2  0  0  0
 45113  1  0  0  0
 46114  1  0  0  0
 47115  1  0  0  0
 47116  1  0  0  0
 48 56  1  0  0  0
 48 65  1  0  0  0
 48117  1  0  0  0
 49 50  1  0  0  0
 49 53  1  0  0  0
 49 64  1  0  0  0
 49118  1  0  0  0
 50 51  1  0  0  0
 50119  1  0  0  0
 50120  1  0  0  0
 51 52  1  0  0  0
 51121  1  0  0  0
 51122  1  0  0  0
 52123  1  0  0  0
 52124  1  0  0  0
 53 54  1  0  0  0
 54 55  2  0  0  0
 54125  1  0  0  0
 55 57  1  0  0  0
 55126  1  0  0  0
 56 69  2  0  0  0
 57 58  2  0  0  0
 57127  1  0  0  0
 58128  1  0  0  0
 59 60  1  0  0  0
 59 61  1  0  0  0
 59 62  1  0  0  0
 60129  1  0  0  0
 60130  1  0  0  0
 60131  1  0  0  0
 61132  1  0  0  0
 61133  1  0  0  0
 61134  1  0  0  0
 62135  1  0  0  0
 62136  1  0  0  0
 62137  1  0  0  0
 63 65  1  0  0  0
 63138  1  0  0  0
 63139  1  0  0  0
 63140  1  0  0  0
 64141  1  0  0  0
 65142  1  0  0  0
 68 79  1  0  0  0
 71 74  2  0  0  0
 71 75  1  0  0  0
 71143  1  0  0  0
 72 74  1  0  0  0
 72 76  2  0  0  0
 72144  1  0  0  0
 73 75  2  0  0  0
 73 76  1  0  0  0
 73145  1  0  0  0
 74 78  1  0  0  0
 75 81  1  0  0  0
 76 82  1  0  0  0
 77 79  1  0  0  0
 77 80  2  0  0  0
 77146  1  0  0  0
 78 80  1  0  0  0
 78 83  2  0  0  0
 79147  1  0  0  0
 79148  1  0  0  0
 81149  1  0  0  0
 81150  1  0  0  0
 82151  1  0  0  0
M  ISO  4   1 100  68 101  79 101  82 100
M  END
> <chiral flag>
0

> <version>
0

> <s_m_source_file>
/data/baiqing/PycharmProjects/Reinvent-master-3.2/result/LINK_invent/BTK/process_docking_weight1_custom_product_contain_oxygen_bond_distance_aromatic_linkinvent_7_9_3/rearranged_h_0087.sdf

> <i_m_source_file_index>
45

> <r_mmod_Potential_Energy-OPLS-2005>
176.17724609375

> <r_mmod_Stretch_Energy-OPLS-2005>
141.711791992188

> <r_mmod_Bend_Energy-OPLS-2005>
169.518737792969

> <r_mmod_Torsional_Energy-OPLS-2005>
239.82795715332

> <r_mmod_Improper_Torsional_Energy-OPLS-2005>
6.72184610366821

> <r_mmod_Van_der_Waal_Energy-OPLS-2005>
146.822982788086

> <r_mmod_Electrostatic_Energy-OPLS-2005>
-405.689361572266

> <r_mmod_Solvation_Energy-OPLS-2005>
-227.390823364258

> <b_mmod_Minimization_Converged-OPLS-2005>
0

> <r_mmod_RMS_Derivative-OPLS-2005>
1.63129091262817

$$$$
45
                    3D
 Structure written by MMmdl.
155163  0  0  1  0            999 V2000
  -30.6488  -14.5496   20.5094 C   0  0  0  0  0  0
  -30.4331  -12.3314   19.4548 C   0  0  0  0  0  0
  -29.5060  -12.4797   18.2284 C   0  0  0  0  0  0
  -28.0271  -12.3357   18.6389 C   0  0  0  0  0  0
  -27.6579  -13.2055   19.8691 C   0  0  2  0  0  0
  -28.6972  -13.0282   20.9992 C   0  0  0  0  0  0
  -25.2576  -13.8157   20.5682 C   0  0  0  0  0  0
  -24.1825  -13.0436   20.9179 C   0  0  0  0  0  0
  -24.6374  -11.6901   20.8737 C   0  0  0  0  0  0
  -23.9043  -10.4291   21.0403 C   0  0  0  0  0  0
  -24.3601   -9.4209   21.9184 C   0  0  0  0  0  0
  -23.6282   -8.2244   22.0758 C   0  0  0  0  0  0
  -22.4271   -8.0271   21.3546 C   0  0  0  0  0  0
  -21.9899   -9.0240   20.4647 C   0  0  0  0  0  0
  -22.7218  -10.2121   20.3050 C   0  0  0  0  0  0
  -21.6843   -6.0725   22.5275 C   0  0  0  0  0  0
  -21.4014   -6.5635   23.8205 C   0  0  0  0  0  0
  -21.3664   -5.6790   24.9170 C   0  0  0  0  0  0
  -21.6042   -4.3053   24.7225 C   0  0  0  0  0  0
  -21.8817   -3.8136   23.4349 C   0  0  0  0  0  0
  -21.9197   -4.6955   22.3400 C   0  0  0  0  0  0
  -22.7850  -13.5234   21.1849 C   0  0  0  0  0  0
  -22.1660   -4.2139   21.0979 F   0  0  0  0  0  0
  -21.5635   -3.4537   25.7739 F   0  0  0  0  0  0
  -30.0247  -13.3395   20.4457 N   0  0  0  0  0  0
  -26.2997  -12.9314   20.3337 N   0  0  0  0  0  0
  -25.9300  -11.6483   20.5775 N   0  0  0  0  0  0
  -22.0486  -12.8225   22.0396 N   0  0  0  0  0  0
  -25.4318  -15.1870   20.4071 N   0  0  0  0  0  0
  -31.8008  -14.7174   20.0958 O   0  0  0  0  0  0
  -21.6635   -6.8872   21.4237 O   0  0  0  0  0  0
  -22.3535  -14.5544   20.6693 O   0  0  0  0  0  0
  -24.6189  -31.8674   23.2026 C   0  0  0  0  0  0
  -25.9048  -32.4821   23.8361 C   0  0  1  0  0  0
  -27.2318  -27.4147   20.0860 C   0  0  0  0  0  0
  -25.5863  -33.8606   24.2294 N   0  0  0  0  0  0
  -23.4086  -30.4934   21.5409 C   0  0  2  0  0  0
  -24.8582  -28.9575   20.1040 C   0  0  0  0  0  0
  -22.7425  -29.4725   22.4926 C   0  0  0  0  0  0
  -18.0276  -28.1430   22.8497 C   0  0  0  0  0  0
  -24.1462  -36.7309   23.2643 C   0  0  0  0  0  0
  -25.9403  -30.8293   21.3568 C   0  0  0  0  0  0
  -26.0220  -29.4623   20.7014 C   0  0  0  0  0  0
  -27.2182  -28.6979   20.6897 C   0  0  0  0  0  0
  -26.0545  -26.9396   19.4723 C   0  0  0  0  0  0
  -24.8711  -27.6979   19.4837 C   0  0  0  0  0  0
  -23.6183  -29.8235   20.1566 C   0  0  0  0  0  0
  -25.4086  -36.3115   24.0342 C   0  0  1  0  0  0
  -20.5876  -28.3733   23.1269 C   0  0  2  0  0  0
  -20.6750  -26.9461   22.5406 C   0  0  0  0  0  0
  -19.5725  -26.6431   21.5204 C   0  0  0  0  0  0
  -18.1911  -26.7970   22.1634 C   0  0  0  0  0  0
  -19.1535  -28.8894   23.2880 C   0  0  0  0  0  0
  -18.9478  -30.1495   23.8910 C   0  0  0  0  0  0
  -17.6484  -30.6627   24.0601 C   0  0  0  0  0  0
  -25.9031  -34.9476   23.5126 C   0  0  0  0  0  0
  -16.5372  -29.9148   23.6348 C   0  0  0  0  0  0
  -16.7269  -28.6561   23.0367 C   0  0  0  0  0  0
  -26.4441  -31.6601   25.0702 C   0  0  0  0  0  0
  -25.3692  -31.3742   26.1448 C   0  0  0  0  0  0
  -27.0279  -30.3040   24.6105 C   0  0  0  0  0  0
  -27.6014  -32.4333   25.7464 C   0  0  0  0  0  0
  -27.5569  -37.1804   24.8475 C   0  0  0  0  0  0
  -21.4146  -29.3091   22.3647 N   0  0  0  0  0  0
  -26.4275  -37.3803   23.9434 N   0  0  0  0  0  0
  -24.6743  -31.0774   22.0921 N   0  0  0  0  0  0
  -23.4183  -28.8300   23.2997 O   0  0  0  0  0  0
  -28.3061  -26.5470   20.1757 O   0  0  0  0  0  0
  -26.5637  -34.8932   22.4721 O   0  0  0  0  0  0
  -23.5365  -32.1429   23.7394 O   0  0  0  0  0  0
  -30.7166  -18.8817   19.2351 C   0  0  0  0  0  0
  -30.6250  -17.4901   19.4712 C   0  0  0  0  0  0
  -29.4104  -17.9445   21.4978 C   0  0  0  0  0  0
  -30.2141  -19.8674   20.1368 C   0  0  0  0  0  0
  -29.5326  -19.3491   21.2855 C   0  0  0  0  0  0
  -29.9940  -16.9917   20.6305 C   0  0  0  0  0  0
  -28.0272  -25.4715   21.0075 C   0  0  0  0  0  0
  -30.5135  -21.3466   19.8682 C   0  0  0  0  0  0
  -28.4397  -24.1745   20.9713 C   0  0  0  0  0  0
  -29.3923  -23.5932   20.0091 C   0  0  0  0  0  0
  -28.9297  -20.2521   22.3531 C   0  0  0  0  0  0
  -29.8736  -15.5836   20.9234 N   0  0  0  0  0  0
  -29.5209  -22.2423   20.1905 N   0  0  0  0  0  0
  -29.9951  -24.2572   19.1572 O   0  0  0  0  0  0
  -27.9307  -23.3593   21.9135 O   0  0  0  0  0  0
  -32.0329  -21.7599   19.2572 S   0  0  0  0  0  0
  -31.4770  -12.4428   19.1567 H   0  0  0  0  0  0
  -30.3537  -11.3338   19.8897 H   0  0  0  0  0  0
  -29.7606  -11.7280   17.4809 H   0  0  0  0  0  0
  -29.6662  -13.4502   17.7555 H   0  0  0  0  0  0
  -27.8569  -11.2850   18.8745 H   0  0  0  0  0  0
  -27.3744  -12.5704   17.7980 H   0  0  0  0  0  0
  -27.6903  -14.2447   19.5395 H   0  0  0  0  0  0
  -28.6843  -12.0031   21.3717 H   0  0  0  0  0  0
  -28.4508  -13.6552   21.8573 H   0  0  0  0  0  0
  -25.2742   -9.5686   22.4766 H   0  0  0  0  0  0
  -23.9987   -7.4634   22.7475 H   0  0  0  0  0  0
  -21.0836   -8.8742   19.8948 H   0  0  0  0  0  0
  -22.3668  -10.9656   19.6158 H   0  0  0  0  0  0
  -21.1998   -7.6141   23.9704 H   0  0  0  0  0  0
  -21.1494   -6.0523   25.9073 H   0  0  0  0  0  0
  -22.0597   -2.7601   23.2844 H   0  0  0  0  0  0
  -22.4098  -11.9874   22.4770 H   0  0  0  0  0  0
  -21.1101  -13.1251   22.2599 H   0  0  0  0  0  0
  -24.6690  -15.8472   20.5149 H   0  0  0  0  0  0
  -26.2819  -15.6188   20.0661 H   0  0  0  0  0  0
  -26.7134  -32.5544   23.1148 H   0  0  0  0  0  0
  -24.9884  -33.9749   25.0348 H   0  0  0  0  0  0
  -22.7002  -31.3120   21.3976 H   0  0  0  0  0  0
  -23.3713  -35.9656   23.3324 H   0  0  0  0  0  0
  -24.3545  -36.8906   22.2057 H   0  0  0  0  0  0
  -23.7204  -37.6511   23.6647 H   0  0  0  0  0  0
  -26.0512  -31.5899   20.5824 H   0  0  0  0  0  0
  -26.8286  -30.8913   21.9737 H   0  0  0  0  0  0
  -28.1112  -29.0719   21.1705 H   0  0  0  0  0  0
  -26.0470  -25.9588   19.0177 H   0  0  0  0  0  0
  -23.9767  -27.3041   19.0213 H   0  0  0  0  0  0
  -23.7316  -30.5960   19.3954 H   0  0  0  0  0  0
  -22.7413  -29.2467   19.8581 H   0  0  0  0  0  0
  -25.1257  -36.1967   25.0834 H   0  0  0  0  0  0
  -21.0007  -28.3330   24.1376 H   0  0  0  0  0  0
  -20.5619  -26.2381   23.3623 H   0  0  0  0  0  0
  -21.6619  -26.7472   22.1235 H   0  0  0  0  0  0
  -19.6881  -25.6343   21.1230 H   0  0  0  0  0  0
  -19.6622  -27.3234   20.6724 H   0  0  0  0  0  0
  -17.4170  -26.6722   21.4053 H   0  0  0  0  0  0
  -18.0329  -26.0112   22.9034 H   0  0  0  0  0  0
  -19.7966  -30.7303   24.2266 H   0  0  0  0  0  0
  -17.5063  -31.6295   24.5232 H   0  0  0  0  0  0
  -15.5387  -30.3089   23.7644 H   0  0  0  0  0  0
  -15.8660  -28.0893   22.7096 H   0  0  0  0  0  0
  -24.5861  -30.7084   25.7795 H   0  0  0  0  0  0
  -24.8877  -32.2916   26.4856 H   0  0  0  0  0  0
  -25.8029  -30.8946   27.0226 H   0  0  0  0  0  0
  -26.2839  -29.6804   24.1134 H   0  0  0  0  0  0
  -27.4003  -29.7287   25.4583 H   0  0  0  0  0  0
  -27.8690  -30.4345   23.9292 H   0  0  0  0  0  0
  -27.2622  -33.3629   26.2040 H   0  0  0  0  0  0
  -28.3815  -32.6885   25.0287 H   0  0  0  0  0  0
  -28.0677  -31.8448   26.5373 H   0  0  0  0  0  0
  -28.2618  -38.0072   24.7530 H   0  0  0  0  0  0
  -28.1030  -36.2614   24.6291 H   0  0  0  0  0  0
  -27.2313  -37.1475   25.8884 H   0  0  0  0  0  0
  -20.9316  -29.8785   21.6837 H   0  0  0  0  0  0
  -26.0156  -38.2881   24.1423 H   0  0  0  0  0  0
  -31.2338  -19.1840   18.3364 H   0  0  0  0  0  0
  -31.0532  -16.8131   18.7455 H   0  0  0  0  0  0
  -28.8782  -17.5927   22.3707 H   0  0  0  0  0  0
  -27.3435  -25.7793   21.7897 H   0  0  0  0  0  0
  -28.6201  -19.6866   23.2319 H   0  0  0  0  0  0
  -28.0383  -20.7491   21.9718 H   0  0  0  0  0  0
  -29.6462  -21.0005   22.6944 H   0  0  0  0  0  0
  -29.0322  -15.3057   21.4070 H   0  0  0  0  0  0
  -28.7784  -21.8749   20.7665 H   0  0  0  0  0  0
  -27.3502  -23.8755   22.4571 H   0  0  0  0  0  0
  1 25  1  0  0  0
  1 30  2  0  0  0
  1 82  1  0  0  0
  2  3  1  0  0  0
  2 25  1  0  0  0
  2 87  1  0  0  0
  2 88  1  0  0  0
  3  4  1  0  0  0
  3 89  1  0  0  0
  3 90  1  0  0  0
  4  5  1  0  0  0
  4 91  1  0  0  0
  4 92  1  0  0  0
  5  6  1  0  0  0
  5 26  1  0  0  0
  5 93  1  0  0  0
  6 25  1  0  0  0
  6 94  1  0  0  0
  6 95  1  0  0  0
  7  8  2  0  0  0
  7 26  1  0  0  0
  7 29  1  0  0  0
  8  9  1  0  0  0
  8 22  1  0  0  0
  9 10  1  0  0  0
  9 27  2  0  0  0
 10 11  2  0  0  0
 10 15  1  0  0  0
 11 12  1  0  0  0
 11 96  1  0  0  0
 12 13  2  0  0  0
 12 97  1  0  0  0
 13 14  1  0  0  0
 13 31  1  0  0  0
 14 15  2  0  0  0
 14 98  1  0  0  0
 15 99  1  0  0  0
 16 17  2  0  0  0
 16 21  1  0  0  0
 16 31  1  0  0  0
 17 18  1  0  0  0
 17100  1  0  0  0
 18 19  2  0  0  0
 18101  1  0  0  0
 19 20  1  0  0  0
 19 24  1  0  0  0
 20 21  2  0  0  0
 20102  1  0  0  0
 21 23  1  0  0  0
 22 28  1  0  0  0
 22 32  2  0  0  0
 26 27  1  0  0  0
 28103  1  0  0  0
 28104  1  0  0  0
 29105  1  0  0  0
 29106  1  0  0  0
 33 34  1  0  0  0
 33 66  1  0  0  0
 33 70  2  0  0  0
 34 36  1  0  0  0
 34 59  1  0  0  0
 34107  1  0  0  0
 35 44  2  0  0  0
 35 45  1  0  0  0
 35 68  1  0  0  0
 36 56  1  0  0  0
 36108  1  0  0  0
 37 39  1  0  0  0
 37 47  1  0  0  0
 37 66  1  0  0  0
 37109  1  0  0  0
 38 43  2  0  0  0
 38 46  1  0  0  0
 38 47  1  0  0  0
 39 64  1  0  0  0
 39 67  2  0  0  0
 40 52  1  0  0  0
 40 53  2  0  0  0
 40 58  1  0  0  0
 41110  1  0  0  0
 41111  1  0  0  0
 41112  1  0  0  0
 41 48  1  0  0  0
 42 43  1  0  0  0
 42 66  1  0  0  0
 42113  1  0  0  0
 42114  1  0  0  0
 43 44  1  0  0  0
 44115  1  0  0  0
 45 46  2  0  0  0
 45116  1  0  0  0
 46117  1  0  0  0
 47118  1  0  0  0
 47119  1  0  0  0
 48 56  1  0  0  0
 48 65  1  0  0  0
 48120  1  0  0  0
 49 50  1  0  0  0
 49 53  1  0  0  0
 49 64  1  0  0  0
 49121  1  0  0  0
 50 51  1  0  0  0
 50122  1  0  0  0
 50123  1  0  0  0
 51 52  1  0  0  0
 51124  1  0  0  0
 51125  1  0  0  0
 52126  1  0  0  0
 52127  1  0  0  0
 53 54  1  0  0  0
 54 55  2  0  0  0
 54128  1  0  0  0
 55 57  1  0  0  0
 55129  1  0  0  0
 56 69  2  0  0  0
 57 58  2  0  0  0
 57130  1  0  0  0
 58131  1  0  0  0
 59 60  1  0  0  0
 59 61  1  0  0  0
 59 62  1  0  0  0
 60132  1  0  0  0
 60133  1  0  0  0
 60134  1  0  0  0
 61135  1  0  0  0
 61136  1  0  0  0
 61137  1  0  0  0
 62138  1  0  0  0
 62139  1  0  0  0
 62140  1  0  0  0
 63 65  1  0  0  0
 63141  1  0  0  0
 63142  1  0  0  0
 63143  1  0  0  0
 64144  1  0  0  0
 65145  1  0  0  0
 68 77  1  0  0  0
 71 72  2  0  0  0
 71 74  1  0  0  0
 71146  1  0  0  0
 72 76  1  0  0  0
 72147  1  0  0  0
 73 75  1  0  0  0
 73 76  2  0  0  0
 73148  1  0  0  0
 74 75  2  0  0  0
 74 78  1  0  0  0
 75 81  1  0  0  0
 76 82  1  0  0  0
 77 79  2  0  0  0
 77149  1  0  0  0
 78 83  1  0  0  0
 78 86  2  0  0  0
 79 80  1  0  0  0
 79 85  1  0  0  0
 80 83  1  0  0  0
 80 84  2  0  0  0
 81150  1  0  0  0
 81151  1  0  0  0
 81152  1  0  0  0
 82153  1  0  0  0
 83154  1  0  0  0
 85155  1  0  0  0
M  ISO  4   1 100  68 101  77 101  82 100
M  END
> <chiral flag>
0

> <version>
0

> <s_m_source_file>
/data/baiqing/PycharmProjects/Reinvent-master-3.2/result/LINK_invent/BTK/process_docking_weight1_custom_product_contain_oxygen_bond_distance_aromatic_linkinvent_7_9_3/rearranged_h_0087.sdf

> <i_m_source_file_index>
46

> <r_mmod_Potential_Energy-OPLS-2005>
-15.6496534347534

> <r_mmod_Stretch_Energy-OPLS-2005>
56.649829864502

> <r_mmod_Bend_Energy-OPLS-2005>
133.444076538086

> <r_mmod_Torsional_Energy-OPLS-2005>
244.563293457031

> <r_mmod_Improper_Torsional_Energy-OPLS-2005>
4.66560554504395

> <r_mmod_Van_der_Waal_Energy-OPLS-2005>
183.319900512695

> <r_mmod_Electrostatic_Energy-OPLS-2005>
-398.789459228516

> <r_mmod_Solvation_Energy-OPLS-2005>
-267.469055175781

> <b_mmod_Minimization_Converged-OPLS-2005>
0

> <r_mmod_RMS_Derivative-OPLS-2005>
2.64970827102661

$$$$
46
                    3D
 Structure written by MMmdl.
156165  0  0  1  0            999 V2000
  -30.6074  -14.7765   20.4404 C   0  0  0  0  0  0
  -30.4081  -12.4685   19.4754 C   0  0  0  0  0  0
  -29.4878  -12.5022   18.2356 C   0  0  0  0  0  0
  -28.0152  -12.3376   18.6493 C   0  0  0  0  0  0
  -27.6295  -13.2405   19.8494 C   0  0  2  0  0  0
  -28.6747  -13.2081   20.9865 C   0  0  0  0  0  0
  -25.2451  -13.8265   20.5744 C   0  0  0  0  0  0
  -24.1756  -13.0513   20.9295 C   0  0  0  0  0  0
  -24.6353  -11.6977   20.8811 C   0  0  0  0  0  0
  -23.9027  -10.4337   21.0439 C   0  0  0  0  0  0
  -24.3593   -9.4248   21.9209 C   0  0  0  0  0  0
  -23.6288   -8.2262   22.0758 C   0  0  0  0  0  0
  -22.4279   -8.0295   21.3553 C   0  0  0  0  0  0
  -21.9901   -9.0259   20.4653 C   0  0  0  0  0  0
  -22.7197  -10.2161   20.3085 C   0  0  0  0  0  0
  -21.6874   -6.0743   22.5261 C   0  0  0  0  0  0
  -21.4000   -6.5644   23.8188 C   0  0  0  0  0  0
  -21.3658   -5.6796   24.9157 C   0  0  0  0  0  0
  -21.6061   -4.3059   24.7200 C   0  0  0  0  0  0
  -21.8812   -3.8149   23.4319 C   0  0  0  0  0  0
  -21.9186   -4.6967   22.3382 C   0  0  0  0  0  0
  -22.7762  -13.5266   21.1976 C   0  0  0  0  0  0
  -22.1687   -4.2161   21.0953 F   0  0  0  0  0  0
  -21.5631   -3.4538   25.7710 F   0  0  0  0  0  0
  -29.9719  -13.5499   20.3975 N   0  0  0  0  0  0
  -26.2864  -12.9476   20.3312 N   0  0  0  0  0  0
  -25.9284  -11.6623   20.5818 N   0  0  0  0  0  0
  -22.0422  -12.8219   22.0503 N   0  0  0  0  0  0
  -25.4240  -15.1987   20.4148 N   0  0  0  0  0  0
  -31.8017  -14.8224   20.1439 O   0  0  0  0  0  0
  -21.6674   -6.8886   21.4227 O   0  0  0  0  0  0
  -22.3438  -14.5595   20.6854 O   0  0  0  0  0  0
  -24.6304  -31.8549   23.1954 C   0  0  0  0  0  0
  -25.9149  -32.4766   23.8300 C   0  0  1  0  0  0
  -27.2185  -27.2265   20.1791 C   0  0  0  0  0  0
  -25.5952  -33.8568   24.2238 N   0  0  0  0  0  0
  -23.4304  -30.4718   21.5423 C   0  0  2  0  0  0
  -24.8810  -28.9012   20.1292 C   0  0  0  0  0  0
  -22.7495  -29.4591   22.4949 C   0  0  0  0  0  0
  -18.0273  -28.1400   22.8479 C   0  0  0  0  0  0
  -24.1503  -36.7264   23.2634 C   0  0  0  0  0  0
  -25.9745  -30.7529   21.3842 C   0  0  0  0  0  0
  -26.0508  -29.3670   20.7444 C   0  0  0  0  0  0
  -27.2237  -28.5421   20.7597 C   0  0  0  0  0  0
  -26.0310  -26.8293   19.5319 C   0  0  0  0  0  0
  -24.8745  -27.6374   19.5157 C   0  0  0  0  0  0
  -23.6556  -29.7985   20.1632 C   0  0  0  0  0  0
  -25.4125  -36.3068   24.0329 C   0  0  1  0  0  0
  -20.5872  -28.3712   23.1282 C   0  0  2  0  0  0
  -20.6780  -26.9449   22.5427 C   0  0  0  0  0  0
  -19.5757  -26.6363   21.5231 C   0  0  0  0  0  0
  -18.1934  -26.7924   22.1646 C   0  0  0  0  0  0
  -19.1519  -28.8872   23.2868 C   0  0  0  0  0  0
  -18.9458  -30.1471   23.8871 C   0  0  0  0  0  0
  -17.6461  -30.6623   24.0505 C   0  0  0  0  0  0
  -25.9058  -34.9448   23.5087 C   0  0  0  0  0  0
  -16.5353  -29.9108   23.6302 C   0  0  0  0  0  0
  -16.7257  -28.6509   23.0367 C   0  0  0  0  0  0
  -26.4487  -31.6603   25.0708 C   0  0  0  0  0  0
  -25.3686  -31.3796   26.1424 C   0  0  0  0  0  0
  -27.0338  -30.3012   24.6216 C   0  0  0  0  0  0
  -27.6041  -32.4339   25.7497 C   0  0  0  0  0  0
  -27.5575  -37.1791   24.8461 C   0  0  0  0  0  0
  -21.4217  -29.3058   22.3692 N   0  0  0  0  0  0
  -26.4283  -37.3777   23.9412 N   0  0  0  0  0  0
  -24.6974  -31.0458   22.0976 N   0  0  0  0  0  0
  -23.4171  -28.8139   23.3078 O   0  0  0  0  0  0
  -28.3196  -26.3434   20.1209 O   0  0  0  0  0  0
  -26.5642  -34.8913   22.4661 O   0  0  0  0  0  0
  -23.5464  -32.1433   23.7213 O   0  0  0  0  0  0
  -31.5508  -19.0611   19.2112 C   0  0  0  0  0  0
  -30.7240  -20.1295   19.5986 C   0  0  0  0  0  0
  -31.2569  -17.7288   19.5586 C   0  0  0  0  0  0
  -29.2790  -18.5286   20.7161 C   0  0  0  0  0  0
  -29.5526  -19.9331   20.3631 C   0  0  0  0  0  0
  -30.1249  -17.3873   20.3400 C   0  0  0  0  0  0
  -26.8428  -23.3332   20.4428 C   0  0  0  0  0  0
  -28.1300  -23.6478   20.6677 C   0  0  0  0  0  0
  -29.1188  -22.4882   20.7644 C   0  0  0  0  0  0
  -26.3030  -21.9349   20.2504 C   0  0  0  0  0  0
  -27.2521  -20.8519   20.7872 C   0  0  0  0  0  0
  -28.4712  -25.1722   21.0568 C   0  0  0  0  0  0
  -28.6851  -21.1435   20.6265 N   0  0  0  0  0  0
  -29.8510  -15.9382   20.6468 N   0  0  0  0  0  0
  -30.3095  -22.7216   21.0006 O   0  0  0  0  0  0
  -31.4473  -12.5781   19.1667 H   0  0  0  0  0  0
  -30.3453  -11.4988   19.9674 H   0  0  0  0  0  0
  -29.7662  -11.7122   17.5386 H   0  0  0  0  0  0
  -29.6113  -13.4444   17.6950 H   0  0  0  0  0  0
  -27.8446  -11.2886   18.8921 H   0  0  0  0  0  0
  -27.3634  -12.5585   17.8006 H   0  0  0  0  0  0
  -27.6166  -14.2550   19.4499 H   0  0  0  0  0  0
  -28.7098  -12.2278   21.4619 H   0  0  0  0  0  0
  -28.4076  -13.9258   21.7640 H   0  0  0  0  0  0
  -25.2722   -9.5762   22.4803 H   0  0  0  0  0  0
  -24.0010   -7.4645   22.7469 H   0  0  0  0  0  0
  -21.0837   -8.8739   19.8949 H   0  0  0  0  0  0
  -22.3611  -10.9693   19.6196 H   0  0  0  0  0  0
  -21.1994   -7.6143   23.9693 H   0  0  0  0  0  0
  -21.1509   -6.0544   25.9064 H   0  0  0  0  0  0
  -22.0586   -2.7615   23.2810 H   0  0  0  0  0  0
  -22.4026  -11.9822   22.4803 H   0  0  0  0  0  0
  -21.1021  -13.1192   22.2712 H   0  0  0  0  0  0
  -24.6791  -15.8730   20.5549 H   0  0  0  0  0  0
  -26.2795  -15.6172   20.0749 H   0  0  0  0  0  0
  -26.7201  -32.5404   23.1015 H   0  0  0  0  0  0
  -25.0126  -33.9731   25.0402 H   0  0  0  0  0  0
  -22.7271  -31.2930   21.3936 H   0  0  0  0  0  0
  -23.3781  -35.9575   23.3296 H   0  0  0  0  0  0
  -24.3564  -36.8890   22.2035 H   0  0  0  0  0  0
  -23.7237  -37.6458   23.6663 H   0  0  0  0  0  0
  -26.1129  -31.5000   20.6035 H   0  0  0  0  0  0
  -26.8525  -30.8104   22.0177 H   0  0  0  0  0  0
  -28.1228  -28.8940   21.2463 H   0  0  0  0  0  0
  -25.9917  -25.8659   19.0445 H   0  0  0  0  0  0
  -23.9800  -27.2737   19.0274 H   0  0  0  0  0  0
  -23.7925  -30.5721   19.4071 H   0  0  0  0  0  0
  -22.7713  -29.2398   19.8493 H   0  0  0  0  0  0
  -25.1301  -36.1896   25.0817 H   0  0  0  0  0  0
  -20.9900  -28.3291   24.1438 H   0  0  0  0  0  0
  -20.5670  -26.2378   23.3665 H   0  0  0  0  0  0
  -21.6654  -26.7470   22.1233 H   0  0  0  0  0  0
  -19.6928  -25.6245   21.1378 H   0  0  0  0  0  0
  -19.6731  -27.3090   20.6702 H   0  0  0  0  0  0
  -17.4193  -26.6568   21.4095 H   0  0  0  0  0  0
  -18.0425  -26.0100   22.9105 H   0  0  0  0  0  0
  -19.7934  -30.7276   24.2271 H   0  0  0  0  0  0
  -17.5018  -31.6296   24.5124 H   0  0  0  0  0  0
  -15.5348  -30.3001   23.7687 H   0  0  0  0  0  0
  -15.8640  -28.0798   22.7165 H   0  0  0  0  0  0
  -24.5841  -30.7173   25.7744 H   0  0  0  0  0  0
  -24.8902  -32.2997   26.4785 H   0  0  0  0  0  0
  -25.7959  -30.9001   27.0238 H   0  0  0  0  0  0
  -26.2939  -29.6768   24.1193 H   0  0  0  0  0  0
  -27.3973  -29.7254   25.4734 H   0  0  0  0  0  0
  -27.8827  -30.4282   23.9499 H   0  0  0  0  0  0
  -27.2648  -33.3636   26.2055 H   0  0  0  0  0  0
  -28.3862  -32.6895   25.0348 H   0  0  0  0  0  0
  -28.0685  -31.8480   26.5434 H   0  0  0  0  0  0
  -28.2597  -38.0087   24.7508 H   0  0  0  0  0  0
  -28.1086  -36.2620   24.6296 H   0  0  0  0  0  0
  -27.2302  -37.1430   25.8870 H   0  0  0  0  0  0
  -20.9464  -29.8778   21.6879 H   0  0  0  0  0  0
  -26.0169  -38.2853   24.1427 H   0  0  0  0  0  0
  -32.4233  -19.2755   18.6091 H   0  0  0  0  0  0
  -31.0002  -21.1159   19.2544 H   0  0  0  0  0  0
  -31.9310  -16.9764   19.1748 H   0  0  0  0  0  0
  -28.3838  -18.3148   21.2825 H   0  0  0  0  0  0
  -26.1077  -24.1228   20.4413 H   0  0  0  0  0  0
  -26.1208  -21.7877   19.1879 H   0  0  0  0  0  0
  -25.3384  -21.8523   20.7542 H   0  0  0  0  0  0
  -26.9913  -19.9123   20.2958 H   0  0  0  0  0  0
  -27.0641  -20.7054   21.8527 H   0  0  0  0  0  0
  -29.5125  -25.1984   21.3785 H   0  0  0  0  0  0
  -27.9121  -25.3994   21.9651 H   0  0  0  0  0  0
  -28.9168  -15.7409   20.9671 H   0  0  0  0  0  0
  1 25  1  0  0  0
  1 30  2  0  0  0
  1 84  1  0  0  0
  2  3  1  0  0  0
  2 25  1  0  0  0
  2 86  1  0  0  0
  2 87  1  0  0  0
  3  4  1  0  0  0
  3 88  1  0  0  0
  3 89  1  0  0  0
  4  5  1  0  0  0
  4 90  1  0  0  0
  4 91  1  0  0  0
  5  6  1  0  0  0
  5 26  1  0  0  0
  5 92  1  0  0  0
  6 25  1  0  0  0
  6 93  1  0  0  0
  6 94  1  0  0  0
  7  8  2  0  0  0
  7 26  1  0  0  0
  7 29  1  0  0  0
  8  9  1  0  0  0
  8 22  1  0  0  0
  9 10  1  0  0  0
  9 27  2  0  0  0
 10 11  2  0  0  0
 10 15  1  0  0  0
 11 12  1  0  0  0
 11 95  1  0  0  0
 12 13  2  0  0  0
 12 96  1  0  0  0
 13 14  1  0  0  0
 13 31  1  0  0  0
 14 15  2  0  0  0
 14 97  1  0  0  0
 15 98  1  0  0  0
 16 17  2  0  0  0
 16 21  1  0  0  0
 16 31  1  0  0  0
 17 18  1  0  0  0
 17 99  1  0  0  0
 18 19  2  0  0  0
 18100  1  0  0  0
 19 20  1  0  0  0
 19 24  1  0  0  0
 20 21  2  0  0  0
 20101  1  0  0  0
 21 23  1  0  0  0
 22 28  1  0  0  0
 22 32  2  0  0  0
 26 27  1  0  0  0
 28102  1  0  0  0
 28103  1  0  0  0
 29104  1  0  0  0
 29105  1  0  0  0
 33 34  1  0  0  0
 33 66  1  0  0  0
 33 70  2  0  0  0
 34 36  1  0  0  0
 34 59  1  0  0  0
 34106  1  0  0  0
 35 44  2  0  0  0
 35 45  1  0  0  0
 35 68  1  0  0  0
 36 56  1  0  0  0
 36107  1  0  0  0
 37 39  1  0  0  0
 37 47  1  0  0  0
 37 66  1  0  0  0
 37108  1  0  0  0
 38 43  2  0  0  0
 38 46  1  0  0  0
 38 47  1  0  0  0
 39 64  1  0  0  0
 39 67  2  0  0  0
 40 52  1  0  0  0
 40 53  2  0  0  0
 40 58  1  0  0  0
 41109  1  0  0  0
 41110  1  0  0  0
 41111  1  0  0  0
 41 48  1  0  0  0
 42 43  1  0  0  0
 42 66  1  0  0  0
 42112  1  0  0  0
 42113  1  0  0  0
 43 44  1  0  0  0
 44114  1  0  0  0
 45 46  2  0  0  0
 45115  1  0  0  0
 46116  1  0  0  0
 47117  1  0  0  0
 47118  1  0  0  0
 48 56  1  0  0  0
 48 65  1  0  0  0
 48119  1  0  0  0
 49 50  1  0  0  0
 49 53  1  0  0  0
 49 64  1  0  0  0
 49120  1  0  0  0
 50 51  1  0  0  0
 50121  1  0  0  0
 50122  1  0  0  0
 51 52  1  0  0  0
 51123  1  0  0  0
 51124  1  0  0  0
 52125  1  0  0  0
 52126  1  0  0  0
 53 54  1  0  0  0
 54 55  2  0  0  0
 54127  1  0  0  0
 55 57  1  0  0  0
 55128  1  0  0  0
 56 69  2  0  0  0
 57 58  2  0  0  0
 57129  1  0  0  0
 58130  1  0  0  0
 59 60  1  0  0  0
 59 61  1  0  0  0
 59 62  1  0  0  0
 60131  1  0  0  0
 60132  1  0  0  0
 60133  1  0  0  0
 61134  1  0  0  0
 61135  1  0  0  0
 61136  1  0  0  0
 62137  1  0  0  0
 62138  1  0  0  0
 62139  1  0  0  0
 63 65  1  0  0  0
 63140  1  0  0  0
 63141  1  0  0  0
 63142  1  0  0  0
 64143  1  0  0  0
 65144  1  0  0  0
 68 82  1  0  0  0
 71 72  2  0  0  0
 71 73  1  0  0  0
 71145  1  0  0  0
 72 75  1  0  0  0
 72146  1  0  0  0
 73 76  2  0  0  0
 73147  1  0  0  0
 74 75  2  0  0  0
 74 76  1  0  0  0
 74148  1  0  0  0
 75 83  1  0  0  0
 76 84  1  0  0  0
 77 78  2  0  0  0
 77 80  1  0  0  0
 77149  1  0  0  0
 78 79  1  0  0  0
 78 82  1  0  0  0
 79 83  1  0  0  0
 79 85  2  0  0  0
 80 81  1  0  0  0
 80150  1  0  0  0
 80151  1  0  0  0
 81 83  1  0  0  0
 81152  1  0  0  0
 81153  1  0  0  0
 82154  1  0  0  0
 82155  1  0  0  0
 84156  1  0  0  0
M  ISO  4   1 100  68 101  82 101  84 100
M  END
> <chiral flag>
0

> <version>
0

> <s_m_source_file>
/data/baiqing/PycharmProjects/Reinvent-master-3.2/result/LINK_invent/BTK/process_docking_weight1_custom_product_contain_oxygen_bond_distance_aromatic_linkinvent_7_9_3/rearranged_h_0087.sdf

> <i_m_source_file_index>
47

> <r_mmod_Potential_Energy-OPLS-2005>
359.555938720703

> <r_mmod_Stretch_Energy-OPLS-2005>
160.663696289062

> <r_mmod_Bend_Energy-OPLS-2005>
188.133544921875

> <r_mmod_Torsional_Energy-OPLS-2005>
285.153930664062

> <r_mmod_Improper_Torsional_Energy-OPLS-2005>
4.83509969711304

> <r_mmod_Van_der_Waal_Energy-OPLS-2005>
154.194763183594

> <r_mmod_Electrostatic_Energy-OPLS-2005>
-314.19384765625

> <r_mmod_Solvation_Energy-OPLS-2005>
-218.717849731445

> <b_mmod_Minimization_Converged-OPLS-2005>
0

> <r_mmod_RMS_Derivative-OPLS-2005>
4.78394079208374

$$$$
47
                    3D
 Structure written by MMmdl.
153162  0  0  1  0            999 V2000
  -30.6769  -14.6105   20.5866 C   0  0  0  0  0  0
  -30.4322  -12.4027   19.4492 C   0  0  0  0  0  0
  -29.5035  -12.5264   18.2217 C   0  0  0  0  0  0
  -28.0280  -12.3533   18.6302 C   0  0  0  0  0  0
  -27.6529  -13.2151   19.8636 C   0  0  2  0  0  0
  -28.6911  -13.0443   20.9912 C   0  0  0  0  0  0
  -25.2556  -13.8170   20.5676 C   0  0  0  0  0  0
  -24.1821  -13.0436   20.9177 C   0  0  0  0  0  0
  -24.6386  -11.6905   20.8721 C   0  0  0  0  0  0
  -23.9057  -10.4292   21.0399 C   0  0  0  0  0  0
  -24.3614   -9.4210   21.9178 C   0  0  0  0  0  0
  -23.6291   -8.2244   22.0753 C   0  0  0  0  0  0
  -22.4270   -8.0281   21.3546 C   0  0  0  0  0  0
  -21.9904   -9.0251   20.4645 C   0  0  0  0  0  0
  -22.7230  -10.2131   20.3051 C   0  0  0  0  0  0
  -21.6851   -6.0735   22.5282 C   0  0  0  0  0  0
  -21.4012   -6.5641   23.8214 C   0  0  0  0  0  0
  -21.3657   -5.6795   24.9178 C   0  0  0  0  0  0
  -21.6043   -4.3057   24.7229 C   0  0  0  0  0  0
  -21.8818   -3.8149   23.4349 C   0  0  0  0  0  0
  -21.9191   -4.6964   22.3405 C   0  0  0  0  0  0
  -22.7847  -13.5231   21.1849 C   0  0  0  0  0  0
  -22.1660   -4.2150   21.0982 F   0  0  0  0  0  0
  -21.5627   -3.4541   25.7741 F   0  0  0  0  0  0
  -30.0123  -13.4104   20.4490 N   0  0  0  0  0  0
  -26.2977  -12.9346   20.3294 N   0  0  0  0  0  0
  -25.9311  -11.6501   20.5725 N   0  0  0  0  0  0
  -22.0493  -12.8223   22.0409 N   0  0  0  0  0  0
  -25.4287  -15.1892   20.4122 N   0  0  0  0  0  0
  -31.7725  -14.7961   20.0415 O   0  0  0  0  0  0
  -21.6637   -6.8877   21.4243 O   0  0  0  0  0  0
  -22.3533  -14.5540   20.6703 O   0  0  0  0  0  0
  -24.6247  -31.8600   23.2028 C   0  0  0  0  0  0
  -25.9098  -32.4783   23.8354 C   0  0  1  0  0  0
  -27.2276  -27.3391   20.1175 C   0  0  0  0  0  0
  -25.5917  -33.8582   24.2280 N   0  0  0  0  0  0
  -23.4181  -30.4833   21.5446 C   0  0  2  0  0  0
  -24.8664  -28.9369   20.1125 C   0  0  0  0  0  0
  -22.7461  -29.4634   22.4940 C   0  0  0  0  0  0
  -18.0283  -28.1391   22.8490 C   0  0  0  0  0  0
  -24.1486  -36.7288   23.2642 C   0  0  0  0  0  0
  -25.9566  -30.7985   21.3687 C   0  0  0  0  0  0
  -26.0346  -29.4259   20.7135 C   0  0  0  0  0  0
  -27.2226  -28.6386   20.7049 C   0  0  0  0  0  0
  -26.0424  -26.8949   19.4958 C   0  0  0  0  0  0
  -24.8705  -27.6752   19.4953 C   0  0  0  0  0  0
  -23.6322  -29.8144   20.1611 C   0  0  0  0  0  0
  -25.4111  -36.3081   24.0333 C   0  0  1  0  0  0
  -20.5881  -28.3694   23.1283 C   0  0  2  0  0  0
  -20.6771  -26.9419   22.5408 C   0  0  0  0  0  0
  -19.5745  -26.6394   21.5212 C   0  0  0  0  0  0
  -18.1924  -26.7935   22.1623 C   0  0  0  0  0  0
  -19.1535  -28.8858   23.2882 C   0  0  0  0  0  0
  -18.9463  -30.1462   23.8900 C   0  0  0  0  0  0
  -17.6464  -30.6594   24.0570 C   0  0  0  0  0  0
  -25.9047  -34.9452   23.5105 C   0  0  0  0  0  0
  -16.5353  -29.9097   23.6337 C   0  0  0  0  0  0
  -16.7270  -28.6515   23.0357 C   0  0  0  0  0  0
  -26.4495  -31.6593   25.0716 C   0  0  0  0  0  0
  -25.3743  -31.3722   26.1455 C   0  0  0  0  0  0
  -27.0342  -30.3026   24.6148 C   0  0  0  0  0  0
  -27.6057  -32.4336   25.7470 C   0  0  0  0  0  0
  -27.5579  -37.1792   24.8469 C   0  0  0  0  0  0
  -21.4176  -29.3049   22.3679 N   0  0  0  0  0  0
  -26.4288  -37.3779   23.9417 N   0  0  0  0  0  0
  -24.6855  -31.0630   22.0965 N   0  0  0  0  0  0
  -23.4185  -28.8176   23.3023 O   0  0  0  0  0  0
  -28.3309  -26.4821   20.1334 O   0  0  0  0  0  0
  -26.5617  -34.8921   22.4673 O   0  0  0  0  0  0
  -23.5415  -32.1387   23.7370 O   0  0  0  0  0  0
  -30.2048  -17.8482   19.8408 C   0  0  0  0  0  0
  -29.2393  -18.1535   22.0102 C   0  0  0  0  0  0
  -30.0089  -19.2444   19.5782 C   0  0  0  0  0  0
  -29.0423  -19.5376   21.7494 C   0  0  0  0  0  0
  -29.8315  -17.2541   21.0780 C   0  0  0  0  0  0
  -29.4232  -20.1448   20.5227 C   0  0  0  0  0  0
  -29.3612  -23.6538   19.1408 C   0  0  0  0  0  0
  -28.7237  -23.8781   20.2890 C   0  0  0  0  0  0
  -28.6451  -22.5779   20.9875 C   0  0  0  0  0  0
  -30.0356  -15.7754   21.5018 C   0  0  0  0  0  0
  -29.7448  -22.1987   18.9924 C   0  0  0  0  0  0
  -28.1303  -25.2113   20.8569 C   0  0  0  0  0  0
  -29.2469  -21.5892   20.2346 N   0  0  0  0  0  0
  -28.1090  -22.4105   22.0865 O   0  0  0  0  0  0
  -29.7500  -15.4628   22.6651 O   0  0  0  0  0  0
  -31.4728  -12.5232   19.1448 H   0  0  0  0  0  0
  -30.3696  -11.4003   19.8760 H   0  0  0  0  0  0
  -29.7725  -11.7838   17.4693 H   0  0  0  0  0  0
  -29.6427  -13.5019   17.7532 H   0  0  0  0  0  0
  -27.8685  -11.2982   18.8559 H   0  0  0  0  0  0
  -27.3722  -12.5865   17.7908 H   0  0  0  0  0  0
  -27.6807  -14.2558   19.5399 H   0  0  0  0  0  0
  -28.7068  -12.0094   21.3368 H   0  0  0  0  0  0
  -28.3924  -13.6242   21.8611 H   0  0  0  0  0  0
  -25.2761   -9.5690   22.4748 H   0  0  0  0  0  0
  -24.0002   -7.4640   22.7475 H   0  0  0  0  0  0
  -21.0834   -8.8766   19.8954 H   0  0  0  0  0  0
  -22.3686  -10.9666   19.6158 H   0  0  0  0  0  0
  -21.2005   -7.6150   23.9719 H   0  0  0  0  0  0
  -21.1478   -6.0524   25.9079 H   0  0  0  0  0  0
  -22.0598   -2.7610   23.2850 H   0  0  0  0  0  0
  -22.4106  -11.9880   22.4792 H   0  0  0  0  0  0
  -21.1114  -13.1255   22.2623 H   0  0  0  0  0  0
  -24.6665  -15.8473   20.5325 H   0  0  0  0  0  0
  -26.2858  -15.6312   20.1046 H   0  0  0  0  0  0
  -26.7166  -32.5459   23.1106 H   0  0  0  0  0  0
  -25.0074  -33.9730   25.0432 H   0  0  0  0  0  0
  -22.7116  -31.3032   21.4003 H   0  0  0  0  0  0
  -23.3760  -35.9607   23.3288 H   0  0  0  0  0  0
  -24.3586  -36.8929   22.2062 H   0  0  0  0  0  0
  -23.7222  -37.6477   23.6676 H   0  0  0  0  0  0
  -26.0814  -31.5609   20.5987 H   0  0  0  0  0  0
  -26.8393  -30.8512   21.9942 H   0  0  0  0  0  0
  -28.1212  -29.0091   21.1780 H   0  0  0  0  0  0
  -26.0201  -25.9233   19.0221 H   0  0  0  0  0  0
  -23.9749  -27.2938   19.0244 H   0  0  0  0  0  0
  -23.7473  -30.5889   19.4018 H   0  0  0  0  0  0
  -22.7530  -29.2407   19.8626 H   0  0  0  0  0  0
  -25.1291  -36.1929   25.0826 H   0  0  0  0  0  0
  -20.9975  -28.3273   24.1403 H   0  0  0  0  0  0
  -20.5677  -26.2305   23.3608 H   0  0  0  0  0  0
  -21.6638  -26.7455   22.1198 H   0  0  0  0  0  0
  -19.6907  -25.6306   21.1240 H   0  0  0  0  0  0
  -19.6680  -27.3205   20.6741 H   0  0  0  0  0  0
  -17.4193  -26.6688   21.4027 H   0  0  0  0  0  0
  -18.0324  -26.0075   22.9018 H   0  0  0  0  0  0
  -19.7940  -30.7280   24.2263 H   0  0  0  0  0  0
  -17.5023  -31.6273   24.5176 H   0  0  0  0  0  0
  -15.5356  -30.3006   23.7666 H   0  0  0  0  0  0
  -15.8664  -28.0843   22.7070 H   0  0  0  0  0  0
  -24.5907  -30.7079   25.7792 H   0  0  0  0  0  0
  -24.8948  -32.2885   26.4903 H   0  0  0  0  0  0
  -25.8085  -30.8886   27.0214 H   0  0  0  0  0  0
  -26.2904  -29.6755   24.1218 H   0  0  0  0  0  0
  -27.4114  -29.7299   25.4631 H   0  0  0  0  0  0
  -27.8735  -30.4335   23.9313 H   0  0  0  0  0  0
  -27.2684  -33.3667   26.1996 H   0  0  0  0  0  0
  -28.3879  -32.6850   25.0294 H   0  0  0  0  0  0
  -28.0701  -31.8491   26.5424 H   0  0  0  0  0  0
  -28.2593  -38.0095   24.7540 H   0  0  0  0  0  0
  -28.1082  -36.2629   24.6271 H   0  0  0  0  0  0
  -27.2299  -37.1411   25.8873 H   0  0  0  0  0  0
  -20.9349  -29.8772   21.6893 H   0  0  0  0  0  0
  -26.0168  -38.2850   24.1441 H   0  0  0  0  0  0
  -30.6636  -17.2364   19.0762 H   0  0  0  0  0  0
  -28.9257  -17.7839   22.9774 H   0  0  0  0  0  0
  -30.3300  -19.6190   18.6165 H   0  0  0  0  0  0
  -28.5941  -20.1199   22.5396 H   0  0  0  0  0  0
  -29.5819  -24.3971   18.3883 H   0  0  0  0  0  0
  -30.8266  -22.0914   18.9037 H   0  0  0  0  0  0
  -29.2631  -21.7656   18.1150 H   0  0  0  0  0  0
  -28.5654  -25.3514   21.8469 H   0  0  0  0  0  0
  -27.0711  -25.0251   21.0408 H   0  0  0  0  0  0
  1 25  1  0  0  0
  1 30  2  0  0  0
  1 80  1  0  0  0
  2  3  1  0  0  0
  2 25  1  0  0  0
  2 86  1  0  0  0
  2 87  1  0  0  0
  3  4  1  0  0  0
  3 88  1  0  0  0
  3 89  1  0  0  0
  4  5  1  0  0  0
  4 90  1  0  0  0
  4 91  1  0  0  0
  5  6  1  0  0  0
  5 26  1  0  0  0
  5 92  1  0  0  0
  6 25  1  0  0  0
  6 93  1  0  0  0
  6 94  1  0  0  0
  7  8  2  0  0  0
  7 26  1  0  0  0
  7 29  1  0  0  0
  8  9  1  0  0  0
  8 22  1  0  0  0
  9 10  1  0  0  0
  9 27  2  0  0  0
 10 11  2  0  0  0
 10 15  1  0  0  0
 11 12  1  0  0  0
 11 95  1  0  0  0
 12 13  2  0  0  0
 12 96  1  0  0  0
 13 14  1  0  0  0
 13 31  1  0  0  0
 14 15  2  0  0  0
 14 97  1  0  0  0
 15 98  1  0  0  0
 16 17  2  0  0  0
 16 21  1  0  0  0
 16 31  1  0  0  0
 17 18  1  0  0  0
 17 99  1  0  0  0
 18 19  2  0  0  0
 18100  1  0  0  0
 19 20  1  0  0  0
 19 24  1  0  0  0
 20 21  2  0  0  0
 20101  1  0  0  0
 21 23  1  0  0  0
 22 28  1  0  0  0
 22 32  2  0  0  0
 26 27  1  0  0  0
 28102  1  0  0  0
 28103  1  0  0  0
 29104  1  0  0  0
 29105  1  0  0  0
 33 34  1  0  0  0
 33 66  1  0  0  0
 33 70  2  0  0  0
 34 36  1  0  0  0
 34 59  1  0  0  0
 34106  1  0  0  0
 35 44  2  0  0  0
 35 45  1  0  0  0
 35 68  1  0  0  0
 36 56  1  0  0  0
 36107  1  0  0  0
 37 39  1  0  0  0
 37 47  1  0  0  0
 37 66  1  0  0  0
 37108  1  0  0  0
 38 43  2  0  0  0
 38 46  1  0  0  0
 38 47  1  0  0  0
 39 64  1  0  0  0
 39 67  2  0  0  0
 40 52  1  0  0  0
 40 53  2  0  0  0
 40 58  1  0  0  0
 41109  1  0  0  0
 41110  1  0  0  0
 41111  1  0  0  0
 41 48  1  0  0  0
 42 43  1  0  0  0
 42 66  1  0  0  0
 42112  1  0  0  0
 42113  1  0  0  0
 43 44  1  0  0  0
 44114  1  0  0  0
 45 46  2  0  0  0
 45115  1  0  0  0
 46116  1  0  0  0
 47117  1  0  0  0
 47118  1  0  0  0
 48 56  1  0  0  0
 48 65  1  0  0  0
 48119  1  0  0  0
 49 50  1  0  0  0
 49 53  1  0  0  0
 49 64  1  0  0  0
 49120  1  0  0  0
 50 51  1  0  0  0
 50121  1  0  0  0
 50122  1  0  0  0
 51 52  1  0  0  0
 51123  1  0  0  0
 51124  1  0  0  0
 52125  1  0  0  0
 52126  1  0  0  0
 53 54  1  0  0  0
 54 55  2  0  0  0
 54127  1  0  0  0
 55 57  1  0  0  0
 55128  1  0  0  0
 56 69  2  0  0  0
 57 58  2  0  0  0
 57129  1  0  0  0
 58130  1  0  0  0
 59 60  1  0  0  0
 59 61  1  0  0  0
 59 62  1  0  0  0
 60131  1  0  0  0
 60132  1  0  0  0
 60133  1  0  0  0
 61134  1  0  0  0
 61135  1  0  0  0
 61136  1  0  0  0
 62137  1  0  0  0
 62138  1  0  0  0
 62139  1  0  0  0
 63 65  1  0  0  0
 63140  1  0  0  0
 63141  1  0  0  0
 63142  1  0  0  0
 64143  1  0  0  0
 65144  1  0  0  0
 68 82  1  0  0  0
 71 73  2  0  0  0
 71 75  1  0  0  0
 71145  1  0  0  0
 72 74  1  0  0  0
 72 75  2  0  0  0
 72146  1  0  0  0
 73 76  1  0  0  0
 73147  1  0  0  0
 74 76  2  0  0  0
 74148  1  0  0  0
 75 80  1  0  0  0
 76 83  1  0  0  0
 77 78  2  0  0  0
 77 81  1  0  0  0
 77149  1  0  0  0
 78 79  1  0  0  0
 78 82  1  0  0  0
 79 83  1  0  0  0
 79 84  2  0  0  0
 80 85  2  0  0  0
 81 83  1  0  0  0
 81150  1  0  0  0
 81151  1  0  0  0
 82152  1  0  0  0
 82153  1  0  0  0
M  ISO  4   1 100  68 101  80 100  82 101
M  END
> <chiral flag>
0

> <version>
0

> <s_m_source_file>
/data/baiqing/PycharmProjects/Reinvent-master-3.2/result/LINK_invent/BTK/process_docking_weight1_custom_product_contain_oxygen_bond_distance_aromatic_linkinvent_7_9_3/rearranged_h_0087.sdf

> <i_m_source_file_index>
48

> <r_mmod_Potential_Energy-OPLS-2005>
328.737854003906

> <r_mmod_Stretch_Energy-OPLS-2005>
89.2925491333008

> <r_mmod_Bend_Energy-OPLS-2005>
189.082427978516

> <r_mmod_Torsional_Energy-OPLS-2005>
214.732650756836

> <r_mmod_Improper_Torsional_Energy-OPLS-2005>
2.18733024597168

> <r_mmod_Van_der_Waal_Energy-OPLS-2005>
145.897796630859

> <r_mmod_Electrostatic_Energy-OPLS-2005>
-148.802612304688

> <r_mmod_Solvation_Energy-OPLS-2005>
-202.897338867188

> <b_mmod_Minimization_Converged-OPLS-2005>
0

> <r_mmod_RMS_Derivative-OPLS-2005>
0.597511351108551

$$$$
48
                    3D
 Structure written by MMmdl.
152161  0  0  1  0            999 V2000
  -30.5511  -14.8556   20.4128 C   0  0  0  0  0  0
  -30.4352  -12.5119   19.5058 C   0  0  0  0  0  0
  -29.5296  -12.5211   18.2543 C   0  0  0  0  0  0
  -28.0431  -12.3687   18.6396 C   0  0  0  0  0  0
  -27.6362  -13.2515   19.8519 C   0  0  2  0  0  0
  -28.6760  -13.2037   20.9904 C   0  0  0  0  0  0
  -25.2487  -13.8239   20.5768 C   0  0  0  0  0  0
  -24.1805  -13.0439   20.9247 C   0  0  0  0  0  0
  -24.6426  -11.6922   20.8747 C   0  0  0  0  0  0
  -23.9137  -10.4274   21.0412 C   0  0  0  0  0  0
  -24.3658   -9.4183   21.9208 C   0  0  0  0  0  0
  -23.6309   -8.2229   22.0777 C   0  0  0  0  0  0
  -22.4304   -8.0263   21.3562 C   0  0  0  0  0  0
  -21.9949   -9.0267   20.4697 C   0  0  0  0  0  0
  -22.7292  -10.2140   20.3089 C   0  0  0  0  0  0
  -21.6859   -6.0723   22.5289 C   0  0  0  0  0  0
  -21.4020   -6.5634   23.8219 C   0  0  0  0  0  0
  -21.3665   -5.6789   24.9178 C   0  0  0  0  0  0
  -21.6035   -4.3053   24.7246 C   0  0  0  0  0  0
  -21.8823   -3.8151   23.4371 C   0  0  0  0  0  0
  -21.9209   -4.6955   22.3415 C   0  0  0  0  0  0
  -22.7814  -13.5197   21.1881 C   0  0  0  0  0  0
  -22.1661   -4.2120   21.1000 F   0  0  0  0  0  0
  -21.5645   -3.4532   25.7755 F   0  0  0  0  0  0
  -29.9653  -13.5969   20.4099 N   0  0  0  0  0  0
  -26.2910  -12.9480   20.3269 N   0  0  0  0  0  0
  -25.9359  -11.6609   20.5737 N   0  0  0  0  0  0
  -22.0480  -12.8210   22.0456 N   0  0  0  0  0  0
  -25.4143  -15.1994   20.4347 N   0  0  0  0  0  0
  -31.7432  -14.9340   20.0926 O   0  0  0  0  0  0
  -21.6666   -6.8860   21.4245 O   0  0  0  0  0  0
  -22.3484  -14.5475   20.6692 O   0  0  0  0  0  0
  -24.6416  -31.8458   23.1906 C   0  0  0  0  0  0
  -25.9188  -32.4704   23.8297 C   0  0  1  0  0  0
  -27.2307  -27.1629   20.1547 C   0  0  0  0  0  0
  -25.5944  -33.8524   24.2189 N   0  0  0  0  0  0
  -23.4464  -30.4610   21.5400 C   0  0  2  0  0  0
  -24.8994  -28.8894   20.1219 C   0  0  0  0  0  0
  -22.7575  -29.4522   22.4921 C   0  0  0  0  0  0
  -18.0301  -28.1378   22.8474 C   0  0  0  0  0  0
  -24.1491  -36.7235   23.2623 C   0  0  0  0  0  0
  -26.0012  -30.7254   21.3889 C   0  0  0  0  0  0
  -26.0772  -29.3384   20.7339 C   0  0  0  0  0  0
  -27.2468  -28.4915   20.7348 C   0  0  0  0  0  0
  -26.0261  -26.8027   19.5142 C   0  0  0  0  0  0
  -24.8834  -27.6308   19.4998 C   0  0  0  0  0  0
  -23.6771  -29.7891   20.1596 C   0  0  0  0  0  0
  -25.4121  -36.3030   24.0304 C   0  0  1  0  0  0
  -20.5906  -28.3688   23.1267 C   0  0  2  0  0  0
  -20.6787  -26.9384   22.5442 C   0  0  0  0  0  0
  -19.5767  -26.6342   21.5248 C   0  0  0  0  0  0
  -18.1940  -26.7907   22.1630 C   0  0  0  0  0  0
  -19.1549  -28.8854   23.2854 C   0  0  0  0  0  0
  -18.9472  -30.1467   23.8857 C   0  0  0  0  0  0
  -17.6464  -30.6590   24.0545 C   0  0  0  0  0  0
  -25.9077  -34.9422   23.5048 C   0  0  0  0  0  0
  -16.5360  -29.9073   23.6330 C   0  0  0  0  0  0
  -16.7286  -28.6498   23.0339 C   0  0  0  0  0  0
  -26.4510  -31.6568   25.0740 C   0  0  0  0  0  0
  -25.3708  -31.3805   26.1445 C   0  0  0  0  0  0
  -27.0306  -30.2931   24.6299 C   0  0  0  0  0  0
  -27.6031  -32.4327   25.7524 C   0  0  0  0  0  0
  -27.5569  -37.1778   24.8451 C   0  0  0  0  0  0
  -21.4261  -29.3018   22.3659 N   0  0  0  0  0  0
  -26.4261  -37.3749   23.9408 N   0  0  0  0  0  0
  -24.7164  -31.0312   22.0949 N   0  0  0  0  0  0
  -23.4235  -28.8057   23.3036 O   0  0  0  0  0  0
  -28.2761  -26.1791   20.1500 O   0  0  0  0  0  0
  -26.5668  -34.8908   22.4629 O   0  0  0  0  0  0
  -23.5533  -32.1340   23.7139 O   0  0  0  0  0  0
  -29.9836  -19.8580   18.4789 C   0  0  0  0  0  0
  -29.4148  -18.7241   20.5071 C   0  0  0  0  0  0
  -30.3476  -17.4322   18.6695 C   0  0  0  0  0  0
  -29.4668  -20.0322   19.7935 C   0  0  0  0  0  0
  -30.3899  -18.6215   17.9220 C   0  0  0  0  0  0
  -29.8632  -17.4034   19.9904 C   0  0  0  0  0  0
  -28.5178  -23.5188   20.3695 C   0  0  0  0  0  0
  -28.1839  -22.2189   21.0023 C   0  0  0  0  0  0
  -28.0236  -24.8265   20.6313 C   0  0  0  0  0  0
  -29.4989  -22.7275   19.4514 C   0  0  0  0  0  0
  -29.0694  -21.4708   20.1677 N   0  0  0  0  0  0
  -30.8266  -18.5581   16.5950 N   0  0  0  0  0  0
  -29.7742  -16.0196   20.6223 N   0  0  0  0  0  0
  -27.3884  -21.9564   21.8828 O   0  0  0  0  0  0
  -31.4773  -12.6400   19.2079 H   0  0  0  0  0  0
  -30.3945  -11.5429   20.0064 H   0  0  0  0  0  0
  -29.8210  -11.7184   17.5741 H   0  0  0  0  0  0
  -29.6793  -13.4554   17.7134 H   0  0  0  0  0  0
  -27.8636  -11.3175   18.8642 H   0  0  0  0  0  0
  -27.4124  -12.6023   17.7781 H   0  0  0  0  0  0
  -27.6190  -14.2761   19.4787 H   0  0  0  0  0  0
  -28.7319  -12.2030   21.4259 H   0  0  0  0  0  0
  -28.3926  -13.8710   21.8045 H   0  0  0  0  0  0
  -25.2812   -9.5644   22.4782 H   0  0  0  0  0  0
  -24.0027   -7.4617   22.7490 H   0  0  0  0  0  0
  -21.0886   -8.8806   19.8997 H   0  0  0  0  0  0
  -22.3763  -10.9693   19.6205 H   0  0  0  0  0  0
  -21.1985   -7.6146   23.9716 H   0  0  0  0  0  0
  -21.1486   -6.0525   25.9074 H   0  0  0  0  0  0
  -22.0592   -2.7614   23.2902 H   0  0  0  0  0  0
  -22.4102  -11.9910   22.4919 H   0  0  0  0  0  0
  -21.1106  -13.1243   22.2638 H   0  0  0  0  0  0
  -24.6550  -15.8517   20.6022 H   0  0  0  0  0  0
  -26.2742  -15.6544   20.1531 H   0  0  0  0  0  0
  -26.7261  -32.5292   23.1038 H   0  0  0  0  0  0
  -25.0082  -33.9651   25.0317 H   0  0  0  0  0  0
  -22.7474  -31.2845   21.3829 H   0  0  0  0  0  0
  -23.3774  -35.9544   23.3296 H   0  0  0  0  0  0
  -24.3557  -36.8858   22.2033 H   0  0  0  0  0  0
  -23.7255  -37.6425   23.6669 H   0  0  0  0  0  0
  -26.1533  -31.4812   20.6191 H   0  0  0  0  0  0
  -26.8759  -30.7802   22.0263 H   0  0  0  0  0  0
  -28.1506  -28.8349   21.2234 H   0  0  0  0  0  0
  -25.9572  -25.8335   19.0409 H   0  0  0  0  0  0
  -23.9818  -27.2755   19.0212 H   0  0  0  0  0  0
  -23.8198  -30.5668   19.4095 H   0  0  0  0  0  0
  -22.7950  -29.2341   19.8379 H   0  0  0  0  0  0
  -25.1323  -36.1841   25.0797 H   0  0  0  0  0  0
  -20.9973  -28.3281   24.1398 H   0  0  0  0  0  0
  -20.5683  -26.2299   23.3662 H   0  0  0  0  0  0
  -21.6653  -26.7399   22.1236 H   0  0  0  0  0  0
  -19.6931  -25.6254   21.1280 H   0  0  0  0  0  0
  -19.6716  -27.3160   20.6795 H   0  0  0  0  0  0
  -17.4206  -26.6660   21.4025 H   0  0  0  0  0  0
  -18.0323  -26.0069   22.9054 H   0  0  0  0  0  0
  -19.7945  -30.7304   24.2179 H   0  0  0  0  0  0
  -17.5015  -31.6256   24.5175 H   0  0  0  0  0  0
  -15.5345  -30.2961   23.7691 H   0  0  0  0  0  0
  -15.8689  -28.0830   22.7034 H   0  0  0  0  0  0
  -24.5899  -30.7107   25.7840 H   0  0  0  0  0  0
  -24.8878  -32.3012   26.4734 H   0  0  0  0  0  0
  -25.8008  -30.9120   27.0302 H   0  0  0  0  0  0
  -26.2902  -29.6713   24.1240 H   0  0  0  0  0  0
  -27.3823  -29.7161   25.4861 H   0  0  0  0  0  0
  -27.8892  -30.4113   23.9676 H   0  0  0  0  0  0
  -27.2590  -33.3627   26.2043 H   0  0  0  0  0  0
  -28.3876  -32.6864   25.0402 H   0  0  0  0  0  0
  -28.0649  -31.8497   26.5483 H   0  0  0  0  0  0
  -28.2562  -38.0090   24.7487 H   0  0  0  0  0  0
  -28.1081  -36.2617   24.6297 H   0  0  0  0  0  0
  -27.2270  -37.1453   25.8840 H   0  0  0  0  0  0
  -20.9487  -29.8741   21.6842 H   0  0  0  0  0  0
  -26.0127  -38.2792   24.1458 H   0  0  0  0  0  0
  -30.0595  -20.7177   17.8302 H   0  0  0  0  0  0
  -29.0217  -18.7407   21.5112 H   0  0  0  0  0  0
  -30.6523  -16.5089   18.1987 H   0  0  0  0  0  0
  -27.2883  -24.8917   21.4220 H   0  0  0  0  0  0
  -30.5634  -22.9294   19.5843 H   0  0  0  0  0  0
  -29.2519  -22.7121   18.3890 H   0  0  0  0  0  0
  -30.4487  -19.2277   15.9294 H   0  0  0  0  0  0
  -30.9277  -17.6379   16.1741 H   0  0  0  0  0  0
  -28.8978  -15.8391   21.0923 H   0  0  0  0  0  0
  1 25  1  0  0  0
  1 30  2  0  0  0
  1 83  1  0  0  0
  2  3  1  0  0  0
  2 25  1  0  0  0
  2 85  1  0  0  0
  2 86  1  0  0  0
  3  4  1  0  0  0
  3 87  1  0  0  0
  3 88  1  0  0  0
  4  5  1  0  0  0
  4 89  1  0  0  0
  4 90  1  0  0  0
  5  6  1  0  0  0
  5 26  1  0  0  0
  5 91  1  0  0  0
  6 25  1  0  0  0
  6 92  1  0  0  0
  6 93  1  0  0  0
  7  8  2  0  0  0
  7 26  1  0  0  0
  7 29  1  0  0  0
  8  9  1  0  0  0
  8 22  1  0  0  0
  9 10  1  0  0  0
  9 27  2  0  0  0
 10 11  2  0  0  0
 10 15  1  0  0  0
 11 12  1  0  0  0
 11 94  1  0  0  0
 12 13  2  0  0  0
 12 95  1  0  0  0
 13 14  1  0  0  0
 13 31  1  0  0  0
 14 15  2  0  0  0
 14 96  1  0  0  0
 15 97  1  0  0  0
 16 17  2  0  0  0
 16 21  1  0  0  0
 16 31  1  0  0  0
 17 18  1  0  0  0
 17 98  1  0  0  0
 18 19  2  0  0  0
 18 99  1  0  0  0
 19 20  1  0  0  0
 19 24  1  0  0  0
 20 21  2  0  0  0
 20100  1  0  0  0
 21 23  1  0  0  0
 22 28  1  0  0  0
 22 32  2  0  0  0
 26 27  1  0  0  0
 28101  1  0  0  0
 28102  1  0  0  0
 29103  1  0  0  0
 29104  1  0  0  0
 33 34  1  0  0  0
 33 66  1  0  0  0
 33 70  2  0  0  0
 34 36  1  0  0  0
 34 59  1  0  0  0
 34105  1  0  0  0
 35 44  2  0  0  0
 35 45  1  0  0  0
 35 68  1  0  0  0
 36 56  1  0  0  0
 36106  1  0  0  0
 37 39  1  0  0  0
 37 47  1  0  0  0
 37 66  1  0  0  0
 37107  1  0  0  0
 38 43  2  0  0  0
 38 46  1  0  0  0
 38 47  1  0  0  0
 39 64  1  0  0  0
 39 67  2  0  0  0
 40 52  1  0  0  0
 40 53  2  0  0  0
 40 58  1  0  0  0
 41108  1  0  0  0
 41109  1  0  0  0
 41110  1  0  0  0
 41 48  1  0  0  0
 42 43  1  0  0  0
 42 66  1  0  0  0
 42111  1  0  0  0
 42112  1  0  0  0
 43 44  1  0  0  0
 44113  1  0  0  0
 45 46  2  0  0  0
 45114  1  0  0  0
 46115  1  0  0  0
 47116  1  0  0  0
 47117  1  0  0  0
 48 56  1  0  0  0
 48 65  1  0  0  0
 48118  1  0  0  0
 49 50  1  0  0  0
 49 53  1  0  0  0
 49 64  1  0  0  0
 49119  1  0  0  0
 50 51  1  0  0  0
 50120  1  0  0  0
 50121  1  0  0  0
 51 52  1  0  0  0
 51122  1  0  0  0
 51123  1  0  0  0
 52124  1  0  0  0
 52125  1  0  0  0
 53 54  1  0  0  0
 54 55  2  0  0  0
 54126  1  0  0  0
 55 57  1  0  0  0
 55127  1  0  0  0
 56 69  2  0  0  0
 57 58  2  0  0  0
 57128  1  0  0  0
 58129  1  0  0  0
 59 60  1  0  0  0
 59 61  1  0  0  0
 59 62  1  0  0  0
 60130  1  0  0  0
 60131  1  0  0  0
 60132  1  0  0  0
 61133  1  0  0  0
 61134  1  0  0  0
 61135  1  0  0  0
 62136  1  0  0  0
 62137  1  0  0  0
 62138  1  0  0  0
 63 65  1  0  0  0
 63139  1  0  0  0
 63140  1  0  0  0
 63141  1  0  0  0
 64142  1  0  0  0
 65143  1  0  0  0
 68 79  1  0  0  0
 71 74  2  0  0  0
 71 75  1  0  0  0
 71144  1  0  0  0
 72 74  1  0  0  0
 72 76  2  0  0  0
 72145  1  0  0  0
 73 75  2  0  0  0
 73 76  1  0  0  0
 73146  1  0  0  0
 74 81  1  0  0  0
 75 82  1  0  0  0
 76 83  1  0  0  0
 77 78  1  0  0  0
 77 79  2  0  0  0
 77 80  1  0  0  0
 78 81  1  0  0  0
 78 84  2  0  0  0
 79147  1  0  0  0
 80 81  1  0  0  0
 80148  1  0  0  0
 80149  1  0  0  0
 82150  1  0  0  0
 82151  1  0  0  0
 83152  1  0  0  0
M  ISO  4   1 100  68 101  79 101  83 100
M  END
> <chiral flag>
0

> <version>
0

> <s_m_source_file>
/data/baiqing/PycharmProjects/Reinvent-master-3.2/result/LINK_invent/BTK/process_docking_weight1_custom_product_contain_oxygen_bond_distance_aromatic_linkinvent_7_9_3/rearranged_h_0087.sdf

> <i_m_source_file_index>
49

> <r_mmod_Potential_Energy-OPLS-2005>
485.473541259766

> <r_mmod_Stretch_Energy-OPLS-2005>
197.736923217773

> <r_mmod_Bend_Energy-OPLS-2005>
294.002868652344

> <r_mmod_Torsional_Energy-OPLS-2005>
250.508224487305

> <r_mmod_Improper_Torsional_Energy-OPLS-2005>
8.29264640808105

> <r_mmod_Van_der_Waal_Energy-OPLS-2005>
129.912048339844

> <r_mmod_Electrostatic_Energy-OPLS-2005>
-306.998413085938

> <r_mmod_Solvation_Energy-OPLS-2005>
-236.653793334961

> <b_mmod_Minimization_Converged-OPLS-2005>
0

> <r_mmod_RMS_Derivative-OPLS-2005>
5.08015918731689

$$$$
49
                    3D
 Structure written by MMmdl.
152161  0  0  1  0            999 V2000
  -30.6317  -14.6544   20.4782 C   0  0  0  0  0  0
  -30.4345  -12.3952   19.4638 C   0  0  0  0  0  0
  -29.5090  -12.5038   18.2313 C   0  0  0  0  0  0
  -28.0319  -12.3437   18.6419 C   0  0  0  0  0  0
  -27.6522  -13.2222   19.8641 C   0  0  2  0  0  0
  -28.6973  -13.0979   20.9966 C   0  0  0  0  0  0
  -25.2550  -13.8183   20.5702 C   0  0  0  0  0  0
  -24.1817  -13.0437   20.9176 C   0  0  0  0  0  0
  -24.6396  -11.6912   20.8731 C   0  0  0  0  0  0
  -23.9067  -10.4292   21.0399 C   0  0  0  0  0  0
  -24.3618   -9.4209   21.9179 C   0  0  0  0  0  0
  -23.6293   -8.2245   22.0750 C   0  0  0  0  0  0
  -22.4275   -8.0281   21.3542 C   0  0  0  0  0  0
  -21.9909   -9.0254   20.4644 C   0  0  0  0  0  0
  -22.7237  -10.2134   20.3052 C   0  0  0  0  0  0
  -21.6854   -6.0734   22.5278 C   0  0  0  0  0  0
  -21.4015   -6.5638   23.8211 C   0  0  0  0  0  0
  -21.3660   -5.6792   24.9174 C   0  0  0  0  0  0
  -21.6045   -4.3054   24.7224 C   0  0  0  0  0  0
  -21.8819   -3.8145   23.4346 C   0  0  0  0  0  0
  -21.9193   -4.6962   22.3402 C   0  0  0  0  0  0
  -22.7839  -13.5226   21.1847 C   0  0  0  0  0  0
  -22.1662   -4.2146   21.0980 F   0  0  0  0  0  0
  -21.5629   -3.4539   25.7738 F   0  0  0  0  0  0
  -30.0132  -13.4308   20.4302 N   0  0  0  0  0  0
  -26.2988  -12.9377   20.3342 N   0  0  0  0  0  0
  -25.9331  -11.6525   20.5767 N   0  0  0  0  0  0
  -22.0489  -12.8219   22.0411 N   0  0  0  0  0  0
  -25.4255  -15.1909   20.4175 N   0  0  0  0  0  0
  -31.8005  -14.7803   20.1049 O   0  0  0  0  0  0
  -21.6640   -6.8878   21.4241 O   0  0  0  0  0  0
  -22.3520  -14.5533   20.6701 O   0  0  0  0  0  0
  -24.6260  -31.8599   23.2031 C   0  0  0  0  0  0
  -25.9107  -32.4781   23.8361 C   0  0  1  0  0  0
  -27.2244  -27.3253   20.1193 C   0  0  0  0  0  0
  -25.5924  -33.8582   24.2285 N   0  0  0  0  0  0
  -23.4212  -30.4831   21.5445 C   0  0  2  0  0  0
  -24.8717  -28.9427   20.1067 C   0  0  0  0  0  0
  -22.7483  -29.4618   22.4926 C   0  0  0  0  0  0
  -18.0290  -28.1382   22.8486 C   0  0  0  0  0  0
  -24.1491  -36.7298   23.2637 C   0  0  0  0  0  0
  -25.9625  -30.7923   21.3757 C   0  0  0  0  0  0
  -26.0400  -29.4209   20.7164 C   0  0  0  0  0  0
  -27.2231  -28.6219   20.7178 C   0  0  0  0  0  0
  -26.0412  -26.9042   19.4749 C   0  0  0  0  0  0
  -24.8737  -27.6891   19.4756 C   0  0  0  0  0  0
  -23.6375  -29.8201   20.1587 C   0  0  0  0  0  0
  -25.4114  -36.3086   24.0329 C   0  0  1  0  0  0
  -20.5891  -28.3688   23.1279 C   0  0  2  0  0  0
  -20.6778  -26.9410   22.5408 C   0  0  0  0  0  0
  -19.5753  -26.6380   21.5211 C   0  0  0  0  0  0
  -18.1935  -26.7923   22.1626 C   0  0  0  0  0  0
  -19.1542  -28.8853   23.2877 C   0  0  0  0  0  0
  -18.9464  -30.1455   23.8892 C   0  0  0  0  0  0
  -17.6464  -30.6585   24.0561 C   0  0  0  0  0  0
  -25.9050  -34.9453   23.5107 C   0  0  0  0  0  0
  -16.5355  -29.9082   23.6329 C   0  0  0  0  0  0
  -16.7277  -28.6499   23.0350 C   0  0  0  0  0  0
  -26.4492  -31.6588   25.0728 C   0  0  0  0  0  0
  -25.3730  -31.3728   26.1458 C   0  0  0  0  0  0
  -27.0331  -30.3011   24.6180 C   0  0  0  0  0  0
  -27.6054  -32.4321   25.7497 C   0  0  0  0  0  0
  -27.5582  -37.1801   24.8462 C   0  0  0  0  0  0
  -21.4195  -29.3041   22.3673 N   0  0  0  0  0  0
  -26.4293  -37.3779   23.9407 N   0  0  0  0  0  0
  -24.6884  -31.0612   22.0981 N   0  0  0  0  0  0
  -23.4205  -28.8156   23.3006 O   0  0  0  0  0  0
  -28.2860  -26.4117   20.1856 O   0  0  0  0  0  0
  -26.5617  -34.8919   22.4672 O   0  0  0  0  0  0
  -23.5423  -32.1394   23.7356 O   0  0  0  0  0  0
  -31.2171  -19.0556   19.5727 C   0  0  0  0  0  0
  -30.5641  -20.2184   19.8013 C   0  0  0  0  0  0
  -30.9868  -17.7675   19.9193 C   0  0  0  0  0  0
  -28.7096  -19.5355   21.1141 C   0  0  0  0  0  0
  -29.4405  -20.5173   20.4960 C   0  0  0  0  0  0
  -29.9970  -17.1610   20.6201 C   0  0  0  0  0  0
  -28.8872  -18.0249   21.1696 C   0  0  0  0  0  0
  -28.4772  -23.8972   20.6315 C   0  0  0  0  0  0
  -28.0185  -22.6730   21.2584 C   0  0  0  0  0  0
  -27.9588  -25.1682   20.7679 C   0  0  0  0  0  0
  -29.5686  -23.0989   19.9073 C   0  0  0  0  0  0
  -29.0035  -21.9025   20.6057 N   0  0  0  0  0  0
  -29.8341  -15.7300   20.7787 N   0  0  0  0  0  0
  -27.9821  -17.4125   21.7472 O   0  0  0  0  0  0
  -27.1099  -22.4690   22.0372 O   0  0  0  0  0  0
  -31.4774  -12.5075   19.1624 H   0  0  0  0  0  0
  -30.3615  -11.4048   19.9157 H   0  0  0  0  0  0
  -29.7747  -11.7469   17.4921 H   0  0  0  0  0  0
  -29.6525  -13.4700   17.7451 H   0  0  0  0  0  0
  -27.8700  -11.2917   18.8797 H   0  0  0  0  0  0
  -27.3781  -12.5675   17.7981 H   0  0  0  0  0  0
  -27.6641  -14.2543   19.5132 H   0  0  0  0  0  0
  -28.7081  -12.0845   21.4007 H   0  0  0  0  0  0
  -28.4443  -13.7511   21.8332 H   0  0  0  0  0  0
  -25.2764   -9.5685   22.4752 H   0  0  0  0  0  0
  -24.0002   -7.4637   22.7470 H   0  0  0  0  0  0
  -21.0838   -8.8773   19.8953 H   0  0  0  0  0  0
  -22.3692  -10.9673   19.6161 H   0  0  0  0  0  0
  -21.2008   -7.6147   23.9714 H   0  0  0  0  0  0
  -21.1484   -6.0522   25.9077 H   0  0  0  0  0  0
  -22.0598   -2.7606   23.2847 H   0  0  0  0  0  0
  -22.4112  -11.9884   22.4799 H   0  0  0  0  0  0
  -21.1109  -13.1245   22.2626 H   0  0  0  0  0  0
  -24.6675  -15.8483   20.5634 H   0  0  0  0  0  0
  -26.2976  -15.6445   20.1762 H   0  0  0  0  0  0
  -26.7179  -32.5455   23.1113 H   0  0  0  0  0  0
  -25.0072  -33.9729   25.0429 H   0  0  0  0  0  0
  -22.7147  -31.3035   21.4018 H   0  0  0  0  0  0
  -23.3748  -35.9637   23.3306 H   0  0  0  0  0  0
  -24.3582  -36.8910   22.2050 H   0  0  0  0  0  0
  -23.7254  -37.6506   23.6654 H   0  0  0  0  0  0
  -26.0948  -31.5573   20.6092 H   0  0  0  0  0  0
  -26.8421  -30.8401   22.0059 H   0  0  0  0  0  0
  -28.1155  -28.9746   21.2155 H   0  0  0  0  0  0
  -26.0098  -25.9352   18.9968 H   0  0  0  0  0  0
  -23.9797  -27.3174   18.9938 H   0  0  0  0  0  0
  -23.7542  -30.5980   19.4033 H   0  0  0  0  0  0
  -22.7585  -29.2481   19.8560 H   0  0  0  0  0  0
  -25.1294  -36.1938   25.0821 H   0  0  0  0  0  0
  -20.9985  -28.3263   24.1399 H   0  0  0  0  0  0
  -20.5680  -26.2298   23.3607 H   0  0  0  0  0  0
  -21.6647  -26.7437   22.1202 H   0  0  0  0  0  0
  -19.6915  -25.6290   21.1243 H   0  0  0  0  0  0
  -19.6689  -27.3189   20.6740 H   0  0  0  0  0  0
  -17.4202  -26.6665   21.4033 H   0  0  0  0  0  0
  -18.0341  -26.0065   22.9026 H   0  0  0  0  0  0
  -19.7940  -30.7273   24.2258 H   0  0  0  0  0  0
  -17.5017  -31.6264   24.5163 H   0  0  0  0  0  0
  -15.5355  -30.2983   23.7651 H   0  0  0  0  0  0
  -15.8678  -28.0817   22.7066 H   0  0  0  0  0  0
  -24.5899  -30.7082   25.7791 H   0  0  0  0  0  0
  -24.8927  -32.2897   26.4888 H   0  0  0  0  0  0
  -25.8056  -30.8903   27.0232 H   0  0  0  0  0  0
  -26.2906  -29.6766   24.1199 H   0  0  0  0  0  0
  -27.4024  -29.7261   25.4683 H   0  0  0  0  0  0
  -27.8779  -30.4296   23.9409 H   0  0  0  0  0  0
  -27.2662  -33.3615   26.2085 H   0  0  0  0  0  0
  -28.3857  -32.6893   25.0322 H   0  0  0  0  0  0
  -28.0729  -31.8441   26.5404 H   0  0  0  0  0  0
  -28.2597  -38.0102   24.7515 H   0  0  0  0  0  0
  -28.1082  -36.2634   24.6283 H   0  0  0  0  0  0
  -27.2300  -37.1443   25.8865 H   0  0  0  0  0  0
  -20.9372  -29.8769   21.6888 H   0  0  0  0  0  0
  -26.0175  -38.2854   24.1409 H   0  0  0  0  0  0
  -32.1142  -19.1820   18.9809 H   0  0  0  0  0  0
  -31.0596  -21.0674   19.3525 H   0  0  0  0  0  0
  -31.7347  -17.0987   19.5246 H   0  0  0  0  0  0
  -27.8385  -19.8934   21.6414 H   0  0  0  0  0  0
  -27.1184  -25.2859   21.4406 H   0  0  0  0  0  0
  -30.6022  -23.2941   20.1984 H   0  0  0  0  0  0
  -29.4888  -23.0135   18.8223 H   0  0  0  0  0  0
  -28.9285  -15.4903   21.1558 H   0  0  0  0  0  0
  1 25  1  0  0  0
  1 30  2  0  0  0
  1 83  1  0  0  0
  2  3  1  0  0  0
  2 25  1  0  0  0
  2 86  1  0  0  0
  2 87  1  0  0  0
  3  4  1  0  0  0
  3 88  1  0  0  0
  3 89  1  0  0  0
  4  5  1  0  0  0
  4 90  1  0  0  0
  4 91  1  0  0  0
  5  6  1  0  0  0
  5 26  1  0  0  0
  5 92  1  0  0  0
  6 25  1  0  0  0
  6 93  1  0  0  0
  6 94  1  0  0  0
  7  8  2  0  0  0
  7 26  1  0  0  0
  7 29  1  0  0  0
  8  9  1  0  0  0
  8 22  1  0  0  0
  9 10  1  0  0  0
  9 27  2  0  0  0
 10 11  2  0  0  0
 10 15  1  0  0  0
 11 12  1  0  0  0
 11 95  1  0  0  0
 12 13  2  0  0  0
 12 96  1  0  0  0
 13 14  1  0  0  0
 13 31  1  0  0  0
 14 15  2  0  0  0
 14 97  1  0  0  0
 15 98  1  0  0  0
 16 17  2  0  0  0
 16 21  1  0  0  0
 16 31  1  0  0  0
 17 18  1  0  0  0
 17 99  1  0  0  0
 18 19  2  0  0  0
 18100  1  0  0  0
 19 20  1  0  0  0
 19 24  1  0  0  0
 20 21  2  0  0  0
 20101  1  0  0  0
 21 23  1  0  0  0
 22 28  1  0  0  0
 22 32  2  0  0  0
 26 27  1  0  0  0
 28102  1  0  0  0
 28103  1  0  0  0
 29104  1  0  0  0
 29105  1  0  0  0
 33 34  1  0  0  0
 33 66  1  0  0  0
 33 70  2  0  0  0
 34 36  1  0  0  0
 34 59  1  0  0  0
 34106  1  0  0  0
 35 44  2  0  0  0
 35 45  1  0  0  0
 35 68  1  0  0  0
 36 56  1  0  0  0
 36107  1  0  0  0
 37 39  1  0  0  0
 37 47  1  0  0  0
 37 66  1  0  0  0
 37108  1  0  0  0
 38 43  2  0  0  0
 38 46  1  0  0  0
 38 47  1  0  0  0
 39 64  1  0  0  0
 39 67  2  0  0  0
 40 52  1  0  0  0
 40 53  2  0  0  0
 40 58  1  0  0  0
 41109  1  0  0  0
 41110  1  0  0  0
 41111  1  0  0  0
 41 48  1  0  0  0
 42 43  1  0  0  0
 42 66  1  0  0  0
 42112  1  0  0  0
 42113  1  0  0  0
 43 44  1  0  0  0
 44114  1  0  0  0
 45 46  2  0  0  0
 45115  1  0  0  0
 46116  1  0  0  0
 47117  1  0  0  0
 47118  1  0  0  0
 48 56  1  0  0  0
 48 65  1  0  0  0
 48119  1  0  0  0
 49 50  1  0  0  0
 49 53  1  0  0  0
 49 64  1  0  0  0
 49120  1  0  0  0
 50 51  1  0  0  0
 50121  1  0  0  0
 50122  1  0  0  0
 51 52  1  0  0  0
 51123  1  0  0  0
 51124  1  0  0  0
 52125  1  0  0  0
 52126  1  0  0  0
 53 54  1  0  0  0
 54 55  2  0  0  0
 54127  1  0  0  0
 55 57  1  0  0  0
 55128  1  0  0  0
 56 69  2  0  0  0
 57 58  2  0  0  0
 57129  1  0  0  0
 58130  1  0  0  0
 59 60  1  0  0  0
 59 61  1  0  0  0
 59 62  1  0  0  0
 60131  1  0  0  0
 60132  1  0  0  0
 60133  1  0  0  0
 61134  1  0  0  0
 61135  1  0  0  0
 61136  1  0  0  0
 62137  1  0  0  0
 62138  1  0  0  0
 62139  1  0  0  0
 63 65  1  0  0  0
 63140  1  0  0  0
 63141  1  0  0  0
 63142  1  0  0  0
 64143  1  0  0  0
 65144  1  0  0  0
 68 80  1  0  0  0
 71 72  2  0  0  0
 71 73  1  0  0  0
 71145  1  0  0  0
 72 75  1  0  0  0
 72146  1  0  0  0
 73 76  2  0  0  0
 73147  1  0  0  0
 74 75  2  0  0  0
 74 77  1  0  0  0
 74148  1  0  0  0
 75 82  1  0  0  0
 76 77  1  0  0  0
 76 83  1  0  0  0
 77 84  2  0  0  0
 78 79  1  0  0  0
 78 80  2  0  0  0
 78 81  1  0  0  0
 79 82  1  0  0  0
 79 85  2  0  0  0
 80149  1  0  0  0
 81 82  1  0  0  0
 81150  1  0  0  0
 81151  1  0  0  0
 83152  1  0  0  0
M  ISO  4   1 100  68 101  80 101  83 100
M  END
> <chiral flag>
0

> <version>
0

> <s_m_source_file>
/data/baiqing/PycharmProjects/Reinvent-master-3.2/result/LINK_invent/BTK/process_docking_weight1_custom_product_contain_oxygen_bond_distance_aromatic_linkinvent_7_9_3/rearranged_h_0087.sdf

> <i_m_source_file_index>
50

> <r_mmod_Potential_Energy-OPLS-2005>
36.6655426025391

> <r_mmod_Stretch_Energy-OPLS-2005>
80.9722290039062

> <r_mmod_Bend_Energy-OPLS-2005>
224.782470703125

> <r_mmod_Torsional_Energy-OPLS-2005>
167.467559814453

> <r_mmod_Improper_Torsional_Energy-OPLS-2005>
4.2847752571106

> <r_mmod_Van_der_Waal_Energy-OPLS-2005>
144.932983398438

> <r_mmod_Electrostatic_Energy-OPLS-2005>
-425.694915771484

> <r_mmod_Solvation_Energy-OPLS-2005>
-215.879486083984

> <b_mmod_Minimization_Converged-OPLS-2005>
0

> <r_mmod_RMS_Derivative-OPLS-2005>
0.319451719522476

$$$$
50
                    3D
 Structure written by MMmdl.
153162  0  0  1  0            999 V2000
  -30.4911  -15.1090   20.4650 C   0  0  0  0  0  0
  -30.4436  -12.7018   19.5354 C   0  0  0  0  0  0
  -29.5360  -12.5794   18.2856 C   0  0  0  0  0  0
  -28.0755  -12.3252   18.6961 C   0  0  0  0  0  0
  -27.6280  -13.2630   19.8440 C   0  0  2  0  0  0
  -28.6590  -13.3294   20.9904 C   0  0  0  0  0  0
  -25.2400  -13.8204   20.5642 C   0  0  0  0  0  0
  -24.1755  -13.0416   20.9211 C   0  0  0  0  0  0
  -24.6409  -11.6916   20.8754 C   0  0  0  0  0  0
  -23.9099  -10.4280   21.0401 C   0  0  0  0  0  0
  -24.3640   -9.4197   21.9182 C   0  0  0  0  0  0
  -23.6303   -8.2238   22.0756 C   0  0  0  0  0  0
  -22.4285   -8.0277   21.3542 C   0  0  0  0  0  0
  -21.9927   -9.0252   20.4643 C   0  0  0  0  0  0
  -22.7267  -10.2124   20.3051 C   0  0  0  0  0  0
  -21.6855   -6.0735   22.5276 C   0  0  0  0  0  0
  -21.4017   -6.5640   23.8209 C   0  0  0  0  0  0
  -21.3662   -5.6793   24.9171 C   0  0  0  0  0  0
  -21.6044   -4.3056   24.7221 C   0  0  0  0  0  0
  -21.8818   -3.8148   23.4343 C   0  0  0  0  0  0
  -21.9193   -4.6964   22.3400 C   0  0  0  0  0  0
  -22.7775  -13.5174   21.1877 C   0  0  0  0  0  0
  -22.1660   -4.2148   21.0978 F   0  0  0  0  0  0
  -21.5630   -3.4540   25.7736 F   0  0  0  0  0  0
  -29.9299  -13.8081   20.4177 N   0  0  0  0  0  0
  -26.2872  -12.9482   20.3240 N   0  0  0  0  0  0
  -25.9352  -11.6601   20.5754 N   0  0  0  0  0  0
  -22.0449  -12.8152   22.0446 N   0  0  0  0  0  0
  -25.3972  -15.1916   20.3947 N   0  0  0  0  0  0
  -31.6190  -15.1978   19.9586 O   0  0  0  0  0  0
  -21.6642   -6.8878   21.4239 O   0  0  0  0  0  0
  -22.3442  -14.5477   20.6733 O   0  0  0  0  0  0
  -24.6542  -31.8325   23.1784 C   0  0  0  0  0  0
  -25.9266  -32.4636   23.8213 C   0  0  1  0  0  0
  -27.2193  -27.0134   20.1705 C   0  0  0  0  0  0
  -25.5977  -33.8454   24.2122 N   0  0  0  0  0  0
  -23.4642  -30.4491   21.5237 C   0  0  2  0  0  0
  -24.9178  -28.8550   20.1052 C   0  0  0  0  0  0
  -22.7616  -29.4495   22.4786 C   0  0  0  0  0  0
  -18.0317  -28.1421   22.8468 C   0  0  0  0  0  0
  -24.1489  -36.7229   23.2647 C   0  0  0  0  0  0
  -26.0285  -30.6646   21.3996 C   0  0  0  0  0  0
  -26.0955  -29.2648   20.7409 C   0  0  0  0  0  0
  -27.2373  -28.3598   20.7599 C   0  0  0  0  0  0
  -26.0186  -26.7420   19.4756 C   0  0  0  0  0  0
  -24.8998  -27.6112   19.4553 C   0  0  0  0  0  0
  -23.6999  -29.7727   20.1450 C   0  0  0  0  0  0
  -25.4129  -36.2996   24.0302 C   0  0  1  0  0  0
  -20.5934  -28.3756   23.1204 C   0  0  2  0  0  0
  -20.6801  -26.9450   22.5400 C   0  0  0  0  0  0
  -19.5771  -26.6389   21.5223 C   0  0  0  0  0  0
  -18.1949  -26.7955   22.1621 C   0  0  0  0  0  0
  -19.1576  -28.8905   23.2824 C   0  0  0  0  0  0
  -18.9491  -30.1496   23.8860 C   0  0  0  0  0  0
  -17.6488  -30.6608   24.0565 C   0  0  0  0  0  0
  -25.9092  -34.9379   23.5023 C   0  0  0  0  0  0
  -16.5377  -29.9104   23.6351 C   0  0  0  0  0  0
  -16.7298  -28.6525   23.0360 C   0  0  0  0  0  0
  -26.4542  -31.6561   25.0716 C   0  0  0  0  0  0
  -25.3675  -31.3813   26.1377 C   0  0  0  0  0  0
  -27.0441  -30.2939   24.6417 C   0  0  0  0  0  0
  -27.6042  -32.4367   25.7516 C   0  0  0  0  0  0
  -27.5562  -37.1777   24.8467 C   0  0  0  0  0  0
  -21.4293  -29.3061   22.3550 N   0  0  0  0  0  0
  -26.4276  -37.3725   23.9404 N   0  0  0  0  0  0
  -24.7361  -31.0068   22.0877 N   0  0  0  0  0  0
  -23.4205  -28.8048   23.2984 O   0  0  0  0  0  0
  -28.2407  -25.9607   20.3100 O   0  0  0  0  0  0
  -26.5677  -34.8890   22.4605 O   0  0  0  0  0  0
  -23.5635  -32.1271   23.6917 O   0  0  0  0  0  0
  -29.7452  -19.0545   20.2400 C   0  0  0  0  0  0
  -29.3645  -17.7298   20.9420 C   0  0  0  0  0  0
  -28.2782  -18.0687   21.7163 C   0  0  0  0  0  0
  -29.0103  -20.3010   20.5390 C   0  0  0  0  0  0
  -29.9054  -15.9607   22.5999 C   0  0  0  0  0  0
  -30.9344  -15.3744   23.2527 C   0  0  0  0  0  0
  -28.5387  -22.9935   20.6053 C   0  0  0  0  0  0
  -27.6054  -17.1181   22.6274 C   0  0  0  0  0  0
  -28.6483  -16.3170   23.3979 C   0  0  0  0  0  0
  -28.2265  -24.4471   19.7510 C   0  0  0  0  0  0
  -29.9022  -16.2327   21.1918 N   0  0  0  0  0  0
  -28.9960  -21.7084   20.0778 N   0  0  0  0  0  0
  -28.3374  -23.0588   21.8208 O   0  0  0  0  0  0
  -27.8043  -19.7785   21.6971 S   0  0  0  0  0  0
  -31.4741  -12.8760   19.2232 H   0  0  0  0  0  0
  -30.4679  -11.7586   20.0837 H   0  0  0  0  0  0
  -29.8890  -11.7782   17.6348 H   0  0  0  0  0  0
  -29.5967  -13.4994   17.7017 H   0  0  0  0  0  0
  -27.9992  -11.2870   19.0223 H   0  0  0  0  0  0
  -27.4116  -12.4262   17.8368 H   0  0  0  0  0  0
  -27.5791  -14.2599   19.4049 H   0  0  0  0  0  0
  -28.7799  -12.3584   21.4727 H   0  0  0  0  0  0
  -28.2984  -14.0072   21.7612 H   0  0  0  0  0  0
  -25.2782   -9.5669   22.4759 H   0  0  0  0  0  0
  -24.0007   -7.4627   22.7477 H   0  0  0  0  0  0
  -21.0861   -8.8775   19.8943 H   0  0  0  0  0  0
  -22.3730  -10.9664   19.6158 H   0  0  0  0  0  0
  -21.2012   -7.6147   23.9711 H   0  0  0  0  0  0
  -21.1485   -6.0523   25.9072 H   0  0  0  0  0  0
  -22.0596   -2.7608   23.2842 H   0  0  0  0  0  0
  -22.4093  -11.9814   22.4821 H   0  0  0  0  0  0
  -21.1061  -13.1150   22.2671 H   0  0  0  0  0  0
  -24.6281  -15.8406   20.5174 H   0  0  0  0  0  0
  -26.2456  -15.6374   20.0708 H   0  0  0  0  0  0
  -26.7323  -32.5192   23.0923 H   0  0  0  0  0  0
  -25.0136  -33.9560   25.0280 H   0  0  0  0  0  0
  -22.7738  -31.2796   21.3594 H   0  0  0  0  0  0
  -23.3753  -35.9559   23.3304 H   0  0  0  0  0  0
  -24.3563  -36.8879   22.2062 H   0  0  0  0  0  0
  -23.7243  -37.6421   23.6699 H   0  0  0  0  0  0
  -26.2031  -31.4118   20.6240 H   0  0  0  0  0  0
  -26.8917  -30.7140   22.0522 H   0  0  0  0  0  0
  -28.1212  -28.6641   21.3020 H   0  0  0  0  0  0
  -25.8879  -25.7981   18.9719 H   0  0  0  0  0  0
  -24.0038  -27.2935   18.9400 H   0  0  0  0  0  0
  -23.8496  -30.5474   19.3918 H   0  0  0  0  0  0
  -22.8112  -29.2255   19.8263 H   0  0  0  0  0  0
  -25.1323  -36.1805   25.0792 H   0  0  0  0  0  0
  -21.0028  -28.3364   24.1326 H   0  0  0  0  0  0
  -20.5718  -26.2374   23.3630 H   0  0  0  0  0  0
  -21.6658  -26.7462   22.1182 H   0  0  0  0  0  0
  -19.6940  -25.6293   21.1280 H   0  0  0  0  0  0
  -19.6714  -27.3172   20.6732 H   0  0  0  0  0  0
  -17.4223  -26.6714   21.4013 H   0  0  0  0  0  0
  -18.0326  -26.0110   22.9027 H   0  0  0  0  0  0
  -19.7969  -30.7326   24.2204 H   0  0  0  0  0  0
  -17.5045  -31.6283   24.5178 H   0  0  0  0  0  0
  -15.5374  -30.2997   23.7701 H   0  0  0  0  0  0
  -15.8694  -28.0836   22.7095 H   0  0  0  0  0  0
  -24.5871  -30.7140   25.7693 H   0  0  0  0  0  0
  -24.8840  -32.3018   26.4666 H   0  0  0  0  0  0
  -25.7904  -30.9081   27.0245 H   0  0  0  0  0  0
  -26.3108  -29.6620   24.1397 H   0  0  0  0  0  0
  -27.3970  -29.7302   25.5062 H   0  0  0  0  0  0
  -27.9039  -30.4150   23.9825 H   0  0  0  0  0  0
  -27.2620  -33.3719   26.1966 H   0  0  0  0  0  0
  -28.3918  -32.6855   25.0388 H   0  0  0  0  0  0
  -28.0627  -31.8577   26.5544 H   0  0  0  0  0  0
  -28.2576  -38.0074   24.7494 H   0  0  0  0  0  0
  -28.1056  -36.2601   24.6316 H   0  0  0  0  0  0
  -27.2272  -37.1444   25.8867 H   0  0  0  0  0  0
  -20.9519  -29.8775   21.6716 H   0  0  0  0  0  0
  -26.0129  -38.2787   24.1407 H   0  0  0  0  0  0
  -30.5858  -19.0530   19.5617 H   0  0  0  0  0  0
  -30.8674  -15.1758   24.3134 H   0  0  0  0  0  0
  -31.8589  -15.0887   22.7711 H   0  0  0  0  0  0
  -26.9880  -16.4395   22.0447 H   0  0  0  0  0  0
  -26.9353  -17.6339   23.3161 H   0  0  0  0  0  0
  -28.9783  -16.9176   24.2467 H   0  0  0  0  0  0
  -28.2005  -15.4163   23.8199 H   0  0  0  0  0  0
  -27.2648  -24.2650   19.2791 H   0  0  0  0  0  0
  -28.9333  -24.4485   18.9217 H   0  0  0  0  0  0
  -29.3187  -21.8110   19.1239 H   0  0  0  0  0  0
  1 25  1  0  0  0
  1 30  2  0  0  0
  1 81  1  0  0  0
  2  3  1  0  0  0
  2 25  1  0  0  0
  2 85  1  0  0  0
  2 86  1  0  0  0
  3  4  1  0  0  0
  3 87  1  0  0  0
  3 88  1  0  0  0
  4  5  1  0  0  0
  4 89  1  0  0  0
  4 90  1  0  0  0
  5  6  1  0  0  0
  5 26  1  0  0  0
  5 91  1  0  0  0
  6 25  1  0  0  0
  6 92  1  0  0  0
  6 93  1  0  0  0
  7  8  2  0  0  0
  7 26  1  0  0  0
  7 29  1  0  0  0
  8  9  1  0  0  0
  8 22  1  0  0  0
  9 10  1  0  0  0
  9 27  2  0  0  0
 10 11  2  0  0  0
 10 15  1  0  0  0
 11 12  1  0  0  0
 11 94  1  0  0  0
 12 13  2  0  0  0
 12 95  1  0  0  0
 13 14  1  0  0  0
 13 31  1  0  0  0
 14 15  2  0  0  0
 14 96  1  0  0  0
 15 97  1  0  0  0
 16 17  2  0  0  0
 16 21  1  0  0  0
 16 31  1  0  0  0
 17 18  1  0  0  0
 17 98  1  0  0  0
 18 19  2  0  0  0
 18 99  1  0  0  0
 19 20  1  0  0  0
 19 24  1  0  0  0
 20 21  2  0  0  0
 20100  1  0  0  0
 21 23  1  0  0  0
 22 28  1  0  0  0
 22 32  2  0  0  0
 26 27  1  0  0  0
 28101  1  0  0  0
 28102  1  0  0  0
 29103  1  0  0  0
 29104  1  0  0  0
 33 34  1  0  0  0
 33 66  1  0  0  0
 33 70  2  0  0  0
 34 36  1  0  0  0
 34 59  1  0  0  0
 34105  1  0  0  0
 35 44  2  0  0  0
 35 45  1  0  0  0
 35 68  1  0  0  0
 36 56  1  0  0  0
 36106  1  0  0  0
 37 39  1  0  0  0
 37 47  1  0  0  0
 37 66  1  0  0  0
 37107  1  0  0  0
 38 43  2  0  0  0
 38 46  1  0  0  0
 38 47  1  0  0  0
 39 64  1  0  0  0
 39 67  2  0  0  0
 40 52  1  0  0  0
 40 53  2  0  0  0
 40 58  1  0  0  0
 41108  1  0  0  0
 41109  1  0  0  0
 41110  1  0  0  0
 41 48  1  0  0  0
 42 43  1  0  0  0
 42 66  1  0  0  0
 42111  1  0  0  0
 42112  1  0  0  0
 43 44  1  0  0  0
 44113  1  0  0  0
 45 46  2  0  0  0
 45114  1  0  0  0
 46115  1  0  0  0
 47116  1  0  0  0
 47117  1  0  0  0
 48 56  1  0  0  0
 48 65  1  0  0  0
 48118  1  0  0  0
 49 50  1  0  0  0
 49 53  1  0  0  0
 49 64  1  0  0  0
 49119  1  0  0  0
 50 51  1  0  0  0
 50120  1  0  0  0
 50121  1  0  0  0
 51 52  1  0  0  0
 51122  1  0  0  0
 51123  1  0  0  0
 52124  1  0  0  0
 52125  1  0  0  0
 53 54  1  0  0  0
 54 55  2  0  0  0
 54126  1  0  0  0
 55 57  1  0  0  0
 55127  1  0  0  0
 56 69  2  0  0  0
 57 58  2  0  0  0
 57128  1  0  0  0
 58129  1  0  0  0
 59 60  1  0  0  0
 59 61  1  0  0  0
 59 62  1  0  0  0
 60130  1  0  0  0
 60131  1  0  0  0
 60132  1  0  0  0
 61133  1  0  0  0
 61134  1  0  0  0
 61135  1  0  0  0
 62136  1  0  0  0
 62137  1  0  0  0
 62138  1  0  0  0
 63 65  1  0  0  0
 63139  1  0  0  0
 63140  1  0  0  0
 63141  1  0  0  0
 64142  1  0  0  0
 65143  1  0  0  0
 68 80  1  0  0  0
 71 72  1  0  0  0
 71 74  2  0  0  0
 71144  1  0  0  0
 72 73  2  0  0  0
 72 81  1  0  0  0
 73 78  1  0  0  0
 73 84  1  0  0  0
 74 82  1  0  0  0
 74 84  1  0  0  0
 75 76  2  0  0  0
 75 79  1  0  0  0
 75 81  1  0  0  0
 76145  1  0  0  0
 76146  1  0  0  0
 77 80  1  0  0  0
 77 82  1  0  0  0
 77 83  2  0  0  0
 78 79  1  0  0  0
 78147  1  0  0  0
 78148  1  0  0  0
 79149  1  0  0  0
 79150  1  0  0  0
 80151  1  0  0  0
 80152  1  0  0  0
 82153  1  0  0  0
M  ISO  4   1 100  68 101  80 101  81 100
M  END
> <chiral flag>
0

> <version>
0

> <s_m_source_file>
/data/baiqing/PycharmProjects/Reinvent-master-3.2/result/LINK_invent/BTK/process_docking_weight1_custom_product_contain_oxygen_bond_distance_aromatic_linkinvent_7_9_3/rearranged_h_0087.sdf

> <i_m_source_file_index>
51

> <r_mmod_Potential_Energy-OPLS-2005>
1072.88525390625

> <r_mmod_Stretch_Energy-OPLS-2005>
419.941741943359

> <r_mmod_Bend_Energy-OPLS-2005>
399.349945068359

> <r_mmod_Torsional_Energy-OPLS-2005>
315.272735595703

> <r_mmod_Improper_Torsional_Energy-OPLS-2005>
5.54528856277466

> <r_mmod_Van_der_Waal_Energy-OPLS-2005>
128.234970092773

> <r_mmod_Electrostatic_Energy-OPLS-2005>
-290.761047363281

> <r_mmod_Solvation_Energy-OPLS-2005>
-228.149688720703

> <b_mmod_Minimization_Converged-OPLS-2005>
0

> <r_mmod_RMS_Derivative-OPLS-2005>
1.08713412284851

$$$$
51
                    3D
 Structure written by MMmdl.
146154  0  0  1  0            999 V2000
  -30.3891  -15.4126   20.3409 C   0  0  0  0  0  0
  -30.4383  -12.9129   19.5317 C   0  0  0  0  0  0
  -29.5468  -12.6023   18.2996 C   0  0  0  0  0  0
  -28.1008  -12.2970   18.7279 C   0  0  0  0  0  0
  -27.6011  -13.2910   19.8031 C   0  0  2  0  0  0
  -28.6249  -13.5415   20.9275 C   0  0  0  0  0  0
  -25.2365  -13.8265   20.5747 C   0  0  0  0  0  0
  -24.1730  -13.0441   20.9251 C   0  0  0  0  0  0
  -24.6407  -11.6944   20.8746 C   0  0  0  0  0  0
  -23.9108  -10.4294   21.0389 C   0  0  0  0  0  0
  -24.3649   -9.4211   21.9172 C   0  0  0  0  0  0
  -23.6314   -8.2252   22.0751 C   0  0  0  0  0  0
  -22.4289   -8.0291   21.3546 C   0  0  0  0  0  0
  -21.9931   -9.0263   20.4644 C   0  0  0  0  0  0
  -22.7274  -10.2136   20.3044 C   0  0  0  0  0  0
  -21.6856   -6.0740   22.5279 C   0  0  0  0  0  0
  -21.4019   -6.5640   23.8214 C   0  0  0  0  0  0
  -21.3663   -5.6792   24.9174 C   0  0  0  0  0  0
  -21.6047   -4.3056   24.7222 C   0  0  0  0  0  0
  -21.8820   -3.8146   23.4343 C   0  0  0  0  0  0
  -21.9196   -4.6967   22.3402 C   0  0  0  0  0  0
  -22.7748  -13.5192   21.1905 C   0  0  0  0  0  0
  -22.1662   -4.2152   21.0977 F   0  0  0  0  0  0
  -21.5630   -3.4538   25.7735 F   0  0  0  0  0  0
  -29.8442  -14.0805   20.2975 N   0  0  0  0  0  0
  -26.2783  -12.9568   20.3140 N   0  0  0  0  0  0
  -25.9340  -11.6660   20.5654 N   0  0  0  0  0  0
  -22.0410  -12.8173   22.0460 N   0  0  0  0  0  0
  -25.4000  -15.2003   20.4250 N   0  0  0  0  0  0
  -31.6262  -15.3547   20.2434 O   0  0  0  0  0  0
  -21.6654   -6.8886   21.4241 O   0  0  0  0  0  0
  -22.3425  -14.5493   20.6749 O   0  0  0  0  0  0
  -24.6699  -31.8153   23.1644 C   0  0  0  0  0  0
  -25.9350  -32.4544   23.8129 C   0  0  1  0  0  0
  -27.2187  -26.8344   20.2123 C   0  0  0  0  0  0
  -25.5994  -33.8363   24.2033 N   0  0  0  0  0  0
  -23.4889  -30.4222   21.5158 C   0  0  2  0  0  0
  -24.9416  -28.7823   20.1287 C   0  0  0  0  0  0
  -22.7695  -29.4400   22.4772 C   0  0  0  0  0  0
  -18.0324  -28.1410   22.8461 C   0  0  0  0  0  0
  -24.1496  -36.7183   23.2647 C   0  0  0  0  0  0
  -26.0622  -30.5893   21.4104 C   0  0  0  0  0  0
  -26.1268  -29.1639   20.7697 C   0  0  0  0  0  0
  -27.2569  -28.2134   20.7845 C   0  0  0  0  0  0
  -26.0042  -26.6265   19.5203 C   0  0  0  0  0  0
  -24.9088  -27.5337   19.4854 C   0  0  0  0  0  0
  -23.7354  -29.7254   20.1486 C   0  0  0  0  0  0
  -25.4142  -36.2941   24.0292 C   0  0  1  0  0  0
  -20.5952  -28.3761   23.1171 C   0  0  2  0  0  0
  -20.6800  -26.9435   22.5399 C   0  0  0  0  0  0
  -19.5775  -26.6373   21.5213 C   0  0  0  0  0  0
  -18.1957  -26.7939   22.1624 C   0  0  0  0  0  0
  -19.1587  -28.8910   23.2801 C   0  0  0  0  0  0
  -18.9501  -30.1497   23.8838 C   0  0  0  0  0  0
  -17.6493  -30.6599   24.0551 C   0  0  0  0  0  0
  -25.9113  -34.9324   23.4990 C   0  0  0  0  0  0
  -16.5381  -29.9082   23.6346 C   0  0  0  0  0  0
  -16.7306  -28.6502   23.0365 C   0  0  0  0  0  0
  -26.4572  -31.6520   25.0692 C   0  0  0  0  0  0
  -25.3682  -31.3808   26.1343 C   0  0  0  0  0  0
  -27.0473  -30.2871   24.6494 C   0  0  0  0  0  0
  -27.6054  -32.4341   25.7498 C   0  0  0  0  0  0
  -27.5567  -37.1754   24.8468 C   0  0  0  0  0  0
  -21.4358  -29.3039   22.3515 N   0  0  0  0  0  0
  -26.4279  -37.3687   23.9401 N   0  0  0  0  0  0
  -24.7625  -30.9723   22.0830 N   0  0  0  0  0  0
  -23.4203  -28.7983   23.3055 O   0  0  0  0  0  0
  -28.2550  -25.7341   20.1295 O   0  0  0  0  0  0
  -26.5728  -34.8874   22.4589 O   0  0  0  0  0  0
  -23.5751  -32.1164   23.6686 O   0  0  0  0  0  0
  -28.9945  -21.3314   20.6923 C   0  0  0  0  0  0
  -28.0965  -22.4278   18.7806 C   0  0  0  0  0  0
  -29.1120  -19.9049   20.0485 C   0  0  0  0  0  0
  -28.4746  -22.6959   20.1119 C   0  0  0  0  0  0
  -28.5911  -20.0678   18.7401 C   0  0  0  0  0  0
  -29.7619  -18.3174   20.4450 C   0  0  0  0  0  0
  -29.5597  -16.8494   20.1788 C   0  0  0  0  0  0
  -28.1389  -21.2110   18.1590 N   0  0  0  0  0  0
  -28.5616  -18.9843   17.8801 N   0  0  0  0  0  0
  -28.1723  -24.1250   20.7160 N   0  0  0  0  0  0
  -31.4484  -13.1393   19.1889 H   0  0  0  0  0  0
  -30.5393  -12.0353   20.1718 H   0  0  0  0  0  0
  -29.9594  -11.7664   17.7340 H   0  0  0  0  0  0
  -29.5519  -13.4606   17.6267 H   0  0  0  0  0  0
  -28.0824  -11.2831   19.1307 H   0  0  0  0  0  0
  -27.4358  -12.2965   17.8636 H   0  0  0  0  0  0
  -27.4914  -14.2373   19.2713 H   0  0  0  0  0  0
  -28.8241  -12.6343   21.5007 H   0  0  0  0  0  0
  -28.2369  -14.2771   21.6333 H   0  0  0  0  0  0
  -25.2790   -9.5691   22.4754 H   0  0  0  0  0  0
  -24.0020   -7.4646   22.7472 H   0  0  0  0  0  0
  -21.0861   -8.8788   19.8951 H   0  0  0  0  0  0
  -22.3728  -10.9677   19.6156 H   0  0  0  0  0  0
  -21.2011   -7.6148   23.9723 H   0  0  0  0  0  0
  -21.1483   -6.0515   25.9080 H   0  0  0  0  0  0
  -22.0595   -2.7608   23.2841 H   0  0  0  0  0  0
  -22.4051  -11.9855   22.4872 H   0  0  0  0  0  0
  -21.1018  -13.1168   22.2659 H   0  0  0  0  0  0
  -24.6343  -15.8521   20.5551 H   0  0  0  0  0  0
  -26.2557  -15.6493   20.1243 H   0  0  0  0  0  0
  -26.7419  -32.5053   23.0835 H   0  0  0  0  0  0
  -25.0087  -33.9427   25.0149 H   0  0  0  0  0  0
  -22.8071  -31.2560   21.3353 H   0  0  0  0  0  0
  -23.3766  -35.9507   23.3294 H   0  0  0  0  0  0
  -24.3561  -36.8846   22.2064 H   0  0  0  0  0  0
  -23.7248  -37.6364   23.6715 H   0  0  0  0  0  0
  -26.2501  -31.3179   20.6209 H   0  0  0  0  0  0
  -26.9202  -30.6567   22.0671 H   0  0  0  0  0  0
  -28.1651  -28.5185   21.2842 H   0  0  0  0  0  0
  -25.8823  -25.6816   19.0094 H   0  0  0  0  0  0
  -24.0121  -27.2358   18.9589 H   0  0  0  0  0  0
  -23.9045  -30.4868   19.3862 H   0  0  0  0  0  0
  -22.8421  -29.1863   19.8273 H   0  0  0  0  0  0
  -25.1344  -36.1727   25.0784 H   0  0  0  0  0  0
  -21.0035  -28.3373   24.1300 H   0  0  0  0  0  0
  -20.5676  -26.2381   23.3648 H   0  0  0  0  0  0
  -21.6662  -26.7403   22.1208 H   0  0  0  0  0  0
  -19.6932  -25.6268   21.1281 H   0  0  0  0  0  0
  -19.6711  -27.3154   20.6717 H   0  0  0  0  0  0
  -17.4221  -26.6672   21.4033 H   0  0  0  0  0  0
  -18.0363  -26.0097   22.9040 H   0  0  0  0  0  0
  -19.7978  -30.7331   24.2178 H   0  0  0  0  0  0
  -17.5043  -31.6276   24.5160 H   0  0  0  0  0  0
  -15.5377  -30.2968   23.7706 H   0  0  0  0  0  0
  -15.8705  -28.0802   22.7116 H   0  0  0  0  0  0
  -24.5840  -30.7198   25.7636 H   0  0  0  0  0  0
  -24.8915  -32.3037   26.4662 H   0  0  0  0  0  0
  -25.7891  -30.9014   27.0194 H   0  0  0  0  0  0
  -26.3162  -29.6528   24.1479 H   0  0  0  0  0  0
  -27.3936  -29.7261   25.5183 H   0  0  0  0  0  0
  -27.9130  -30.4010   23.9970 H   0  0  0  0  0  0
  -27.2614  -33.3686   26.1939 H   0  0  0  0  0  0
  -28.3941  -32.6833   25.0386 H   0  0  0  0  0  0
  -28.0644  -31.8564   26.5531 H   0  0  0  0  0  0
  -28.2573  -38.0057   24.7499 H   0  0  0  0  0  0
  -28.1073  -36.2584   24.6322 H   0  0  0  0  0  0
  -27.2279  -37.1425   25.8869 H   0  0  0  0  0  0
  -20.9636  -29.8700   21.6605 H   0  0  0  0  0  0
  -26.0121  -38.2742   24.1406 H   0  0  0  0  0  0
  -29.3325  -21.3837   21.7162 H   0  0  0  0  0  0
  -27.6770  -23.2240   18.1829 H   0  0  0  0  0  0
  -30.6826  -18.4588   20.9931 H   0  0  0  0  0  0
  -28.6352  -16.6703   19.6499 H   0  0  0  0  0  0
  -29.1539  -18.2027   18.1291 H   0  0  0  0  0  0
  -28.5166  -19.1737   16.8873 H   0  0  0  0  0  0
  -28.4180  -24.1731   21.7033 H   0  0  0  0  0  0
  1 25  1  0  0  0
  1 30  2  0  0  0
  1 77  1  0  0  0
  2  3  1  0  0  0
  2 25  1  0  0  0
  2 81  1  0  0  0
  2 82  1  0  0  0
  3  4  1  0  0  0
  3 83  1  0  0  0
  3 84  1  0  0  0
  4  5  1  0  0  0
  4 85  1  0  0  0
  4 86  1  0  0  0
  5  6  1  0  0  0
  5 26  1  0  0  0
  5 87  1  0  0  0
  6 25  1  0  0  0
  6 88  1  0  0  0
  6 89  1  0  0  0
  7  8  2  0  0  0
  7 26  1  0  0  0
  7 29  1  0  0  0
  8  9  1  0  0  0
  8 22  1  0  0  0
  9 10  1  0  0  0
  9 27  2  0  0  0
 10 11  2  0  0  0
 10 15  1  0  0  0
 11 12  1  0  0  0
 11 90  1  0  0  0
 12 13  2  0  0  0
 12 91  1  0  0  0
 13 14  1  0  0  0
 13 31  1  0  0  0
 14 15  2  0  0  0
 14 92  1  0  0  0
 15 93  1  0  0  0
 16 17  2  0  0  0
 16 21  1  0  0  0
 16 31  1  0  0  0
 17 18  1  0  0  0
 17 94  1  0  0  0
 18 19  2  0  0  0
 18 95  1  0  0  0
 19 20  1  0  0  0
 19 24  1  0  0  0
 20 21  2  0  0  0
 20 96  1  0  0  0
 21 23  1  0  0  0
 22 28  1  0  0  0
 22 32  2  0  0  0
 26 27  1  0  0  0
 28 97  1  0  0  0
 28 98  1  0  0  0
 29 99  1  0  0  0
 29100  1  0  0  0
 33 34  1  0  0  0
 33 66  1  0  0  0
 33 70  2  0  0  0
 34 36  1  0  0  0
 34 59  1  0  0  0
 34101  1  0  0  0
 35 44  2  0  0  0
 35 45  1  0  0  0
 35 68  1  0  0  0
 36 56  1  0  0  0
 36102  1  0  0  0
 37 39  1  0  0  0
 37 47  1  0  0  0
 37 66  1  0  0  0
 37103  1  0  0  0
 38 43  2  0  0  0
 38 46  1  0  0  0
 38 47  1  0  0  0
 39 64  1  0  0  0
 39 67  2  0  0  0
 40 52  1  0  0  0
 40 53  2  0  0  0
 40 58  1  0  0  0
 41104  1  0  0  0
 41105  1  0  0  0
 41106  1  0  0  0
 41 48  1  0  0  0
 42 43  1  0  0  0
 42 66  1  0  0  0
 42107  1  0  0  0
 42108  1  0  0  0
 43 44  1  0  0  0
 44109  1  0  0  0
 45 46  2  0  0  0
 45110  1  0  0  0
 46111  1  0  0  0
 47112  1  0  0  0
 47113  1  0  0  0
 48 56  1  0  0  0
 48 65  1  0  0  0
 48114  1  0  0  0
 49 50  1  0  0  0
 49 53  1  0  0  0
 49 64  1  0  0  0
 49115  1  0  0  0
 50 51  1  0  0  0
 50116  1  0  0  0
 50117  1  0  0  0
 51 52  1  0  0  0
 51118  1  0  0  0
 51119  1  0  0  0
 52120  1  0  0  0
 52121  1  0  0  0
 53 54  1  0  0  0
 54 55  2  0  0  0
 54122  1  0  0  0
 55 57  1  0  0  0
 55123  1  0  0  0
 56 69  2  0  0  0
 57 58  2  0  0  0
 57124  1  0  0  0
 58125  1  0  0  0
 59 60  1  0  0  0
 59 61  1  0  0  0
 59 62  1  0  0  0
 60126  1  0  0  0
 60127  1  0  0  0
 60128  1  0  0  0
 61129  1  0  0  0
 61130  1  0  0  0
 61131  1  0  0  0
 62132  1  0  0  0
 62133  1  0  0  0
 62134  1  0  0  0
 63 65  1  0  0  0
 63135  1  0  0  0
 63136  1  0  0  0
 63137  1  0  0  0
 64138  1  0  0  0
 65139  1  0  0  0
 68 80  1  0  0  0
 71 73  2  0  0  0
 71 74  1  0  0  0
 71140  1  0  0  0
 72 74  2  0  0  0
 72 78  1  0  0  0
 72141  1  0  0  0
 73 75  1  0  0  0
 73 76  1  0  0  0
 74 80  1  0  0  0
 75 78  2  0  0  0
 75 79  1  0  0  0
 76 77  2  0  0  0
 76142  1  0  0  0
 77143  1  0  0  0
 79144  1  0  0  0
 79145  1  0  0  0
 80146  1  0  0  0
M  ISO  4   1 100  68 101  77 100  80 101
M  END
> <chiral flag>
0

> <version>
0

> <s_m_source_file>
/data/baiqing/PycharmProjects/Reinvent-master-3.2/result/LINK_invent/BTK/process_docking_weight1_custom_product_contain_oxygen_bond_distance_aromatic_linkinvent_7_9_3/rearranged_h_0087.sdf

> <i_m_source_file_index>
52

> <r_mmod_Potential_Energy-OPLS-2005>
1425.81420898438

> <r_mmod_Stretch_Energy-OPLS-2005>
707.243774414062

> <r_mmod_Bend_Energy-OPLS-2005>
485.015106201172

> <r_mmod_Torsional_Energy-OPLS-2005>
210.067840576172

> <r_mmod_Improper_Torsional_Energy-OPLS-2005>
16.989387512207

> <r_mmod_Van_der_Waal_Energy-OPLS-2005>
126.03150177002

> <r_mmod_Electrostatic_Energy-OPLS-2005>
-490.599029541016

> <r_mmod_Solvation_Energy-OPLS-2005>
-230.842544555664

> <b_mmod_Minimization_Converged-OPLS-2005>
0

> <r_mmod_RMS_Derivative-OPLS-2005>
1.10707092285156

$$$$
52
                    3D
 Structure written by MMmdl.
157166  0  0  1  0            999 V2000
  -30.5573  -14.8655   20.4262 C   0  0  0  0  0  0
  -30.4443  -12.5261   19.4998 C   0  0  0  0  0  0
  -29.5228  -12.5156   18.2568 C   0  0  0  0  0  0
  -28.0508  -12.3224   18.6700 C   0  0  0  0  0  0
  -27.6398  -13.2316   19.8581 C   0  0  2  0  0  0
  -28.6851  -13.2102   20.9956 C   0  0  0  0  0  0
  -25.2510  -13.8186   20.5721 C   0  0  0  0  0  0
  -24.1796  -13.0439   20.9227 C   0  0  0  0  0  0
  -24.6381  -11.6914   20.8764 C   0  0  0  0  0  0
  -23.9062  -10.4292   21.0416 C   0  0  0  0  0  0
  -24.3617   -9.4205   21.9189 C   0  0  0  0  0  0
  -23.6289   -8.2241   22.0757 C   0  0  0  0  0  0
  -22.4271   -8.0278   21.3546 C   0  0  0  0  0  0
  -21.9906   -9.0255   20.4652 C   0  0  0  0  0  0
  -22.7237  -10.2132   20.3064 C   0  0  0  0  0  0
  -21.6846   -6.0732   22.5277 C   0  0  0  0  0  0
  -21.4012   -6.5638   23.8211 C   0  0  0  0  0  0
  -21.3660   -5.6792   24.9174 C   0  0  0  0  0  0
  -21.6045   -4.3054   24.7226 C   0  0  0  0  0  0
  -21.8818   -3.8146   23.4345 C   0  0  0  0  0  0
  -21.9190   -4.6962   22.3401 C   0  0  0  0  0  0
  -22.7816  -13.5227   21.1866 C   0  0  0  0  0  0
  -22.1657   -4.2152   21.0978 F   0  0  0  0  0  0
  -21.5631   -3.4536   25.7738 F   0  0  0  0  0  0
  -29.9775  -13.6031   20.4144 N   0  0  0  0  0  0
  -26.2930  -12.9380   20.3331 N   0  0  0  0  0  0
  -25.9315  -11.6525   20.5787 N   0  0  0  0  0  0
  -22.0451  -12.8230   22.0424 N   0  0  0  0  0  0
  -25.4208  -15.1908   20.4124 N   0  0  0  0  0  0
  -31.7255  -14.9766   20.0406 O   0  0  0  0  0  0
  -21.6635   -6.8874   21.4239 O   0  0  0  0  0  0
  -22.3508  -14.5527   20.6698 O   0  0  0  0  0  0
  -24.6369  -31.8466   23.1909 C   0  0  0  0  0  0
  -25.9164  -32.4708   23.8285 C   0  0  1  0  0  0
  -27.2328  -27.2011   20.1343 C   0  0  0  0  0  0
  -25.5932  -33.8514   24.2209 N   0  0  0  0  0  0
  -23.4399  -30.4646   21.5323 C   0  0  2  0  0  0
  -24.8954  -28.9037   20.0958 C   0  0  0  0  0  0
  -22.7542  -29.4548   22.4856 C   0  0  0  0  0  0
  -18.0301  -28.1390   22.8475 C   0  0  0  0  0  0
  -24.1487  -36.7259   23.2643 C   0  0  0  0  0  0
  -25.9894  -30.7392   21.3827 C   0  0  0  0  0  0
  -26.0648  -29.3584   20.7185 C   0  0  0  0  0  0
  -27.2302  -28.5160   20.7331 C   0  0  0  0  0  0
  -26.0455  -26.8304   19.4691 C   0  0  0  0  0  0
  -24.8954  -27.6514   19.4566 C   0  0  0  0  0  0
  -23.6641  -29.7935   20.1490 C   0  0  0  0  0  0
  -25.4118  -36.3040   24.0319 C   0  0  1  0  0  0
  -20.5909  -28.3710   23.1244 C   0  0  2  0  0  0
  -20.6782  -26.9415   22.5408 C   0  0  0  0  0  0
  -19.5762  -26.6377   21.5208 C   0  0  0  0  0  0
  -18.1942  -26.7929   22.1619 C   0  0  0  0  0  0
  -19.1556  -28.8868   23.2853 C   0  0  0  0  0  0
  -18.9479  -30.1465   23.8879 C   0  0  0  0  0  0
  -17.6476  -30.6587   24.0559 C   0  0  0  0  0  0
  -25.9061  -34.9413   23.5072 C   0  0  0  0  0  0
  -16.5367  -29.9082   23.6333 C   0  0  0  0  0  0
  -16.7286  -28.6500   23.0352 C   0  0  0  0  0  0
  -26.4517  -31.6568   25.0711 C   0  0  0  0  0  0
  -25.3722  -31.3742   26.1422 C   0  0  0  0  0  0
  -27.0383  -30.2971   24.6264 C   0  0  0  0  0  0
  -27.6050  -32.4335   25.7491 C   0  0  0  0  0  0
  -27.5574  -37.1783   24.8467 C   0  0  0  0  0  0
  -21.4238  -29.3037   22.3614 N   0  0  0  0  0  0
  -26.4287  -37.3749   23.9410 N   0  0  0  0  0  0
  -24.7073  -31.0372   22.0910 N   0  0  0  0  0  0
  -23.4208  -28.8100   23.2993 O   0  0  0  0  0  0
  -28.2432  -26.2145   20.3409 O   0  0  0  0  0  0
  -26.5646  -34.8906   22.4651 O   0  0  0  0  0  0
  -23.5500  -32.1316   23.7165 O   0  0  0  0  0  0
  -29.8829  -18.7229   20.7807 C   0  0  0  0  0  0
  -29.5951  -17.3717   20.2030 C   0  0  0  0  0  0
  -28.8732  -17.5391   19.0415 C   0  0  0  0  0  0
  -29.3989  -19.8715   20.0751 C   0  0  0  0  0  0
  -28.9156  -23.8201   19.3849 C   0  0  0  0  0  0
  -30.8992  -21.5402   19.4827 C   0  0  0  0  0  0
  -27.4199  -16.6203   17.2210 C   0  0  0  0  0  0
  -28.3788  -16.5291   18.1562 C   0  0  0  0  0  0
  -28.6238  -25.2088   19.4000 C   0  0  0  0  0  0
  -29.6413  -23.3372   18.1478 C   0  0  0  0  0  0
  -28.7848  -22.5139   20.3363 C   0  0  0  0  0  0
  -31.0082  -22.7718   18.5715 C   0  0  0  0  0  0
  -29.7161  -21.2673   20.0887 N   0  0  0  0  0  0
  -29.7928  -15.9869   20.7927 N   0  0  0  0  0  0
  -31.8987  -20.8247   19.6063 O   0  0  0  0  0  0
  -28.4769  -19.2363   18.7249 S   0  0  0  0  0  0
  -31.4822  -12.6690   19.1937 H   0  0  0  0  0  0
  -30.4190  -11.5611   20.0079 H   0  0  0  0  0  0
  -29.8236  -11.7222   17.5712 H   0  0  0  0  0  0
  -29.6351  -13.4492   17.7050 H   0  0  0  0  0  0
  -27.9274  -11.2761   18.9521 H   0  0  0  0  0  0
  -27.3918  -12.4881   17.8171 H   0  0  0  0  0  0
  -27.6127  -14.2438   19.4654 H   0  0  0  0  0  0
  -28.7497  -12.2187   21.4464 H   0  0  0  0  0  0
  -28.3948  -13.8897   21.7981 H   0  0  0  0  0  0
  -25.2761   -9.5682   22.4764 H   0  0  0  0  0  0
  -24.0000   -7.4629   22.7473 H   0  0  0  0  0  0
  -21.0839   -8.8774   19.8956 H   0  0  0  0  0  0
  -22.3697  -10.9672   19.6175 H   0  0  0  0  0  0
  -21.2006   -7.6147   23.9718 H   0  0  0  0  0  0
  -21.1483   -6.0521   25.9077 H   0  0  0  0  0  0
  -22.0599   -2.7609   23.2842 H   0  0  0  0  0  0
  -22.4058  -11.9904   22.4842 H   0  0  0  0  0  0
  -21.1063  -13.1259   22.2612 H   0  0  0  0  0  0
  -24.6475  -15.8395   20.5120 H   0  0  0  0  0  0
  -26.2548  -15.6254   20.0380 H   0  0  0  0  0  0
  -26.7229  -32.5336   23.1018 H   0  0  0  0  0  0
  -25.0064  -33.9635   25.0345 H   0  0  0  0  0  0
  -22.7393  -31.2881   21.3797 H   0  0  0  0  0  0
  -23.3753  -35.9587   23.3301 H   0  0  0  0  0  0
  -24.3573  -36.8893   22.2058 H   0  0  0  0  0  0
  -23.7241  -37.6454   23.6680 H   0  0  0  0  0  0
  -26.1414  -31.5006   20.6165 H   0  0  0  0  0  0
  -26.8598  -30.7851   22.0252 H   0  0  0  0  0  0
  -28.1105  -28.8412   21.2691 H   0  0  0  0  0  0
  -25.9781  -25.8516   19.0153 H   0  0  0  0  0  0
  -23.9986  -27.2942   18.9686 H   0  0  0  0  0  0
  -23.7888  -30.5683   19.3916 H   0  0  0  0  0  0
  -22.7826  -29.2266   19.8444 H   0  0  0  0  0  0
  -25.1304  -36.1871   25.0811 H   0  0  0  0  0  0
  -21.0006  -28.3301   24.1363 H   0  0  0  0  0  0
  -20.5665  -26.2324   23.3622 H   0  0  0  0  0  0
  -21.6650  -26.7416   22.1217 H   0  0  0  0  0  0
  -19.6921  -25.6282   21.1251 H   0  0  0  0  0  0
  -19.6700  -27.3175   20.6728 H   0  0  0  0  0  0
  -17.4208  -26.6672   21.4024 H   0  0  0  0  0  0
  -18.0345  -26.0076   22.9022 H   0  0  0  0  0  0
  -19.7954  -30.7284   24.2242 H   0  0  0  0  0  0
  -17.5030  -31.6265   24.5162 H   0  0  0  0  0  0
  -15.5367  -30.2979   23.7665 H   0  0  0  0  0  0
  -15.8686  -28.0812   22.7077 H   0  0  0  0  0  0
  -24.5895  -30.7094   25.7753 H   0  0  0  0  0  0
  -24.8919  -32.2918   26.4825 H   0  0  0  0  0  0
  -25.8025  -30.8933   27.0215 H   0  0  0  0  0  0
  -26.2993  -29.6692   24.1273 H   0  0  0  0  0  0
  -27.4017  -29.7271   25.4826 H   0  0  0  0  0  0
  -27.8892  -30.4225   23.9563 H   0  0  0  0  0  0
  -27.2637  -33.3643   26.2034 H   0  0  0  0  0  0
  -28.3875  -32.6884   25.0332 H   0  0  0  0  0  0
  -28.0703  -31.8487   26.5436 H   0  0  0  0  0  0
  -28.2590  -38.0081   24.7508 H   0  0  0  0  0  0
  -28.1071  -36.2610   24.6299 H   0  0  0  0  0  0
  -27.2292  -37.1440   25.8870 H   0  0  0  0  0  0
  -20.9436  -29.8753   21.6802 H   0  0  0  0  0  0
  -26.0154  -38.2817   24.1414 H   0  0  0  0  0  0
  -30.4765  -18.8059   21.6795 H   0  0  0  0  0  0
  -27.1614  -15.7681   16.6083 H   0  0  0  0  0  0
  -26.8754  -17.5373   17.0478 H   0  0  0  0  0  0
  -28.8715  -15.5739   18.2354 H   0  0  0  0  0  0
  -28.8807  -25.7536   18.5023 H   0  0  0  0  0  0
  -29.7877  -24.1321   17.4159 H   0  0  0  0  0  0
  -29.0433  -22.5712   17.6505 H   0  0  0  0  0  0
  -27.7558  -22.1629   20.2540 H   0  0  0  0  0  0
  -28.9049  -22.8364   21.3709 H   0  0  0  0  0  0
  -31.5720  -22.4900   17.6822 H   0  0  0  0  0  0
  -31.5935  -23.5353   19.0848 H   0  0  0  0  0  0
  -28.9702  -15.6823   21.2914 H   0  0  0  0  0  0
  1 25  1  0  0  0
  1 30  2  0  0  0
  1 84  1  0  0  0
  2  3  1  0  0  0
  2 25  1  0  0  0
  2 87  1  0  0  0
  2 88  1  0  0  0
  3  4  1  0  0  0
  3 89  1  0  0  0
  3 90  1  0  0  0
  4  5  1  0  0  0
  4 91  1  0  0  0
  4 92  1  0  0  0
  5  6  1  0  0  0
  5 26  1  0  0  0
  5 93  1  0  0  0
  6 25  1  0  0  0
  6 94  1  0  0  0
  6 95  1  0  0  0
  7  8  2  0  0  0
  7 26  1  0  0  0
  7 29  1  0  0  0
  8  9  1  0  0  0
  8 22  1  0  0  0
  9 10  1  0  0  0
  9 27  2  0  0  0
 10 11  2  0  0  0
 10 15  1  0  0  0
 11 12  1  0  0  0
 11 96  1  0  0  0
 12 13  2  0  0  0
 12 97  1  0  0  0
 13 14  1  0  0  0
 13 31  1  0  0  0
 14 15  2  0  0  0
 14 98  1  0  0  0
 15 99  1  0  0  0
 16 17  2  0  0  0
 16 21  1  0  0  0
 16 31  1  0  0  0
 17 18  1  0  0  0
 17100  1  0  0  0
 18 19  2  0  0  0
 18101  1  0  0  0
 19 20  1  0  0  0
 19 24  1  0  0  0
 20 21  2  0  0  0
 20102  1  0  0  0
 21 23  1  0  0  0
 22 28  1  0  0  0
 22 32  2  0  0  0
 26 27  1  0  0  0
 28103  1  0  0  0
 28104  1  0  0  0
 29105  1  0  0  0
 29106  1  0  0  0
 33 34  1  0  0  0
 33 66  1  0  0  0
 33 70  2  0  0  0
 34 36  1  0  0  0
 34 59  1  0  0  0
 34107  1  0  0  0
 35 44  2  0  0  0
 35 45  1  0  0  0
 35 68  1  0  0  0
 36 56  1  0  0  0
 36108  1  0  0  0
 37 39  1  0  0  0
 37 47  1  0  0  0
 37 66  1  0  0  0
 37109  1  0  0  0
 38 43  2  0  0  0
 38 46  1  0  0  0
 38 47  1  0  0  0
 39 64  1  0  0  0
 39 67  2  0  0  0
 40 52  1  0  0  0
 40 53  2  0  0  0
 40 58  1  0  0  0
 41110  1  0  0  0
 41111  1  0  0  0
 41112  1  0  0  0
 41 48  1  0  0  0
 42 43  1  0  0  0
 42 66  1  0  0  0
 42113  1  0  0  0
 42114  1  0  0  0
 43 44  1  0  0  0
 44115  1  0  0  0
 45 46  2  0  0  0
 45116  1  0  0  0
 46117  1  0  0  0
 47118  1  0  0  0
 47119  1  0  0  0
 48 56  1  0  0  0
 48 65  1  0  0  0
 48120  1  0  0  0
 49 50  1  0  0  0
 49 53  1  0  0  0
 49 64  1  0  0  0
 49121  1  0  0  0
 50 51  1  0  0  0
 50122  1  0  0  0
 50123  1  0  0  0
 51 52  1  0  0  0
 51124  1  0  0  0
 51125  1  0  0  0
 52126  1  0  0  0
 52127  1  0  0  0
 53 54  1  0  0  0
 54 55  2  0  0  0
 54128  1  0  0  0
 55 57  1  0  0  0
 55129  1  0  0  0
 56 69  2  0  0  0
 57 58  2  0  0  0
 57130  1  0  0  0
 58131  1  0  0  0
 59 60  1  0  0  0
 59 61  1  0  0  0
 59 62  1  0  0  0
 60132  1  0  0  0
 60133  1  0  0  0
 60134  1  0  0  0
 61135  1  0  0  0
 61136  1  0  0  0
 61137  1  0  0  0
 62138  1  0  0  0
 62139  1  0  0  0
 62140  1  0  0  0
 63 65  1  0  0  0
 63141  1  0  0  0
 63142  1  0  0  0
 63143  1  0  0  0
 64144  1  0  0  0
 65145  1  0  0  0
 68 79  1  0  0  0
 71 72  1  0  0  0
 71 74  2  0  0  0
 71146  1  0  0  0
 72 73  2  0  0  0
 72 84  1  0  0  0
 73 78  1  0  0  0
 73 86  1  0  0  0
 74 83  1  0  0  0
 74 86  1  0  0  0
 75 79  2  0  0  0
 75 80  1  0  0  0
 75 81  1  0  0  0
 76 82  1  0  0  0
 76 83  1  0  0  0
 76 85  2  0  0  0
 77 78  2  0  0  0
 77147  1  0  0  0
 77148  1  0  0  0
 78149  1  0  0  0
 79150  1  0  0  0
 80 82  1  0  0  0
 80151  1  0  0  0
 80152  1  0  0  0
 81 83  1  0  0  0
 81153  1  0  0  0
 81154  1  0  0  0
 82155  1  0  0  0
 82156  1  0  0  0
 84157  1  0  0  0
M  ISO  4   1 100  68 101  79 101  84 100
M  END
> <chiral flag>
0

> <version>
0

> <s_m_source_file>
/data/baiqing/PycharmProjects/Reinvent-master-3.2/result/LINK_invent/BTK/process_docking_weight1_custom_product_contain_oxygen_bond_distance_aromatic_linkinvent_7_9_3/rearranged_h_0087.sdf

> <i_m_source_file_index>
53

> <r_mmod_Potential_Energy-OPLS-2005>
495.573791503906

> <r_mmod_Stretch_Energy-OPLS-2005>
179.061614990234

> <r_mmod_Bend_Energy-OPLS-2005>
271.569549560547

> <r_mmod_Torsional_Energy-OPLS-2005>
356.4609375

> <r_mmod_Improper_Torsional_Energy-OPLS-2005>
9.23777198791504

> <r_mmod_Van_der_Waal_Energy-OPLS-2005>
120.330841064453

> <r_mmod_Electrostatic_Energy-OPLS-2005>
-372.646301269531

> <r_mmod_Solvation_Energy-OPLS-2005>
-220.399627685547

> <b_mmod_Minimization_Converged-OPLS-2005>
0

> <r_mmod_RMS_Derivative-OPLS-2005>
0.906010031700134

$$$$
53
                    3D
 Structure written by MMmdl.
158166  0  0  1  0            999 V2000
  -30.6904  -14.5687   20.4735 C   0  0  0  0  0  0
  -30.4201  -12.3375   19.4457 C   0  0  0  0  0  0
  -29.4937  -12.4390   18.2159 C   0  0  0  0  0  0
  -28.0152  -12.3219   18.6344 C   0  0  0  0  0  0
  -27.6469  -13.2122   19.8525 C   0  0  2  0  0  0
  -28.6963  -13.1021   20.9806 C   0  0  0  0  0  0
  -25.2552  -13.8165   20.5701 C   0  0  0  0  0  0
  -24.1817  -13.0439   20.9213 C   0  0  0  0  0  0
  -24.6378  -11.6909   20.8766 C   0  0  0  0  0  0
  -23.9050  -10.4292   21.0419 C   0  0  0  0  0  0
  -24.3608   -9.4205   21.9190 C   0  0  0  0  0  0
  -23.6288   -8.2238   22.0753 C   0  0  0  0  0  0
  -22.4272   -8.0277   21.3542 C   0  0  0  0  0  0
  -21.9904   -9.0251   20.4647 C   0  0  0  0  0  0
  -22.7228  -10.2133   20.3062 C   0  0  0  0  0  0
  -21.6852   -6.0733   22.5277 C   0  0  0  0  0  0
  -21.4014   -6.5638   23.8210 C   0  0  0  0  0  0
  -21.3659   -5.6791   24.9173 C   0  0  0  0  0  0
  -21.6044   -4.3054   24.7225 C   0  0  0  0  0  0
  -21.8820   -3.8145   23.4347 C   0  0  0  0  0  0
  -21.9193   -4.6961   22.3402 C   0  0  0  0  0  0
  -22.7841  -13.5237   21.1862 C   0  0  0  0  0  0
  -22.1662   -4.2146   21.0980 F   0  0  0  0  0  0
  -21.5628   -3.4538   25.7738 F   0  0  0  0  0  0
  -30.0096  -13.3878   20.3922 N   0  0  0  0  0  0
  -26.2964  -12.9337   20.3319 N   0  0  0  0  0  0
  -25.9303  -11.6502   20.5795 N   0  0  0  0  0  0
  -22.0478  -12.8233   22.0416 N   0  0  0  0  0  0
  -25.4284  -15.1876   20.4093 N   0  0  0  0  0  0
  -31.8917  -14.6358   20.1985 O   0  0  0  0  0  0
  -21.6638   -6.8874   21.4238 O   0  0  0  0  0  0
  -22.3532  -14.5540   20.6700 O   0  0  0  0  0  0
  -24.6190  -31.8652   23.2078 C   0  0  0  0  0  0
  -25.9067  -32.4808   23.8385 C   0  0  1  0  0  0
  -27.2309  -27.3961   20.0956 C   0  0  0  0  0  0
  -25.5908  -33.8607   24.2313 N   0  0  0  0  0  0
  -23.4090  -30.4897   21.5490 C   0  0  2  0  0  0
  -24.8552  -28.9543   20.1111 C   0  0  0  0  0  0
  -22.7435  -29.4647   22.4968 C   0  0  0  0  0  0
  -18.0277  -28.1379   22.8491 C   0  0  0  0  0  0
  -24.1488  -36.7309   23.2639 C   0  0  0  0  0  0
  -25.9430  -30.8188   21.3676 C   0  0  0  0  0  0
  -26.0194  -29.4518   20.7106 C   0  0  0  0  0  0
  -27.2096  -28.6793   20.7021 C   0  0  0  0  0  0
  -26.0403  -26.9209   19.4988 C   0  0  0  0  0  0
  -24.8622  -27.6894   19.5016 C   0  0  0  0  0  0
  -23.6193  -29.8254   20.1628 C   0  0  0  0  0  0
  -25.4109  -36.3103   24.0335 C   0  0  1  0  0  0
  -20.5872  -28.3672   23.1305 C   0  0  2  0  0  0
  -20.6768  -26.9405   22.5414 C   0  0  0  0  0  0
  -19.5745  -26.6384   21.5213 C   0  0  0  0  0  0
  -18.1924  -26.7924   22.1626 C   0  0  0  0  0  0
  -19.1528  -28.8842   23.2895 C   0  0  0  0  0  0
  -18.9453  -30.1447   23.8907 C   0  0  0  0  0  0
  -17.6455  -30.6585   24.0563 C   0  0  0  0  0  0
  -25.9039  -34.9468   23.5122 C   0  0  0  0  0  0
  -16.5345  -29.9085   23.6328 C   0  0  0  0  0  0
  -16.7265  -28.6502   23.0350 C   0  0  0  0  0  0
  -26.4479  -31.6597   25.0727 C   0  0  0  0  0  0
  -25.3737  -31.3713   26.1471 C   0  0  0  0  0  0
  -27.0312  -30.3033   24.6128 C   0  0  0  0  0  0
  -27.6053  -32.4319   25.7489 C   0  0  0  0  0  0
  -27.5581  -37.1809   24.8465 C   0  0  0  0  0  0
  -21.4158  -29.3037   22.3709 N   0  0  0  0  0  0
  -26.4294  -37.3789   23.9407 N   0  0  0  0  0  0
  -24.6754  -31.0726   22.0994 N   0  0  0  0  0  0
  -23.4191  -28.8188   23.3023 O   0  0  0  0  0  0
  -28.3612  -26.5911   20.1466 O   0  0  0  0  0  0
  -26.5603  -34.8924   22.4685 O   0  0  0  0  0  0
  -23.5372  -32.1420   23.7450 O   0  0  0  0  0  0
  -30.3812  -19.1911   21.3468 C   0  0  0  0  0  0
  -29.9913  -20.5345   21.0948 C   0  0  0  0  0  0
  -28.2363  -18.3989   20.5579 C   0  0  0  0  0  0
  -29.5220  -18.0962   21.0662 C   0  0  0  0  0  0
  -28.7149  -20.8297   20.5592 C   0  0  0  0  0  0
  -27.8487  -19.7356   20.2925 C   0  0  0  0  0  0
  -28.5728  -25.6897   19.1222 C   0  0  0  0  0  0
  -29.9640  -16.6608   21.3660 C   0  0  0  0  0  0
  -28.8184  -24.3540   19.2191 C   0  0  0  0  0  0
  -29.6948  -16.1502   18.9865 C   0  0  0  0  0  0
  -28.9268  -23.4294   20.4495 C   0  0  0  0  0  0
  -26.5907  -19.9821   19.7394 N   0  0  0  0  0  0
  -28.2277  -22.1351   20.2868 N   0  0  0  0  0  0
  -29.9390  -15.7085   20.3774 N   0  0  0  0  0  0
  -30.3571  -16.4256   22.5152 O   0  0  0  0  0  0
  -29.0038  -23.6267   18.1071 O   0  0  0  0  0  0
  -31.4635  -12.4306   19.1389 H   0  0  0  0  0  0
  -30.3320  -11.3561   19.9144 H   0  0  0  0  0  0
  -29.7365  -11.6495   17.5034 H   0  0  0  0  0  0
  -29.6576  -13.3742   17.6845 H   0  0  0  0  0  0
  -27.8337  -11.2746   18.8785 H   0  0  0  0  0  0
  -27.3642  -12.5505   17.7898 H   0  0  0  0  0  0
  -27.6537  -14.2387   19.4912 H   0  0  0  0  0  0
  -28.6903  -12.1045   21.4221 H   0  0  0  0  0  0
  -28.4680  -13.8003   21.7878 H   0  0  0  0  0  0
  -25.2752   -9.5683   22.4765 H   0  0  0  0  0  0
  -23.9999   -7.4627   22.7468 H   0  0  0  0  0  0
  -21.0836   -8.8768   19.8951 H   0  0  0  0  0  0
  -22.3684  -10.9674   19.6174 H   0  0  0  0  0  0
  -21.2007   -7.6146   23.9713 H   0  0  0  0  0  0
  -21.1482   -6.0522   25.9076 H   0  0  0  0  0  0
  -22.0600   -2.7607   23.2847 H   0  0  0  0  0  0
  -22.4093  -11.9899   22.4815 H   0  0  0  0  0  0
  -21.1093  -13.1257   22.2610 H   0  0  0  0  0  0
  -24.6616  -15.8435   20.5114 H   0  0  0  0  0  0
  -26.2747  -15.6150   20.0592 H   0  0  0  0  0  0
  -26.7137  -32.5505   23.1145 H   0  0  0  0  0  0
  -25.0062  -33.9764   25.0461 H   0  0  0  0  0  0
  -22.6994  -31.3079   21.4099 H   0  0  0  0  0  0
  -23.3746  -35.9647   23.3309 H   0  0  0  0  0  0
  -24.3581  -36.8917   22.2052 H   0  0  0  0  0  0
  -23.7245  -37.6519   23.6649 H   0  0  0  0  0  0
  -26.0634  -31.5854   20.6009 H   0  0  0  0  0  0
  -26.8279  -30.8684   21.9906 H   0  0  0  0  0  0
  -28.1055  -29.0540   21.1770 H   0  0  0  0  0  0
  -26.0039  -25.9397   19.0474 H   0  0  0  0  0  0
  -23.9651  -27.2960   19.0436 H   0  0  0  0  0  0
  -23.7309  -30.6021   19.4055 H   0  0  0  0  0  0
  -22.7417  -29.2490   19.8643 H   0  0  0  0  0  0
  -25.1287  -36.1967   25.0829 H   0  0  0  0  0  0
  -20.9964  -28.3239   24.1426 H   0  0  0  0  0  0
  -20.5674  -26.2279   23.3604 H   0  0  0  0  0  0
  -21.6637  -26.7446   22.1203 H   0  0  0  0  0  0
  -19.6906  -25.6298   21.1236 H   0  0  0  0  0  0
  -19.6684  -27.3201   20.6748 H   0  0  0  0  0  0
  -17.4194  -26.6672   21.4027 H   0  0  0  0  0  0
  -18.0326  -26.0064   22.9020 H   0  0  0  0  0  0
  -19.7929  -30.7259   24.2282 H   0  0  0  0  0  0
  -17.5011  -31.6267   24.5161 H   0  0  0  0  0  0
  -15.5347  -30.2990   23.7647 H   0  0  0  0  0  0
  -15.8665  -28.0825   22.7059 H   0  0  0  0  0  0
  -24.5901  -30.7074   25.7804 H   0  0  0  0  0  0
  -24.8942  -32.2874   26.4931 H   0  0  0  0  0  0
  -25.8083  -30.8868   27.0223 H   0  0  0  0  0  0
  -26.2864  -29.6794   24.1172 H   0  0  0  0  0  0
  -27.4057  -29.7273   25.4600 H   0  0  0  0  0  0
  -27.8712  -30.4340   23.9302 H   0  0  0  0  0  0
  -27.2671  -33.3610   26.2089 H   0  0  0  0  0  0
  -28.3849  -32.6894   25.0307 H   0  0  0  0  0  0
  -28.0736  -31.8430   26.5385 H   0  0  0  0  0  0
  -28.2605  -38.0100   24.7506 H   0  0  0  0  0  0
  -28.1069  -36.2632   24.6296 H   0  0  0  0  0  0
  -27.2298  -37.1467   25.8868 H   0  0  0  0  0  0
  -20.9321  -29.8764   21.6934 H   0  0  0  0  0  0
  -26.0182  -38.2869   24.1400 H   0  0  0  0  0  0
  -31.3622  -19.0004   21.7599 H   0  0  0  0  0  0
  -30.6871  -21.3265   21.3273 H   0  0  0  0  0  0
  -27.5445  -17.5920   20.3653 H   0  0  0  0  0  0
  -28.5208  -26.1913   18.1647 H   0  0  0  0  0  0
  -30.2099  -17.0842   18.7550 H   0  0  0  0  0  0
  -28.6307  -16.2902   18.8004 H   0  0  0  0  0  0
  -30.0489  -15.4419   18.2381 H   0  0  0  0  0  0
  -28.5067  -23.9493   21.3121 H   0  0  0  0  0  0
  -29.9842  -23.2776   20.6653 H   0  0  0  0  0  0
  -26.1188  -19.1847   19.3288 H   0  0  0  0  0  0
  -26.5613  -20.7786   19.1138 H   0  0  0  0  0  0
  -27.2362  -22.1788   20.0774 H   0  0  0  0  0  0
  -28.9249  -24.2098   17.3639 H   0  0  0  0  0  0
  1 25  1  0  0  0
  1 30  2  0  0  0
  1 84  1  0  0  0
  2  3  1  0  0  0
  2 25  1  0  0  0
  2 87  1  0  0  0
  2 88  1  0  0  0
  3  4  1  0  0  0
  3 89  1  0  0  0
  3 90  1  0  0  0
  4  5  1  0  0  0
  4 91  1  0  0  0
  4 92  1  0  0  0
  5  6  1  0  0  0
  5 26  1  0  0  0
  5 93  1  0  0  0
  6 25  1  0  0  0
  6 94  1  0  0  0
  6 95  1  0  0  0
  7  8  2  0  0  0
  7 26  1  0  0  0
  7 29  1  0  0  0
  8  9  1  0  0  0
  8 22  1  0  0  0
  9 10  1  0  0  0
  9 27  2  0  0  0
 10 11  2  0  0  0
 10 15  1  0  0  0
 11 12  1  0  0  0
 11 96  1  0  0  0
 12 13  2  0  0  0
 12 97  1  0  0  0
 13 14  1  0  0  0
 13 31  1  0  0  0
 14 15  2  0  0  0
 14 98  1  0  0  0
 15 99  1  0  0  0
 16 17  2  0  0  0
 16 21  1  0  0  0
 16 31  1  0  0  0
 17 18  1  0  0  0
 17100  1  0  0  0
 18 19  2  0  0  0
 18101  1  0  0  0
 19 20  1  0  0  0
 19 24  1  0  0  0
 20 21  2  0  0  0
 20102  1  0  0  0
 21 23  1  0  0  0
 22 28  1  0  0  0
 22 32  2  0  0  0
 26 27  1  0  0  0
 28103  1  0  0  0
 28104  1  0  0  0
 29105  1  0  0  0
 29106  1  0  0  0
 33 34  1  0  0  0
 33 66  1  0  0  0
 33 70  2  0  0  0
 34 36  1  0  0  0
 34 59  1  0  0  0
 34107  1  0  0  0
 35 44  2  0  0  0
 35 45  1  0  0  0
 35 68  1  0  0  0
 36 56  1  0  0  0
 36108  1  0  0  0
 37 39  1  0  0  0
 37 47  1  0  0  0
 37 66  1  0  0  0
 37109  1  0  0  0
 38 43  2  0  0  0
 38 46  1  0  0  0
 38 47  1  0  0  0
 39 64  1  0  0  0
 39 67  2  0  0  0
 40 52  1  0  0  0
 40 53  2  0  0  0
 40 58  1  0  0  0
 41110  1  0  0  0
 41111  1  0  0  0
 41112  1  0  0  0
 41 48  1  0  0  0
 42 43  1  0  0  0
 42 66  1  0  0  0
 42113  1  0  0  0
 42114  1  0  0  0
 43 44  1  0  0  0
 44115  1  0  0  0
 45 46  2  0  0  0
 45116  1  0  0  0
 46117  1  0  0  0
 47118  1  0  0  0
 47119  1  0  0  0
 48 56  1  0  0  0
 48 65  1  0  0  0
 48120  1  0  0  0
 49 50  1  0  0  0
 49 53  1  0  0  0
 49 64  1  0  0  0
 49121  1  0  0  0
 50 51  1  0  0  0
 50122  1  0  0  0
 50123  1  0  0  0
 51 52  1  0  0  0
 51124  1  0  0  0
 51125  1  0  0  0
 52126  1  0  0  0
 52127  1  0  0  0
 53 54  1  0  0  0
 54 55  2  0  0  0
 54128  1  0  0  0
 55 57  1  0  0  0
 55129  1  0  0  0
 56 69  2  0  0  0
 57 58  2  0  0  0
 57130  1  0  0  0
 58131  1  0  0  0
 59 60  1  0  0  0
 59 61  1  0  0  0
 59 62  1  0  0  0
 60132  1  0  0  0
 60133  1  0  0  0
 60134  1  0  0  0
 61135  1  0  0  0
 61136  1  0  0  0
 61137  1  0  0  0
 62138  1  0  0  0
 62139  1  0  0  0
 62140  1  0  0  0
 63 65  1  0  0  0
 63141  1  0  0  0
 63142  1  0  0  0
 63143  1  0  0  0
 64144  1  0  0  0
 65145  1  0  0  0
 68 77  1  0  0  0
 71 72  2  0  0  0
 71 74  1  0  0  0
 71146  1  0  0  0
 72 75  1  0  0  0
 72147  1  0  0  0
 73 74  2  0  0  0
 73 76  1  0  0  0
 73148  1  0  0  0
 74 78  1  0  0  0
 75 76  2  0  0  0
 75 83  1  0  0  0
 76 82  1  0  0  0
 77 79  2  0  0  0
 77149  1  0  0  0
 78 84  1  0  0  0
 78 85  2  0  0  0
 79 81  1  0  0  0
 79 86  1  0  0  0
 80 84  1  0  0  0
 80150  1  0  0  0
 80151  1  0  0  0
 80152  1  0  0  0
 81 83  1  0  0  0
 81153  1  0  0  0
 81154  1  0  0  0
 82155  1  0  0  0
 82156  1  0  0  0
 83157  1  0  0  0
 86158  1  0  0  0
M  ISO  4   1 100  68 101  77 101  84 100
M  END
> <chiral flag>
0

> <version>
0

> <s_m_source_file>
/data/baiqing/PycharmProjects/Reinvent-master-3.2/result/LINK_invent/BTK/process_docking_weight1_custom_product_contain_oxygen_bond_distance_aromatic_linkinvent_7_9_3/rearranged_h_0087.sdf

> <i_m_source_file_index>
54

> <r_mmod_Potential_Energy-OPLS-2005>
7.30318260192871

> <r_mmod_Stretch_Energy-OPLS-2005>
51.6568756103516

> <r_mmod_Bend_Energy-OPLS-2005>
133.101104736328

> <r_mmod_Torsional_Energy-OPLS-2005>
312.485748291016

> <r_mmod_Improper_Torsional_Energy-OPLS-2005>
22.1633453369141

> <r_mmod_Van_der_Waal_Energy-OPLS-2005>
164.800811767578

> <r_mmod_Electrostatic_Energy-OPLS-2005>
-486.677520751953

> <r_mmod_Solvation_Energy-OPLS-2005>
-224.255142211914

> <b_mmod_Minimization_Converged-OPLS-2005>
0

> <r_mmod_RMS_Derivative-OPLS-2005>
0.177849605679512

$$$$
54
                    3D
 Structure written by MMmdl.
156164  0  0  1  0            999 V2000
  -30.5598  -14.8609   20.4540 C   0  0  0  0  0  0
  -30.4492  -12.5287   19.4852 C   0  0  0  0  0  0
  -29.5177  -12.4969   18.2490 C   0  0  0  0  0  0
  -28.0497  -12.2702   18.6633 C   0  0  0  0  0  0
  -27.6320  -13.1938   19.8300 C   0  0  2  0  0  0
  -28.6785  -13.1844   20.9687 C   0  0  0  0  0  0
  -25.2540  -13.8071   20.5658 C   0  0  0  0  0  0
  -24.1790  -13.0382   20.9158 C   0  0  0  0  0  0
  -24.6356  -11.6847   20.8747 C   0  0  0  0  0  0
  -23.9034  -10.4255   21.0427 C   0  0  0  0  0  0
  -24.3607   -9.4172   21.9188 C   0  0  0  0  0  0
  -23.6292   -8.2208   22.0760 C   0  0  0  0  0  0
  -22.4266   -8.0265   21.3555 C   0  0  0  0  0  0
  -21.9890   -9.0230   20.4648 C   0  0  0  0  0  0
  -22.7217  -10.2107   20.3061 C   0  0  0  0  0  0
  -21.6836   -6.0732   22.5275 C   0  0  0  0  0  0
  -21.4010   -6.5632   23.8213 C   0  0  0  0  0  0
  -21.3661   -5.6787   24.9169 C   0  0  0  0  0  0
  -21.6046   -4.3054   24.7213 C   0  0  0  0  0  0
  -21.8829   -3.8144   23.4336 C   0  0  0  0  0  0
  -21.9197   -4.6963   22.3397 C   0  0  0  0  0  0
  -22.7836  -13.5210   21.1830 C   0  0  0  0  0  0
  -22.1672   -4.2141   21.0980 F   0  0  0  0  0  0
  -21.5619   -3.4548   25.7732 F   0  0  0  0  0  0
  -29.9654  -13.6018   20.3948 N   0  0  0  0  0  0
  -26.2888  -12.9183   20.3200 N   0  0  0  0  0  0
  -25.9262  -11.6381   20.5743 N   0  0  0  0  0  0
  -22.0503  -12.8219   22.0411 N   0  0  0  0  0  0
  -25.4389  -15.1770   20.4163 N   0  0  0  0  0  0
  -31.7610  -14.9503   20.1739 O   0  0  0  0  0  0
  -21.6639   -6.8866   21.4236 O   0  0  0  0  0  0
  -22.3510  -14.5501   20.6665 O   0  0  0  0  0  0
  -24.6333  -31.8525   23.1954 C   0  0  0  0  0  0
  -25.9151  -32.4743   23.8303 C   0  0  1  0  0  0
  -27.2404  -27.2388   20.1203 C   0  0  0  0  0  0
  -25.5921  -33.8540   24.2228 N   0  0  0  0  0  0
  -23.4333  -30.4716   21.5406 C   0  0  2  0  0  0
  -24.8873  -28.9190   20.1055 C   0  0  0  0  0  0
  -22.7525  -29.4571   22.4912 C   0  0  0  0  0  0
  -18.0309  -28.1351   22.8497 C   0  0  0  0  0  0
  -24.1510  -36.7276   23.2640 C   0  0  0  0  0  0
  -25.9824  -30.7563   21.3810 C   0  0  0  0  0  0
  -26.0605  -29.3784   20.7179 C   0  0  0  0  0  0
  -27.2360  -28.5515   20.7166 C   0  0  0  0  0  0
  -26.0315  -26.8529   19.4904 C   0  0  0  0  0  0
  -24.8795  -27.6648   19.4802 C   0  0  0  0  0  0
  -23.6539  -29.8036   20.1577 C   0  0  0  0  0  0
  -25.4137  -36.3068   24.0326 C   0  0  1  0  0  0
  -20.5918  -28.3672   23.1264 C   0  0  2  0  0  0
  -20.6787  -26.9382   22.5407 C   0  0  0  0  0  0
  -19.5763  -26.6365   21.5212 C   0  0  0  0  0  0
  -18.1950  -26.7898   22.1628 C   0  0  0  0  0  0
  -19.1559  -28.8839   23.2873 C   0  0  0  0  0  0
  -18.9460  -30.1441   23.8895 C   0  0  0  0  0  0
  -17.6453  -30.6563   24.0551 C   0  0  0  0  0  0
  -25.9064  -34.9438   23.5091 C   0  0  0  0  0  0
  -16.5357  -29.9043   23.6328 C   0  0  0  0  0  0
  -16.7291  -28.6454   23.0371 C   0  0  0  0  0  0
  -26.4508  -31.6548   25.0687 C   0  0  0  0  0  0
  -25.3718  -31.3660   26.1385 C   0  0  0  0  0  0
  -27.0348  -30.2969   24.6156 C   0  0  0  0  0  0
  -27.6082  -32.4271   25.7443 C   0  0  0  0  0  0
  -27.5595  -37.1798   24.8466 C   0  0  0  0  0  0
  -21.4231  -29.3015   22.3650 N   0  0  0  0  0  0
  -26.4322  -37.3760   23.9388 N   0  0  0  0  0  0
  -24.7021  -31.0454   22.0951 N   0  0  0  0  0  0
  -23.4214  -28.8139   23.3033 O   0  0  0  0  0  0
  -28.3046  -26.2919   20.2167 O   0  0  0  0  0  0
  -26.5649  -34.8923   22.4666 O   0  0  0  0  0  0
  -23.5477  -32.1360   23.7229 O   0  0  0  0  0  0
  -31.2723  -19.2842   22.4526 C   0  0  0  0  0  0
  -30.7064  -20.4118   21.8230 C   0  0  0  0  0  0
  -29.5750  -18.8987   20.3125 C   0  0  0  0  0  0
  -30.1358  -17.6899   20.9417 C   0  0  0  0  0  0
  -30.9891  -17.9547   22.0524 C   0  0  0  0  0  0
  -29.8201  -20.2810   20.7356 C   0  0  0  0  0  0
  -28.3856  -25.1889   19.3134 C   0  0  0  0  0  0
  -29.6363  -16.2223   20.6186 C   0  0  0  0  0  0
  -28.7197  -23.8188   19.3257 C   0  0  0  0  0  0
  -29.1695  -22.8705   20.4288 C   0  0  0  0  0  0
  -31.5673  -16.8365   22.9077 C   0  0  0  0  0  0
  -28.6444  -23.1412   17.9538 C   0  0  0  0  0  0
  -28.3822  -16.1754   20.4674 N   0  0  0  0  0  0
  -29.2567  -21.5076   20.0800 N   0  0  0  0  0  0
  -29.4452  -23.2568   21.5650 O   0  0  0  0  0  0
  -31.4798  -12.6944   19.1682 H   0  0  0  0  0  0
  -30.4518  -11.5643   19.9962 H   0  0  0  0  0  0
  -29.8331  -11.7135   17.5595 H   0  0  0  0  0  0
  -29.6018  -13.4399   17.7076 H   0  0  0  0  0  0
  -27.9412  -11.2273   18.9661 H   0  0  0  0  0  0
  -27.3836  -12.4096   17.8098 H   0  0  0  0  0  0
  -27.5937  -14.1730   19.3658 H   0  0  0  0  0  0
  -28.7617  -12.1898   21.4102 H   0  0  0  0  0  0
  -28.3794  -13.8484   21.7805 H   0  0  0  0  0  0
  -25.2752   -9.5650   22.4762 H   0  0  0  0  0  0
  -23.9998   -7.4599   22.7491 H   0  0  0  0  0  0
  -21.0812   -8.8760   19.8960 H   0  0  0  0  0  0
  -22.3687  -10.9658   19.6178 H   0  0  0  0  0  0
  -21.2014   -7.6142   23.9706 H   0  0  0  0  0  0
  -21.1472   -6.0522   25.9069 H   0  0  0  0  0  0
  -22.0615   -2.7606   23.2841 H   0  0  0  0  0  0
  -22.4134  -11.9870   22.4777 H   0  0  0  0  0  0
  -21.1137  -13.1254   22.2654 H   0  0  0  0  0  0
  -24.7185  -15.8650   20.6052 H   0  0  0  0  0  0
  -26.3640  -15.5813   20.2749 H   0  0  0  0  0  0
  -26.7218  -32.5402   23.1038 H   0  0  0  0  0  0
  -25.0057  -33.9652   25.0371 H   0  0  0  0  0  0
  -22.7328  -31.2961   21.3937 H   0  0  0  0  0  0
  -23.3785  -35.9594   23.3305 H   0  0  0  0  0  0
  -24.3611  -36.8890   22.2053 H   0  0  0  0  0  0
  -23.7253  -37.6475   23.6663 H   0  0  0  0  0  0
  -26.1284  -31.5205   20.6164 H   0  0  0  0  0  0
  -26.8581  -30.8021   22.0161 H   0  0  0  0  0  0
  -28.1295  -28.8945   21.2200 H   0  0  0  0  0  0
  -25.9440  -25.8804   19.0303 H   0  0  0  0  0  0
  -23.9798  -27.3030   19.0011 H   0  0  0  0  0  0
  -23.7640  -30.5786   19.3988 H   0  0  0  0  0  0
  -22.7752  -29.2293   19.8604 H   0  0  0  0  0  0
  -25.1333  -36.1925   25.0825 H   0  0  0  0  0  0
  -21.0020  -28.3234   24.1382 H   0  0  0  0  0  0
  -20.5683  -26.2265   23.3604 H   0  0  0  0  0  0
  -21.6644  -26.7398   22.1196 H   0  0  0  0  0  0
  -19.6906  -25.6284   21.1220 H   0  0  0  0  0  0
  -19.6684  -27.3197   20.6761 H   0  0  0  0  0  0
  -17.4214  -26.6676   21.4032 H   0  0  0  0  0  0
  -18.0332  -26.0027   22.9008 H   0  0  0  0  0  0
  -19.7929  -30.7261   24.2257 H   0  0  0  0  0  0
  -17.4997  -31.6247   24.5122 H   0  0  0  0  0  0
  -15.5349  -30.2922   23.7642 H   0  0  0  0  0  0
  -15.8702  -28.0751   22.7085 H   0  0  0  0  0  0
  -24.5953  -30.6953   25.7674 H   0  0  0  0  0  0
  -24.8835  -32.2799   26.4781 H   0  0  0  0  0  0
  -25.8030  -30.8852   27.0174 H   0  0  0  0  0  0
  -26.2902  -29.6709   24.1222 H   0  0  0  0  0  0
  -27.4078  -29.7237   25.4650 H   0  0  0  0  0  0
  -27.8777  -30.4247   23.9362 H   0  0  0  0  0  0
  -27.2737  -33.3607   26.1975 H   0  0  0  0  0  0
  -28.3906  -32.6749   25.0256 H   0  0  0  0  0  0
  -28.0732  -31.8405   26.5372 H   0  0  0  0  0  0
  -28.2625  -38.0089   24.7529 H   0  0  0  0  0  0
  -28.1095  -36.2623   24.6312 H   0  0  0  0  0  0
  -27.2305  -37.1459   25.8870 H   0  0  0  0  0  0
  -20.9419  -29.8707   21.6834 H   0  0  0  0  0  0
  -26.0213  -38.2848   24.1363 H   0  0  0  0  0  0
  -31.9183  -19.4580   23.3033 H   0  0  0  0  0  0
  -30.9668  -21.3875   22.2046 H   0  0  0  0  0  0
  -28.8885  -18.7532   19.4908 H   0  0  0  0  0  0
  -28.1193  -25.5881   18.3437 H   0  0  0  0  0  0
  -32.3688  -16.3208   22.3795 H   0  0  0  0  0  0
  -30.8016  -16.1123   23.1890 H   0  0  0  0  0  0
  -31.9853  -17.2226   23.8383 H   0  0  0  0  0  0
  -28.3984  -23.8334   17.1465 H   0  0  0  0  0  0
  -27.8839  -22.3603   17.9419 H   0  0  0  0  0  0
  -29.6051  -22.6946   17.6916 H   0  0  0  0  0  0
  -27.9760  -17.0932   20.6051 H   0  0  0  0  0  0
  -28.8779  -21.3375   19.1588 H   0  0  0  0  0  0
  1 25  1  0  0  0
  1 30  2  0  0  0
  1 78  1  0  0  0
  2  3  1  0  0  0
  2 25  1  0  0  0
  2 86  1  0  0  0
  2 87  1  0  0  0
  3  4  1  0  0  0
  3 88  1  0  0  0
  3 89  1  0  0  0
  4  5  1  0  0  0
  4 90  1  0  0  0
  4 91  1  0  0  0
  5  6  1  0  0  0
  5 26  1  0  0  0
  5 92  1  0  0  0
  6 25  1  0  0  0
  6 93  1  0  0  0
  6 94  1  0  0  0
  7  8  2  0  0  0
  7 26  1  0  0  0
  7 29  1  0  0  0
  8  9  1  0  0  0
  8 22  1  0  0  0
  9 10  1  0  0  0
  9 27  2  0  0  0
 10 11  2  0  0  0
 10 15  1  0  0  0
 11 12  1  0  0  0
 11 95  1  0  0  0
 12 13  2  0  0  0
 12 96  1  0  0  0
 13 14  1  0  0  0
 13 31  1  0  0  0
 14 15  2  0  0  0
 14 97  1  0  0  0
 15 98  1  0  0  0
 16 17  2  0  0  0
 16 21  1  0  0  0
 16 31  1  0  0  0
 17 18  1  0  0  0
 17 99  1  0  0  0
 18 19  2  0  0  0
 18100  1  0  0  0
 19 20  1  0  0  0
 19 24  1  0  0  0
 20 21  2  0  0  0
 20101  1  0  0  0
 21 23  1  0  0  0
 22 28  1  0  0  0
 22 32  2  0  0  0
 26 27  1  0  0  0
 28102  1  0  0  0
 28103  1  0  0  0
 29104  1  0  0  0
 29105  1  0  0  0
 33 34  1  0  0  0
 33 66  1  0  0  0
 33 70  2  0  0  0
 34 36  1  0  0  0
 34 59  1  0  0  0
 34106  1  0  0  0
 35 44  2  0  0  0
 35 45  1  0  0  0
 35 68  1  0  0  0
 36 56  1  0  0  0
 36107  1  0  0  0
 37 39  1  0  0  0
 37 47  1  0  0  0
 37 66  1  0  0  0
 37108  1  0  0  0
 38 43  2  0  0  0
 38 46  1  0  0  0
 38 47  1  0  0  0
 39 64  1  0  0  0
 39 67  2  0  0  0
 40 52  1  0  0  0
 40 53  2  0  0  0
 40 58  1  0  0  0
 41109  1  0  0  0
 41110  1  0  0  0
 41111  1  0  0  0
 41 48  1  0  0  0
 42 43  1  0  0  0
 42 66  1  0  0  0
 42112  1  0  0  0
 42113  1  0  0  0
 43 44  1  0  0  0
 44114  1  0  0  0
 45 46  2  0  0  0
 45115  1  0  0  0
 46116  1  0  0  0
 47117  1  0  0  0
 47118  1  0  0  0
 48 56  1  0  0  0
 48 65  1  0  0  0
 48119  1  0  0  0
 49 50  1  0  0  0
 49 53  1  0  0  0
 49 64  1  0  0  0
 49120  1  0  0  0
 50 51  1  0  0  0
 50121  1  0  0  0
 50122  1  0  0  0
 51 52  1  0  0  0
 51123  1  0  0  0
 51124  1  0  0  0
 52125  1  0  0  0
 52126  1  0  0  0
 53 54  1  0  0  0
 54 55  2  0  0  0
 54127  1  0  0  0
 55 57  1  0  0  0
 55128  1  0  0  0
 56 69  2  0  0  0
 57 58  2  0  0  0
 57129  1  0  0  0
 58130  1  0  0  0
 59 60  1  0  0  0
 59 61  1  0  0  0
 59 62  1  0  0  0
 60131  1  0  0  0
 60132  1  0  0  0
 60133  1  0  0  0
 61134  1  0  0  0
 61135  1  0  0  0
 61136  1  0  0  0
 62137  1  0  0  0
 62138  1  0  0  0
 62139  1  0  0  0
 63 65  1  0  0  0
 63140  1  0  0  0
 63141  1  0  0  0
 63142  1  0  0  0
 64143  1  0  0  0
 65144  1  0  0  0
 68 77  1  0  0  0
 71 72  2  0  0  0
 71 75  1  0  0  0
 71145  1  0  0  0
 72 76  1  0  0  0
 72146  1  0  0  0
 73 74  1  0  0  0
 73 76  2  0  0  0
 73147  1  0  0  0
 74 75  2  0  0  0
 74 78  1  0  0  0
 75 81  1  0  0  0
 76 84  1  0  0  0
 77 79  2  0  0  0
 77148  1  0  0  0
 78 83  2  0  0  0
 79 80  1  0  0  0
 79 82  1  0  0  0
 80 84  1  0  0  0
 80 85  2  0  0  0
 81149  1  0  0  0
 81150  1  0  0  0
 81151  1  0  0  0
 82152  1  0  0  0
 82153  1  0  0  0
 82154  1  0  0  0
 83155  1  0  0  0
 84156  1  0  0  0
M  ISO  4   1 100  68 101  77 101  78 100
M  END
> <chiral flag>
0

> <version>
0

> <s_m_source_file>
/data/baiqing/PycharmProjects/Reinvent-master-3.2/result/LINK_invent/BTK/process_docking_weight1_custom_product_contain_oxygen_bond_distance_aromatic_linkinvent_7_9_3/rearranged_h_0087.sdf

> <i_m_source_file_index>
55

> <r_mmod_Potential_Energy-OPLS-2005>
475.064453125

> <r_mmod_Stretch_Energy-OPLS-2005>
179.237060546875

> <r_mmod_Bend_Energy-OPLS-2005>
244.560531616211

> <r_mmod_Torsional_Energy-OPLS-2005>
220.794891357422

> <r_mmod_Improper_Torsional_Energy-OPLS-2005>
7.33781623840332

> <r_mmod_Van_der_Waal_Energy-OPLS-2005>
165.026412963867

> <r_mmod_Electrostatic_Energy-OPLS-2005>
-258.287048339844

> <r_mmod_Solvation_Energy-OPLS-2005>
-211.106994628906

> <b_mmod_Minimization_Converged-OPLS-2005>
0

> <r_mmod_RMS_Derivative-OPLS-2005>
2.93723583221436

$$$$
55
                    3D
 Structure written by MMmdl.
161170  0  0  1  0            999 V2000
  -30.7263  -14.4027   20.6738 C   0  0  0  0  0  0
  -30.4276  -12.3048   19.3867 C   0  0  0  0  0  0
  -29.4864  -12.5334   18.1883 C   0  0  0  0  0  0
  -28.0092  -12.3904   18.6061 C   0  0  0  0  0  0
  -27.6710  -13.1974   19.8878 C   0  0  2  0  0  0
  -28.7161  -12.9152   20.9913 C   0  0  0  0  0  0
  -25.2637  -13.8133   20.5683 C   0  0  0  0  0  0
  -24.1866  -13.0422   20.9176 C   0  0  0  0  0  0
  -24.6404  -11.6886   20.8729 C   0  0  0  0  0  0
  -23.9054  -10.4280   21.0402 C   0  0  0  0  0  0
  -24.3606   -9.4195   21.9180 C   0  0  0  0  0  0
  -23.6290   -8.2224   22.0744 C   0  0  0  0  0  0
  -22.4270   -8.0269   21.3537 C   0  0  0  0  0  0
  -21.9908   -9.0237   20.4632 C   0  0  0  0  0  0
  -22.7228  -10.2124   20.3048 C   0  0  0  0  0  0
  -21.6842   -6.0737   22.5281 C   0  0  0  0  0  0
  -21.4008   -6.5645   23.8213 C   0  0  0  0  0  0
  -21.3658   -5.6798   24.9175 C   0  0  0  0  0  0
  -21.6045   -4.3064   24.7229 C   0  0  0  0  0  0
  -21.8821   -3.8148   23.4354 C   0  0  0  0  0  0
  -21.9190   -4.6962   22.3407 C   0  0  0  0  0  0
  -22.7893  -13.5225   21.1857 C   0  0  0  0  0  0
  -22.1660   -4.2148   21.0985 F   0  0  0  0  0  0
  -21.5632   -3.4554   25.7748 F   0  0  0  0  0  0
  -30.0446  -13.2461   20.4493 N   0  0  0  0  0  0
  -26.3078  -12.9283   20.3427 N   0  0  0  0  0  0
  -25.9332  -11.6447   20.5762 N   0  0  0  0  0  0
  -22.0526  -12.8202   22.0402 N   0  0  0  0  0  0
  -25.4412  -15.1839   20.4076 N   0  0  0  0  0  0
  -31.7884  -14.6464   20.0858 O   0  0  0  0  0  0
  -21.6627   -6.8872   21.4238 O   0  0  0  0  0  0
  -22.3579  -14.5541   20.6729 O   0  0  0  0  0  0
  -24.6112  -31.8705   23.2124 C   0  0  0  0  0  0
  -25.9013  -32.4845   23.8420 C   0  0  1  0  0  0
  -27.2442  -27.4724   20.0761 C   0  0  0  0  0  0
  -25.5878  -33.8642   24.2344 N   0  0  0  0  0  0
  -23.3999  -30.4935   21.5509 C   0  0  2  0  0  0
  -24.8488  -28.9610   20.1159 C   0  0  0  0  0  0
  -22.7398  -29.4668   22.4988 C   0  0  0  0  0  0
  -18.0271  -28.1386   22.8496 C   0  0  0  0  0  0
  -24.1477  -36.7327   23.2638 C   0  0  0  0  0  0
  -25.9255  -30.8434   21.3634 C   0  0  0  0  0  0
  -26.0053  -29.4781   20.7147 C   0  0  0  0  0  0
  -27.2046  -28.7344   20.7042 C   0  0  0  0  0  0
  -26.0715  -26.9539   19.4873 C   0  0  0  0  0  0
  -24.8732  -27.6934   19.5060 C   0  0  0  0  0  0
  -23.6095  -29.8255   20.1652 C   0  0  0  0  0  0
  -25.4098  -36.3130   24.0341 C   0  0  1  0  0  0
  -20.5858  -28.3671   23.1324 C   0  0  2  0  0  0
  -20.6758  -26.9409   22.5425 C   0  0  0  0  0  0
  -19.5741  -26.6390   21.5216 C   0  0  0  0  0  0
  -18.1913  -26.7937   22.1618 C   0  0  0  0  0  0
  -19.1518  -28.8843   23.2909 C   0  0  0  0  0  0
  -18.9449  -30.1448   23.8924 C   0  0  0  0  0  0
  -17.6454  -30.6598   24.0569 C   0  0  0  0  0  0
  -25.9027  -34.9489   23.5141 C   0  0  0  0  0  0
  -16.5345  -29.9104   23.6323 C   0  0  0  0  0  0
  -16.7264  -28.6515   23.0354 C   0  0  0  0  0  0
  -26.4454  -31.6620   25.0739 C   0  0  0  0  0  0
  -25.3734  -31.3723   26.1499 C   0  0  0  0  0  0
  -27.0265  -30.3063   24.6093 C   0  0  0  0  0  0
  -27.6044  -32.4329   25.7491 C   0  0  0  0  0  0
  -27.5584  -37.1806   24.8456 C   0  0  0  0  0  0
  -21.4128  -29.3039   22.3731 N   0  0  0  0  0  0
  -26.4289  -37.3810   23.9416 N   0  0  0  0  0  0
  -24.6636  -31.0822   22.1017 N   0  0  0  0  0  0
  -23.4175  -28.8213   23.3026 O   0  0  0  0  0  0
  -28.4041  -26.7401   20.0670 O   0  0  0  0  0  0
  -26.5601  -34.8933   22.4708 O   0  0  0  0  0  0
  -23.5309  -32.1445   23.7529 O   0  0  0  0  0  0
  -30.1065  -21.2317   20.4887 C   0  0  0  0  0  0
  -30.1548  -19.8854   20.8930 C   0  0  0  0  0  0
  -29.9977  -20.5233   18.1714 C   0  0  0  0  0  0
  -30.0590  -19.1624   18.5591 C   0  0  0  0  0  0
  -29.9889  -21.5770   19.1206 C   0  0  0  0  0  0
  -30.1084  -18.8438   19.9399 C   0  0  0  0  0  0
  -29.3625  -25.1533   18.5355 C   0  0  0  0  0  0
  -29.9323  -24.8060   17.2585 C   0  0  0  0  0  0
  -29.3294  -23.9818   19.3876 C   0  0  0  0  0  0
  -29.6933  -18.2046   16.2502 C   0  0  0  0  0  0
  -30.0338  -18.0830   17.5453 C   0  0  0  0  0  0
  -28.9095  -26.3873   18.8441 C   0  0  0  0  0  0
  -30.6105  -16.8574   21.3636 C   0  0  0  0  0  0
  -30.2564  -23.3334   17.3106 C   0  0  0  0  0  0
  -30.1429  -15.4258   21.6836 C   0  0  0  0  0  0
  -29.8722  -22.9464   18.6812 N   0  0  0  0  0  0
  -29.9930  -17.4856   20.3468 N   0  0  0  0  0  0
  -30.1276  -25.5340   16.2786 O   0  0  0  0  0  0
  -28.8677  -23.9218   20.5342 O   0  0  0  0  0  0
  -31.4810  -17.3898   22.0598 O   0  0  0  0  0  0
  -31.4669  -12.4215   19.0761 H   0  0  0  0  0  0
  -30.3432  -11.2786   19.7473 H   0  0  0  0  0  0
  -29.7187  -11.8294   17.3886 H   0  0  0  0  0  0
  -29.6554  -13.5301   17.7768 H   0  0  0  0  0  0
  -27.8103  -11.3311   18.7723 H   0  0  0  0  0  0
  -27.3563  -12.6974   17.7882 H   0  0  0  0  0  0
  -27.7341  -14.2547   19.6299 H   0  0  0  0  0  0
  -28.6944  -11.8586   21.2633 H   0  0  0  0  0  0
  -28.4725  -13.4373   21.9149 H   0  0  0  0  0  0
  -25.2746   -9.5673   22.4760 H   0  0  0  0  0  0
  -24.0006   -7.4608   22.7460 H   0  0  0  0  0  0
  -21.0845   -8.8742   19.8934 H   0  0  0  0  0  0
  -22.3675  -10.9664   19.6163 H   0  0  0  0  0  0
  -21.1999   -7.6152   23.9721 H   0  0  0  0  0  0
  -21.1485   -6.0527   25.9080 H   0  0  0  0  0  0
  -22.0608   -2.7612   23.2852 H   0  0  0  0  0  0
  -22.4129  -11.9844   22.4763 H   0  0  0  0  0  0
  -21.1149  -13.1230   22.2627 H   0  0  0  0  0  0
  -24.6823  -15.8497   20.5068 H   0  0  0  0  0  0
  -26.3039  -15.6118   20.0961 H   0  0  0  0  0  0
  -26.7096  -32.5574   23.1199 H   0  0  0  0  0  0
  -25.0010  -33.9821   25.0478 H   0  0  0  0  0  0
  -22.6875  -31.3092   21.4116 H   0  0  0  0  0  0
  -23.3755  -35.9643   23.3275 H   0  0  0  0  0  0
  -24.3577  -36.8976   22.2061 H   0  0  0  0  0  0
  -23.7204  -37.6508   23.6677 H   0  0  0  0  0  0
  -26.0302  -31.6075   20.5918 H   0  0  0  0  0  0
  -26.8161  -30.9025   21.9773 H   0  0  0  0  0  0
  -28.0997  -29.1270   21.1660 H   0  0  0  0  0  0
  -26.0869  -25.9788   19.0211 H   0  0  0  0  0  0
  -23.9814  -27.2853   19.0501 H   0  0  0  0  0  0
  -23.7217  -30.6017   19.4073 H   0  0  0  0  0  0
  -22.7336  -29.2469   19.8657 H   0  0  0  0  0  0
  -25.1267  -36.2003   25.0831 H   0  0  0  0  0  0
  -20.9958  -28.3243   24.1438 H   0  0  0  0  0  0
  -20.5663  -26.2280   23.3612 H   0  0  0  0  0  0
  -21.6629  -26.7454   22.1223 H   0  0  0  0  0  0
  -19.6902  -25.6305   21.1237 H   0  0  0  0  0  0
  -19.6684  -27.3203   20.6747 H   0  0  0  0  0  0
  -17.4195  -26.6717   21.4004 H   0  0  0  0  0  0
  -18.0291  -26.0070   22.8996 H   0  0  0  0  0  0
  -19.7926  -30.7253   24.2310 H   0  0  0  0  0  0
  -17.5014  -31.6278   24.5169 H   0  0  0  0  0  0
  -15.5349  -30.3020   23.7625 H   0  0  0  0  0  0
  -15.8662  -28.0841   22.7061 H   0  0  0  0  0  0
  -24.5890  -30.7083   25.7848 H   0  0  0  0  0  0
  -24.8942  -32.2877   26.4981 H   0  0  0  0  0  0
  -25.8098  -30.8874   27.0241 H   0  0  0  0  0  0
  -26.2788  -29.6844   24.1156 H   0  0  0  0  0  0
  -27.4043  -29.7283   25.4537 H   0  0  0  0  0  0
  -27.8624  -30.4382   23.9220 H   0  0  0  0  0  0
  -27.2682  -33.3633   26.2081 H   0  0  0  0  0  0
  -28.3845  -32.6879   25.0305 H   0  0  0  0  0  0
  -28.0717  -31.8441   26.5395 H   0  0  0  0  0  0
  -28.2590  -38.0119   24.7550 H   0  0  0  0  0  0
  -28.1095  -36.2653   24.6225 H   0  0  0  0  0  0
  -27.2315  -37.1408   25.8863 H   0  0  0  0  0  0
  -20.9291  -29.8774   21.6964 H   0  0  0  0  0  0
  -26.0181  -38.2884   24.1454 H   0  0  0  0  0  0
  -30.1458  -21.9861   21.2599 H   0  0  0  0  0  0
  -30.1917  -19.6653   21.9502 H   0  0  0  0  0  0
  -29.9416  -20.7512   17.1197 H   0  0  0  0  0  0
  -29.7268  -17.3450   15.5961 H   0  0  0  0  0  0
  -29.3760  -19.1387   15.8124 H   0  0  0  0  0  0
  -30.3443  -17.1005   17.8735 H   0  0  0  0  0  0
  -28.9412  -27.2216   18.1561 H   0  0  0  0  0  0
  -31.3183  -23.1669   17.1307 H   0  0  0  0  0  0
  -29.6675  -22.8198   16.5523 H   0  0  0  0  0  0
  -29.0551  -15.4508   21.6560 H   0  0  0  0  0  0
  -30.4424  -15.1493   22.6946 H   0  0  0  0  0  0
  -29.3872  -16.9177   19.7715 H   0  0  0  0  0  0
  1 25  1  0  0  0
  1 30  2  0  0  0
  1 85  1  0  0  0
  2  3  1  0  0  0
  2 25  1  0  0  0
  2 91  1  0  0  0
  2 92  1  0  0  0
  3  4  1  0  0  0
  3 93  1  0  0  0
  3 94  1  0  0  0
  4  5  1  0  0  0
  4 95  1  0  0  0
  4 96  1  0  0  0
  5  6  1  0  0  0
  5 26  1  0  0  0
  5 97  1  0  0  0
  6 25  1  0  0  0
  6 98  1  0  0  0
  6 99  1  0  0  0
  7  8  2  0  0  0
  7 26  1  0  0  0
  7 29  1  0  0  0
  8  9  1  0  0  0
  8 22  1  0  0  0
  9 10  1  0  0  0
  9 27  2  0  0  0
 10 11  2  0  0  0
 10 15  1  0  0  0
 11 12  1  0  0  0
 11100  1  0  0  0
 12 13  2  0  0  0
 12101  1  0  0  0
 13 14  1  0  0  0
 13 31  1  0  0  0
 14 15  2  0  0  0
 14102  1  0  0  0
 15103  1  0  0  0
 16 17  2  0  0  0
 16 21  1  0  0  0
 16 31  1  0  0  0
 17 18  1  0  0  0
 17104  1  0  0  0
 18 19  2  0  0  0
 18105  1  0  0  0
 19 20  1  0  0  0
 19 24  1  0  0  0
 20 21  2  0  0  0
 20106  1  0  0  0
 21 23  1  0  0  0
 22 28  1  0  0  0
 22 32  2  0  0  0
 26 27  1  0  0  0
 28107  1  0  0  0
 28108  1  0  0  0
 29109  1  0  0  0
 29110  1  0  0  0
 33 34  1  0  0  0
 33 66  1  0  0  0
 33 70  2  0  0  0
 34 36  1  0  0  0
 34 59  1  0  0  0
 34111  1  0  0  0
 35 44  2  0  0  0
 35 45  1  0  0  0
 35 68  1  0  0  0
 36 56  1  0  0  0
 36112  1  0  0  0
 37 39  1  0  0  0
 37 47  1  0  0  0
 37 66  1  0  0  0
 37113  1  0  0  0
 38 43  2  0  0  0
 38 46  1  0  0  0
 38 47  1  0  0  0
 39 64  1  0  0  0
 39 67  2  0  0  0
 40 52  1  0  0  0
 40 53  2  0  0  0
 40 58  1  0  0  0
 41114  1  0  0  0
 41115  1  0  0  0
 41116  1  0  0  0
 41 48  1  0  0  0
 42 43  1  0  0  0
 42 66  1  0  0  0
 42117  1  0  0  0
 42118  1  0  0  0
 43 44  1  0  0  0
 44119  1  0  0  0
 45 46  2  0  0  0
 45120  1  0  0  0
 46121  1  0  0  0
 47122  1  0  0  0
 47123  1  0  0  0
 48 56  1  0  0  0
 48 65  1  0  0  0
 48124  1  0  0  0
 49 50  1  0  0  0
 49 53  1  0  0  0
 49 64  1  0  0  0
 49125  1  0  0  0
 50 51  1  0  0  0
 50126  1  0  0  0
 50127  1  0  0  0
 51 52  1  0  0  0
 51128  1  0  0  0
 51129  1  0  0  0
 52130  1  0  0  0
 52131  1  0  0  0
 53 54  1  0  0  0
 54 55  2  0  0  0
 54132  1  0  0  0
 55 57  1  0  0  0
 55133  1  0  0  0
 56 69  2  0  0  0
 57 58  2  0  0  0
 57134  1  0  0  0
 58135  1  0  0  0
 59 60  1  0  0  0
 59 61  1  0  0  0
 59 62  1  0  0  0
 60136  1  0  0  0
 60137  1  0  0  0
 60138  1  0  0  0
 61139  1  0  0  0
 61140  1  0  0  0
 61141  1  0  0  0
 62142  1  0  0  0
 62143  1  0  0  0
 62144  1  0  0  0
 63 65  1  0  0  0
 63145  1  0  0  0
 63146  1  0  0  0
 63147  1  0  0  0
 64148  1  0  0  0
 65149  1  0  0  0
 68 82  1  0  0  0
 71 72  2  0  0  0
 71 75  1  0  0  0
 71150  1  0  0  0
 72 76  1  0  0  0
 72151  1  0  0  0
 73 74  1  0  0  0
 73 75  2  0  0  0
 73152  1  0  0  0
 74 76  2  0  0  0
 74 81  1  0  0  0
 75 86  1  0  0  0
 76 87  1  0  0  0
 77 78  1  0  0  0
 77 79  1  0  0  0
 77 82  2  0  0  0
 78 84  1  0  0  0
 78 88  2  0  0  0
 79 86  1  0  0  0
 79 89  2  0  0  0
 80 81  2  0  0  0
 80153  1  0  0  0
 80154  1  0  0  0
 81155  1  0  0  0
 82156  1  0  0  0
 83 85  1  0  0  0
 83 87  1  0  0  0
 83 90  2  0  0  0
 84 86  1  0  0  0
 84157  1  0  0  0
 84158  1  0  0  0
 85159  1  0  0  0
 85160  1  0  0  0
 87161  1  0  0  0
M  ISO  4   1 100  68 101  82 101  85 100
M  END
> <chiral flag>
0

> <version>
0

> <s_m_source_file>
/data/baiqing/PycharmProjects/Reinvent-master-3.2/result/LINK_invent/BTK/process_docking_weight1_custom_product_contain_oxygen_bond_distance_aromatic_linkinvent_7_9_3/rearranged_h_0087.sdf

> <i_m_source_file_index>
56

> <r_mmod_Potential_Energy-OPLS-2005>
12.43186378479

> <r_mmod_Stretch_Energy-OPLS-2005>
41.2889442443848

> <r_mmod_Bend_Energy-OPLS-2005>
147.514938354492

> <r_mmod_Torsional_Energy-OPLS-2005>
241.348846435547

> <r_mmod_Improper_Torsional_Energy-OPLS-2005>
2.4454128742218

> <r_mmod_Van_der_Waal_Energy-OPLS-2005>
165.859283447266

> <r_mmod_Electrostatic_Energy-OPLS-2005>
-335.48681640625

> <r_mmod_Solvation_Energy-OPLS-2005>
-258.153381347656

> <b_mmod_Minimization_Converged-OPLS-2005>
0

> <r_mmod_RMS_Derivative-OPLS-2005>
1.08731842041016

$$$$
56
                    3D
 Structure written by MMmdl.
151160  0  0  1  0            999 V2000
  -30.5614  -14.8220   20.3556 C   0  0  0  0  0  0
  -30.4470  -12.4750   19.4875 C   0  0  0  0  0  0
  -29.5219  -12.4426   18.2485 C   0  0  0  0  0  0
  -28.0406  -12.3010   18.6590 C   0  0  0  0  0  0
  -27.6348  -13.2188   19.8448 C   0  0  2  0  0  0
  -28.6884  -13.2105   20.9732 C   0  0  0  0  0  0
  -25.2527  -13.8148   20.5749 C   0  0  0  0  0  0
  -24.1798  -13.0419   20.9216 C   0  0  0  0  0  0
  -24.6368  -11.6887   20.8775 C   0  0  0  0  0  0
  -23.9041  -10.4282   21.0424 C   0  0  0  0  0  0
  -24.3606   -9.4195   21.9193 C   0  0  0  0  0  0
  -23.6287   -8.2232   22.0752 C   0  0  0  0  0  0
  -22.4271   -8.0272   21.3546 C   0  0  0  0  0  0
  -21.9904   -9.0243   20.4651 C   0  0  0  0  0  0
  -22.7223  -10.2126   20.3063 C   0  0  0  0  0  0
  -21.6846   -6.0734   22.5283 C   0  0  0  0  0  0
  -21.4012   -6.5639   23.8217 C   0  0  0  0  0  0
  -21.3656   -5.6791   24.9177 C   0  0  0  0  0  0
  -21.6043   -4.3056   24.7225 C   0  0  0  0  0  0
  -21.8820   -3.8147   23.4347 C   0  0  0  0  0  0
  -21.9193   -4.6964   22.3405 C   0  0  0  0  0  0
  -22.7824  -13.5216   21.1869 C   0  0  0  0  0  0
  -22.1665   -4.2153   21.0983 F   0  0  0  0  0  0
  -21.5622   -3.4535   25.7732 F   0  0  0  0  0  0
  -29.9774  -13.5688   20.3680 N   0  0  0  0  0  0
  -26.2922  -12.9311   20.3320 N   0  0  0  0  0  0
  -25.9297  -11.6472   20.5800 N   0  0  0  0  0  0
  -22.0459  -12.8221   22.0425 N   0  0  0  0  0  0
  -25.4263  -15.1881   20.4214 N   0  0  0  0  0  0
  -31.7861  -14.9121   20.2173 O   0  0  0  0  0  0
  -21.6631   -6.8877   21.4247 O   0  0  0  0  0  0
  -22.3523  -14.5520   20.6691 O   0  0  0  0  0  0
  -24.6334  -31.8535   23.1975 C   0  0  0  0  0  0
  -25.9156  -32.4738   23.8326 C   0  0  1  0  0  0
  -27.2223  -27.2340   20.1297 C   0  0  0  0  0  0
  -25.5943  -33.8542   24.2250 N   0  0  0  0  0  0
  -23.4307  -30.4767   21.5416 C   0  0  2  0  0  0
  -24.8783  -28.9214   20.1103 C   0  0  0  0  0  0
  -22.7511  -29.4591   22.4905 C   0  0  0  0  0  0
  -18.0299  -28.1375   22.8483 C   0  0  0  0  0  0
  -24.1485  -36.7275   23.2639 C   0  0  0  0  0  0
  -25.9794  -30.7581   21.3809 C   0  0  0  0  0  0
  -26.0513  -29.3786   20.7215 C   0  0  0  0  0  0
  -27.2222  -28.5480   20.7217 C   0  0  0  0  0  0
  -26.0155  -26.8500   19.4977 C   0  0  0  0  0  0
  -24.8667  -27.6648   19.4907 C   0  0  0  0  0  0
  -23.6497  -29.8109   20.1581 C   0  0  0  0  0  0
  -25.4111  -36.3060   24.0326 C   0  0  1  0  0  0
  -20.5901  -28.3688   23.1258 C   0  0  2  0  0  0
  -20.6779  -26.9399   22.5399 C   0  0  0  0  0  0
  -19.5754  -26.6367   21.5207 C   0  0  0  0  0  0
  -18.1939  -26.7914   22.1626 C   0  0  0  0  0  0
  -19.1554  -28.8849   23.2864 C   0  0  0  0  0  0
  -18.9471  -30.1451   23.8878 C   0  0  0  0  0  0
  -17.6469  -30.6578   24.0547 C   0  0  0  0  0  0
  -25.9057  -34.9430   23.5089 C   0  0  0  0  0  0
  -16.5360  -29.9070   23.6328 C   0  0  0  0  0  0
  -16.7283  -28.6485   23.0354 C   0  0  0  0  0  0
  -26.4515  -31.6566   25.0724 C   0  0  0  0  0  0
  -25.3729  -31.3750   26.1447 C   0  0  0  0  0  0
  -27.0358  -30.2968   24.6233 C   0  0  0  0  0  0
  -27.6045  -32.4324   25.7513 C   0  0  0  0  0  0
  -27.5574  -37.1796   24.8466 C   0  0  0  0  0  0
  -21.4216  -29.3042   22.3648 N   0  0  0  0  0  0
  -26.4284  -37.3757   23.9407 N   0  0  0  0  0  0
  -24.7008  -31.0481   22.0962 N   0  0  0  0  0  0
  -23.4204  -28.8136   23.3013 O   0  0  0  0  0  0
  -28.3163  -26.3258   20.2113 O   0  0  0  0  0  0
  -26.5623  -34.8915   22.4656 O   0  0  0  0  0  0
  -23.5478  -32.1367   23.7262 O   0  0  0  0  0  0
  -29.3212  -18.5011   17.7073 C   0  0  0  0  0  0
  -29.2644  -19.7397   18.3935 C   0  0  0  0  0  0
  -29.6058  -18.6601   20.6140 C   0  0  0  0  0  0
  -29.5314  -17.3801   18.5043 C   0  0  0  0  0  0
  -29.7106  -17.3810   19.9220 C   0  0  0  0  0  0
  -29.3563  -19.8907   19.8219 C   0  0  0  0  0  0
  -28.2206  -24.9437   19.8259 C   0  0  0  0  0  0
  -28.7840  -23.8002   20.3972 C   0  0  0  0  0  0
  -28.5779  -22.4124   19.8081 C   0  0  0  0  0  0
  -29.5630  -15.8918   18.4260 C   0  0  0  0  0  0
  -29.7258  -15.8687   19.9322 N   0  0  0  0  0  0
  -29.2216  -21.2936   20.3587 N   0  0  0  0  0  0
  -27.8037  -22.2608   18.8609 O   0  0  0  0  0  0
  -29.5374  -23.9188   21.4987 O   0  0  0  0  0  0
  -31.4849  -12.6186   19.1818 H   0  0  0  0  0  0
  -30.4179  -11.5216   20.0171 H   0  0  0  0  0  0
  -29.8016  -11.6107   17.6008 H   0  0  0  0  0  0
  -29.6640  -13.3356   17.6447 H   0  0  0  0  0  0
  -27.8889  -11.2586   18.9411 H   0  0  0  0  0  0
  -27.3912  -12.4775   17.8004 H   0  0  0  0  0  0
  -27.5918  -14.2258   19.4440 H   0  0  0  0  0  0
  -28.7414  -12.2328   21.4531 H   0  0  0  0  0  0
  -28.4209  -13.9278   21.7513 H   0  0  0  0  0  0
  -25.2759   -9.5661   22.4758 H   0  0  0  0  0  0
  -23.9992   -7.4618   22.7463 H   0  0  0  0  0  0
  -21.0827   -8.8762   19.8961 H   0  0  0  0  0  0
  -22.3689  -10.9659   19.6167 H   0  0  0  0  0  0
  -21.2010   -7.6149   23.9720 H   0  0  0  0  0  0
  -21.1474   -6.0524   25.9079 H   0  0  0  0  0  0
  -22.0604   -2.7607   23.2842 H   0  0  0  0  0  0
  -22.4060  -11.9893   22.4840 H   0  0  0  0  0  0
  -21.1074  -13.1249   22.2610 H   0  0  0  0  0  0
  -24.6677  -15.8476   20.5536 H   0  0  0  0  0  0
  -26.2952  -15.6319   20.1505 H   0  0  0  0  0  0
  -26.7216  -32.5390   23.1060 H   0  0  0  0  0  0
  -25.0086  -33.9677   25.0395 H   0  0  0  0  0  0
  -22.7270  -31.2985   21.3953 H   0  0  0  0  0  0
  -23.3747  -35.9607   23.3304 H   0  0  0  0  0  0
  -24.3568  -36.8895   22.2051 H   0  0  0  0  0  0
  -23.7250  -37.6479   23.6664 H   0  0  0  0  0  0
  -26.1212  -31.5174   20.6104 H   0  0  0  0  0  0
  -26.8555  -30.8076   22.0153 H   0  0  0  0  0  0
  -28.1180  -28.8937   21.2186 H   0  0  0  0  0  0
  -25.9036  -25.8853   19.0301 H   0  0  0  0  0  0
  -23.9662  -27.2991   19.0179 H   0  0  0  0  0  0
  -23.7751  -30.5871   19.4033 H   0  0  0  0  0  0
  -22.7662  -29.2465   19.8553 H   0  0  0  0  0  0
  -25.1293  -36.1897   25.0814 H   0  0  0  0  0  0
  -20.9993  -28.3265   24.1376 H   0  0  0  0  0  0
  -20.5660  -26.2301   23.3612 H   0  0  0  0  0  0
  -21.6651  -26.7404   22.1203 H   0  0  0  0  0  0
  -19.6911  -25.6278   21.1241 H   0  0  0  0  0  0
  -19.6685  -27.3168   20.6729 H   0  0  0  0  0  0
  -17.4197  -26.6647   21.4038 H   0  0  0  0  0  0
  -18.0343  -26.0062   22.9028 H   0  0  0  0  0  0
  -19.7949  -30.7273   24.2230 H   0  0  0  0  0  0
  -17.5023  -31.6258   24.5149 H   0  0  0  0  0  0
  -15.5360  -30.2958   23.7666 H   0  0  0  0  0  0
  -15.8685  -28.0794   22.7076 H   0  0  0  0  0  0
  -24.5886  -30.7113   25.7797 H   0  0  0  0  0  0
  -24.8953  -32.2940   26.4852 H   0  0  0  0  0  0
  -25.8037  -30.8946   27.0240 H   0  0  0  0  0  0
  -26.2956  -29.6725   24.1211 H   0  0  0  0  0  0
  -27.3974  -29.7225   25.4775 H   0  0  0  0  0  0
  -27.8863  -30.4228   23.9527 H   0  0  0  0  0  0
  -27.2614  -33.3615   26.2084 H   0  0  0  0  0  0
  -28.3864  -32.6904   25.0357 H   0  0  0  0  0  0
  -28.0703  -31.8463   26.5449 H   0  0  0  0  0  0
  -28.2588  -38.0093   24.7487 H   0  0  0  0  0  0
  -28.1076  -36.2622   24.6316 H   0  0  0  0  0  0
  -27.2294  -37.1464   25.8872 H   0  0  0  0  0  0
  -20.9397  -29.8772   21.6862 H   0  0  0  0  0  0
  -26.0164  -38.2831   24.1394 H   0  0  0  0  0  0
  -29.1860  -18.4314   16.6369 H   0  0  0  0  0  0
  -29.1248  -20.6044   17.7624 H   0  0  0  0  0  0
  -29.6539  -18.7009   21.6925 H   0  0  0  0  0  0
  -27.6396  -24.8333   18.9222 H   0  0  0  0  0  0
  -30.4225  -15.5474   17.8475 H   0  0  0  0  0  0
  -28.6280  -15.4925   18.0368 H   0  0  0  0  0  0
  -29.6985  -21.4872   21.2296 H   0  0  0  0  0  0
  -29.5594  -24.8420   21.7200 H   0  0  0  0  0  0
  1 25  1  0  0  0
  1 30  2  0  0  0
  1 81  1  0  0  0
  2  3  1  0  0  0
  2 25  1  0  0  0
  2 85  1  0  0  0
  2 86  1  0  0  0
  3  4  1  0  0  0
  3 87  1  0  0  0
  3 88  1  0  0  0
  4  5  1  0  0  0
  4 89  1  0  0  0
  4 90  1  0  0  0
  5  6  1  0  0  0
  5 26  1  0  0  0
  5 91  1  0  0  0
  6 25  1  0  0  0
  6 92  1  0  0  0
  6 93  1  0  0  0
  7  8  2  0  0  0
  7 26  1  0  0  0
  7 29  1  0  0  0
  8  9  1  0  0  0
  8 22  1  0  0  0
  9 10  1  0  0  0
  9 27  2  0  0  0
 10 11  2  0  0  0
 10 15  1  0  0  0
 11 12  1  0  0  0
 11 94  1  0  0  0
 12 13  2  0  0  0
 12 95  1  0  0  0
 13 14  1  0  0  0
 13 31  1  0  0  0
 14 15  2  0  0  0
 14 96  1  0  0  0
 15 97  1  0  0  0
 16 17  2  0  0  0
 16 21  1  0  0  0
 16 31  1  0  0  0
 17 18  1  0  0  0
 17 98  1  0  0  0
 18 19  2  0  0  0
 18 99  1  0  0  0
 19 20  1  0  0  0
 19 24  1  0  0  0
 20 21  2  0  0  0
 20100  1  0  0  0
 21 23  1  0  0  0
 22 28  1  0  0  0
 22 32  2  0  0  0
 26 27  1  0  0  0
 28101  1  0  0  0
 28102  1  0  0  0
 29103  1  0  0  0
 29104  1  0  0  0
 33 34  1  0  0  0
 33 66  1  0  0  0
 33 70  2  0  0  0
 34 36  1  0  0  0
 34 59  1  0  0  0
 34105  1  0  0  0
 35 44  2  0  0  0
 35 45  1  0  0  0
 35 68  1  0  0  0
 36 56  1  0  0  0
 36106  1  0  0  0
 37 39  1  0  0  0
 37 47  1  0  0  0
 37 66  1  0  0  0
 37107  1  0  0  0
 38 43  2  0  0  0
 38 46  1  0  0  0
 38 47  1  0  0  0
 39 64  1  0  0  0
 39 67  2  0  0  0
 40 52  1  0  0  0
 40 53  2  0  0  0
 40 58  1  0  0  0
 41108  1  0  0  0
 41109  1  0  0  0
 41110  1  0  0  0
 41 48  1  0  0  0
 42 43  1  0  0  0
 42 66  1  0  0  0
 42111  1  0  0  0
 42112  1  0  0  0
 43 44  1  0  0  0
 44113  1  0  0  0
 45 46  2  0  0  0
 45114  1  0  0  0
 46115  1  0  0  0
 47116  1  0  0  0
 47117  1  0  0  0
 48 56  1  0  0  0
 48 65  1  0  0  0
 48118  1  0  0  0
 49 50  1  0  0  0
 49 53  1  0  0  0
 49 64  1  0  0  0
 49119  1  0  0  0
 50 51  1  0  0  0
 50120  1  0  0  0
 50121  1  0  0  0
 51 52  1  0  0  0
 51122  1  0  0  0
 51123  1  0  0  0
 52124  1  0  0  0
 52125  1  0  0  0
 53 54  1  0  0  0
 54 55  2  0  0  0
 54126  1  0  0  0
 55 57  1  0  0  0
 55127  1  0  0  0
 56 69  2  0  0  0
 57 58  2  0  0  0
 57128  1  0  0  0
 58129  1  0  0  0
 59 60  1  0  0  0
 59 61  1  0  0  0
 59 62  1  0  0  0
 60130  1  0  0  0
 60131  1  0  0  0
 60132  1  0  0  0
 61133  1  0  0  0
 61134  1  0  0  0
 61135  1  0  0  0
 62136  1  0  0  0
 62137  1  0  0  0
 62138  1  0  0  0
 63 65  1  0  0  0
 63139  1  0  0  0
 63140  1  0  0  0
 63141  1  0  0  0
 64142  1  0  0  0
 65143  1  0  0  0
 68 77  1  0  0  0
 71 72  2  0  0  0
 71 74  1  0  0  0
 71144  1  0  0  0
 72 76  1  0  0  0
 72145  1  0  0  0
 73 75  1  0  0  0
 73 76  2  0  0  0
 73146  1  0  0  0
 74 75  2  0  0  0
 74 80  1  0  0  0
 75 81  1  0  0  0
 76 82  1  0  0  0
 77 78  2  0  0  0
 77147  1  0  0  0
 78 79  1  0  0  0
 78 84  1  0  0  0
 79 82  1  0  0  0
 79 83  2  0  0  0
 80 81  1  0  0  0
 80148  1  0  0  0
 80149  1  0  0  0
 82150  1  0  0  0
 84151  1  0  0  0
M  ISO  4   1 100  68 101  77 101  81 100
M  END
> <chiral flag>
0

> <version>
0

> <s_m_source_file>
/data/baiqing/PycharmProjects/Reinvent-master-3.2/result/LINK_invent/BTK/process_docking_weight1_custom_product_contain_oxygen_bond_distance_aromatic_linkinvent_7_9_3/rearranged_h_0087.sdf

> <i_m_source_file_index>
57

> <r_mmod_Potential_Energy-OPLS-2005>
768.414794921875

> <r_mmod_Stretch_Energy-OPLS-2005>
168.304000854492

> <r_mmod_Bend_Energy-OPLS-2005>
594.062622070312

> <r_mmod_Torsional_Energy-OPLS-2005>
297.004333496094

> <r_mmod_Improper_Torsional_Energy-OPLS-2005>
29.0173454284668

> <r_mmod_Van_der_Waal_Energy-OPLS-2005>
145.922943115234

> <r_mmod_Electrostatic_Energy-OPLS-2005>
-373.565582275391

> <r_mmod_Solvation_Energy-OPLS-2005>
-213.138977050781

> <b_mmod_Minimization_Converged-OPLS-2005>
0

> <r_mmod_RMS_Derivative-OPLS-2005>
1.75376915931702

$$$$
57
                    3D
 Structure written by MMmdl.
152161  0  0  1  0            999 V2000
  -30.6734  -14.6068   20.4818 C   0  0  0  0  0  0
  -30.4160  -12.3733   19.4547 C   0  0  0  0  0  0
  -29.4960  -12.5040   18.2222 C   0  0  0  0  0  0
  -28.0202  -12.3479   18.6356 C   0  0  0  0  0  0
  -27.6468  -13.2265   19.8598 C   0  0  2  0  0  0
  -28.6923  -13.1108   20.9931 C   0  0  0  0  0  0
  -25.2520  -13.8198   20.5700 C   0  0  0  0  0  0
  -24.1801  -13.0447   20.9191 C   0  0  0  0  0  0
  -24.6380  -11.6925   20.8736 C   0  0  0  0  0  0
  -23.9053  -10.4306   21.0397 C   0  0  0  0  0  0
  -24.3615   -9.4230   21.9175 C   0  0  0  0  0  0
  -23.6303   -8.2258   22.0748 C   0  0  0  0  0  0
  -22.4283   -8.0283   21.3540 C   0  0  0  0  0  0
  -21.9910   -9.0249   20.4636 C   0  0  0  0  0  0
  -22.7226  -10.2138   20.3045 C   0  0  0  0  0  0
  -21.6861   -6.0739   22.5275 C   0  0  0  0  0  0
  -21.4020   -6.5642   23.8208 C   0  0  0  0  0  0
  -21.3659   -5.6791   24.9169 C   0  0  0  0  0  0
  -21.6046   -4.3053   24.7218 C   0  0  0  0  0  0
  -21.8817   -3.8145   23.4337 C   0  0  0  0  0  0
  -21.9199   -4.6967   22.3397 C   0  0  0  0  0  0
  -22.7821  -13.5239   21.1844 C   0  0  0  0  0  0
  -22.1667   -4.2154   21.0974 F   0  0  0  0  0  0
  -21.5627   -3.4533   25.7730 F   0  0  0  0  0  0
  -30.0078  -13.4153   20.4182 N   0  0  0  0  0  0
  -26.2956  -12.9405   20.3329 N   0  0  0  0  0  0
  -25.9315  -11.6548   20.5770 N   0  0  0  0  0  0
  -22.0464  -12.8235   22.0403 N   0  0  0  0  0  0
  -25.4209  -15.1923   20.4125 N   0  0  0  0  0  0
  -31.8515  -14.6947   20.1286 O   0  0  0  0  0  0
  -21.6646   -6.8882   21.4238 O   0  0  0  0  0  0
  -22.3512  -14.5542   20.6683 O   0  0  0  0  0  0
  -24.6226  -31.8621   23.2035 C   0  0  0  0  0  0
  -25.9088  -32.4796   23.8357 C   0  0  1  0  0  0
  -27.2303  -27.3561   20.1025 C   0  0  0  0  0  0
  -25.5916  -33.8591   24.2285 N   0  0  0  0  0  0
  -23.4151  -30.4855   21.5445 C   0  0  2  0  0  0
  -24.8631  -28.9444   20.1045 C   0  0  0  0  0  0
  -22.7446  -29.4641   22.4929 C   0  0  0  0  0  0
  -18.0290  -28.1373   22.8494 C   0  0  0  0  0  0
  -24.1483  -36.7305   23.2642 C   0  0  0  0  0  0
  -25.9520  -30.8027   21.3700 C   0  0  0  0  0  0
  -26.0275  -29.4327   20.7113 C   0  0  0  0  0  0
  -27.2122  -28.6448   20.7098 C   0  0  0  0  0  0
  -26.0457  -26.9063   19.4800 C   0  0  0  0  0  0
  -24.8725  -27.6854   19.4809 C   0  0  0  0  0  0
  -23.6278  -29.8199   20.1578 C   0  0  0  0  0  0
  -25.4111  -36.3094   24.0332 C   0  0  1  0  0  0
  -20.5884  -28.3675   23.1279 C   0  0  2  0  0  0
  -20.6780  -26.9412   22.5362 C   0  0  0  0  0  0
  -19.5723  -26.6374   21.5192 C   0  0  0  0  0  0
  -18.1920  -26.7902   22.1653 C   0  0  0  0  0  0
  -19.1541  -28.8835   23.2897 C   0  0  0  0  0  0
  -18.9467  -30.1437   23.8922 C   0  0  0  0  0  0
  -17.6467  -30.6568   24.0586 C   0  0  0  0  0  0
  -25.9042  -34.9466   23.5104 C   0  0  0  0  0  0
  -16.5354  -29.9074   23.6337 C   0  0  0  0  0  0
  -16.7279  -28.6496   23.0354 C   0  0  0  0  0  0
  -26.4481  -31.6606   25.0725 C   0  0  0  0  0  0
  -25.3718  -31.3741   26.1454 C   0  0  0  0  0  0
  -27.0329  -30.3041   24.6166 C   0  0  0  0  0  0
  -27.6033  -32.4346   25.7501 C   0  0  0  0  0  0
  -27.5577  -37.1810   24.8467 C   0  0  0  0  0  0
  -21.4159  -29.3070   22.3693 N   0  0  0  0  0  0
  -26.4289  -37.3792   23.9407 N   0  0  0  0  0  0
  -24.6815  -31.0662   22.0966 N   0  0  0  0  0  0
  -23.4186  -28.8170   23.2989 O   0  0  0  0  0  0
  -28.3281  -26.5018   20.2037 O   0  0  0  0  0  0
  -26.5608  -34.8931   22.4671 O   0  0  0  0  0  0
  -23.5402  -32.1386   23.7399 O   0  0  0  0  0  0
  -29.8627  -19.6329   19.8434 C   0  0  0  0  0  0
  -28.6811  -18.5753   21.5218 C   0  0  0  0  0  0
  -29.6473  -18.3914   20.5659 C   0  0  0  0  0  0
  -29.1247  -20.7437   20.2472 C   0  0  0  0  0  0
  -28.8486  -24.2650   19.1686 C   0  0  0  0  0  0
  -29.2800  -23.5983   17.9561 C   0  0  0  0  0  0
  -28.7520  -23.2340   20.2191 C   0  0  0  0  0  0
  -28.6268  -25.6240   19.1685 C   0  0  0  0  0  0
  -29.5394  -22.1446   18.2780 C   0  0  0  0  0  0
  -30.4650  -17.1016   20.3169 C   0  0  0  0  0  0
  -29.1224  -22.0141   19.6804 N   0  0  0  0  0  0
  -29.9488  -15.7457   20.6940 N   0  0  0  0  0  0
  -29.4487  -24.0905   16.8351 O   0  0  0  0  0  0
  -28.3987  -23.4125   21.3906 O   0  0  0  0  0  0
  -28.0928  -20.2326   21.5714 S   0  0  0  0  0  0
  -31.4614  -12.4641   19.1538 H   0  0  0  0  0  0
  -30.3221  -11.3838   19.9050 H   0  0  0  0  0  0
  -29.7550  -11.7546   17.4731 H   0  0  0  0  0  0
  -29.6435  -13.4762   17.7484 H   0  0  0  0  0  0
  -27.8541  -11.2962   18.8698 H   0  0  0  0  0  0
  -27.3647  -12.5772   17.7939 H   0  0  0  0  0  0
  -27.6571  -14.2582   19.5070 H   0  0  0  0  0  0
  -28.6938  -12.1069   21.4190 H   0  0  0  0  0  0
  -28.4510  -13.7897   21.8134 H   0  0  0  0  0  0
  -25.2760   -9.5719   22.4751 H   0  0  0  0  0  0
  -24.0017   -7.4651   22.7464 H   0  0  0  0  0  0
  -21.0845   -8.8747   19.8943 H   0  0  0  0  0  0
  -22.3663  -10.9671   19.6150 H   0  0  0  0  0  0
  -21.2011   -7.6148   23.9714 H   0  0  0  0  0  0
  -21.1485   -6.0520   25.9074 H   0  0  0  0  0  0
  -22.0599   -2.7609   23.2826 H   0  0  0  0  0  0
  -22.4099  -11.9924   22.4832 H   0  0  0  0  0  0
  -21.1058  -13.1227   22.2563 H   0  0  0  0  0  0
  -24.6453  -15.8399   20.5013 H   0  0  0  0  0  0
  -26.2715  -15.6370   20.0916 H   0  0  0  0  0  0
  -26.7164  -32.5475   23.1113 H   0  0  0  0  0  0
  -25.0093  -33.9744   25.0448 H   0  0  0  0  0  0
  -22.7085  -31.3065   21.4035 H   0  0  0  0  0  0
  -23.3747  -35.9637   23.3308 H   0  0  0  0  0  0
  -24.3571  -36.8923   22.2055 H   0  0  0  0  0  0
  -23.7231  -37.6509   23.6656 H   0  0  0  0  0  0
  -26.0783  -31.5683   20.6030 H   0  0  0  0  0  0
  -26.8337  -30.8524   21.9966 H   0  0  0  0  0  0
  -28.1029  -29.0062   21.2038 H   0  0  0  0  0  0
  -26.0095  -25.9301   19.0187 H   0  0  0  0  0  0
  -23.9793  -27.3041   19.0068 H   0  0  0  0  0  0
  -23.7392  -30.5960   19.3995 H   0  0  0  0  0  0
  -22.7494  -29.2447   19.8608 H   0  0  0  0  0  0
  -25.1291  -36.1953   25.0826 H   0  0  0  0  0  0
  -20.9985  -28.3233   24.1398 H   0  0  0  0  0  0
  -20.5719  -26.2273   23.3539 H   0  0  0  0  0  0
  -21.6643  -26.7470   22.1115 H   0  0  0  0  0  0
  -19.6893  -25.6287   21.1210 H   0  0  0  0  0  0
  -19.6624  -27.3192   20.6726 H   0  0  0  0  0  0
  -17.4148  -26.6618   21.4102 H   0  0  0  0  0  0
  -18.0361  -26.0065   22.9084 H   0  0  0  0  0  0
  -19.7934  -30.7248   24.2327 H   0  0  0  0  0  0
  -17.5020  -31.6233   24.5205 H   0  0  0  0  0  0
  -15.5350  -30.2973   23.7679 H   0  0  0  0  0  0
  -15.8682  -28.0810   22.7063 H   0  0  0  0  0  0
  -24.5873  -30.7120   25.7775 H   0  0  0  0  0  0
  -24.8932  -32.2908   26.4905 H   0  0  0  0  0  0
  -25.8040  -30.8887   27.0211 H   0  0  0  0  0  0
  -26.2896  -29.6783   24.1218 H   0  0  0  0  0  0
  -27.4065  -29.7318   25.4668 H   0  0  0  0  0  0
  -27.8743  -30.4347   23.9361 H   0  0  0  0  0  0
  -27.2630  -33.3632   26.2099 H   0  0  0  0  0  0
  -28.3834  -32.6936   25.0329 H   0  0  0  0  0  0
  -28.0706  -31.8460   26.5403 H   0  0  0  0  0  0
  -28.2605  -38.0098   24.7509 H   0  0  0  0  0  0
  -28.1062  -36.2632   24.6296 H   0  0  0  0  0  0
  -27.2296  -37.1470   25.8871 H   0  0  0  0  0  0
  -20.9325  -29.8778   21.6895 H   0  0  0  0  0  0
  -26.0177  -38.2872   24.1403 H   0  0  0  0  0  0
  -30.5874  -19.6620   19.0415 H   0  0  0  0  0  0
  -28.2970  -17.8529   22.2334 H   0  0  0  0  0  0
  -28.7582  -26.1891   18.2549 H   0  0  0  0  0  0
  -30.5996  -21.9219   18.1556 H   0  0  0  0  0  0
  -28.9559  -21.5002   17.6198 H   0  0  0  0  0  0
  -31.4255  -17.2242   20.8195 H   0  0  0  0  0  0
  -30.7168  -17.0534   19.2555 H   0  0  0  0  0  0
  -28.9779  -15.6579   20.9523 H   0  0  0  0  0  0
  1 25  1  0  0  0
  1 30  2  0  0  0
  1 82  1  0  0  0
  2  3  1  0  0  0
  2 25  1  0  0  0
  2 86  1  0  0  0
  2 87  1  0  0  0
  3  4  1  0  0  0
  3 88  1  0  0  0
  3 89  1  0  0  0
  4  5  1  0  0  0
  4 90  1  0  0  0
  4 91  1  0  0  0
  5  6  1  0  0  0
  5 26  1  0  0  0
  5 92  1  0  0  0
  6 25  1  0  0  0
  6 93  1  0  0  0
  6 94  1  0  0  0
  7  8  2  0  0  0
  7 26  1  0  0  0
  7 29  1  0  0  0
  8  9  1  0  0  0
  8 22  1  0  0  0
  9 10  1  0  0  0
  9 27  2  0  0  0
 10 11  2  0  0  0
 10 15  1  0  0  0
 11 12  1  0  0  0
 11 95  1  0  0  0
 12 13  2  0  0  0
 12 96  1  0  0  0
 13 14  1  0  0  0
 13 31  1  0  0  0
 14 15  2  0  0  0
 14 97  1  0  0  0
 15 98  1  0  0  0
 16 17  2  0  0  0
 16 21  1  0  0  0
 16 31  1  0  0  0
 17 18  1  0  0  0
 17 99  1  0  0  0
 18 19  2  0  0  0
 18100  1  0  0  0
 19 20  1  0  0  0
 19 24  1  0  0  0
 20 21  2  0  0  0
 20101  1  0  0  0
 21 23  1  0  0  0
 22 28  1  0  0  0
 22 32  2  0  0  0
 26 27  1  0  0  0
 28102  1  0  0  0
 28103  1  0  0  0
 29104  1  0  0  0
 29105  1  0  0  0
 33 34  1  0  0  0
 33 66  1  0  0  0
 33 70  2  0  0  0
 34 36  1  0  0  0
 34 59  1  0  0  0
 34106  1  0  0  0
 35 44  2  0  0  0
 35 45  1  0  0  0
 35 68  1  0  0  0
 36 56  1  0  0  0
 36107  1  0  0  0
 37 39  1  0  0  0
 37 47  1  0  0  0
 37 66  1  0  0  0
 37108  1  0  0  0
 38 43  2  0  0  0
 38 46  1  0  0  0
 38 47  1  0  0  0
 39 64  1  0  0  0
 39 67  2  0  0  0
 40 52  1  0  0  0
 40 53  2  0  0  0
 40 58  1  0  0  0
 41109  1  0  0  0
 41110  1  0  0  0
 41111  1  0  0  0
 41 48  1  0  0  0
 42 43  1  0  0  0
 42 66  1  0  0  0
 42112  1  0  0  0
 42113  1  0  0  0
 43 44  1  0  0  0
 44114  1  0  0  0
 45 46  2  0  0  0
 45115  1  0  0  0
 46116  1  0  0  0
 47117  1  0  0  0
 47118  1  0  0  0
 48 56  1  0  0  0
 48 65  1  0  0  0
 48119  1  0  0  0
 49 50  1  0  0  0
 49 53  1  0  0  0
 49 64  1  0  0  0
 49120  1  0  0  0
 50 51  1  0  0  0
 50121  1  0  0  0
 50122  1  0  0  0
 51 52  1  0  0  0
 51123  1  0  0  0
 51124  1  0  0  0
 52125  1  0  0  0
 52126  1  0  0  0
 53 54  1  0  0  0
 54 55  2  0  0  0
 54127  1  0  0  0
 55 57  1  0  0  0
 55128  1  0  0  0
 56 69  2  0  0  0
 57 58  2  0  0  0
 57129  1  0  0  0
 58130  1  0  0  0
 59 60  1  0  0  0
 59 61  1  0  0  0
 59 62  1  0  0  0
 60131  1  0  0  0
 60132  1  0  0  0
 60133  1  0  0  0
 61134  1  0  0  0
 61135  1  0  0  0
 61136  1  0  0  0
 62137  1  0  0  0
 62138  1  0  0  0
 62139  1  0  0  0
 63 65  1  0  0  0
 63140  1  0  0  0
 63141  1  0  0  0
 63142  1  0  0  0
 64143  1  0  0  0
 65144  1  0  0  0
 68 78  1  0  0  0
 71 73  1  0  0  0
 71 74  2  0  0  0
 71145  1  0  0  0
 72 73  2  0  0  0
 72 85  1  0  0  0
 72146  1  0  0  0
 73 80  1  0  0  0
 74 81  1  0  0  0
 74 85  1  0  0  0
 75 76  1  0  0  0
 75 77  1  0  0  0
 75 78  2  0  0  0
 76 79  1  0  0  0
 76 83  2  0  0  0
 77 81  1  0  0  0
 77 84  2  0  0  0
 78147  1  0  0  0
 79 81  1  0  0  0
 79148  1  0  0  0
 79149  1  0  0  0
 80 82  1  0  0  0
 80150  1  0  0  0
 80151  1  0  0  0
 82152  1  0  0  0
M  ISO  4   1 100  68 101  78 101  82 100
M  END
> <chiral flag>
0

> <version>
0

> <s_m_source_file>
/data/baiqing/PycharmProjects/Reinvent-master-3.2/result/LINK_invent/BTK/process_docking_weight1_custom_product_contain_oxygen_bond_distance_aromatic_linkinvent_7_9_3/rearranged_h_0087.sdf

> <i_m_source_file_index>
58

> <r_mmod_Potential_Energy-OPLS-2005>
-5.95002746582031

> <r_mmod_Stretch_Energy-OPLS-2005>
62.6330604553223

> <r_mmod_Bend_Energy-OPLS-2005>
190.080551147461

> <r_mmod_Torsional_Energy-OPLS-2005>
237.61296081543

> <r_mmod_Improper_Torsional_Energy-OPLS-2005>
6.87129545211792

> <r_mmod_Van_der_Waal_Energy-OPLS-2005>
121.830787658691

> <r_mmod_Electrostatic_Energy-OPLS-2005>
-424.249816894531

> <r_mmod_Solvation_Energy-OPLS-2005>
-243.526840209961

> <b_mmod_Minimization_Converged-OPLS-2005>
0

> <r_mmod_RMS_Derivative-OPLS-2005>
1.78218960762024

$$$$
58
                    3D
 Structure written by MMmdl.
146154  0  0  1  0            999 V2000
  -30.5905  -14.8595   20.4301 C   0  0  0  0  0  0
  -30.4301  -12.5269   19.4927 C   0  0  0  0  0  0
  -29.5144  -12.5163   18.2487 C   0  0  0  0  0  0
  -28.0448  -12.3201   18.6644 C   0  0  0  0  0  0
  -27.6320  -13.2436   19.8410 C   0  0  2  0  0  0
  -28.6752  -13.2452   20.9795 C   0  0  0  0  0  0
  -25.2467  -13.8211   20.5697 C   0  0  0  0  0  0
  -24.1786  -13.0443   20.9243 C   0  0  0  0  0  0
  -24.6394  -11.6926   20.8768 C   0  0  0  0  0  0
  -23.9077  -10.4296   21.0416 C   0  0  0  0  0  0
  -24.3627   -9.4207   21.9189 C   0  0  0  0  0  0
  -23.6300   -8.2243   22.0754 C   0  0  0  0  0  0
  -22.4280   -8.0283   21.3545 C   0  0  0  0  0  0
  -21.9919   -9.0259   20.4648 C   0  0  0  0  0  0
  -22.7250  -10.2138   20.3062 C   0  0  0  0  0  0
  -21.6856   -6.0737   22.5278 C   0  0  0  0  0  0
  -21.4016   -6.5640   23.8212 C   0  0  0  0  0  0
  -21.3660   -5.6792   24.9174 C   0  0  0  0  0  0
  -21.6044   -4.3055   24.7224 C   0  0  0  0  0  0
  -21.8820   -3.8147   23.4345 C   0  0  0  0  0  0
  -21.9194   -4.6964   22.3402 C   0  0  0  0  0  0
  -22.7806  -13.5216   21.1889 C   0  0  0  0  0  0
  -22.1660   -4.2149   21.0979 F   0  0  0  0  0  0
  -21.5629   -3.4539   25.7737 F   0  0  0  0  0  0
  -29.9625  -13.6223   20.3848 N   0  0  0  0  0  0
  -26.2891  -12.9439   20.3247 N   0  0  0  0  0  0
  -25.9324  -11.6573   20.5752 N   0  0  0  0  0  0
  -22.0451  -12.8202   22.0439 N   0  0  0  0  0  0
  -25.4119  -15.1933   20.4051 N   0  0  0  0  0  0
  -31.7958  -14.8798   20.1600 O   0  0  0  0  0  0
  -21.6644   -6.8880   21.4239 O   0  0  0  0  0  0
  -22.3492  -14.5519   20.6726 O   0  0  0  0  0  0
  -24.6374  -31.8492   23.1932 C   0  0  0  0  0  0
  -25.9172  -32.4722   23.8300 C   0  0  1  0  0  0
  -27.2165  -27.1918   20.1492 C   0  0  0  0  0  0
  -25.5942  -33.8527   24.2218 N   0  0  0  0  0  0
  -23.4387  -30.4692   21.5371 C   0  0  2  0  0  0
  -24.8889  -28.9027   20.1126 C   0  0  0  0  0  0
  -22.7537  -29.4568   22.4882 C   0  0  0  0  0  0
  -18.0298  -28.1392   22.8480 C   0  0  0  0  0  0
  -24.1490  -36.7268   23.2641 C   0  0  0  0  0  0
  -25.9900  -30.7380   21.3867 C   0  0  0  0  0  0
  -26.0617  -29.3517   20.7349 C   0  0  0  0  0  0
  -27.2277  -28.5071   20.7463 C   0  0  0  0  0  0
  -26.0261  -26.8320   19.4843 C   0  0  0  0  0  0
  -24.8790  -27.6521   19.4756 C   0  0  0  0  0  0
  -23.6633  -29.7992   20.1555 C   0  0  0  0  0  0
  -25.4120  -36.3049   24.0320 C   0  0  1  0  0  0
  -20.5907  -28.3711   23.1249 C   0  0  2  0  0  0
  -20.6783  -26.9420   22.5405 C   0  0  0  0  0  0
  -19.5758  -26.6382   21.5211 C   0  0  0  0  0  0
  -18.1939  -26.7932   22.1623 C   0  0  0  0  0  0
  -19.1554  -28.8869   23.2858 C   0  0  0  0  0  0
  -18.9472  -30.1467   23.8881 C   0  0  0  0  0  0
  -17.6470  -30.6590   24.0560 C   0  0  0  0  0  0
  -25.9066  -34.9422   23.5075 C   0  0  0  0  0  0
  -16.5361  -29.9085   23.6334 C   0  0  0  0  0  0
  -16.7284  -28.6503   23.0355 C   0  0  0  0  0  0
  -26.4515  -31.6573   25.0721 C   0  0  0  0  0  0
  -25.3715  -31.3746   26.1425 C   0  0  0  0  0  0
  -27.0379  -30.2977   24.6267 C   0  0  0  0  0  0
  -27.6051  -32.4334   25.7503 C   0  0  0  0  0  0
  -27.5576  -37.1790   24.8466 C   0  0  0  0  0  0
  -21.4236  -29.3046   22.3627 N   0  0  0  0  0  0
  -26.4288  -37.3756   23.9407 N   0  0  0  0  0  0
  -24.7078  -31.0393   22.0944 N   0  0  0  0  0  0
  -23.4204  -28.8115   23.3013 O   0  0  0  0  0  0
  -28.2737  -26.2332   20.1588 O   0  0  0  0  0  0
  -26.5647  -34.8909   22.4650 O   0  0  0  0  0  0
  -23.5506  -32.1348   23.7181 O   0  0  0  0  0  0
  -28.5168  -23.8072   20.4197 C   0  0  0  0  0  0
  -26.9394  -19.4909   20.8831 C   0  0  0  0  0  0
  -27.8535  -18.4148   20.8002 C   0  0  0  0  0  0
  -27.3362  -20.8406   20.7333 C   0  0  0  0  0  0
  -29.6012  -20.0567   20.4058 C   0  0  0  0  0  0
  -29.2260  -18.6337   20.5545 C   0  0  0  0  0  0
  -28.6790  -21.2047   20.4910 C   0  0  0  0  0  0
  -30.2206  -17.3995   20.4707 C   0  0  0  0  0  0
  -29.0092  -22.6447   20.3755 N   0  0  0  0  0  0
  -27.8723  -24.8643   20.6503 N   0  0  0  0  0  0
  -29.8317  -16.0441   20.5674 N   0  0  0  0  0  0
  -31.4054  -17.7036   20.3001 O   0  0  0  0  0  0
  -31.4695  -12.6529   19.1858 H   0  0  0  0  0  0
  -30.3898  -11.5674   20.0109 H   0  0  0  0  0  0
  -29.8177  -11.7258   17.5608 H   0  0  0  0  0  0
  -29.6215  -13.4557   17.7038 H   0  0  0  0  0  0
  -27.9253  -11.2764   18.9572 H   0  0  0  0  0  0
  -27.3840  -12.4734   17.8103 H   0  0  0  0  0  0
  -27.6055  -14.2516   19.4266 H   0  0  0  0  0  0
  -28.7382  -12.2659   21.4563 H   0  0  0  0  0  0
  -28.3907  -13.9511   21.7616 H   0  0  0  0  0  0
  -25.2771   -9.5683   22.4766 H   0  0  0  0  0  0
  -24.0010   -7.4632   22.7471 H   0  0  0  0  0  0
  -21.0851   -8.8781   19.8953 H   0  0  0  0  0  0
  -22.3708  -10.9681   19.6176 H   0  0  0  0  0  0
  -21.2009   -7.6149   23.9715 H   0  0  0  0  0  0
  -21.1481   -6.0522   25.9077 H   0  0  0  0  0  0
  -22.0598   -2.7609   23.2846 H   0  0  0  0  0  0
  -22.4077  -11.9869   22.4831 H   0  0  0  0  0  0
  -21.1064  -13.1215   22.2639 H   0  0  0  0  0  0
  -26.2179  -15.6141   19.9642 H   0  0  0  0  0  0
  -24.6273  -15.8310   20.4854 H   0  0  0  0  0  0
  -26.7237  -32.5351   23.1034 H   0  0  0  0  0  0
  -25.0073  -33.9653   25.0353 H   0  0  0  0  0  0
  -22.7387  -31.2933   21.3852 H   0  0  0  0  0  0
  -23.3755  -35.9598   23.3296 H   0  0  0  0  0  0
  -24.3576  -36.8905   22.2057 H   0  0  0  0  0  0
  -23.7243  -37.6463   23.6679 H   0  0  0  0  0  0
  -26.1382  -31.4919   20.6124 H   0  0  0  0  0  0
  -26.8637  -30.7904   22.0246 H   0  0  0  0  0  0
  -28.1245  -28.8438   21.2470 H   0  0  0  0  0  0
  -25.9690  -25.8719   18.9912 H   0  0  0  0  0  0
  -23.9842  -27.3039   18.9782 H   0  0  0  0  0  0
  -23.7959  -30.5738   19.3993 H   0  0  0  0  0  0
  -22.7798  -29.2376   19.8467 H   0  0  0  0  0  0
  -25.1306  -36.1883   25.0812 H   0  0  0  0  0  0
  -20.9999  -28.3297   24.1370 H   0  0  0  0  0  0
  -20.5678  -26.2324   23.3619 H   0  0  0  0  0  0
  -21.6650  -26.7432   22.1203 H   0  0  0  0  0  0
  -19.6919  -25.6289   21.1252 H   0  0  0  0  0  0
  -19.6695  -27.3183   20.6734 H   0  0  0  0  0  0
  -17.4208  -26.6676   21.4028 H   0  0  0  0  0  0
  -18.0340  -26.0078   22.9025 H   0  0  0  0  0  0
  -19.7949  -30.7287   24.2244 H   0  0  0  0  0  0
  -17.5024  -31.6269   24.5164 H   0  0  0  0  0  0
  -15.5361  -30.2982   23.7667 H   0  0  0  0  0  0
  -15.8684  -28.0816   22.7081 H   0  0  0  0  0  0
  -24.5899  -30.7087   25.7748 H   0  0  0  0  0  0
  -24.8897  -32.2923   26.4808 H   0  0  0  0  0  0
  -25.8011  -30.8950   27.0229 H   0  0  0  0  0  0
  -26.2987  -29.6705   24.1273 H   0  0  0  0  0  0
  -27.4009  -29.7267   25.4823 H   0  0  0  0  0  0
  -27.8886  -30.4228   23.9565 H   0  0  0  0  0  0
  -27.2644  -33.3648   26.2038 H   0  0  0  0  0  0
  -28.3884  -32.6873   25.0349 H   0  0  0  0  0  0
  -28.0694  -31.8490   26.5456 H   0  0  0  0  0  0
  -28.2589  -38.0091   24.7510 H   0  0  0  0  0  0
  -28.1076  -36.2620   24.6296 H   0  0  0  0  0  0
  -27.2293  -37.1442   25.8868 H   0  0  0  0  0  0
  -20.9437  -29.8761   21.6816 H   0  0  0  0  0  0
  -26.0159  -38.2826   24.1409 H   0  0  0  0  0  0
  -25.8970  -19.2745   21.0728 H   0  0  0  0  0  0
  -27.4795  -17.4097   20.9333 H   0  0  0  0  0  0
  -26.5790  -21.6081   20.8160 H   0  0  0  0  0  0
  -30.6449  -20.2728   20.2244 H   0  0  0  0  0  0
  -28.8498  -15.9008   20.7235 H   0  0  0  0  0  0
  1 25  1  0  0  0
  1 30  2  0  0  0
  1 81  1  0  0  0
  2  3  1  0  0  0
  2 25  1  0  0  0
  2 83  1  0  0  0
  2 84  1  0  0  0
  3  4  1  0  0  0
  3 85  1  0  0  0
  3 86  1  0  0  0
  4  5  1  0  0  0
  4 87  1  0  0  0
  4 88  1  0  0  0
  5  6  1  0  0  0
  5 26  1  0  0  0
  5 89  1  0  0  0
  6 25  1  0  0  0
  6 90  1  0  0  0
  6 91  1  0  0  0
  7  8  2  0  0  0
  7 26  1  0  0  0
  7 29  1  0  0  0
  8  9  1  0  0  0
  8 22  1  0  0  0
  9 10  1  0  0  0
  9 27  2  0  0  0
 10 11  2  0  0  0
 10 15  1  0  0  0
 11 12  1  0  0  0
 11 92  1  0  0  0
 12 13  2  0  0  0
 12 93  1  0  0  0
 13 14  1  0  0  0
 13 31  1  0  0  0
 14 15  2  0  0  0
 14 94  1  0  0  0
 15 95  1  0  0  0
 16 17  2  0  0  0
 16 21  1  0  0  0
 16 31  1  0  0  0
 17 18  1  0  0  0
 17 96  1  0  0  0
 18 19  2  0  0  0
 18 97  1  0  0  0
 19 20  1  0  0  0
 19 24  1  0  0  0
 20 21  2  0  0  0
 20 98  1  0  0  0
 21 23  1  0  0  0
 22 28  1  0  0  0
 22 32  2  0  0  0
 26 27  1  0  0  0
 28 99  1  0  0  0
 28100  1  0  0  0
 29101  1  0  0  0
 29102  1  0  0  0
 33 34  1  0  0  0
 33 66  1  0  0  0
 33 70  2  0  0  0
 34 36  1  0  0  0
 34 59  1  0  0  0
 34103  1  0  0  0
 35 44  2  0  0  0
 35 45  1  0  0  0
 35 68  1  0  0  0
 36 56  1  0  0  0
 36104  1  0  0  0
 37 39  1  0  0  0
 37 47  1  0  0  0
 37 66  1  0  0  0
 37105  1  0  0  0
 38 43  2  0  0  0
 38 46  1  0  0  0
 38 47  1  0  0  0
 39 64  1  0  0  0
 39 67  2  0  0  0
 40 52  1  0  0  0
 40 53  2  0  0  0
 40 58  1  0  0  0
 41106  1  0  0  0
 41107  1  0  0  0
 41108  1  0  0  0
 41 48  1  0  0  0
 42 43  1  0  0  0
 42 66  1  0  0  0
 42109  1  0  0  0
 42110  1  0  0  0
 43 44  1  0  0  0
 44111  1  0  0  0
 45 46  2  0  0  0
 45112  1  0  0  0
 46113  1  0  0  0
 47114  1  0  0  0
 47115  1  0  0  0
 48 56  1  0  0  0
 48 65  1  0  0  0
 48116  1  0  0  0
 49 50  1  0  0  0
 49 53  1  0  0  0
 49 64  1  0  0  0
 49117  1  0  0  0
 50 51  1  0  0  0
 50118  1  0  0  0
 50119  1  0  0  0
 51 52  1  0  0  0
 51120  1  0  0  0
 51121  1  0  0  0
 52122  1  0  0  0
 52123  1  0  0  0
 53 54  1  0  0  0
 54 55  2  0  0  0
 54124  1  0  0  0
 55 57  1  0  0  0
 55125  1  0  0  0
 56 69  2  0  0  0
 57 58  2  0  0  0
 57126  1  0  0  0
 58127  1  0  0  0
 59 60  1  0  0  0
 59 61  1  0  0  0
 59 62  1  0  0  0
 60128  1  0  0  0
 60129  1  0  0  0
 60130  1  0  0  0
 61131  1  0  0  0
 61132  1  0  0  0
 61133  1  0  0  0
 62134  1  0  0  0
 62135  1  0  0  0
 62136  1  0  0  0
 63 65  1  0  0  0
 63137  1  0  0  0
 63138  1  0  0  0
 63139  1  0  0  0
 64140  1  0  0  0
 65141  1  0  0  0
 68 80  1  0  0  0
 71 79  2  0  0  0
 71 80  2  0  0  0
 72 73  2  0  0  0
 72 74  1  0  0  0
 72142  1  0  0  0
 73 76  1  0  0  0
 73143  1  0  0  0
 74 77  2  0  0  0
 74144  1  0  0  0
 75 76  2  0  0  0
 75 77  1  0  0  0
 75145  1  0  0  0
 76 78  1  0  0  0
 77 79  1  0  0  0
 78 81  1  0  0  0
 78 82  2  0  0  0
 81146  1  0  0  0
M  ISO  4   1 100  68 101  80 101  81 100
M  END
> <chiral flag>
0

> <version>
0

> <s_m_source_file>
/data/baiqing/PycharmProjects/Reinvent-master-3.2/result/LINK_invent/BTK/process_docking_weight1_custom_product_contain_oxygen_bond_distance_aromatic_linkinvent_7_9_3/rearranged_h_0087.sdf

> <i_m_source_file_index>
59

> <r_mmod_Potential_Energy-OPLS-2005>
182.496047973633

> <r_mmod_Stretch_Energy-OPLS-2005>
165.13069152832

> <r_mmod_Bend_Energy-OPLS-2005>
182.28466796875

> <r_mmod_Torsional_Energy-OPLS-2005>
201.622634887695

> <r_mmod_Improper_Torsional_Energy-OPLS-2005>
5.04584503173828

> <r_mmod_Van_der_Waal_Energy-OPLS-2005>
134.38427734375

> <r_mmod_Electrostatic_Energy-OPLS-2005>
-419.770782470703

> <r_mmod_Solvation_Energy-OPLS-2005>
-225.424530029297

> <b_mmod_Minimization_Converged-OPLS-2005>
0

> <r_mmod_RMS_Derivative-OPLS-2005>
0.216043591499329

$$$$
59
                    3D
 Structure written by MMmdl.
147155  0  0  1  0            999 V2000
  -30.6014  -14.8063   20.4315 C   0  0  0  0  0  0
  -30.4307  -12.4893   19.4931 C   0  0  0  0  0  0
  -29.5142  -12.5131   18.2494 C   0  0  0  0  0  0
  -28.0417  -12.3304   18.6612 C   0  0  0  0  0  0
  -27.6391  -13.2413   19.8514 C   0  0  2  0  0  0
  -28.6820  -13.2092   20.9904 C   0  0  0  0  0  0
  -25.2494  -13.8214   20.5717 C   0  0  0  0  0  0
  -24.1794  -13.0445   20.9217 C   0  0  0  0  0  0
  -24.6398  -11.6926   20.8753 C   0  0  0  0  0  0
  -23.9077  -10.4298   21.0408 C   0  0  0  0  0  0
  -24.3627   -9.4209   21.9184 C   0  0  0  0  0  0
  -23.6299   -8.2246   22.0754 C   0  0  0  0  0  0
  -22.4281   -8.0286   21.3545 C   0  0  0  0  0  0
  -21.9917   -9.0260   20.4650 C   0  0  0  0  0  0
  -22.7247  -10.2139   20.3061 C   0  0  0  0  0  0
  -21.6856   -6.0738   22.5276 C   0  0  0  0  0  0
  -21.4017   -6.5641   23.8209 C   0  0  0  0  0  0
  -21.3662   -5.6795   24.9174 C   0  0  0  0  0  0
  -21.6045   -4.3057   24.7223 C   0  0  0  0  0  0
  -21.8817   -3.8149   23.4344 C   0  0  0  0  0  0
  -21.9192   -4.6966   22.3400 C   0  0  0  0  0  0
  -22.7813  -13.5218   21.1873 C   0  0  0  0  0  0
  -22.1661   -4.2151   21.0978 F   0  0  0  0  0  0
  -21.5630   -3.4541   25.7736 F   0  0  0  0  0  0
  -29.9795  -13.5706   20.4070 N   0  0  0  0  0  0
  -26.2927  -12.9441   20.3298 N   0  0  0  0  0  0
  -25.9335  -11.6573   20.5767 N   0  0  0  0  0  0
  -22.0469  -12.8208   22.0435 N   0  0  0  0  0  0
  -25.4170  -15.1944   20.4151 N   0  0  0  0  0  0
  -31.7936  -14.8661   20.1162 O   0  0  0  0  0  0
  -21.6644   -6.8883   21.4240 O   0  0  0  0  0  0
  -22.3492  -14.5519   20.6716 O   0  0  0  0  0  0
  -24.6350  -31.8521   23.1962 C   0  0  0  0  0  0
  -25.9155  -32.4738   23.8325 C   0  0  1  0  0  0
  -27.2144  -27.2123   20.1413 C   0  0  0  0  0  0
  -25.5934  -33.8545   24.2236 N   0  0  0  0  0  0
  -23.4358  -30.4739   21.5398 C   0  0  2  0  0  0
  -24.8861  -28.9178   20.1079 C   0  0  0  0  0  0
  -22.7534  -29.4579   22.4888 C   0  0  0  0  0  0
  -18.0298  -28.1387   22.8485 C   0  0  0  0  0  0
  -24.1492  -36.7282   23.2636 C   0  0  0  0  0  0
  -25.9870  -30.7462   21.3895 C   0  0  0  0  0  0
  -26.0585  -29.3649   20.7320 C   0  0  0  0  0  0
  -27.2247  -28.5231   20.7432 C   0  0  0  0  0  0
  -26.0278  -26.8633   19.4571 C   0  0  0  0  0  0
  -24.8785  -27.6763   19.4575 C   0  0  0  0  0  0
  -23.6590  -29.8099   20.1560 C   0  0  0  0  0  0
  -25.4119  -36.3063   24.0320 C   0  0  1  0  0  0
  -20.5908  -28.3706   23.1254 C   0  0  2  0  0  0
  -20.6787  -26.9418   22.5404 C   0  0  0  0  0  0
  -19.5756  -26.6378   21.5215 C   0  0  0  0  0  0
  -18.1942  -26.7925   22.1637 C   0  0  0  0  0  0
  -19.1554  -28.8865   23.2863 C   0  0  0  0  0  0
  -18.9472  -30.1465   23.8881 C   0  0  0  0  0  0
  -17.6469  -30.6588   24.0558 C   0  0  0  0  0  0
  -25.9062  -34.9433   23.5084 C   0  0  0  0  0  0
  -16.5360  -29.9081   23.6332 C   0  0  0  0  0  0
  -16.7283  -28.6499   23.0353 C   0  0  0  0  0  0
  -26.4497  -31.6586   25.0741 C   0  0  0  0  0  0
  -25.3694  -31.3770   26.1447 C   0  0  0  0  0  0
  -27.0346  -30.2985   24.6287 C   0  0  0  0  0  0
  -27.6041  -32.4341   25.7516 C   0  0  0  0  0  0
  -27.5583  -37.1792   24.8460 C   0  0  0  0  0  0
  -21.4236  -29.3045   22.3637 N   0  0  0  0  0  0
  -26.4291  -37.3767   23.9409 N   0  0  0  0  0  0
  -24.7049  -31.0438   22.0969 N   0  0  0  0  0  0
  -23.4212  -28.8118   23.3003 O   0  0  0  0  0  0
  -28.2614  -26.2436   20.2010 O   0  0  0  0  0  0
  -26.5650  -34.8910   22.4663 O   0  0  0  0  0  0
  -23.5486  -32.1372   23.7217 O   0  0  0  0  0  0
  -28.5338  -23.6340   20.2075 C   0  0  0  0  0  0
  -29.4412  -18.6128   20.7089 C   0  0  0  0  0  0
  -30.5138  -20.0408   19.0539 C   0  0  0  0  0  0
  -30.9061  -17.6096   19.0548 C   0  0  0  0  0  0
  -29.6511  -19.9667   20.1668 C   0  0  0  0  0  0
  -30.0688  -17.3926   20.1759 C   0  0  0  0  0  0
  -31.1217  -18.8928   18.5099 C   0  0  0  0  0  0
  -27.9239  -24.8448   20.3548 C   0  0  0  0  0  0
  -29.0924  -21.3200   20.7505 C   0  0  0  0  0  0
  -28.8584  -22.4609   19.8931 N   0  0  0  0  0  0
  -29.8531  -15.9749   20.6496 N   0  0  0  0  0  0
  -28.8300  -21.3239   21.9542 O   0  0  0  0  0  0
  -31.9353  -19.0256   17.4353 F   0  0  0  0  0  0
  -31.4722  -12.6082   19.1902 H   0  0  0  0  0  0
  -30.3776  -11.5211   19.9937 H   0  0  0  0  0  0
  -29.8060  -11.7294   17.5491 H   0  0  0  0  0  0
  -29.6345  -13.4598   17.7198 H   0  0  0  0  0  0
  -27.9067  -11.2839   18.9370 H   0  0  0  0  0  0
  -27.3836  -12.5073   17.8099 H   0  0  0  0  0  0
  -27.6241  -14.2575   19.4564 H   0  0  0  0  0  0
  -28.7281  -12.2213   21.4514 H   0  0  0  0  0  0
  -28.4068  -13.9051   21.7843 H   0  0  0  0  0  0
  -25.2770   -9.5687   22.4761 H   0  0  0  0  0  0
  -24.0008   -7.4637   22.7475 H   0  0  0  0  0  0
  -21.0845   -8.8781   19.8958 H   0  0  0  0  0  0
  -22.3697  -10.9682   19.6178 H   0  0  0  0  0  0
  -21.2011   -7.6149   23.9712 H   0  0  0  0  0  0
  -21.1489   -6.0527   25.9075 H   0  0  0  0  0  0
  -22.0596   -2.7611   23.2842 H   0  0  0  0  0  0
  -22.4102  -11.9877   22.4823 H   0  0  0  0  0  0
  -21.1088  -13.1230   22.2653 H   0  0  0  0  0  0
  -24.6477  -15.8460   20.5264 H   0  0  0  0  0  0
  -26.2634  -15.6367   20.0802 H   0  0  0  0  0  0
  -26.7223  -32.5367   23.1063 H   0  0  0  0  0  0
  -25.0042  -33.9686   25.0353 H   0  0  0  0  0  0
  -22.7337  -31.2970   21.3914 H   0  0  0  0  0  0
  -23.3752  -35.9616   23.3292 H   0  0  0  0  0  0
  -24.3579  -36.8916   22.2052 H   0  0  0  0  0  0
  -23.7249  -37.6481   23.6668 H   0  0  0  0  0  0
  -26.1378  -31.5036   20.6191 H   0  0  0  0  0  0
  -26.8598  -30.7935   22.0291 H   0  0  0  0  0  0
  -28.1163  -28.8537   21.2574 H   0  0  0  0  0  0
  -25.9637  -25.9174   18.9384 H   0  0  0  0  0  0
  -23.9868  -27.3331   18.9512 H   0  0  0  0  0  0
  -23.7880  -30.5869   19.4016 H   0  0  0  0  0  0
  -22.7762  -29.2470   19.8476 H   0  0  0  0  0  0
  -25.1300  -36.1906   25.0813 H   0  0  0  0  0  0
  -21.0002  -28.3284   24.1373 H   0  0  0  0  0  0
  -20.5690  -26.2316   23.3614 H   0  0  0  0  0  0
  -21.6652  -26.7437   22.1193 H   0  0  0  0  0  0
  -19.6916  -25.6285   21.1254 H   0  0  0  0  0  0
  -19.6683  -27.3179   20.6736 H   0  0  0  0  0  0
  -17.4205  -26.6657   21.4049 H   0  0  0  0  0  0
  -18.0353  -26.0075   22.9045 H   0  0  0  0  0  0
  -19.7948  -30.7289   24.2240 H   0  0  0  0  0  0
  -17.5021  -31.6267   24.5160 H   0  0  0  0  0  0
  -15.5360  -30.2976   23.7661 H   0  0  0  0  0  0
  -15.8685  -28.0810   22.7074 H   0  0  0  0  0  0
  -24.5853  -30.7142   25.7768 H   0  0  0  0  0  0
  -24.8900  -32.2953   26.4852 H   0  0  0  0  0  0
  -25.7979  -30.8949   27.0243 H   0  0  0  0  0  0
  -26.2953  -29.6734   24.1267 H   0  0  0  0  0  0
  -27.3936  -29.7262   25.4852 H   0  0  0  0  0  0
  -27.8874  -30.4226   23.9609 H   0  0  0  0  0  0
  -27.2634  -33.3642   26.2080 H   0  0  0  0  0  0
  -28.3854  -32.6908   25.0349 H   0  0  0  0  0  0
  -28.0705  -31.8480   26.5445 H   0  0  0  0  0  0
  -28.2580  -38.0109   24.7534 H   0  0  0  0  0  0
  -28.1102  -36.2641   24.6253 H   0  0  0  0  0  0
  -27.2305  -37.1401   25.8863 H   0  0  0  0  0  0
  -20.9429  -29.8771   21.6838 H   0  0  0  0  0  0
  -26.0165  -38.2836   24.1420 H   0  0  0  0  0  0
  -28.7900  -18.5152   21.5665 H   0  0  0  0  0  0
  -30.7317  -20.9988   18.6032 H   0  0  0  0  0  0
  -31.3976  -16.7826   18.5654 H   0  0  0  0  0  0
  -26.8882  -24.7879   20.6557 H   0  0  0  0  0  0
  -28.9565  -15.8047   21.0804 H   0  0  0  0  0  0
  1 25  1  0  0  0
  1 30  2  0  0  0
  1 81  1  0  0  0
  2  3  1  0  0  0
  2 25  1  0  0  0
  2 84  1  0  0  0
  2 85  1  0  0  0
  3  4  1  0  0  0
  3 86  1  0  0  0
  3 87  1  0  0  0
  4  5  1  0  0  0
  4 88  1  0  0  0
  4 89  1  0  0  0
  5  6  1  0  0  0
  5 26  1  0  0  0
  5 90  1  0  0  0
  6 25  1  0  0  0
  6 91  1  0  0  0
  6 92  1  0  0  0
  7  8  2  0  0  0
  7 26  1  0  0  0
  7 29  1  0  0  0
  8  9  1  0  0  0
  8 22  1  0  0  0
  9 10  1  0  0  0
  9 27  2  0  0  0
 10 11  2  0  0  0
 10 15  1  0  0  0
 11 12  1  0  0  0
 11 93  1  0  0  0
 12 13  2  0  0  0
 12 94  1  0  0  0
 13 14  1  0  0  0
 13 31  1  0  0  0
 14 15  2  0  0  0
 14 95  1  0  0  0
 15 96  1  0  0  0
 16 17  2  0  0  0
 16 21  1  0  0  0
 16 31  1  0  0  0
 17 18  1  0  0  0
 17 97  1  0  0  0
 18 19  2  0  0  0
 18 98  1  0  0  0
 19 20  1  0  0  0
 19 24  1  0  0  0
 20 21  2  0  0  0
 20 99  1  0  0  0
 21 23  1  0  0  0
 22 28  1  0  0  0
 22 32  2  0  0  0
 26 27  1  0  0  0
 28100  1  0  0  0
 28101  1  0  0  0
 29102  1  0  0  0
 29103  1  0  0  0
 33 34  1  0  0  0
 33 66  1  0  0  0
 33 70  2  0  0  0
 34 36  1  0  0  0
 34 59  1  0  0  0
 34104  1  0  0  0
 35 44  2  0  0  0
 35 45  1  0  0  0
 35 68  1  0  0  0
 36 56  1  0  0  0
 36105  1  0  0  0
 37 39  1  0  0  0
 37 47  1  0  0  0
 37 66  1  0  0  0
 37106  1  0  0  0
 38 43  2  0  0  0
 38 46  1  0  0  0
 38 47  1  0  0  0
 39 64  1  0  0  0
 39 67  2  0  0  0
 40 52  1  0  0  0
 40 53  2  0  0  0
 40 58  1  0  0  0
 41107  1  0  0  0
 41108  1  0  0  0
 41109  1  0  0  0
 41 48  1  0  0  0
 42 43  1  0  0  0
 42 66  1  0  0  0
 42110  1  0  0  0
 42111  1  0  0  0
 43 44  1  0  0  0
 44112  1  0  0  0
 45 46  2  0  0  0
 45113  1  0  0  0
 46114  1  0  0  0
 47115  1  0  0  0
 47116  1  0  0  0
 48 56  1  0  0  0
 48 65  1  0  0  0
 48117  1  0  0  0
 49 50  1  0  0  0
 49 53  1  0  0  0
 49 64  1  0  0  0
 49118  1  0  0  0
 50 51  1  0  0  0
 50119  1  0  0  0
 50120  1  0  0  0
 51 52  1  0  0  0
 51121  1  0  0  0
 51122  1  0  0  0
 52123  1  0  0  0
 52124  1  0  0  0
 53 54  1  0  0  0
 54 55  2  0  0  0
 54125  1  0  0  0
 55 57  1  0  0  0
 55126  1  0  0  0
 56 69  2  0  0  0
 57 58  2  0  0  0
 57127  1  0  0  0
 58128  1  0  0  0
 59 60  1  0  0  0
 59 61  1  0  0  0
 59 62  1  0  0  0
 60129  1  0  0  0
 60130  1  0  0  0
 60131  1  0  0  0
 61132  1  0  0  0
 61133  1  0  0  0
 61134  1  0  0  0
 62135  1  0  0  0
 62136  1  0  0  0
 62137  1  0  0  0
 63 65  1  0  0  0
 63138  1  0  0  0
 63139  1  0  0  0
 63140  1  0  0  0
 64141  1  0  0  0
 65142  1  0  0  0
 68 78  1  0  0  0
 71 78  2  0  0  0
 71 80  2  0  0  0
 72 75  2  0  0  0
 72 76  1  0  0  0
 72143  1  0  0  0
 73 75  1  0  0  0
 73 77  2  0  0  0
 73144  1  0  0  0
 74 76  2  0  0  0
 74 77  1  0  0  0
 74145  1  0  0  0
 75 79  1  0  0  0
 76 81  1  0  0  0
 77 83  1  0  0  0
 78146  1  0  0  0
 79 80  1  0  0  0
 79 82  2  0  0  0
 81147  1  0  0  0
M  ISO  4   1 100  68 101  78 101  81 100
M  END
> <chiral flag>
0

> <version>
0

> <s_m_source_file>
/data/baiqing/PycharmProjects/Reinvent-master-3.2/result/LINK_invent/BTK/process_docking_weight1_custom_product_contain_oxygen_bond_distance_aromatic_linkinvent_7_9_3/rearranged_h_0087.sdf

> <i_m_source_file_index>
60

> <r_mmod_Potential_Energy-OPLS-2005>
191.735748291016

> <r_mmod_Stretch_Energy-OPLS-2005>
148.569198608398

> <r_mmod_Bend_Energy-OPLS-2005>
173.455856323242

> <r_mmod_Torsional_Energy-OPLS-2005>
188.784439086914

> <r_mmod_Improper_Torsional_Energy-OPLS-2005>
4.22557830810547

> <r_mmod_Van_der_Waal_Energy-OPLS-2005>
144.836669921875

> <r_mmod_Electrostatic_Energy-OPLS-2005>
-387.924255371094

> <r_mmod_Solvation_Energy-OPLS-2005>
-200.78971862793

> <b_mmod_Minimization_Converged-OPLS-2005>
0

> <r_mmod_RMS_Derivative-OPLS-2005>
0.610674858093262

$$$$
60
                    3D
 Structure written by MMmdl.
150159  0  0  1  0            999 V2000
  -30.5876  -14.8703   20.4084 C   0  0  0  0  0  0
  -30.4291  -12.5301   19.4956 C   0  0  0  0  0  0
  -29.5166  -12.5139   18.2495 C   0  0  0  0  0  0
  -28.0447  -12.3253   18.6613 C   0  0  0  0  0  0
  -27.6320  -13.2475   19.8400 C   0  0  2  0  0  0
  -28.6751  -13.2535   20.9776 C   0  0  0  0  0  0
  -25.2473  -13.8228   20.5725 C   0  0  0  0  0  0
  -24.1790  -13.0445   20.9236 C   0  0  0  0  0  0
  -24.6409  -11.6931   20.8758 C   0  0  0  0  0  0
  -23.9095  -10.4296   21.0413 C   0  0  0  0  0  0
  -24.3643   -9.4205   21.9189 C   0  0  0  0  0  0
  -23.6311   -8.2243   22.0756 C   0  0  0  0  0  0
  -22.4292   -8.0284   21.3548 C   0  0  0  0  0  0
  -21.9935   -9.0263   20.4653 C   0  0  0  0  0  0
  -22.7267  -10.2139   20.3062 C   0  0  0  0  0  0
  -21.6857   -6.0742   22.5283 C   0  0  0  0  0  0
  -21.4016   -6.5645   23.8217 C   0  0  0  0  0  0
  -21.3661   -5.6793   24.9177 C   0  0  0  0  0  0
  -21.6042   -4.3056   24.7226 C   0  0  0  0  0  0
  -21.8818   -3.8152   23.4348 C   0  0  0  0  0  0
  -21.9198   -4.6970   22.3407 C   0  0  0  0  0  0
  -22.7807  -13.5205   21.1891 C   0  0  0  0  0  0
  -22.1661   -4.2155   21.0985 F   0  0  0  0  0  0
  -21.5631   -3.4541   25.7741 F   0  0  0  0  0  0
  -29.9609  -13.6317   20.3808 N   0  0  0  0  0  0
  -26.2901  -12.9462   20.3254 N   0  0  0  0  0  0
  -25.9339  -11.6589   20.5748 N   0  0  0  0  0  0
  -22.0468  -12.8183   22.0446 N   0  0  0  0  0  0
  -25.4122  -15.1962   20.4164 N   0  0  0  0  0  0
  -31.7964  -14.8855   20.1589 O   0  0  0  0  0  0
  -21.6646   -6.8886   21.4246 O   0  0  0  0  0  0
  -22.3484  -14.5505   20.6737 O   0  0  0  0  0  0
  -24.6389  -31.8485   23.1933 C   0  0  0  0  0  0
  -25.9179  -32.4719   23.8310 C   0  0  1  0  0  0
  -27.2145  -27.1834   20.1477 C   0  0  0  0  0  0
  -25.5944  -33.8528   24.2217 N   0  0  0  0  0  0
  -23.4412  -30.4686   21.5379 C   0  0  2  0  0  0
  -24.8915  -28.9046   20.1111 C   0  0  0  0  0  0
  -22.7551  -29.4555   22.4879 C   0  0  0  0  0  0
  -18.0299  -28.1393   22.8478 C   0  0  0  0  0  0
  -24.1490  -36.7270   23.2638 C   0  0  0  0  0  0
  -25.9942  -30.7349   21.3886 C   0  0  0  0  0  0
  -26.0664  -29.3502   20.7315 C   0  0  0  0  0  0
  -27.2324  -28.5027   20.7397 C   0  0  0  0  0  0
  -26.0211  -26.8322   19.4818 C   0  0  0  0  0  0
  -24.8777  -27.6556   19.4732 C   0  0  0  0  0  0
  -23.6677  -29.8034   20.1549 C   0  0  0  0  0  0
  -25.4120  -36.3046   24.0316 C   0  0  1  0  0  0
  -20.5911  -28.3710   23.1250 C   0  0  2  0  0  0
  -20.6783  -26.9416   22.5412 C   0  0  0  0  0  0
  -19.5759  -26.6373   21.5221 C   0  0  0  0  0  0
  -18.1939  -26.7929   22.1631 C   0  0  0  0  0  0
  -19.1555  -28.8872   23.2854 C   0  0  0  0  0  0
  -18.9474  -30.1471   23.8876 C   0  0  0  0  0  0
  -17.6469  -30.6590   24.0561 C   0  0  0  0  0  0
  -25.9068  -34.9421   23.5073 C   0  0  0  0  0  0
  -16.5360  -29.9087   23.6331 C   0  0  0  0  0  0
  -16.7285  -28.6508   23.0350 C   0  0  0  0  0  0
  -26.4507  -31.6577   25.0738 C   0  0  0  0  0  0
  -25.3704  -31.3776   26.1446 C   0  0  0  0  0  0
  -27.0355  -30.2970   24.6298 C   0  0  0  0  0  0
  -27.6032  -32.4345   25.7527 C   0  0  0  0  0  0
  -27.5574  -37.1796   24.8461 C   0  0  0  0  0  0
  -21.4248  -29.3045   22.3631 N   0  0  0  0  0  0
  -26.4283  -37.3755   23.9405 N   0  0  0  0  0  0
  -24.7107  -31.0376   22.0952 N   0  0  0  0  0  0
  -23.4216  -28.8092   23.3001 O   0  0  0  0  0  0
  -28.2485  -26.1946   20.1855 O   0  0  0  0  0  0
  -26.5652  -34.8906   22.4649 O   0  0  0  0  0  0
  -23.5516  -32.1343   23.7174 O   0  0  0  0  0  0
  -29.4038  -18.7653   20.4677 C   0  0  0  0  0  0
  -30.9433  -20.1749   19.2930 C   0  0  0  0  0  0
  -31.3158  -17.7516   19.3698 C   0  0  0  0  0  0
  -29.7492  -20.1571   20.0572 C   0  0  0  0  0  0
  -30.1676  -17.5233   20.1588 C   0  0  0  0  0  0
  -31.6935  -19.0360   18.9545 C   0  0  0  0  0  0
  -28.4802  -23.5541   20.3973 C   0  0  0  0  0  0
  -28.0297  -22.2234   20.8743 C   0  0  0  0  0  0
  -27.9083  -24.8360   20.5707 C   0  0  0  0  0  0
  -29.6879  -22.8345   19.7413 C   0  0  0  0  0  0
  -29.1212  -21.5392   20.2618 N   0  0  0  0  0  0
  -29.8441  -16.0741   20.5305 N   0  0  0  0  0  0
  -27.0717  -21.9112   21.5501 O   0  0  0  0  0  0
  -32.8090  -19.1819   18.1988 F   0  0  0  0  0  0
  -31.4689  -12.6551   19.1890 H   0  0  0  0  0  0
  -30.3884  -11.5737   20.0197 H   0  0  0  0  0  0
  -29.8202  -11.7173   17.5688 H   0  0  0  0  0  0
  -29.6287  -13.4491   17.6983 H   0  0  0  0  0  0
  -27.9178  -11.2804   18.9475 H   0  0  0  0  0  0
  -27.3878  -12.4869   17.8056 H   0  0  0  0  0  0
  -27.6028  -14.2557   19.4262 H   0  0  0  0  0  0
  -28.7415  -12.2757   21.4572 H   0  0  0  0  0  0
  -28.3913  -13.9624   21.7566 H   0  0  0  0  0  0
  -25.2794   -9.5672   22.4759 H   0  0  0  0  0  0
  -24.0022   -7.4631   22.7469 H   0  0  0  0  0  0
  -21.0870   -8.8788   19.8954 H   0  0  0  0  0  0
  -22.3737  -10.9682   19.6169 H   0  0  0  0  0  0
  -21.2002   -7.6154   23.9723 H   0  0  0  0  0  0
  -21.1482   -6.0525   25.9080 H   0  0  0  0  0  0
  -22.0595   -2.7616   23.2849 H   0  0  0  0  0  0
  -22.4105  -11.9853   22.4837 H   0  0  0  0  0  0
  -21.1081  -13.1183   22.2652 H   0  0  0  0  0  0
  -24.6429  -15.8459   20.5397 H   0  0  0  0  0  0
  -26.2540  -15.6422   20.0759 H   0  0  0  0  0  0
  -26.7246  -32.5331   23.1044 H   0  0  0  0  0  0
  -25.0062  -33.9660   25.0343 H   0  0  0  0  0  0
  -22.7409  -31.2927   21.3872 H   0  0  0  0  0  0
  -23.3752  -35.9602   23.3295 H   0  0  0  0  0  0
  -24.3567  -36.8909   22.2052 H   0  0  0  0  0  0
  -23.7252  -37.6468   23.6680 H   0  0  0  0  0  0
  -26.1453  -31.4911   20.6174 H   0  0  0  0  0  0
  -26.8665  -30.7846   22.0282 H   0  0  0  0  0  0
  -28.1276  -28.8338   21.2472 H   0  0  0  0  0  0
  -25.9557  -25.8738   18.9863 H   0  0  0  0  0  0
  -23.9813  -27.3099   18.9765 H   0  0  0  0  0  0
  -23.8070  -30.5823   19.4043 H   0  0  0  0  0  0
  -22.7829  -29.2484   19.8387 H   0  0  0  0  0  0
  -25.1307  -36.1878   25.0808 H   0  0  0  0  0  0
  -20.9994  -28.3295   24.1376 H   0  0  0  0  0  0
  -20.5677  -26.2325   23.3629 H   0  0  0  0  0  0
  -21.6649  -26.7425   22.1212 H   0  0  0  0  0  0
  -19.6917  -25.6279   21.1267 H   0  0  0  0  0  0
  -19.6695  -27.3171   20.6742 H   0  0  0  0  0  0
  -17.4205  -26.6671   21.4037 H   0  0  0  0  0  0
  -18.0338  -26.0083   22.9040 H   0  0  0  0  0  0
  -19.7949  -30.7296   24.2231 H   0  0  0  0  0  0
  -17.5023  -31.6266   24.5173 H   0  0  0  0  0  0
  -15.5360  -30.2983   23.7667 H   0  0  0  0  0  0
  -15.8686  -28.0825   22.7066 H   0  0  0  0  0  0
  -24.5863  -30.7141   25.7783 H   0  0  0  0  0  0
  -24.8918  -32.2970   26.4833 H   0  0  0  0  0  0
  -25.7993  -30.8975   27.0252 H   0  0  0  0  0  0
  -26.2964  -29.6718   24.1274 H   0  0  0  0  0  0
  -27.3933  -29.7241   25.4864 H   0  0  0  0  0  0
  -27.8892  -30.4202   23.9629 H   0  0  0  0  0  0
  -27.2600  -33.3643   26.2079 H   0  0  0  0  0  0
  -28.3860  -32.6920   25.0379 H   0  0  0  0  0  0
  -28.0685  -31.8502   26.5475 H   0  0  0  0  0  0
  -28.2584  -38.0098   24.7493 H   0  0  0  0  0  0
  -28.1077  -36.2625   24.6301 H   0  0  0  0  0  0
  -27.2289  -37.1459   25.8863 H   0  0  0  0  0  0
  -20.9449  -29.8783   21.6840 H   0  0  0  0  0  0
  -26.0151  -38.2822   24.1412 H   0  0  0  0  0  0
  -28.5001  -18.6488   21.0492 H   0  0  0  0  0  0
  -31.3349  -21.1058   18.9152 H   0  0  0  0  0  0
  -31.9476  -16.9458   19.0359 H   0  0  0  0  0  0
  -26.9946  -24.8634   21.1486 H   0  0  0  0  0  0
  -30.6721  -23.0456   20.1625 H   0  0  0  0  0  0
  -29.7347  -22.8541   18.6511 H   0  0  0  0  0  0
  -28.8949  -15.9221   20.8367 H   0  0  0  0  0  0
  1 25  1  0  0  0
  1 30  2  0  0  0
  1 82  1  0  0  0
  2  3  1  0  0  0
  2 25  1  0  0  0
  2 85  1  0  0  0
  2 86  1  0  0  0
  3  4  1  0  0  0
  3 87  1  0  0  0
  3 88  1  0  0  0
  4  5  1  0  0  0
  4 89  1  0  0  0
  4 90  1  0  0  0
  5  6  1  0  0  0
  5 26  1  0  0  0
  5 91  1  0  0  0
  6 25  1  0  0  0
  6 92  1  0  0  0
  6 93  1  0  0  0
  7  8  2  0  0  0
  7 26  1  0  0  0
  7 29  1  0  0  0
  8  9  1  0  0  0
  8 22  1  0  0  0
  9 10  1  0  0  0
  9 27  2  0  0  0
 10 11  2  0  0  0
 10 15  1  0  0  0
 11 12  1  0  0  0
 11 94  1  0  0  0
 12 13  2  0  0  0
 12 95  1  0  0  0
 13 14  1  0  0  0
 13 31  1  0  0  0
 14 15  2  0  0  0
 14 96  1  0  0  0
 15 97  1  0  0  0
 16 17  2  0  0  0
 16 21  1  0  0  0
 16 31  1  0  0  0
 17 18  1  0  0  0
 17 98  1  0  0  0
 18 19  2  0  0  0
 18 99  1  0  0  0
 19 20  1  0  0  0
 19 24  1  0  0  0
 20 21  2  0  0  0
 20100  1  0  0  0
 21 23  1  0  0  0
 22 28  1  0  0  0
 22 32  2  0  0  0
 26 27  1  0  0  0
 28101  1  0  0  0
 28102  1  0  0  0
 29103  1  0  0  0
 29104  1  0  0  0
 33 34  1  0  0  0
 33 66  1  0  0  0
 33 70  2  0  0  0
 34 36  1  0  0  0
 34 59  1  0  0  0
 34105  1  0  0  0
 35 44  2  0  0  0
 35 45  1  0  0  0
 35 68  1  0  0  0
 36 56  1  0  0  0
 36106  1  0  0  0
 37 39  1  0  0  0
 37 47  1  0  0  0
 37 66  1  0  0  0
 37107  1  0  0  0
 38 43  2  0  0  0
 38 46  1  0  0  0
 38 47  1  0  0  0
 39 64  1  0  0  0
 39 67  2  0  0  0
 40 52  1  0  0  0
 40 53  2  0  0  0
 40 58  1  0  0  0
 41108  1  0  0  0
 41109  1  0  0  0
 41110  1  0  0  0
 41 48  1  0  0  0
 42 43  1  0  0  0
 42 66  1  0  0  0
 42111  1  0  0  0
 42112  1  0  0  0
 43 44  1  0  0  0
 44113  1  0  0  0
 45 46  2  0  0  0
 45114  1  0  0  0
 46115  1  0  0  0
 47116  1  0  0  0
 47117  1  0  0  0
 48 56  1  0  0  0
 48 65  1  0  0  0
 48118  1  0  0  0
 49 50  1  0  0  0
 49 53  1  0  0  0
 49 64  1  0  0  0
 49119  1  0  0  0
 50 51  1  0  0  0
 50120  1  0  0  0
 50121  1  0  0  0
 51 52  1  0  0  0
 51122  1  0  0  0
 51123  1  0  0  0
 52124  1  0  0  0
 52125  1  0  0  0
 53 54  1  0  0  0
 54 55  2  0  0  0
 54126  1  0  0  0
 55 57  1  0  0  0
 55127  1  0  0  0
 56 69  2  0  0  0
 57 58  2  0  0  0
 57128  1  0  0  0
 58129  1  0  0  0
 59 60  1  0  0  0
 59 61  1  0  0  0
 59 62  1  0  0  0
 60130  1  0  0  0
 60131  1  0  0  0
 60132  1  0  0  0
 61133  1  0  0  0
 61134  1  0  0  0
 61135  1  0  0  0
 62136  1  0  0  0
 62137  1  0  0  0
 62138  1  0  0  0
 63 65  1  0  0  0
 63139  1  0  0  0
 63140  1  0  0  0
 63141  1  0  0  0
 64142  1  0  0  0
 65143  1  0  0  0
 68 79  1  0  0  0
 71 74  2  0  0  0
 71 75  1  0  0  0
 71144  1  0  0  0
 72 74  1  0  0  0
 72 76  2  0  0  0
 72145  1  0  0  0
 73 75  2  0  0  0
 73 76  1  0  0  0
 73146  1  0  0  0
 74 81  1  0  0  0
 75 82  1  0  0  0
 76 84  1  0  0  0
 77 78  1  0  0  0
 77 79  2  0  0  0
 77 80  1  0  0  0
 78 81  1  0  0  0
 78 83  2  0  0  0
 79147  1  0  0  0
 80 81  1  0  0  0
 80148  1  0  0  0
 80149  1  0  0  0
 82150  1  0  0  0
M  ISO  4   1 100  68 101  79 101  82 100
M  END
> <chiral flag>
0

> <version>
0

> <s_m_source_file>
/data/baiqing/PycharmProjects/Reinvent-master-3.2/result/LINK_invent/BTK/process_docking_weight1_custom_product_contain_oxygen_bond_distance_aromatic_linkinvent_7_9_3/rearranged_h_0087.sdf

> <i_m_source_file_index>
61

> <r_mmod_Potential_Energy-OPLS-2005>
443.54248046875

> <r_mmod_Stretch_Energy-OPLS-2005>
190.499206542969

> <r_mmod_Bend_Energy-OPLS-2005>
287.619781494141

> <r_mmod_Torsional_Energy-OPLS-2005>
223.418807983398

> <r_mmod_Improper_Torsional_Energy-OPLS-2005>
3.9735255241394

> <r_mmod_Van_der_Waal_Energy-OPLS-2005>
140.909149169922

> <r_mmod_Electrostatic_Energy-OPLS-2005>
-335.642303466797

> <r_mmod_Solvation_Energy-OPLS-2005>
-217.531967163086

> <b_mmod_Minimization_Converged-OPLS-2005>
0

> <r_mmod_RMS_Derivative-OPLS-2005>
1.05436885356903

$$$$
61
                    3D
 Structure written by MMmdl.
150158  0  0  1  0            999 V2000
  -30.6254  -14.7781   20.4323 C   0  0  0  0  0  0
  -30.4246  -12.4798   19.4679 C   0  0  0  0  0  0
  -29.4961  -12.5104   18.2336 C   0  0  0  0  0  0
  -28.0323  -12.3103   18.6619 C   0  0  0  0  0  0
  -27.6367  -13.2342   19.8436 C   0  0  2  0  0  0
  -28.6833  -13.2032   20.9805 C   0  0  0  0  0  0
  -25.2515  -13.8226   20.5733 C   0  0  0  0  0  0
  -24.1797  -13.0473   20.9203 C   0  0  0  0  0  0
  -24.6373  -11.6938   20.8744 C   0  0  0  0  0  0
  -23.9055  -10.4320   21.0399 C   0  0  0  0  0  0
  -24.3610   -9.4240   21.9180 C   0  0  0  0  0  0
  -23.6306   -8.2258   22.0749 C   0  0  0  0  0  0
  -22.4293   -8.0284   21.3531 C   0  0  0  0  0  0
  -21.9910   -9.0255   20.4639 C   0  0  0  0  0  0
  -22.7222  -10.2141   20.3055 C   0  0  0  0  0  0
  -21.6867   -6.0743   22.5277 C   0  0  0  0  0  0
  -21.4010   -6.5643   23.8208 C   0  0  0  0  0  0
  -21.3660   -5.6796   24.9171 C   0  0  0  0  0  0
  -21.6051   -4.3061   24.7221 C   0  0  0  0  0  0
  -21.8827   -3.8148   23.4341 C   0  0  0  0  0  0
  -21.9205   -4.6969   22.3403 C   0  0  0  0  0  0
  -22.7825  -13.5238   21.1860 C   0  0  0  0  0  0
  -22.1677   -4.2144   21.0987 F   0  0  0  0  0  0
  -21.5632   -3.4557   25.7740 F   0  0  0  0  0  0
  -29.9823  -13.5551   20.3945 N   0  0  0  0  0  0
  -26.2918  -12.9425   20.3268 N   0  0  0  0  0  0
  -25.9301  -11.6565   20.5734 N   0  0  0  0  0  0
  -22.0469  -12.8223   22.0409 N   0  0  0  0  0  0
  -25.4333  -15.1953   20.4239 N   0  0  0  0  0  0
  -31.8184  -14.8040   20.1154 O   0  0  0  0  0  0
  -21.6661   -6.8873   21.4226 O   0  0  0  0  0  0
  -22.3515  -14.5562   20.6722 O   0  0  0  0  0  0
  -24.6325  -31.8516   23.1957 C   0  0  0  0  0  0
  -25.9146  -32.4724   23.8311 C   0  0  1  0  0  0
  -27.2285  -27.2368   20.1346 C   0  0  0  0  0  0
  -25.5936  -33.8529   24.2224 N   0  0  0  0  0  0
  -23.4311  -30.4686   21.5425 C   0  0  2  0  0  0
  -24.8814  -28.9145   20.1095 C   0  0  0  0  0  0
  -22.7527  -29.4534   22.4931 C   0  0  0  0  0  0
  -18.0320  -28.1332   22.8498 C   0  0  0  0  0  0
  -24.1496  -36.7279   23.2640 C   0  0  0  0  0  0
  -25.9788  -30.7558   21.3816 C   0  0  0  0  0  0
  -26.0506  -29.3779   20.7220 C   0  0  0  0  0  0
  -27.2220  -28.5512   20.7230 C   0  0  0  0  0  0
  -26.0314  -26.8473   19.4911 C   0  0  0  0  0  0
  -24.8779  -27.6581   19.4845 C   0  0  0  0  0  0
  -23.6527  -29.8028   20.1576 C   0  0  0  0  0  0
  -25.4124  -36.3048   24.0315 C   0  0  1  0  0  0
  -20.5922  -28.3634   23.1324 C   0  0  2  0  0  0
  -20.6824  -26.9368   22.5420 C   0  0  0  0  0  0
  -19.5794  -26.6368   21.5193 C   0  0  0  0  0  0
  -18.1987  -26.7867   22.1651 C   0  0  0  0  0  0
  -19.1573  -28.8805   23.2893 C   0  0  0  0  0  0
  -18.9500  -30.1420   23.8887 C   0  0  0  0  0  0
  -17.6502  -30.6540   24.0544 C   0  0  0  0  0  0
  -25.9059  -34.9415   23.5070 C   0  0  0  0  0  0
  -16.5390  -29.9028   23.6338 C   0  0  0  0  0  0
  -16.7308  -28.6446   23.0362 C   0  0  0  0  0  0
  -26.4500  -31.6574   25.0722 C   0  0  0  0  0  0
  -25.3709  -31.3746   26.1438 C   0  0  0  0  0  0
  -27.0370  -30.2984   24.6255 C   0  0  0  0  0  0
  -27.6031  -32.4350   25.7497 C   0  0  0  0  0  0
  -27.5575  -37.1798   24.8460 C   0  0  0  0  0  0
  -21.4225  -29.3014   22.3729 N   0  0  0  0  0  0
  -26.4290  -37.3753   23.9398 N   0  0  0  0  0  0
  -24.7001  -31.0446   22.0961 N   0  0  0  0  0  0
  -23.4228  -28.8062   23.3013 O   0  0  0  0  0  0
  -28.3419  -26.3599   20.2389 O   0  0  0  0  0  0
  -26.5638  -34.8894   22.4639 O   0  0  0  0  0  0
  -23.5471  -32.1350   23.7241 O   0  0  0  0  0  0
  -28.2510  -19.6127   22.7186 C   0  0  0  0  0  0
  -28.8219  -18.4631   22.1315 C   0  0  0  0  0  0
  -28.3049  -20.8794   22.0962 C   0  0  0  0  0  0
  -29.5100  -19.8545   20.2591 C   0  0  0  0  0  0
  -29.4809  -18.5296   20.8861 C   0  0  0  0  0  0
  -28.9298  -21.0655   20.8408 C   0  0  0  0  0  0
  -30.2515  -17.2712   20.3551 C   0  0  0  0  0  0
  -28.6195  -23.6995   20.6710 C   0  0  0  0  0  0
  -28.4069  -24.9510   19.6777 C   0  0  0  0  0  0
  -28.9011  -22.4135   20.1870 N   0  0  0  0  0  0
  -29.8957  -15.9510   20.6574 N   0  0  0  0  0  0
  -31.2116  -17.5221   19.6176 O   0  0  0  0  0  0
  -28.5571  -23.9252   21.8827 O   0  0  0  0  0  0
  -31.4610  -12.5963   19.1431 H   0  0  0  0  0  0
  -30.3751  -11.5067   19.9599 H   0  0  0  0  0  0
  -29.7839  -11.7380   17.5200 H   0  0  0  0  0  0
  -29.5957  -13.4628   17.7093 H   0  0  0  0  0  0
  -27.9116  -11.2643   18.9512 H   0  0  0  0  0  0
  -27.3593  -12.4658   17.8185 H   0  0  0  0  0  0
  -27.6219  -14.2466   19.4377 H   0  0  0  0  0  0
  -28.7264  -12.2115   21.4338 H   0  0  0  0  0  0
  -28.4119  -13.8958   21.7793 H   0  0  0  0  0  0
  -25.2746   -9.5735   22.4754 H   0  0  0  0  0  0
  -24.0037   -7.4662   22.7483 H   0  0  0  0  0  0
  -21.0828   -8.8754   19.8955 H   0  0  0  0  0  0
  -22.3666  -10.9674   19.6168 H   0  0  0  0  0  0
  -21.1983   -7.6148   23.9705 H   0  0  0  0  0  0
  -21.1481   -6.0524   25.9070 H   0  0  0  0  0  0
  -22.0603   -2.7609   23.2845 H   0  0  0  0  0  0
  -22.4074  -11.9848   22.4745 H   0  0  0  0  0  0
  -21.1102  -13.1267   22.2678 H   0  0  0  0  0  0
  -24.6853  -15.8678   20.5532 H   0  0  0  0  0  0
  -26.3012  -15.6264   20.1359 H   0  0  0  0  0  0
  -26.7203  -32.5353   23.1043 H   0  0  0  0  0  0
  -25.0084  -33.9656   25.0370 H   0  0  0  0  0  0
  -22.7255  -31.2896   21.3962 H   0  0  0  0  0  0
  -23.3742  -35.9622   23.3296 H   0  0  0  0  0  0
  -24.3584  -36.8913   22.2051 H   0  0  0  0  0  0
  -23.7261  -37.6482   23.6679 H   0  0  0  0  0  0
  -26.1248  -31.5158   20.6134 H   0  0  0  0  0  0
  -26.8533  -30.8001   22.0186 H   0  0  0  0  0  0
  -28.1166  -28.9015   21.2192 H   0  0  0  0  0  0
  -25.9340  -25.8904   19.0072 H   0  0  0  0  0  0
  -23.9818  -27.2917   19.0025 H   0  0  0  0  0  0
  -23.7809  -30.5823   19.4060 H   0  0  0  0  0  0
  -22.7699  -29.2391   19.8494 H   0  0  0  0  0  0
  -25.1308  -36.1884   25.0807 H   0  0  0  0  0  0
  -20.9994  -28.3160   24.1446 H   0  0  0  0  0  0
  -21.6707  -26.7418   22.1232 H   0  0  0  0  0  0
  -20.5726  -26.2212   23.3596 H   0  0  0  0  0  0
  -19.6962  -25.6301   21.1161 H   0  0  0  0  0  0
  -19.6724  -27.3217   20.6747 H   0  0  0  0  0  0
  -17.4240  -26.6566   21.4083 H   0  0  0  0  0  0
  -18.0448  -26.0001   22.9056 H   0  0  0  0  0  0
  -19.7989  -30.7241   24.2228 H   0  0  0  0  0  0
  -17.5064  -31.6219   24.5132 H   0  0  0  0  0  0
  -15.5389  -30.2932   23.7652 H   0  0  0  0  0  0
  -15.8722  -28.0736   22.7090 H   0  0  0  0  0  0
  -24.5872  -30.7109   25.7773 H   0  0  0  0  0  0
  -24.8913  -32.2924   26.4850 H   0  0  0  0  0  0
  -25.8008  -30.8929   27.0228 H   0  0  0  0  0  0
  -26.2974  -29.6706   24.1271 H   0  0  0  0  0  0
  -27.4023  -29.7281   25.4808 H   0  0  0  0  0  0
  -27.8859  -30.4249   23.9531 H   0  0  0  0  0  0
  -27.2608  -33.3651   26.2052 H   0  0  0  0  0  0
  -28.3842  -32.6923   25.0330 H   0  0  0  0  0  0
  -28.0704  -31.8504   26.5432 H   0  0  0  0  0  0
  -28.2592  -38.0099   24.7492 H   0  0  0  0  0  0
  -28.1073  -36.2618   24.6306 H   0  0  0  0  0  0
  -27.2286  -37.1472   25.8865 H   0  0  0  0  0  0
  -20.9375  -29.8840   21.7058 H   0  0  0  0  0  0
  -26.0155  -38.2820   24.1401 H   0  0  0  0  0  0
  -27.7689  -19.5275   23.6822 H   0  0  0  0  0  0
  -28.7811  -17.5281   22.6720 H   0  0  0  0  0  0
  -27.8383  -21.7051   22.6121 H   0  0  0  0  0  0
  -30.0145  -19.9370   19.3072 H   0  0  0  0  0  0
  -27.5759  -24.7067   19.0243 H   0  0  0  0  0  0
  -29.2733  -24.9505   19.0161 H   0  0  0  0  0  0
  -29.0641  -22.3942   19.1889 H   0  0  0  0  0  0
  -28.9846  -15.8281   21.0645 H   0  0  0  0  0  0
  1 25  1  0  0  0
  1 30  2  0  0  0
  1 81  1  0  0  0
  2  3  1  0  0  0
  2 25  1  0  0  0
  2 84  1  0  0  0
  2 85  1  0  0  0
  3  4  1  0  0  0
  3 86  1  0  0  0
  3 87  1  0  0  0
  4  5  1  0  0  0
  4 88  1  0  0  0
  4 89  1  0  0  0
  5  6  1  0  0  0
  5 26  1  0  0  0
  5 90  1  0  0  0
  6 25  1  0  0  0
  6 91  1  0  0  0
  6 92  1  0  0  0
  7  8  2  0  0  0
  7 26  1  0  0  0
  7 29  1  0  0  0
  8  9  1  0  0  0
  8 22  1  0  0  0
  9 10  1  0  0  0
  9 27  2  0  0  0
 10 11  2  0  0  0
 10 15  1  0  0  0
 11 12  1  0  0  0
 11 93  1  0  0  0
 12 13  2  0  0  0
 12 94  1  0  0  0
 13 14  1  0  0  0
 13 31  1  0  0  0
 14 15  2  0  0  0
 14 95  1  0  0  0
 15 96  1  0  0  0
 16 17  2  0  0  0
 16 21  1  0  0  0
 16 31  1  0  0  0
 17 18  1  0  0  0
 17 97  1  0  0  0
 18 19  2  0  0  0
 18 98  1  0  0  0
 19 20  1  0  0  0
 19 24  1  0  0  0
 20 21  2  0  0  0
 20 99  1  0  0  0
 21 23  1  0  0  0
 22 28  1  0  0  0
 22 32  2  0  0  0
 26 27  1  0  0  0
 28100  1  0  0  0
 28101  1  0  0  0
 29102  1  0  0  0
 29103  1  0  0  0
 33 34  1  0  0  0
 33 66  1  0  0  0
 33 70  2  0  0  0
 34 36  1  0  0  0
 34 59  1  0  0  0
 34104  1  0  0  0
 35 44  2  0  0  0
 35 45  1  0  0  0
 35 68  1  0  0  0
 36 56  1  0  0  0
 36105  1  0  0  0
 37 39  1  0  0  0
 37 47  1  0  0  0
 37 66  1  0  0  0
 37106  1  0  0  0
 38 43  2  0  0  0
 38 46  1  0  0  0
 38 47  1  0  0  0
 39 64  1  0  0  0
 39 67  2  0  0  0
 40 52  1  0  0  0
 40 53  2  0  0  0
 40 58  1  0  0  0
 41107  1  0  0  0
 41108  1  0  0  0
 41109  1  0  0  0
 41 48  1  0  0  0
 42 43  1  0  0  0
 42 66  1  0  0  0
 42110  1  0  0  0
 42111  1  0  0  0
 43 44  1  0  0  0
 44112  1  0  0  0
 45 46  2  0  0  0
 45113  1  0  0  0
 46114  1  0  0  0
 47115  1  0  0  0
 47116  1  0  0  0
 48 56  1  0  0  0
 48 65  1  0  0  0
 48117  1  0  0  0
 49 50  1  0  0  0
 49 53  1  0  0  0
 49 64  1  0  0  0
 49118  1  0  0  0
 50 51  1  0  0  0
 50119  1  0  0  0
 50120  1  0  0  0
 51 52  1  0  0  0
 51121  1  0  0  0
 51122  1  0  0  0
 52123  1  0  0  0
 52124  1  0  0  0
 53 54  1  0  0  0
 54 55  2  0  0  0
 54125  1  0  0  0
 55 57  1  0  0  0
 55126  1  0  0  0
 56 69  2  0  0  0
 57 58  2  0  0  0
 57127  1  0  0  0
 58128  1  0  0  0
 59 60  1  0  0  0
 59 61  1  0  0  0
 59 62  1  0  0  0
 60129  1  0  0  0
 60130  1  0  0  0
 60131  1  0  0  0
 61132  1  0  0  0
 61133  1  0  0  0
 61134  1  0  0  0
 62135  1  0  0  0
 62136  1  0  0  0
 62137  1  0  0  0
 63 65  1  0  0  0
 63138  1  0  0  0
 63139  1  0  0  0
 63140  1  0  0  0
 64141  1  0  0  0
 65142  1  0  0  0
 68 79  1  0  0  0
 71 72  2  0  0  0
 71 73  1  0  0  0
 71143  1  0  0  0
 72 75  1  0  0  0
 72144  1  0  0  0
 73 76  2  0  0  0
 73145  1  0  0  0
 74 75  2  0  0  0
 74 76  1  0  0  0
 74146  1  0  0  0
 75 77  1  0  0  0
 76 80  1  0  0  0
 77 81  1  0  0  0
 77 82  2  0  0  0
 78 79  1  0  0  0
 78 80  1  0  0  0
 78 83  2  0  0  0
 79147  1  0  0  0
 79148  1  0  0  0
 80149  1  0  0  0
 81150  1  0  0  0
M  ISO  4   1 100  68 101  79 101  81 100
M  END
> <chiral flag>
0

> <version>
0

> <s_m_source_file>
/data/baiqing/PycharmProjects/Reinvent-master-3.2/result/LINK_invent/BTK/process_docking_weight1_custom_product_contain_oxygen_bond_distance_aromatic_linkinvent_7_9_3/rearranged_h_0087.sdf

> <i_m_source_file_index>
62

> <r_mmod_Potential_Energy-OPLS-2005>
95.8810882568359

> <r_mmod_Stretch_Energy-OPLS-2005>
141.240432739258

> <r_mmod_Bend_Energy-OPLS-2005>
179.76286315918

> <r_mmod_Torsional_Energy-OPLS-2005>
228.920227050781

> <r_mmod_Improper_Torsional_Energy-OPLS-2005>
4.31855773925781

> <r_mmod_Van_der_Waal_Energy-OPLS-2005>
145.365158081055

> <r_mmod_Electrostatic_Energy-OPLS-2005>
-439.885101318359

> <r_mmod_Solvation_Energy-OPLS-2005>
-263.1708984375

> <b_mmod_Minimization_Converged-OPLS-2005>
0

> <r_mmod_RMS_Derivative-OPLS-2005>
2.73876738548279

$$$$
62
                    3D
 Structure written by MMmdl.
137144  0  0  1  0            999 V2000
  -30.0227  -16.3666   20.2760 C   0  0  0  0  0  0
  -30.3488  -13.6403   19.5352 C   0  0  0  0  0  0
  -29.5710  -12.8739   18.3979 C   0  0  0  0  0  0
  -28.2140  -12.3534   18.8785 C   0  0  0  0  0  0
  -27.5778  -13.3942   19.8136 C   0  0  2  0  0  0
  -28.5368  -14.0247   20.8787 C   0  0  0  0  0  0
  -25.2211  -13.8418   20.5910 C   0  0  0  0  0  0
  -24.1682  -13.0452   20.9333 C   0  0  0  0  0  0
  -24.6503  -11.7001   20.8752 C   0  0  0  0  0  0
  -23.9214  -10.4310   21.0358 C   0  0  0  0  0  0
  -24.3713   -9.4219   21.9159 C   0  0  0  0  0  0
  -23.6348   -8.2271   22.0749 C   0  0  0  0  0  0
  -22.4325   -8.0311   21.3544 C   0  0  0  0  0  0
  -21.9992   -9.0291   20.4637 C   0  0  0  0  0  0
  -22.7362  -10.2150   20.3027 C   0  0  0  0  0  0
  -21.6872   -6.0757   22.5278 C   0  0  0  0  0  0
  -21.4028   -6.5652   23.8214 C   0  0  0  0  0  0
  -21.3664   -5.6799   24.9172 C   0  0  0  0  0  0
  -21.6043   -4.3062   24.7219 C   0  0  0  0  0  0
  -21.8817   -3.8159   23.4338 C   0  0  0  0  0  0
  -21.9198   -4.6981   22.3397 C   0  0  0  0  0  0
  -22.7669  -13.5110   21.1938 C   0  0  0  0  0  0
  -22.1663   -4.2165   21.0975 F   0  0  0  0  0  0
  -21.5625   -3.4542   25.7729 F   0  0  0  0  0  0
  -29.5815  -14.8737   20.1787 N   0  0  0  0  0  0
  -26.2784  -12.9928   20.3396 N   0  0  0  0  0  0
  -25.9492  -11.6896   20.5675 N   0  0  0  0  0  0
  -22.0358  -12.8067   22.0488 N   0  0  0  0  0  0
  -25.3661  -15.2175   20.4343 N   0  0  0  0  0  0
  -31.2701  -16.1710   20.2087 O   0  0  0  0  0  0
  -21.6668   -6.8916   21.4247 O   0  0  0  0  0  0
  -22.3317  -14.5398   20.6771 O   0  0  0  0  0  0
  -24.7311  -31.7396   23.1101 C   0  0  0  0  0  0
  -25.9648  -32.4173   23.7833 C   0  0  1  0  0  0
  -27.2524  -26.1953   20.2622 C   0  0  0  0  0  0
  -25.6017  -33.8028   24.1662 N   0  0  0  0  0  0
  -23.5802  -30.3172   21.4762 C   0  0  2  0  0  0
  -25.0426  -28.5485   20.1363 C   0  0  0  0  0  0
  -22.7976  -29.3990   22.4583 C   0  0  0  0  0  0
  -18.0368  -28.1447   22.8429 C   0  0  0  0  0  0
  -24.1497  -36.7028   23.2667 C   0  0  0  0  0  0
  -26.1771  -30.3026   21.4536 C   0  0  0  0  0  0
  -26.2364  -28.8091   20.8170 C   0  0  0  0  0  0
  -27.2972  -27.6780   20.8356 C   0  0  0  0  0  0
  -26.0251  -26.2777   19.5095 C   0  0  0  0  0  0
  -25.0058  -27.3121   19.4574 C   0  0  0  0  0  0
  -23.8622  -29.5648   20.1348 C   0  0  0  0  0  0
  -25.4166  -36.2725   24.0246 C   0  0  1  0  0  0
  -20.6024  -28.3825   23.1054 C   0  0  2  0  0  0
  -20.6807  -26.9439   22.5414 C   0  0  0  0  0  0
  -19.5793  -26.6353   21.5222 C   0  0  0  0  0  0
  -18.1975  -26.7964   22.1610 C   0  0  0  0  0  0
  -19.1646  -28.8972   23.2706 C   0  0  0  0  0  0
  -18.9544  -30.1543   23.8773 C   0  0  0  0  0  0
  -17.6528  -30.6616   24.0539 C   0  0  0  0  0  0
  -25.9175  -34.9128   23.4831 C   0  0  0  0  0  0
  -16.5414  -29.9089   23.6363 C   0  0  0  0  0  0
  -16.7345  -28.6515   23.0375 C   0  0  0  0  0  0
  -26.4671  -31.6428   25.0663 C   0  0  0  0  0  0
  -25.3607  -31.3884   26.1185 C   0  0  0  0  0  0
  -27.0687  -30.2718   24.6928 C   0  0  0  0  0  0
  -27.6022  -32.4414   25.7505 C   0  0  0  0  0  0
  -27.5547  -37.1668   24.8467 C   0  0  0  0  0  0
  -21.4580  -29.2970   22.3320 N   0  0  0  0  0  0
  -26.4250  -37.3541   23.9406 N   0  0  0  0  0  0
  -24.8593  -30.8326   22.0646 N   0  0  0  0  0  0
  -23.4182  -28.7679   23.3164 O   0  0  0  0  0  0
  -28.1793  -24.7645   20.2868 O   0  0  0  0  0  0
  -26.5891  -34.8805   22.4500 O   0  0  0  0  0  0
  -23.6225  -32.0710   23.5731 O   0  0  0  0  0  0
  -28.4183  -21.2750   20.2622 C   0  0  0  0  0  0
  -28.1200  -22.9583   20.2645 C   0  0  0  0  0  0
  -29.4202  -19.6475   20.2898 C   0  0  0  0  0  0
  -29.2729  -17.9285   20.2812 N   0  0  0  0  0  0
  -30.6255  -19.9070   20.3240 O   0  0  0  0  0  0
  -31.2729  -14.0033   19.0844 H   0  0  0  0  0  0
  -30.6912  -12.9418   20.3014 H   0  0  0  0  0  0
  -30.1734  -12.0532   18.0061 H   0  0  0  0  0  0
  -29.4122  -13.5598   17.5647 H   0  0  0  0  0  0
  -28.3726  -11.4241   19.4271 H   0  0  0  0  0  0
  -27.5612  -12.1175   18.0370 H   0  0  0  0  0  0
  -27.3476  -14.2141   19.1311 H   0  0  0  0  0  0
  -28.9549  -13.2718   21.5492 H   0  0  0  0  0  0
  -27.9692  -14.6952   21.5248 H   0  0  0  0  0  0
  -25.2847   -9.5685   22.4754 H   0  0  0  0  0  0
  -24.0036   -7.4668   22.7487 H   0  0  0  0  0  0
  -21.0917   -8.8832   19.8946 H   0  0  0  0  0  0
  -22.3821  -10.9690   19.6138 H   0  0  0  0  0  0
  -21.2028   -7.6161   23.9723 H   0  0  0  0  0  0
  -21.1485   -6.0527   25.9076 H   0  0  0  0  0  0
  -22.0590   -2.7621   23.2833 H   0  0  0  0  0  0
  -22.4031  -11.9760   22.4890 H   0  0  0  0  0  0
  -21.0949  -13.1023   22.2675 H   0  0  0  0  0  0
  -24.5885  -15.8594   20.5440 H   0  0  0  0  0  0
  -26.2104  -15.6668   20.1052 H   0  0  0  0  0  0
  -26.7789  -32.4539   23.0585 H   0  0  0  0  0  0
  -24.9987  -33.8980   24.9700 H   0  0  0  0  0  0
  -22.9352  -31.1666   21.2416 H   0  0  0  0  0  0
  -23.3788  -35.9324   23.3238 H   0  0  0  0  0  0
  -24.3546  -36.8813   22.2100 H   0  0  0  0  0  0
  -23.7235  -37.6152   23.6847 H   0  0  0  0  0  0
  -26.4303  -30.9900   20.6454 H   0  0  0  0  0  0
  -27.0112  -30.3895   22.1360 H   0  0  0  0  0  0
  -28.1879  -27.9087   21.4027 H   0  0  0  0  0  0
  -25.7857  -25.3841   18.9505 H   0  0  0  0  0  0
  -24.1237  -27.0933   18.8713 H   0  0  0  0  0  0
  -24.0783  -30.3019   19.3608 H   0  0  0  0  0  0
  -22.9574  -29.0554   19.7991 H   0  0  0  0  0  0
  -25.1401  -36.1415   25.0733 H   0  0  0  0  0  0
  -21.0086  -28.3487   24.1190 H   0  0  0  0  0  0
  -20.5623  -26.2463   23.3720 H   0  0  0  0  0  0
  -21.6664  -26.7302   22.1264 H   0  0  0  0  0  0
  -19.6939  -25.6231   21.1331 H   0  0  0  0  0  0
  -19.6753  -27.3096   20.6702 H   0  0  0  0  0  0
  -17.4248  -26.6711   21.4009 H   0  0  0  0  0  0
  -18.0343  -26.0136   22.9031 H   0  0  0  0  0  0
  -19.8021  -30.7387   24.2090 H   0  0  0  0  0  0
  -17.5078  -31.6283   24.5167 H   0  0  0  0  0  0
  -15.5410  -30.2953   23.7759 H   0  0  0  0  0  0
  -15.8745  -28.0794   22.7161 H   0  0  0  0  0  0
  -24.5847  -30.7185   25.7464 H   0  0  0  0  0  0
  -24.8745  -32.3148   26.4253 H   0  0  0  0  0  0
  -25.7668  -30.9273   27.0197 H   0  0  0  0  0  0
  -26.3492  -29.6166   24.2012 H   0  0  0  0  0  0
  -27.4005  -29.7379   25.5844 H   0  0  0  0  0  0
  -27.9510  -30.3737   24.0609 H   0  0  0  0  0  0
  -27.2498  -33.3847   26.1690 H   0  0  0  0  0  0
  -28.4023  -32.6766   25.0474 H   0  0  0  0  0  0
  -28.0481  -31.8819   26.5739 H   0  0  0  0  0  0
  -28.2504  -38.0016   24.7512 H   0  0  0  0  0  0
  -28.1101  -36.2530   24.6300 H   0  0  0  0  0  0
  -27.2259  -37.1297   25.8867 H   0  0  0  0  0  0
  -21.0006  -29.8544   21.6239 H   0  0  0  0  0  0
  -26.0032  -38.2566   24.1426 H   0  0  0  0  0  0
  -27.4139  -20.8821   20.2129 H   0  0  0  0  0  0
  -29.1992  -22.9982   20.3104 H   0  0  0  0  0  0
  -28.2804  -17.7454   20.2650 H   0  0  0  0  0  0
  1 25  1  0  0  0
  1 30  2  0  0  0
  1 74  1  0  0  0
  2  3  1  0  0  0
  2 25  1  0  0  0
  2 76  1  0  0  0
  2 77  1  0  0  0
  3  4  1  0  0  0
  3 78  1  0  0  0
  3 79  1  0  0  0
  4  5  1  0  0  0
  4 80  1  0  0  0
  4 81  1  0  0  0
  5  6  1  0  0  0
  5 26  1  0  0  0
  5 82  1  0  0  0
  6 25  1  0  0  0
  6 83  1  0  0  0
  6 84  1  0  0  0
  7  8  2  0  0  0
  7 26  1  0  0  0
  7 29  1  0  0  0
  8  9  1  0  0  0
  8 22  1  0  0  0
  9 10  1  0  0  0
  9 27  2  0  0  0
 10 11  2  0  0  0
 10 15  1  0  0  0
 11 12  1  0  0  0
 11 85  1  0  0  0
 12 13  2  0  0  0
 12 86  1  0  0  0
 13 14  1  0  0  0
 13 31  1  0  0  0
 14 15  2  0  0  0
 14 87  1  0  0  0
 15 88  1  0  0  0
 16 17  2  0  0  0
 16 21  1  0  0  0
 16 31  1  0  0  0
 17 18  1  0  0  0
 17 89  1  0  0  0
 18 19  2  0  0  0
 18 90  1  0  0  0
 19 20  1  0  0  0
 19 24  1  0  0  0
 20 21  2  0  0  0
 20 91  1  0  0  0
 21 23  1  0  0  0
 22 28  1  0  0  0
 22 32  2  0  0  0
 26 27  1  0  0  0
 28 92  1  0  0  0
 28 93  1  0  0  0
 29 94  1  0  0  0
 29 95  1  0  0  0
 33 34  1  0  0  0
 33 66  1  0  0  0
 33 70  2  0  0  0
 34 36  1  0  0  0
 34 59  1  0  0  0
 34 96  1  0  0  0
 35 44  2  0  0  0
 35 45  1  0  0  0
 35 68  1  0  0  0
 36 56  1  0  0  0
 36 97  1  0  0  0
 37 39  1  0  0  0
 37 47  1  0  0  0
 37 66  1  0  0  0
 37 98  1  0  0  0
 38 43  2  0  0  0
 38 46  1  0  0  0
 38 47  1  0  0  0
 39 64  1  0  0  0
 39 67  2  0  0  0
 40 52  1  0  0  0
 40 53  2  0  0  0
 40 58  1  0  0  0
 41 99  1  0  0  0
 41100  1  0  0  0
 41101  1  0  0  0
 41 48  1  0  0  0
 42 43  1  0  0  0
 42 66  1  0  0  0
 42102  1  0  0  0
 42103  1  0  0  0
 43 44  1  0  0  0
 44104  1  0  0  0
 45 46  2  0  0  0
 45105  1  0  0  0
 46106  1  0  0  0
 47107  1  0  0  0
 47108  1  0  0  0
 48 56  1  0  0  0
 48 65  1  0  0  0
 48109  1  0  0  0
 49 50  1  0  0  0
 49 53  1  0  0  0
 49 64  1  0  0  0
 49110  1  0  0  0
 50 51  1  0  0  0
 50111  1  0  0  0
 50112  1  0  0  0
 51 52  1  0  0  0
 51113  1  0  0  0
 51114  1  0  0  0
 52115  1  0  0  0
 52116  1  0  0  0
 53 54  1  0  0  0
 54 55  2  0  0  0
 54117  1  0  0  0
 55 57  1  0  0  0
 55118  1  0  0  0
 56 69  2  0  0  0
 57 58  2  0  0  0
 57119  1  0  0  0
 58120  1  0  0  0
 59 60  1  0  0  0
 59 61  1  0  0  0
 59 62  1  0  0  0
 60121  1  0  0  0
 60122  1  0  0  0
 60123  1  0  0  0
 61124  1  0  0  0
 61125  1  0  0  0
 61126  1  0  0  0
 62127  1  0  0  0
 62128  1  0  0  0
 62129  1  0  0  0
 63 65  1  0  0  0
 63130  1  0  0  0
 63131  1  0  0  0
 63132  1  0  0  0
 64133  1  0  0  0
 65134  1  0  0  0
 68 72  1  0  0  0
 71 72  2  0  0  0
 71 73  1  0  0  0
 71135  1  0  0  0
 72136  1  0  0  0
 73 74  1  0  0  0
 73 75  2  0  0  0
 74137  1  0  0  0
M  ISO  4   1 100  68 101  72 101  74 100
M  END
> <chiral flag>
0

> <version>
0

> <s_m_source_file>
/data/baiqing/PycharmProjects/Reinvent-master-3.2/result/LINK_invent/BTK/process_docking_weight1_custom_product_contain_oxygen_bond_distance_aromatic_linkinvent_7_9_3/rearranged_h_0087.sdf

> <i_m_source_file_index>
63

> <r_mmod_Potential_Energy-OPLS-2005>
5536.701171875

> <r_mmod_Stretch_Energy-OPLS-2005>
2247.86108398438

> <r_mmod_Bend_Energy-OPLS-2005>
1276.73291015625

> <r_mmod_Torsional_Energy-OPLS-2005>
208.950439453125

> <r_mmod_Improper_Torsional_Energy-OPLS-2005>
4.2933144569397

> <r_mmod_Van_der_Waal_Energy-OPLS-2005>
115.79280090332

> <r_mmod_Electrostatic_Energy-OPLS-2005>
-392.346527099609

> <r_mmod_Solvation_Energy-OPLS-2005>
-238.194381713867

> <b_mmod_Minimization_Converged-OPLS-2005>
1

> <r_mmod_RMS_Derivative-OPLS-2005>
0.049935445189476

$$$$
63
                    3D
 Structure written by MMmdl.
157166  0  0  1  0            999 V2000
  -30.6739  -14.5949   20.4599 C   0  0  0  0  0  0
  -30.4396  -12.3380   19.4853 C   0  0  0  0  0  0
  -29.5251  -12.4382   18.2436 C   0  0  0  0  0  0
  -28.0533  -12.2590   18.6633 C   0  0  0  0  0  0
  -27.6500  -13.1826   19.8398 C   0  0  2  0  0  0
  -28.6902  -13.1078   20.9835 C   0  0  0  0  0  0
  -25.2611  -13.8058   20.5554 C   0  0  0  0  0  0
  -24.1866  -13.0391   20.9184 C   0  0  0  0  0  0
  -24.6387  -11.6838   20.8799 C   0  0  0  0  0  0
  -23.9071  -10.4240   21.0456 C   0  0  0  0  0  0
  -24.3615   -9.4150   21.9225 C   0  0  0  0  0  0
  -23.6293   -8.2183   22.0755 C   0  0  0  0  0  0
  -22.4287   -8.0234   21.3520 C   0  0  0  0  0  0
  -21.9932   -9.0223   20.4640 C   0  0  0  0  0  0
  -22.7265  -10.2093   20.3081 C   0  0  0  0  0  0
  -21.6829   -6.0736   22.5295 C   0  0  0  0  0  0
  -21.4008   -6.5648   23.8235 C   0  0  0  0  0  0
  -21.3660   -5.6793   24.9192 C   0  0  0  0  0  0
  -21.6059   -4.3059   24.7242 C   0  0  0  0  0  0
  -21.8819   -3.8157   23.4360 C   0  0  0  0  0  0
  -21.9182   -4.6971   22.3418 C   0  0  0  0  0  0
  -22.7907  -13.5228   21.1894 C   0  0  0  0  0  0
  -22.1643   -4.2158   21.0993 F   0  0  0  0  0  0
  -21.5648   -3.4546   25.7756 F   0  0  0  0  0  0
  -30.0208  -13.3927   20.4257 N   0  0  0  0  0  0
  -26.2982  -12.9158   20.3184 N   0  0  0  0  0  0
  -25.9272  -11.6368   20.5694 N   0  0  0  0  0  0
  -22.0543  -12.8214   22.0443 N   0  0  0  0  0  0
  -25.4344  -15.1759   20.3803 N   0  0  0  0  0  0
  -31.8828  -14.6659   20.2297 O   0  0  0  0  0  0
  -21.6621   -6.8847   21.4229 O   0  0  0  0  0  0
  -22.3599  -14.5542   20.6749 O   0  0  0  0  0  0
  -24.6236  -31.8683   23.2057 C   0  0  0  0  0  0
  -25.9105  -32.4836   23.8419 C   0  0  1  0  0  0
  -27.2301  -27.3585   20.1288 C   0  0  0  0  0  0
  -25.5939  -33.8648   24.2323 N   0  0  0  0  0  0
  -23.4190  -30.4858   21.5475 C   0  0  2  0  0  0
  -24.8691  -28.9366   20.1249 C   0  0  0  0  0  0
  -22.7444  -29.4648   22.4936 C   0  0  0  0  0  0
  -18.0274  -28.1346   22.8556 C   0  0  0  0  0  0
  -24.1477  -36.7331   23.2626 C   0  0  0  0  0  0
  -25.9573  -30.7973   21.3868 C   0  0  0  0  0  0
  -26.0315  -29.4237   20.7419 C   0  0  0  0  0  0
  -27.2206  -28.6411   20.7433 C   0  0  0  0  0  0
  -26.0552  -26.9055   19.4998 C   0  0  0  0  0  0
  -24.8772  -27.6771   19.5031 C   0  0  0  0  0  0
  -23.6399  -29.8185   20.1654 C   0  0  0  0  0  0
  -25.4117  -36.3130   24.0300 C   0  0  1  0  0  0
  -20.5900  -28.3667   23.1276 C   0  0  2  0  0  0
  -20.6750  -26.9372   22.5418 C   0  0  0  0  0  0
  -19.5709  -26.6346   21.5245 C   0  0  0  0  0  0
  -18.1928  -26.7833   22.1790 C   0  0  0  0  0  0
  -19.1543  -28.8847   23.2880 C   0  0  0  0  0  0
  -18.9472  -30.1465   23.8846 C   0  0  0  0  0  0
  -17.6472  -30.6597   24.0482 C   0  0  0  0  0  0
  -25.9044  -34.9494   23.5101 C   0  0  0  0  0  0
  -16.5342  -29.9070   23.6314 C   0  0  0  0  0  0
  -16.7265  -28.6457   23.0390 C   0  0  0  0  0  0
  -26.4446  -31.6614   25.0802 C   0  0  0  0  0  0
  -25.3581  -31.3728   26.1399 C   0  0  0  0  0  0
  -27.0277  -30.3002   24.6338 C   0  0  0  0  0  0
  -27.5996  -32.4309   25.7668 C   0  0  0  0  0  0
  -27.5574  -37.1835   24.8442 C   0  0  0  0  0  0
  -21.4144  -29.3086   22.3678 N   0  0  0  0  0  0
  -26.4309  -37.3810   23.9355 N   0  0  0  0  0  0
  -24.6845  -31.0677   22.1042 N   0  0  0  0  0  0
  -23.4177  -28.8159   23.2983 O   0  0  0  0  0  0
  -28.3487  -26.5483   20.0072 O   0  0  0  0  0  0
  -26.5609  -34.8936   22.4658 O   0  0  0  0  0  0
  -23.5407  -32.1523   23.7367 O   0  0  0  0  0  0
  -28.1490  -19.3693   18.3392 C   0  0  0  0  0  0
  -28.8186  -18.2485   18.8593 C   0  0  0  0  0  0
  -28.1489  -20.5902   19.0363 C   0  0  0  0  0  0
  -29.5162  -19.5637   20.7855 C   0  0  0  0  0  0
  -29.5298  -18.3148   20.0802 C   0  0  0  0  0  0
  -28.8216  -20.7157   20.2738 C   0  0  0  0  0  0
  -27.8389  -24.0982   22.6106 C   0  0  0  0  0  0
  -28.0402  -21.7386   22.2896 C   0  0  0  0  0  0
  -28.4363  -24.3785   21.4280 C   0  0  0  0  0  0
  -27.6149  -22.7459   23.0611 C   0  0  0  0  0  0
  -28.8476  -23.2335   20.5495 C   0  0  0  0  0  0
  -30.2876  -17.0813   20.4850 C   0  0  0  0  0  0
  -29.8210  -15.8020   20.3883 C   0  0  0  0  0  0
  -28.8734  -25.8533   21.1663 C   0  0  0  0  0  0
  -28.6393  -21.9466   21.0350 N   0  0  0  0  0  0
  -29.3769  -23.4169   19.4477 O   0  0  0  0  0  0
  -27.0094  -22.4925   24.2278 O   0  0  0  0  0  0
  -31.4935  -12.4186   19.2041 H   0  0  0  0  0  0
  -30.3383  -11.3568   19.9526 H   0  0  0  0  0  0
  -29.7993  -11.6665   17.5226 H   0  0  0  0  0  0
  -29.6725  -13.3960   17.7451 H   0  0  0  0  0  0
  -27.9383  -11.2188   18.9707 H   0  0  0  0  0  0
  -27.3896  -12.4022   17.8111 H   0  0  0  0  0  0
  -27.6340  -14.1766   19.4059 H   0  0  0  0  0  0
  -28.6945  -12.1140   21.4326 H   0  0  0  0  0  0
  -28.4412  -13.7980   21.7930 H   0  0  0  0  0  0
  -25.2758   -9.5622   22.4807 H   0  0  0  0  0  0
  -24.0003   -7.4579   22.7473 H   0  0  0  0  0  0
  -21.0874   -8.8798   19.8935 H   0  0  0  0  0  0
  -22.3785  -10.9654   19.6202 H   0  0  0  0  0  0
  -21.1992   -7.6164   23.9753 H   0  0  0  0  0  0
  -21.1476   -6.0516   25.9096 H   0  0  0  0  0  0
  -22.0591   -2.7624   23.2869 H   0  0  0  0  0  0
  -22.4153  -11.9847   22.4779 H   0  0  0  0  0  0
  -21.1134  -13.1193   22.2611 H   0  0  0  0  0  0
  -24.6474  -15.8124   20.4261 H   0  0  0  0  0  0
  -26.2719  -15.6053   20.0077 H   0  0  0  0  0  0
  -26.7193  -32.5501   23.1214 H   0  0  0  0  0  0
  -25.0039  -33.9789   25.0430 H   0  0  0  0  0  0
  -22.7137  -31.3070   21.4079 H   0  0  0  0  0  0
  -23.3714  -35.9694   23.3342 H   0  0  0  0  0  0
  -24.3539  -36.8902   22.2028 H   0  0  0  0  0  0
  -23.7235  -37.6546   23.6623 H   0  0  0  0  0  0
  -26.0949  -31.5514   20.6123 H   0  0  0  0  0  0
  -26.8361  -30.8449   22.0190 H   0  0  0  0  0  0
  -28.1286  -29.0098   21.1993 H   0  0  0  0  0  0
  -26.0533  -25.9468   19.0018 H   0  0  0  0  0  0
  -23.9860  -27.2993   19.0194 H   0  0  0  0  0  0
  -23.7681  -30.5942   19.4097 H   0  0  0  0  0  0
  -22.7602  -29.2535   19.8583 H   0  0  0  0  0  0
  -25.1290  -36.2020   25.0793 H   0  0  0  0  0  0
  -20.9974  -28.3227   24.1409 H   0  0  0  0  0  0
  -20.5636  -26.2257   23.3608 H   0  0  0  0  0  0
  -21.6601  -26.7338   22.1183 H   0  0  0  0  0  0
  -19.6880  -25.6262   21.1261 H   0  0  0  0  0  0
  -19.6614  -27.3139   20.6786 H   0  0  0  0  0  0
  -17.4059  -26.6383   21.4394 H   0  0  0  0  0  0
  -18.0575  -26.0076   22.9312 H   0  0  0  0  0  0
  -19.7979  -30.7277   24.2194 H   0  0  0  0  0  0
  -17.5039  -31.6323   24.4975 H   0  0  0  0  0  0
  -15.5333  -30.2967   23.7622 H   0  0  0  0  0  0
  -15.8694  -28.0713   22.7119 H   0  0  0  0  0  0
  -24.5765  -30.7172   25.7538 H   0  0  0  0  0  0
  -24.8801  -32.2904   26.4843 H   0  0  0  0  0  0
  -25.7802  -30.8759   27.0138 H   0  0  0  0  0  0
  -26.2880  -29.6740   24.1369 H   0  0  0  0  0  0
  -27.3819  -29.7315   25.4943 H   0  0  0  0  0  0
  -27.8805  -30.4195   23.9662 H   0  0  0  0  0  0
  -27.2636  -33.3656   26.2181 H   0  0  0  0  0  0
  -28.3958  -32.6724   25.0609 H   0  0  0  0  0  0
  -28.0489  -31.8424   26.5677 H   0  0  0  0  0  0
  -28.2643  -38.0075   24.7440 H   0  0  0  0  0  0
  -28.1012  -36.2623   24.6342 H   0  0  0  0  0  0
  -27.2286  -37.1578   25.8839 H   0  0  0  0  0  0
  -20.9278  -29.8853   21.6949 H   0  0  0  0  0  0
  -26.0207  -38.2895   24.1325 H   0  0  0  0  0  0
  -27.6235  -19.2918   17.3957 H   0  0  0  0  0  0
  -28.8117  -17.3321   18.2828 H   0  0  0  0  0  0
  -27.5909  -21.4198   18.6262 H   0  0  0  0  0  0
  -30.0283  -19.6394   21.7351 H   0  0  0  0  0  0
  -27.6017  -24.9140   23.2794 H   0  0  0  0  0  0
  -27.9090  -20.6989   22.5638 H   0  0  0  0  0  0
  -31.3188  -17.2325   20.7706 H   0  0  0  0  0  0
  -28.7797  -15.6996   20.1617 H   0  0  0  0  0  0
  -28.6692  -26.4529   22.0545 H   0  0  0  0  0  0
  -29.9618  -25.8388   21.0811 H   0  0  0  0  0  0
  -26.7368  -23.3225   24.6022 H   0  0  0  0  0  0
  1 25  1  0  0  0
  1 30  2  0  0  0
  1 83  1  0  0  0
  2  3  1  0  0  0
  2 25  1  0  0  0
  2 88  1  0  0  0
  2 89  1  0  0  0
  3  4  1  0  0  0
  3 90  1  0  0  0
  3 91  1  0  0  0
  4  5  1  0  0  0
  4 92  1  0  0  0
  4 93  1  0  0  0
  5  6  1  0  0  0
  5 26  1  0  0  0
  5 94  1  0  0  0
  6 25  1  0  0  0
  6 95  1  0  0  0
  6 96  1  0  0  0
  7  8  2  0  0  0
  7 26  1  0  0  0
  7 29  1  0  0  0
  8  9  1  0  0  0
  8 22  1  0  0  0
  9 10  1  0  0  0
  9 27  2  0  0  0
 10 11  2  0  0  0
 10 15  1  0  0  0
 11 12  1  0  0  0
 11 97  1  0  0  0
 12 13  2  0  0  0
 12 98  1  0  0  0
 13 14  1  0  0  0
 13 31  1  0  0  0
 14 15  2  0  0  0
 14 99  1  0  0  0
 15100  1  0  0  0
 16 17  2  0  0  0
 16 21  1  0  0  0
 16 31  1  0  0  0
 17 18  1  0  0  0
 17101  1  0  0  0
 18 19  2  0  0  0
 18102  1  0  0  0
 19 20  1  0  0  0
 19 24  1  0  0  0
 20 21  2  0  0  0
 20103  1  0  0  0
 21 23  1  0  0  0
 22 28  1  0  0  0
 22 32  2  0  0  0
 26 27  1  0  0  0
 28104  1  0  0  0
 28105  1  0  0  0
 29106  1  0  0  0
 29107  1  0  0  0
 33 34  1  0  0  0
 33 66  1  0  0  0
 33 70  2  0  0  0
 34 36  1  0  0  0
 34 59  1  0  0  0
 34108  1  0  0  0
 35 44  2  0  0  0
 35 45  1  0  0  0
 35 68  1  0  0  0
 36 56  1  0  0  0
 36109  1  0  0  0
 37 39  1  0  0  0
 37 47  1  0  0  0
 37 66  1  0  0  0
 37110  1  0  0  0
 38 43  2  0  0  0
 38 46  1  0  0  0
 38 47  1  0  0  0
 39 64  1  0  0  0
 39 67  2  0  0  0
 40 52  1  0  0  0
 40 53  2  0  0  0
 40 58  1  0  0  0
 41111  1  0  0  0
 41112  1  0  0  0
 41113  1  0  0  0
 41 48  1  0  0  0
 42 43  1  0  0  0
 42 66  1  0  0  0
 42114  1  0  0  0
 42115  1  0  0  0
 43 44  1  0  0  0
 44116  1  0  0  0
 45 46  2  0  0  0
 45117  1  0  0  0
 46118  1  0  0  0
 47119  1  0  0  0
 47120  1  0  0  0
 48 56  1  0  0  0
 48 65  1  0  0  0
 48121  1  0  0  0
 49 50  1  0  0  0
 49 53  1  0  0  0
 49 64  1  0  0  0
 49122  1  0  0  0
 50 51  1  0  0  0
 50123  1  0  0  0
 50124  1  0  0  0
 51 52  1  0  0  0
 51125  1  0  0  0
 51126  1  0  0  0
 52127  1  0  0  0
 52128  1  0  0  0
 53 54  1  0  0  0
 54 55  2  0  0  0
 54129  1  0  0  0
 55 57  1  0  0  0
 55130  1  0  0  0
 56 69  2  0  0  0
 57 58  2  0  0  0
 57131  1  0  0  0
 58132  1  0  0  0
 59 60  1  0  0  0
 59 61  1  0  0  0
 59 62  1  0  0  0
 60133  1  0  0  0
 60134  1  0  0  0
 60135  1  0  0  0
 61136  1  0  0  0
 61137  1  0  0  0
 61138  1  0  0  0
 62139  1  0  0  0
 62140  1  0  0  0
 62141  1  0  0  0
 63 65  1  0  0  0
 63142  1  0  0  0
 63143  1  0  0  0
 63144  1  0  0  0
 64145  1  0  0  0
 65146  1  0  0  0
 68 84  1  0  0  0
 71 72  2  0  0  0
 71 73  1  0  0  0
 71147  1  0  0  0
 72 75  1  0  0  0
 72148  1  0  0  0
 73 76  2  0  0  0
 73149  1  0  0  0
 74 75  2  0  0  0
 74 76  1  0  0  0
 74150  1  0  0  0
 75 82  1  0  0  0
 76 85  1  0  0  0
 77 79  2  0  0  0
 77 80  1  0  0  0
 77151  1  0  0  0
 78 80  2  0  0  0
 78 85  1  0  0  0
 78152  1  0  0  0
 79 81  1  0  0  0
 79 84  1  0  0  0
 80 87  1  0  0  0
 81 85  1  0  0  0
 81 86  2  0  0  0
 82 83  2  0  0  0
 82153  1  0  0  0
 83154  1  0  0  0
 84155  1  0  0  0
 84156  1  0  0  0
 87157  1  0  0  0
M  ISO  4   1 100  68 101  83 100  84 101
M  END
> <chiral flag>
0

> <version>
0

> <s_m_source_file>
/data/baiqing/PycharmProjects/Reinvent-master-3.2/result/LINK_invent/BTK/process_docking_weight1_custom_product_contain_oxygen_bond_distance_aromatic_linkinvent_7_9_3/rearranged_h_0087.sdf

> <i_m_source_file_index>
64

> <r_mmod_Potential_Energy-OPLS-2005>
171.14111328125

> <r_mmod_Stretch_Energy-OPLS-2005>
69.1224670410156

> <r_mmod_Bend_Energy-OPLS-2005>
128.941848754883

> <r_mmod_Torsional_Energy-OPLS-2005>
274.00390625

> <r_mmod_Improper_Torsional_Energy-OPLS-2005>
14.3114337921143

> <r_mmod_Van_der_Waal_Energy-OPLS-2005>
166.568862915039

> <r_mmod_Electrostatic_Energy-OPLS-2005>
-302.477142333984

> <r_mmod_Solvation_Energy-OPLS-2005>
-222.358581542969

> <b_mmod_Minimization_Converged-OPLS-2005>
0

> <r_mmod_RMS_Derivative-OPLS-2005>
5.87570428848267

$$$$
64
                    3D
 Structure written by MMmdl.
153161  0  0  1  0            999 V2000
  -30.6684  -14.4908   20.5838 C   0  0  0  0  0  0
  -30.4378  -12.3240   19.4122 C   0  0  0  0  0  0
  -29.4971  -12.5119   18.2021 C   0  0  0  0  0  0
  -28.0179  -12.3664   18.6167 C   0  0  0  0  0  0
  -27.6630  -13.2003   19.8764 C   0  0  2  0  0  0
  -28.7072  -12.9609   20.9907 C   0  0  0  0  0  0
  -25.2596  -13.8137   20.5680 C   0  0  0  0  0  0
  -24.1832  -13.0421   20.9140 C   0  0  0  0  0  0
  -24.6385  -11.6888   20.8711 C   0  0  0  0  0  0
  -23.9050  -10.4282   21.0392 C   0  0  0  0  0  0
  -24.3603   -9.4204   21.9175 C   0  0  0  0  0  0
  -23.6280   -8.2240   22.0755 C   0  0  0  0  0  0
  -22.4262   -8.0276   21.3545 C   0  0  0  0  0  0
  -21.9890   -9.0249   20.4649 C   0  0  0  0  0  0
  -22.7219  -10.2126   20.3050 C   0  0  0  0  0  0
  -21.6852   -6.0727   22.5276 C   0  0  0  0  0  0
  -21.4017   -6.5633   23.8208 C   0  0  0  0  0  0
  -21.3658   -5.6790   24.9172 C   0  0  0  0  0  0
  -21.6042   -4.3051   24.7225 C   0  0  0  0  0  0
  -21.8821   -3.8142   23.4347 C   0  0  0  0  0  0
  -21.9194   -4.6956   22.3400 C   0  0  0  0  0  0
  -22.7861  -13.5234   21.1818 C   0  0  0  0  0  0
  -22.1661   -4.2141   21.0976 F   0  0  0  0  0  0
  -21.5626   -3.4536   25.7740 F   0  0  0  0  0  0
  -30.0364  -13.2925   20.4426 N   0  0  0  0  0  0
  -26.3034  -12.9297   20.3378 N   0  0  0  0  0  0
  -25.9315  -11.6462   20.5758 N   0  0  0  0  0  0
  -22.0506  -12.8239   22.0389 N   0  0  0  0  0  0
  -25.4305  -15.1859   20.4168 N   0  0  0  0  0  0
  -31.7986  -14.7144   20.1379 O   0  0  0  0  0  0
  -21.6633   -6.8869   21.4238 O   0  0  0  0  0  0
  -22.3547  -14.5544   20.6679 O   0  0  0  0  0  0
  -24.6152  -31.8672   23.2093 C   0  0  0  0  0  0
  -25.9041  -32.4820   23.8390 C   0  0  1  0  0  0
  -27.2379  -27.4282   20.1047 C   0  0  0  0  0  0
  -25.5893  -33.8617   24.2320 N   0  0  0  0  0  0
  -23.4047  -30.4889   21.5499 C   0  0  2  0  0  0
  -24.8536  -28.9478   20.1229 C   0  0  0  0  0  0
  -22.7415  -29.4652   22.4992 C   0  0  0  0  0  0
  -18.0272  -28.1378   22.8491 C   0  0  0  0  0  0
  -24.1486  -36.7317   23.2639 C   0  0  0  0  0  0
  -25.9337  -30.8296   21.3645 C   0  0  0  0  0  0
  -26.0135  -29.4597   20.7202 C   0  0  0  0  0  0
  -27.2122  -28.7068   20.7094 C   0  0  0  0  0  0
  -26.0636  -26.9274   19.5096 C   0  0  0  0  0  0
  -24.8723  -27.6789   19.5167 C   0  0  0  0  0  0
  -23.6162  -29.8170   20.1666 C   0  0  0  0  0  0
  -25.4106  -36.3108   24.0336 C   0  0  1  0  0  0
  -20.5862  -28.3665   23.1317 C   0  0  2  0  0  0
  -20.6764  -26.9401   22.5418 C   0  0  0  0  0  0
  -19.5744  -26.6386   21.5213 C   0  0  0  0  0  0
  -18.1921  -26.7924   22.1623 C   0  0  0  0  0  0
  -19.1521  -28.8837   23.2903 C   0  0  0  0  0  0
  -18.9451  -30.1443   23.8914 C   0  0  0  0  0  0
  -17.6454  -30.6584   24.0568 C   0  0  0  0  0  0
  -25.9032  -34.9474   23.5126 C   0  0  0  0  0  0
  -16.5344  -29.9089   23.6323 C   0  0  0  0  0  0
  -16.7262  -28.6505   23.0345 C   0  0  0  0  0  0
  -26.4470  -31.6599   25.0717 C   0  0  0  0  0  0
  -25.3741  -31.3711   26.1473 C   0  0  0  0  0  0
  -27.0298  -30.3041   24.6088 C   0  0  0  0  0  0
  -27.6047  -32.4320   25.7476 C   0  0  0  0  0  0
  -27.5578  -37.1813   24.8465 C   0  0  0  0  0  0
  -21.4142  -29.3031   22.3726 N   0  0  0  0  0  0
  -26.4295  -37.3788   23.9403 N   0  0  0  0  0  0
  -24.6693  -31.0765   22.0998 N   0  0  0  0  0  0
  -23.4179  -28.8197   23.3044 O   0  0  0  0  0  0
  -28.3906  -26.6807   20.0190 O   0  0  0  0  0  0
  -26.5599  -34.8927   22.4690 O   0  0  0  0  0  0
  -23.5344  -32.1425   23.7485 O   0  0  0  0  0  0
  -31.2782  -18.9190   21.6987 C   0  0  0  0  0  0
  -31.2609  -17.5191   21.4771 C   0  0  0  0  0  0
  -28.8939  -19.0420   21.2345 C   0  0  0  0  0  0
  -30.0908  -19.6910   21.6088 C   0  0  0  0  0  0
  -30.0438  -16.8647   21.1756 C   0  0  0  0  0  0
  -28.8724  -17.6432   21.0380 C   0  0  0  0  0  0
  -28.9953  -24.4394   20.6577 C   0  0  0  0  0  0
  -28.5940  -25.6985   20.9608 C   0  0  0  0  0  0
  -30.0739  -21.1040   22.0479 C   0  0  0  0  0  0
  -29.3099  -23.4866   21.7229 C   0  0  0  0  0  0
  -29.8873  -15.4478   21.1172 N   0  0  0  0  0  0
  -29.5297  -22.1105   21.3075 N   0  0  0  0  0  0
  -30.6184  -21.3383   23.2478 N   0  3  0  0  0  0
  -29.4293  -23.8023   22.9146 O   0  0  0  0  0  0
  -27.7008  -17.0258   20.7485 F   0  0  0  0  0  0
  -31.4781  -12.4511   19.1070 H   0  0  0  0  0  0
  -30.3634  -11.3080   19.8033 H   0  0  0  0  0  0
  -29.7379  -11.7876   17.4229 H   0  0  0  0  0  0
  -29.6584  -13.4975   17.7622 H   0  0  0  0  0  0
  -27.8303  -11.3095   18.8097 H   0  0  0  0  0  0
  -27.3660  -12.6432   17.7870 H   0  0  0  0  0  0
  -27.7082  -14.2498   19.5853 H   0  0  0  0  0  0
  -28.6924  -11.9158   21.3028 H   0  0  0  0  0  0
  -28.4621  -13.5278   21.8902 H   0  0  0  0  0  0
  -25.2749   -9.5681   22.4745 H   0  0  0  0  0  0
  -23.9989   -7.4635   22.7476 H   0  0  0  0  0  0
  -21.0817   -8.8770   19.8959 H   0  0  0  0  0  0
  -22.3677  -10.9664   19.6159 H   0  0  0  0  0  0
  -21.2014   -7.6144   23.9710 H   0  0  0  0  0  0
  -21.1475   -6.0519   25.9073 H   0  0  0  0  0  0
  -22.0602   -2.7606   23.2851 H   0  0  0  0  0  0
  -22.4113  -11.9896   22.4776 H   0  0  0  0  0  0
  -21.1135  -13.1288   22.2611 H   0  0  0  0  0  0
  -24.6693  -15.8390   20.5606 H   0  0  0  0  0  0
  -26.3073  -15.6514   20.2103 H   0  0  0  0  0  0
  -26.7116  -32.5538   23.1159 H   0  0  0  0  0  0
  -25.0040  -33.9776   25.0464 H   0  0  0  0  0  0
  -22.6939  -31.3055   21.4076 H   0  0  0  0  0  0
  -23.3735  -35.9665   23.3323 H   0  0  0  0  0  0
  -24.3578  -36.8910   22.2049 H   0  0  0  0  0  0
  -23.7258  -37.6537   23.6640 H   0  0  0  0  0  0
  -26.0441  -31.5903   20.5906 H   0  0  0  0  0  0
  -26.8224  -30.8887   21.9809 H   0  0  0  0  0  0
  -28.1136  -29.1019   21.1562 H   0  0  0  0  0  0
  -26.0782  -25.9573   19.0328 H   0  0  0  0  0  0
  -23.9814  -27.2785   19.0524 H   0  0  0  0  0  0
  -23.7282  -30.5891   19.4046 H   0  0  0  0  0  0
  -22.7401  -29.2372   19.8703 H   0  0  0  0  0  0
  -25.1284  -36.1974   25.0830 H   0  0  0  0  0  0
  -20.9949  -28.3232   24.1441 H   0  0  0  0  0  0
  -20.5661  -26.2274   23.3606 H   0  0  0  0  0  0
  -21.6639  -26.7445   22.1213 H   0  0  0  0  0  0
  -19.6906  -25.6300   21.1232 H   0  0  0  0  0  0
  -19.6680  -27.3206   20.6749 H   0  0  0  0  0  0
  -17.4189  -26.6668   21.4028 H   0  0  0  0  0  0
  -18.0324  -26.0062   22.9015 H   0  0  0  0  0  0
  -19.7929  -30.7254   24.2289 H   0  0  0  0  0  0
  -17.5012  -31.6264   24.5169 H   0  0  0  0  0  0
  -15.5346  -30.3000   23.7638 H   0  0  0  0  0  0
  -15.8660  -28.0833   22.7050 H   0  0  0  0  0  0
  -24.5894  -30.7080   25.7813 H   0  0  0  0  0  0
  -24.8960  -32.2873   26.4946 H   0  0  0  0  0  0
  -25.8097  -30.8856   27.0214 H   0  0  0  0  0  0
  -26.2836  -29.6806   24.1147 H   0  0  0  0  0  0
  -27.4079  -29.7273   25.4539 H   0  0  0  0  0  0
  -27.8668  -30.4362   23.9226 H   0  0  0  0  0  0
  -27.2659  -33.3602   26.2092 H   0  0  0  0  0  0
  -28.3832  -32.6912   25.0288 H   0  0  0  0  0  0
  -28.0743  -31.8423   26.5360 H   0  0  0  0  0  0
  -28.2612  -38.0094   24.7491 H   0  0  0  0  0  0
  -28.1055  -36.2625   24.6313 H   0  0  0  0  0  0
  -27.2296  -37.1496   25.8870 H   0  0  0  0  0  0
  -20.9306  -29.8760   21.6951 H   0  0  0  0  0  0
  -26.0185  -38.2870   24.1389 H   0  0  0  0  0  0
  -32.2083  -19.3919   21.9857 H   0  0  0  0  0  0
  -32.1719  -16.9508   21.5992 H   0  0  0  0  0  0
  -27.9665  -19.5934   21.1726 H   0  0  0  0  0  0
  -29.1131  -24.1525   19.6234 H   0  0  0  0  0  0
  -28.4308  -26.0583   21.9691 H   0  0  0  0  0  0
  -28.9538  -15.1317   21.3272 H   0  0  0  0  0  0
  -29.3492  -21.8183   20.3595 H   0  0  0  0  0  0
  -30.9669  -20.5775   23.8098 H   0  0  0  0  0  0
  -30.5295  -22.2631   23.6496 H   0  0  0  0  0  0
  1 25  1  0  0  0
  1 30  2  0  0  0
  1 81  1  0  0  0
  2  3  1  0  0  0
  2 25  1  0  0  0
  2 86  1  0  0  0
  2 87  1  0  0  0
  3  4  1  0  0  0
  3 88  1  0  0  0
  3 89  1  0  0  0
  4  5  1  0  0  0
  4 90  1  0  0  0
  4 91  1  0  0  0
  5  6  1  0  0  0
  5 26  1  0  0  0
  5 92  1  0  0  0
  6 25  1  0  0  0
  6 93  1  0  0  0
  6 94  1  0  0  0
  7  8  2  0  0  0
  7 26  1  0  0  0
  7 29  1  0  0  0
  8  9  1  0  0  0
  8 22  1  0  0  0
  9 10  1  0  0  0
  9 27  2  0  0  0
 10 11  2  0  0  0
 10 15  1  0  0  0
 11 12  1  0  0  0
 11 95  1  0  0  0
 12 13  2  0  0  0
 12 96  1  0  0  0
 13 14  1  0  0  0
 13 31  1  0  0  0
 14 15  2  0  0  0
 14 97  1  0  0  0
 15 98  1  0  0  0
 16 17  2  0  0  0
 16 21  1  0  0  0
 16 31  1  0  0  0
 17 18  1  0  0  0
 17 99  1  0  0  0
 18 19  2  0  0  0
 18100  1  0  0  0
 19 20  1  0  0  0
 19 24  1  0  0  0
 20 21  2  0  0  0
 20101  1  0  0  0
 21 23  1  0  0  0
 22 28  1  0  0  0
 22 32  2  0  0  0
 26 27  1  0  0  0
 28102  1  0  0  0
 28103  1  0  0  0
 29104  1  0  0  0
 29105  1  0  0  0
 33 34  1  0  0  0
 33 66  1  0  0  0
 33 70  2  0  0  0
 34 36  1  0  0  0
 34 59  1  0  0  0
 34106  1  0  0  0
 35 44  2  0  0  0
 35 45  1  0  0  0
 35 68  1  0  0  0
 36 56  1  0  0  0
 36107  1  0  0  0
 37 39  1  0  0  0
 37 47  1  0  0  0
 37 66  1  0  0  0
 37108  1  0  0  0
 38 43  2  0  0  0
 38 46  1  0  0  0
 38 47  1  0  0  0
 39 64  1  0  0  0
 39 67  2  0  0  0
 40 52  1  0  0  0
 40 53  2  0  0  0
 40 58  1  0  0  0
 41109  1  0  0  0
 41110  1  0  0  0
 41111  1  0  0  0
 41 48  1  0  0  0
 42 43  1  0  0  0
 42 66  1  0  0  0
 42112  1  0  0  0
 42113  1  0  0  0
 43 44  1  0  0  0
 44114  1  0  0  0
 45 46  2  0  0  0
 45115  1  0  0  0
 46116  1  0  0  0
 47117  1  0  0  0
 47118  1  0  0  0
 48 56  1  0  0  0
 48 65  1  0  0  0
 48119  1  0  0  0
 49 50  1  0  0  0
 49 53  1  0  0  0
 49 64  1  0  0  0
 49120  1  0  0  0
 50 51  1  0  0  0
 50121  1  0  0  0
 50122  1  0  0  0
 51 52  1  0  0  0
 51123  1  0  0  0
 51124  1  0  0  0
 52125  1  0  0  0
 52126  1  0  0  0
 53 54  1  0  0  0
 54 55  2  0  0  0
 54127  1  0  0  0
 55 57  1  0  0  0
 55128  1  0  0  0
 56 69  2  0  0  0
 57 58  2  0  0  0
 57129  1  0  0  0
 58130  1  0  0  0
 59 60  1  0  0  0
 59 61  1  0  0  0
 59 62  1  0  0  0
 60131  1  0  0  0
 60132  1  0  0  0
 60133  1  0  0  0
 61134  1  0  0  0
 61135  1  0  0  0
 61136  1  0  0  0
 62137  1  0  0  0
 62138  1  0  0  0
 62139  1  0  0  0
 63 65  1  0  0  0
 63140  1  0  0  0
 63141  1  0  0  0
 63142  1  0  0  0
 64143  1  0  0  0
 65144  1  0  0  0
 68 78  1  0  0  0
 71 72  2  0  0  0
 71 74  1  0  0  0
 71145  1  0  0  0
 72 75  1  0  0  0
 72146  1  0  0  0
 73 74  2  0  0  0
 73 76  1  0  0  0
 73147  1  0  0  0
 74 79  1  0  0  0
 75 76  2  0  0  0
 75 81  1  0  0  0
 76 85  1  0  0  0
 77 78  2  0  0  0
 77 80  1  0  0  0
 77148  1  0  0  0
 78149  1  0  0  0
 79 82  1  0  0  0
 79 83  2  0  0  0
 80 82  1  0  0  0
 80 84  2  0  0  0
 81150  1  0  0  0
 82151  1  0  0  0
 83152  1  0  0  0
 83153  1  0  0  0
M  CHG  1  83   1
M  ISO  4   1 100  68 101  78 101  81 100
M  END
> <chiral flag>
0

> <version>
0

> <s_m_source_file>
/data/baiqing/PycharmProjects/Reinvent-master-3.2/result/LINK_invent/BTK/process_docking_weight1_custom_product_contain_oxygen_bond_distance_aromatic_linkinvent_7_9_3/rearranged_h_0087.sdf

> <i_m_source_file_index>
65

> <r_mmod_Potential_Energy-OPLS-2005>
-391.929107666016

> <r_mmod_Stretch_Energy-OPLS-2005>
39.0806159973145

> <r_mmod_Bend_Energy-OPLS-2005>
108.951728820801

> <r_mmod_Torsional_Energy-OPLS-2005>
240.52702331543

> <r_mmod_Improper_Torsional_Energy-OPLS-2005>
5.69613361358643

> <r_mmod_Van_der_Waal_Energy-OPLS-2005>
161.190231323242

> <r_mmod_Electrostatic_Energy-OPLS-2005>
-511.949615478516

> <r_mmod_Solvation_Energy-OPLS-2005>
-448.688903808594

> <b_mmod_Minimization_Converged-OPLS-2005>
0

> <r_mmod_RMS_Derivative-OPLS-2005>
0.629418015480042

$$$$
65
                    3D
 Structure written by MMmdl.
150158  0  0  1  0            999 V2000
  -30.6292  -14.7991   20.4317 C   0  0  0  0  0  0
  -30.4496  -12.4832   19.4838 C   0  0  0  0  0  0
  -29.5082  -12.4453   18.2590 C   0  0  0  0  0  0
  -28.0521  -12.2456   18.7133 C   0  0  0  0  0  0
  -27.6470  -13.2139   19.8505 C   0  0  2  0  0  0
  -28.6918  -13.2164   20.9886 C   0  0  0  0  0  0
  -25.2650  -13.8288   20.5663 C   0  0  0  0  0  0
  -24.1870  -13.0537   20.9225 C   0  0  0  0  0  0
  -24.6388  -11.6990   20.8769 C   0  0  0  0  0  0
  -23.9029  -10.4332   21.0421 C   0  0  0  0  0  0
  -24.3582   -9.4220   21.9174 C   0  0  0  0  0  0
  -23.6280   -8.2249   22.0725 C   0  0  0  0  0  0
  -22.4269   -8.0281   21.3516 C   0  0  0  0  0  0
  -21.9886   -9.0255   20.4643 C   0  0  0  0  0  0
  -22.7208  -10.2159   20.3086 C   0  0  0  0  0  0
  -21.6867   -6.0700   22.5254 C   0  0  0  0  0  0
  -21.4024   -6.5634   23.8166 C   0  0  0  0  0  0
  -21.3661   -5.6818   24.9144 C   0  0  0  0  0  0
  -21.6042   -4.3070   24.7231 C   0  0  0  0  0  0
  -21.8815   -3.8150   23.4363 C   0  0  0  0  0  0
  -21.9183   -4.6938   22.3392 C   0  0  0  0  0  0
  -22.7881  -13.5325   21.1848 C   0  0  0  0  0  0
  -22.1666   -4.2146   21.0964 F   0  0  0  0  0  0
  -21.5613   -3.4537   25.7720 F   0  0  0  0  0  0
  -29.9981  -13.5638   20.4058 N   0  0  0  0  0  0
  -26.2972  -12.9369   20.3335 N   0  0  0  0  0  0
  -25.9308  -11.6540   20.5852 N   0  0  0  0  0  0
  -22.0514  -12.8285   22.0387 N   0  0  0  0  0  0
  -25.4636  -15.2025   20.3987 N   0  0  0  0  0  0
  -31.7701  -14.8964   19.9667 O   0  0  0  0  0  0
  -21.6664   -6.8872   21.4235 O   0  0  0  0  0  0
  -22.3498  -14.5557   20.6648 O   0  0  0  0  0  0
  -24.6262  -31.8530   23.2048 C   0  0  0  0  0  0
  -25.9028  -32.4797   23.8431 C   0  0  1  0  0  0
  -27.2780  -27.2891   20.1565 C   0  0  0  0  0  0
  -25.5834  -33.8603   24.2326 N   0  0  0  0  0  0
  -23.4319  -30.4604   21.5441 C   0  0  2  0  0  0
  -24.8985  -28.9052   20.1348 C   0  0  0  0  0  0
  -22.7512  -29.4532   22.5010 C   0  0  0  0  0  0
  -18.0259  -28.1325   22.8495 C   0  0  0  0  0  0
  -24.1438  -36.7332   23.2639 C   0  0  0  0  0  0
  -25.9692  -30.7843   21.3722 C   0  0  0  0  0  0
  -26.0660  -29.3962   20.7393 C   0  0  0  0  0  0
  -27.2581  -28.6038   20.7386 C   0  0  0  0  0  0
  -26.0923  -26.8727   19.5046 C   0  0  0  0  0  0
  -24.9114  -27.6476   19.5114 C   0  0  0  0  0  0
  -23.6573  -29.7730   20.1731 C   0  0  0  0  0  0
  -25.4060  -36.3139   24.0333 C   0  0  1  0  0  0
  -20.5853  -28.3625   23.1307 C   0  0  2  0  0  0
  -20.6762  -26.9353   22.5420 C   0  0  0  0  0  0
  -19.5758  -26.6325   21.5197 C   0  0  0  0  0  0
  -18.1905  -26.7884   22.1601 C   0  0  0  0  0  0
  -19.1502  -28.8795   23.2890 C   0  0  0  0  0  0
  -18.9451  -30.1437   23.8878 C   0  0  0  0  0  0
  -17.6457  -30.6586   24.0543 C   0  0  0  0  0  0
  -25.8993  -34.9481   23.5135 C   0  0  0  0  0  0
  -16.5357  -29.9058   23.6323 C   0  0  0  0  0  0
  -16.7238  -28.6447   23.0353 C   0  0  0  0  0  0
  -26.4469  -31.6624   25.0785 C   0  0  0  0  0  0
  -25.3734  -31.3790   26.1586 C   0  0  0  0  0  0
  -27.0297  -30.3063   24.6187 C   0  0  0  0  0  0
  -27.6036  -32.4418   25.7504 C   0  0  0  0  0  0
  -27.5578  -37.1815   24.8485 C   0  0  0  0  0  0
  -21.4204  -29.3040   22.3787 N   0  0  0  0  0  0
  -26.4285  -37.3805   23.9434 N   0  0  0  0  0  0
  -24.6959  -31.0490   22.1003 N   0  0  0  0  0  0
  -23.4212  -28.8080   23.3107 O   0  0  0  0  0  0
  -28.3816  -26.4038   20.1986 O   0  0  0  0  0  0
  -26.5543  -34.8908   22.4688 O   0  0  0  0  0  0
  -23.5371  -32.1361   23.7230 O   0  0  0  0  0  0
  -27.9875  -18.4116   18.6452 C   0  0  0  0  0  0
  -28.6388  -17.2895   19.2063 C   0  0  0  0  0  0
  -28.2380  -19.7172   19.1079 C   0  0  0  0  0  0
  -29.8506  -18.7994   20.6837 C   0  0  0  0  0  0
  -29.5431  -17.4131   20.2920 C   0  0  0  0  0  0
  -29.2000  -19.9840   20.1108 C   0  0  0  0  0  0
  -28.9973  -23.9201   20.2272 C   0  0  0  0  0  0
  -28.1670  -25.0136   20.4676 C   0  0  0  0  0  0
  -29.9535  -16.1115   21.0873 C   0  0  0  0  0  0
  -28.5577  -22.4872   20.4423 C   0  0  0  0  0  0
  -29.7679  -16.1182   22.3439 N   0  0  0  0  0  0
  -29.4691  -21.4321   20.4114 N   0  0  0  0  0  0
  -27.3680  -22.2295   20.6498 O   0  0  0  0  0  0
  -31.4718  -12.6292   19.1294 H   0  0  0  0  0  0
  -30.4610  -11.5192   20.0005 H   0  0  0  0  0  0
  -29.7920  -11.6276   17.5946 H   0  0  0  0  0  0
  -29.5991  -13.3575   17.6742 H   0  0  0  0  0  0
  -27.9713  -11.2199   19.0817 H   0  0  0  0  0  0
  -27.3657  -12.3139   17.8722 H   0  0  0  0  0  0
  -27.6318  -14.2095   19.4125 H   0  0  0  0  0  0
  -28.7435  -12.2583   21.5060 H   0  0  0  0  0  0
  -28.3933  -13.9389   21.7451 H   0  0  0  0  0  0
  -25.2723   -9.5715   22.4740 H   0  0  0  0  0  0
  -24.0015   -7.4632   22.7443 H   0  0  0  0  0  0
  -21.0816   -8.8765   19.8948 H   0  0  0  0  0  0
  -22.3622  -10.9685   19.6209 H   0  0  0  0  0  0
  -21.2044   -7.6154   23.9687 H   0  0  0  0  0  0
  -21.1488   -6.0530   25.9044 H   0  0  0  0  0  0
  -22.0599   -2.7615   23.2840 H   0  0  0  0  0  0
  -22.4133  -12.0011   22.4875 H   0  0  0  0  0  0
  -21.1099  -13.1249   22.2530 H   0  0  0  0  0  0
  -24.7687  -15.9085   20.6181 H   0  0  0  0  0  0
  -26.3487  -15.6177   20.1296 H   0  0  0  0  0  0
  -26.7116  -32.5533   23.1233 H   0  0  0  0  0  0
  -25.0285  -33.9814   25.0663 H   0  0  0  0  0  0
  -22.7245  -31.2750   21.3799 H   0  0  0  0  0  0
  -23.3729  -35.9656   23.3280 H   0  0  0  0  0  0
  -24.3614  -36.8979   22.2096 H   0  0  0  0  0  0
  -23.7146  -37.6490   23.6673 H   0  0  0  0  0  0
  -26.0533  -31.5267   20.5765 H   0  0  0  0  0  0
  -26.8665  -30.8900   21.9728 H   0  0  0  0  0  0
  -28.1535  -28.9821   21.2196 H   0  0  0  0  0  0
  -26.0660  -25.9058   19.0254 H   0  0  0  0  0  0
  -24.0182  -27.2580   19.0420 H   0  0  0  0  0  0
  -23.7661  -30.5303   19.3988 H   0  0  0  0  0  0
  -22.7881  -29.1793   19.8925 H   0  0  0  0  0  0
  -25.1191  -36.2086   25.0823 H   0  0  0  0  0  0
  -20.9887  -28.3141   24.1448 H   0  0  0  0  0  0
  -20.5662  -26.2187   23.3598 H   0  0  0  0  0  0
  -21.6630  -26.7392   22.1210 H   0  0  0  0  0  0
  -19.6940  -25.6204   21.1272 H   0  0  0  0  0  0
  -19.6714  -27.3121   20.6720 H   0  0  0  0  0  0
  -17.4194  -26.6611   21.3988 H   0  0  0  0  0  0
  -18.0336  -25.9973   22.8933 H   0  0  0  0  0  0
  -19.7948  -30.7261   24.2213 H   0  0  0  0  0  0
  -17.5010  -31.6258   24.5144 H   0  0  0  0  0  0
  -15.5349  -30.2964   23.7687 H   0  0  0  0  0  0
  -15.8591  -28.0800   22.7055 H   0  0  0  0  0  0
  -24.5854  -30.7108   25.8076 H   0  0  0  0  0  0
  -24.8979  -32.2945   26.5050 H   0  0  0  0  0  0
  -25.8121  -30.9038   27.0358 H   0  0  0  0  0  0
  -26.2876  -29.6825   24.1170 H   0  0  0  0  0  0
  -27.4018  -29.7266   25.4667 H   0  0  0  0  0  0
  -27.8706  -30.4442   23.9382 H   0  0  0  0  0  0
  -27.2696  -33.3810   26.1888 H   0  0  0  0  0  0
  -28.3906  -32.6814   25.0336 H   0  0  0  0  0  0
  -28.0580  -31.8649   26.5566 H   0  0  0  0  0  0
  -28.2574  -38.0118   24.7525 H   0  0  0  0  0  0
  -28.1064  -36.2648   24.6285 H   0  0  0  0  0  0
  -27.2326  -37.1477   25.8893 H   0  0  0  0  0  0
  -20.9377  -29.8866   21.7105 H   0  0  0  0  0  0
  -26.0164  -38.2866   24.1479 H   0  0  0  0  0  0
  -27.2587  -18.2884   17.8515 H   0  0  0  0  0  0
  -28.3662  -16.3212   18.8015 H   0  0  0  0  0  0
  -27.6727  -20.5176   18.6470 H   0  0  0  0  0  0
  -30.5830  -18.9416   21.4690 H   0  0  0  0  0  0
  -29.9798  -24.1144   19.8176 H   0  0  0  0  0  0
  -27.1936  -24.8672   20.9164 H   0  0  0  0  0  0
  -29.3405  -16.9798   22.6615 H   0  0  0  0  0  0
  -30.4418  -21.6863   20.5423 H   0  0  0  0  0  0
  1 25  1  0  0  0
  1 30  2  0  0  0
  1 79  1  0  0  0
  2  3  1  0  0  0
  2 25  1  0  0  0
  2 84  1  0  0  0
  2 85  1  0  0  0
  3  4  1  0  0  0
  3 86  1  0  0  0
  3 87  1  0  0  0
  4  5  1  0  0  0
  4 88  1  0  0  0
  4 89  1  0  0  0
  5  6  1  0  0  0
  5 26  1  0  0  0
  5 90  1  0  0  0
  6 25  1  0  0  0
  6 91  1  0  0  0
  6 92  1  0  0  0
  7  8  2  0  0  0
  7 26  1  0  0  0
  7 29  1  0  0  0
  8  9  1  0  0  0
  8 22  1  0  0  0
  9 10  1  0  0  0
  9 27  2  0  0  0
 10 11  2  0  0  0
 10 15  1  0  0  0
 11 12  1  0  0  0
 11 93  1  0  0  0
 12 13  2  0  0  0
 12 94  1  0  0  0
 13 14  1  0  0  0
 13 31  1  0  0  0
 14 15  2  0  0  0
 14 95  1  0  0  0
 15 96  1  0  0  0
 16 17  2  0  0  0
 16 21  1  0  0  0
 16 31  1  0  0  0
 17 18  1  0  0  0
 17 97  1  0  0  0
 18 19  2  0  0  0
 18 98  1  0  0  0
 19 20  1  0  0  0
 19 24  1  0  0  0
 20 21  2  0  0  0
 20 99  1  0  0  0
 21 23  1  0  0  0
 22 28  1  0  0  0
 22 32  2  0  0  0
 26 27  1  0  0  0
 28100  1  0  0  0
 28101  1  0  0  0
 29102  1  0  0  0
 29103  1  0  0  0
 33 34  1  0  0  0
 33 66  1  0  0  0
 33 70  2  0  0  0
 34 36  1  0  0  0
 34 59  1  0  0  0
 34104  1  0  0  0
 35 44  2  0  0  0
 35 45  1  0  0  0
 35 68  1  0  0  0
 36 56  1  0  0  0
 36105  1  0  0  0
 37 39  1  0  0  0
 37 47  1  0  0  0
 37 66  1  0  0  0
 37106  1  0  0  0
 38 43  2  0  0  0
 38 46  1  0  0  0
 38 47  1  0  0  0
 39 64  1  0  0  0
 39 67  2  0  0  0
 40 52  1  0  0  0
 40 53  2  0  0  0
 40 58  1  0  0  0
 41107  1  0  0  0
 41108  1  0  0  0
 41109  1  0  0  0
 41 48  1  0  0  0
 42 43  1  0  0  0
 42 66  1  0  0  0
 42110  1  0  0  0
 42111  1  0  0  0
 43 44  1  0  0  0
 44112  1  0  0  0
 45 46  2  0  0  0
 45113  1  0  0  0
 46114  1  0  0  0
 47115  1  0  0  0
 47116  1  0  0  0
 48 56  1  0  0  0
 48 65  1  0  0  0
 48117  1  0  0  0
 49 50  1  0  0  0
 49 53  1  0  0  0
 49 64  1  0  0  0
 49118  1  0  0  0
 50 51  1  0  0  0
 50119  1  0  0  0
 50120  1  0  0  0
 51 52  1  0  0  0
 51121  1  0  0  0
 51122  1  0  0  0
 52123  1  0  0  0
 52124  1  0  0  0
 53 54  1  0  0  0
 54 55  2  0  0  0
 54125  1  0  0  0
 55 57  1  0  0  0
 55126  1  0  0  0
 56 69  2  0  0  0
 57 58  2  0  0  0
 57127  1  0  0  0
 58128  1  0  0  0
 59 60  1  0  0  0
 59 61  1  0  0  0
 59 62  1  0  0  0
 60129  1  0  0  0
 60130  1  0  0  0
 60131  1  0  0  0
 61132  1  0  0  0
 61133  1  0  0  0
 61134  1  0  0  0
 62135  1  0  0  0
 62136  1  0  0  0
 62137  1  0  0  0
 63 65  1  0  0  0
 63138  1  0  0  0
 63139  1  0  0  0
 63140  1  0  0  0
 64141  1  0  0  0
 65142  1  0  0  0
 68 78  1  0  0  0
 71 72  2  0  0  0
 71 73  1  0  0  0
 71143  1  0  0  0
 72 75  1  0  0  0
 72144  1  0  0  0
 73 76  2  0  0  0
 73145  1  0  0  0
 74 75  2  0  0  0
 74 76  1  0  0  0
 74146  1  0  0  0
 75 79  1  0  0  0
 76 82  1  0  0  0
 77 78  2  0  0  0
 77 80  1  0  0  0
 77147  1  0  0  0
 78148  1  0  0  0
 79 81  2  0  0  0
 80 82  1  0  0  0
 80 83  2  0  0  0
 81149  1  0  0  0
 82150  1  0  0  0
M  ISO  4   1 100  68 101  78 101  79 100
M  END
> <chiral flag>
0

> <version>
0

> <s_m_source_file>
/data/baiqing/PycharmProjects/Reinvent-master-3.2/result/LINK_invent/BTK/process_docking_weight1_custom_product_contain_oxygen_bond_distance_aromatic_linkinvent_7_9_3/rearranged_h_0087.sdf

> <i_m_source_file_index>
66

> <r_mmod_Potential_Energy-OPLS-2005>
335.663330078125

> <r_mmod_Stretch_Energy-OPLS-2005>
150.949645996094

> <r_mmod_Bend_Energy-OPLS-2005>
172.935897827148

> <r_mmod_Torsional_Energy-OPLS-2005>
258.140197753906

> <r_mmod_Improper_Torsional_Energy-OPLS-2005>
3.46464729309082

> <r_mmod_Van_der_Waal_Energy-OPLS-2005>
135.268173217773

> <r_mmod_Electrostatic_Energy-OPLS-2005>
-260.973663330078

> <r_mmod_Solvation_Energy-OPLS-2005>
-222.660781860352

> <b_mmod_Minimization_Converged-OPLS-2005>
0

> <r_mmod_RMS_Derivative-OPLS-2005>
9.76627063751221

$$$$
66
                    3D
 Structure written by MMmdl.
157165  0  0  1  0            999 V2000
  -30.6293  -14.7153   20.6026 C   0  0  0  0  0  0
  -30.4350  -12.4718   19.4716 C   0  0  0  0  0  0
  -29.5089  -12.5341   18.2354 C   0  0  0  0  0  0
  -28.0372  -12.3412   18.6381 C   0  0  0  0  0  0
  -27.6452  -13.2191   19.8527 C   0  0  2  0  0  0
  -28.6766  -13.1033   20.9917 C   0  0  0  0  0  0
  -25.2545  -13.8158   20.5647 C   0  0  0  0  0  0
  -24.1805  -13.0445   20.9145 C   0  0  0  0  0  0
  -24.6356  -11.6904   20.8695 C   0  0  0  0  0  0
  -23.9010  -10.4293   21.0401 C   0  0  0  0  0  0
  -24.3576   -9.4216   21.9187 C   0  0  0  0  0  0
  -23.6255   -8.2256   22.0767 C   0  0  0  0  0  0
  -22.4244   -8.0266   21.3556 C   0  0  0  0  0  0
  -21.9856   -9.0227   20.4658 C   0  0  0  0  0  0
  -22.7176  -10.2116   20.3058 C   0  0  0  0  0  0
  -21.6843   -6.0702   22.5278 C   0  0  0  0  0  0
  -21.4000   -6.5615   23.8205 C   0  0  0  0  0  0
  -21.3682   -5.6775   24.9177 C   0  0  0  0  0  0
  -21.6055   -4.3036   24.7234 C   0  0  0  0  0  0
  -21.8815   -3.8116   23.4355 C   0  0  0  0  0  0
  -21.9192   -4.6936   22.3408 C   0  0  0  0  0  0
  -22.7850  -13.5272   21.1817 C   0  0  0  0  0  0
  -22.1665   -4.2117   21.0988 F   0  0  0  0  0  0
  -21.5648   -3.4524   25.7748 F   0  0  0  0  0  0
  -29.9921  -13.4931   20.4534 N   0  0  0  0  0  0
  -26.2931  -12.9327   20.3221 N   0  0  0  0  0  0
  -25.9276  -11.6481   20.5677 N   0  0  0  0  0  0
  -22.0470  -12.8297   22.0372 N   0  0  0  0  0  0
  -25.4284  -15.1874   20.4123 N   0  0  0  0  0  0
  -31.7144  -14.9044   20.0423 O   0  0  0  0  0  0
  -21.6632   -6.8854   21.4243 O   0  0  0  0  0  0
  -22.3545  -14.5590   20.6677 O   0  0  0  0  0  0
  -24.6321  -31.8536   23.1968 C   0  0  0  0  0  0
  -25.9157  -32.4741   23.8300 C   0  0  1  0  0  0
  -27.2128  -27.2691   20.1184 C   0  0  0  0  0  0
  -25.5958  -33.8547   24.2227 N   0  0  0  0  0  0
  -23.4292  -30.4758   21.5391 C   0  0  2  0  0  0
  -24.8802  -28.9334   20.0954 C   0  0  0  0  0  0
  -22.7525  -29.4570   22.4877 C   0  0  0  0  0  0
  -18.0315  -28.1389   22.8475 C   0  0  0  0  0  0
  -24.1492  -36.7283   23.2629 C   0  0  0  0  0  0
  -25.9750  -30.7680   21.3786 C   0  0  0  0  0  0
  -26.0504  -29.3933   20.7155 C   0  0  0  0  0  0
  -27.2241  -28.5696   20.7248 C   0  0  0  0  0  0
  -26.0293  -26.8833   19.4578 C   0  0  0  0  0  0
  -24.8757  -27.6876   19.4516 C   0  0  0  0  0  0
  -23.6482  -29.8151   20.1520 C   0  0  0  0  0  0
  -25.4121  -36.3058   24.0310 C   0  0  1  0  0  0
  -20.5902  -28.3696   23.1270 C   0  0  2  0  0  0
  -20.6790  -26.9408   22.5418 C   0  0  0  0  0  0
  -19.5785  -26.6405   21.5197 C   0  0  0  0  0  0
  -18.1956  -26.7951   22.1583 C   0  0  0  0  0  0
  -19.1558  -28.8860   23.2876 C   0  0  0  0  0  0
  -18.9468  -30.1448   23.8904 C   0  0  0  0  0  0
  -17.6471  -30.6578   24.0558 C   0  0  0  0  0  0
  -25.9060  -34.9429   23.5065 C   0  0  0  0  0  0
  -16.5359  -29.9068   23.6327 C   0  0  0  0  0  0
  -16.7301  -28.6497   23.0342 C   0  0  0  0  0  0
  -26.4507  -31.6592   25.0706 C   0  0  0  0  0  0
  -25.3709  -31.3769   26.1404 C   0  0  0  0  0  0
  -27.0328  -30.3006   24.6210 C   0  0  0  0  0  0
  -27.6051  -32.4322   25.7496 C   0  0  0  0  0  0
  -27.5575  -37.1798   24.8458 C   0  0  0  0  0  0
  -21.4225  -29.3037   22.3659 N   0  0  0  0  0  0
  -26.4291  -37.3761   23.9394 N   0  0  0  0  0  0
  -24.6969  -31.0508   22.0939 N   0  0  0  0  0  0
  -23.4229  -28.8092   23.2963 O   0  0  0  0  0  0
  -28.2077  -26.2724   20.2300 O   0  0  0  0  0  0
  -26.5625  -34.8910   22.4629 O   0  0  0  0  0  0
  -23.5475  -32.1346   23.7275 O   0  0  0  0  0  0
  -29.9138  -17.9031   20.0034 C   0  0  0  0  0  0
  -29.6083  -19.3205   19.9002 C   0  0  0  0  0  0
  -29.3428  -17.9634   22.3133 C   0  0  0  0  0  0
  -29.7991  -17.1534   21.2240 C   0  0  0  0  0  0
  -29.1630  -20.0993   21.0165 C   0  0  0  0  0  0
  -29.0404  -19.3562   22.2212 C   0  0  0  0  0  0
  -27.8149  -25.2001   21.0757 C   0  0  0  0  0  0
  -27.9747  -23.8140   21.2261 C   0  0  0  0  0  0
  -28.7500  -22.7428   20.4701 C   0  0  0  0  0  0
  -27.1682  -23.2569   22.4131 C   0  0  0  0  0  0
  -30.1525  -15.2611   22.8609 C   0  0  0  0  0  0
  -28.5826  -20.0112   23.3692 N   0  0  0  0  0  0
  -28.6977  -21.5076   21.1066 N   0  0  0  0  0  0
  -30.0790  -15.6828   21.4457 N   0  0  0  0  0  0
  -29.3509  -22.9098   19.4085 O   0  0  0  0  0  0
  -31.4721  -12.6190   19.1668 H   0  0  0  0  0  0
  -30.4001  -11.4821   19.9293 H   0  0  0  0  0  0
  -29.7993  -11.7764   17.5065 H   0  0  0  0  0  0
  -29.6256  -13.4976   17.7373 H   0  0  0  0  0  0
  -27.8960  -11.2869   18.8780 H   0  0  0  0  0  0
  -27.3805  -12.5512   17.7925 H   0  0  0  0  0  0
  -27.6572  -14.2517   19.5037 H   0  0  0  0  0  0
  -28.7126  -12.0863   21.3864 H   0  0  0  0  0  0
  -28.3553  -13.7284   21.8218 H   0  0  0  0  0  0
  -25.2732   -9.5705   22.4747 H   0  0  0  0  0  0
  -23.9958   -7.4662   22.7496 H   0  0  0  0  0  0
  -21.0784   -8.8735   19.8970 H   0  0  0  0  0  0
  -22.3619  -10.9641   19.6162 H   0  0  0  0  0  0
  -21.1959   -7.6116   23.9696 H   0  0  0  0  0  0
  -21.1530   -6.0517   25.9086 H   0  0  0  0  0  0
  -22.0569   -2.7567   23.2868 H   0  0  0  0  0  0
  -22.4060  -11.9976   22.4803 H   0  0  0  0  0  0
  -21.1119  -13.1397   22.2591 H   0  0  0  0  0  0
  -24.6688  -15.8460   20.5401 H   0  0  0  0  0  0
  -26.2920  -15.6261   20.1177 H   0  0  0  0  0  0
  -26.7208  -32.5388   23.1019 H   0  0  0  0  0  0
  -25.0104  -33.9668   25.0378 H   0  0  0  0  0  0
  -22.7249  -31.2962   21.3940 H   0  0  0  0  0  0
  -23.3745  -35.9623   23.3293 H   0  0  0  0  0  0
  -24.3574  -36.8912   22.2038 H   0  0  0  0  0  0
  -23.7258  -37.6489   23.6665 H   0  0  0  0  0  0
  -26.1113  -31.5298   20.6091 H   0  0  0  0  0  0
  -26.8519  -30.8167   22.0126 H   0  0  0  0  0  0
  -28.1088  -28.8968   21.2522 H   0  0  0  0  0  0
  -25.9819  -25.9120   18.9876 H   0  0  0  0  0  0
  -23.9823  -27.3321   18.9562 H   0  0  0  0  0  0
  -23.7642  -30.5898   19.3934 H   0  0  0  0  0  0
  -22.7691  -29.2415   19.8525 H   0  0  0  0  0  0
  -25.1305  -36.1876   25.0803 H   0  0  0  0  0  0
  -20.9991  -28.3258   24.1395 H   0  0  0  0  0  0
  -20.5670  -26.2277   23.3602 H   0  0  0  0  0  0
  -21.6661  -26.7424   22.1219 H   0  0  0  0  0  0
  -19.6931  -25.6312   21.1222 H   0  0  0  0  0  0
  -19.6759  -27.3207   20.6735 H   0  0  0  0  0  0
  -17.4237  -26.6728   21.3962 H   0  0  0  0  0  0
  -18.0335  -26.0075   22.8955 H   0  0  0  0  0  0
  -19.7930  -30.7282   24.2270 H   0  0  0  0  0  0
  -17.4996  -31.6268   24.5135 H   0  0  0  0  0  0
  -15.5349  -30.2943   23.7646 H   0  0  0  0  0  0
  -15.8715  -28.0812   22.7019 H   0  0  0  0  0  0
  -24.5896  -30.7105   25.7730 H   0  0  0  0  0  0
  -24.8878  -32.2945   26.4787 H   0  0  0  0  0  0
  -25.8002  -30.8976   27.0212 H   0  0  0  0  0  0
  -26.2908  -29.6775   24.1201 H   0  0  0  0  0  0
  -27.3945  -29.7268   25.4752 H   0  0  0  0  0  0
  -27.8827  -30.4265   23.9491 H   0  0  0  0  0  0
  -27.2668  -33.3629   26.2076 H   0  0  0  0  0  0
  -28.3892  -32.6874   25.0348 H   0  0  0  0  0  0
  -28.0690  -31.8433   26.5423 H   0  0  0  0  0  0
  -28.2580  -38.0101   24.7495 H   0  0  0  0  0  0
  -28.1081  -36.2631   24.6301 H   0  0  0  0  0  0
  -27.2290  -37.1463   25.8858 H   0  0  0  0  0  0
  -20.9391  -29.8831   21.6939 H   0  0  0  0  0  0
  -26.0159  -38.2828   24.1416 H   0  0  0  0  0  0
  -30.2394  -17.3892   19.1109 H   0  0  0  0  0  0
  -29.6862  -19.8013   18.9351 H   0  0  0  0  0  0
  -29.1982  -17.5180   23.2847 H   0  0  0  0  0  0
  -27.1820  -25.6509   21.8293 H   0  0  0  0  0  0
  -26.5351  -23.9928   22.9099 H   0  0  0  0  0  0
  -27.8314  -22.8655   23.1839 H   0  0  0  0  0  0
  -26.4907  -22.4632   22.0883 H   0  0  0  0  0  0
  -29.1764  -15.3390   23.3395 H   0  0  0  0  0  0
  -30.8617  -15.8805   23.4119 H   0  0  0  0  0  0
  -30.4833  -14.2290   23.0114 H   0  0  0  0  0  0
  -28.6103  -19.4836   24.2346 H   0  0  0  0  0  0
  -28.8972  -20.9635   23.5165 H   0  0  0  0  0  0
  -28.1648  -21.6120   21.9587 H   0  0  0  0  0  0
  1 25  1  0  0  0
  1 30  2  0  0  0
  1 84  1  0  0  0
  2  3  1  0  0  0
  2 25  1  0  0  0
  2 86  1  0  0  0
  2 87  1  0  0  0
  3  4  1  0  0  0
  3 88  1  0  0  0
  3 89  1  0  0  0
  4  5  1  0  0  0
  4 90  1  0  0  0
  4 91  1  0  0  0
  5  6  1  0  0  0
  5 26  1  0  0  0
  5 92  1  0  0  0
  6 25  1  0  0  0
  6 93  1  0  0  0
  6 94  1  0  0  0
  7  8  2  0  0  0
  7 26  1  0  0  0
  7 29  1  0  0  0
  8  9  1  0  0  0
  8 22  1  0  0  0
  9 10  1  0  0  0
  9 27  2  0  0  0
 10 11  2  0  0  0
 10 15  1  0  0  0
 11 12  1  0  0  0
 11 95  1  0  0  0
 12 13  2  0  0  0
 12 96  1  0  0  0
 13 14  1  0  0  0
 13 31  1  0  0  0
 14 15  2  0  0  0
 14 97  1  0  0  0
 15 98  1  0  0  0
 16 17  2  0  0  0
 16 21  1  0  0  0
 16 31  1  0  0  0
 17 18  1  0  0  0
 17 99  1  0  0  0
 18 19  2  0  0  0
 18100  1  0  0  0
 19 20  1  0  0  0
 19 24  1  0  0  0
 20 21  2  0  0  0
 20101  1  0  0  0
 21 23  1  0  0  0
 22 28  1  0  0  0
 22 32  2  0  0  0
 26 27  1  0  0  0
 28102  1  0  0  0
 28103  1  0  0  0
 29104  1  0  0  0
 29105  1  0  0  0
 33 34  1  0  0  0
 33 66  1  0  0  0
 33 70  2  0  0  0
 34 36  1  0  0  0
 34 59  1  0  0  0
 34106  1  0  0  0
 35 44  2  0  0  0
 35 45  1  0  0  0
 35 68  1  0  0  0
 36 56  1  0  0  0
 36107  1  0  0  0
 37 39  1  0  0  0
 37 47  1  0  0  0
 37 66  1  0  0  0
 37108  1  0  0  0
 38 43  2  0  0  0
 38 46  1  0  0  0
 38 47  1  0  0  0
 39 64  1  0  0  0
 39 67  2  0  0  0
 40 52  1  0  0  0
 40 53  2  0  0  0
 40 58  1  0  0  0
 41109  1  0  0  0
 41110  1  0  0  0
 41111  1  0  0  0
 41 48  1  0  0  0
 42 43  1  0  0  0
 42 66  1  0  0  0
 42112  1  0  0  0
 42113  1  0  0  0
 43 44  1  0  0  0
 44114  1  0  0  0
 45 46  2  0  0  0
 45115  1  0  0  0
 46116  1  0  0  0
 47117  1  0  0  0
 47118  1  0  0  0
 48 56  1  0  0  0
 48 65  1  0  0  0
 48119  1  0  0  0
 49 50  1  0  0  0
 49 53  1  0  0  0
 49 64  1  0  0  0
 49120  1  0  0  0
 50 51  1  0  0  0
 50121  1  0  0  0
 50122  1  0  0  0
 51 52  1  0  0  0
 51123  1  0  0  0
 51124  1  0  0  0
 52125  1  0  0  0
 52126  1  0  0  0
 53 54  1  0  0  0
 54 55  2  0  0  0
 54127  1  0  0  0
 55 57  1  0  0  0
 55128  1  0  0  0
 56 69  2  0  0  0
 57 58  2  0  0  0
 57129  1  0  0  0
 58130  1  0  0  0
 59 60  1  0  0  0
 59 61  1  0  0  0
 59 62  1  0  0  0
 60131  1  0  0  0
 60132  1  0  0  0
 60133  1  0  0  0
 61134  1  0  0  0
 61135  1  0  0  0
 61136  1  0  0  0
 62137  1  0  0  0
 62138  1  0  0  0
 62139  1  0  0  0
 63 65  1  0  0  0
 63140  1  0  0  0
 63141  1  0  0  0
 63142  1  0  0  0
 64143  1  0  0  0
 65144  1  0  0  0
 68 77  1  0  0  0
 71 72  2  0  0  0
 71 74  1  0  0  0
 71145  1  0  0  0
 72 75  1  0  0  0
 72146  1  0  0  0
 73 74  2  0  0  0
 73 76  1  0  0  0
 73147  1  0  0  0
 74 84  1  0  0  0
 75 76  2  0  0  0
 75 83  1  0  0  0
 76 82  1  0  0  0
 77 78  2  0  0  0
 77148  1  0  0  0
 78 79  1  0  0  0
 78 80  1  0  0  0
 79 83  1  0  0  0
 79 85  2  0  0  0
 80149  1  0  0  0
 80150  1  0  0  0
 80151  1  0  0  0
 81 84  1  0  0  0
 81152  1  0  0  0
 81153  1  0  0  0
 81154  1  0  0  0
 82155  1  0  0  0
 82156  1  0  0  0
 83157  1  0  0  0
M  ISO  4   1 100  68 101  77 101  84 100
M  END
> <chiral flag>
0

> <version>
0

> <s_m_source_file>
/data/baiqing/PycharmProjects/Reinvent-master-3.2/result/LINK_invent/BTK/process_docking_weight1_custom_product_contain_oxygen_bond_distance_aromatic_linkinvent_7_9_3/rearranged_h_0087.sdf

> <i_m_source_file_index>
67

> <r_mmod_Potential_Energy-OPLS-2005>
367.497467041016

> <r_mmod_Stretch_Energy-OPLS-2005>
130.205276489258

> <r_mmod_Bend_Energy-OPLS-2005>
287.242614746094

> <r_mmod_Torsional_Energy-OPLS-2005>
307.119079589844

> <r_mmod_Improper_Torsional_Energy-OPLS-2005>
8.09789085388184

> <r_mmod_Van_der_Waal_Energy-OPLS-2005>
171.517196655273

> <r_mmod_Electrostatic_Energy-OPLS-2005>
-408.868011474609

> <r_mmod_Solvation_Energy-OPLS-2005>
-218.02001953125

> <b_mmod_Minimization_Converged-OPLS-2005>
0

> <r_mmod_RMS_Derivative-OPLS-2005>
3.22111439704895

$$$$
67
                    3D
 Structure written by MMmdl.
158167  0  0  1  0            999 V2000
  -30.7919  -14.4247   20.6599 C   0  0  0  0  0  0
  -30.4072  -12.3308   19.4117 C   0  0  0  0  0  0
  -29.4801  -12.5276   18.1981 C   0  0  0  0  0  0
  -28.0063  -12.3618   18.6162 C   0  0  0  0  0  0
  -27.6584  -13.1927   19.8796 C   0  0  2  0  0  0
  -28.7079  -12.9573   20.9958 C   0  0  0  0  0  0
  -25.2556  -13.8101   20.5706 C   0  0  0  0  0  0
  -24.1764  -13.0398   20.9115 C   0  0  0  0  0  0
  -24.6349  -11.6876   20.8716 C   0  0  0  0  0  0
  -23.9035  -10.4270   21.0392 C   0  0  0  0  0  0
  -24.3611   -9.4204   21.9180 C   0  0  0  0  0  0
  -23.6295   -8.2245   22.0764 C   0  0  0  0  0  0
  -22.4273   -8.0280   21.3568 C   0  0  0  0  0  0
  -21.9899   -9.0235   20.4651 C   0  0  0  0  0  0
  -22.7217  -10.2114   20.3035 C   0  0  0  0  0  0
  -21.6852   -6.0735   22.5300 C   0  0  0  0  0  0
  -21.4004   -6.5647   23.8232 C   0  0  0  0  0  0
  -21.3629   -5.6802   24.9193 C   0  0  0  0  0  0
  -21.6045   -4.3065   24.7254 C   0  0  0  0  0  0
  -21.8813   -3.8153   23.4379 C   0  0  0  0  0  0
  -21.9175   -4.6959   22.3431 C   0  0  0  0  0  0
  -22.7803  -13.5207   21.1856 C   0  0  0  0  0  0
  -22.1651   -4.2133   21.1007 F   0  0  0  0  0  0
  -21.5628   -3.4551   25.7768 F   0  0  0  0  0  0
  -30.0207  -13.3135   20.4439 N   0  0  0  0  0  0
  -26.3000  -12.9255   20.3423 N   0  0  0  0  0  0
  -25.9271  -11.6433   20.5764 N   0  0  0  0  0  0
  -22.0484  -12.8157   22.0408 N   0  0  0  0  0  0
  -25.4386  -15.1794   20.4259 N   0  0  0  0  0  0
  -31.8788  -14.5610   20.0985 O   0  0  0  0  0  0
  -21.6655   -6.8864   21.4257 O   0  0  0  0  0  0
  -22.3466  -14.5529   20.6739 O   0  0  0  0  0  0
  -24.6100  -31.8707   23.2152 C   0  0  0  0  0  0
  -25.9012  -32.4844   23.8429 C   0  0  1  0  0  0
  -27.2485  -27.4816   20.0966 C   0  0  0  0  0  0
  -25.5901  -33.8640   24.2372 N   0  0  0  0  0  0
  -23.3958  -30.4956   21.5511 C   0  0  2  0  0  0
  -24.8472  -28.9651   20.1211 C   0  0  0  0  0  0
  -22.7388  -29.4662   22.4983 C   0  0  0  0  0  0
  -18.0261  -28.1389   22.8491 C   0  0  0  0  0  0
  -24.1481  -36.7314   23.2634 C   0  0  0  0  0  0
  -25.9183  -30.8522   21.3605 C   0  0  0  0  0  0
  -26.0018  -29.4857   20.7205 C   0  0  0  0  0  0
  -27.2046  -28.7490   20.7206 C   0  0  0  0  0  0
  -26.0783  -26.9657   19.5054 C   0  0  0  0  0  0
  -24.8760  -27.6973   19.5155 C   0  0  0  0  0  0
  -23.6061  -29.8273   20.1659 C   0  0  0  0  0  0
  -25.4097  -36.3117   24.0345 C   0  0  1  0  0  0
  -20.5845  -28.3657   23.1330 C   0  0  2  0  0  0
  -20.6757  -26.9399   22.5423 C   0  0  0  0  0  0
  -19.5737  -26.6377   21.5224 C   0  0  0  0  0  0
  -18.1904  -26.7941   22.1609 C   0  0  0  0  0  0
  -19.1512  -28.8837   23.2909 C   0  0  0  0  0  0
  -18.9443  -30.1442   23.8925 C   0  0  0  0  0  0
  -17.6452  -30.6599   24.0556 C   0  0  0  0  0  0
  -25.9028  -34.9489   23.5147 C   0  0  0  0  0  0
  -16.5337  -29.9101   23.6335 C   0  0  0  0  0  0
  -16.7250  -28.6516   23.0353 C   0  0  0  0  0  0
  -26.4474  -31.6589   25.0722 C   0  0  0  0  0  0
  -25.3779  -31.3624   26.1493 C   0  0  0  0  0  0
  -27.0294  -30.3058   24.5997 C   0  0  0  0  0  0
  -27.6067  -32.4271   25.7500 C   0  0  0  0  0  0
  -27.5587  -37.1792   24.8455 C   0  0  0  0  0  0
  -21.4118  -29.3044   22.3764 N   0  0  0  0  0  0
  -26.4275  -37.3816   23.9434 N   0  0  0  0  0  0
  -24.6586  -31.0857   22.1026 N   0  0  0  0  0  0
  -23.4188  -28.8194   23.2996 O   0  0  0  0  0  0
  -28.3677  -26.6917   20.0012 O   0  0  0  0  0  0
  -26.5566  -34.8924   22.4690 O   0  0  0  0  0  0
  -23.5311  -32.1421   23.7590 O   0  0  0  0  0  0
  -30.2156  -20.3973   22.8558 C   0  0  0  0  0  0
  -31.3934  -20.4301   20.7262 C   0  0  0  0  0  0
  -30.3581  -21.7960   22.9523 C   0  0  0  0  0  0
  -31.5423  -21.8257   20.8199 C   0  0  0  0  0  0
  -30.6859  -19.7104   21.7128 C   0  0  0  0  0  0
  -30.9748  -22.5186   21.9089 C   0  0  0  0  0  0
  -30.2433  -25.9959   21.2780 C   0  0  0  0  0  0
  -31.5645  -26.1668   21.8419 C   0  0  0  0  0  0
  -29.8675  -24.6011   21.3483 C   0  0  0  0  0  0
  -30.3784  -18.2957   21.4411 C   0  0  0  0  0  0
  -29.5165  -26.9693   20.6918 C   0  0  0  0  0  0
  -29.6122  -17.4651   22.1804 C   0  0  0  0  0  0
  -29.3180  -16.1313   21.6885 C   0  0  0  0  0  0
  -32.0735  -24.7824   22.2003 C   0  0  0  0  0  0
  -30.9178  -23.9347   21.8824 N   0  0  0  0  0  0
  -30.4500  -15.4335   21.4876 N   0  0  0  0  0  0
  -32.2066  -27.2122   21.9886 O   0  0  0  0  0  0
  -28.7958  -24.0844   21.0037 O   0  0  0  0  0  0
  -28.1722  -15.7734   21.4292 O   0  0  0  0  0  0
  -31.4498  -12.4101   19.1037 H   0  0  0  0  0  0
  -30.3116  -11.3183   19.8082 H   0  0  0  0  0  0
  -29.7315  -11.8191   17.4083 H   0  0  0  0  0  0
  -29.6312  -13.5229   17.7765 H   0  0  0  0  0  0
  -27.8296  -11.3011   18.8071 H   0  0  0  0  0  0
  -27.3474  -12.6349   17.7900 H   0  0  0  0  0  0
  -27.7000  -14.2352   19.5665 H   0  0  0  0  0  0
  -28.7087  -11.9039   21.2767 H   0  0  0  0  0  0
  -28.4754  -13.4699   21.9271 H   0  0  0  0  0  0
  -25.2752   -9.5710   22.4748 H   0  0  0  0  0  0
  -24.0003   -7.4633   22.7482 H   0  0  0  0  0  0
  -21.0833   -8.8747   19.8955 H   0  0  0  0  0  0
  -22.3681  -10.9650   19.6137 H   0  0  0  0  0  0
  -21.2021   -7.6160   23.9724 H   0  0  0  0  0  0
  -21.1435   -6.0557   25.9091 H   0  0  0  0  0  0
  -22.0614   -2.7617   23.2902 H   0  0  0  0  0  0
  -22.4083  -11.9756   22.4701 H   0  0  0  0  0  0
  -21.1106  -13.1154   22.2693 H   0  0  0  0  0  0
  -24.7225  -15.8380   20.7096 H   0  0  0  0  0  0
  -26.3814  -15.5506   20.5292 H   0  0  0  0  0  0
  -26.7093  -32.5587   23.1218 H   0  0  0  0  0  0
  -25.0130  -33.9818   25.0573 H   0  0  0  0  0  0
  -22.6815  -31.3090   21.4128 H   0  0  0  0  0  0
  -23.3765  -35.9617   23.3245 H   0  0  0  0  0  0
  -24.3615  -36.8975   22.2057 H   0  0  0  0  0  0
  -23.7184  -37.6489   23.6675 H   0  0  0  0  0  0
  -26.0114  -31.6089   20.5806 H   0  0  0  0  0  0
  -26.8148  -30.9233   21.9647 H   0  0  0  0  0  0
  -28.0808  -29.1651   21.1936 H   0  0  0  0  0  0
  -26.1042  -25.9939   19.0333 H   0  0  0  0  0  0
  -23.9893  -27.2850   19.0530 H   0  0  0  0  0  0
  -23.7143  -30.6014   19.4057 H   0  0  0  0  0  0
  -22.7334  -29.2430   19.8689 H   0  0  0  0  0  0
  -25.1262  -36.1978   25.0844 H   0  0  0  0  0  0
  -20.9925  -28.3208   24.1447 H   0  0  0  0  0  0
  -20.5662  -26.2262   23.3600 H   0  0  0  0  0  0
  -21.6618  -26.7453   22.1185 H   0  0  0  0  0  0
  -19.6883  -25.6282   21.1257 H   0  0  0  0  0  0
  -19.6705  -27.3188   20.6754 H   0  0  0  0  0  0
  -17.4182  -26.6703   21.3995 H   0  0  0  0  0  0
  -18.0281  -26.0085   22.9004 H   0  0  0  0  0  0
  -19.7920  -30.7246   24.2307 H   0  0  0  0  0  0
  -17.5013  -31.6303   24.5116 H   0  0  0  0  0  0
  -15.5341  -30.3019   23.7669 H   0  0  0  0  0  0
  -15.8633  -28.0862   22.7058 H   0  0  0  0  0  0
  -24.5996  -30.6914   25.7838 H   0  0  0  0  0  0
  -24.8921  -32.2738   26.4984 H   0  0  0  0  0  0
  -25.8187  -30.8792   27.0224 H   0  0  0  0  0  0
  -26.2785  -29.6814   24.1128 H   0  0  0  0  0  0
  -27.4212  -29.7281   25.4381 H   0  0  0  0  0  0
  -27.8562  -30.4437   23.9020 H   0  0  0  0  0  0
  -27.2728  -33.3595   26.2067 H   0  0  0  0  0  0
  -28.3922  -32.6761   25.0351 H   0  0  0  0  0  0
  -28.0673  -31.8365   26.5437 H   0  0  0  0  0  0
  -28.2532  -38.0162   24.7614 H   0  0  0  0  0  0
  -28.1147  -36.2699   24.6129 H   0  0  0  0  0  0
  -27.2322  -37.1236   25.8856 H   0  0  0  0  0  0
  -20.9258  -29.8851   21.7075 H   0  0  0  0  0  0
  -26.0156  -38.2869   24.1527 H   0  0  0  0  0  0
  -29.6822  -19.8782   23.6388 H   0  0  0  0  0  0
  -31.7685  -19.9245   19.8470 H   0  0  0  0  0  0
  -29.9329  -22.3146   23.8003 H   0  0  0  0  0  0
  -32.0228  -22.3658   20.0163 H   0  0  0  0  0  0
  -30.7928  -17.9187   20.5160 H   0  0  0  0  0  0
  -29.8427  -27.9950   20.5960 H   0  0  0  0  0  0
  -29.1770  -17.7797   23.1156 H   0  0  0  0  0  0
  -32.3414  -24.7256   23.2547 H   0  0  0  0  0  0
  -32.9348  -24.5184   21.5868 H   0  0  0  0  0  0
  -31.2542  -15.9879   21.7318 H   0  0  0  0  0  0
  1 25  1  0  0  0
  1 30  2  0  0  0
  1 86  1  0  0  0
  2  3  1  0  0  0
  2 25  1  0  0  0
  2 90  1  0  0  0
  2 91  1  0  0  0
  3  4  1  0  0  0
  3 92  1  0  0  0
  3 93  1  0  0  0
  4  5  1  0  0  0
  4 94  1  0  0  0
  4 95  1  0  0  0
  5  6  1  0  0  0
  5 26  1  0  0  0
  5 96  1  0  0  0
  6 25  1  0  0  0
  6 97  1  0  0  0
  6 98  1  0  0  0
  7  8  2  0  0  0
  7 26  1  0  0  0
  7 29  1  0  0  0
  8  9  1  0  0  0
  8 22  1  0  0  0
  9 10  1  0  0  0
  9 27  2  0  0  0
 10 11  2  0  0  0
 10 15  1  0  0  0
 11 12  1  0  0  0
 11 99  1  0  0  0
 12 13  2  0  0  0
 12100  1  0  0  0
 13 14  1  0  0  0
 13 31  1  0  0  0
 14 15  2  0  0  0
 14101  1  0  0  0
 15102  1  0  0  0
 16 17  2  0  0  0
 16 21  1  0  0  0
 16 31  1  0  0  0
 17 18  1  0  0  0
 17103  1  0  0  0
 18 19  2  0  0  0
 18104  1  0  0  0
 19 20  1  0  0  0
 19 24  1  0  0  0
 20 21  2  0  0  0
 20105  1  0  0  0
 21 23  1  0  0  0
 22 28  1  0  0  0
 22 32  2  0  0  0
 26 27  1  0  0  0
 28106  1  0  0  0
 28107  1  0  0  0
 29108  1  0  0  0
 29109  1  0  0  0
 33 34  1  0  0  0
 33 66  1  0  0  0
 33 70  2  0  0  0
 34 36  1  0  0  0
 34 59  1  0  0  0
 34110  1  0  0  0
 35 44  2  0  0  0
 35 45  1  0  0  0
 35 68  1  0  0  0
 36 56  1  0  0  0
 36111  1  0  0  0
 37 39  1  0  0  0
 37 47  1  0  0  0
 37 66  1  0  0  0
 37112  1  0  0  0
 38 43  2  0  0  0
 38 46  1  0  0  0
 38 47  1  0  0  0
 39 64  1  0  0  0
 39 67  2  0  0  0
 40 52  1  0  0  0
 40 53  2  0  0  0
 40 58  1  0  0  0
 41113  1  0  0  0
 41114  1  0  0  0
 41115  1  0  0  0
 41 48  1  0  0  0
 42 43  1  0  0  0
 42 66  1  0  0  0
 42116  1  0  0  0
 42117  1  0  0  0
 43 44  1  0  0  0
 44118  1  0  0  0
 45 46  2  0  0  0
 45119  1  0  0  0
 46120  1  0  0  0
 47121  1  0  0  0
 47122  1  0  0  0
 48 56  1  0  0  0
 48 65  1  0  0  0
 48123  1  0  0  0
 49 50  1  0  0  0
 49 53  1  0  0  0
 49 64  1  0  0  0
 49124  1  0  0  0
 50 51  1  0  0  0
 50125  1  0  0  0
 50126  1  0  0  0
 51 52  1  0  0  0
 51127  1  0  0  0
 51128  1  0  0  0
 52129  1  0  0  0
 52130  1  0  0  0
 53 54  1  0  0  0
 54 55  2  0  0  0
 54131  1  0  0  0
 55 57  1  0  0  0
 55132  1  0  0  0
 56 69  2  0  0  0
 57 58  2  0  0  0
 57133  1  0  0  0
 58134  1  0  0  0
 59 60  1  0  0  0
 59 61  1  0  0  0
 59 62  1  0  0  0
 60135  1  0  0  0
 60136  1  0  0  0
 60137  1  0  0  0
 61138  1  0  0  0
 61139  1  0  0  0
 61140  1  0  0  0
 62141  1  0  0  0
 62142  1  0  0  0
 62143  1  0  0  0
 63 65  1  0  0  0
 63144  1  0  0  0
 63145  1  0  0  0
 63146  1  0  0  0
 64147  1  0  0  0
 65148  1  0  0  0
 68 81  1  0  0  0
 71 73  2  0  0  0
 71 75  1  0  0  0
 71149  1  0  0  0
 72 74  1  0  0  0
 72 75  2  0  0  0
 72150  1  0  0  0
 73 76  1  0  0  0
 73151  1  0  0  0
 74 76  2  0  0  0
 74152  1  0  0  0
 75 80  1  0  0  0
 76 85  1  0  0  0
 77 78  1  0  0  0
 77 79  1  0  0  0
 77 81  2  0  0  0
 78 84  1  0  0  0
 78 87  2  0  0  0
 79 85  1  0  0  0
 79 88  2  0  0  0
 80 82  2  0  0  0
 80153  1  0  0  0
 81154  1  0  0  0
 82 83  1  0  0  0
 82155  1  0  0  0
 83 86  1  0  0  0
 83 89  2  0  0  0
 84 85  1  0  0  0
 84156  1  0  0  0
 84157  1  0  0  0
 86158  1  0  0  0
M  ISO  4   1 100  68 101  81 101  86 100
M  END
> <chiral flag>
0

> <version>
0

> <s_m_source_file>
/data/baiqing/PycharmProjects/Reinvent-master-3.2/result/LINK_invent/BTK/process_docking_weight1_custom_product_contain_oxygen_bond_distance_aromatic_linkinvent_7_9_3/rearranged_h_0087.sdf

> <i_m_source_file_index>
68

> <r_mmod_Potential_Energy-OPLS-2005>
34.5565757751465

> <r_mmod_Stretch_Energy-OPLS-2005>
34.6528015136719

> <r_mmod_Bend_Energy-OPLS-2005>
193.942932128906

> <r_mmod_Torsional_Energy-OPLS-2005>
331.588562011719

> <r_mmod_Improper_Torsional_Energy-OPLS-2005>
7.76954078674316

> <r_mmod_Van_der_Waal_Energy-OPLS-2005>
159.972763061523

> <r_mmod_Electrostatic_Energy-OPLS-2005>
-470.563323974609

> <r_mmod_Solvation_Energy-OPLS-2005>
-233.419479370117

> <b_mmod_Minimization_Converged-OPLS-2005>
0

> <r_mmod_RMS_Derivative-OPLS-2005>
2.82340788841248

$$$$
68
                    3D
 Structure written by MMmdl.
157166  0  0  1  0            999 V2000
  -30.6012  -14.7492   20.5288 C   0  0  0  0  0  0
  -30.4401  -12.4675   19.4757 C   0  0  0  0  0  0
  -29.5171  -12.5219   18.2366 C   0  0  0  0  0  0
  -28.0412  -12.3342   18.6403 C   0  0  0  0  0  0
  -27.6429  -13.2260   19.8438 C   0  0  2  0  0  0
  -28.6798  -13.1359   20.9790 C   0  0  0  0  0  0
  -25.2529  -13.8179   20.5668 C   0  0  0  0  0  0
  -24.1813  -13.0433   20.9188 C   0  0  0  0  0  0
  -24.6395  -11.6909   20.8726 C   0  0  0  0  0  0
  -23.9071  -10.4292   21.0405 C   0  0  0  0  0  0
  -24.3622   -9.4208   21.9185 C   0  0  0  0  0  0
  -23.6294   -8.2243   22.0756 C   0  0  0  0  0  0
  -22.4276   -8.0283   21.3547 C   0  0  0  0  0  0
  -21.9910   -9.0257   20.4649 C   0  0  0  0  0  0
  -22.7240  -10.2134   20.3057 C   0  0  0  0  0  0
  -21.6854   -6.0739   22.5283 C   0  0  0  0  0  0
  -21.4012   -6.5642   23.8217 C   0  0  0  0  0  0
  -21.3658   -5.6793   24.9178 C   0  0  0  0  0  0
  -21.6041   -4.3056   24.7225 C   0  0  0  0  0  0
  -21.8818   -3.8149   23.4347 C   0  0  0  0  0  0
  -21.9191   -4.6966   22.3405 C   0  0  0  0  0  0
  -22.7838  -13.5223   21.1871 C   0  0  0  0  0  0
  -22.1660   -4.2153   21.0982 F   0  0  0  0  0  0
  -21.5626   -3.4540   25.7737 F   0  0  0  0  0  0
  -29.9891  -13.5131   20.4278 N   0  0  0  0  0  0
  -26.2936  -12.9369   20.3205 N   0  0  0  0  0  0
  -25.9316  -11.6520   20.5690 N   0  0  0  0  0  0
  -22.0486  -12.8213   22.0427 N   0  0  0  0  0  0
  -25.4242  -15.1901   20.4112 N   0  0  0  0  0  0
  -31.7572  -14.8520   20.1059 O   0  0  0  0  0  0
  -21.6641   -6.8880   21.4244 O   0  0  0  0  0  0
  -22.3520  -14.5531   20.6725 O   0  0  0  0  0  0
  -24.6310  -31.8550   23.1972 C   0  0  0  0  0  0
  -25.9132  -32.4758   23.8324 C   0  0  1  0  0  0
  -27.2241  -27.2659   20.1414 C   0  0  0  0  0  0
  -25.5932  -33.8559   24.2249 N   0  0  0  0  0  0
  -23.4290  -30.4754   21.5397 C   0  0  2  0  0  0
  -24.8786  -28.9163   20.1155 C   0  0  0  0  0  0
  -22.7505  -29.4600   22.4911 C   0  0  0  0  0  0
  -18.0294  -28.1393   22.8486 C   0  0  0  0  0  0
  -24.1491  -36.7283   23.2641 C   0  0  0  0  0  0
  -25.9737  -30.7700   21.3755 C   0  0  0  0  0  0
  -26.0494  -29.3898   20.7236 C   0  0  0  0  0  0
  -27.2290  -28.5782   20.7219 C   0  0  0  0  0  0
  -26.0334  -26.8511   19.5136 C   0  0  0  0  0  0
  -24.8748  -27.6542   19.4991 C   0  0  0  0  0  0
  -23.6488  -29.8035   20.1578 C   0  0  0  0  0  0
  -25.4115  -36.3070   24.0326 C   0  0  1  0  0  0
  -20.5899  -28.3700   23.1273 C   0  0  2  0  0  0
  -20.6781  -26.9416   22.5414 C   0  0  0  0  0  0
  -19.5756  -26.6385   21.5221 C   0  0  0  0  0  0
  -18.1935  -26.7938   22.1622 C   0  0  0  0  0  0
  -19.1549  -28.8863   23.2877 C   0  0  0  0  0  0
  -18.9468  -30.1465   23.8892 C   0  0  0  0  0  0
  -17.6467  -30.6593   24.0563 C   0  0  0  0  0  0
  -25.9054  -34.9440   23.5090 C   0  0  0  0  0  0
  -16.5358  -29.9088   23.6333 C   0  0  0  0  0  0
  -16.7279  -28.6507   23.0352 C   0  0  0  0  0  0
  -26.4494  -31.6590   25.0717 C   0  0  0  0  0  0
  -25.3716  -31.3749   26.1442 C   0  0  0  0  0  0
  -27.0330  -30.3003   24.6199 C   0  0  0  0  0  0
  -27.6053  -32.4332   25.7480 C   0  0  0  0  0  0
  -27.5579  -37.1796   24.8462 C   0  0  0  0  0  0
  -21.4211  -29.3048   22.3659 N   0  0  0  0  0  0
  -26.4288  -37.3772   23.9411 N   0  0  0  0  0  0
  -24.6970  -31.0519   22.0942 N   0  0  0  0  0  0
  -23.4203  -28.8145   23.3015 O   0  0  0  0  0  0
  -28.3105  -26.3676   20.1263 O   0  0  0  0  0  0
  -26.5627  -34.8917   22.4658 O   0  0  0  0  0  0
  -23.5457  -32.1362   23.7271 O   0  0  0  0  0  0
  -32.1693  -19.1820   20.5464 C   0  0  0  0  0  0
  -31.6870  -17.8667   20.6897 C   0  0  0  0  0  0
  -31.2945  -20.2802   20.4329 C   0  0  0  0  0  0
  -29.4192  -18.7393   20.5826 C   0  0  0  0  0  0
  -27.5783  -22.9017   19.5530 C   0  0  0  0  0  0
  -29.3477  -22.6578   20.8470 C   0  0  0  0  0  0
  -30.3037  -17.5772   20.7103 C   0  0  0  0  0  0
  -28.4287  -23.6376   20.4390 C   0  0  0  0  0  0
  -29.8935  -20.1163   20.4471 C   0  0  0  0  0  0
  -27.9815  -21.5838   19.5001 C   0  0  0  0  0  0
  -29.7996  -16.0262   22.6184 C   0  0  0  0  0  0
  -28.2141  -25.1348   20.9694 C   0  0  0  0  0  0
  -29.8360  -16.0800   21.0764 C   0  0  2  0  0  0
  -29.0977  -21.3641   20.2967 N   0  0  0  0  0  0
  -27.4341  -20.5637   18.7862 O   0  0  0  0  0  0
  -31.4797  -12.6001   19.1726 H   0  0  0  0  0  0
  -30.3944  -11.4838   19.9456 H   0  0  0  0  0  0
  -29.8076  -11.7560   17.5162 H   0  0  0  0  0  0
  -29.6401  -13.4807   17.7309 H   0  0  0  0  0  0
  -27.8991  -11.2836   18.8968 H   0  0  0  0  0  0
  -27.3870  -12.5313   17.7903 H   0  0  0  0  0  0
  -27.6446  -14.2515   19.4749 H   0  0  0  0  0  0
  -28.7175  -12.1257   21.3893 H   0  0  0  0  0  0
  -28.3707  -13.7783   21.7992 H   0  0  0  0  0  0
  -25.2770   -9.5686   22.4754 H   0  0  0  0  0  0
  -24.0009   -7.4635   22.7475 H   0  0  0  0  0  0
  -21.0841   -8.8774   19.8956 H   0  0  0  0  0  0
  -22.3701  -10.9672   19.6165 H   0  0  0  0  0  0
  -21.2005   -7.6151   23.9721 H   0  0  0  0  0  0
  -21.1477   -6.0524   25.9080 H   0  0  0  0  0  0
  -22.0593   -2.7611   23.2846 H   0  0  0  0  0  0
  -22.4099  -11.9870   22.4811 H   0  0  0  0  0  0
  -21.1107  -13.1240   22.2642 H   0  0  0  0  0  0
  -24.6594  -15.8461   20.5279 H   0  0  0  0  0  0
  -26.2755  -15.6304   20.0860 H   0  0  0  0  0  0
  -26.7198  -32.5411   23.1067 H   0  0  0  0  0  0
  -25.0089  -33.9698   25.0402 H   0  0  0  0  0  0
  -22.7259  -31.2974   21.3896 H   0  0  0  0  0  0
  -23.3759  -35.9612   23.3299 H   0  0  0  0  0  0
  -24.3581  -36.8908   22.2057 H   0  0  0  0  0  0
  -23.7239  -37.6479   23.6668 H   0  0  0  0  0  0
  -26.1094  -31.5281   20.6027 H   0  0  0  0  0  0
  -26.8527  -30.8234   22.0062 H   0  0  0  0  0  0
  -28.1296  -28.9395   21.1977 H   0  0  0  0  0  0
  -25.9974  -25.8792   19.0423 H   0  0  0  0  0  0
  -23.9788  -27.2846   19.0190 H   0  0  0  0  0  0
  -23.7726  -30.5764   19.3983 H   0  0  0  0  0  0
  -22.7688  -29.2340   19.8535 H   0  0  0  0  0  0
  -25.1300  -36.1912   25.0820 H   0  0  0  0  0  0
  -20.9990  -28.3279   24.1393 H   0  0  0  0  0  0
  -20.5684  -26.2312   23.3621 H   0  0  0  0  0  0
  -21.6649  -26.7440   22.1207 H   0  0  0  0  0  0
  -19.6917  -25.6294   21.1254 H   0  0  0  0  0  0
  -19.6699  -27.3193   20.6748 H   0  0  0  0  0  0
  -17.4210  -26.6696   21.4019 H   0  0  0  0  0  0
  -18.0320  -26.0079   22.9014 H   0  0  0  0  0  0
  -19.7944  -30.7287   24.2256 H   0  0  0  0  0  0
  -17.5019  -31.6271   24.5171 H   0  0  0  0  0  0
  -15.5359  -30.2987   23.7666 H   0  0  0  0  0  0
  -15.8678  -28.0826   22.7068 H   0  0  0  0  0  0
  -24.5912  -30.7064   25.7789 H   0  0  0  0  0  0
  -24.8881  -32.2920   26.4821 H   0  0  0  0  0  0
  -25.8039  -30.8977   27.0248 H   0  0  0  0  0  0
  -26.2901  -29.6763   24.1215 H   0  0  0  0  0  0
  -27.4000  -29.7258   25.4715 H   0  0  0  0  0  0
  -27.8788  -30.4277   23.9438 H   0  0  0  0  0  0
  -27.2668  -33.3651   26.2017 H   0  0  0  0  0  0
  -28.3873  -32.6861   25.0310 H   0  0  0  0  0  0
  -28.0703  -31.8482   26.5423 H   0  0  0  0  0  0
  -28.2597  -38.0095   24.7510 H   0  0  0  0  0  0
  -28.1074  -36.2626   24.6279 H   0  0  0  0  0  0
  -27.2300  -37.1428   25.8866 H   0  0  0  0  0  0
  -20.9402  -29.8762   21.6853 H   0  0  0  0  0  0
  -26.0166  -38.2844   24.1421 H   0  0  0  0  0  0
  -33.2365  -19.3547   20.5438 H   0  0  0  0  0  0
  -32.4135  -17.0799   20.8300 H   0  0  0  0  0  0
  -31.7180  -21.2689   20.3270 H   0  0  0  0  0  0
  -28.3510  -18.5795   20.6219 H   0  0  0  0  0  0
  -26.7159  -23.3015   19.0368 H   0  0  0  0  0  0
  -30.1736  -22.7633   21.5374 H   0  0  0  0  0  0
  -29.0583  -16.7218   23.0128 H   0  0  0  0  0  0
  -30.7663  -16.3060   23.0383 H   0  0  0  0  0  0
  -29.5637  -15.0425   23.0184 H   0  0  0  0  0  0
  -28.9327  -25.2753   21.7772 H   0  0  0  0  0  0
  -27.2440  -25.1341   21.4689 H   0  0  0  0  0  0
  -28.8126  -15.9954   20.7116 H   0  0  0  0  0  0
  -26.6774  -20.9081   18.3221 H   0  0  0  0  0  0
  1 25  1  0  0  0
  1 30  2  0  0  0
  1 83  1  0  0  0
  2  3  1  0  0  0
  2 25  1  0  0  0
  2 86  1  0  0  0
  2 87  1  0  0  0
  3  4  1  0  0  0
  3 88  1  0  0  0
  3 89  1  0  0  0
  4  5  1  0  0  0
  4 90  1  0  0  0
  4 91  1  0  0  0
  5  6  1  0  0  0
  5 26  1  0  0  0
  5 92  1  0  0  0
  6 25  1  0  0  0
  6 93  1  0  0  0
  6 94  1  0  0  0
  7  8  2  0  0  0
  7 26  1  0  0  0
  7 29  1  0  0  0
  8  9  1  0  0  0
  8 22  1  0  0  0
  9 10  1  0  0  0
  9 27  2  0  0  0
 10 11  2  0  0  0
 10 15  1  0  0  0
 11 12  1  0  0  0
 11 95  1  0  0  0
 12 13  2  0  0  0
 12 96  1  0  0  0
 13 14  1  0  0  0
 13 31  1  0  0  0
 14 15  2  0  0  0
 14 97  1  0  0  0
 15 98  1  0  0  0
 16 17  2  0  0  0
 16 21  1  0  0  0
 16 31  1  0  0  0
 17 18  1  0  0  0
 17 99  1  0  0  0
 18 19  2  0  0  0
 18100  1  0  0  0
 19 20  1  0  0  0
 19 24  1  0  0  0
 20 21  2  0  0  0
 20101  1  0  0  0
 21 23  1  0  0  0
 22 28  1  0  0  0
 22 32  2  0  0  0
 26 27  1  0  0  0
 28102  1  0  0  0
 28103  1  0  0  0
 29104  1  0  0  0
 29105  1  0  0  0
 33 34  1  0  0  0
 33 66  1  0  0  0
 33 70  2  0  0  0
 34 36  1  0  0  0
 34 59  1  0  0  0
 34106  1  0  0  0
 35 44  2  0  0  0
 35 45  1  0  0  0
 35 68  1  0  0  0
 36 56  1  0  0  0
 36107  1  0  0  0
 37 39  1  0  0  0
 37 47  1  0  0  0
 37 66  1  0  0  0
 37108  1  0  0  0
 38 43  2  0  0  0
 38 46  1  0  0  0
 38 47  1  0  0  0
 39 64  1  0  0  0
 39 67  2  0  0  0
 40 52  1  0  0  0
 40 53  2  0  0  0
 40 58  1  0  0  0
 41109  1  0  0  0
 41110  1  0  0  0
 41111  1  0  0  0
 41 48  1  0  0  0
 42 43  1  0  0  0
 42 66  1  0  0  0
 42112  1  0  0  0
 42113  1  0  0  0
 43 44  1  0  0  0
 44114  1  0  0  0
 45 46  2  0  0  0
 45115  1  0  0  0
 46116  1  0  0  0
 47117  1  0  0  0
 47118  1  0  0  0
 48 56  1  0  0  0
 48 65  1  0  0  0
 48119  1  0  0  0
 49 50  1  0  0  0
 49 53  1  0  0  0
 49 64  1  0  0  0
 49120  1  0  0  0
 50 51  1  0  0  0
 50121  1  0  0  0
 50122  1  0  0  0
 51 52  1  0  0  0
 51123  1  0  0  0
 51124  1  0  0  0
 52125  1  0  0  0
 52126  1  0  0  0
 53 54  1  0  0  0
 54 55  2  0  0  0
 54127  1  0  0  0
 55 57  1  0  0  0
 55128  1  0  0  0
 56 69  2  0  0  0
 57 58  2  0  0  0
 57129  1  0  0  0
 58130  1  0  0  0
 59 60  1  0  0  0
 59 61  1  0  0  0
 59 62  1  0  0  0
 60131  1  0  0  0
 60132  1  0  0  0
 60133  1  0  0  0
 61134  1  0  0  0
 61135  1  0  0  0
 61136  1  0  0  0
 62137  1  0  0  0
 62138  1  0  0  0
 62139  1  0  0  0
 63 65  1  0  0  0
 63140  1  0  0  0
 63141  1  0  0  0
 63142  1  0  0  0
 64143  1  0  0  0
 65144  1  0  0  0
 68 82  1  0  0  0
 71 72  2  0  0  0
 71 73  1  0  0  0
 71145  1  0  0  0
 72 77  1  0  0  0
 72146  1  0  0  0
 73 79  2  0  0  0
 73147  1  0  0  0
 74 77  2  0  0  0
 74 79  1  0  0  0
 74148  1  0  0  0
 75 78  1  0  0  0
 75 80  2  0  0  0
 75149  1  0  0  0
 76 78  2  0  0  0
 76 84  1  0  0  0
 76150  1  0  0  0
 77 83  1  0  0  0
 78 82  1  0  0  0
 79 84  1  0  0  0
 80 84  1  0  0  0
 80 85  1  0  0  0
 81151  1  0  0  0
 81152  1  0  0  0
 81153  1  0  0  0
 81 83  1  0  0  0
 82154  1  0  0  0
 82155  1  0  0  0
 83156  1  0  0  0
 85157  1  0  0  0
M  ISO  4   1 100  68 101  82 101  83 100
M  END
> <chiral flag>
0

> <version>
0

> <s_m_source_file>
/data/baiqing/PycharmProjects/Reinvent-master-3.2/result/LINK_invent/BTK/process_docking_weight1_custom_product_contain_oxygen_bond_distance_aromatic_linkinvent_7_9_3/rearranged_h_0087.sdf

> <i_m_source_file_index>
69

> <r_mmod_Potential_Energy-OPLS-2005>
252.777893066406

> <r_mmod_Stretch_Energy-OPLS-2005>
130.579086303711

> <r_mmod_Bend_Energy-OPLS-2005>
172.627136230469

> <r_mmod_Torsional_Energy-OPLS-2005>
227.548980712891

> <r_mmod_Improper_Torsional_Energy-OPLS-2005>
4.5501880645752

> <r_mmod_Van_der_Waal_Energy-OPLS-2005>
129.912536621094

> <r_mmod_Electrostatic_Energy-OPLS-2005>
-288.137390136719

> <r_mmod_Solvation_Energy-OPLS-2005>
-205.062957763672

> <b_mmod_Minimization_Converged-OPLS-2005>
0

> <r_mmod_RMS_Derivative-OPLS-2005>
0.745197594165802

$$$$
69
                    3D
 Structure written by MMmdl.
155164  0  0  1  0            999 V2000
  -30.3067  -13.9991   21.1358 C   0  0  0  0  0  0
  -30.7202  -12.4547   19.1402 C   0  0  0  0  0  0
  -29.7156  -12.5938   17.9077 C   0  0  0  0  0  0
  -28.1682  -12.6067   18.1848 C   0  0  0  0  0  0
  -28.0534  -13.3034   19.5148 C   0  0  2  0  0  0
  -28.8758  -12.2963   20.3988 C   0  0  0  0  0  0
  -25.9912  -14.3243   20.2368 C   0  0  0  0  0  0
  -24.4053  -13.6809   21.1365 C   0  0  0  0  0  0
  -24.3727  -12.3904   21.6006 C   0  0  0  0  0  0
  -23.8353  -10.8710   21.2847 C   0  0  0  0  0  0
  -24.3161   -9.7417   22.0440 C   0  0  0  0  0  0
  -23.6876   -8.4527   22.0886 C   0  0  0  0  0  0
  -22.5108   -8.1852   21.3512 C   0  0  0  0  0  0
  -22.1005   -9.2162   20.4690 C   0  0  0  0  0  0
  -22.7486  -10.4977   20.4239 C   0  0  0  0  0  0
  -21.7509   -6.1450   22.4993 C   0  0  0  0  0  0
  -21.4501   -6.6121   23.8001 C   0  0  0  0  0  0
  -21.3795   -5.7154   24.8904 C   0  0  0  0  0  0
  -21.6027   -4.3385   24.6947 C   0  0  0  0  0  0
  -21.8753   -3.8589   23.4019 C   0  0  0  0  0  0
  -21.9396   -4.7525   22.3136 C   0  0  0  0  0  0
  -22.7604  -14.0032   21.3338 C   0  0  0  0  0  0
  -22.1776   -4.2577   21.0749 F   0  0  0  0  0  0
  -21.5490   -3.4790   25.7416 F   0  0  0  0  0  0
  -30.1328  -12.8750   20.4236 N   0  0  0  0  0  0
  -26.7041  -13.7968   20.0040 N   0  0  0  0  0  0
  -25.0932  -13.5180   20.9370 N   0  0  0  0  0  0
  -21.9896  -13.1927   22.0923 N   0  0  0  0  0  0
  -26.6620  -15.4293   19.5407 N   0  0  0  0  0  0
  -31.2473  -14.7454   20.7671 O   0  0  0  0  0  0
  -21.7881   -6.9899   21.3960 O   0  0  0  0  0  0
  -22.1658  -14.9022   20.7612 O   0  0  0  0  0  0
  -24.7056  -31.7714   23.1439 C   0  0  0  0  0  0
  -25.9582  -32.4275   23.7983 C   0  0  1  0  0  0
  -26.6232  -26.2223   20.3272 C   0  0  0  0  0  0
  -25.6082  -33.8147   24.1806 N   0  0  0  0  0  0
  -23.5139  -30.4037   21.5064 C   0  0  2  0  0  0
  -24.8748  -28.7066   20.0704 C   0  0  0  0  0  0
  -22.7746  -29.4216   22.4577 C   0  0  0  0  0  0
  -18.0316  -28.1429   22.8434 C   0  0  0  0  0  0
  -24.1486  -36.7061   23.2644 C   0  0  0  0  0  0
  -26.0926  -30.3232   21.4836 C   0  0  0  0  0  0
  -26.0371  -28.8620   20.8241 C   0  0  0  0  0  0
  -26.9186  -27.6317   20.9336 C   0  0  0  0  0  0
  -25.6250  -26.4334   19.3717 C   0  0  0  0  0  0
  -24.7533  -27.5477   19.2969 C   0  0  0  0  0  0
  -23.7572  -29.7563   20.1135 C   0  0  0  0  0  0
  -25.4153  -36.2796   24.0250 C   0  0  1  0  0  0
  -20.5953  -28.3781   23.1086 C   0  0  2  0  0  0
  -20.6786  -26.9428   22.5390 C   0  0  0  0  0  0
  -19.5767  -26.6353   21.5206 C   0  0  0  0  0  0
  -18.1943  -26.7954   22.1604 C   0  0  0  0  0  0
  -19.1589  -28.8926   23.2745 C   0  0  0  0  0  0
  -18.9514  -30.1508   23.8797 C   0  0  0  0  0  0
  -17.6511  -30.6609   24.0549 C   0  0  0  0  0  0
  -25.9181  -34.9196   23.4879 C   0  0  0  0  0  0
  -16.5387  -29.9097   23.6368 C   0  0  0  0  0  0
  -16.7301  -28.6524   23.0370 C   0  0  0  0  0  0
  -26.4649  -31.6508   25.0781 C   0  0  0  0  0  0
  -25.3621  -31.3966   26.1345 C   0  0  0  0  0  0
  -27.0676  -30.2807   24.7047 C   0  0  0  0  0  0
  -27.6024  -32.4491   25.7589 C   0  0  0  0  0  0
  -27.5566  -37.1672   24.8441 C   0  0  0  0  0  0
  -21.4387  -29.3004   22.3362 N   0  0  0  0  0  0
  -26.4227  -37.3621   23.9446 N   0  0  0  0  0  0
  -24.8043  -30.8831   22.0893 N   0  0  0  0  0  0
  -23.4138  -28.7770   23.2928 O   0  0  0  0  0  0
  -26.9884  -24.6562   20.5610 O   0  0  0  0  0  0
  -26.5839  -34.8829   22.4514 O   0  0  0  0  0  0
  -23.6065  -32.1035   23.6226 O   0  0  0  0  0  0
  -24.9596  -12.6647   18.9037 C   0  0  0  0  0  0
  -26.3018  -11.7113   20.5007 C   0  0  0  0  0  0
  -24.1920  -14.7762   19.0682 C   0  0  0  0  0  0
  -26.0067  -15.1764   22.3088 C   0  0  0  0  0  0
  -24.6219  -20.3918   21.4276 C   0  0  0  0  0  0
  -25.9084  -19.3240   20.2998 C   0  0  0  0  0  0
  -26.8769  -13.2033   22.2081 C   0  0  0  0  0  0
  -25.7510  -20.8820   20.6130 C   0  0  0  0  0  0
  -24.7721  -16.1199   20.8198 C   0  0  0  0  0  0
  -24.2643  -18.9902   21.4907 C   0  0  0  0  0  0
  -28.3193  -13.4497   22.8577 C   0  0  0  0  0  0
  -26.3127  -22.8741   20.1244 C   0  0  0  0  0  0
  -25.0176  -17.9933   20.7883 N   0  0  0  0  0  0
  -29.4074  -14.1566   22.2351 N   0  0  0  0  0  0
  -28.4129  -13.1904   24.0577 O   0  0  0  0  0  0
  -23.1993  -18.5204   22.1913 O   0  0  0  0  0  0
  -31.6351  -13.0133   18.9333 H   0  0  0  0  0  0
  -31.0531  -11.4187   19.2353 H   0  0  0  0  0  0
  -29.9573  -11.8484   17.1495 H   0  0  0  0  0  0
  -29.9538  -13.5444   17.4272 H   0  0  0  0  0  0
  -27.7404  -11.6022   18.1803 H   0  0  0  0  0  0
  -27.6465  -13.1590   17.4007 H   0  0  0  0  0  0
  -28.6216  -14.2139   19.3140 H   0  0  0  0  0  0
  -28.9428  -11.3141   19.9175 H   0  0  0  0  0  0
  -28.5823  -11.7546   21.2845 H   0  0  0  0  0  0
  -25.1572   -9.9099   22.7021 H   0  0  0  0  0  0
  -24.0995   -7.6922   22.7363 H   0  0  0  0  0  0
  -21.2416   -9.0504   19.8345 H   0  0  0  0  0  0
  -22.3240  -11.2624   19.7885 H   0  0  0  0  0  0
  -21.2741   -7.6649   23.9649 H   0  0  0  0  0  0
  -21.1565   -6.0859   25.8809 H   0  0  0  0  0  0
  -22.0311   -2.8029   23.2417 H   0  0  0  0  0  0
  -22.3708  -12.4183   22.6140 H   0  0  0  0  0  0
  -21.0000  -13.3869   22.1564 H   0  0  0  0  0  0
  -26.2229  -16.3364   19.4580 H   0  0  0  0  0  0
  -27.3726  -15.2778   18.8406 H   0  0  0  0  0  0
  -26.7660  -32.4544   23.0655 H   0  0  0  0  0  0
  -25.0128  -33.9177   24.9892 H   0  0  0  0  0  0
  -22.8549  -31.2596   21.3465 H   0  0  0  0  0  0
  -23.3832  -35.9297   23.3134 H   0  0  0  0  0  0
  -24.3560  -36.8925   22.2094 H   0  0  0  0  0  0
  -23.7128  -37.6124   23.6863 H   0  0  0  0  0  0
  -26.3902  -31.0140   20.6938 H   0  0  0  0  0  0
  -26.9239  -30.3353   22.1733 H   0  0  0  0  0  0
  -27.7377  -27.6993   21.6368 H   0  0  0  0  0  0
  -25.3478  -25.5803   18.7691 H   0  0  0  0  0  0
  -23.9059  -27.4633   18.6314 H   0  0  0  0  0  0
  -24.0170  -30.5372   19.3980 H   0  0  0  0  0  0
  -22.8301  -29.3157   19.7444 H   0  0  0  0  0  0
  -25.1355  -36.1505   25.0728 H   0  0  0  0  0  0
  -21.0051  -28.3449   24.1209 H   0  0  0  0  0  0
  -20.5662  -26.2406   23.3666 H   0  0  0  0  0  0
  -21.6641  -26.7371   22.1198 H   0  0  0  0  0  0
  -19.6931  -25.6239   21.1295 H   0  0  0  0  0  0
  -19.6732  -27.3108   20.6693 H   0  0  0  0  0  0
  -17.4219  -26.6675   21.4008 H   0  0  0  0  0  0
  -18.0338  -26.0122   22.9025 H   0  0  0  0  0  0
  -19.7989  -30.7338   24.2135 H   0  0  0  0  0  0
  -17.5065  -31.6288   24.5159 H   0  0  0  0  0  0
  -15.5385  -30.2981   23.7759 H   0  0  0  0  0  0
  -15.8691  -28.0825   22.7152 H   0  0  0  0  0  0
  -24.5803  -30.7317   25.7660 H   0  0  0  0  0  0
  -24.8824  -32.3246   26.4471 H   0  0  0  0  0  0
  -25.7707  -30.9318   27.0330 H   0  0  0  0  0  0
  -26.3434  -29.6187   24.2302 H   0  0  0  0  0  0
  -27.4146  -29.7564   25.5964 H   0  0  0  0  0  0
  -27.9408  -30.3838   24.0604 H   0  0  0  0  0  0
  -27.2506  -33.3909   26.1822 H   0  0  0  0  0  0
  -28.3989  -32.6885   25.0528 H   0  0  0  0  0  0
  -28.0535  -31.8891   26.5796 H   0  0  0  0  0  0
  -28.2425  -38.0124   24.7682 H   0  0  0  0  0  0
  -28.1229  -36.2662   24.6027 H   0  0  0  0  0  0
  -27.2321  -37.0988   25.8841 H   0  0  0  0  0  0
  -20.9685  -29.8717   21.6478 H   0  0  0  0  0  0
  -26.0017  -38.2624   24.1589 H   0  0  0  0  0  0
  -24.7129  -12.0940   18.0203 H   0  0  0  0  0  0
  -26.7533  -10.7387   20.3644 H   0  0  0  0  0  0
  -23.6713  -15.2074   18.2261 H   0  0  0  0  0  0
  -26.4617  -15.8493   23.0206 H   0  0  0  0  0  0
  -24.0017  -21.0998   21.9602 H   0  0  0  0  0  0
  -26.7019  -18.9926   19.6441 H   0  0  0  0  0  0
  -25.4560  -23.1494   19.5112 H   0  0  0  0  0  0
  -27.0722  -22.6243   19.3840 H   0  0  0  0  0  0
  -29.7730  -14.8590   22.8573 H   0  0  0  0  0  0
  -23.0666  -17.6135   21.9300 H   0  0  0  0  0  0
  1 25  1  0  0  0
  1 30  2  0  0  0
  1 84  1  0  0  0
  2  3  1  0  0  0
  2 25  1  0  0  0
  2 87  1  0  0  0
  2 88  1  0  0  0
  3  4  1  0  0  0
  3 89  1  0  0  0
  3 90  1  0  0  0
  4  5  1  0  0  0
  4 91  1  0  0  0
  4 92  1  0  0  0
  5  6  1  0  0  0
  5 26  1  0  0  0
  5 93  1  0  0  0
  6 25  1  0  0  0
  6 94  1  0  0  0
  6 95  1  0  0  0
  7  8  2  0  0  0
  7 26  1  0  0  0
  7 29  1  0  0  0
  8  9  1  0  0  0
  8 22  1  0  0  0
  9 10  1  0  0  0
  9 27  2  0  0  0
 10 11  2  0  0  0
 10 15  1  0  0  0
 11 12  1  0  0  0
 11 96  1  0  0  0
 12 13  2  0  0  0
 12 97  1  0  0  0
 13 14  1  0  0  0
 13 31  1  0  0  0
 14 15  2  0  0  0
 14 98  1  0  0  0
 15 99  1  0  0  0
 16 17  2  0  0  0
 16 21  1  0  0  0
 16 31  1  0  0  0
 17 18  1  0  0  0
 17100  1  0  0  0
 18 19  2  0  0  0
 18101  1  0  0  0
 19 20  1  0  0  0
 19 24  1  0  0  0
 20 21  2  0  0  0
 20102  1  0  0  0
 21 23  1  0  0  0
 22 28  1  0  0  0
 22 32  2  0  0  0
 26 27  1  0  0  0
 28103  1  0  0  0
 28104  1  0  0  0
 29105  1  0  0  0
 29106  1  0  0  0
 33 34  1  0  0  0
 33 66  1  0  0  0
 33 70  2  0  0  0
 34 36  1  0  0  0
 34 59  1  0  0  0
 34107  1  0  0  0
 35 44  2  0  0  0
 35 45  1  0  0  0
 35 68  1  0  0  0
 36 56  1  0  0  0
 36108  1  0  0  0
 37 39  1  0  0  0
 37 47  1  0  0  0
 37 66  1  0  0  0
 37109  1  0  0  0
 38 43  2  0  0  0
 38 46  1  0  0  0
 38 47  1  0  0  0
 39 64  1  0  0  0
 39 67  2  0  0  0
 40 52  1  0  0  0
 40 53  2  0  0  0
 40 58  1  0  0  0
 41110  1  0  0  0
 41111  1  0  0  0
 41112  1  0  0  0
 41 48  1  0  0  0
 42 43  1  0  0  0
 42 66  1  0  0  0
 42113  1  0  0  0
 42114  1  0  0  0
 43 44  1  0  0  0
 44115  1  0  0  0
 45 46  2  0  0  0
 45116  1  0  0  0
 46117  1  0  0  0
 47118  1  0  0  0
 47119  1  0  0  0
 48 56  1  0  0  0
 48 65  1  0  0  0
 48120  1  0  0  0
 49 50  1  0  0  0
 49 53  1  0  0  0
 49 64  1  0  0  0
 49121  1  0  0  0
 50 51  1  0  0  0
 50122  1  0  0  0
 50123  1  0  0  0
 51 52  1  0  0  0
 51124  1  0  0  0
 51125  1  0  0  0
 52126  1  0  0  0
 52127  1  0  0  0
 53 54  1  0  0  0
 54 55  2  0  0  0
 54128  1  0  0  0
 55 57  1  0  0  0
 55129  1  0  0  0
 56 69  2  0  0  0
 57 58  2  0  0  0
 57130  1  0  0  0
 58131  1  0  0  0
 59 60  1  0  0  0
 59 61  1  0  0  0
 59 62  1  0  0  0
 60132  1  0  0  0
 60133  1  0  0  0
 60134  1  0  0  0
 61135  1  0  0  0
 61136  1  0  0  0
 61137  1  0  0  0
 62138  1  0  0  0
 62139  1  0  0  0
 62140  1  0  0  0
 63 65  1  0  0  0
 63141  1  0  0  0
 63142  1  0  0  0
 63143  1  0  0  0
 64144  1  0  0  0
 65145  1  0  0  0
 68 82  1  0  0  0
 71 72  2  0  0  0
 71 73  1  0  0  0
 71146  1  0  0  0
 72 77  1  0  0  0
 72147  1  0  0  0
 73 79  2  0  0  0
 73148  1  0  0  0
 74 77  2  0  0  0
 74 79  1  0  0  0
 74149  1  0  0  0
 75 78  1  0  0  0
 75 80  2  0  0  0
 75150  1  0  0  0
 76 78  2  0  0  0
 76 83  1  0  0  0
 76151  1  0  0  0
 77 81  1  0  0  0
 78 82  1  0  0  0
 79 83  1  0  0  0
 80 83  1  0  0  0
 80 86  1  0  0  0
 81 84  1  0  0  0
 81 85  2  0  0  0
 82152  1  0  0  0
 82153  1  0  0  0
 84154  1  0  0  0
 86155  1  0  0  0
M  ISO  4   1 100  68 101  82 101  84 100
M  END
> <chiral flag>
0

> <version>
0

> <s_m_source_file>
/data/baiqing/PycharmProjects/Reinvent-master-3.2/result/LINK_invent/BTK/process_docking_weight1_custom_product_contain_oxygen_bond_distance_aromatic_linkinvent_7_9_3/rearranged_h_0087.sdf

> <i_m_source_file_index>
70

> <r_mmod_Potential_Energy-OPLS-2005>
21613.916015625

> <r_mmod_Stretch_Energy-OPLS-2005>
12161.2490234375

> <r_mmod_Bend_Energy-OPLS-2005>
2590.52392578125

> <r_mmod_Torsional_Energy-OPLS-2005>
527.595275878906

> <r_mmod_Improper_Torsional_Energy-OPLS-2005>
65.379753112793

> <r_mmod_Van_der_Waal_Energy-OPLS-2005>
4301.12158203125

> <r_mmod_Electrostatic_Energy-OPLS-2005>
-451.585083007812

> <r_mmod_Solvation_Energy-OPLS-2005>
-228.26887512207

> <b_mmod_Minimization_Converged-OPLS-2005>
0

> <r_mmod_RMS_Derivative-OPLS-2005>
4.84941053390503

$$$$
70
                    3D
 Structure written by MMmdl.
158167  0  0  1  0            999 V2000
  -30.6149  -14.6597   20.4805 C   0  0  0  0  0  0
  -30.4426  -12.3999   19.4547 C   0  0  0  0  0  0
  -29.5113  -12.5102   18.2269 C   0  0  0  0  0  0
  -28.0341  -12.3428   18.6403 C   0  0  0  0  0  0
  -27.6527  -13.2167   19.8655 C   0  0  2  0  0  0
  -28.7014  -13.0855   20.9940 C   0  0  0  0  0  0
  -25.2557  -13.8163   20.5754 C   0  0  0  0  0  0
  -24.1814  -13.0416   20.9182 C   0  0  0  0  0  0
  -24.6393  -11.6895   20.8722 C   0  0  0  0  0  0
  -23.9064  -10.4282   21.0392 C   0  0  0  0  0  0
  -24.3611   -9.4210   21.9178 C   0  0  0  0  0  0
  -23.6287   -8.2248   22.0754 C   0  0  0  0  0  0
  -22.4265   -8.0283   21.3551 C   0  0  0  0  0  0
  -21.9904   -9.0258   20.4649 C   0  0  0  0  0  0
  -22.7234  -10.2132   20.3047 C   0  0  0  0  0  0
  -21.6856   -6.0733   22.5279 C   0  0  0  0  0  0
  -21.4015   -6.5634   23.8212 C   0  0  0  0  0  0
  -21.3662   -5.6787   24.9177 C   0  0  0  0  0  0
  -21.6044   -4.3051   24.7225 C   0  0  0  0  0  0
  -21.8820   -3.8143   23.4346 C   0  0  0  0  0  0
  -21.9197   -4.6963   22.3402 C   0  0  0  0  0  0
  -22.7838  -13.5220   21.1849 C   0  0  0  0  0  0
  -22.1666   -4.2150   21.0980 F   0  0  0  0  0  0
  -21.5633   -3.4533   25.7739 F   0  0  0  0  0  0
  -30.0148  -13.4275   20.4231 N   0  0  0  0  0  0
  -26.2997  -12.9355   20.3371 N   0  0  0  0  0  0
  -25.9323  -11.6500   20.5750 N   0  0  0  0  0  0
  -22.0480  -12.8220   22.0411 N   0  0  0  0  0  0
  -25.4159  -15.1908   20.4338 N   0  0  0  0  0  0
  -31.7885  -14.8175   20.1369 O   0  0  0  0  0  0
  -21.6640   -6.8878   21.4239 O   0  0  0  0  0  0
  -22.3526  -14.5536   20.6712 O   0  0  0  0  0  0
  -24.6265  -31.8603   23.2044 C   0  0  0  0  0  0
  -25.9102  -32.4787   23.8371 C   0  0  1  0  0  0
  -27.2213  -27.3103   20.1133 C   0  0  0  0  0  0
  -25.5908  -33.8586   24.2289 N   0  0  0  0  0  0
  -23.4215  -30.4862   21.5466 C   0  0  2  0  0  0
  -24.8694  -28.9478   20.1103 C   0  0  0  0  0  0
  -22.7485  -29.4624   22.4926 C   0  0  0  0  0  0
  -18.0290  -28.1396   22.8486 C   0  0  0  0  0  0
  -24.1481  -36.7301   23.2635 C   0  0  0  0  0  0
  -25.9650  -30.7882   21.3797 C   0  0  0  0  0  0
  -26.0388  -29.4147   20.7233 C   0  0  0  0  0  0
  -27.2161  -28.6043   20.7240 C   0  0  0  0  0  0
  -26.0311  -26.9190   19.4505 C   0  0  0  0  0  0
  -24.8682  -27.7052   19.4663 C   0  0  0  0  0  0
  -23.6381  -29.8276   20.1605 C   0  0  0  0  0  0
  -25.4102  -36.3089   24.0329 C   0  0  1  0  0  0
  -20.5897  -28.3695   23.1280 C   0  0  2  0  0  0
  -20.6784  -26.9414   22.5415 C   0  0  0  0  0  0
  -19.5756  -26.6396   21.5217 C   0  0  0  0  0  0
  -18.1936  -26.7939   22.1629 C   0  0  0  0  0  0
  -19.1545  -28.8863   23.2880 C   0  0  0  0  0  0
  -18.9469  -30.1466   23.8896 C   0  0  0  0  0  0
  -17.6468  -30.6592   24.0575 C   0  0  0  0  0  0
  -25.9044  -34.9458   23.5113 C   0  0  0  0  0  0
  -16.5357  -29.9095   23.6340 C   0  0  0  0  0  0
  -16.7279  -28.6520   23.0346 C   0  0  0  0  0  0
  -26.4469  -31.6589   25.0741 C   0  0  0  0  0  0
  -25.3688  -31.3750   26.1465 C   0  0  0  0  0  0
  -27.0298  -30.3005   24.6196 C   0  0  0  0  0  0
  -27.6030  -32.4312   25.7515 C   0  0  0  0  0  0
  -27.5575  -37.1798   24.8452 C   0  0  0  0  0  0
  -21.4199  -29.3040   22.3664 N   0  0  0  0  0  0
  -26.4271  -37.3790   23.9418 N   0  0  0  0  0  0
  -24.6897  -31.0615   22.1003 N   0  0  0  0  0  0
  -23.4204  -28.8153   23.3000 O   0  0  0  0  0  0
  -28.3171  -26.4258   20.1880 O   0  0  0  0  0  0
  -26.5627  -34.8921   22.4688 O   0  0  0  0  0  0
  -23.5423  -32.1399   23.7366 O   0  0  0  0  0  0
  -28.6398  -19.2876   20.1759 C   0  0  0  0  0  0
  -30.8769  -19.3840   21.0295 C   0  0  0  0  0  0
  -29.7085  -20.1147   20.6325 C   0  0  0  0  0  0
  -28.7214  -17.8626   20.1434 C   0  0  0  0  0  0
  -29.8663  -17.1562   20.6002 C   0  0  0  0  0  0
  -30.9566  -17.9551   21.0351 C   0  0  0  0  0  0
  -29.8205  -23.7628   21.4380 C   0  0  0  0  0  0
  -28.9278  -23.8152   20.4428 C   0  0  0  0  0  0
  -30.2449  -22.3791   21.6287 C   0  0  0  0  0  0
  -28.7963  -22.4263   19.9647 C   0  0  0  0  0  0
  -29.4566  -25.7337   22.8981 C   0  0  0  0  0  0
  -30.2685  -24.8313   22.3207 C   0  0  0  0  0  0
  -28.0393  -24.9924   19.9025 C   0  0  0  0  0  0
  -29.5950  -21.6049   20.7200 N   0  0  0  0  0  0
  -27.6427  -17.1312   19.6398 N   0  0  0  0  0  0
  -29.7615  -15.7023   20.7137 N   0  0  0  0  0  0
  -31.0339  -21.9771   22.4929 O   0  0  0  0  0  0
  -28.0894  -22.0558   19.0196 O   0  0  0  0  0  0
  -32.0770  -17.3647   21.5163 F   0  0  0  0  0  0
  -31.4847  -12.5266   19.1544 H   0  0  0  0  0  0
  -30.3778  -11.4067   19.9005 H   0  0  0  0  0  0
  -29.7788  -11.7618   17.4804 H   0  0  0  0  0  0
  -29.6502  -13.4808   17.7485 H   0  0  0  0  0  0
  -27.8737  -11.2897   18.8737 H   0  0  0  0  0  0
  -27.3798  -12.5706   17.7983 H   0  0  0  0  0  0
  -27.6608  -14.2479   19.5153 H   0  0  0  0  0  0
  -28.7162  -12.0698   21.3921 H   0  0  0  0  0  0
  -28.4488  -13.7312   21.8376 H   0  0  0  0  0  0
  -25.2756   -9.5697   22.4752 H   0  0  0  0  0  0
  -24.0009   -7.4638   22.7464 H   0  0  0  0  0  0
  -21.0844   -8.8774   19.8947 H   0  0  0  0  0  0
  -22.3699  -10.9670   19.6154 H   0  0  0  0  0  0
  -21.1999   -7.6140   23.9714 H   0  0  0  0  0  0
  -21.1484   -6.0517   25.9079 H   0  0  0  0  0  0
  -22.0594   -2.7606   23.2845 H   0  0  0  0  0  0
  -22.4087  -11.9884   22.4808 H   0  0  0  0  0  0
  -21.1109  -13.1270   22.2631 H   0  0  0  0  0  0
  -24.6353  -15.8234   20.5642 H   0  0  0  0  0  0
  -26.2785  -15.6916   20.2206 H   0  0  0  0  0  0
  -26.7170  -32.5463   23.1121 H   0  0  0  0  0  0
  -25.0004  -33.9725   25.0400 H   0  0  0  0  0  0
  -22.7151  -31.3073   21.4054 H   0  0  0  0  0  0
  -23.3746  -35.9629   23.3279 H   0  0  0  0  0  0
  -24.3579  -36.8947   22.2054 H   0  0  0  0  0  0
  -23.7229  -37.6493   23.6675 H   0  0  0  0  0  0
  -26.0956  -31.5482   20.6078 H   0  0  0  0  0  0
  -26.8462  -30.8407   22.0076 H   0  0  0  0  0  0
  -28.1070  -28.9494   21.2303 H   0  0  0  0  0  0
  -25.9567  -25.9838   18.9162 H   0  0  0  0  0  0
  -23.9752  -27.3473   18.9728 H   0  0  0  0  0  0
  -23.7621  -30.6060   19.4066 H   0  0  0  0  0  0
  -22.7582  -29.2594   19.8531 H   0  0  0  0  0  0
  -25.1274  -36.1935   25.0818 H   0  0  0  0  0  0
  -20.9997  -28.3279   24.1398 H   0  0  0  0  0  0
  -20.5714  -26.2289   23.3608 H   0  0  0  0  0  0
  -21.6650  -26.7460   22.1190 H   0  0  0  0  0  0
  -19.6917  -25.6315   21.1230 H   0  0  0  0  0  0
  -19.6696  -27.3221   20.6756 H   0  0  0  0  0  0
  -17.4205  -26.6684   21.4030 H   0  0  0  0  0  0
  -18.0336  -26.0081   22.9028 H   0  0  0  0  0  0
  -19.7942  -30.7289   24.2257 H   0  0  0  0  0  0
  -17.5021  -31.6264   24.5194 H   0  0  0  0  0  0
  -15.5359  -30.2997   23.7680 H   0  0  0  0  0  0
  -15.8674  -28.0853   22.7051 H   0  0  0  0  0  0
  -24.5844  -30.7117   25.7800 H   0  0  0  0  0  0
  -24.8897  -32.2929   26.4881 H   0  0  0  0  0  0
  -25.7992  -30.8928   27.0249 H   0  0  0  0  0  0
  -26.2872  -29.6778   24.1193 H   0  0  0  0  0  0
  -27.3952  -29.7243   25.4704 H   0  0  0  0  0  0
  -27.8764  -30.4284   23.9448 H   0  0  0  0  0  0
  -27.2634  -33.3597   26.2116 H   0  0  0  0  0  0
  -28.3830  -32.6889   25.0340 H   0  0  0  0  0  0
  -28.0700  -31.8416   26.5412 H   0  0  0  0  0  0
  -28.2566  -38.0120   24.7535 H   0  0  0  0  0  0
  -28.1089  -36.2652   24.6217 H   0  0  0  0  0  0
  -27.2302  -37.1392   25.8855 H   0  0  0  0  0  0
  -20.9382  -29.8733   21.6846 H   0  0  0  0  0  0
  -26.0146  -38.2853   24.1457 H   0  0  0  0  0  0
  -27.7172  -19.7480   19.8543 H   0  0  0  0  0  0
  -31.7518  -19.9119   21.3783 H   0  0  0  0  0  0
  -29.8559  -26.5078   23.5386 H   0  0  0  0  0  0
  -28.3869  -25.7211   22.7449 H   0  0  0  0  0  0
  -31.3289  -24.9052   22.5207 H   0  0  0  0  0  0
  -27.0616  -24.7380   20.3134 H   0  0  0  0  0  0
  -27.9685  -24.8782   18.8201 H   0  0  0  0  0  0
  -26.9210  -17.6983   19.2054 H   0  0  0  0  0  0
  -27.9305  -16.4093   18.9896 H   0  0  0  0  0  0
  -28.8049  -15.4072   20.8260 H   0  0  0  0  0  0
  1 25  1  0  0  0
  1 30  2  0  0  0
  1 86  1  0  0  0
  2  3  1  0  0  0
  2 25  1  0  0  0
  2 90  1  0  0  0
  2 91  1  0  0  0
  3  4  1  0  0  0
  3 92  1  0  0  0
  3 93  1  0  0  0
  4  5  1  0  0  0
  4 94  1  0  0  0
  4 95  1  0  0  0
  5  6  1  0  0  0
  5 26  1  0  0  0
  5 96  1  0  0  0
  6 25  1  0  0  0
  6 97  1  0  0  0
  6 98  1  0  0  0
  7  8  2  0  0  0
  7 26  1  0  0  0
  7 29  1  0  0  0
  8  9  1  0  0  0
  8 22  1  0  0  0
  9 10  1  0  0  0
  9 27  2  0  0  0
 10 11  2  0  0  0
 10 15  1  0  0  0
 11 12  1  0  0  0
 11 99  1  0  0  0
 12 13  2  0  0  0
 12100  1  0  0  0
 13 14  1  0  0  0
 13 31  1  0  0  0
 14 15  2  0  0  0
 14101  1  0  0  0
 15102  1  0  0  0
 16 17  2  0  0  0
 16 21  1  0  0  0
 16 31  1  0  0  0
 17 18  1  0  0  0
 17103  1  0  0  0
 18 19  2  0  0  0
 18104  1  0  0  0
 19 20  1  0  0  0
 19 24  1  0  0  0
 20 21  2  0  0  0
 20105  1  0  0  0
 21 23  1  0  0  0
 22 28  1  0  0  0
 22 32  2  0  0  0
 26 27  1  0  0  0
 28106  1  0  0  0
 28107  1  0  0  0
 29108  1  0  0  0
 29109  1  0  0  0
 33 34  1  0  0  0
 33 66  1  0  0  0
 33 70  2  0  0  0
 34 36  1  0  0  0
 34 59  1  0  0  0
 34110  1  0  0  0
 35 44  2  0  0  0
 35 45  1  0  0  0
 35 68  1  0  0  0
 36 56  1  0  0  0
 36111  1  0  0  0
 37 39  1  0  0  0
 37 47  1  0  0  0
 37 66  1  0  0  0
 37112  1  0  0  0
 38 43  2  0  0  0
 38 46  1  0  0  0
 38 47  1  0  0  0
 39 64  1  0  0  0
 39 67  2  0  0  0
 40 52  1  0  0  0
 40 53  2  0  0  0
 40 58  1  0  0  0
 41113  1  0  0  0
 41114  1  0  0  0
 41115  1  0  0  0
 41 48  1  0  0  0
 42 43  1  0  0  0
 42 66  1  0  0  0
 42116  1  0  0  0
 42117  1  0  0  0
 43 44  1  0  0  0
 44118  1  0  0  0
 45 46  2  0  0  0
 45119  1  0  0  0
 46120  1  0  0  0
 47121  1  0  0  0
 47122  1  0  0  0
 48 56  1  0  0  0
 48 65  1  0  0  0
 48123  1  0  0  0
 49 50  1  0  0  0
 49 53  1  0  0  0
 49 64  1  0  0  0
 49124  1  0  0  0
 50 51  1  0  0  0
 50125  1  0  0  0
 50126  1  0  0  0
 51 52  1  0  0  0
 51127  1  0  0  0
 51128  1  0  0  0
 52129  1  0  0  0
 52130  1  0  0  0
 53 54  1  0  0  0
 54 55  2  0  0  0
 54131  1  0  0  0
 55 57  1  0  0  0
 55132  1  0  0  0
 56 69  2  0  0  0
 57 58  2  0  0  0
 57133  1  0  0  0
 58134  1  0  0  0
 59 60  1  0  0  0
 59 61  1  0  0  0
 59 62  1  0  0  0
 60135  1  0  0  0
 60136  1  0  0  0
 60137  1  0  0  0
 61138  1  0  0  0
 61139  1  0  0  0
 61140  1  0  0  0
 62141  1  0  0  0
 62142  1  0  0  0
 62143  1  0  0  0
 63 65  1  0  0  0
 63144  1  0  0  0
 63145  1  0  0  0
 63146  1  0  0  0
 64147  1  0  0  0
 65148  1  0  0  0
 68 83  1  0  0  0
 71 73  2  0  0  0
 71 74  1  0  0  0
 71149  1  0  0  0
 72 73  1  0  0  0
 72 76  2  0  0  0
 72150  1  0  0  0
 73 84  1  0  0  0
 74 75  2  0  0  0
 74 85  1  0  0  0
 75 76  1  0  0  0
 75 86  1  0  0  0
 76 89  1  0  0  0
 77 78  2  0  0  0
 77 79  1  0  0  0
 77 82  1  0  0  0
 78 80  1  0  0  0
 78 83  1  0  0  0
 79 84  1  0  0  0
 79 87  2  0  0  0
 80 84  1  0  0  0
 80 88  2  0  0  0
 81 82  2  0  0  0
 81151  1  0  0  0
 81152  1  0  0  0
 82153  1  0  0  0
 83154  1  0  0  0
 83155  1  0  0  0
 85156  1  0  0  0
 85157  1  0  0  0
 86158  1  0  0  0
M  ISO  4   1 100  68 101  83 101  86 100
M  END
> <chiral flag>
0

> <version>
0

> <s_m_source_file>
/data/baiqing/PycharmProjects/Reinvent-master-3.2/result/LINK_invent/BTK/process_docking_weight1_custom_product_contain_oxygen_bond_distance_aromatic_linkinvent_7_9_3/rearranged_h_0087.sdf

> <i_m_source_file_index>
71

> <r_mmod_Potential_Energy-OPLS-2005>
95.2590789794922

> <r_mmod_Stretch_Energy-OPLS-2005>
87.9001235961914

> <r_mmod_Bend_Energy-OPLS-2005>
194.239334106445

> <r_mmod_Torsional_Energy-OPLS-2005>
265.209106445312

> <r_mmod_Improper_Torsional_Energy-OPLS-2005>
12.1897268295288

> <r_mmod_Van_der_Waal_Energy-OPLS-2005>
155.262252807617

> <r_mmod_Electrostatic_Energy-OPLS-2005>
-446.790466308594

> <r_mmod_Solvation_Energy-OPLS-2005>
-230.512939453125

> <b_mmod_Minimization_Converged-OPLS-2005>
0

> <r_mmod_RMS_Derivative-OPLS-2005>
1.40437185764313

$$$$
71
                    3D
 Structure written by MMmdl.
149157  0  0  1  0            999 V2000
  -30.6036  -14.6838   20.4791 C   0  0  0  0  0  0
  -30.4427  -12.4165   19.4572 C   0  0  0  0  0  0
  -29.5102  -12.5082   18.2278 C   0  0  0  0  0  0
  -28.0333  -12.3419   18.6405 C   0  0  0  0  0  0
  -27.6503  -13.2209   19.8610 C   0  0  2  0  0  0
  -28.6978  -13.0949   20.9905 C   0  0  0  0  0  0
  -25.2533  -13.8165   20.5693 C   0  0  0  0  0  0
  -24.1808  -13.0417   20.9169 C   0  0  0  0  0  0
  -24.6395  -11.6897   20.8726 C   0  0  0  0  0  0
  -23.9067  -10.4282   21.0397 C   0  0  0  0  0  0
  -24.3618   -9.4201   21.9180 C   0  0  0  0  0  0
  -23.6289   -8.2240   22.0753 C   0  0  0  0  0  0
  -22.4272   -8.0278   21.3543 C   0  0  0  0  0  0
  -21.9905   -9.0251   20.4645 C   0  0  0  0  0  0
  -22.7236  -10.2128   20.3050 C   0  0  0  0  0  0
  -21.6853   -6.0734   22.5279 C   0  0  0  0  0  0
  -21.4015   -6.5638   23.8212 C   0  0  0  0  0  0
  -21.3658   -5.6791   24.9174 C   0  0  0  0  0  0
  -21.6044   -4.3054   24.7224 C   0  0  0  0  0  0
  -21.8820   -3.8144   23.4346 C   0  0  0  0  0  0
  -21.9192   -4.6961   22.3402 C   0  0  0  0  0  0
  -22.7831  -13.5210   21.1844 C   0  0  0  0  0  0
  -22.1660   -4.2146   21.0979 F   0  0  0  0  0  0
  -21.5628   -3.4538   25.7737 F   0  0  0  0  0  0
  -30.0086  -13.4472   20.4221 N   0  0  0  0  0  0
  -26.2979  -12.9365   20.3329 N   0  0  0  0  0  0
  -25.9330  -11.6512   20.5761 N   0  0  0  0  0  0
  -22.0485  -12.8207   22.0415 N   0  0  0  0  0  0
  -25.4168  -15.1893   20.4186 N   0  0  0  0  0  0
  -31.7770  -14.8416   20.1293 O   0  0  0  0  0  0
  -21.6637   -6.8875   21.4240 O   0  0  0  0  0  0
  -22.3506  -14.5516   20.6702 O   0  0  0  0  0  0
  -24.6277  -31.8580   23.2007 C   0  0  0  0  0  0
  -25.9115  -32.4770   23.8348 C   0  0  1  0  0  0
  -27.2255  -27.3010   20.1270 C   0  0  0  0  0  0
  -25.5921  -33.8571   24.2272 N   0  0  0  0  0  0
  -23.4233  -30.4800   21.5435 C   0  0  2  0  0  0
  -24.8719  -28.9307   20.1127 C   0  0  0  0  0  0
  -22.7486  -29.4612   22.4929 C   0  0  0  0  0  0
  -18.0289  -28.1385   22.8486 C   0  0  0  0  0  0
  -24.1490  -36.7293   23.2642 C   0  0  0  0  0  0
  -25.9658  -30.7831   21.3751 C   0  0  0  0  0  0
  -26.0415  -29.4080   20.7192 C   0  0  0  0  0  0
  -27.2238  -28.6059   20.7141 C   0  0  0  0  0  0
  -26.0379  -26.8839   19.4880 C   0  0  0  0  0  0
  -24.8728  -27.6745   19.4868 C   0  0  0  0  0  0
  -23.6401  -29.8127   20.1599 C   0  0  0  0  0  0
  -25.4116  -36.3079   24.0328 C   0  0  1  0  0  0
  -20.5890  -28.3693   23.1279 C   0  0  2  0  0  0
  -20.6777  -26.9414   22.5408 C   0  0  0  0  0  0
  -19.5751  -26.6383   21.5212 C   0  0  0  0  0  0
  -18.1933  -26.7926   22.1629 C   0  0  0  0  0  0
  -19.1542  -28.8856   23.2877 C   0  0  0  0  0  0
  -18.9464  -30.1457   23.8894 C   0  0  0  0  0  0
  -17.6463  -30.6586   24.0563 C   0  0  0  0  0  0
  -25.9050  -34.9446   23.5102 C   0  0  0  0  0  0
  -16.5354  -29.9085   23.6329 C   0  0  0  0  0  0
  -16.7276  -28.6503   23.0351 C   0  0  0  0  0  0
  -26.4494  -31.6586   25.0724 C   0  0  0  0  0  0
  -25.3725  -31.3728   26.1451 C   0  0  0  0  0  0
  -27.0341  -30.3008   24.6190 C   0  0  0  0  0  0
  -27.6050  -32.4326   25.7495 C   0  0  0  0  0  0
  -27.5572  -37.1813   24.8474 C   0  0  0  0  0  0
  -21.4197  -29.3042   22.3671 N   0  0  0  0  0  0
  -26.4300  -37.3767   23.9394 N   0  0  0  0  0  0
  -24.6911  -31.0574   22.0966 N   0  0  0  0  0  0
  -23.4199  -28.8155   23.3020 O   0  0  0  0  0  0
  -28.3290  -26.4301   20.1460 O   0  0  0  0  0  0
  -26.5623  -34.8915   22.4671 O   0  0  0  0  0  0
  -23.5434  -32.1388   23.7320 O   0  0  0  0  0  0
  -30.9687  -19.3938   20.2929 C   0  0  0  0  0  0
  -31.0211  -17.9741   20.4792 C   0  0  0  0  0  0
  -28.5702  -19.3370   20.2740 C   0  0  0  0  0  0
  -29.7471  -20.1239   20.1712 C   0  0  0  0  0  0
  -29.8389  -17.1910   20.5600 C   0  0  0  0  0  0
  -28.6194  -17.9201   20.4678 C   0  0  0  0  0  0
  -28.9655  -23.8451   20.0539 C   0  0  0  0  0  0
  -29.7444  -21.6235   19.7701 C   0  0  0  0  0  0
  -28.0957  -25.0365   20.6306 C   0  0  0  0  0  0
  -28.9065  -22.5787   20.4162 N   0  0  0  0  0  0
  -29.7654  -15.7353   20.7612 N   0  0  0  0  0  0
  -30.5574  -21.9152   18.8886 O   0  0  0  0  0  0
  -27.4567  -17.2295   20.5396 F   0  0  0  0  0  0
  -31.4819  -12.5514   19.1525 H   0  0  0  0  0  0
  -30.3893  -11.4256   19.9111 H   0  0  0  0  0  0
  -29.7796  -11.7480   17.4930 H   0  0  0  0  0  0
  -29.6461  -13.4717   17.7343 H   0  0  0  0  0  0
  -27.8758  -11.2898   18.8806 H   0  0  0  0  0  0
  -27.3782  -12.5614   17.7968 H   0  0  0  0  0  0
  -27.6578  -14.2524   19.5085 H   0  0  0  0  0  0
  -28.7188  -12.0773   21.3835 H   0  0  0  0  0  0
  -28.4403  -13.7356   21.8354 H   0  0  0  0  0  0
  -25.2764   -9.5677   22.4752 H   0  0  0  0  0  0
  -23.9996   -7.4633   22.7475 H   0  0  0  0  0  0
  -21.0834   -8.8772   19.8954 H   0  0  0  0  0  0
  -22.3695  -10.9667   19.6159 H   0  0  0  0  0  0
  -21.2010   -7.6147   23.9715 H   0  0  0  0  0  0
  -21.1478   -6.0521   25.9077 H   0  0  0  0  0  0
  -22.0601   -2.7606   23.2849 H   0  0  0  0  0  0
  -22.4107  -11.9871   22.4802 H   0  0  0  0  0  0
  -21.1108  -13.1240   22.2634 H   0  0  0  0  0  0
  -24.6492  -15.8342   20.5656 H   0  0  0  0  0  0
  -26.2837  -15.6683   20.1993 H   0  0  0  0  0  0
  -26.7185  -32.5436   23.1098 H   0  0  0  0  0  0
  -25.0061  -33.9713   25.0412 H   0  0  0  0  0  0
  -22.7181  -31.3007   21.3981 H   0  0  0  0  0  0
  -23.3734  -35.9648   23.3344 H   0  0  0  0  0  0
  -24.3569  -36.8871   22.2048 H   0  0  0  0  0  0
  -23.7272  -37.6519   23.6639 H   0  0  0  0  0  0
  -26.0992  -31.5448   20.6056 H   0  0  0  0  0  0
  -26.8452  -30.8332   22.0056 H   0  0  0  0  0  0
  -28.1218  -28.9674   21.1954 H   0  0  0  0  0  0
  -25.9993  -25.9267   18.9880 H   0  0  0  0  0  0
  -23.9796  -27.3057   19.0015 H   0  0  0  0  0  0
  -23.7610  -30.5884   19.4029 H   0  0  0  0  0  0
  -22.7601  -29.2426   19.8567 H   0  0  0  0  0  0
  -25.1302  -36.1939   25.0823 H   0  0  0  0  0  0
  -20.9982  -28.3268   24.1400 H   0  0  0  0  0  0
  -20.5678  -26.2302   23.3609 H   0  0  0  0  0  0
  -21.6644  -26.7440   22.1202 H   0  0  0  0  0  0
  -19.6911  -25.6293   21.1243 H   0  0  0  0  0  0
  -19.6685  -27.3192   20.6741 H   0  0  0  0  0  0
  -17.4198  -26.6669   21.4037 H   0  0  0  0  0  0
  -18.0340  -26.0072   22.9030 H   0  0  0  0  0  0
  -19.7939  -30.7275   24.2262 H   0  0  0  0  0  0
  -17.5017  -31.6265   24.5167 H   0  0  0  0  0  0
  -15.5355  -30.2987   23.7651 H   0  0  0  0  0  0
  -15.8678  -28.0820   22.7069 H   0  0  0  0  0  0
  -24.5896  -30.7083   25.7778 H   0  0  0  0  0  0
  -24.8923  -32.2897   26.4880 H   0  0  0  0  0  0
  -25.8047  -30.8901   27.0225 H   0  0  0  0  0  0
  -26.2923  -29.6756   24.1208 H   0  0  0  0  0  0
  -27.4028  -29.7266   25.4701 H   0  0  0  0  0  0
  -27.8795  -30.4291   23.9427 H   0  0  0  0  0  0
  -27.2655  -33.3623   26.2074 H   0  0  0  0  0  0
  -28.3858  -32.6893   25.0324 H   0  0  0  0  0  0
  -28.0722  -31.8454   26.5412 H   0  0  0  0  0  0
  -28.2628  -38.0070   24.7456 H   0  0  0  0  0  0
  -28.1028  -36.2598   24.6387 H   0  0  0  0  0  0
  -27.2277  -37.1566   25.8876 H   0  0  0  0  0  0
  -20.9380  -29.8766   21.6878 H   0  0  0  0  0  0
  -26.0183  -38.2852   24.1351 H   0  0  0  0  0  0
  -31.9043  -19.9293   20.2035 H   0  0  0  0  0  0
  -31.9865  -17.4936   20.5515 H   0  0  0  0  0  0
  -27.6069  -19.8145   20.1681 H   0  0  0  0  0  0
  -29.6536  -24.1922   19.2773 H   0  0  0  0  0  0
  -28.2632  -25.0596   21.7075 H   0  0  0  0  0  0
  -27.0529  -24.7426   20.5227 H   0  0  0  0  0  0
  -28.8342  -15.4248   20.9928 H   0  0  0  0  0  0
  1 25  1  0  0  0
  1 30  2  0  0  0
  1 81  1  0  0  0
  2  3  1  0  0  0
  2 25  1  0  0  0
  2 84  1  0  0  0
  2 85  1  0  0  0
  3  4  1  0  0  0
  3 86  1  0  0  0
  3 87  1  0  0  0
  4  5  1  0  0  0
  4 88  1  0  0  0
  4 89  1  0  0  0
  5  6  1  0  0  0
  5 26  1  0  0  0
  5 90  1  0  0  0
  6 25  1  0  0  0
  6 91  1  0  0  0
  6 92  1  0  0  0
  7  8  2  0  0  0
  7 26  1  0  0  0
  7 29  1  0  0  0
  8  9  1  0  0  0
  8 22  1  0  0  0
  9 10  1  0  0  0
  9 27  2  0  0  0
 10 11  2  0  0  0
 10 15  1  0  0  0
 11 12  1  0  0  0
 11 93  1  0  0  0
 12 13  2  0  0  0
 12 94  1  0  0  0
 13 14  1  0  0  0
 13 31  1  0  0  0
 14 15  2  0  0  0
 14 95  1  0  0  0
 15 96  1  0  0  0
 16 17  2  0  0  0
 16 21  1  0  0  0
 16 31  1  0  0  0
 17 18  1  0  0  0
 17 97  1  0  0  0
 18 19  2  0  0  0
 18 98  1  0  0  0
 19 20  1  0  0  0
 19 24  1  0  0  0
 20 21  2  0  0  0
 20 99  1  0  0  0
 21 23  1  0  0  0
 22 28  1  0  0  0
 22 32  2  0  0  0
 26 27  1  0  0  0
 28100  1  0  0  0
 28101  1  0  0  0
 29102  1  0  0  0
 29103  1  0  0  0
 33 34  1  0  0  0
 33 66  1  0  0  0
 33 70  2  0  0  0
 34 36  1  0  0  0
 34 59  1  0  0  0
 34104  1  0  0  0
 35 44  2  0  0  0
 35 45  1  0  0  0
 35 68  1  0  0  0
 36 56  1  0  0  0
 36105  1  0  0  0
 37 39  1  0  0  0
 37 47  1  0  0  0
 37 66  1  0  0  0
 37106  1  0  0  0
 38 43  2  0  0  0
 38 46  1  0  0  0
 38 47  1  0  0  0
 39 64  1  0  0  0
 39 67  2  0  0  0
 40 52  1  0  0  0
 40 53  2  0  0  0
 40 58  1  0  0  0
 41107  1  0  0  0
 41108  1  0  0  0
 41109  1  0  0  0
 41 48  1  0  0  0
 42 43  1  0  0  0
 42 66  1  0  0  0
 42110  1  0  0  0
 42111  1  0  0  0
 43 44  1  0  0  0
 44112  1  0  0  0
 45 46  2  0  0  0
 45113  1  0  0  0
 46114  1  0  0  0
 47115  1  0  0  0
 47116  1  0  0  0
 48 56  1  0  0  0
 48 65  1  0  0  0
 48117  1  0  0  0
 49 50  1  0  0  0
 49 53  1  0  0  0
 49 64  1  0  0  0
 49118  1  0  0  0
 50 51  1  0  0  0
 50119  1  0  0  0
 50120  1  0  0  0
 51 52  1  0  0  0
 51121  1  0  0  0
 51122  1  0  0  0
 52123  1  0  0  0
 52124  1  0  0  0
 53 54  1  0  0  0
 54 55  2  0  0  0
 54125  1  0  0  0
 55 57  1  0  0  0
 55126  1  0  0  0
 56 69  2  0  0  0
 57 58  2  0  0  0
 57127  1  0  0  0
 58128  1  0  0  0
 59 60  1  0  0  0
 59 61  1  0  0  0
 59 62  1  0  0  0
 60129  1  0  0  0
 60130  1  0  0  0
 60131  1  0  0  0
 61132  1  0  0  0
 61133  1  0  0  0
 61134  1  0  0  0
 62135  1  0  0  0
 62136  1  0  0  0
 62137  1  0  0  0
 63 65  1  0  0  0
 63138  1  0  0  0
 63139  1  0  0  0
 63140  1  0  0  0
 64141  1  0  0  0
 65142  1  0  0  0
 68 79  1  0  0  0
 71 72  2  0  0  0
 71 74  1  0  0  0
 71143  1  0  0  0
 72 75  1  0  0  0
 72144  1  0  0  0
 73 74  2  0  0  0
 73 76  1  0  0  0
 73145  1  0  0  0
 74 78  1  0  0  0
 75 76  2  0  0  0
 75 81  1  0  0  0
 76 83  1  0  0  0
 77 79  1  0  0  0
 77 80  2  0  0  0
 77146  1  0  0  0
 78 80  1  0  0  0
 78 82  2  0  0  0
 79147  1  0  0  0
 79148  1  0  0  0
 81149  1  0  0  0
M  ISO  4   1 100  68 101  79 101  81 100
M  END
> <chiral flag>
0

> <version>
0

> <s_m_source_file>
/data/baiqing/PycharmProjects/Reinvent-master-3.2/result/LINK_invent/BTK/process_docking_weight1_custom_product_contain_oxygen_bond_distance_aromatic_linkinvent_7_9_3/rearranged_h_0087.sdf

> <i_m_source_file_index>
72

> <r_mmod_Potential_Energy-OPLS-2005>
36.1921653747559

> <r_mmod_Stretch_Energy-OPLS-2005>
92.0756759643555

> <r_mmod_Bend_Energy-OPLS-2005>
144.19580078125

> <r_mmod_Torsional_Energy-OPLS-2005>
229.915496826172

> <r_mmod_Improper_Torsional_Energy-OPLS-2005>
5.46865367889404

> <r_mmod_Van_der_Waal_Energy-OPLS-2005>
148.327819824219

> <r_mmod_Electrostatic_Energy-OPLS-2005>
-447.751495361328

> <r_mmod_Solvation_Energy-OPLS-2005>
-196.921340942383

> <b_mmod_Minimization_Converged-OPLS-2005>
0

> <r_mmod_RMS_Derivative-OPLS-2005>
0.346518635749817

$$$$
72
                    3D
 Structure written by MMmdl.
154163  0  0  1  0            999 V2000
  -30.6842  -14.7515   20.4389 C   0  0  0  0  0  0
  -30.4325  -12.4549   19.5054 C   0  0  0  0  0  0
  -29.5459  -12.5448   18.2502 C   0  0  0  0  0  0
  -28.0678  -12.3467   18.6490 C   0  0  0  0  0  0
  -27.6477  -13.2460   19.8457 C   0  0  2  0  0  0
  -28.6916  -13.2292   20.9889 C   0  0  0  0  0  0
  -25.2527  -13.8221   20.5688 C   0  0  0  0  0  0
  -24.1799  -13.0466   20.9135 C   0  0  0  0  0  0
  -24.6393  -11.6953   20.8715 C   0  0  0  0  0  0
  -23.9050  -10.4317   21.0410 C   0  0  0  0  0  0
  -24.3608   -9.4246   21.9204 C   0  0  0  0  0  0
  -23.6270   -8.2275   22.0787 C   0  0  0  0  0  0
  -22.4275   -8.0312   21.3557 C   0  0  0  0  0  0
  -21.9902   -9.0279   20.4678 C   0  0  0  0  0  0
  -22.7223  -10.2149   20.3064 C   0  0  0  0  0  0
  -21.6828   -6.0755   22.5277 C   0  0  0  0  0  0
  -21.4026   -6.5646   23.8220 C   0  0  0  0  0  0
  -21.3658   -5.6784   24.9188 C   0  0  0  0  0  0
  -21.6062   -4.3040   24.7221 C   0  0  0  0  0  0
  -21.8795   -3.8155   23.4310 C   0  0  0  0  0  0
  -21.9154   -4.6992   22.3395 C   0  0  0  0  0  0
  -22.7807  -13.5295   21.1765 C   0  0  0  0  0  0
  -22.1636   -4.2167   21.0974 F   0  0  0  0  0  0
  -21.5617   -3.4526   25.7722 F   0  0  0  0  0  0
  -30.0032  -13.5504   20.4041 N   0  0  0  0  0  0
  -26.2962  -12.9458   20.3204 N   0  0  0  0  0  0
  -25.9371  -11.6593   20.5651 N   0  0  0  0  0  0
  -22.0344  -12.8416   22.0353 N   0  0  0  0  0  0
  -25.4265  -15.1956   20.4242 N   0  0  0  0  0  0
  -31.8767  -14.7529   20.1304 O   0  0  0  0  0  0
  -21.6651   -6.8905   21.4235 O   0  0  0  0  0  0
  -22.3508  -14.5558   20.6537 O   0  0  0  0  0  0
  -24.6529  -31.8469   23.1963 C   0  0  0  0  0  0
  -25.9314  -32.4681   23.8355 C   0  0  1  0  0  0
  -27.1919  -27.1385   20.1147 C   0  0  0  0  0  0
  -25.6028  -33.8490   24.2221 N   0  0  0  0  0  0
  -23.4533  -30.4814   21.5404 C   0  0  2  0  0  0
  -24.8922  -28.9328   20.1058 C   0  0  0  0  0  0
  -22.7645  -29.4589   22.4820 C   0  0  0  0  0  0
  -18.0326  -28.1405   22.8456 C   0  0  0  0  0  0
  -24.1431  -36.7282   23.2646 C   0  0  0  0  0  0
  -26.0200  -30.7163   21.4041 C   0  0  0  0  0  0
  -26.0760  -29.3358   20.7343 C   0  0  0  0  0  0
  -27.2280  -28.4564   20.7305 C   0  0  0  0  0  0
  -25.9688  -26.8615   19.4486 C   0  0  0  0  0  0
  -24.8543  -27.7093   19.4402 C   0  0  0  0  0  0
  -23.6808  -29.8433   20.1494 C   0  0  0  0  0  0
  -25.4063  -36.3015   24.0299 C   0  0  1  0  0  0
  -20.5947  -28.3768   23.1187 C   0  0  2  0  0  0
  -20.6785  -26.9461   22.5385 C   0  0  0  0  0  0
  -19.5745  -26.6380   21.5195 C   0  0  0  0  0  0
  -18.1934  -26.7941   22.1617 C   0  0  0  0  0  0
  -19.1591  -28.8908   23.2793 C   0  0  0  0  0  0
  -18.9500  -30.1485   23.8820 C   0  0  0  0  0  0
  -17.6491  -30.6585   24.0556 C   0  0  0  0  0  0
  -25.9054  -34.9401   23.5072 C   0  0  0  0  0  0
  -16.5381  -29.9074   23.6324 C   0  0  0  0  0  0
  -16.7307  -28.6504   23.0343 C   0  0  0  0  0  0
  -26.4523  -31.6572   25.0868 C   0  0  0  0  0  0
  -25.3686  -31.3927   26.1589 C   0  0  0  0  0  0
  -27.0395  -30.2918   24.6584 C   0  0  0  0  0  0
  -27.6011  -32.4384   25.7709 C   0  0  0  0  0  0
  -27.5538  -37.1777   24.8422 C   0  0  0  0  0  0
  -21.4352  -29.3081   22.3582 N   0  0  0  0  0  0
  -26.4209  -37.3751   23.9431 N   0  0  0  0  0  0
  -24.7280  -31.0374   22.0970 N   0  0  0  0  0  0
  -23.4301  -28.8112   23.2963 O   0  0  0  0  0  0
  -28.2185  -26.1155   20.1752 O   0  0  0  0  0  0
  -26.5651  -34.8918   22.4652 O   0  0  0  0  0  0
  -23.5630  -32.1391   23.7131 O   0  0  0  0  0  0
  -31.3866  -20.1401   20.6306 C   0  0  0  0  0  0
  -29.5631  -18.5478   20.4018 C   0  0  0  0  0  0
  -31.8345  -17.7180   20.6708 C   0  0  0  0  0  0
  -29.9934  -19.9507   20.4383 C   0  0  0  0  0  0
  -32.2989  -19.0593   20.7139 C   0  0  0  0  0  0
  -30.4549  -17.3915   20.5390 C   0  0  0  0  0  0
  -28.2663  -23.3958   19.8281 C   0  0  0  0  0  0
  -27.4673  -22.4173   19.0689 C   0  0  0  0  0  0
  -29.2501  -22.5182   20.5568 C   0  0  0  0  0  0
  -27.9257  -24.7671   19.6937 C   0  0  0  0  0  0
  -27.9525  -20.9981   19.3131 C   0  0  0  0  0  0
  -29.1156  -21.1587   20.1897 N   0  0  0  0  0  0
  -33.6712  -19.3188   20.8170 N   0  0  0  0  0  0
  -29.9926  -15.9554   20.5764 N   0  0  0  0  0  0
  -26.4855  -22.6449   18.3504 O   0  0  0  0  0  0
  -30.0773  -22.9221   21.3828 O   0  0  0  0  0  0
  -31.4894  -12.5099   19.2424 H   0  0  0  0  0  0
  -30.3058  -11.4848   19.9851 H   0  0  0  0  0  0
  -29.8673  -11.8149   17.5047 H   0  0  0  0  0  0
  -29.6764  -13.5309   17.7953 H   0  0  0  0  0  0
  -27.9347  -11.2980   18.9117 H   0  0  0  0  0  0
  -27.4225  -12.5234   17.7881 H   0  0  0  0  0  0
  -27.6340  -14.2650   19.4567 H   0  0  0  0  0  0
  -28.7047  -12.2617   21.4933 H   0  0  0  0  0  0
  -28.4195  -13.9597   21.7528 H   0  0  0  0  0  0
  -25.2767   -9.5737   22.4742 H   0  0  0  0  0  0
  -23.9994   -7.4677   22.7514 H   0  0  0  0  0  0
  -21.0813   -8.8789   19.8960 H   0  0  0  0  0  0
  -22.3706  -10.9684   19.6120 H   0  0  0  0  0  0
  -21.2088   -7.6173   23.9733 H   0  0  0  0  0  0
  -21.1499   -6.0529   25.9065 H   0  0  0  0  0  0
  -22.0584   -2.7613   23.2807 H   0  0  0  0  0  0
  -22.3874  -12.0157   22.4991 H   0  0  0  0  0  0
  -21.0942  -13.1537   22.2315 H   0  0  0  0  0  0
  -24.6750  -15.8613   20.5645 H   0  0  0  0  0  0
  -26.3087  -15.6337   20.1955 H   0  0  0  0  0  0
  -26.7468  -32.5242   23.1159 H   0  0  0  0  0  0
  -25.0082  -33.9545   25.0306 H   0  0  0  0  0  0
  -22.7545  -31.3085   21.3980 H   0  0  0  0  0  0
  -23.3650  -35.9651   23.3256 H   0  0  0  0  0  0
  -24.3531  -36.8998   22.2077 H   0  0  0  0  0  0
  -23.7210  -37.6473   23.6734 H   0  0  0  0  0  0
  -26.2056  -31.4709   20.6379 H   0  0  0  0  0  0
  -26.8825  -30.7462   22.0592 H   0  0  0  0  0  0
  -28.1315  -28.7556   21.2394 H   0  0  0  0  0  0
  -25.7474  -25.9526   18.9164 H   0  0  0  0  0  0
  -23.9655  -27.3991   18.9081 H   0  0  0  0  0  0
  -23.8549  -30.6349   19.4194 H   0  0  0  0  0  0
  -22.7904  -29.3163   19.8024 H   0  0  0  0  0  0
  -25.1214  -36.1817   25.0773 H   0  0  0  0  0  0
  -21.0014  -28.3358   24.1319 H   0  0  0  0  0  0
  -20.5660  -26.2407   23.3634 H   0  0  0  0  0  0
  -21.6654  -26.7435   22.1208 H   0  0  0  0  0  0
  -19.6901  -25.6267   21.1272 H   0  0  0  0  0  0
  -19.6643  -27.3139   20.6672 H   0  0  0  0  0  0
  -17.4213  -26.6693   21.4000 H   0  0  0  0  0  0
  -18.0322  -26.0081   22.9014 H   0  0  0  0  0  0
  -19.7977  -30.7310   24.2159 H   0  0  0  0  0  0
  -17.5048  -31.6231   24.5221 H   0  0  0  0  0  0
  -15.5370  -30.2954   23.7659 H   0  0  0  0  0  0
  -15.8720  -28.0775   22.7085 H   0  0  0  0  0  0
  -24.5643  -30.7515   25.7959 H   0  0  0  0  0  0
  -24.9148  -32.3221   26.5047 H   0  0  0  0  0  0
  -25.7894  -30.9026   27.0379 H   0  0  0  0  0  0
  -26.3098  -29.6678   24.1420 H   0  0  0  0  0  0
  -27.3719  -29.7188   25.5248 H   0  0  0  0  0  0
  -27.9109  -30.4056   24.0150 H   0  0  0  0  0  0
  -27.2452  -33.3576   26.2374 H   0  0  0  0  0  0
  -28.3799  -32.7154   25.0604 H   0  0  0  0  0  0
  -28.0737  -31.8538   26.5610 H   0  0  0  0  0  0
  -28.2478  -38.0136   24.7520 H   0  0  0  0  0  0
  -28.1081  -36.2683   24.6075 H   0  0  0  0  0  0
  -27.2349  -37.1272   25.8846 H   0  0  0  0  0  0
  -20.9601  -29.8881   21.6807 H   0  0  0  0  0  0
  -26.0040  -38.2809   24.1431 H   0  0  0  0  0  0
  -31.7776  -21.1470   20.6735 H   0  0  0  0  0  0
  -28.5120  -18.3462   20.2538 H   0  0  0  0  0  0
  -32.5685  -16.9280   20.7559 H   0  0  0  0  0  0
  -27.2561  -24.8635   18.8702 H   0  0  0  0  0  0
  -28.2214  -20.5227   18.3680 H   0  0  0  0  0  0
  -27.1658  -20.4059   19.7811 H   0  0  0  0  0  0
  -34.0067  -20.2734   20.6950 H   0  0  0  0  0  0
  -34.3160  -18.6670   20.3704 H   0  0  0  0  0  0
  -28.9982  -15.8256   20.6756 H   0  0  0  0  0  0
  1 25  1  0  0  0
  1 30  2  0  0  0
  1 84  1  0  0  0
  2  3  1  0  0  0
  2 25  1  0  0  0
  2 87  1  0  0  0
  2 88  1  0  0  0
  3  4  1  0  0  0
  3 89  1  0  0  0
  3 90  1  0  0  0
  4  5  1  0  0  0
  4 91  1  0  0  0
  4 92  1  0  0  0
  5  6  1  0  0  0
  5 26  1  0  0  0
  5 93  1  0  0  0
  6 25  1  0  0  0
  6 94  1  0  0  0
  6 95  1  0  0  0
  7  8  2  0  0  0
  7 26  1  0  0  0
  7 29  1  0  0  0
  8  9  1  0  0  0
  8 22  1  0  0  0
  9 10  1  0  0  0
  9 27  2  0  0  0
 10 11  2  0  0  0
 10 15  1  0  0  0
 11 12  1  0  0  0
 11 96  1  0  0  0
 12 13  2  0  0  0
 12 97  1  0  0  0
 13 14  1  0  0  0
 13 31  1  0  0  0
 14 15  2  0  0  0
 14 98  1  0  0  0
 15 99  1  0  0  0
 16 17  2  0  0  0
 16 21  1  0  0  0
 16 31  1  0  0  0
 17 18  1  0  0  0
 17100  1  0  0  0
 18 19  2  0  0  0
 18101  1  0  0  0
 19 20  1  0  0  0
 19 24  1  0  0  0
 20 21  2  0  0  0
 20102  1  0  0  0
 21 23  1  0  0  0
 22 28  1  0  0  0
 22 32  2  0  0  0
 26 27  1  0  0  0
 28103  1  0  0  0
 28104  1  0  0  0
 29105  1  0  0  0
 29106  1  0  0  0
 33 34  1  0  0  0
 33 66  1  0  0  0
 33 70  2  0  0  0
 34 36  1  0  0  0
 34 59  1  0  0  0
 34107  1  0  0  0
 35 44  2  0  0  0
 35 45  1  0  0  0
 35 68  1  0  0  0
 36 56  1  0  0  0
 36108  1  0  0  0
 37 39  1  0  0  0
 37 47  1  0  0  0
 37 66  1  0  0  0
 37109  1  0  0  0
 38 43  2  0  0  0
 38 46  1  0  0  0
 38 47  1  0  0  0
 39 64  1  0  0  0
 39 67  2  0  0  0
 40 52  1  0  0  0
 40 53  2  0  0  0
 40 58  1  0  0  0
 41110  1  0  0  0
 41111  1  0  0  0
 41112  1  0  0  0
 41 48  1  0  0  0
 42 43  1  0  0  0
 42 66  1  0  0  0
 42113  1  0  0  0
 42114  1  0  0  0
 43 44  1  0  0  0
 44115  1  0  0  0
 45 46  2  0  0  0
 45116  1  0  0  0
 46117  1  0  0  0
 47118  1  0  0  0
 47119  1  0  0  0
 48 56  1  0  0  0
 48 65  1  0  0  0
 48120  1  0  0  0
 49 50  1  0  0  0
 49 53  1  0  0  0
 49 64  1  0  0  0
 49121  1  0  0  0
 50 51  1  0  0  0
 50122  1  0  0  0
 50123  1  0  0  0
 51 52  1  0  0  0
 51124  1  0  0  0
 51125  1  0  0  0
 52126  1  0  0  0
 52127  1  0  0  0
 53 54  1  0  0  0
 54 55  2  0  0  0
 54128  1  0  0  0
 55 57  1  0  0  0
 55129  1  0  0  0
 56 69  2  0  0  0
 57 58  2  0  0  0
 57130  1  0  0  0
 58131  1  0  0  0
 59 60  1  0  0  0
 59 61  1  0  0  0
 59 62  1  0  0  0
 60132  1  0  0  0
 60133  1  0  0  0
 60134  1  0  0  0
 61135  1  0  0  0
 61136  1  0  0  0
 61137  1  0  0  0
 62138  1  0  0  0
 62139  1  0  0  0
 62140  1  0  0  0
 63 65  1  0  0  0
 63141  1  0  0  0
 63142  1  0  0  0
 63143  1  0  0  0
 64144  1  0  0  0
 65145  1  0  0  0
 68 80  1  0  0  0
 71 74  2  0  0  0
 71 75  1  0  0  0
 71146  1  0  0  0
 72 74  1  0  0  0
 72 76  2  0  0  0
 72147  1  0  0  0
 73 75  2  0  0  0
 73 76  1  0  0  0
 73148  1  0  0  0
 74 82  1  0  0  0
 75 83  1  0  0  0
 76 84  1  0  0  0
 77 78  1  0  0  0
 77 79  1  0  0  0
 77 80  2  0  0  0
 78 81  1  0  0  0
 78 85  2  0  0  0
 79 82  1  0  0  0
 79 86  2  0  0  0
 80149  1  0  0  0
 81 82  1  0  0  0
 81150  1  0  0  0
 81151  1  0  0  0
 83152  1  0  0  0
 83153  1  0  0  0
 84154  1  0  0  0
M  ISO  4   1 100  68 101  80 101  84 100
M  END
> <chiral flag>
0

> <version>
0

> <s_m_source_file>
/data/baiqing/PycharmProjects/Reinvent-master-3.2/result/LINK_invent/BTK/process_docking_weight1_custom_product_contain_oxygen_bond_distance_aromatic_linkinvent_7_9_3/rearranged_h_0087.sdf

> <i_m_source_file_index>
73

> <r_mmod_Potential_Energy-OPLS-2005>
466.176361083984

> <r_mmod_Stretch_Energy-OPLS-2005>
180.035400390625

> <r_mmod_Bend_Energy-OPLS-2005>
309.904846191406

> <r_mmod_Torsional_Energy-OPLS-2005>
262.906127929688

> <r_mmod_Improper_Torsional_Energy-OPLS-2005>
9.76147270202637

> <r_mmod_Van_der_Waal_Energy-OPLS-2005>
156.440673828125

> <r_mmod_Electrostatic_Energy-OPLS-2005>
-338.394714355469

> <r_mmod_Solvation_Energy-OPLS-2005>
-255.293365478516

> <b_mmod_Minimization_Converged-OPLS-2005>
0

> <r_mmod_RMS_Derivative-OPLS-2005>
8.78560829162598

$$$$
73
                    3D
 Structure written by MMmdl.
160169  0  0  1  0            999 V2000
  -30.6961  -14.7287   20.5170 C   0  0  0  0  0  0
  -30.4191  -12.4560   19.4986 C   0  0  0  0  0  0
  -29.5142  -12.5201   18.2524 C   0  0  0  0  0  0
  -28.0451  -12.3341   18.6650 C   0  0  0  0  0  0
  -27.6468  -13.2368   19.8646 C   0  0  2  0  0  0
  -28.6958  -13.1784   21.0050 C   0  0  0  0  0  0
  -25.2374  -13.8008   20.5466 C   0  0  0  0  0  0
  -24.1752  -13.0286   20.9142 C   0  0  0  0  0  0
  -24.6422  -11.6815   20.8747 C   0  0  0  0  0  0
  -23.9085  -10.4213   21.0391 C   0  0  0  0  0  0
  -24.3624   -9.4145   21.9168 C   0  0  0  0  0  0
  -23.6292   -8.2189   22.0747 C   0  0  0  0  0  0
  -22.4263   -8.0224   21.3540 C   0  0  0  0  0  0
  -21.9901   -9.0190   20.4635 C   0  0  0  0  0  0
  -22.7249  -10.2067   20.3046 C   0  0  0  0  0  0
  -21.6833   -6.0692   22.5278 C   0  0  0  0  0  0
  -21.4012   -6.5599   23.8205 C   0  0  0  0  0  0
  -21.3666   -5.6760   24.9171 C   0  0  0  0  0  0
  -21.6043   -4.3024   24.7226 C   0  0  0  0  0  0
  -21.8836   -3.8113   23.4342 C   0  0  0  0  0  0
  -21.9193   -4.6921   22.3403 C   0  0  0  0  0  0
  -22.7788  -13.5098   21.1788 C   0  0  0  0  0  0
  -22.1657   -4.2110   21.0978 F   0  0  0  0  0  0
  -21.5634   -3.4512   25.7744 F   0  0  0  0  0  0
  -29.9985  -13.5349   20.4334 N   0  0  0  0  0  0
  -26.2958  -12.9348   20.3327 N   0  0  0  0  0  0
  -25.9395  -11.6484   20.5871 N   0  0  0  0  0  0
  -22.0469  -12.8132   22.0414 N   0  0  0  0  0  0
  -25.3675  -15.1628   20.3474 N   0  0  0  0  0  0
  -31.8021  -14.7933   19.9726 O   0  0  0  0  0  0
  -21.6626   -6.8812   21.4236 O   0  0  0  0  0  0
  -22.3466  -14.5398   20.6621 O   0  0  0  0  0  0
  -24.6278  -31.8548   23.2019 C   0  0  0  0  0  0
  -25.9101  -32.4757   23.8349 C   0  0  1  0  0  0
  -27.2370  -27.3056   20.1128 C   0  0  0  0  0  0
  -25.5903  -33.8558   24.2275 N   0  0  0  0  0  0
  -23.4257  -30.4767   21.5427 C   0  0  2  0  0  0
  -24.8763  -28.9319   20.1052 C   0  0  0  0  0  0
  -22.7489  -29.4584   22.4911 C   0  0  0  0  0  0
  -18.0288  -28.1388   22.8486 C   0  0  0  0  0  0
  -24.1486  -36.7290   23.2642 C   0  0  0  0  0  0
  -25.9649  -30.7839   21.3737 C   0  0  0  0  0  0
  -26.0407  -29.4086   20.7164 C   0  0  0  0  0  0
  -27.2200  -28.6036   20.7158 C   0  0  0  0  0  0
  -26.0502  -26.8827   19.4776 C   0  0  0  0  0  0
  -24.8827  -27.6749   19.4777 C   0  0  0  0  0  0
  -23.6443  -29.8140   20.1551 C   0  0  0  0  0  0
  -25.4107  -36.3076   24.0329 C   0  0  1  0  0  0
  -20.5886  -28.3691   23.1279 C   0  0  2  0  0  0
  -20.6775  -26.9399   22.5432 C   0  0  0  0  0  0
  -19.5750  -26.6391   21.5225 C   0  0  0  0  0  0
  -18.1922  -26.7942   22.1613 C   0  0  0  0  0  0
  -19.1537  -28.8858   23.2885 C   0  0  0  0  0  0
  -18.9453  -30.1462   23.8900 C   0  0  0  0  0  0
  -17.6449  -30.6586   24.0583 C   0  0  0  0  0  0
  -25.9040  -34.9435   23.5100 C   0  0  0  0  0  0
  -16.5348  -29.9084   23.6337 C   0  0  0  0  0  0
  -16.7274  -28.6514   23.0333 C   0  0  0  0  0  0
  -26.4504  -31.6570   25.0713 C   0  0  0  0  0  0
  -25.3769  -31.3671   26.1465 C   0  0  0  0  0  0
  -27.0324  -30.2994   24.6142 C   0  0  0  0  0  0
  -27.6099  -32.4283   25.7448 C   0  0  0  0  0  0
  -27.5575  -37.1808   24.8451 C   0  0  0  0  0  0
  -21.4198  -29.3019   22.3653 N   0  0  0  0  0  0
  -26.4285  -37.3769   23.9398 N   0  0  0  0  0  0
  -24.6922  -31.0552   22.0978 N   0  0  0  0  0  0
  -23.4196  -28.8129   23.3009 O   0  0  0  0  0  0
  -28.3300  -26.4279   20.2368 O   0  0  0  0  0  0
  -26.5616  -34.8911   22.4674 O   0  0  0  0  0  0
  -23.5439  -32.1328   23.7352 O   0  0  0  0  0  0
  -27.0298  -17.7259   20.9911 C   0  0  0  0  0  0
  -27.3861  -19.0434   20.6801 C   0  0  0  0  0  0
  -27.9910  -16.7051   21.0672 C   0  0  0  0  0  0
  -29.7181  -18.3407   20.5712 C   0  0  0  0  0  0
  -28.7307  -19.4164   20.4774 C   0  0  0  0  0  0
  -29.3591  -16.9460   20.8561 C   0  0  0  0  0  0
  -28.7561  -23.9669   19.7609 C   0  0  0  0  0  0
  -29.3428  -21.3837   19.0530 C   0  0  0  0  0  0
  -31.9300  -15.4536   23.0631 C   0  0  0  0  0  0
  -28.4958  -25.2873   19.4226 C   0  0  0  0  0  0
  -31.0524  -16.2133   22.3767 C   0  0  0  0  0  0
  -29.1183  -22.9036   18.6966 C   0  0  0  0  0  0
  -28.7674  -23.3317   21.1482 C   0  0  0  0  0  0
  -28.2330  -21.8499   21.1367 C   0  0  0  0  0  0
  -28.9419  -20.8727   20.2532 N   0  0  0  0  0  0
  -30.2643  -15.8349   21.2633 N   0  0  0  0  0  0
  -29.8940  -20.6780   18.2005 O   0  0  0  0  0  0
  -31.4671  -12.5310   19.2076 H   0  0  0  0  0  0
  -30.3277  -11.4827   19.9856 H   0  0  0  0  0  0
  -29.8087  -11.7554   17.5332 H   0  0  0  0  0  0
  -29.6408  -13.4771   17.7461 H   0  0  0  0  0  0
  -27.9150  -11.2842   18.9342 H   0  0  0  0  0  0
  -27.3880  -12.5123   17.8130 H   0  0  0  0  0  0
  -27.6388  -14.2561   19.4809 H   0  0  0  0  0  0
  -28.7305  -12.1805   21.4448 H   0  0  0  0  0  0
  -28.4448  -13.8459   21.8264 H   0  0  0  0  0  0
  -25.2770   -9.5605   22.4743 H   0  0  0  0  0  0
  -23.9976   -7.4579   22.7464 H   0  0  0  0  0  0
  -21.0825   -8.8717   19.8951 H   0  0  0  0  0  0
  -22.3688  -10.9602   19.6166 H   0  0  0  0  0  0
  -21.2014   -7.6111   23.9690 H   0  0  0  0  0  0
  -21.1473   -6.0496   25.9070 H   0  0  0  0  0  0
  -22.0612   -2.7568   23.2869 H   0  0  0  0  0  0
  -22.4109  -11.9853   22.4884 H   0  0  0  0  0  0
  -21.1106  -13.1205   22.2630 H   0  0  0  0  0  0
  -24.5774  -15.7915   20.4320 H   0  0  0  0  0  0
  -26.2114  -15.6274   20.0352 H   0  0  0  0  0  0
  -26.7169  -32.5424   23.1101 H   0  0  0  0  0  0
  -25.0090  -33.9713   25.0448 H   0  0  0  0  0  0
  -22.7210  -31.2969   21.3982 H   0  0  0  0  0  0
  -23.3755  -35.9616   23.3284 H   0  0  0  0  0  0
  -24.3588  -36.8938   22.2065 H   0  0  0  0  0  0
  -23.7243  -37.6479   23.6688 H   0  0  0  0  0  0
  -26.0828  -31.5449   20.6021 H   0  0  0  0  0  0
  -26.8486  -30.8411   21.9967 H   0  0  0  0  0  0
  -28.1073  -28.9581   21.2198 H   0  0  0  0  0  0
  -26.0005  -25.9115   19.0094 H   0  0  0  0  0  0
  -23.9903  -27.3012   18.9981 H   0  0  0  0  0  0
  -23.7713  -30.5936   19.4026 H   0  0  0  0  0  0
  -22.7655  -29.2468   19.8468 H   0  0  0  0  0  0
  -25.1309  -36.1922   25.0829 H   0  0  0  0  0  0
  -20.9976  -28.3269   24.1395 H   0  0  0  0  0  0
  -20.5667  -26.2288   23.3633 H   0  0  0  0  0  0
  -21.6647  -26.7423   22.1214 H   0  0  0  0  0  0
  -19.6910  -25.6309   21.1229 H   0  0  0  0  0  0
  -19.6712  -27.3236   20.6776 H   0  0  0  0  0  0
  -17.4210  -26.6728   21.3992 H   0  0  0  0  0  0
  -18.0288  -26.0070   22.8989 H   0  0  0  0  0  0
  -19.7919  -30.7299   24.2246 H   0  0  0  0  0  0
  -17.4991  -31.6263   24.5198 H   0  0  0  0  0  0
  -15.5342  -30.2979   23.7677 H   0  0  0  0  0  0
  -15.8677  -28.0868   22.6997 H   0  0  0  0  0  0
  -24.5956  -30.7007   25.7792 H   0  0  0  0  0  0
  -24.8966  -32.2818   26.4943 H   0  0  0  0  0  0
  -25.8145  -30.8815   27.0197 H   0  0  0  0  0  0
  -26.2865  -29.6733   24.1235 H   0  0  0  0  0  0
  -27.4088  -29.7261   25.4623 H   0  0  0  0  0  0
  -27.8712  -30.4273   23.9298 H   0  0  0  0  0  0
  -27.2760  -33.3598   26.2018 H   0  0  0  0  0  0
  -28.3899  -32.6790   25.0249 H   0  0  0  0  0  0
  -28.0762  -31.8387   26.5350 H   0  0  0  0  0  0
  -28.2589  -38.0106   24.7483 H   0  0  0  0  0  0
  -28.1072  -36.2636   24.6287 H   0  0  0  0  0  0
  -27.2296  -37.1476   25.8855 H   0  0  0  0  0  0
  -20.9374  -29.8721   21.6851 H   0  0  0  0  0  0
  -26.0155  -38.2833   24.1418 H   0  0  0  0  0  0
  -25.9951  -17.5120   21.2149 H   0  0  0  0  0  0
  -26.5912  -19.7732   20.6254 H   0  0  0  0  0  0
  -27.6647  -15.7335   21.3890 H   0  0  0  0  0  0
  -30.7627  -18.6037   20.4791 H   0  0  0  0  0  0
  -32.1368  -14.4187   22.8253 H   0  0  0  0  0  0
  -32.4718  -15.8772   23.8985 H   0  0  0  0  0  0
  -28.5227  -25.5860   18.3845 H   0  0  0  0  0  0
  -30.9011  -17.2395   22.6847 H   0  0  0  0  0  0
  -30.0220  -23.2499   18.1912 H   0  0  0  0  0  0
  -28.3316  -22.9321   17.9422 H   0  0  0  0  0  0
  -28.1848  -23.9478   21.8330 H   0  0  0  0  0  0
  -29.7917  -23.3372   21.5225 H   0  0  0  0  0  0
  -27.1878  -21.8855   20.8244 H   0  0  0  0  0  0
  -28.2309  -21.4574   22.1529 H   0  0  0  0  0  0
  1 25  1  0  0  0
  1 30  2  0  0  0
  1 86  1  0  0  0
  2  3  1  0  0  0
  2 25  1  0  0  0
  2 88  1  0  0  0
  2 89  1  0  0  0
  3  4  1  0  0  0
  3 90  1  0  0  0
  3 91  1  0  0  0
  4  5  1  0  0  0
  4 92  1  0  0  0
  4 93  1  0  0  0
  5  6  1  0  0  0
  5 26  1  0  0  0
  5 94  1  0  0  0
  6 25  1  0  0  0
  6 95  1  0  0  0
  6 96  1  0  0  0
  7  8  2  0  0  0
  7 26  1  0  0  0
  7 29  1  0  0  0
  8  9  1  0  0  0
  8 22  1  0  0  0
  9 10  1  0  0  0
  9 27  2  0  0  0
 10 11  2  0  0  0
 10 15  1  0  0  0
 11 12  1  0  0  0
 11 97  1  0  0  0
 12 13  2  0  0  0
 12 98  1  0  0  0
 13 14  1  0  0  0
 13 31  1  0  0  0
 14 15  2  0  0  0
 14 99  1  0  0  0
 15100  1  0  0  0
 16 17  2  0  0  0
 16 21  1  0  0  0
 16 31  1  0  0  0
 17 18  1  0  0  0
 17101  1  0  0  0
 18 19  2  0  0  0
 18102  1  0  0  0
 19 20  1  0  0  0
 19 24  1  0  0  0
 20 21  2  0  0  0
 20103  1  0  0  0
 21 23  1  0  0  0
 22 28  1  0  0  0
 22 32  2  0  0  0
 26 27  1  0  0  0
 28104  1  0  0  0
 28105  1  0  0  0
 29106  1  0  0  0
 29107  1  0  0  0
 33 34  1  0  0  0
 33 66  1  0  0  0
 33 70  2  0  0  0
 34 36  1  0  0  0
 34 59  1  0  0  0
 34108  1  0  0  0
 35 44  2  0  0  0
 35 45  1  0  0  0
 35 68  1  0  0  0
 36 56  1  0  0  0
 36109  1  0  0  0
 37 39  1  0  0  0
 37 47  1  0  0  0
 37 66  1  0  0  0
 37110  1  0  0  0
 38 43  2  0  0  0
 38 46  1  0  0  0
 38 47  1  0  0  0
 39 64  1  0  0  0
 39 67  2  0  0  0
 40 52  1  0  0  0
 40 53  2  0  0  0
 40 58  1  0  0  0
 41111  1  0  0  0
 41112  1  0  0  0
 41113  1  0  0  0
 41 48  1  0  0  0
 42 43  1  0  0  0
 42 66  1  0  0  0
 42114  1  0  0  0
 42115  1  0  0  0
 43 44  1  0  0  0
 44116  1  0  0  0
 45 46  2  0  0  0
 45117  1  0  0  0
 46118  1  0  0  0
 47119  1  0  0  0
 47120  1  0  0  0
 48 56  1  0  0  0
 48 65  1  0  0  0
 48121  1  0  0  0
 49 50  1  0  0  0
 49 53  1  0  0  0
 49 64  1  0  0  0
 49122  1  0  0  0
 50 51  1  0  0  0
 50123  1  0  0  0
 50124  1  0  0  0
 51 52  1  0  0  0
 51125  1  0  0  0
 51126  1  0  0  0
 52127  1  0  0  0
 52128  1  0  0  0
 53 54  1  0  0  0
 54 55  2  0  0  0
 54129  1  0  0  0
 55 57  1  0  0  0
 55130  1  0  0  0
 56 69  2  0  0  0
 57 58  2  0  0  0
 57131  1  0  0  0
 58132  1  0  0  0
 59 60  1  0  0  0
 59 61  1  0  0  0
 59 62  1  0  0  0
 60133  1  0  0  0
 60134  1  0  0  0
 60135  1  0  0  0
 61136  1  0  0  0
 61137  1  0  0  0
 61138  1  0  0  0
 62139  1  0  0  0
 62140  1  0  0  0
 62141  1  0  0  0
 63 65  1  0  0  0
 63142  1  0  0  0
 63143  1  0  0  0
 63144  1  0  0  0
 64145  1  0  0  0
 65146  1  0  0  0
 68 80  1  0  0  0
 71 72  2  0  0  0
 71 73  1  0  0  0
 71147  1  0  0  0
 72 75  1  0  0  0
 72148  1  0  0  0
 73 76  2  0  0  0
 73149  1  0  0  0
 74 75  2  0  0  0
 74 76  1  0  0  0
 74150  1  0  0  0
 75 85  1  0  0  0
 76 86  1  0  0  0
 77 80  2  0  0  0
 77 82  1  0  0  0
 77 83  1  0  0  0
 78 82  1  0  0  0
 78 85  1  0  0  0
 78 87  2  0  0  0
 79 81  2  0  0  0
 79151  1  0  0  0
 79152  1  0  0  0
 80153  1  0  0  0
 81 86  1  0  0  0
 81154  1  0  0  0
 82155  1  0  0  0
 82156  1  0  0  0
 83 84  1  0  0  0
 83157  1  0  0  0
 83158  1  0  0  0
 84 85  1  0  0  0
 84159  1  0  0  0
 84160  1  0  0  0
M  ISO  4   1 100  68 101  80 101  86 100
M  END
> <chiral flag>
0

> <version>
0

> <s_m_source_file>
/data/baiqing/PycharmProjects/Reinvent-master-3.2/result/LINK_invent/BTK/process_docking_weight1_custom_product_contain_oxygen_bond_distance_aromatic_linkinvent_7_9_3/rearranged_h_0087.sdf

> <i_m_source_file_index>
74

> <r_mmod_Potential_Energy-OPLS-2005>
469.268096923828

> <r_mmod_Stretch_Energy-OPLS-2005>
115.794479370117

> <r_mmod_Bend_Energy-OPLS-2005>
192.735824584961

> <r_mmod_Torsional_Energy-OPLS-2005>
366.522155761719

> <r_mmod_Improper_Torsional_Energy-OPLS-2005>
7.74859380722046

> <r_mmod_Van_der_Waal_Energy-OPLS-2005>
162.611083984375

> <r_mmod_Electrostatic_Energy-OPLS-2005>
-252.096923828125

> <r_mmod_Solvation_Energy-OPLS-2005>
-198.605865478516

> <b_mmod_Minimization_Converged-OPLS-2005>
0

> <r_mmod_RMS_Derivative-OPLS-2005>
3.79397630691528

$$$$
74
                    3D
 Structure written by MMmdl.
155164  0  0  1  0            999 V2000
  -30.6850  -14.5853   20.5643 C   0  0  0  0  0  0
  -30.4198  -12.3772   19.4711 C   0  0  0  0  0  0
  -29.5098  -12.5253   18.2349 C   0  0  0  0  0  0
  -28.0328  -12.3544   18.6341 C   0  0  0  0  0  0
  -27.6503  -13.2252   19.8619 C   0  0  2  0  0  0
  -28.6852  -13.0984   21.0040 C   0  0  0  0  0  0
  -25.2539  -13.8202   20.5621 C   0  0  0  0  0  0
  -24.1824  -13.0451   20.9179 C   0  0  0  0  0  0
  -24.6414  -11.6929   20.8730 C   0  0  0  0  0  0
  -23.9076  -10.4295   21.0400 C   0  0  0  0  0  0
  -24.3630   -9.4209   21.9183 C   0  0  0  0  0  0
  -23.6310   -8.2248   22.0747 C   0  0  0  0  0  0
  -22.4301   -8.0290   21.3536 C   0  0  0  0  0  0
  -21.9932   -9.0259   20.4630 C   0  0  0  0  0  0
  -22.7250  -10.2140   20.3037 C   0  0  0  0  0  0
  -21.6851   -6.0751   22.5285 C   0  0  0  0  0  0
  -21.4011   -6.5649   23.8222 C   0  0  0  0  0  0
  -21.3650   -5.6793   24.9176 C   0  0  0  0  0  0
  -21.6042   -4.3064   24.7227 C   0  0  0  0  0  0
  -21.8811   -3.8152   23.4349 C   0  0  0  0  0  0
  -21.9198   -4.6973   22.3404 C   0  0  0  0  0  0
  -22.7856  -13.5230   21.1866 C   0  0  0  0  0  0
  -22.1667   -4.2164   21.0985 F   0  0  0  0  0  0
  -21.5616   -3.4552   25.7737 F   0  0  0  0  0  0
  -30.0067  -13.4042   20.4471 N   0  0  0  0  0  0
  -26.2965  -12.9385   20.3274 N   0  0  0  0  0  0
  -25.9342  -11.6536   20.5737 N   0  0  0  0  0  0
  -22.0522  -12.8211   22.0436 N   0  0  0  0  0  0
  -25.4238  -15.1913   20.3956 N   0  0  0  0  0  0
  -31.8456  -14.6715   20.1508 O   0  0  0  0  0  0
  -21.6641   -6.8909   21.4247 O   0  0  0  0  0  0
  -22.3548  -14.5557   20.6752 O   0  0  0  0  0  0
  -24.6147  -31.8626   23.2110 C   0  0  0  0  0  0
  -25.9021  -32.4778   23.8422 C   0  0  1  0  0  0
  -27.2308  -27.3894   20.1431 C   0  0  0  0  0  0
  -25.5876  -33.8573   24.2321 N   0  0  0  0  0  0
  -23.4094  -30.4872   21.5410 C   0  0  2  0  0  0
  -24.8677  -28.9516   20.1098 C   0  0  0  0  0  0
  -22.7403  -29.4652   22.4879 C   0  0  0  0  0  0
  -18.0258  -28.1427   22.8506 C   0  0  0  0  0  0
  -24.1456  -36.7267   23.2667 C   0  0  0  0  0  0
  -25.9403  -30.8118   21.3806 C   0  0  0  0  0  0
  -26.0201  -29.4420   20.7359 C   0  0  0  0  0  0
  -27.2050  -28.6647   20.7626 C   0  0  0  0  0  0
  -26.0813  -26.9463   19.4601 C   0  0  0  0  0  0
  -24.8957  -27.7053   19.4594 C   0  0  0  0  0  0
  -23.6277  -29.8175   20.1562 C   0  0  0  0  0  0
  -25.4071  -36.3049   24.0356 C   0  0  1  0  0  0
  -20.5856  -28.3727   23.1265 C   0  0  2  0  0  0
  -20.6749  -26.9457   22.5391 C   0  0  0  0  0  0
  -19.5713  -26.6397   21.5222 C   0  0  0  0  0  0
  -18.1892  -26.7989   22.1635 C   0  0  0  0  0  0
  -19.1521  -28.8893   23.2873 C   0  0  0  0  0  0
  -18.9458  -30.1517   23.8888 C   0  0  0  0  0  0
  -17.6449  -30.6629   24.0607 C   0  0  0  0  0  0
  -25.9008  -34.9429   23.5116 C   0  0  0  0  0  0
  -16.5332  -29.9119   23.6394 C   0  0  0  0  0  0
  -16.7256  -28.6548   23.0406 C   0  0  0  0  0  0
  -26.4500  -31.6591   25.0760 C   0  0  0  0  0  0
  -25.3788  -31.3657   26.1497 C   0  0  0  0  0  0
  -27.0437  -30.3053   24.6209 C   0  0  0  0  0  0
  -27.6057  -32.4409   25.7475 C   0  0  0  0  0  0
  -27.5535  -37.1741   24.8478 C   0  0  0  0  0  0
  -21.4121  -29.3065   22.3620 N   0  0  0  0  0  0
  -26.4256  -37.3739   23.9446 N   0  0  0  0  0  0
  -24.6704  -31.0725   22.1001 N   0  0  0  0  0  0
  -23.4140  -28.8192   23.2960 O   0  0  0  0  0  0
  -28.3484  -26.5764   20.1495 O   0  0  0  0  0  0
  -26.5573  -34.8893   22.4675 O   0  0  0  0  0  0
  -23.5325  -32.1398   23.7463 O   0  0  0  0  0  0
  -28.1019  -18.1818   21.5930 C   0  0  0  0  0  0
  -27.5644  -19.5163   21.5580 C   0  0  0  0  0  0
  -26.8377  -23.7261   20.5868 C   0  0  0  0  0  0
  -28.0995  -24.1895   21.0585 C   0  0  0  0  0  0
  -29.4194  -18.0981   21.2120 C   0  0  0  0  0  0
  -28.8210  -23.0380   21.3613 C   0  0  0  0  0  0
  -26.8511  -22.3615   20.5735 C   0  0  0  0  0  0
  -28.4582  -20.4884   21.1610 C   0  0  0  0  0  0
  -30.4100  -16.9666   21.0910 C   0  0  0  0  0  0
  -30.1718  -22.9166   22.0040 C   0  0  0  0  0  0
  -28.4863  -25.6741   21.2807 C   0  0  0  0  0  0
  -28.0750  -21.8858   21.0315 N   0  0  0  0  0  0
  -29.9671  -15.6767   20.9783 N   0  0  0  0  0  0
  -31.6100  -17.2682   21.0765 O   0  0  0  0  0  0
  -25.8425  -21.5279   20.2032 O   0  0  0  0  0  0
  -30.0161  -19.7289   20.8541 S   0  0  0  0  0  0
  -31.4679  -12.4675   19.1818 H   0  0  0  0  0  0
  -30.3216  -11.3848   19.9096 H   0  0  0  0  0  0
  -29.7857  -11.7943   17.4723 H   0  0  0  0  0  0
  -29.6572  -13.5092   17.7857 H   0  0  0  0  0  0
  -27.8717  -11.3005   18.8612 H   0  0  0  0  0  0
  -27.3840  -12.5852   17.7874 H   0  0  0  0  0  0
  -27.6647  -14.2580   19.5120 H   0  0  0  0  0  0
  -28.6794  -12.0934   21.4225 H   0  0  0  0  0  0
  -28.4239  -13.7652   21.8278 H   0  0  0  0  0  0
  -25.2772   -9.5696   22.4758 H   0  0  0  0  0  0
  -24.0018   -7.4638   22.7463 H   0  0  0  0  0  0
  -21.0860   -8.8770   19.8932 H   0  0  0  0  0  0
  -22.3711  -10.9677   19.6145 H   0  0  0  0  0  0
  -21.1995   -7.6153   23.9722 H   0  0  0  0  0  0
  -21.1472   -6.0529   25.9080 H   0  0  0  0  0  0
  -22.0592   -2.7616   23.2839 H   0  0  0  0  0  0
  -22.4160  -11.9867   22.4778 H   0  0  0  0  0  0
  -21.1142  -13.1200   22.2641 H   0  0  0  0  0  0
  -24.6362  -15.8286   20.4265 H   0  0  0  0  0  0
  -26.2539  -15.6132   20.0006 H   0  0  0  0  0  0
  -26.7061  -32.5502   23.1179 H   0  0  0  0  0  0
  -25.0102  -33.9785   25.0526 H   0  0  0  0  0  0
  -22.6994  -31.3039   21.3915 H   0  0  0  0  0  0
  -23.3713  -35.9585   23.3326 H   0  0  0  0  0  0
  -24.3543  -36.8924   22.2079 H   0  0  0  0  0  0
  -23.7217  -37.6467   23.6703 H   0  0  0  0  0  0
  -26.0675  -31.5696   20.6072 H   0  0  0  0  0  0
  -26.8209  -30.8677   22.0089 H   0  0  0  0  0  0
  -28.0877  -29.0325   21.2695 H   0  0  0  0  0  0
  -26.1112  -26.0119   18.9203 H   0  0  0  0  0  0
  -24.0242  -27.3398   18.9362 H   0  0  0  0  0  0
  -23.7348  -30.5872   19.3910 H   0  0  0  0  0  0
  -22.7588  -29.2265   19.8653 H   0  0  0  0  0  0
  -25.1246  -36.1881   25.0835 H   0  0  0  0  0  0
  -20.9978  -28.3352   24.1375 H   0  0  0  0  0  0
  -20.5677  -26.2363   23.3616 H   0  0  0  0  0  0
  -21.6609  -26.7483   22.1178 H   0  0  0  0  0  0
  -19.6874  -25.6283   21.1315 H   0  0  0  0  0  0
  -19.6676  -27.3157   20.6725 H   0  0  0  0  0  0
  -17.4157  -26.6782   21.4021 H   0  0  0  0  0  0
  -18.0267  -26.0120   22.9021 H   0  0  0  0  0  0
  -19.7924  -30.7355   24.2231 H   0  0  0  0  0  0
  -17.5002  -31.6310   24.5216 H   0  0  0  0  0  0
  -15.5341  -30.3010   23.7770 H   0  0  0  0  0  0
  -15.8651  -28.0867   22.7147 H   0  0  0  0  0  0
  -24.5956  -30.7016   25.7819 H   0  0  0  0  0  0
  -24.8989  -32.2779   26.5022 H   0  0  0  0  0  0
  -25.8162  -30.8763   27.0212 H   0  0  0  0  0  0
  -26.3005  -29.6623   24.1472 H   0  0  0  0  0  0
  -27.4439  -29.7469   25.4701 H   0  0  0  0  0  0
  -27.8711  -30.4410   23.9259 H   0  0  0  0  0  0
  -27.2653  -33.3714   26.2022 H   0  0  0  0  0  0
  -28.3817  -32.6981   25.0260 H   0  0  0  0  0  0
  -28.0764  -31.8591   26.5419 H   0  0  0  0  0  0
  -28.2534  -38.0056   24.7540 H   0  0  0  0  0  0
  -28.1069  -36.2588   24.6285 H   0  0  0  0  0  0
  -27.2275  -37.1367   25.8895 H   0  0  0  0  0  0
  -20.9287  -29.8755   21.6818 H   0  0  0  0  0  0
  -26.0134  -38.2791   24.1486 H   0  0  0  0  0  0
  -27.4943  -17.3381   21.8906 H   0  0  0  0  0  0
  -26.5319  -19.7117   21.8110 H   0  0  0  0  0  0
  -25.9941  -24.3344   20.3027 H   0  0  0  0  0  0
  -30.5815  -23.8841   22.2867 H   0  0  0  0  0  0
  -30.8904  -22.4484   21.3320 H   0  0  0  0  0  0
  -30.1145  -22.3225   22.9173 H   0  0  0  0  0  0
  -29.5292  -25.7249   21.5877 H   0  0  0  0  0  0
  -27.9213  -26.0449   22.1377 H   0  0  0  0  0  0
  -28.9871  -15.5322   21.1486 H   0  0  0  0  0  0
  -25.0302  -22.0229   20.2454 H   0  0  0  0  0  0
  1 25  1  0  0  0
  1 30  2  0  0  0
  1 83  1  0  0  0
  2  3  1  0  0  0
  2 25  1  0  0  0
  2 87  1  0  0  0
  2 88  1  0  0  0
  3  4  1  0  0  0
  3 89  1  0  0  0
  3 90  1  0  0  0
  4  5  1  0  0  0
  4 91  1  0  0  0
  4 92  1  0  0  0
  5  6  1  0  0  0
  5 26  1  0  0  0
  5 93  1  0  0  0
  6 25  1  0  0  0
  6 94  1  0  0  0
  6 95  1  0  0  0
  7  8  2  0  0  0
  7 26  1  0  0  0
  7 29  1  0  0  0
  8  9  1  0  0  0
  8 22  1  0  0  0
  9 10  1  0  0  0
  9 27  2  0  0  0
 10 11  2  0  0  0
 10 15  1  0  0  0
 11 12  1  0  0  0
 11 96  1  0  0  0
 12 13  2  0  0  0
 12 97  1  0  0  0
 13 14  1  0  0  0
 13 31  1  0  0  0
 14 15  2  0  0  0
 14 98  1  0  0  0
 15 99  1  0  0  0
 16 17  2  0  0  0
 16 21  1  0  0  0
 16 31  1  0  0  0
 17 18  1  0  0  0
 17100  1  0  0  0
 18 19  2  0  0  0
 18101  1  0  0  0
 19 20  1  0  0  0
 19 24  1  0  0  0
 20 21  2  0  0  0
 20102  1  0  0  0
 21 23  1  0  0  0
 22 28  1  0  0  0
 22 32  2  0  0  0
 26 27  1  0  0  0
 28103  1  0  0  0
 28104  1  0  0  0
 29105  1  0  0  0
 29106  1  0  0  0
 33 34  1  0  0  0
 33 66  1  0  0  0
 33 70  2  0  0  0
 34 36  1  0  0  0
 34 59  1  0  0  0
 34107  1  0  0  0
 35 44  2  0  0  0
 35 45  1  0  0  0
 35 68  1  0  0  0
 36 56  1  0  0  0
 36108  1  0  0  0
 37 39  1  0  0  0
 37 47  1  0  0  0
 37 66  1  0  0  0
 37109  1  0  0  0
 38 43  2  0  0  0
 38 46  1  0  0  0
 38 47  1  0  0  0
 39 64  1  0  0  0
 39 67  2  0  0  0
 40 52  1  0  0  0
 40 53  2  0  0  0
 40 58  1  0  0  0
 41110  1  0  0  0
 41111  1  0  0  0
 41112  1  0  0  0
 41 48  1  0  0  0
 42 43  1  0  0  0
 42 66  1  0  0  0
 42113  1  0  0  0
 42114  1  0  0  0
 43 44  1  0  0  0
 44115  1  0  0  0
 45 46  2  0  0  0
 45116  1  0  0  0
 46117  1  0  0  0
 47118  1  0  0  0
 47119  1  0  0  0
 48 56  1  0  0  0
 48 65  1  0  0  0
 48120  1  0  0  0
 49 50  1  0  0  0
 49 53  1  0  0  0
 49 64  1  0  0  0
 49121  1  0  0  0
 50 51  1  0  0  0
 50122  1  0  0  0
 50123  1  0  0  0
 51 52  1  0  0  0
 51124  1  0  0  0
 51125  1  0  0  0
 52126  1  0  0  0
 52127  1  0  0  0
 53 54  1  0  0  0
 54 55  2  0  0  0
 54128  1  0  0  0
 55 57  1  0  0  0
 55129  1  0  0  0
 56 69  2  0  0  0
 57 58  2  0  0  0
 57130  1  0  0  0
 58131  1  0  0  0
 59 60  1  0  0  0
 59 61  1  0  0  0
 59 62  1  0  0  0
 60132  1  0  0  0
 60133  1  0  0  0
 60134  1  0  0  0
 61135  1  0  0  0
 61136  1  0  0  0
 61137  1  0  0  0
 62138  1  0  0  0
 62139  1  0  0  0
 62140  1  0  0  0
 63 65  1  0  0  0
 63141  1  0  0  0
 63142  1  0  0  0
 63143  1  0  0  0
 64144  1  0  0  0
 65145  1  0  0  0
 68 81  1  0  0  0
 71 72  1  0  0  0
 71 75  2  0  0  0
 71146  1  0  0  0
 72 78  2  0  0  0
 72147  1  0  0  0
 73 74  1  0  0  0
 73 77  2  0  0  0
 73148  1  0  0  0
 74 76  2  0  0  0
 74 81  1  0  0  0
 75 79  1  0  0  0
 75 86  1  0  0  0
 76 80  1  0  0  0
 76 82  1  0  0  0
 77 82  1  0  0  0
 77 85  1  0  0  0
 78 82  1  0  0  0
 78 86  1  0  0  0
 79 83  1  0  0  0
 79 84  2  0  0  0
 80149  1  0  0  0
 80150  1  0  0  0
 80151  1  0  0  0
 81152  1  0  0  0
 81153  1  0  0  0
 83154  1  0  0  0
 85155  1  0  0  0
M  ISO  4   1 100  68 101  81 101  83 100
M  END
> <chiral flag>
0

> <version>
0

> <s_m_source_file>
/data/baiqing/PycharmProjects/Reinvent-master-3.2/result/LINK_invent/BTK/process_docking_weight1_custom_product_contain_oxygen_bond_distance_aromatic_linkinvent_7_9_3/rearranged_h_0087.sdf

> <i_m_source_file_index>
75

> <r_mmod_Potential_Energy-OPLS-2005>
-97.7293167114258

> <r_mmod_Stretch_Energy-OPLS-2005>
53.4796752929688

> <r_mmod_Bend_Energy-OPLS-2005>
112.165519714355

> <r_mmod_Torsional_Energy-OPLS-2005>
257.174163818359

> <r_mmod_Improper_Torsional_Energy-OPLS-2005>
5.04487895965576

> <r_mmod_Van_der_Waal_Energy-OPLS-2005>
129.729873657227

> <r_mmod_Electrostatic_Energy-OPLS-2005>
-448.993896484375

> <r_mmod_Solvation_Energy-OPLS-2005>
-238.243850708008

> <b_mmod_Minimization_Converged-OPLS-2005>
0

> <r_mmod_RMS_Derivative-OPLS-2005>
4.89374113082886

$$$$
75
                    3D
 Structure written by MMmdl.
148156  0  0  1  0            999 V2000
  -30.5620  -14.9156   20.4227 C   0  0  0  0  0  0
  -30.4377  -12.5653   19.4945 C   0  0  0  0  0  0
  -29.5192  -12.5229   18.2520 C   0  0  0  0  0  0
  -28.0511  -12.3168   18.6696 C   0  0  0  0  0  0
  -27.6314  -13.2465   19.8387 C   0  0  2  0  0  0
  -28.6753  -13.2658   20.9757 C   0  0  0  0  0  0
  -25.2472  -13.8212   20.5711 C   0  0  0  0  0  0
  -24.1787  -13.0439   20.9230 C   0  0  0  0  0  0
  -24.6400  -11.6924   20.8751 C   0  0  0  0  0  0
  -23.9084  -10.4296   21.0405 C   0  0  0  0  0  0
  -24.3630   -9.4210   21.9184 C   0  0  0  0  0  0
  -23.6304   -8.2244   22.0752 C   0  0  0  0  0  0
  -22.4283   -8.0282   21.3546 C   0  0  0  0  0  0
  -21.9924   -9.0255   20.4644 C   0  0  0  0  0  0
  -22.7254  -10.2135   20.3054 C   0  0  0  0  0  0
  -21.6857   -6.0740   22.5281 C   0  0  0  0  0  0
  -21.4014   -6.5643   23.8214 C   0  0  0  0  0  0
  -21.3660   -5.6794   24.9175 C   0  0  0  0  0  0
  -21.6043   -4.3057   24.7225 C   0  0  0  0  0  0
  -21.8820   -3.8150   23.4346 C   0  0  0  0  0  0
  -21.9193   -4.6969   22.3403 C   0  0  0  0  0  0
  -22.7807  -13.5212   21.1881 C   0  0  0  0  0  0
  -22.1664   -4.2154   21.0981 F   0  0  0  0  0  0
  -21.5628   -3.4539   25.7737 F   0  0  0  0  0  0
  -29.9546  -13.6642   20.3767 N   0  0  0  0  0  0
  -26.2897  -12.9444   20.3246 N   0  0  0  0  0  0
  -25.9333  -11.6575   20.5739 N   0  0  0  0  0  0
  -22.0455  -12.8196   22.0431 N   0  0  0  0  0  0
  -25.4133  -15.1941   20.4136 N   0  0  0  0  0  0
  -31.7676  -14.9579   20.1563 O   0  0  0  0  0  0
  -21.6643   -6.8881   21.4244 O   0  0  0  0  0  0
  -22.3494  -14.5517   20.6723 O   0  0  0  0  0  0
  -24.6411  -31.8465   23.1899 C   0  0  0  0  0  0
  -25.9197  -32.4708   23.8285 C   0  0  1  0  0  0
  -27.2164  -27.1518   20.1525 C   0  0  0  0  0  0
  -25.5952  -33.8515   24.2203 N   0  0  0  0  0  0
  -23.4439  -30.4654   21.5345 C   0  0  2  0  0  0
  -24.8944  -28.8937   20.1107 C   0  0  0  0  0  0
  -22.7556  -29.4560   22.4861 C   0  0  0  0  0  0
  -18.0304  -28.1393   22.8482 C   0  0  0  0  0  0
  -24.1488  -36.7257   23.2641 C   0  0  0  0  0  0
  -25.9986  -30.7231   21.3884 C   0  0  0  0  0  0
  -26.0699  -29.3340   20.7343 C   0  0  0  0  0  0
  -27.2316  -28.4765   20.7434 C   0  0  0  0  0  0
  -26.0213  -26.8157   19.4792 C   0  0  0  0  0  0
  -24.8818  -27.6465   19.4689 C   0  0  0  0  0  0
  -23.6701  -29.7942   20.1535 C   0  0  0  0  0  0
  -25.4118  -36.3040   24.0319 C   0  0  1  0  0  0
  -20.5913  -28.3721   23.1231 C   0  0  2  0  0  0
  -20.6775  -26.9420   22.5400 C   0  0  0  0  0  0
  -19.5750  -26.6382   21.5204 C   0  0  0  0  0  0
  -18.1938  -26.7933   22.1624 C   0  0  0  0  0  0
  -19.1560  -28.8872   23.2854 C   0  0  0  0  0  0
  -18.9479  -30.1466   23.8881 C   0  0  0  0  0  0
  -17.6477  -30.6590   24.0555 C   0  0  0  0  0  0
  -25.9070  -34.9416   23.5068 C   0  0  0  0  0  0
  -16.5367  -29.9083   23.6335 C   0  0  0  0  0  0
  -16.7289  -28.6499   23.0364 C   0  0  0  0  0  0
  -26.4524  -31.6564   25.0715 C   0  0  0  0  0  0
  -25.3716  -31.3745   26.1414 C   0  0  0  0  0  0
  -27.0383  -30.2960   24.6284 C   0  0  0  0  0  0
  -27.6060  -32.4323   25.7502 C   0  0  0  0  0  0
  -27.5575  -37.1778   24.8467 C   0  0  0  0  0  0
  -21.4252  -29.3052   22.3609 N   0  0  0  0  0  0
  -26.4284  -37.3749   23.9414 N   0  0  0  0  0  0
  -24.7141  -31.0330   22.0928 N   0  0  0  0  0  0
  -23.4205  -28.8109   23.3009 O   0  0  0  0  0  0
  -28.2665  -26.1685   20.1892 O   0  0  0  0  0  0
  -26.5657  -34.8913   22.4648 O   0  0  0  0  0  0
  -23.5537  -32.1346   23.7123 O   0  0  0  0  0  0
  -31.8023  -19.4073   20.4321 C   0  0  0  0  0  0
  -31.4396  -18.0375   20.4734 C   0  0  0  0  0  0
  -30.8508  -20.4547   20.3980 C   0  0  0  0  0  0
  -29.1256  -18.7315   20.4511 C   0  0  0  0  0  0
  -30.0908  -17.6033   20.4834 C   0  0  0  0  0  0
  -29.4726  -20.1754   20.4021 C   0  0  0  0  0  0
  -27.9876  -24.7365   20.3342 C   0  0  0  0  0  0
  -28.7920  -23.5821   20.1693 C   0  0  0  0  0  0
  -29.7817  -16.1002   20.5470 N   0  0  0  0  0  0
  -27.4011  -21.4480   19.1561 O   0  0  0  0  0  0
  -27.5033  -21.6471   21.6522 O   0  0  0  0  0  0
  -28.2183  -21.6855   20.3619 S   0  0  0  0  0  0
  -31.4730  -12.7124   19.1832 H   0  0  0  0  0  0
  -30.4199  -11.6116   20.0242 H   0  0  0  0  0  0
  -29.8323  -11.7262   17.5757 H   0  0  0  0  0  0
  -29.6146  -13.4554   17.6932 H   0  0  0  0  0  0
  -27.9405  -11.2747   18.9716 H   0  0  0  0  0  0
  -27.3893  -12.4569   17.8139 H   0  0  0  0  0  0
  -27.5969  -14.2503   19.4147 H   0  0  0  0  0  0
  -28.7537  -12.2892   21.4551 H   0  0  0  0  0  0
  -28.3830  -13.9708   21.7555 H   0  0  0  0  0  0
  -25.2773   -9.5687   22.4764 H   0  0  0  0  0  0
  -24.0012   -7.4635   22.7473 H   0  0  0  0  0  0
  -21.0855   -8.8777   19.8946 H   0  0  0  0  0  0
  -22.3712  -10.9677   19.6166 H   0  0  0  0  0  0
  -21.2005   -7.6151   23.9720 H   0  0  0  0  0  0
  -21.1482   -6.0523   25.9079 H   0  0  0  0  0  0
  -22.0597   -2.7613   23.2845 H   0  0  0  0  0  0
  -22.4082  -11.9866   22.4827 H   0  0  0  0  0  0
  -21.1065  -13.1206   22.2617 H   0  0  0  0  0  0
  -24.6393  -15.8411   20.5187 H   0  0  0  0  0  0
  -26.2490  -15.6353   20.0535 H   0  0  0  0  0  0
  -26.7261  -32.5322   23.1018 H   0  0  0  0  0  0
  -25.0064  -33.9631   25.0326 H   0  0  0  0  0  0
  -22.7455  -31.2906   21.3797 H   0  0  0  0  0  0
  -23.3756  -35.9582   23.3301 H   0  0  0  0  0  0
  -24.3570  -36.8890   22.2055 H   0  0  0  0  0  0
  -23.7237  -37.6450   23.6678 H   0  0  0  0  0  0
  -26.1500  -31.4764   20.6140 H   0  0  0  0  0  0
  -26.8708  -30.7762   22.0281 H   0  0  0  0  0  0
  -28.1276  -28.8069   21.2498 H   0  0  0  0  0  0
  -25.9479  -25.8631   18.9750 H   0  0  0  0  0  0
  -23.9874  -27.3065   18.9653 H   0  0  0  0  0  0
  -23.8054  -30.5691   19.3980 H   0  0  0  0  0  0
  -22.7854  -29.2351   19.8433 H   0  0  0  0  0  0
  -25.1297  -36.1874   25.0808 H   0  0  0  0  0  0
  -21.0011  -28.3319   24.1350 H   0  0  0  0  0  0
  -20.5645  -26.2343   23.3625 H   0  0  0  0  0  0
  -21.6644  -26.7408   22.1205 H   0  0  0  0  0  0
  -19.6908  -25.6289   21.1242 H   0  0  0  0  0  0
  -19.6680  -27.3187   20.6727 H   0  0  0  0  0  0
  -17.4193  -26.6682   21.4040 H   0  0  0  0  0  0
  -18.0345  -26.0078   22.9024 H   0  0  0  0  0  0
  -19.7956  -30.7282   24.2253 H   0  0  0  0  0  0
  -17.5028  -31.6271   24.5157 H   0  0  0  0  0  0
  -15.5364  -30.2974   23.7665 H   0  0  0  0  0  0
  -15.8693  -28.0801   22.7095 H   0  0  0  0  0  0
  -24.5921  -30.7062   25.7739 H   0  0  0  0  0  0
  -24.8876  -32.2918   26.4775 H   0  0  0  0  0  0
  -25.8009  -30.8974   27.0234 H   0  0  0  0  0  0
  -26.2994  -29.6685   24.1287 H   0  0  0  0  0  0
  -27.3991  -29.7255   25.4853 H   0  0  0  0  0  0
  -27.8904  -30.4191   23.9599 H   0  0  0  0  0  0
  -27.2658  -33.3641   26.2039 H   0  0  0  0  0  0
  -28.3897  -32.6857   25.0348 H   0  0  0  0  0  0
  -28.0702  -31.8475   26.5457 H   0  0  0  0  0  0
  -28.2577  -38.0089   24.7511 H   0  0  0  0  0  0
  -28.1084  -36.2614   24.6289 H   0  0  0  0  0  0
  -27.2293  -37.1416   25.8871 H   0  0  0  0  0  0
  -20.9464  -29.8769   21.6787 H   0  0  0  0  0  0
  -26.0157  -38.2817   24.1427 H   0  0  0  0  0  0
  -32.8531  -19.6628   20.4308 H   0  0  0  0  0  0
  -32.2456  -17.3199   20.5074 H   0  0  0  0  0  0
  -31.1812  -21.4829   20.3706 H   0  0  0  0  0  0
  -28.0710  -18.4980   20.4629 H   0  0  0  0  0  0
  -26.9567  -24.5848   20.6213 H   0  0  0  0  0  0
  -29.8321  -23.6674   19.8965 H   0  0  0  0  0  0
  -28.8033  -15.8909   20.6746 H   0  0  0  0  0  0
  1 25  1  0  0  0
  1 30  2  0  0  0
  1 79  1  0  0  0
  2  3  1  0  0  0
  2 25  1  0  0  0
  2 83  1  0  0  0
  2 84  1  0  0  0
  3  4  1  0  0  0
  3 85  1  0  0  0
  3 86  1  0  0  0
  4  5  1  0  0  0
  4 87  1  0  0  0
  4 88  1  0  0  0
  5  6  1  0  0  0
  5 26  1  0  0  0
  5 89  1  0  0  0
  6 25  1  0  0  0
  6 90  1  0  0  0
  6 91  1  0  0  0
  7  8  2  0  0  0
  7 26  1  0  0  0
  7 29  1  0  0  0
  8  9  1  0  0  0
  8 22  1  0  0  0
  9 10  1  0  0  0
  9 27  2  0  0  0
 10 11  2  0  0  0
 10 15  1  0  0  0
 11 12  1  0  0  0
 11 92  1  0  0  0
 12 13  2  0  0  0
 12 93  1  0  0  0
 13 14  1  0  0  0
 13 31  1  0  0  0
 14 15  2  0  0  0
 14 94  1  0  0  0
 15 95  1  0  0  0
 16 17  2  0  0  0
 16 21  1  0  0  0
 16 31  1  0  0  0
 17 18  1  0  0  0
 17 96  1  0  0  0
 18 19  2  0  0  0
 18 97  1  0  0  0
 19 20  1  0  0  0
 19 24  1  0  0  0
 20 21  2  0  0  0
 20 98  1  0  0  0
 21 23  1  0  0  0
 22 28  1  0  0  0
 22 32  2  0  0  0
 26 27  1  0  0  0
 28 99  1  0  0  0
 28100  1  0  0  0
 29101  1  0  0  0
 29102  1  0  0  0
 33 34  1  0  0  0
 33 66  1  0  0  0
 33 70  2  0  0  0
 34 36  1  0  0  0
 34 59  1  0  0  0
 34103  1  0  0  0
 35 44  2  0  0  0
 35 45  1  0  0  0
 35 68  1  0  0  0
 36 56  1  0  0  0
 36104  1  0  0  0
 37 39  1  0  0  0
 37 47  1  0  0  0
 37 66  1  0  0  0
 37105  1  0  0  0
 38 43  2  0  0  0
 38 46  1  0  0  0
 38 47  1  0  0  0
 39 64  1  0  0  0
 39 67  2  0  0  0
 40 52  1  0  0  0
 40 53  2  0  0  0
 40 58  1  0  0  0
 41106  1  0  0  0
 41107  1  0  0  0
 41108  1  0  0  0
 41 48  1  0  0  0
 42 43  1  0  0  0
 42 66  1  0  0  0
 42109  1  0  0  0
 42110  1  0  0  0
 43 44  1  0  0  0
 44111  1  0  0  0
 45 46  2  0  0  0
 45112  1  0  0  0
 46113  1  0  0  0
 47114  1  0  0  0
 47115  1  0  0  0
 48 56  1  0  0  0
 48 65  1  0  0  0
 48116  1  0  0  0
 49 50  1  0  0  0
 49 53  1  0  0  0
 49 64  1  0  0  0
 49117  1  0  0  0
 50 51  1  0  0  0
 50118  1  0  0  0
 50119  1  0  0  0
 51 52  1  0  0  0
 51120  1  0  0  0
 51121  1  0  0  0
 52122  1  0  0  0
 52123  1  0  0  0
 53 54  1  0  0  0
 54 55  2  0  0  0
 54124  1  0  0  0
 55 57  1  0  0  0
 55125  1  0  0  0
 56 69  2  0  0  0
 57 58  2  0  0  0
 57126  1  0  0  0
 58127  1  0  0  0
 59 60  1  0  0  0
 59 61  1  0  0  0
 59 62  1  0  0  0
 60128  1  0  0  0
 60129  1  0  0  0
 60130  1  0  0  0
 61131  1  0  0  0
 61132  1  0  0  0
 61133  1  0  0  0
 62134  1  0  0  0
 62135  1  0  0  0
 62136  1  0  0  0
 63 65  1  0  0  0
 63137  1  0  0  0
 63138  1  0  0  0
 63139  1  0  0  0
 64140  1  0  0  0
 65141  1  0  0  0
 68 77  1  0  0  0
 71 72  2  0  0  0
 71 73  1  0  0  0
 71142  1  0  0  0
 72 75  1  0  0  0
 72143  1  0  0  0
 73 76  2  0  0  0
 73144  1  0  0  0
 74 75  2  0  0  0
 74 76  1  0  0  0
 74145  1  0  0  0
 75 79  1  0  0  0
 76 82  1  0  0  0
 77 78  2  0  0  0
 77146  1  0  0  0
 78147  1  0  0  0
 78 82  1  0  0  0
 79148  1  0  0  0
 80 82  2  0  0  0
 81 82  2  0  0  0
M  ISO  4   1 100  68 101  77 101  79 100
M  END
> <chiral flag>
0

> <version>
0

> <s_m_source_file>
/data/baiqing/PycharmProjects/Reinvent-master-3.2/result/LINK_invent/BTK/process_docking_weight1_custom_product_contain_oxygen_bond_distance_aromatic_linkinvent_7_9_3/rearranged_h_0087.sdf

> <i_m_source_file_index>
76

> <r_mmod_Potential_Energy-OPLS-2005>
368.805389404297

> <r_mmod_Stretch_Energy-OPLS-2005>
229.589935302734

> <r_mmod_Bend_Energy-OPLS-2005>
226.583358764648

> <r_mmod_Torsional_Energy-OPLS-2005>
215.099166870117

> <r_mmod_Improper_Torsional_Energy-OPLS-2005>
4.78994607925415

> <r_mmod_Van_der_Waal_Energy-OPLS-2005>
130.5

> <r_mmod_Electrostatic_Energy-OPLS-2005>
-357.132141113281

> <r_mmod_Solvation_Energy-OPLS-2005>
-253.987335205078

> <b_mmod_Minimization_Converged-OPLS-2005>
0

> <r_mmod_RMS_Derivative-OPLS-2005>
0.930433690547943

$$$$
76
                    3D
 Structure written by MMmdl.
157166  0  0  1  0            999 V2000
  -30.6358  -14.5563   20.5450 C   0  0  0  0  0  0
  -30.4401  -12.3488   19.4344 C   0  0  0  0  0  0
  -29.5048  -12.5090   18.2150 C   0  0  0  0  0  0
  -28.0253  -12.3576   18.6252 C   0  0  0  0  0  0
  -27.6613  -13.2045   19.8734 C   0  0  2  0  0  0
  -28.7036  -12.9957   20.9958 C   0  0  0  0  0  0
  -25.2602  -13.8153   20.5685 C   0  0  0  0  0  0
  -24.1847  -13.0437   20.9175 C   0  0  0  0  0  0
  -24.6393  -11.6900   20.8728 C   0  0  0  0  0  0
  -23.9053  -10.4293   21.0403 C   0  0  0  0  0  0
  -24.3606   -9.4210   21.9182 C   0  0  0  0  0  0
  -23.6283   -8.2245   22.0754 C   0  0  0  0  0  0
  -22.4268   -8.0282   21.3543 C   0  0  0  0  0  0
  -21.9899   -9.0257   20.4647 C   0  0  0  0  0  0
  -22.7224  -10.2137   20.3055 C   0  0  0  0  0  0
  -21.6856   -6.0733   22.5277 C   0  0  0  0  0  0
  -21.4017   -6.5640   23.8210 C   0  0  0  0  0  0
  -21.3657   -5.6789   24.9170 C   0  0  0  0  0  0
  -21.6042   -4.3053   24.7222 C   0  0  0  0  0  0
  -21.8821   -3.8145   23.4345 C   0  0  0  0  0  0
  -21.9194   -4.6961   22.3401 C   0  0  0  0  0  0
  -22.7873  -13.5246   21.1838 C   0  0  0  0  0  0
  -22.1661   -4.2146   21.0979 F   0  0  0  0  0  0
  -21.5626   -3.4536   25.7735 F   0  0  0  0  0  0
  -30.0294  -13.3358   20.4485 N   0  0  0  0  0  0
  -26.3023  -12.9307   20.3347 N   0  0  0  0  0  0
  -25.9319  -11.6473   20.5755 N   0  0  0  0  0  0
  -22.0505  -12.8248   22.0396 N   0  0  0  0  0  0
  -25.4354  -15.1871   20.4114 N   0  0  0  0  0  0
  -31.7672  -14.7666   20.0953 O   0  0  0  0  0  0
  -21.6638   -6.8875   21.4238 O   0  0  0  0  0  0
  -22.3562  -14.5552   20.6684 O   0  0  0  0  0  0
  -24.6191  -31.8632   23.2063 C   0  0  0  0  0  0
  -25.9062  -32.4798   23.8373 C   0  0  1  0  0  0
  -27.2391  -27.3826   20.0926 C   0  0  0  0  0  0
  -25.5902  -33.8599   24.2301 N   0  0  0  0  0  0
  -23.4101  -30.4861   21.5473 C   0  0  2  0  0  0
  -24.8569  -28.9454   20.1118 C   0  0  0  0  0  0
  -22.7434  -29.4632   22.4960 C   0  0  0  0  0  0
  -18.0279  -28.1368   22.8490 C   0  0  0  0  0  0
  -24.1486  -36.7308   23.2640 C   0  0  0  0  0  0
  -25.9445  -30.8108   21.3685 C   0  0  0  0  0  0
  -26.0194  -29.4417   20.7129 C   0  0  0  0  0  0
  -27.2077  -28.6656   20.7043 C   0  0  0  0  0  0
  -26.0461  -26.9078   19.4995 C   0  0  0  0  0  0
  -24.8673  -27.6787   19.5046 C   0  0  0  0  0  0
  -23.6214  -29.8187   20.1621 C   0  0  0  0  0  0
  -25.4110  -36.3101   24.0334 C   0  0  1  0  0  0
  -20.5873  -28.3664   23.1297 C   0  0  2  0  0  0
  -20.6764  -26.9393   22.5411 C   0  0  0  0  0  0
  -19.5745  -26.6373   21.5208 C   0  0  0  0  0  0
  -18.1924  -26.7913   22.1622 C   0  0  0  0  0  0
  -19.1529  -28.8833   23.2892 C   0  0  0  0  0  0
  -18.9456  -30.1438   23.8903 C   0  0  0  0  0  0
  -17.6458  -30.6576   24.0561 C   0  0  0  0  0  0
  -25.9039  -34.9464   23.5117 C   0  0  0  0  0  0
  -16.5348  -29.9076   23.6326 C   0  0  0  0  0  0
  -16.7268  -28.6491   23.0351 C   0  0  0  0  0  0
  -26.4473  -31.6600   25.0723 C   0  0  0  0  0  0
  -25.3733  -31.3728   26.1473 C   0  0  0  0  0  0
  -27.0305  -30.3033   24.6137 C   0  0  0  0  0  0
  -27.6042  -32.4328   25.7482 C   0  0  0  0  0  0
  -27.5579  -37.1811   24.8466 C   0  0  0  0  0  0
  -21.4156  -29.3029   22.3701 N   0  0  0  0  0  0
  -26.4296  -37.3787   23.9403 N   0  0  0  0  0  0
  -24.6764  -31.0689   22.0985 N   0  0  0  0  0  0
  -23.4183  -28.8175   23.3021 O   0  0  0  0  0  0
  -28.4023  -26.6183   20.1444 O   0  0  0  0  0  0
  -26.5604  -34.8921   22.4682 O   0  0  0  0  0  0
  -23.5370  -32.1402   23.7427 O   0  0  0  0  0  0
  -30.6163  -19.1549   20.0601 C   0  0  0  0  0  0
  -30.7781  -17.7489   20.2151 C   0  0  0  0  0  0
  -28.6846  -17.6606   21.4035 C   0  0  0  0  0  0
  -29.4761  -19.8535   20.5530 C   0  0  0  0  0  0
  -29.8046  -16.9675   20.8863 C   0  0  0  0  0  0
  -28.5201  -19.0601   21.2482 C   0  0  0  0  0  0
  -30.1432  -23.5942   19.7892 C   0  0  0  0  0  0
  -28.9082  -24.1342   19.7084 C   0  0  0  0  0  0
  -30.4564  -22.1270   20.1159 C   0  0  0  0  0  0
  -27.7085  -23.2277   19.9605 C   0  0  0  0  0  0
  -28.0198  -21.7106   19.7687 C   0  0  0  0  0  0
  -28.6553  -25.5701   19.1727 C   0  0  0  0  0  0
  -29.2874  -21.2689   20.3772 N   0  0  0  0  0  0
  -29.8523  -15.5316   21.0754 N   0  0  0  0  0  0
  -27.4278  -19.6370   21.8084 F   0  0  0  0  0  0
  -31.4808  -12.4764   19.1321 H   0  0  0  0  0  0
  -30.3705  -11.3395   19.8433 H   0  0  0  0  0  0
  -29.7555  -11.7733   17.4496 H   0  0  0  0  0  0
  -29.6604  -13.4882   17.7590 H   0  0  0  0  0  0
  -27.8462  -11.3018   18.8318 H   0  0  0  0  0  0
  -27.3737  -12.6173   17.7899 H   0  0  0  0  0  0
  -27.6996  -14.2497   19.5668 H   0  0  0  0  0  0
  -28.6989  -11.9563   21.3272 H   0  0  0  0  0  0
  -28.4514  -13.5804   21.8812 H   0  0  0  0  0  0
  -25.2757   -9.5686   22.4749 H   0  0  0  0  0  0
  -23.9992   -7.4642   22.7478 H   0  0  0  0  0  0
  -21.0825   -8.8778   19.8962 H   0  0  0  0  0  0
  -22.3681  -10.9677   19.6163 H   0  0  0  0  0  0
  -21.2015   -7.6148   23.9713 H   0  0  0  0  0  0
  -21.1473   -6.0520   25.9072 H   0  0  0  0  0  0
  -22.0602   -2.7606   23.2849 H   0  0  0  0  0  0
  -22.4111  -11.9908   22.4790 H   0  0  0  0  0  0
  -21.1132  -13.1296   22.2603 H   0  0  0  0  0  0
  -24.6705  -15.8444   20.5205 H   0  0  0  0  0  0
  -26.2828  -15.6210   20.0691 H   0  0  0  0  0  0
  -26.7129  -32.5488   23.1126 H   0  0  0  0  0  0
  -25.0064  -33.9751   25.0455 H   0  0  0  0  0  0
  -22.7015  -31.3047   21.4061 H   0  0  0  0  0  0
  -23.3737  -35.9652   23.3323 H   0  0  0  0  0  0
  -24.3576  -36.8903   22.2052 H   0  0  0  0  0  0
  -23.7246  -37.6522   23.6640 H   0  0  0  0  0  0
  -26.0673  -31.5759   20.6005 H   0  0  0  0  0  0
  -26.8282  -30.8604   21.9930 H   0  0  0  0  0  0
  -28.1025  -29.0448   21.1780 H   0  0  0  0  0  0
  -25.9899  -25.9247   19.0575 H   0  0  0  0  0  0
  -23.9693  -27.2829   19.0500 H   0  0  0  0  0  0
  -23.7346  -30.5943   19.4040 H   0  0  0  0  0  0
  -22.7435  -29.2433   19.8628 H   0  0  0  0  0  0
  -25.1291  -36.1969   25.0827 H   0  0  0  0  0  0
  -20.9971  -28.3232   24.1414 H   0  0  0  0  0  0
  -20.5659  -26.2272   23.3604 H   0  0  0  0  0  0
  -21.6635  -26.7418   22.1210 H   0  0  0  0  0  0
  -19.6906  -25.6286   21.1231 H   0  0  0  0  0  0
  -19.6687  -27.3190   20.6743 H   0  0  0  0  0  0
  -17.4194  -26.6658   21.4025 H   0  0  0  0  0  0
  -18.0333  -26.0049   22.9014 H   0  0  0  0  0  0
  -19.7933  -30.7248   24.2277 H   0  0  0  0  0  0
  -17.5012  -31.6258   24.5159 H   0  0  0  0  0  0
  -15.5349  -30.2981   23.7640 H   0  0  0  0  0  0
  -15.8668  -28.0811   22.7062 H   0  0  0  0  0  0
  -24.5889  -30.7092   25.7816 H   0  0  0  0  0  0
  -24.8949  -32.2896   26.4931 H   0  0  0  0  0  0
  -25.8083  -30.8885   27.0225 H   0  0  0  0  0  0
  -26.2859  -29.6794   24.1178 H   0  0  0  0  0  0
  -27.4040  -29.7277   25.4615 H   0  0  0  0  0  0
  -27.8712  -30.4337   23.9319 H   0  0  0  0  0  0
  -27.2654  -33.3618   26.2078 H   0  0  0  0  0  0
  -28.3837  -32.6907   25.0300 H   0  0  0  0  0  0
  -28.0723  -31.8445   26.5383 H   0  0  0  0  0  0
  -28.2617  -38.0089   24.7489 H   0  0  0  0  0  0
  -28.1053  -36.2620   24.6320 H   0  0  0  0  0  0
  -27.2293  -37.1497   25.8869 H   0  0  0  0  0  0
  -20.9316  -29.8760   21.6929 H   0  0  0  0  0  0
  -26.0186  -38.2868   24.1389 H   0  0  0  0  0  0
  -31.3950  -19.6793   19.5292 H   0  0  0  0  0  0
  -31.6619  -17.2858   19.8011 H   0  0  0  0  0  0
  -27.9168  -17.1191   21.9363 H   0  0  0  0  0  0
  -31.0021  -24.2078   19.5541 H   0  0  0  0  0  0
  -31.1268  -22.0983   20.9765 H   0  0  0  0  0  0
  -31.0156  -21.7432   19.2626 H   0  0  0  0  0  0
  -26.8957  -23.5078   19.2895 H   0  0  0  0  0  0
  -27.3494  -23.4169   20.9725 H   0  0  0  0  0  0
  -28.0897  -21.5054   18.6988 H   0  0  0  0  0  0
  -27.1674  -21.1297   20.1183 H   0  0  0  0  0  0
  -27.9381  -25.5329   18.3547 H   0  0  0  0  0  0
  -29.5762  -25.8822   18.6790 H   0  0  0  0  0  0
  -29.0283  -15.1459   21.5110 H   0  0  0  0  0  0
  1 25  1  0  0  0
  1 30  2  0  0  0
  1 84  1  0  0  0
  2  3  1  0  0  0
  2 25  1  0  0  0
  2 86  1  0  0  0
  2 87  1  0  0  0
  3  4  1  0  0  0
  3 88  1  0  0  0
  3 89  1  0  0  0
  4  5  1  0  0  0
  4 90  1  0  0  0
  4 91  1  0  0  0
  5  6  1  0  0  0
  5 26  1  0  0  0
  5 92  1  0  0  0
  6 25  1  0  0  0
  6 93  1  0  0  0
  6 94  1  0  0  0
  7  8  2  0  0  0
  7 26  1  0  0  0
  7 29  1  0  0  0
  8  9  1  0  0  0
  8 22  1  0  0  0
  9 10  1  0  0  0
  9 27  2  0  0  0
 10 11  2  0  0  0
 10 15  1  0  0  0
 11 12  1  0  0  0
 11 95  1  0  0  0
 12 13  2  0  0  0
 12 96  1  0  0  0
 13 14  1  0  0  0
 13 31  1  0  0  0
 14 15  2  0  0  0
 14 97  1  0  0  0
 15 98  1  0  0  0
 16 17  2  0  0  0
 16 21  1  0  0  0
 16 31  1  0  0  0
 17 18  1  0  0  0
 17 99  1  0  0  0
 18 19  2  0  0  0
 18100  1  0  0  0
 19 20  1  0  0  0
 19 24  1  0  0  0
 20 21  2  0  0  0
 20101  1  0  0  0
 21 23  1  0  0  0
 22 28  1  0  0  0
 22 32  2  0  0  0
 26 27  1  0  0  0
 28102  1  0  0  0
 28103  1  0  0  0
 29104  1  0  0  0
 29105  1  0  0  0
 33 34  1  0  0  0
 33 66  1  0  0  0
 33 70  2  0  0  0
 34 36  1  0  0  0
 34 59  1  0  0  0
 34106  1  0  0  0
 35 44  2  0  0  0
 35 45  1  0  0  0
 35 68  1  0  0  0
 36 56  1  0  0  0
 36107  1  0  0  0
 37 39  1  0  0  0
 37 47  1  0  0  0
 37 66  1  0  0  0
 37108  1  0  0  0
 38 43  2  0  0  0
 38 46  1  0  0  0
 38 47  1  0  0  0
 39 64  1  0  0  0
 39 67  2  0  0  0
 40 52  1  0  0  0
 40 53  2  0  0  0
 40 58  1  0  0  0
 41109  1  0  0  0
 41110  1  0  0  0
 41111  1  0  0  0
 41 48  1  0  0  0
 42 43  1  0  0  0
 42 66  1  0  0  0
 42112  1  0  0  0
 42113  1  0  0  0
 43 44  1  0  0  0
 44114  1  0  0  0
 45 46  2  0  0  0
 45115  1  0  0  0
 46116  1  0  0  0
 47117  1  0  0  0
 47118  1  0  0  0
 48 56  1  0  0  0
 48 65  1  0  0  0
 48119  1  0  0  0
 49 50  1  0  0  0
 49 53  1  0  0  0
 49 64  1  0  0  0
 49120  1  0  0  0
 50 51  1  0  0  0
 50121  1  0  0  0
 50122  1  0  0  0
 51 52  1  0  0  0
 51123  1  0  0  0
 51124  1  0  0  0
 52125  1  0  0  0
 52126  1  0  0  0
 53 54  1  0  0  0
 54 55  2  0  0  0
 54127  1  0  0  0
 55 57  1  0  0  0
 55128  1  0  0  0
 56 69  2  0  0  0
 57 58  2  0  0  0
 57129  1  0  0  0
 58130  1  0  0  0
 59 60  1  0  0  0
 59 61  1  0  0  0
 59 62  1  0  0  0
 60131  1  0  0  0
 60132  1  0  0  0
 60133  1  0  0  0
 61134  1  0  0  0
 61135  1  0  0  0
 61136  1  0  0  0
 62137  1  0  0  0
 62138  1  0  0  0
 62139  1  0  0  0
 63 65  1  0  0  0
 63140  1  0  0  0
 63141  1  0  0  0
 63142  1  0  0  0
 64143  1  0  0  0
 65144  1  0  0  0
 68 82  1  0  0  0
 71 72  2  0  0  0
 71 74  1  0  0  0
 71145  1  0  0  0
 72 75  1  0  0  0
 72146  1  0  0  0
 73 75  2  0  0  0
 73 76  1  0  0  0
 73147  1  0  0  0
 74 76  2  0  0  0
 74 83  1  0  0  0
 75 84  1  0  0  0
 76 85  1  0  0  0
 77 78  2  0  0  0
 77 79  1  0  0  0
 77148  1  0  0  0
 78 80  1  0  0  0
 78 82  1  0  0  0
 79 83  1  0  0  0
 79149  1  0  0  0
 79150  1  0  0  0
 80 81  1  0  0  0
 80151  1  0  0  0
 80152  1  0  0  0
 81 83  1  0  0  0
 81153  1  0  0  0
 81154  1  0  0  0
 82155  1  0  0  0
 82156  1  0  0  0
 84157  1  0  0  0
M  ISO  4   1 100  68 101  82 101  84 100
M  END
> <chiral flag>
0

> <version>
0

> <s_m_source_file>
/data/baiqing/PycharmProjects/Reinvent-master-3.2/result/LINK_invent/BTK/process_docking_weight1_custom_product_contain_oxygen_bond_distance_aromatic_linkinvent_7_9_3/rearranged_h_0087.sdf

> <i_m_source_file_index>
77

> <r_mmod_Potential_Energy-OPLS-2005>
39.7465476989746

> <r_mmod_Stretch_Energy-OPLS-2005>
56.1972999572754

> <r_mmod_Bend_Energy-OPLS-2005>
136.115951538086

> <r_mmod_Torsional_Energy-OPLS-2005>
219.981704711914

> <r_mmod_Improper_Torsional_Energy-OPLS-2005>
6.17904329299927

> <r_mmod_Van_der_Waal_Energy-OPLS-2005>
160.73193359375

> <r_mmod_Electrostatic_Energy-OPLS-2005>
-341.025787353516

> <r_mmod_Solvation_Energy-OPLS-2005>
-223.236877441406

> <b_mmod_Minimization_Converged-OPLS-2005>
0

> <r_mmod_RMS_Derivative-OPLS-2005>
0.70129656791687

$$$$
77
                    3D
 Structure written by MMmdl.
152161  0  0  1  0            999 V2000
  -30.5883  -14.7446   20.4519 C   0  0  0  0  0  0
  -30.4490  -12.4522   19.4598 C   0  0  0  0  0  0
  -29.5125  -12.5103   18.2309 C   0  0  0  0  0  0
  -28.0383  -12.3323   18.6488 C   0  0  0  0  0  0
  -27.6470  -13.2237   19.8575 C   0  0  2  0  0  0
  -28.7002  -13.1328   20.9852 C   0  0  0  0  0  0
  -25.2504  -13.8134   20.5765 C   0  0  0  0  0  0
  -24.1789  -13.0373   20.9199 C   0  0  0  0  0  0
  -24.6397  -11.6868   20.8734 C   0  0  0  0  0  0
  -23.9074  -10.4258   21.0394 C   0  0  0  0  0  0
  -24.3619   -9.4182   21.9180 C   0  0  0  0  0  0
  -23.6288   -8.2225   22.0754 C   0  0  0  0  0  0
  -22.4270   -8.0269   21.3544 C   0  0  0  0  0  0
  -21.9907   -9.0240   20.4644 C   0  0  0  0  0  0
  -22.7243  -10.2111   20.3047 C   0  0  0  0  0  0
  -21.6847   -6.0730   22.5280 C   0  0  0  0  0  0
  -21.4010   -6.5636   23.8213 C   0  0  0  0  0  0
  -21.3659   -5.6790   24.9177 C   0  0  0  0  0  0
  -21.6044   -4.3054   24.7228 C   0  0  0  0  0  0
  -21.8820   -3.8144   23.4349 C   0  0  0  0  0  0
  -21.9191   -4.6959   22.3405 C   0  0  0  0  0  0
  -22.7810  -13.5167   21.1862 C   0  0  0  0  0  0
  -22.1660   -4.2145   21.0982 F   0  0  0  0  0  0
  -21.5631   -3.4538   25.7741 F   0  0  0  0  0  0
  -30.0038  -13.4975   20.4058 N   0  0  0  0  0  0
  -26.2969  -12.9365   20.3347 N   0  0  0  0  0  0
  -25.9335  -11.6502   20.5761 N   0  0  0  0  0  0
  -22.0462  -12.8167   22.0430 N   0  0  0  0  0  0
  -25.4008  -15.1873   20.4363 N   0  0  0  0  0  0
  -31.7750  -14.8960   20.1471 O   0  0  0  0  0  0
  -21.6630   -6.8870   21.4242 O   0  0  0  0  0  0
  -22.3490  -14.5476   20.6716 O   0  0  0  0  0  0
  -24.6313  -31.8557   23.1999 C   0  0  0  0  0  0
  -25.9138  -32.4759   23.8343 C   0  0  1  0  0  0
  -27.2253  -27.2700   20.1256 C   0  0  0  0  0  0
  -25.5931  -33.8561   24.2261 N   0  0  0  0  0  0
  -23.4296  -30.4785   21.5424 C   0  0  2  0  0  0
  -24.8816  -28.9322   20.1061 C   0  0  0  0  0  0
  -22.7511  -29.4599   22.4906 C   0  0  0  0  0  0
  -18.0295  -28.1387   22.8484 C   0  0  0  0  0  0
  -24.1490  -36.7286   23.2640 C   0  0  0  0  0  0
  -25.9765  -30.7690   21.3835 C   0  0  0  0  0  0
  -26.0524  -29.3932   20.7238 C   0  0  0  0  0  0
  -27.2281  -28.5723   20.7299 C   0  0  0  0  0  0
  -26.0393  -26.8906   19.4565 C   0  0  0  0  0  0
  -24.8795  -27.6871   19.4611 C   0  0  0  0  0  0
  -23.6497  -29.8155   20.1576 C   0  0  0  0  0  0
  -25.4117  -36.3073   24.0326 C   0  0  1  0  0  0
  -20.5900  -28.3700   23.1264 C   0  0  2  0  0  0
  -20.6781  -26.9416   22.5407 C   0  0  0  0  0  0
  -19.5755  -26.6382   21.5212 C   0  0  0  0  0  0
  -18.1937  -26.7928   22.1626 C   0  0  0  0  0  0
  -19.1549  -28.8861   23.2868 C   0  0  0  0  0  0
  -18.9469  -30.1461   23.8888 C   0  0  0  0  0  0
  -17.6467  -30.6587   24.0561 C   0  0  0  0  0  0
  -25.9056  -34.9442   23.5096 C   0  0  0  0  0  0
  -16.5358  -29.9084   23.6332 C   0  0  0  0  0  0
  -16.7281  -28.6501   23.0354 C   0  0  0  0  0  0
  -26.4503  -31.6584   25.0733 C   0  0  0  0  0  0
  -25.3721  -31.3736   26.1448 C   0  0  0  0  0  0
  -27.0358  -30.2999   24.6231 C   0  0  0  0  0  0
  -27.6050  -32.4332   25.7509 C   0  0  0  0  0  0
  -27.5578  -37.1801   24.8467 C   0  0  0  0  0  0
  -21.4217  -29.3045   22.3651 N   0  0  0  0  0  0
  -26.4293  -37.3770   23.9405 N   0  0  0  0  0  0
  -24.6978  -31.0520   22.0980 N   0  0  0  0  0  0
  -23.4208  -28.8136   23.3006 O   0  0  0  0  0  0
  -28.2720  -26.3165   20.1933 O   0  0  0  0  0  0
  -26.5630  -34.8915   22.4666 O   0  0  0  0  0  0
  -23.5460  -32.1379   23.7288 O   0  0  0  0  0  0
  -30.5689  -19.6299   20.7935 C   0  0  0  0  0  0
  -30.7770  -18.1988   20.8140 C   0  0  0  0  0  0
  -28.3376  -19.3162   20.1036 C   0  0  0  0  0  0
  -29.3231  -20.2750   20.4855 C   0  0  0  0  0  0
  -29.7426  -17.2772   20.4818 C   0  0  0  0  0  0
  -28.5339  -17.8990   20.0750 C   0  0  0  0  0  0
  -28.4516  -23.7200   20.5002 C   0  0  0  0  0  0
  -27.8227  -22.4663   20.8985 C   0  0  0  0  0  0
  -27.8870  -24.9926   20.5694 C   0  0  0  0  0  0
  -29.7047  -22.9071   20.0598 C   0  0  0  0  0  0
  -28.9826  -21.7206   20.6142 N   0  0  0  0  0  0
  -27.5018  -17.0821   19.6145 N   0  0  0  0  0  0
  -29.7208  -15.8020   20.6363 N   0  0  0  0  0  0
  -26.6904  -22.2271   21.2647 O   0  0  0  0  0  0
  -31.4857  -12.5975   19.1508 H   0  0  0  0  0  0
  -30.4100  -11.4694   19.9318 H   0  0  0  0  0  0
  -29.7908  -11.7422   17.5080 H   0  0  0  0  0  0
  -29.6346  -13.4674   17.7211 H   0  0  0  0  0  0
  -27.8954  -11.2821   18.9059 H   0  0  0  0  0  0
  -27.3781  -12.5296   17.8035 H   0  0  0  0  0  0
  -27.6400  -14.2473   19.4861 H   0  0  0  0  0  0
  -28.7369  -12.1242   21.3994 H   0  0  0  0  0  0
  -28.4378  -13.7900   21.8160 H   0  0  0  0  0  0
  -25.2764   -9.5658   22.4755 H   0  0  0  0  0  0
  -23.9991   -7.4617   22.7478 H   0  0  0  0  0  0
  -21.0837   -8.8762   19.8952 H   0  0  0  0  0  0
  -22.3707  -10.9651   19.6155 H   0  0  0  0  0  0
  -21.2000   -7.6144   23.9714 H   0  0  0  0  0  0
  -21.1482   -6.0522   25.9079 H   0  0  0  0  0  0
  -22.0600   -2.7606   23.2851 H   0  0  0  0  0  0
  -22.4084  -11.9831   22.4817 H   0  0  0  0  0  0
  -21.1083  -13.1194   22.2645 H   0  0  0  0  0  0
  -24.6189  -15.8146   20.5836 H   0  0  0  0  0  0
  -26.2564  -15.6975   20.2094 H   0  0  0  0  0  0
  -26.7206  -32.5415   23.1089 H   0  0  0  0  0  0
  -25.0070  -33.9701   25.0400 H   0  0  0  0  0  0
  -22.7260  -31.3007   21.3970 H   0  0  0  0  0  0
  -23.3750  -35.9621   23.3309 H   0  0  0  0  0  0
  -24.3577  -36.8902   22.2053 H   0  0  0  0  0  0
  -23.7248  -37.6491   23.6661 H   0  0  0  0  0  0
  -26.1176  -31.5309   20.6155 H   0  0  0  0  0  0
  -26.8526  -30.8166   22.0184 H   0  0  0  0  0  0
  -28.1183  -28.9119   21.2404 H   0  0  0  0  0  0
  -25.9908  -25.9344   18.9548 H   0  0  0  0  0  0
  -23.9869  -27.3309   18.9655 H   0  0  0  0  0  0
  -23.7715  -30.5937   19.4032 H   0  0  0  0  0  0
  -22.7693  -29.2472   19.8520 H   0  0  0  0  0  0
  -25.1301  -36.1922   25.0819 H   0  0  0  0  0  0
  -20.9994  -28.3280   24.1384 H   0  0  0  0  0  0
  -20.5682  -26.2312   23.3614 H   0  0  0  0  0  0
  -21.6649  -26.7437   22.1200 H   0  0  0  0  0  0
  -19.6917  -25.6291   21.1247 H   0  0  0  0  0  0
  -19.6690  -27.3189   20.6739 H   0  0  0  0  0  0
  -17.4205  -26.6674   21.4030 H   0  0  0  0  0  0
  -18.0338  -26.0071   22.9025 H   0  0  0  0  0  0
  -19.7945  -30.7280   24.2253 H   0  0  0  0  0  0
  -17.5021  -31.6266   24.5165 H   0  0  0  0  0  0
  -15.5358  -30.2982   23.7660 H   0  0  0  0  0  0
  -15.8681  -28.0817   22.7074 H   0  0  0  0  0  0
  -24.5905  -30.7075   25.7775 H   0  0  0  0  0  0
  -24.8901  -32.2904   26.4850 H   0  0  0  0  0  0
  -25.8032  -30.8931   27.0239 H   0  0  0  0  0  0
  -26.2951  -29.6741   24.1237 H   0  0  0  0  0  0
  -27.4014  -29.7267   25.4761 H   0  0  0  0  0  0
  -27.8840  -30.4270   23.9500 H   0  0  0  0  0  0
  -27.2650  -33.3635   26.2071 H   0  0  0  0  0  0
  -28.3868  -32.6889   25.0344 H   0  0  0  0  0  0
  -28.0711  -31.8470   26.5439 H   0  0  0  0  0  0
  -28.2601  -38.0092   24.7502 H   0  0  0  0  0  0
  -28.1067  -36.2622   24.6309 H   0  0  0  0  0  0
  -27.2292  -37.1469   25.8869 H   0  0  0  0  0  0
  -20.9404  -29.8771   21.6856 H   0  0  0  0  0  0
  -26.0173  -38.2846   24.1396 H   0  0  0  0  0  0
  -31.3961  -20.2549   21.0991 H   0  0  0  0  0  0
  -31.7354  -17.8178   21.1361 H   0  0  0  0  0  0
  -27.3642  -19.6931   19.8243 H   0  0  0  0  0  0
  -26.9014  -25.0231   21.0159 H   0  0  0  0  0  0
  -30.6429  -23.0924   20.5847 H   0  0  0  0  0  0
  -29.8818  -22.8069   18.9875 H   0  0  0  0  0  0
  -26.7314  -17.5881   19.1900 H   0  0  0  0  0  0
  -27.8286  -16.3727   18.9681 H   0  0  0  0  0  0
  -28.7736  -15.4758   20.7545 H   0  0  0  0  0  0
  1 25  1  0  0  0
  1 30  2  0  0  0
  1 83  1  0  0  0
  2  3  1  0  0  0
  2 25  1  0  0  0
  2 85  1  0  0  0
  2 86  1  0  0  0
  3  4  1  0  0  0
  3 87  1  0  0  0
  3 88  1  0  0  0
  4  5  1  0  0  0
  4 89  1  0  0  0
  4 90  1  0  0  0
  5  6  1  0  0  0
  5 26  1  0  0  0
  5 91  1  0  0  0
  6 25  1  0  0  0
  6 92  1  0  0  0
  6 93  1  0  0  0
  7  8  2  0  0  0
  7 26  1  0  0  0
  7 29  1  0  0  0
  8  9  1  0  0  0
  8 22  1  0  0  0
  9 10  1  0  0  0
  9 27  2  0  0  0
 10 11  2  0  0  0
 10 15  1  0  0  0
 11 12  1  0  0  0
 11 94  1  0  0  0
 12 13  2  0  0  0
 12 95  1  0  0  0
 13 14  1  0  0  0
 13 31  1  0  0  0
 14 15  2  0  0  0
 14 96  1  0  0  0
 15 97  1  0  0  0
 16 17  2  0  0  0
 16 21  1  0  0  0
 16 31  1  0  0  0
 17 18  1  0  0  0
 17 98  1  0  0  0
 18 19  2  0  0  0
 18 99  1  0  0  0
 19 20  1  0  0  0
 19 24  1  0  0  0
 20 21  2  0  0  0
 20100  1  0  0  0
 21 23  1  0  0  0
 22 28  1  0  0  0
 22 32  2  0  0  0
 26 27  1  0  0  0
 28101  1  0  0  0
 28102  1  0  0  0
 29103  1  0  0  0
 29104  1  0  0  0
 33 34  1  0  0  0
 33 66  1  0  0  0
 33 70  2  0  0  0
 34 36  1  0  0  0
 34 59  1  0  0  0
 34105  1  0  0  0
 35 44  2  0  0  0
 35 45  1  0  0  0
 35 68  1  0  0  0
 36 56  1  0  0  0
 36106  1  0  0  0
 37 39  1  0  0  0
 37 47  1  0  0  0
 37 66  1  0  0  0
 37107  1  0  0  0
 38 43  2  0  0  0
 38 46  1  0  0  0
 38 47  1  0  0  0
 39 64  1  0  0  0
 39 67  2  0  0  0
 40 52  1  0  0  0
 40 53  2  0  0  0
 40 58  1  0  0  0
 41108  1  0  0  0
 41109  1  0  0  0
 41110  1  0  0  0
 41 48  1  0  0  0
 42 43  1  0  0  0
 42 66  1  0  0  0
 42111  1  0  0  0
 42112  1  0  0  0
 43 44  1  0  0  0
 44113  1  0  0  0
 45 46  2  0  0  0
 45114  1  0  0  0
 46115  1  0  0  0
 47116  1  0  0  0
 47117  1  0  0  0
 48 56  1  0  0  0
 48 65  1  0  0  0
 48118  1  0  0  0
 49 50  1  0  0  0
 49 53  1  0  0  0
 49 64  1  0  0  0
 49119  1  0  0  0
 50 51  1  0  0  0
 50120  1  0  0  0
 50121  1  0  0  0
 51 52  1  0  0  0
 51122  1  0  0  0
 51123  1  0  0  0
 52124  1  0  0  0
 52125  1  0  0  0
 53 54  1  0  0  0
 54 55  2  0  0  0
 54126  1  0  0  0
 55 57  1  0  0  0
 55127  1  0  0  0
 56 69  2  0  0  0
 57 58  2  0  0  0
 57128  1  0  0  0
 58129  1  0  0  0
 59 60  1  0  0  0
 59 61  1  0  0  0
 59 62  1  0  0  0
 60130  1  0  0  0
 60131  1  0  0  0
 60132  1  0  0  0
 61133  1  0  0  0
 61134  1  0  0  0
 61135  1  0  0  0
 62136  1  0  0  0
 62137  1  0  0  0
 62138  1  0  0  0
 63 65  1  0  0  0
 63139  1  0  0  0
 63140  1  0  0  0
 63141  1  0  0  0
 64142  1  0  0  0
 65143  1  0  0  0
 68 79  1  0  0  0
 71 72  2  0  0  0
 71 74  1  0  0  0
 71144  1  0  0  0
 72 75  1  0  0  0
 72145  1  0  0  0
 73 74  2  0  0  0
 73 76  1  0  0  0
 73146  1  0  0  0
 74 81  1  0  0  0
 75 76  2  0  0  0
 75 83  1  0  0  0
 76 82  1  0  0  0
 77 78  1  0  0  0
 77 79  2  0  0  0
 77 80  1  0  0  0
 78 81  1  0  0  0
 78 84  2  0  0  0
 79147  1  0  0  0
 80 81  1  0  0  0
 80148  1  0  0  0
 80149  1  0  0  0
 82150  1  0  0  0
 82151  1  0  0  0
 83152  1  0  0  0
M  ISO  4   1 100  68 101  79 101  83 100
M  END
> <chiral flag>
0

> <version>
0

> <s_m_source_file>
/data/baiqing/PycharmProjects/Reinvent-master-3.2/result/LINK_invent/BTK/process_docking_weight1_custom_product_contain_oxygen_bond_distance_aromatic_linkinvent_7_9_3/rearranged_h_0087.sdf

> <i_m_source_file_index>
78

> <r_mmod_Potential_Energy-OPLS-2005>
164.012237548828

> <r_mmod_Stretch_Energy-OPLS-2005>
102.459053039551

> <r_mmod_Bend_Energy-OPLS-2005>
264.789855957031

> <r_mmod_Torsional_Energy-OPLS-2005>
255.915130615234

> <r_mmod_Improper_Torsional_Energy-OPLS-2005>
12.7281932830811

> <r_mmod_Van_der_Waal_Energy-OPLS-2005>
144.490264892578

> <r_mmod_Electrostatic_Energy-OPLS-2005>
-490.863677978516

> <r_mmod_Solvation_Energy-OPLS-2005>
-215.716949462891

> <b_mmod_Minimization_Converged-OPLS-2005>
0

> <r_mmod_RMS_Derivative-OPLS-2005>
0.213552057743073

$$$$
78
                    3D
 Structure written by MMmdl.
153162  0  0  1  0            999 V2000
  -30.6161  -14.7919   20.4187 C   0  0  0  0  0  0
  -30.4251  -12.4810   19.4879 C   0  0  0  0  0  0
  -29.5085  -12.5018   18.2455 C   0  0  0  0  0  0
  -28.0368  -12.3227   18.6600 C   0  0  0  0  0  0
  -27.6338  -13.2425   19.8429 C   0  0  2  0  0  0
  -28.6771  -13.2243   20.9807 C   0  0  0  0  0  0
  -25.2461  -13.8225   20.5704 C   0  0  0  0  0  0
  -24.1772  -13.0452   20.9225 C   0  0  0  0  0  0
  -24.6387  -11.6937   20.8764 C   0  0  0  0  0  0
  -23.9080  -10.4299   21.0424 C   0  0  0  0  0  0
  -24.3633   -9.4206   21.9196 C   0  0  0  0  0  0
  -23.6302   -8.2244   22.0759 C   0  0  0  0  0  0
  -22.4283   -8.0286   21.3551 C   0  0  0  0  0  0
  -21.9925   -9.0263   20.4654 C   0  0  0  0  0  0
  -22.7259  -10.2137   20.3065 C   0  0  0  0  0  0
  -21.6850   -6.0741   22.5283 C   0  0  0  0  0  0
  -21.4013   -6.5645   23.8219 C   0  0  0  0  0  0
  -21.3655   -5.6795   24.9178 C   0  0  0  0  0  0
  -21.6041   -4.3058   24.7228 C   0  0  0  0  0  0
  -21.8813   -3.8150   23.4346 C   0  0  0  0  0  0
  -21.9190   -4.6968   22.3404 C   0  0  0  0  0  0
  -22.7786  -13.5213   21.1889 C   0  0  0  0  0  0
  -22.1653   -4.2157   21.0981 F   0  0  0  0  0  0
  -21.5628   -3.4540   25.7742 F   0  0  0  0  0  0
  -29.9745  -13.5697   20.3899 N   0  0  0  0  0  0
  -26.2896  -12.9457   20.3266 N   0  0  0  0  0  0
  -25.9320  -11.6592   20.5770 N   0  0  0  0  0  0
  -22.0444  -12.8189   22.0448 N   0  0  0  0  0  0
  -25.4138  -15.1953   20.4120 N   0  0  0  0  0  0
  -31.8232  -14.8125   20.1665 O   0  0  0  0  0  0
  -21.6641   -6.8888   21.4247 O   0  0  0  0  0  0
  -22.3457  -14.5522   20.6746 O   0  0  0  0  0  0
  -24.6326  -31.8533   23.1966 C   0  0  0  0  0  0
  -25.9138  -32.4745   23.8323 C   0  0  1  0  0  0
  -27.2135  -27.2422   20.1088 C   0  0  0  0  0  0
  -25.5924  -33.8553   24.2228 N   0  0  0  0  0  0
  -23.4283  -30.4780   21.5406 C   0  0  2  0  0  0
  -24.8719  -28.9244   20.1036 C   0  0  0  0  0  0
  -22.7511  -29.4594   22.4899 C   0  0  0  0  0  0
  -18.0291  -28.1405   22.8479 C   0  0  0  0  0  0
  -24.1485  -36.7291   23.2642 C   0  0  0  0  0  0
  -25.9761  -30.7578   21.3783 C   0  0  0  0  0  0
  -26.0447  -29.3801   20.7160 C   0  0  0  0  0  0
  -27.2135  -28.5496   20.7118 C   0  0  0  0  0  0
  -26.0080  -26.8542   19.4803 C   0  0  0  0  0  0
  -24.8603  -27.6704   19.4764 C   0  0  0  0  0  0
  -23.6445  -29.8146   20.1549 C   0  0  0  0  0  0
  -25.4112  -36.3067   24.0322 C   0  0  1  0  0  0
  -20.5896  -28.3715   23.1269 C   0  0  2  0  0  0
  -20.6777  -26.9430   22.5417 C   0  0  0  0  0  0
  -19.5749  -26.6386   21.5222 C   0  0  0  0  0  0
  -18.1923  -26.7947   22.1620 C   0  0  0  0  0  0
  -19.1547  -28.8877   23.2869 C   0  0  0  0  0  0
  -18.9470  -30.1475   23.8892 C   0  0  0  0  0  0
  -17.6473  -30.6600   24.0575 C   0  0  0  0  0  0
  -25.9061  -34.9444   23.5078 C   0  0  0  0  0  0
  -16.5363  -29.9100   23.6341 C   0  0  0  0  0  0
  -16.7283  -28.6523   23.0347 C   0  0  0  0  0  0
  -26.4495  -31.6595   25.0732 C   0  0  0  0  0  0
  -25.3717  -31.3759   26.1461 C   0  0  0  0  0  0
  -27.0337  -30.3005   24.6233 C   0  0  0  0  0  0
  -27.6045  -32.4362   25.7488 C   0  0  0  0  0  0
  -27.5578  -37.1790   24.8451 C   0  0  0  0  0  0
  -21.4219  -29.3058   22.3658 N   0  0  0  0  0  0
  -26.4273  -37.3775   23.9419 N   0  0  0  0  0  0
  -24.6984  -31.0484   22.0948 N   0  0  0  0  0  0
  -23.4208  -28.8135   23.2997 O   0  0  0  0  0  0
  -28.3136  -26.3486   20.1965 O   0  0  0  0  0  0
  -26.5648  -34.8923   22.4659 O   0  0  0  0  0  0
  -23.5474  -32.1369   23.7259 O   0  0  0  0  0  0
  -31.6954  -18.9169   18.8988 C   0  0  0  0  0  0
  -30.9425  -20.0469   19.2521 C   0  0  0  0  0  0
  -31.3333  -17.6302   19.3299 C   0  0  0  0  0  0
  -28.1337  -23.0868   21.3300 C   0  0  0  0  0  0
  -29.1534  -22.4563   19.4889 C   0  0  0  0  0  0
  -28.5839  -23.5995   20.0715 C   0  0  0  0  0  0
  -29.7734  -19.9570   20.0377 C   0  0  0  0  0  0
  -30.1984  -17.3949   20.1442 C   0  0  0  0  0  0
  -29.4092  -18.5940   20.4718 C   0  0  0  0  0  0
  -28.4767  -21.7513   21.4474 C   0  0  0  0  0  0
  -28.4208  -25.0608   19.4186 C   0  0  0  0  0  0
  -29.1304  -21.2843   20.3098 N   0  0  0  0  0  0
  -29.8755  -15.9760   20.5411 N   0  0  0  0  0  0
  -28.2784  -20.9316   22.5123 O   0  0  0  0  0  0
  -28.2771  -18.4074   21.1930 F   0  0  0  0  0  0
  -31.4657  -12.5978   19.1808 H   0  0  0  0  0  0
  -30.3733  -11.5176   19.9977 H   0  0  0  0  0  0
  -29.7992  -11.7143   17.5489 H   0  0  0  0  0  0
  -29.6290  -13.4455   17.7123 H   0  0  0  0  0  0
  -27.9039  -11.2782   18.9443 H   0  0  0  0  0  0
  -27.3781  -12.4908   17.8068 H   0  0  0  0  0  0
  -27.6133  -14.2547   19.4370 H   0  0  0  0  0  0
  -28.7192  -12.2457   21.4602 H   0  0  0  0  0  0
  -28.4064  -13.9389   21.7602 H   0  0  0  0  0  0
  -25.2776   -9.5681   22.4774 H   0  0  0  0  0  0
  -24.0011   -7.4635   22.7475 H   0  0  0  0  0  0
  -21.0856   -8.8790   19.8956 H   0  0  0  0  0  0
  -22.3726  -10.9685   19.6172 H   0  0  0  0  0  0
  -21.2002   -7.6150   23.9727 H   0  0  0  0  0  0
  -21.1476   -6.0520   25.9081 H   0  0  0  0  0  0
  -22.0589   -2.7614   23.2845 H   0  0  0  0  0  0
  -22.4063  -11.9833   22.4808 H   0  0  0  0  0  0
  -21.1065  -13.1203   22.2687 H   0  0  0  0  0  0
  -24.6498  -15.8513   20.5348 H   0  0  0  0  0  0
  -26.2610  -15.6378   20.0808 H   0  0  0  0  0  0
  -26.7201  -32.5372   23.1057 H   0  0  0  0  0  0
  -25.0045  -33.9693   25.0357 H   0  0  0  0  0  0
  -22.7252  -31.3008   21.3959 H   0  0  0  0  0  0
  -23.3748  -35.9616   23.3270 H   0  0  0  0  0  0
  -24.3576  -36.8968   22.2064 H   0  0  0  0  0  0
  -23.7239  -37.6480   23.6703 H   0  0  0  0  0  0
  -26.1196  -31.5167   20.6087 H   0  0  0  0  0  0
  -26.8527  -30.8038   22.0128 H   0  0  0  0  0  0
  -28.1098  -28.8909   21.2101 H   0  0  0  0  0  0
  -25.8928  -25.8873   19.0182 H   0  0  0  0  0  0
  -23.9586  -27.3152   18.9964 H   0  0  0  0  0  0
  -23.7684  -30.5927   19.4008 H   0  0  0  0  0  0
  -22.7604  -29.2532   19.8476 H   0  0  0  0  0  0
  -25.1288  -36.1901   25.0810 H   0  0  0  0  0  0
  -20.9988  -28.3302   24.1391 H   0  0  0  0  0  0
  -20.5671  -26.2336   23.3630 H   0  0  0  0  0  0
  -21.6643  -26.7444   22.1211 H   0  0  0  0  0  0
  -19.6913  -25.6293   21.1258 H   0  0  0  0  0  0
  -19.6689  -27.3196   20.6749 H   0  0  0  0  0  0
  -17.4200  -26.6719   21.4010 H   0  0  0  0  0  0
  -18.0309  -26.0085   22.9010 H   0  0  0  0  0  0
  -19.7951  -30.7293   24.2247 H   0  0  0  0  0  0
  -17.5028  -31.6272   24.5193 H   0  0  0  0  0  0
  -15.5366  -30.3001   23.7666 H   0  0  0  0  0  0
  -15.8680  -28.0846   22.7055 H   0  0  0  0  0  0
  -24.5890  -30.7099   25.7805 H   0  0  0  0  0  0
  -24.8907  -32.2933   26.4878 H   0  0  0  0  0  0
  -25.8040  -30.8957   27.0249 H   0  0  0  0  0  0
  -26.2914  -29.6762   24.1248 H   0  0  0  0  0  0
  -27.3994  -29.7275   25.4763 H   0  0  0  0  0  0
  -27.8806  -30.4263   23.9485 H   0  0  0  0  0  0
  -27.2641  -33.3686   26.2010 H   0  0  0  0  0  0
  -28.3868  -32.6908   25.0320 H   0  0  0  0  0  0
  -28.0692  -31.8538   26.5453 H   0  0  0  0  0  0
  -28.2565  -38.0119   24.7542 H   0  0  0  0  0  0
  -28.1110  -36.2662   24.6201 H   0  0  0  0  0  0
  -27.2313  -37.1345   25.8856 H   0  0  0  0  0  0
  -20.9419  -29.8803   21.6877 H   0  0  0  0  0  0
  -26.0146  -38.2836   24.1463 H   0  0  0  0  0  0
  -32.5743  -19.0433   18.2821 H   0  0  0  0  0  0
  -31.2941  -21.0080   18.9075 H   0  0  0  0  0  0
  -31.9672  -16.8279   18.9914 H   0  0  0  0  0  0
  -27.6113  -23.6582   22.0853 H   0  0  0  0  0  0
  -29.6070  -22.3853   18.5094 H   0  0  0  0  0  0
  -27.6711  -24.9785   18.6372 H   0  0  0  0  0  0
  -29.3377  -25.1979   18.8435 H   0  0  0  0  0  0
  -28.9311  -15.8423   20.8688 H   0  0  0  0  0  0
  -27.7993  -21.4230   23.1714 H   0  0  0  0  0  0
  1 25  1  0  0  0
  1 30  2  0  0  0
  1 83  1  0  0  0
  2  3  1  0  0  0
  2 25  1  0  0  0
  2 86  1  0  0  0
  2 87  1  0  0  0
  3  4  1  0  0  0
  3 88  1  0  0  0
  3 89  1  0  0  0
  4  5  1  0  0  0
  4 90  1  0  0  0
  4 91  1  0  0  0
  5  6  1  0  0  0
  5 26  1  0  0  0
  5 92  1  0  0  0
  6 25  1  0  0  0
  6 93  1  0  0  0
  6 94  1  0  0  0
  7  8  2  0  0  0
  7 26  1  0  0  0
  7 29  1  0  0  0
  8  9  1  0  0  0
  8 22  1  0  0  0
  9 10  1  0  0  0
  9 27  2  0  0  0
 10 11  2  0  0  0
 10 15  1  0  0  0
 11 12  1  0  0  0
 11 95  1  0  0  0
 12 13  2  0  0  0
 12 96  1  0  0  0
 13 14  1  0  0  0
 13 31  1  0  0  0
 14 15  2  0  0  0
 14 97  1  0  0  0
 15 98  1  0  0  0
 16 17  2  0  0  0
 16 21  1  0  0  0
 16 31  1  0  0  0
 17 18  1  0  0  0
 17 99  1  0  0  0
 18 19  2  0  0  0
 18100  1  0  0  0
 19 20  1  0  0  0
 19 24  1  0  0  0
 20 21  2  0  0  0
 20101  1  0  0  0
 21 23  1  0  0  0
 22 28  1  0  0  0
 22 32  2  0  0  0
 26 27  1  0  0  0
 28102  1  0  0  0
 28103  1  0  0  0
 29104  1  0  0  0
 29105  1  0  0  0
 33 34  1  0  0  0
 33 66  1  0  0  0
 33 70  2  0  0  0
 34 36  1  0  0  0
 34 59  1  0  0  0
 34106  1  0  0  0
 35 44  2  0  0  0
 35 45  1  0  0  0
 35 68  1  0  0  0
 36 56  1  0  0  0
 36107  1  0  0  0
 37 39  1  0  0  0
 37 47  1  0  0  0
 37 66  1  0  0  0
 37108  1  0  0  0
 38 43  2  0  0  0
 38 46  1  0  0  0
 38 47  1  0  0  0
 39 64  1  0  0  0
 39 67  2  0  0  0
 40 52  1  0  0  0
 40 53  2  0  0  0
 40 58  1  0  0  0
 41109  1  0  0  0
 41110  1  0  0  0
 41111  1  0  0  0
 41 48  1  0  0  0
 42 43  1  0  0  0
 42 66  1  0  0  0
 42112  1  0  0  0
 42113  1  0  0  0
 43 44  1  0  0  0
 44114  1  0  0  0
 45 46  2  0  0  0
 45115  1  0  0  0
 46116  1  0  0  0
 47117  1  0  0  0
 47118  1  0  0  0
 48 56  1  0  0  0
 48 65  1  0  0  0
 48119  1  0  0  0
 49 50  1  0  0  0
 49 53  1  0  0  0
 49 64  1  0  0  0
 49120  1  0  0  0
 50 51  1  0  0  0
 50121  1  0  0  0
 50122  1  0  0  0
 51 52  1  0  0  0
 51123  1  0  0  0
 51124  1  0  0  0
 52125  1  0  0  0
 52126  1  0  0  0
 53 54  1  0  0  0
 54 55  2  0  0  0
 54127  1  0  0  0
 55 57  1  0  0  0
 55128  1  0  0  0
 56 69  2  0  0  0
 57 58  2  0  0  0
 57129  1  0  0  0
 58130  1  0  0  0
 59 60  1  0  0  0
 59 61  1  0  0  0
 59 62  1  0  0  0
 60131  1  0  0  0
 60132  1  0  0  0
 60133  1  0  0  0
 61134  1  0  0  0
 61135  1  0  0  0
 61136  1  0  0  0
 62137  1  0  0  0
 62138  1  0  0  0
 62139  1  0  0  0
 63 65  1  0  0  0
 63140  1  0  0  0
 63141  1  0  0  0
 63142  1  0  0  0
 64143  1  0  0  0
 65144  1  0  0  0
 68 81  1  0  0  0
 71 72  2  0  0  0
 71 73  1  0  0  0
 71145  1  0  0  0
 72 77  1  0  0  0
 72146  1  0  0  0
 73 78  2  0  0  0
 73147  1  0  0  0
 74 76  1  0  0  0
 74 80  2  0  0  0
 74148  1  0  0  0
 75 76  2  0  0  0
 75 82  1  0  0  0
 75149  1  0  0  0
 76 81  1  0  0  0
 77 79  2  0  0  0
 77 82  1  0  0  0
 78 79  1  0  0  0
 78 83  1  0  0  0
 79 85  1  0  0  0
 80 82  1  0  0  0
 80 84  1  0  0  0
 81150  1  0  0  0
 81151  1  0  0  0
 83152  1  0  0  0
 84153  1  0  0  0
M  ISO  4   1 100  68 101  81 101  83 100
M  END
> <chiral flag>
0

> <version>
0

> <s_m_source_file>
/data/baiqing/PycharmProjects/Reinvent-master-3.2/result/LINK_invent/BTK/process_docking_weight1_custom_product_contain_oxygen_bond_distance_aromatic_linkinvent_7_9_3/rearranged_h_0087.sdf

> <i_m_source_file_index>
79

> <r_mmod_Potential_Energy-OPLS-2005>
220.612182617188

> <r_mmod_Stretch_Energy-OPLS-2005>
143.90934753418

> <r_mmod_Bend_Energy-OPLS-2005>
191.689834594727

> <r_mmod_Torsional_Energy-OPLS-2005>
229.72785949707

> <r_mmod_Improper_Torsional_Energy-OPLS-2005>
4.84102821350098

> <r_mmod_Van_der_Waal_Energy-OPLS-2005>
143.747406005859

> <r_mmod_Electrostatic_Energy-OPLS-2005>
-380.985534667969

> <r_mmod_Solvation_Energy-OPLS-2005>
-216.835876464844

> <b_mmod_Minimization_Converged-OPLS-2005>
0

> <r_mmod_RMS_Derivative-OPLS-2005>
1.54605114459991

$$$$
79
                    3D
 Structure written by MMmdl.
149157  0  0  1  0            999 V2000
  -30.6926  -14.6550   20.5007 C   0  0  0  0  0  0
  -30.4141  -12.4132   19.4445 C   0  0  0  0  0  0
  -29.4872  -12.4865   18.2152 C   0  0  0  0  0  0
  -28.0198  -12.3189   18.6485 C   0  0  0  0  0  0
  -27.6411  -13.2259   19.8493 C   0  0  2  0  0  0
  -28.6928  -13.1524   20.9766 C   0  0  0  0  0  0
  -25.2536  -13.8194   20.5694 C   0  0  0  0  0  0
  -24.1818  -13.0453   20.9210 C   0  0  0  0  0  0
  -24.6391  -11.6926   20.8767 C   0  0  0  0  0  0
  -23.9067  -10.4305   21.0423 C   0  0  0  0  0  0
  -24.3629   -9.4209   21.9193 C   0  0  0  0  0  0
  -23.6298   -8.2248   22.0758 C   0  0  0  0  0  0
  -22.4276   -8.0297   21.3548 C   0  0  0  0  0  0
  -21.9910   -9.0273   20.4655 C   0  0  0  0  0  0
  -22.7240  -10.2154   20.3067 C   0  0  0  0  0  0
  -21.6856   -6.0746   22.5282 C   0  0  0  0  0  0
  -21.4009   -6.5644   23.8217 C   0  0  0  0  0  0
  -21.3641   -5.6790   24.9176 C   0  0  0  0  0  0
  -21.6039   -4.3060   24.7223 C   0  0  0  0  0  0
  -21.8825   -3.8152   23.4343 C   0  0  0  0  0  0
  -21.9195   -4.6967   22.3404 C   0  0  0  0  0  0
  -22.7843  -13.5249   21.1848 C   0  0  0  0  0  0
  -22.1672   -4.2161   21.0979 F   0  0  0  0  0  0
  -21.5613   -3.4538   25.7729 F   0  0  0  0  0  0
  -29.9897  -13.4811   20.3777 N   0  0  0  0  0  0
  -26.2952  -12.9389   20.3321 N   0  0  0  0  0  0
  -25.9327  -11.6543   20.5814 N   0  0  0  0  0  0
  -22.0482  -12.8257   22.0404 N   0  0  0  0  0  0
  -25.4244  -15.1910   20.4049 N   0  0  0  0  0  0
  -31.8879  -14.6575   20.1953 O   0  0  0  0  0  0
  -21.6641   -6.8890   21.4249 O   0  0  0  0  0  0
  -22.3540  -14.5542   20.6666 O   0  0  0  0  0  0
  -24.6287  -31.8592   23.2028 C   0  0  0  0  0  0
  -25.9142  -32.4752   23.8353 C   0  0  1  0  0  0
  -27.2090  -27.2923   20.1166 C   0  0  0  0  0  0
  -25.5977  -33.8549   24.2292 N   0  0  0  0  0  0
  -23.4227  -30.4885   21.5460 C   0  0  2  0  0  0
  -24.8677  -28.9524   20.1085 C   0  0  0  0  0  0
  -22.7494  -29.4638   22.4908 C   0  0  0  0  0  0
  -18.0302  -28.1376   22.8472 C   0  0  0  0  0  0
  -24.1491  -36.7266   23.2628 C   0  0  0  0  0  0
  -25.9693  -30.7821   21.3822 C   0  0  0  0  0  0
  -26.0403  -29.4099   20.7231 C   0  0  0  0  0  0
  -27.2123  -28.5905   20.7247 C   0  0  0  0  0  0
  -26.0162  -26.9197   19.4479 C   0  0  0  0  0  0
  -24.8591  -27.7123   19.4626 C   0  0  0  0  0  0
  -23.6377  -29.8324   20.1595 C   0  0  0  0  0  0
  -25.4108  -36.3044   24.0321 C   0  0  1  0  0  0
  -20.5900  -28.3693   23.1246 C   0  0  2  0  0  0
  -20.6775  -26.9410   22.5392 C   0  0  0  0  0  0
  -19.5756  -26.6377   21.5185 C   0  0  0  0  0  0
  -18.1947  -26.7915   22.1609 C   0  0  0  0  0  0
  -19.1553  -28.8850   23.2861 C   0  0  0  0  0  0
  -18.9473  -30.1447   23.8883 C   0  0  0  0  0  0
  -17.6475  -30.6574   24.0549 C   0  0  0  0  0  0
  -25.9062  -34.9421   23.5094 C   0  0  0  0  0  0
  -16.5363  -29.9071   23.6322 C   0  0  0  0  0  0
  -16.7288  -28.6491   23.0341 C   0  0  0  0  0  0
  -26.4518  -31.6558   25.0724 C   0  0  0  0  0  0
  -25.3759  -31.3746   26.1473 C   0  0  0  0  0  0
  -27.0331  -30.2949   24.6190 C   0  0  0  0  0  0
  -27.6072  -32.4298   25.7501 C   0  0  0  0  0  0
  -27.5574  -37.1781   24.8460 C   0  0  0  0  0  0
  -21.4206  -29.3048   22.3645 N   0  0  0  0  0  0
  -26.4275  -37.3742   23.9420 N   0  0  0  0  0  0
  -24.6920  -31.0605   22.0992 N   0  0  0  0  0  0
  -23.4213  -28.8160   23.2982 O   0  0  0  0  0  0
  -28.2830  -26.3750   20.2009 O   0  0  0  0  0  0
  -26.5606  -34.8879   22.4646 O   0  0  0  0  0  0
  -23.5449  -32.1415   23.7348 O   0  0  0  0  0  0
  -30.7832  -19.6168   20.8524 C   0  0  0  0  0  0
  -28.5795  -18.7097   20.5985 C   0  0  0  0  0  0
  -30.2931  -20.9495   20.7112 C   0  0  0  0  0  0
  -28.0886  -20.0485   20.4466 C   0  0  0  0  0  0
  -29.9600  -18.4486   20.8053 C   0  0  0  0  0  0
  -28.9179  -21.2104   20.4950 C   0  0  0  0  0  0
  -28.8226  -23.7094   20.3303 C   0  0  0  0  0  0
  -30.6014  -17.0510   21.0396 C   0  0  0  0  0  0
  -27.9420  -24.9499   19.9055 C   0  0  0  0  0  0
  -28.3187  -22.5029   20.2790 N   0  0  0  0  0  0
  -30.0162  -15.8426   20.7199 N   0  0  0  0  0  0
  -31.7342  -17.0829   21.5388 O   0  0  0  0  0  0
  -31.4545  -12.5074   19.1295 H   0  0  0  0  0  0
  -30.3403  -11.4362   19.9254 H   0  0  0  0  0  0
  -29.7519  -11.7129   17.4926 H   0  0  0  0  0  0
  -29.6172  -13.4423   17.7050 H   0  0  0  0  0  0
  -27.8818  -11.2730   18.9266 H   0  0  0  0  0  0
  -27.3504  -12.4998   17.8075 H   0  0  0  0  0  0
  -27.6397  -14.2471   19.4688 H   0  0  0  0  0  0
  -28.7213  -12.1532   21.4140 H   0  0  0  0  0  0
  -28.4487  -13.8391   21.7883 H   0  0  0  0  0  0
  -25.2783   -9.5684   22.4764 H   0  0  0  0  0  0
  -24.0001   -7.4637   22.7479 H   0  0  0  0  0  0
  -21.0831   -8.8802   19.8972 H   0  0  0  0  0  0
  -22.3699  -10.9698   19.6182 H   0  0  0  0  0  0
  -21.2015   -7.6157   23.9722 H   0  0  0  0  0  0
  -21.1439   -6.0524   25.9077 H   0  0  0  0  0  0
  -22.0618   -2.7616   23.2847 H   0  0  0  0  0  0
  -22.4095  -11.9941   22.4828 H   0  0  0  0  0  0
  -21.1113  -13.1317   22.2600 H   0  0  0  0  0  0
  -24.6530  -15.8434   20.4929 H   0  0  0  0  0  0
  -26.2590  -15.6156   20.0225 H   0  0  0  0  0  0
  -26.7204  -32.5420   23.1094 H   0  0  0  0  0  0
  -25.0162  -33.9676   25.0465 H   0  0  0  0  0  0
  -22.7163  -31.3091   21.4049 H   0  0  0  0  0  0
  -23.3736  -35.9618   23.3282 H   0  0  0  0  0  0
  -24.3598  -36.8892   22.2048 H   0  0  0  0  0  0
  -23.7250  -37.6466   23.6652 H   0  0  0  0  0  0
  -26.1077  -31.5456   20.6161 H   0  0  0  0  0  0
  -26.8460  -30.8239   22.0166 H   0  0  0  0  0  0
  -28.1030  -28.9300   21.2347 H   0  0  0  0  0  0
  -25.9228  -25.9876   18.9124 H   0  0  0  0  0  0
  -23.9662  -27.3559   18.9688 H   0  0  0  0  0  0
  -23.7580  -30.6121   19.4064 H   0  0  0  0  0  0
  -22.7568  -29.2645   19.8555 H   0  0  0  0  0  0
  -25.1270  -36.1873   25.0803 H   0  0  0  0  0  0
  -20.9995  -28.3274   24.1360 H   0  0  0  0  0  0
  -20.5629  -26.2313   23.3602 H   0  0  0  0  0  0
  -21.6645  -26.7403   22.1208 H   0  0  0  0  0  0
  -19.6918  -25.6284   21.1227 H   0  0  0  0  0  0
  -19.6683  -27.3173   20.6704 H   0  0  0  0  0  0
  -17.4193  -26.6634   21.4038 H   0  0  0  0  0  0
  -18.0376  -26.0064   22.9020 H   0  0  0  0  0  0
  -19.7951  -30.7263   24.2249 H   0  0  0  0  0  0
  -17.5024  -31.6249   24.5157 H   0  0  0  0  0  0
  -15.5359  -30.2965   23.7639 H   0  0  0  0  0  0
  -15.8690  -28.0797   22.7061 H   0  0  0  0  0  0
  -24.5929  -30.7060   25.7869 H   0  0  0  0  0  0
  -24.8952  -32.2932   26.4846 H   0  0  0  0  0  0
  -25.8106  -30.9000   27.0280 H   0  0  0  0  0  0
  -26.2907  -29.6729   24.1169 H   0  0  0  0  0  0
  -27.3955  -29.7158   25.4697 H   0  0  0  0  0  0
  -27.8815  -30.4191   23.9454 H   0  0  0  0  0  0
  -27.2667  -33.3595   26.2074 H   0  0  0  0  0  0
  -28.3898  -32.6873   25.0351 H   0  0  0  0  0  0
  -28.0722  -31.8424   26.5435 H   0  0  0  0  0  0
  -28.2560  -38.0103   24.7499 H   0  0  0  0  0  0
  -28.1087  -36.2626   24.6266 H   0  0  0  0  0  0
  -27.2306  -37.1415   25.8865 H   0  0  0  0  0  0
  -20.9383  -29.8799   21.6879 H   0  0  0  0  0  0
  -26.0139  -38.2797   24.1445 H   0  0  0  0  0  0
  -31.8469  -19.4985   21.0060 H   0  0  0  0  0  0
  -27.8793  -17.8876   20.5549 H   0  0  0  0  0  0
  -30.9991  -21.7664   20.7630 H   0  0  0  0  0  0
  -27.0267  -20.1809   20.2839 H   0  0  0  0  0  0
  -29.8522  -23.9274   20.6277 H   0  0  0  0  0  0
  -26.9697  -24.7354   20.3514 H   0  0  0  0  0  0
  -27.8192  -24.8702   18.8244 H   0  0  0  0  0  0
  -29.0185  -15.8354   20.5963 H   0  0  0  0  0  0
  1 25  1  0  0  0
  1 30  2  0  0  0
  1 81  1  0  0  0
  2  3  1  0  0  0
  2 25  1  0  0  0
  2 83  1  0  0  0
  2 84  1  0  0  0
  3  4  1  0  0  0
  3 85  1  0  0  0
  3 86  1  0  0  0
  4  5  1  0  0  0
  4 87  1  0  0  0
  4 88  1  0  0  0
  5  6  1  0  0  0
  5 26  1  0  0  0
  5 89  1  0  0  0
  6 25  1  0  0  0
  6 90  1  0  0  0
  6 91  1  0  0  0
  7  8  2  0  0  0
  7 26  1  0  0  0
  7 29  1  0  0  0
  8  9  1  0  0  0
  8 22  1  0  0  0
  9 10  1  0  0  0
  9 27  2  0  0  0
 10 11  2  0  0  0
 10 15  1  0  0  0
 11 12  1  0  0  0
 11 92  1  0  0  0
 12 13  2  0  0  0
 12 93  1  0  0  0
 13 14  1  0  0  0
 13 31  1  0  0  0
 14 15  2  0  0  0
 14 94  1  0  0  0
 15 95  1  0  0  0
 16 17  2  0  0  0
 16 21  1  0  0  0
 16 31  1  0  0  0
 17 18  1  0  0  0
 17 96  1  0  0  0
 18 19  2  0  0  0
 18 97  1  0  0  0
 19 20  1  0  0  0
 19 24  1  0  0  0
 20 21  2  0  0  0
 20 98  1  0  0  0
 21 23  1  0  0  0
 22 28  1  0  0  0
 22 32  2  0  0  0
 26 27  1  0  0  0
 28 99  1  0  0  0
 28100  1  0  0  0
 29101  1  0  0  0
 29102  1  0  0  0
 33 34  1  0  0  0
 33 66  1  0  0  0
 33 70  2  0  0  0
 34 36  1  0  0  0
 34 59  1  0  0  0
 34103  1  0  0  0
 35 44  2  0  0  0
 35 45  1  0  0  0
 35 68  1  0  0  0
 36 56  1  0  0  0
 36104  1  0  0  0
 37 39  1  0  0  0
 37 47  1  0  0  0
 37 66  1  0  0  0
 37105  1  0  0  0
 38 43  2  0  0  0
 38 46  1  0  0  0
 38 47  1  0  0  0
 39 64  1  0  0  0
 39 67  2  0  0  0
 40 52  1  0  0  0
 40 53  2  0  0  0
 40 58  1  0  0  0
 41106  1  0  0  0
 41107  1  0  0  0
 41108  1  0  0  0
 41 48  1  0  0  0
 42 43  1  0  0  0
 42 66  1  0  0  0
 42109  1  0  0  0
 42110  1  0  0  0
 43 44  1  0  0  0
 44111  1  0  0  0
 45 46  2  0  0  0
 45112  1  0  0  0
 46113  1  0  0  0
 47114  1  0  0  0
 47115  1  0  0  0
 48 56  1  0  0  0
 48 65  1  0  0  0
 48116  1  0  0  0
 49 50  1  0  0  0
 49 53  1  0  0  0
 49 64  1  0  0  0
 49117  1  0  0  0
 50 51  1  0  0  0
 50118  1  0  0  0
 50119  1  0  0  0
 51 52  1  0  0  0
 51120  1  0  0  0
 51121  1  0  0  0
 52122  1  0  0  0
 52123  1  0  0  0
 53 54  1  0  0  0
 54 55  2  0  0  0
 54124  1  0  0  0
 55 57  1  0  0  0
 55125  1  0  0  0
 56 69  2  0  0  0
 57 58  2  0  0  0
 57126  1  0  0  0
 58127  1  0  0  0
 59 60  1  0  0  0
 59 61  1  0  0  0
 59 62  1  0  0  0
 60128  1  0  0  0
 60129  1  0  0  0
 60130  1  0  0  0
 61131  1  0  0  0
 61132  1  0  0  0
 61133  1  0  0  0
 62134  1  0  0  0
 62135  1  0  0  0
 62136  1  0  0  0
 63 65  1  0  0  0
 63137  1  0  0  0
 63138  1  0  0  0
 63139  1  0  0  0
 64140  1  0  0  0
 65141  1  0  0  0
 68 79  1  0  0  0
 71 73  2  0  0  0
 71 75  1  0  0  0
 71142  1  0  0  0
 72 74  1  0  0  0
 72 75  2  0  0  0
 72143  1  0  0  0
 73 76  1  0  0  0
 73144  1  0  0  0
 74 76  2  0  0  0
 74145  1  0  0  0
 75 78  1  0  0  0
 76 80  1  0  0  0
 77 79  1  0  0  0
 77 80  2  0  0  0
 77146  1  0  0  0
 78 81  1  0  0  0
 78 82  2  0  0  0
 79147  1  0  0  0
 79148  1  0  0  0
 81149  1  0  0  0
M  ISO  4   1 100  68 101  79 101  81 100
M  END
> <chiral flag>
0

> <version>
0

> <s_m_source_file>
/data/baiqing/PycharmProjects/Reinvent-master-3.2/result/LINK_invent/BTK/process_docking_weight1_custom_product_contain_oxygen_bond_distance_aromatic_linkinvent_7_9_3/rearranged_h_0087.sdf

> <i_m_source_file_index>
80

> <r_mmod_Potential_Energy-OPLS-2005>
84.0784530639648

> <r_mmod_Stretch_Energy-OPLS-2005>
90.4449844360352

> <r_mmod_Bend_Energy-OPLS-2005>
179.62939453125

> <r_mmod_Torsional_Energy-OPLS-2005>
223.521301269531

> <r_mmod_Improper_Torsional_Energy-OPLS-2005>
5.85580825805664

> <r_mmod_Van_der_Waal_Energy-OPLS-2005>
166.438491821289

> <r_mmod_Electrostatic_Energy-OPLS-2005>
-419.933715820312

> <r_mmod_Solvation_Energy-OPLS-2005>
-230.096710205078

> <b_mmod_Minimization_Converged-OPLS-2005>
0

> <r_mmod_RMS_Derivative-OPLS-2005>
2.32978391647339

$$$$
80
                    3D
 Structure written by MMmdl.
153162  0  0  1  0            999 V2000
  -30.6857  -14.5651   20.4909 C   0  0  0  0  0  0
  -30.4162  -12.3417   19.4555 C   0  0  0  0  0  0
  -29.5004  -12.4922   18.2232 C   0  0  0  0  0  0
  -28.0215  -12.3508   18.6321 C   0  0  0  0  0  0
  -27.6518  -13.2210   19.8642 C   0  0  2  0  0  0
  -28.6950  -13.0829   20.9967 C   0  0  0  0  0  0
  -25.2542  -13.8193   20.5694 C   0  0  0  0  0  0
  -24.1817  -13.0448   20.9197 C   0  0  0  0  0  0
  -24.6394  -11.6920   20.8746 C   0  0  0  0  0  0
  -23.9065  -10.4298   21.0405 C   0  0  0  0  0  0
  -24.3616   -9.4211   21.9182 C   0  0  0  0  0  0
  -23.6292   -8.2245   22.0750 C   0  0  0  0  0  0
  -22.4274   -8.0284   21.3543 C   0  0  0  0  0  0
  -21.9911   -9.0257   20.4645 C   0  0  0  0  0  0
  -22.7237  -10.2138   20.3053 C   0  0  0  0  0  0
  -21.6856   -6.0733   22.5278 C   0  0  0  0  0  0
  -21.4019   -6.5636   23.8209 C   0  0  0  0  0  0
  -21.3663   -5.6791   24.9176 C   0  0  0  0  0  0
  -21.6044   -4.3051   24.7227 C   0  0  0  0  0  0
  -21.8819   -3.8144   23.4350 C   0  0  0  0  0  0
  -21.9194   -4.6959   22.3403 C   0  0  0  0  0  0
  -22.7834  -13.5230   21.1858 C   0  0  0  0  0  0
  -22.1658   -4.2142   21.0983 F   0  0  0  0  0  0
  -21.5632   -3.4537   25.7744 F   0  0  0  0  0  0
  -30.0162  -13.3771   20.4270 N   0  0  0  0  0  0
  -26.2978  -12.9386   20.3331 N   0  0  0  0  0  0
  -25.9326  -11.6533   20.5768 N   0  0  0  0  0  0
  -22.0479  -12.8215   22.0414 N   0  0  0  0  0  0
  -25.4238  -15.1917   20.4105 N   0  0  0  0  0  0
  -31.8578  -14.6634   20.1208 O   0  0  0  0  0  0
  -21.6641   -6.8878   21.4238 O   0  0  0  0  0  0
  -22.3517  -14.5534   20.6709 O   0  0  0  0  0  0
  -24.6200  -31.8642   23.2064 C   0  0  0  0  0  0
  -25.9067  -32.4804   23.8376 C   0  0  1  0  0  0
  -27.2273  -27.3840   20.1080 C   0  0  0  0  0  0
  -25.5909  -33.8604   24.2305 N   0  0  0  0  0  0
  -23.4121  -30.4867   21.5475 C   0  0  2  0  0  0
  -24.8615  -28.9496   20.1093 C   0  0  0  0  0  0
  -22.7449  -29.4636   22.4961 C   0  0  0  0  0  0
  -18.0284  -28.1374   22.8484 C   0  0  0  0  0  0
  -24.1492  -36.7317   23.2635 C   0  0  0  0  0  0
  -25.9468  -30.8147   21.3681 C   0  0  0  0  0  0
  -26.0262  -29.4470   20.7107 C   0  0  0  0  0  0
  -27.2170  -28.6723   20.7061 C   0  0  0  0  0  0
  -26.0498  -26.9184   19.4908 C   0  0  0  0  0  0
  -24.8715  -27.6872   19.4918 C   0  0  0  0  0  0
  -23.6246  -29.8203   20.1621 C   0  0  0  0  0  0
  -25.4113  -36.3104   24.0334 C   0  0  1  0  0  0
  -20.5879  -28.3677   23.1298 C   0  0  2  0  0  0
  -20.6768  -26.9408   22.5413 C   0  0  0  0  0  0
  -19.5748  -26.6385   21.5207 C   0  0  0  0  0  0
  -18.1929  -26.7918   22.1620 C   0  0  0  0  0  0
  -19.1535  -28.8840   23.2885 C   0  0  0  0  0  0
  -18.9455  -30.1440   23.8904 C   0  0  0  0  0  0
  -17.6456  -30.6577   24.0560 C   0  0  0  0  0  0
  -25.9045  -34.9467   23.5118 C   0  0  0  0  0  0
  -16.5350  -29.9078   23.6320 C   0  0  0  0  0  0
  -16.7272  -28.6495   23.0341 C   0  0  0  0  0  0
  -26.4473  -31.6588   25.0717 C   0  0  0  0  0  0
  -25.3725  -31.3712   26.1456 C   0  0  0  0  0  0
  -27.0298  -30.3018   24.6123 C   0  0  0  0  0  0
  -27.6052  -32.4299   25.7481 C   0  0  0  0  0  0
  -27.5586  -37.1815   24.8462 C   0  0  0  0  0  0
  -21.4170  -29.3036   22.3696 N   0  0  0  0  0  0
  -26.4302  -37.3785   23.9400 N   0  0  0  0  0  0
  -24.6780  -31.0700   22.0986 N   0  0  0  0  0  0
  -23.4197  -28.8187   23.3030 O   0  0  0  0  0  0
  -28.3121  -26.5224   20.1557 O   0  0  0  0  0  0
  -26.5609  -34.8923   22.4681 O   0  0  0  0  0  0
  -23.5375  -32.1413   23.7426 O   0  0  0  0  0  0
  -28.7423  -19.9237   22.2233 C   0  0  0  0  0  0
  -29.1506  -18.5535   22.0548 C   0  0  0  0  0  0
  -29.7259  -18.3087   20.8276 C   0  0  0  0  0  0
  -29.0007  -20.7572   21.1591 C   0  0  0  0  0  0
  -28.4734  -24.1749   21.0040 C   0  0  0  0  0  0
  -28.2833  -23.1549   22.0090 C   0  0  0  0  0  0
  -28.1834  -25.5066   21.0975 C   0  0  0  0  0  0
  -29.0171  -23.1267   20.0197 C   0  0  0  0  0  0
  -28.9930  -17.5242   23.1352 C   0  0  0  0  0  0
  -30.4001  -17.0441   20.2784 C   0  0  0  0  0  0
  -28.7180  -22.1775   21.1152 N   0  0  0  0  0  0
  -29.9532  -15.6894   20.7207 N   0  0  0  0  0  0
  -27.9144  -23.2128   23.1641 O   0  0  0  0  0  0
  -29.7382  -19.8069   19.8763 S   0  0  0  0  0  0
  -31.4637  -12.4221   19.1599 H   0  0  0  0  0  0
  -30.3081  -11.3493   19.8958 H   0  0  0  0  0  0
  -29.7532  -11.7437   17.4707 H   0  0  0  0  0  0
  -29.6633  -13.4645   17.7550 H   0  0  0  0  0  0
  -27.8423  -11.2982   18.8549 H   0  0  0  0  0  0
  -27.3726  -12.5959   17.7903 H   0  0  0  0  0  0
  -27.6714  -14.2560   19.5234 H   0  0  0  0  0  0
  -28.6844  -12.0732   21.4097 H   0  0  0  0  0  0
  -28.4607  -13.7524   21.8259 H   0  0  0  0  0  0
  -25.2764   -9.5687   22.4753 H   0  0  0  0  0  0
  -24.0002   -7.4636   22.7467 H   0  0  0  0  0  0
  -21.0843   -8.8778   19.8952 H   0  0  0  0  0  0
  -22.3696  -10.9676   19.6161 H   0  0  0  0  0  0
  -21.2011   -7.6144   23.9715 H   0  0  0  0  0  0
  -21.1486   -6.0521   25.9078 H   0  0  0  0  0  0
  -22.0596   -2.7604   23.2854 H   0  0  0  0  0  0
  -22.4097  -11.9879   22.4800 H   0  0  0  0  0  0
  -21.1094  -13.1232   22.2613 H   0  0  0  0  0  0
  -24.6550  -15.8438   20.5219 H   0  0  0  0  0  0
  -26.2701  -15.6340   20.0753 H   0  0  0  0  0  0
  -26.7143  -32.5502   23.1141 H   0  0  0  0  0  0
  -25.0057  -33.9763   25.0450 H   0  0  0  0  0  0
  -22.7038  -31.3059   21.4055 H   0  0  0  0  0  0
  -23.3747  -35.9657   23.3311 H   0  0  0  0  0  0
  -24.3593  -36.8919   22.2048 H   0  0  0  0  0  0
  -23.7256  -37.6532   23.6642 H   0  0  0  0  0  0
  -26.0662  -31.5803   20.6010 H   0  0  0  0  0  0
  -26.8324  -30.8671   21.9896 H   0  0  0  0  0  0
  -28.1119  -29.0410   21.1879 H   0  0  0  0  0  0
  -26.0416  -25.9393   19.0324 H   0  0  0  0  0  0
  -23.9782  -27.2985   19.0238 H   0  0  0  0  0  0
  -23.7354  -30.5963   19.4037 H   0  0  0  0  0  0
  -22.7479  -29.2436   19.8626 H   0  0  0  0  0  0
  -25.1292  -36.1971   25.0829 H   0  0  0  0  0  0
  -20.9965  -28.3237   24.1421 H   0  0  0  0  0  0
  -20.5661  -26.2291   23.3609 H   0  0  0  0  0  0
  -21.6639  -26.7431   22.1217 H   0  0  0  0  0  0
  -19.6919  -25.6299   21.1229 H   0  0  0  0  0  0
  -19.6686  -27.3201   20.6740 H   0  0  0  0  0  0
  -17.4202  -26.6665   21.4022 H   0  0  0  0  0  0
  -18.0334  -26.0059   22.9016 H   0  0  0  0  0  0
  -19.7931  -30.7244   24.2293 H   0  0  0  0  0  0
  -17.5013  -31.6259   24.5150 H   0  0  0  0  0  0
  -15.5350  -30.2977   23.7635 H   0  0  0  0  0  0
  -15.8677  -28.0810   22.7049 H   0  0  0  0  0  0
  -24.5910  -30.7044   25.7792 H   0  0  0  0  0  0
  -24.8901  -32.2872   26.4876 H   0  0  0  0  0  0
  -25.8071  -30.8902   27.0228 H   0  0  0  0  0  0
  -26.2852  -29.6802   24.1136 H   0  0  0  0  0  0
  -27.4000  -29.7235   25.4599 H   0  0  0  0  0  0
  -27.8721  -30.4322   23.9323 H   0  0  0  0  0  0
  -27.2682  -33.3594   26.2079 H   0  0  0  0  0  0
  -28.3854  -32.6863   25.0303 H   0  0  0  0  0  0
  -28.0727  -31.8403   26.5377 H   0  0  0  0  0  0
  -28.2606  -38.0106   24.7490 H   0  0  0  0  0  0
  -28.1075  -36.2638   24.6305 H   0  0  0  0  0  0
  -27.2305  -37.1481   25.8865 H   0  0  0  0  0  0
  -20.9342  -29.8779   21.6928 H   0  0  0  0  0  0
  -26.0194  -38.2868   24.1381 H   0  0  0  0  0  0
  -28.2863  -20.2569   23.1456 H   0  0  0  0  0  0
  -27.7708  -25.8953   22.0201 H   0  0  0  0  0  0
  -30.0830  -23.1593   19.7869 H   0  0  0  0  0  0
  -28.4301  -22.9155   19.1245 H   0  0  0  0  0  0
  -28.7442  -17.9806   24.0936 H   0  0  0  0  0  0
  -29.9130  -16.9584   23.2833 H   0  0  0  0  0  0
  -28.2010  -16.8145   22.8960 H   0  0  0  0  0  0
  -31.4673  -17.1396   20.4844 H   0  0  0  0  0  0
  -30.3221  -17.0581   19.1899 H   0  0  0  0  0  0
  -28.9862  -15.5735   20.9789 H   0  0  0  0  0  0
  1 25  1  0  0  0
  1 30  2  0  0  0
  1 82  1  0  0  0
  2  3  1  0  0  0
  2 25  1  0  0  0
  2 85  1  0  0  0
  2 86  1  0  0  0
  3  4  1  0  0  0
  3 87  1  0  0  0
  3 88  1  0  0  0
  4  5  1  0  0  0
  4 89  1  0  0  0
  4 90  1  0  0  0
  5  6  1  0  0  0
  5 26  1  0  0  0
  5 91  1  0  0  0
  6 25  1  0  0  0
  6 92  1  0  0  0
  6 93  1  0  0  0
  7  8  2  0  0  0
  7 26  1  0  0  0
  7 29  1  0  0  0
  8  9  1  0  0  0
  8 22  1  0  0  0
  9 10  1  0  0  0
  9 27  2  0  0  0
 10 11  2  0  0  0
 10 15  1  0  0  0
 11 12  1  0  0  0
 11 94  1  0  0  0
 12 13  2  0  0  0
 12 95  1  0  0  0
 13 14  1  0  0  0
 13 31  1  0  0  0
 14 15  2  0  0  0
 14 96  1  0  0  0
 15 97  1  0  0  0
 16 17  2  0  0  0
 16 21  1  0  0  0
 16 31  1  0  0  0
 17 18  1  0  0  0
 17 98  1  0  0  0
 18 19  2  0  0  0
 18 99  1  0  0  0
 19 20  1  0  0  0
 19 24  1  0  0  0
 20 21  2  0  0  0
 20100  1  0  0  0
 21 23  1  0  0  0
 22 28  1  0  0  0
 22 32  2  0  0  0
 26 27  1  0  0  0
 28101  1  0  0  0
 28102  1  0  0  0
 29103  1  0  0  0
 29104  1  0  0  0
 33 34  1  0  0  0
 33 66  1  0  0  0
 33 70  2  0  0  0
 34 36  1  0  0  0
 34 59  1  0  0  0
 34105  1  0  0  0
 35 44  2  0  0  0
 35 45  1  0  0  0
 35 68  1  0  0  0
 36 56  1  0  0  0
 36106  1  0  0  0
 37 39  1  0  0  0
 37 47  1  0  0  0
 37 66  1  0  0  0
 37107  1  0  0  0
 38 43  2  0  0  0
 38 46  1  0  0  0
 38 47  1  0  0  0
 39 64  1  0  0  0
 39 67  2  0  0  0
 40 52  1  0  0  0
 40 53  2  0  0  0
 40 58  1  0  0  0
 41108  1  0  0  0
 41109  1  0  0  0
 41110  1  0  0  0
 41 48  1  0  0  0
 42 43  1  0  0  0
 42 66  1  0  0  0
 42111  1  0  0  0
 42112  1  0  0  0
 43 44  1  0  0  0
 44113  1  0  0  0
 45 46  2  0  0  0
 45114  1  0  0  0
 46115  1  0  0  0
 47116  1  0  0  0
 47117  1  0  0  0
 48 56  1  0  0  0
 48 65  1  0  0  0
 48118  1  0  0  0
 49 50  1  0  0  0
 49 53  1  0  0  0
 49 64  1  0  0  0
 49119  1  0  0  0
 50 51  1  0  0  0
 50120  1  0  0  0
 50121  1  0  0  0
 51 52  1  0  0  0
 51122  1  0  0  0
 51123  1  0  0  0
 52124  1  0  0  0
 52125  1  0  0  0
 53 54  1  0  0  0
 54 55  2  0  0  0
 54126  1  0  0  0
 55 57  1  0  0  0
 55127  1  0  0  0
 56 69  2  0  0  0
 57 58  2  0  0  0
 57128  1  0  0  0
 58129  1  0  0  0
 59 60  1  0  0  0
 59 61  1  0  0  0
 59 62  1  0  0  0
 60130  1  0  0  0
 60131  1  0  0  0
 60132  1  0  0  0
 61133  1  0  0  0
 61134  1  0  0  0
 61135  1  0  0  0
 62136  1  0  0  0
 62137  1  0  0  0
 62138  1  0  0  0
 63 65  1  0  0  0
 63139  1  0  0  0
 63140  1  0  0  0
 63141  1  0  0  0
 64142  1  0  0  0
 65143  1  0  0  0
 68 77  1  0  0  0
 71 72  1  0  0  0
 71 74  2  0  0  0
 71144  1  0  0  0
 72 73  2  0  0  0
 72 79  1  0  0  0
 73 80  1  0  0  0
 73 84  1  0  0  0
 74 81  1  0  0  0
 74 84  1  0  0  0
 75 76  1  0  0  0
 75 77  2  0  0  0
 75 78  1  0  0  0
 76 81  1  0  0  0
 76 83  2  0  0  0
 77145  1  0  0  0
 78 81  1  0  0  0
 78146  1  0  0  0
 78147  1  0  0  0
 79148  1  0  0  0
 79149  1  0  0  0
 79150  1  0  0  0
 80 82  1  0  0  0
 80151  1  0  0  0
 80152  1  0  0  0
 82153  1  0  0  0
M  ISO  4   1 100  68 101  77 101  82 100
M  END
> <chiral flag>
0

> <version>
0

> <s_m_source_file>
/data/baiqing/PycharmProjects/Reinvent-master-3.2/result/LINK_invent/BTK/process_docking_weight1_custom_product_contain_oxygen_bond_distance_aromatic_linkinvent_7_9_3/rearranged_h_0087.sdf

> <i_m_source_file_index>
81

> <r_mmod_Potential_Energy-OPLS-2005>
2.31223106384277

> <r_mmod_Stretch_Energy-OPLS-2005>
48.9402923583984

> <r_mmod_Bend_Energy-OPLS-2005>
197.700897216797

> <r_mmod_Torsional_Energy-OPLS-2005>
221.433319091797

> <r_mmod_Improper_Torsional_Energy-OPLS-2005>
7.33341455459595

> <r_mmod_Van_der_Waal_Energy-OPLS-2005>
114.836380004883

> <r_mmod_Electrostatic_Energy-OPLS-2005>
-405.955535888672

> <r_mmod_Solvation_Energy-OPLS-2005>
-214.64274597168

> <b_mmod_Minimization_Converged-OPLS-2005>
0

> <r_mmod_RMS_Derivative-OPLS-2005>
1.04114508628845

$$$$
81
                    3D
 Structure written by MMmdl.
154163  0  0  1  0            999 V2000
  -30.7607  -14.4046   20.5256 C   0  0  0  0  0  0
  -30.3962  -12.2480   19.4433 C   0  0  0  0  0  0
  -29.4932  -12.4835   18.2159 C   0  0  0  0  0  0
  -28.0111  -12.3670   18.6178 C   0  0  0  0  0  0
  -27.6585  -13.2166   19.8692 C   0  0  2  0  0  0
  -28.6956  -13.0256   20.9986 C   0  0  0  0  0  0
  -25.2573  -13.8192   20.5689 C   0  0  0  0  0  0
  -24.1830  -13.0454   20.9169 C   0  0  0  0  0  0
  -24.6398  -11.6924   20.8729 C   0  0  0  0  0  0
  -23.9072  -10.4302   21.0399 C   0  0  0  0  0  0
  -24.3626   -9.4217   21.9178 C   0  0  0  0  0  0
  -23.6298   -8.2254   22.0756 C   0  0  0  0  0  0
  -22.4281   -8.0286   21.3544 C   0  0  0  0  0  0
  -21.9912   -9.0259   20.4648 C   0  0  0  0  0  0
  -22.7245  -10.2135   20.3052 C   0  0  0  0  0  0
  -21.6860   -6.0738   22.5279 C   0  0  0  0  0  0
  -21.4015   -6.5642   23.8214 C   0  0  0  0  0  0
  -21.3659   -5.6794   24.9177 C   0  0  0  0  0  0
  -21.6043   -4.3056   24.7227 C   0  0  0  0  0  0
  -21.8815   -3.8147   23.4348 C   0  0  0  0  0  0
  -21.9195   -4.6963   22.3402 C   0  0  0  0  0  0
  -22.7850  -13.5239   21.1839 C   0  0  0  0  0  0
  -22.1666   -4.2150   21.0979 F   0  0  0  0  0  0
  -21.5635   -3.4539   25.7738 F   0  0  0  0  0  0
  -30.0374  -13.2591   20.4485 N   0  0  0  0  0  0
  -26.3013  -12.9383   20.3345 N   0  0  0  0  0  0
  -25.9328  -11.6530   20.5759 N   0  0  0  0  0  0
  -22.0495  -12.8231   22.0398 N   0  0  0  0  0  0
  -25.4308  -15.1913   20.4131 N   0  0  0  0  0  0
  -31.9261  -14.4755   20.1289 O   0  0  0  0  0  0
  -21.6647   -6.8883   21.4242 O   0  0  0  0  0  0
  -22.3531  -14.5551   20.6700 O   0  0  0  0  0  0
  -24.6105  -31.8714   23.2139 C   0  0  0  0  0  0
  -25.9014  -32.4843   23.8421 C   0  0  1  0  0  0
  -27.2295  -27.4757   20.0912 C   0  0  0  0  0  0
  -25.5889  -33.8641   24.2350 N   0  0  0  0  0  0
  -23.3966  -30.4964   21.5532 C   0  0  2  0  0  0
  -24.8425  -28.9705   20.1125 C   0  0  0  0  0  0
  -22.7391  -29.4678   22.5005 C   0  0  0  0  0  0
  -18.0267  -28.1376   22.8499 C   0  0  0  0  0  0
  -24.1485  -36.7327   23.2636 C   0  0  0  0  0  0
  -25.9215  -30.8502   21.3611 C   0  0  0  0  0  0
  -26.0004  -29.4883   20.7083 C   0  0  0  0  0  0
  -27.2000  -28.7464   20.6974 C   0  0  0  0  0  0
  -26.0600  -26.9663   19.4840 C   0  0  0  0  0  0
  -24.8649  -27.7068   19.4974 C   0  0  0  0  0  0
  -23.6024  -29.8314   20.1662 C   0  0  0  0  0  0
  -25.4105  -36.3129   24.0340 C   0  0  1  0  0  0
  -20.5855  -28.3658   23.1329 C   0  0  2  0  0  0
  -20.6757  -26.9397   22.5420 C   0  0  0  0  0  0
  -19.5737  -26.6388   21.5215 C   0  0  0  0  0  0
  -18.1915  -26.7923   22.1626 C   0  0  0  0  0  0
  -19.1516  -28.8832   23.2912 C   0  0  0  0  0  0
  -18.9446  -30.1441   23.8917 C   0  0  0  0  0  0
  -17.6450  -30.6584   24.0570 C   0  0  0  0  0  0
  -25.9030  -34.9489   23.5141 C   0  0  0  0  0  0
  -16.5342  -29.9091   23.6323 C   0  0  0  0  0  0
  -16.7259  -28.6507   23.0346 C   0  0  0  0  0  0
  -26.4456  -31.6609   25.0732 C   0  0  0  0  0  0
  -25.3745  -31.3703   26.1500 C   0  0  0  0  0  0
  -27.0271  -30.3059   24.6073 C   0  0  0  0  0  0
  -27.6050  -32.4314   25.7478 C   0  0  0  0  0  0
  -27.5585  -37.1815   24.8462 C   0  0  0  0  0  0
  -21.4122  -29.3035   22.3744 N   0  0  0  0  0  0
  -26.4295  -37.3809   23.9411 N   0  0  0  0  0  0
  -24.6609  -31.0854   22.1018 N   0  0  0  0  0  0
  -23.4178  -28.8215   23.3031 O   0  0  0  0  0  0
  -28.3794  -26.7301   20.1063 O   0  0  0  0  0  0
  -26.5591  -34.8930   22.4703 O   0  0  0  0  0  0
  -23.5309  -32.1446   23.7560 O   0  0  0  0  0  0
  -29.6604  -18.7258   21.1283 C   0  0  0  0  0  0
  -29.5176  -20.1282   21.0779 C   0  0  0  0  0  0
  -29.5569  -18.6441   18.6988 C   0  0  0  0  0  0
  -29.7425  -17.9880   19.9300 C   0  0  0  0  0  0
  -29.4261  -20.8007   19.8334 C   0  0  0  0  0  0
  -29.3979  -20.0367   18.6448 C   0  0  0  0  0  0
  -28.8994  -24.3883   20.0992 C   0  0  0  0  0  0
  -29.9096  -24.3985   19.0672 C   0  0  0  0  0  0
  -28.6327  -23.0327   20.5184 C   0  0  0  0  0  0
  -30.1225  -16.5777   19.8891 C   0  0  0  0  0  0
  -28.2291  -25.4517   20.5759 C   0  0  0  0  0  0
  -30.0476  -15.6278   20.8449 C   0  0  0  0  0  0
  -30.2795  -22.9567   18.8168 C   0  0  0  0  0  0
  -29.4171  -22.2263   19.7651 N   0  0  0  0  0  0
  -30.4030  -25.3609   18.4684 O   0  0  0  0  0  0
  -27.8220  -22.6630   21.3780 O   0  0  0  0  0  0
  -29.2327  -20.6235   17.4357 F   0  0  0  0  0  0
  -31.4479  -12.2819   19.1537 H   0  0  0  0  0  0
  -30.2367  -11.2477   19.8492 H   0  0  0  0  0  0
  -29.7242  -11.7607   17.4328 H   0  0  0  0  0  0
  -29.6879  -13.4700   17.7915 H   0  0  0  0  0  0
  -27.8076  -11.3137   18.8142 H   0  0  0  0  0  0
  -27.3707  -12.6476   17.7808 H   0  0  0  0  0  0
  -27.6981  -14.2611   19.5601 H   0  0  0  0  0  0
  -28.6413  -12.0127   21.3993 H   0  0  0  0  0  0
  -28.4797  -13.6882   21.8372 H   0  0  0  0  0  0
  -25.2772   -9.5698   22.4743 H   0  0  0  0  0  0
  -24.0004   -7.4655   22.7485 H   0  0  0  0  0  0
  -21.0835   -8.8788   19.8960 H   0  0  0  0  0  0
  -22.3710  -10.9676   19.6161 H   0  0  0  0  0  0
  -21.2008   -7.6150   23.9714 H   0  0  0  0  0  0
  -21.1486   -6.0529   25.9078 H   0  0  0  0  0  0
  -22.0590   -2.7608   23.2854 H   0  0  0  0  0  0
  -22.4117  -11.9889   22.4777 H   0  0  0  0  0  0
  -21.1118  -13.1261   22.2626 H   0  0  0  0  0  0
  -24.6723  -15.8534   20.5333 H   0  0  0  0  0  0
  -26.2983  -15.6282   20.1267 H   0  0  0  0  0  0
  -26.7094  -32.5569   23.1200 H   0  0  0  0  0  0
  -25.0046  -33.9815   25.0499 H   0  0  0  0  0  0
  -22.6834  -31.3118   21.4171 H   0  0  0  0  0  0
  -23.3747  -35.9662   23.3306 H   0  0  0  0  0  0
  -24.3582  -36.8934   22.2050 H   0  0  0  0  0  0
  -23.7237  -37.6535   23.6641 H   0  0  0  0  0  0
  -26.0274  -31.6181   20.5933 H   0  0  0  0  0  0
  -26.8122  -30.9049   21.9754 H   0  0  0  0  0  0
  -28.0954  -29.1375   21.1601 H   0  0  0  0  0  0
  -26.0716  -25.9966   19.0064 H   0  0  0  0  0  0
  -23.9758  -27.3042   19.0319 H   0  0  0  0  0  0
  -23.7056  -30.6071   19.4067 H   0  0  0  0  0  0
  -22.7280  -29.2482   19.8720 H   0  0  0  0  0  0
  -25.1280  -36.2003   25.0834 H   0  0  0  0  0  0
  -20.9947  -28.3218   24.1449 H   0  0  0  0  0  0
  -20.5664  -26.2263   23.3603 H   0  0  0  0  0  0
  -21.6628  -26.7447   22.1210 H   0  0  0  0  0  0
  -19.6897  -25.6305   21.1230 H   0  0  0  0  0  0
  -19.6675  -27.3212   20.6756 H   0  0  0  0  0  0
  -17.4185  -26.6677   21.4028 H   0  0  0  0  0  0
  -18.0314  -26.0059   22.9015 H   0  0  0  0  0  0
  -19.7924  -30.7254   24.2292 H   0  0  0  0  0  0
  -17.5007  -31.6264   24.5173 H   0  0  0  0  0  0
  -15.5345  -30.3004   23.7630 H   0  0  0  0  0  0
  -15.8657  -28.0837   22.7045 H   0  0  0  0  0  0
  -24.5886  -30.7087   25.7838 H   0  0  0  0  0  0
  -24.8976  -32.2858   26.5011 H   0  0  0  0  0  0
  -25.8116  -30.8817   27.0219 H   0  0  0  0  0  0
  -26.2795  -29.6835   24.1142 H   0  0  0  0  0  0
  -27.4070  -29.7279   25.4507 H   0  0  0  0  0  0
  -27.8619  -30.4390   23.9188 H   0  0  0  0  0  0
  -27.2687  -33.3602   26.2098 H   0  0  0  0  0  0
  -28.3830  -32.6896   25.0280 H   0  0  0  0  0  0
  -28.0749  -31.8410   26.5354 H   0  0  0  0  0  0
  -28.2605  -38.0111   24.7524 H   0  0  0  0  0  0
  -28.1079  -36.2647   24.6270 H   0  0  0  0  0  0
  -27.2305  -37.1450   25.8864 H   0  0  0  0  0  0
  -20.9270  -29.8772   21.6989 H   0  0  0  0  0  0
  -26.0189  -38.2888   24.1424 H   0  0  0  0  0  0
  -29.7930  -18.2380   22.0841 H   0  0  0  0  0  0
  -29.5324  -20.6863   22.0035 H   0  0  0  0  0  0
  -29.5881  -18.0876   17.7728 H   0  0  0  0  0  0
  -30.6017  -16.3068   18.9549 H   0  0  0  0  0  0
  -27.4640  -25.3698   21.3379 H   0  0  0  0  0  0
  -29.5568  -15.7798   21.7945 H   0  0  0  0  0  0
  -31.3335  -22.7857   19.0350 H   0  0  0  0  0  0
  -30.0837  -22.7218   17.7733 H   0  0  0  0  0  0
  1 25  1  0  0  0
  1 30  2  0  0  0
  1 82  1  0  0  0
  2  3  1  0  0  0
  2 25  1  0  0  0
  2 88  1  0  0  0
  2 89  1  0  0  0
  3  4  1  0  0  0
  3 90  1  0  0  0
  3 91  1  0  0  0
  4  5  1  0  0  0
  4 92  1  0  0  0
  4 93  1  0  0  0
  5  6  1  0  0  0
  5 26  1  0  0  0
  5 94  1  0  0  0
  6 25  1  0  0  0
  6 95  1  0  0  0
  6 96  1  0  0  0
  7  8  2  0  0  0
  7 26  1  0  0  0
  7 29  1  0  0  0
  8  9  1  0  0  0
  8 22  1  0  0  0
  9 10  1  0  0  0
  9 27  2  0  0  0
 10 11  2  0  0  0
 10 15  1  0  0  0
 11 12  1  0  0  0
 11 97  1  0  0  0
 12 13  2  0  0  0
 12 98  1  0  0  0
 13 14  1  0  0  0
 13 31  1  0  0  0
 14 15  2  0  0  0
 14 99  1  0  0  0
 15100  1  0  0  0
 16 17  2  0  0  0
 16 21  1  0  0  0
 16 31  1  0  0  0
 17 18  1  0  0  0
 17101  1  0  0  0
 18 19  2  0  0  0
 18102  1  0  0  0
 19 20  1  0  0  0
 19 24  1  0  0  0
 20 21  2  0  0  0
 20103  1  0  0  0
 21 23  1  0  0  0
 22 28  1  0  0  0
 22 32  2  0  0  0
 26 27  1  0  0  0
 28104  1  0  0  0
 28105  1  0  0  0
 29106  1  0  0  0
 29107  1  0  0  0
 33 34  1  0  0  0
 33 66  1  0  0  0
 33 70  2  0  0  0
 34 36  1  0  0  0
 34 59  1  0  0  0
 34108  1  0  0  0
 35 44  2  0  0  0
 35 45  1  0  0  0
 35 68  1  0  0  0
 36 56  1  0  0  0
 36109  1  0  0  0
 37 39  1  0  0  0
 37 47  1  0  0  0
 37 66  1  0  0  0
 37110  1  0  0  0
 38 43  2  0  0  0
 38 46  1  0  0  0
 38 47  1  0  0  0
 39 64  1  0  0  0
 39 67  2  0  0  0
 40 52  1  0  0  0
 40 53  2  0  0  0
 40 58  1  0  0  0
 41111  1  0  0  0
 41112  1  0  0  0
 41113  1  0  0  0
 41 48  1  0  0  0
 42 43  1  0  0  0
 42 66  1  0  0  0
 42114  1  0  0  0
 42115  1  0  0  0
 43 44  1  0  0  0
 44116  1  0  0  0
 45 46  2  0  0  0
 45117  1  0  0  0
 46118  1  0  0  0
 47119  1  0  0  0
 47120  1  0  0  0
 48 56  1  0  0  0
 48 65  1  0  0  0
 48121  1  0  0  0
 49 50  1  0  0  0
 49 53  1  0  0  0
 49 64  1  0  0  0
 49122  1  0  0  0
 50 51  1  0  0  0
 50123  1  0  0  0
 50124  1  0  0  0
 51 52  1  0  0  0
 51125  1  0  0  0
 51126  1  0  0  0
 52127  1  0  0  0
 52128  1  0  0  0
 53 54  1  0  0  0
 54 55  2  0  0  0
 54129  1  0  0  0
 55 57  1  0  0  0
 55130  1  0  0  0
 56 69  2  0  0  0
 57 58  2  0  0  0
 57131  1  0  0  0
 58132  1  0  0  0
 59 60  1  0  0  0
 59 61  1  0  0  0
 59 62  1  0  0  0
 60133  1  0  0  0
 60134  1  0  0  0
 60135  1  0  0  0
 61136  1  0  0  0
 61137  1  0  0  0
 61138  1  0  0  0
 62139  1  0  0  0
 62140  1  0  0  0
 62141  1  0  0  0
 63 65  1  0  0  0
 63142  1  0  0  0
 63143  1  0  0  0
 63144  1  0  0  0
 64145  1  0  0  0
 65146  1  0  0  0
 68 81  1  0  0  0
 71 72  2  0  0  0
 71 74  1  0  0  0
 71147  1  0  0  0
 72 75  1  0  0  0
 72148  1  0  0  0
 73 74  2  0  0  0
 73 76  1  0  0  0
 73149  1  0  0  0
 74 80  1  0  0  0
 75 76  2  0  0  0
 75 84  1  0  0  0
 76 87  1  0  0  0
 77 78  1  0  0  0
 77 79  1  0  0  0
 77 81  2  0  0  0
 78 83  1  0  0  0
 78 85  2  0  0  0
 79 84  1  0  0  0
 79 86  2  0  0  0
 80 82  2  0  0  0
 80150  1  0  0  0
 81151  1  0  0  0
 82152  1  0  0  0
 83 84  1  0  0  0
 83153  1  0  0  0
 83154  1  0  0  0
M  ISO  4   1 100  68 101  81 101  82 100
M  END
> <chiral flag>
0

> <version>
0

> <s_m_source_file>
/data/baiqing/PycharmProjects/Reinvent-master-3.2/result/LINK_invent/BTK/process_docking_weight1_custom_product_contain_oxygen_bond_distance_aromatic_linkinvent_7_9_3/rearranged_h_0087.sdf

> <i_m_source_file_index>
82

> <r_mmod_Potential_Energy-OPLS-2005>
61.812557220459

> <r_mmod_Stretch_Energy-OPLS-2005>
33.1951866149902

> <r_mmod_Bend_Energy-OPLS-2005>
146.131790161133

> <r_mmod_Torsional_Energy-OPLS-2005>
266.900634765625

> <r_mmod_Improper_Torsional_Energy-OPLS-2005>
7.44619655609131

> <r_mmod_Van_der_Waal_Energy-OPLS-2005>
160.302444458008

> <r_mmod_Electrostatic_Energy-OPLS-2005>
-352.171508789062

> <r_mmod_Solvation_Energy-OPLS-2005>
-217.010009765625

> <b_mmod_Minimization_Converged-OPLS-2005>
0

> <r_mmod_RMS_Derivative-OPLS-2005>
0.709751784801483

$$$$
82
                    3D
 Structure written by MMmdl.
155163  0  0  1  0            999 V2000
  -30.5848  -14.7177   20.4590 C   0  0  0  0  0  0
  -30.4497  -12.4335   19.4588 C   0  0  0  0  0  0
  -29.5171  -12.5099   18.2271 C   0  0  0  0  0  0
  -28.0399  -12.3367   18.6395 C   0  0  0  0  0  0
  -27.6494  -13.2194   19.8540 C   0  0  2  0  0  0
  -28.6985  -13.1082   20.9845 C   0  0  0  0  0  0
  -25.2545  -13.8163   20.5681 C   0  0  0  0  0  0
  -24.1823  -13.0427   20.9191 C   0  0  0  0  0  0
  -24.6399  -11.6900   20.8729 C   0  0  0  0  0  0
  -23.9061  -10.4288   21.0404 C   0  0  0  0  0  0
  -24.3613   -9.4209   21.9183 C   0  0  0  0  0  0
  -23.6285   -8.2251   22.0761 C   0  0  0  0  0  0
  -22.4269   -8.0290   21.3553 C   0  0  0  0  0  0
  -21.9899   -9.0262   20.4656 C   0  0  0  0  0  0
  -22.7235  -10.2134   20.3054 C   0  0  0  0  0  0
  -21.6855   -6.0729   22.5279 C   0  0  0  0  0  0
  -21.4022   -6.5633   23.8213 C   0  0  0  0  0  0
  -21.3664   -5.6787   24.9176 C   0  0  0  0  0  0
  -21.6038   -4.3048   24.7229 C   0  0  0  0  0  0
  -21.8816   -3.8143   23.4349 C   0  0  0  0  0  0
  -21.9196   -4.6958   22.3401 C   0  0  0  0  0  0
  -22.7844  -13.5229   21.1860 C   0  0  0  0  0  0
  -22.1661   -4.2140   21.0978 F   0  0  0  0  0  0
  -21.5627   -3.4535   25.7745 F   0  0  0  0  0  0
  -30.0070  -13.4696   20.4141 N   0  0  0  0  0  0
  -26.2971  -12.9351   20.3272 N   0  0  0  0  0  0
  -25.9328  -11.6501   20.5729 N   0  0  0  0  0  0
  -22.0471  -12.8237   22.0419 N   0  0  0  0  0  0
  -25.4180  -15.1890   20.4137 N   0  0  0  0  0  0
  -31.7635  -14.8866   20.1320 O   0  0  0  0  0  0
  -21.6636   -6.8883   21.4248 O   0  0  0  0  0  0
  -22.3531  -14.5531   20.6712 O   0  0  0  0  0  0
  -24.6289  -31.8576   23.1982 C   0  0  0  0  0  0
  -25.9121  -32.4766   23.8330 C   0  0  1  0  0  0
  -27.2364  -27.2952   20.1110 C   0  0  0  0  0  0
  -25.5929  -33.8566   24.2265 N   0  0  0  0  0  0
  -23.4239  -30.4781   21.5421 C   0  0  2  0  0  0
  -24.8729  -28.9251   20.1130 C   0  0  0  0  0  0
  -22.7485  -29.4614   22.4925 C   0  0  0  0  0  0
  -18.0294  -28.1383   22.8486 C   0  0  0  0  0  0
  -24.1490  -36.7288   23.2640 C   0  0  0  0  0  0
  -25.9665  -30.7807   21.3712 C   0  0  0  0  0  0
  -26.0435  -29.4043   20.7138 C   0  0  0  0  0  0
  -27.2267  -28.6025   20.6989 C   0  0  0  0  0  0
  -26.0359  -26.8681   19.4989 C   0  0  0  0  0  0
  -24.8718  -27.6630   19.4982 C   0  0  0  0  0  0
  -23.6413  -29.8087   20.1592 C   0  0  0  0  0  0
  -25.4112  -36.3076   24.0329 C   0  0  1  0  0  0
  -20.5892  -28.3695   23.1278 C   0  0  2  0  0  0
  -20.6784  -26.9412   22.5409 C   0  0  0  0  0  0
  -19.5763  -26.6381   21.5208 C   0  0  0  0  0  0
  -18.1944  -26.7930   22.1619 C   0  0  0  0  0  0
  -19.1544  -28.8853   23.2883 C   0  0  0  0  0  0
  -18.9467  -30.1450   23.8912 C   0  0  0  0  0  0
  -17.6465  -30.6584   24.0561 C   0  0  0  0  0  0
  -25.9051  -34.9445   23.5098 C   0  0  0  0  0  0
  -16.5360  -29.9082   23.6319 C   0  0  0  0  0  0
  -16.7282  -28.6495   23.0352 C   0  0  0  0  0  0
  -26.4495  -31.6581   25.0709 C   0  0  0  0  0  0
  -25.3721  -31.3723   26.1431 C   0  0  0  0  0  0
  -27.0334  -30.3005   24.6163 C   0  0  0  0  0  0
  -27.6073  -32.4297   25.7479 C   0  0  0  0  0  0
  -27.5573  -37.1804   24.8466 C   0  0  0  0  0  0
  -21.4194  -29.3045   22.3668 N   0  0  0  0  0  0
  -26.4291  -37.3768   23.9402 N   0  0  0  0  0  0
  -24.6919  -31.0556   22.0945 N   0  0  0  0  0  0
  -23.4199  -28.8160   23.3016 O   0  0  0  0  0  0
  -28.3690  -26.4543   20.1366 O   0  0  0  0  0  0
  -26.5617  -34.8917   22.4665 O   0  0  0  0  0  0
  -23.5444  -32.1391   23.7291 O   0  0  0  0  0  0
  -30.4224  -19.6038   20.7104 C   0  0  0  0  0  0
  -30.6661  -18.1832   20.8245 C   0  0  0  0  0  0
  -28.2663  -19.1488   19.7776 C   0  0  0  0  0  0
  -29.1983  -20.1410   20.1932 C   0  0  0  0  0  0
  -29.6928  -17.2100   20.4433 C   0  0  0  0  0  0
  -28.4949  -17.7474   19.9068 C   0  0  0  0  0  0
  -28.7874  -21.6523   20.1421 C   0  0  0  0  0  0
  -29.5397  -24.1460   20.1367 C   0  0  0  0  0  0
  -32.0403  -24.6247   20.2555 C   0  0  0  0  0  0
  -28.2220  -24.9669   20.0034 C   0  0  0  0  0  0
  -29.7152  -15.7562   20.7037 N   0  0  0  0  0  0
  -29.7410  -22.7634   20.1973 N   0  0  0  0  0  0
  -30.6122  -24.9639   20.1768 N   0  3  0  0  0  0
  -27.5932  -21.9424   20.0043 O   0  0  0  0  0  0
  -27.5157  -16.8898   19.5312 F   0  0  0  0  0  0
  -31.4903  -12.5715   19.1586 H   0  0  0  0  0  0
  -30.3986  -11.4463   19.9190 H   0  0  0  0  0  0
  -29.7921  -11.7471   17.4977 H   0  0  0  0  0  0
  -29.6488  -13.4708   17.7269 H   0  0  0  0  0  0
  -27.8884  -11.2860   18.8877 H   0  0  0  0  0  0
  -27.3855  -12.5466   17.7918 H   0  0  0  0  0  0
  -27.6525  -14.2452   19.4897 H   0  0  0  0  0  0
  -28.7256  -12.0928   21.3821 H   0  0  0  0  0  0
  -28.4365  -13.7504   21.8273 H   0  0  0  0  0  0
  -25.2757   -9.5682   22.4759 H   0  0  0  0  0  0
  -23.9993   -7.4635   22.7481 H   0  0  0  0  0  0
  -21.0823   -8.8786   19.8960 H   0  0  0  0  0  0
  -22.3699  -10.9677   19.6164 H   0  0  0  0  0  0
  -21.2018   -7.6139   23.9714 H   0  0  0  0  0  0
  -21.1487   -6.0518   25.9075 H   0  0  0  0  0  0
  -22.0589   -2.7607   23.2853 H   0  0  0  0  0  0
  -22.4081  -11.9908   22.4828 H   0  0  0  0  0  0
  -21.1101  -13.1303   22.2629 H   0  0  0  0  0  0
  -24.6377  -15.8270   20.5187 H   0  0  0  0  0  0
  -26.2476  -15.6496   20.0510 H   0  0  0  0  0  0
  -26.7197  -32.5433   23.1086 H   0  0  0  0  0  0
  -25.0072  -33.9702   25.0408 H   0  0  0  0  0  0
  -22.7200  -31.2995   21.3952 H   0  0  0  0  0  0
  -23.3743  -35.9630   23.3315 H   0  0  0  0  0  0
  -24.3589  -36.8892   22.2053 H   0  0  0  0  0  0
  -23.7254  -37.6499   23.6652 H   0  0  0  0  0  0
  -26.0964  -31.5421   20.6010 H   0  0  0  0  0  0
  -26.8476  -30.8352   21.9985 H   0  0  0  0  0  0
  -28.1258  -28.9701   21.1734 H   0  0  0  0  0  0
  -25.9696  -25.9042   19.0183 H   0  0  0  0  0  0
  -23.9741  -27.2887   19.0259 H   0  0  0  0  0  0
  -23.7646  -30.5841   19.4024 H   0  0  0  0  0  0
  -22.7607  -29.2409   19.8531 H   0  0  0  0  0  0
  -25.1296  -36.1929   25.0822 H   0  0  0  0  0  0
  -20.9988  -28.3269   24.1396 H   0  0  0  0  0  0
  -20.5678  -26.2299   23.3608 H   0  0  0  0  0  0
  -21.6657  -26.7439   22.1206 H   0  0  0  0  0  0
  -19.6922  -25.6288   21.1245 H   0  0  0  0  0  0
  -19.6693  -27.3181   20.6729 H   0  0  0  0  0  0
  -17.4205  -26.6665   21.4031 H   0  0  0  0  0  0
  -18.0351  -26.0073   22.9017 H   0  0  0  0  0  0
  -19.7939  -30.7257   24.2299 H   0  0  0  0  0  0
  -17.5019  -31.6268   24.5149 H   0  0  0  0  0  0
  -15.5361  -30.2988   23.7631 H   0  0  0  0  0  0
  -15.8683  -28.0806   22.7077 H   0  0  0  0  0  0
  -24.5900  -30.7073   25.7748 H   0  0  0  0  0  0
  -24.8903  -32.2887   26.4849 H   0  0  0  0  0  0
  -25.8033  -30.8900   27.0210 H   0  0  0  0  0  0
  -26.2901  -29.6760   24.1190 H   0  0  0  0  0  0
  -27.4040  -29.7262   25.4665 H   0  0  0  0  0  0
  -27.8770  -30.4301   23.9380 H   0  0  0  0  0  0
  -27.2713  -33.3604   26.2064 H   0  0  0  0  0  0
  -28.3879  -32.6837   25.0294 H   0  0  0  0  0  0
  -28.0742  -31.8405   26.5384 H   0  0  0  0  0  0
  -28.2605  -38.0086   24.7490 H   0  0  0  0  0  0
  -28.1057  -36.2618   24.6320 H   0  0  0  0  0  0
  -27.2298  -37.1488   25.8874 H   0  0  0  0  0  0
  -20.9375  -29.8759   21.6868 H   0  0  0  0  0  0
  -26.0173  -38.2848   24.1381 H   0  0  0  0  0  0
  -31.1874  -20.2799   21.0651 H   0  0  0  0  0  0
  -31.5938  -17.8492   21.2671 H   0  0  0  0  0  0
  -27.3135  -19.4622   19.3754 H   0  0  0  0  0  0
  -32.6403  -25.5357   20.2392 H   0  0  0  0  0  0
  -32.3449  -24.0133   19.4057 H   0  0  0  0  0  0
  -32.2697  -24.0920   21.1779 H   0  0  0  0  0  0
  -27.5090  -24.6090   20.7477 H   0  0  0  0  0  0
  -27.8101  -24.7376   19.0206 H   0  0  0  0  0  0
  -28.7869  -15.3958   20.8612 H   0  0  0  0  0  0
  -30.7133  -22.5360   20.2888 H   0  0  0  0  0  0
  -30.3869  -25.9511   20.1326 H   0  0  0  0  0  0
  1 25  1  0  0  0
  1 30  2  0  0  0
  1 81  1  0  0  0
  2  3  1  0  0  0
  2 25  1  0  0  0
  2 86  1  0  0  0
  2 87  1  0  0  0
  3  4  1  0  0  0
  3 88  1  0  0  0
  3 89  1  0  0  0
  4  5  1  0  0  0
  4 90  1  0  0  0
  4 91  1  0  0  0
  5  6  1  0  0  0
  5 26  1  0  0  0
  5 92  1  0  0  0
  6 25  1  0  0  0
  6 93  1  0  0  0
  6 94  1  0  0  0
  7  8  2  0  0  0
  7 26  1  0  0  0
  7 29  1  0  0  0
  8  9  1  0  0  0
  8 22  1  0  0  0
  9 10  1  0  0  0
  9 27  2  0  0  0
 10 11  2  0  0  0
 10 15  1  0  0  0
 11 12  1  0  0  0
 11 95  1  0  0  0
 12 13  2  0  0  0
 12 96  1  0  0  0
 13 14  1  0  0  0
 13 31  1  0  0  0
 14 15  2  0  0  0
 14 97  1  0  0  0
 15 98  1  0  0  0
 16 17  2  0  0  0
 16 21  1  0  0  0
 16 31  1  0  0  0
 17 18  1  0  0  0
 17 99  1  0  0  0
 18 19  2  0  0  0
 18100  1  0  0  0
 19 20  1  0  0  0
 19 24  1  0  0  0
 20 21  2  0  0  0
 20101  1  0  0  0
 21 23  1  0  0  0
 22 28  1  0  0  0
 22 32  2  0  0  0
 26 27  1  0  0  0
 28102  1  0  0  0
 28103  1  0  0  0
 29104  1  0  0  0
 29105  1  0  0  0
 33 34  1  0  0  0
 33 66  1  0  0  0
 33 70  2  0  0  0
 34 36  1  0  0  0
 34 59  1  0  0  0
 34106  1  0  0  0
 35 44  2  0  0  0
 35 45  1  0  0  0
 35 68  1  0  0  0
 36 56  1  0  0  0
 36107  1  0  0  0
 37 39  1  0  0  0
 37 47  1  0  0  0
 37 66  1  0  0  0
 37108  1  0  0  0
 38 43  2  0  0  0
 38 46  1  0  0  0
 38 47  1  0  0  0
 39 64  1  0  0  0
 39 67  2  0  0  0
 40 52  1  0  0  0
 40 53  2  0  0  0
 40 58  1  0  0  0
 41109  1  0  0  0
 41110  1  0  0  0
 41111  1  0  0  0
 41 48  1  0  0  0
 42 43  1  0  0  0
 42 66  1  0  0  0
 42112  1  0  0  0
 42113  1  0  0  0
 43 44  1  0  0  0
 44114  1  0  0  0
 45 46  2  0  0  0
 45115  1  0  0  0
 46116  1  0  0  0
 47117  1  0  0  0
 47118  1  0  0  0
 48 56  1  0  0  0
 48 65  1  0  0  0
 48119  1  0  0  0
 49 50  1  0  0  0
 49 53  1  0  0  0
 49 64  1  0  0  0
 49120  1  0  0  0
 50 51  1  0  0  0
 50121  1  0  0  0
 50122  1  0  0  0
 51 52  1  0  0  0
 51123  1  0  0  0
 51124  1  0  0  0
 52125  1  0  0  0
 52126  1  0  0  0
 53 54  1  0  0  0
 54 55  2  0  0  0
 54127  1  0  0  0
 55 57  1  0  0  0
 55128  1  0  0  0
 56 69  2  0  0  0
 57 58  2  0  0  0
 57129  1  0  0  0
 58130  1  0  0  0
 59 60  1  0  0  0
 59 61  1  0  0  0
 59 62  1  0  0  0
 60131  1  0  0  0
 60132  1  0  0  0
 60133  1  0  0  0
 61134  1  0  0  0
 61135  1  0  0  0
 61136  1  0  0  0
 62137  1  0  0  0
 62138  1  0  0  0
 62139  1  0  0  0
 63 65  1  0  0  0
 63140  1  0  0  0
 63141  1  0  0  0
 63142  1  0  0  0
 64143  1  0  0  0
 65144  1  0  0  0
 68 80  1  0  0  0
 71 72  2  0  0  0
 71 74  1  0  0  0
 71145  1  0  0  0
 72 75  1  0  0  0
 72146  1  0  0  0
 73 74  2  0  0  0
 73 76  1  0  0  0
 73147  1  0  0  0
 74 77  1  0  0  0
 75 76  2  0  0  0
 75 81  1  0  0  0
 76 85  1  0  0  0
 77 82  1  0  0  0
 77 84  2  0  0  0
 78 80  1  0  0  0
 78 82  1  0  0  0
 78 83  2  0  0  0
 79 83  1  0  0  0
 79148  1  0  0  0
 79149  1  0  0  0
 79150  1  0  0  0
 80151  1  0  0  0
 80152  1  0  0  0
 81153  1  0  0  0
 82154  1  0  0  0
 83155  1  0  0  0
M  CHG  1  83   1
M  ISO  4   1 100  68 101  80 101  81 100
M  END
> <chiral flag>
0

> <version>
0

> <s_m_source_file>
/data/baiqing/PycharmProjects/Reinvent-master-3.2/result/LINK_invent/BTK/process_docking_weight1_custom_product_contain_oxygen_bond_distance_aromatic_linkinvent_7_9_3/rearranged_h_0087.sdf

> <i_m_source_file_index>
83

> <r_mmod_Potential_Energy-OPLS-2005>
-153.348907470703

> <r_mmod_Stretch_Energy-OPLS-2005>
100.441246032715

> <r_mmod_Bend_Energy-OPLS-2005>
184.913009643555

> <r_mmod_Torsional_Energy-OPLS-2005>
232.721801757812

> <r_mmod_Improper_Torsional_Energy-OPLS-2005>
6.60032272338867

> <r_mmod_Van_der_Waal_Energy-OPLS-2005>
138.754730224609

> <r_mmod_Electrostatic_Energy-OPLS-2005>
-413.084259033203

> <r_mmod_Solvation_Energy-OPLS-2005>
-471.5537109375

> <b_mmod_Minimization_Converged-OPLS-2005>
0

> <r_mmod_RMS_Derivative-OPLS-2005>
1.65553641319275

$$$$
83
                    3D
 Structure written by MMmdl.
153162  0  0  1  0            999 V2000
  -30.6037  -14.6673   20.4981 C   0  0  0  0  0  0
  -30.4430  -12.4087   19.4577 C   0  0  0  0  0  0
  -29.5115  -12.5133   18.2282 C   0  0  0  0  0  0
  -28.0342  -12.3450   18.6381 C   0  0  0  0  0  0
  -27.6538  -13.2165   19.8645 C   0  0  2  0  0  0
  -28.6980  -13.0747   20.9953 C   0  0  0  0  0  0
  -25.2569  -13.8167   20.5685 C   0  0  0  0  0  0
  -24.1833  -13.0436   20.9189 C   0  0  0  0  0  0
  -24.6400  -11.6907   20.8735 C   0  0  0  0  0  0
  -23.9068  -10.4291   21.0403 C   0  0  0  0  0  0
  -24.3618   -9.4208   21.9182 C   0  0  0  0  0  0
  -23.6292   -8.2244   22.0755 C   0  0  0  0  0  0
  -22.4274   -8.0282   21.3547 C   0  0  0  0  0  0
  -21.9910   -9.0255   20.4649 C   0  0  0  0  0  0
  -22.7239  -10.2134   20.3056 C   0  0  0  0  0  0
  -21.6852   -6.0737   22.5281 C   0  0  0  0  0  0
  -21.4014   -6.5642   23.8214 C   0  0  0  0  0  0
  -21.3660   -5.6794   24.9176 C   0  0  0  0  0  0
  -21.6043   -4.3057   24.7226 C   0  0  0  0  0  0
  -21.8818   -3.8149   23.4347 C   0  0  0  0  0  0
  -21.9193   -4.6965   22.3404 C   0  0  0  0  0  0
  -22.7857  -13.5235   21.1850 C   0  0  0  0  0  0
  -22.1660   -4.2153   21.0980 F   0  0  0  0  0  0
  -21.5630   -3.4541   25.7738 F   0  0  0  0  0  0
  -30.0119  -13.4299   20.4351 N   0  0  0  0  0  0
  -26.2993  -12.9345   20.3319 N   0  0  0  0  0  0
  -25.9328  -11.6502   20.5751 N   0  0  0  0  0  0
  -22.0495  -12.8229   22.0405 N   0  0  0  0  0  0
  -25.4284  -15.1888   20.4096 N   0  0  0  0  0  0
  -31.7607  -14.8398   20.1020 O   0  0  0  0  0  0
  -21.6638   -6.8880   21.4242 O   0  0  0  0  0  0
  -22.3547  -14.5544   20.6700 O   0  0  0  0  0  0
  -24.6269  -31.8586   23.2021 C   0  0  0  0  0  0
  -25.9113  -32.4773   23.8353 C   0  0  1  0  0  0
  -27.2251  -27.3114   20.1231 C   0  0  0  0  0  0
  -25.5925  -33.8574   24.2280 N   0  0  0  0  0  0
  -23.4220  -30.4819   21.5439 C   0  0  2  0  0  0
  -24.8715  -28.9355   20.1107 C   0  0  0  0  0  0
  -22.7480  -29.4618   22.4925 C   0  0  0  0  0  0
  -18.0288  -28.1385   22.8486 C   0  0  0  0  0  0
  -24.1492  -36.7294   23.2639 C   0  0  0  0  0  0
  -25.9640  -30.7862   21.3765 C   0  0  0  0  0  0
  -26.0398  -29.4122   20.7205 C   0  0  0  0  0  0
  -27.2215  -28.6102   20.7205 C   0  0  0  0  0  0
  -26.0395  -26.8928   19.4807 C   0  0  0  0  0  0
  -24.8729  -27.6808   19.4816 C   0  0  0  0  0  0
  -23.6391  -29.8163   20.1595 C   0  0  0  0  0  0
  -25.4117  -36.3083   24.0327 C   0  0  1  0  0  0
  -20.5889  -28.3691   23.1276 C   0  0  2  0  0  0
  -20.6778  -26.9413   22.5408 C   0  0  0  0  0  0
  -19.5753  -26.6383   21.5212 C   0  0  0  0  0  0
  -18.1932  -26.7928   22.1622 C   0  0  0  0  0  0
  -19.1541  -28.8854   23.2877 C   0  0  0  0  0  0
  -18.9464  -30.1457   23.8893 C   0  0  0  0  0  0
  -17.6464  -30.6587   24.0563 C   0  0  0  0  0  0
  -25.9051  -34.9449   23.5105 C   0  0  0  0  0  0
  -16.5355  -29.9086   23.6332 C   0  0  0  0  0  0
  -16.7275  -28.6504   23.0351 C   0  0  0  0  0  0
  -26.4496  -31.6582   25.0723 C   0  0  0  0  0  0
  -25.3731  -31.3721   26.1451 C   0  0  0  0  0  0
  -27.0334  -30.3001   24.6185 C   0  0  0  0  0  0
  -27.6056  -32.4314   25.7496 C   0  0  0  0  0  0
  -27.5579  -37.1808   24.8467 C   0  0  0  0  0  0
  -21.4191  -29.3044   22.3669 N   0  0  0  0  0  0
  -26.4299  -37.3774   23.9401 N   0  0  0  0  0  0
  -24.6895  -31.0588   22.0978 N   0  0  0  0  0  0
  -23.4198  -28.8159   23.3010 O   0  0  0  0  0  0
  -28.3150  -26.4259   20.1527 O   0  0  0  0  0  0
  -26.5619  -34.8915   22.4672 O   0  0  0  0  0  0
  -23.5430  -32.1390   23.7339 O   0  0  0  0  0  0
  -28.6568  -19.3590   21.0673 C   0  0  0  0  0  0
  -28.7369  -17.9403   21.2177 C   0  0  0  0  0  0
  -30.8219  -17.9127   20.0422 C   0  0  0  0  0  0
  -29.6511  -20.1173   20.3935 C   0  0  0  0  0  0
  -29.8163  -17.1645   20.7109 C   0  0  0  0  0  0
  -30.7445  -19.3351   19.8874 C   0  0  0  0  0  0
  -28.7871  -23.9334   20.2921 C   0  0  0  0  0  0
  -30.0477  -23.8321   19.5562 C   0  0  0  0  0  0
  -28.0607  -25.0838   20.5292 C   0  0  0  0  0  0
  -28.4692  -22.4692   20.7229 C   0  0  0  0  0  0
  -30.5345  -22.3716   19.5187 C   0  0  0  0  0  0
  -29.5466  -21.5587   20.2401 N   0  0  0  0  0  0
  -29.7855  -15.7022   20.8866 N   0  0  0  0  0  0
  -30.6700  -24.7558   19.0232 O   0  0  0  0  0  0
  -31.7608  -19.9418   19.2262 F   0  0  0  0  0  0
  -31.4835  -12.5417   19.1561 H   0  0  0  0  0  0
  -30.3861  -11.4130   19.9007 H   0  0  0  0  0  0
  -29.7807  -11.7613   17.4856 H   0  0  0  0  0  0
  -29.6489  -13.4819   17.7444 H   0  0  0  0  0  0
  -27.8748  -11.2913   18.8704 H   0  0  0  0  0  0
  -27.3800  -12.5719   17.7955 H   0  0  0  0  0  0
  -27.6705  -14.2513   19.5224 H   0  0  0  0  0  0
  -28.7157  -12.0512   21.3733 H   0  0  0  0  0  0
  -28.4372  -13.6997   21.8505 H   0  0  0  0  0  0
  -25.2762   -9.5683   22.4757 H   0  0  0  0  0  0
  -24.0001   -7.4635   22.7474 H   0  0  0  0  0  0
  -21.0841   -8.8771   19.8955 H   0  0  0  0  0  0
  -22.3696  -10.9672   19.6165 H   0  0  0  0  0  0
  -21.2005   -7.6150   23.9720 H   0  0  0  0  0  0
  -21.1483   -6.0524   25.9079 H   0  0  0  0  0  0
  -22.0597   -2.7612   23.2845 H   0  0  0  0  0  0
  -22.4106  -11.9889   22.4793 H   0  0  0  0  0  0
  -21.1115  -13.1260   22.2610 H   0  0  0  0  0  0
  -24.6575  -15.8400   20.5104 H   0  0  0  0  0  0
  -26.2704  -15.6255   20.0570 H   0  0  0  0  0  0
  -26.7182  -32.5444   23.1101 H   0  0  0  0  0  0
  -25.0071  -33.9721   25.0424 H   0  0  0  0  0  0
  -22.7165  -31.3027   21.3994 H   0  0  0  0  0  0
  -23.3746  -35.9637   23.3321 H   0  0  0  0  0  0
  -24.3578  -36.8894   22.2049 H   0  0  0  0  0  0
  -23.7260  -37.6507   23.6648 H   0  0  0  0  0  0
  -26.0966  -31.5490   20.6079 H   0  0  0  0  0  0
  -26.8434  -30.8357   22.0069 H   0  0  0  0  0  0
  -28.1174  -28.9672   21.2088 H   0  0  0  0  0  0
  -26.0056  -25.9292   18.9920 H   0  0  0  0  0  0
  -23.9792  -27.3115   18.9975 H   0  0  0  0  0  0
  -23.7589  -30.5929   19.4031 H   0  0  0  0  0  0
  -22.7593  -29.2458   19.8565 H   0  0  0  0  0  0
  -25.1302  -36.1936   25.0821 H   0  0  0  0  0  0
  -20.9982  -28.3269   24.1397 H   0  0  0  0  0  0
  -20.5679  -26.2302   23.3610 H   0  0  0  0  0  0
  -21.6646  -26.7442   22.1201 H   0  0  0  0  0  0
  -19.6915  -25.6293   21.1245 H   0  0  0  0  0  0
  -19.6691  -27.3192   20.6742 H   0  0  0  0  0  0
  -17.4202  -26.6676   21.4024 H   0  0  0  0  0  0
  -18.0331  -26.0069   22.9018 H   0  0  0  0  0  0
  -19.7939  -30.7274   24.2258 H   0  0  0  0  0  0
  -17.5018  -31.6268   24.5161 H   0  0  0  0  0  0
  -15.5355  -30.2988   23.7655 H   0  0  0  0  0  0
  -15.8675  -28.0823   22.7065 H   0  0  0  0  0  0
  -24.5906  -30.7071   25.7779 H   0  0  0  0  0  0
  -24.8924  -32.2888   26.4879 H   0  0  0  0  0  0
  -25.8055  -30.8895   27.0226 H   0  0  0  0  0  0
  -26.2907  -29.6752   24.1210 H   0  0  0  0  0  0
  -27.4024  -29.7255   25.4691 H   0  0  0  0  0  0
  -27.8785  -30.4275   23.9415 H   0  0  0  0  0  0
  -27.2668  -33.3614   26.2074 H   0  0  0  0  0  0
  -28.3871  -32.6871   25.0328 H   0  0  0  0  0  0
  -28.0721  -31.8438   26.5414 H   0  0  0  0  0  0
  -28.2612  -38.0089   24.7489 H   0  0  0  0  0  0
  -28.1062  -36.2618   24.6329 H   0  0  0  0  0  0
  -27.2291  -37.1501   25.8870 H   0  0  0  0  0  0
  -20.9367  -29.8772   21.6884 H   0  0  0  0  0  0
  -26.0180  -38.2853   24.1382 H   0  0  0  0  0  0
  -27.7971  -19.8637   21.4824 H   0  0  0  0  0  0
  -27.9301  -17.4433   21.7381 H   0  0  0  0  0  0
  -31.6764  -17.4038   19.6224 H   0  0  0  0  0  0
  -27.1440  -25.0125   21.0984 H   0  0  0  0  0  0
  -27.5072  -22.1683   20.3049 H   0  0  0  0  0  0
  -28.3907  -22.4184   21.8100 H   0  0  0  0  0  0
  -31.5143  -22.3028   19.9927 H   0  0  0  0  0  0
  -30.6259  -22.0435   18.4828 H   0  0  0  0  0  0
  -28.9183  -15.3574   21.2691 H   0  0  0  0  0  0
  1 25  1  0  0  0
  1 30  2  0  0  0
  1 83  1  0  0  0
  2  3  1  0  0  0
  2 25  1  0  0  0
  2 86  1  0  0  0
  2 87  1  0  0  0
  3  4  1  0  0  0
  3 88  1  0  0  0
  3 89  1  0  0  0
  4  5  1  0  0  0
  4 90  1  0  0  0
  4 91  1  0  0  0
  5  6  1  0  0  0
  5 26  1  0  0  0
  5 92  1  0  0  0
  6 25  1  0  0  0
  6 93  1  0  0  0
  6 94  1  0  0  0
  7  8  2  0  0  0
  7 26  1  0  0  0
  7 29  1  0  0  0
  8  9  1  0  0  0
  8 22  1  0  0  0
  9 10  1  0  0  0
  9 27  2  0  0  0
 10 11  2  0  0  0
 10 15  1  0  0  0
 11 12  1  0  0  0
 11 95  1  0  0  0
 12 13  2  0  0  0
 12 96  1  0  0  0
 13 14  1  0  0  0
 13 31  1  0  0  0
 14 15  2  0  0  0
 14 97  1  0  0  0
 15 98  1  0  0  0
 16 17  2  0  0  0
 16 21  1  0  0  0
 16 31  1  0  0  0
 17 18  1  0  0  0
 17 99  1  0  0  0
 18 19  2  0  0  0
 18100  1  0  0  0
 19 20  1  0  0  0
 19 24  1  0  0  0
 20 21  2  0  0  0
 20101  1  0  0  0
 21 23  1  0  0  0
 22 28  1  0  0  0
 22 32  2  0  0  0
 26 27  1  0  0  0
 28102  1  0  0  0
 28103  1  0  0  0
 29104  1  0  0  0
 29105  1  0  0  0
 33 34  1  0  0  0
 33 66  1  0  0  0
 33 70  2  0  0  0
 34 36  1  0  0  0
 34 59  1  0  0  0
 34106  1  0  0  0
 35 44  2  0  0  0
 35 45  1  0  0  0
 35 68  1  0  0  0
 36 56  1  0  0  0
 36107  1  0  0  0
 37 39  1  0  0  0
 37 47  1  0  0  0
 37 66  1  0  0  0
 37108  1  0  0  0
 38 43  2  0  0  0
 38 46  1  0  0  0
 38 47  1  0  0  0
 39 64  1  0  0  0
 39 67  2  0  0  0
 40 52  1  0  0  0
 40 53  2  0  0  0
 40 58  1  0  0  0
 41109  1  0  0  0
 41110  1  0  0  0
 41111  1  0  0  0
 41 48  1  0  0  0
 42 43  1  0  0  0
 42 66  1  0  0  0
 42112  1  0  0  0
 42113  1  0  0  0
 43 44  1  0  0  0
 44114  1  0  0  0
 45 46  2  0  0  0
 45115  1  0  0  0
 46116  1  0  0  0
 47117  1  0  0  0
 47118  1  0  0  0
 48 56  1  0  0  0
 48 65  1  0  0  0
 48119  1  0  0  0
 49 50  1  0  0  0
 49 53  1  0  0  0
 49 64  1  0  0  0
 49120  1  0  0  0
 50 51  1  0  0  0
 50121  1  0  0  0
 50122  1  0  0  0
 51 52  1  0  0  0
 51123  1  0  0  0
 51124  1  0  0  0
 52125  1  0  0  0
 52126  1  0  0  0
 53 54  1  0  0  0
 54 55  2  0  0  0
 54127  1  0  0  0
 55 57  1  0  0  0
 55128  1  0  0  0
 56 69  2  0  0  0
 57 58  2  0  0  0
 57129  1  0  0  0
 58130  1  0  0  0
 59 60  1  0  0  0
 59 61  1  0  0  0
 59 62  1  0  0  0
 60131  1  0  0  0
 60132  1  0  0  0
 60133  1  0  0  0
 61134  1  0  0  0
 61135  1  0  0  0
 61136  1  0  0  0
 62137  1  0  0  0
 62138  1  0  0  0
 62139  1  0  0  0
 63 65  1  0  0  0
 63140  1  0  0  0
 63141  1  0  0  0
 63142  1  0  0  0
 64143  1  0  0  0
 65144  1  0  0  0
 68 79  1  0  0  0
 71 72  2  0  0  0
 71 74  1  0  0  0
 71145  1  0  0  0
 72 75  1  0  0  0
 72146  1  0  0  0
 73 75  2  0  0  0
 73 76  1  0  0  0
 73147  1  0  0  0
 74 76  2  0  0  0
 74 82  1  0  0  0
 75 83  1  0  0  0
 76 85  1  0  0  0
 77 78  1  0  0  0
 77 79  2  0  0  0
 77 80  1  0  0  0
 78 81  1  0  0  0
 78 84  2  0  0  0
 79148  1  0  0  0
 80 82  1  0  0  0
 80149  1  0  0  0
 80150  1  0  0  0
 81 82  1  0  0  0
 81151  1  0  0  0
 81152  1  0  0  0
 83153  1  0  0  0
M  ISO  4   1 100  68 101  79 101  83 100
M  END
> <chiral flag>
0

> <version>
0

> <s_m_source_file>
/data/baiqing/PycharmProjects/Reinvent-master-3.2/result/LINK_invent/BTK/process_docking_weight1_custom_product_contain_oxygen_bond_distance_aromatic_linkinvent_7_9_3/rearranged_h_0087.sdf

> <i_m_source_file_index>
84

> <r_mmod_Potential_Energy-OPLS-2005>
144.101318359375

> <r_mmod_Stretch_Energy-OPLS-2005>
82.2360610961914

> <r_mmod_Bend_Energy-OPLS-2005>
191.016555786133

> <r_mmod_Torsional_Energy-OPLS-2005>
201.255432128906

> <r_mmod_Improper_Torsional_Energy-OPLS-2005>
3.68762254714966

> <r_mmod_Van_der_Waal_Energy-OPLS-2005>
139.771408081055

> <r_mmod_Electrostatic_Energy-OPLS-2005>
-289.164886474609

> <r_mmod_Solvation_Energy-OPLS-2005>
-241.408935546875

> <b_mmod_Minimization_Converged-OPLS-2005>
0

> <r_mmod_RMS_Derivative-OPLS-2005>
0.382315695285797

$$$$
84
                    3D
 Structure written by MMmdl.
145152  0  0  1  0            999 V2000
  -30.2290  -15.7669   20.3219 C   0  0  0  0  0  0
  -30.4226  -13.1629   19.5823 C   0  0  0  0  0  0
  -29.5680  -12.7050   18.3591 C   0  0  0  0  0  0
  -28.1468  -12.3162   18.7894 C   0  0  0  0  0  0
  -27.5956  -13.3272   19.8172 C   0  0  2  0  0  0
  -28.5927  -13.7005   20.9422 C   0  0  0  0  0  0
  -25.2314  -13.8325   20.5809 C   0  0  0  0  0  0
  -24.1708  -13.0448   20.9263 C   0  0  0  0  0  0
  -24.6431  -11.6964   20.8734 C   0  0  0  0  0  0
  -23.9137  -10.4302   21.0377 C   0  0  0  0  0  0
  -24.3666   -9.4217   21.9167 C   0  0  0  0  0  0
  -23.6323   -8.2260   22.0750 C   0  0  0  0  0  0
  -22.4301   -8.0297   21.3546 C   0  0  0  0  0  0
  -21.9949   -9.0271   20.4642 C   0  0  0  0  0  0
  -22.7297  -10.2140   20.3039 C   0  0  0  0  0  0
  -21.6864   -6.0746   22.5279 C   0  0  0  0  0  0
  -21.4023   -6.5646   23.8214 C   0  0  0  0  0  0
  -21.3662   -5.6796   24.9174 C   0  0  0  0  0  0
  -21.6043   -4.3059   24.7223 C   0  0  0  0  0  0
  -21.8818   -3.8153   23.4343 C   0  0  0  0  0  0
  -21.9196   -4.6972   22.3400 C   0  0  0  0  0  0
  -22.7718  -13.5162   21.1915 C   0  0  0  0  0  0
  -22.1663   -4.2158   21.0978 F   0  0  0  0  0  0
  -21.5626   -3.4540   25.7734 F   0  0  0  0  0  0
  -29.7734  -14.3550   20.3212 N   0  0  0  0  0  0
  -26.2777  -12.9687   20.3236 N   0  0  0  0  0  0
  -25.9386  -11.6734   20.5663 N   0  0  0  0  0  0
  -22.0399  -12.8128   22.0472 N   0  0  0  0  0  0
  -25.3929  -15.2073   20.4329 N   0  0  0  0  0  0
  -31.4329  -15.7140   20.0105 O   0  0  0  0  0  0
  -21.6656   -6.8897   21.4245 O   0  0  0  0  0  0
  -22.3377  -14.5458   20.6760 O   0  0  0  0  0  0
  -24.6928  -31.7865   23.1421 C   0  0  0  0  0  0
  -25.9461  -32.4398   23.8006 C   0  0  1  0  0  0
  -27.2359  -26.5963   20.2208 C   0  0  0  0  0  0
  -25.5997  -33.8231   24.1880 N   0  0  0  0  0  0
  -23.5248  -30.3822   21.4969 C   0  0  2  0  0  0
  -24.9863  -28.7019   20.1134 C   0  0  0  0  0  0
  -22.7811  -29.4236   22.4670 C   0  0  0  0  0  0
  -18.0343  -28.1428   22.8449 C   0  0  0  0  0  0
  -24.1496  -36.7123   23.2656 C   0  0  0  0  0  0
  -26.1085  -30.4821   21.4255 C   0  0  0  0  0  0
  -26.1721  -29.0358   20.7764 C   0  0  0  0  0  0
  -27.2701  -28.0102   20.8025 C   0  0  0  0  0  0
  -26.0223  -26.5026   19.4848 C   0  0  0  0  0  0
  -24.9568  -27.4633   19.4442 C   0  0  0  0  0  0
  -23.7853  -29.6686   20.1357 C   0  0  0  0  0  0
  -25.4151  -36.2856   24.0272 C   0  0  1  0  0  0
  -20.5984  -28.3790   23.1121 C   0  0  2  0  0  0
  -20.6803  -26.9438   22.5407 C   0  0  0  0  0  0
  -19.5782  -26.6365   21.5218 C   0  0  0  0  0  0
  -18.1964  -26.7952   22.1617 C   0  0  0  0  0  0
  -19.1613  -28.8935   23.2762 C   0  0  0  0  0  0
  -18.9518  -30.1517   23.8812 C   0  0  0  0  0  0
  -17.6507  -30.6607   24.0548 C   0  0  0  0  0  0
  -25.9137  -34.9249   23.4923 C   0  0  0  0  0  0
  -16.5395  -29.9086   23.6354 C   0  0  0  0  0  0
  -16.7323  -28.6510   23.0368 C   0  0  0  0  0  0
  -26.4607  -31.6486   25.0677 C   0  0  0  0  0  0
  -25.3644  -31.3839   26.1272 C   0  0  0  0  0  0
  -27.0561  -30.2810   24.6669 C   0  0  0  0  0  0
  -27.6031  -32.4377   25.7502 C   0  0  0  0  0  0
  -27.5560  -37.1719   24.8467 C   0  0  0  0  0  0
  -21.4447  -29.3011   22.3424 N   0  0  0  0  0  0
  -26.4267  -37.3629   23.9405 N   0  0  0  0  0  0
  -24.7997  -30.9200   22.0734 N   0  0  0  0  0  0
  -23.4204  -28.7859   23.3069 O   0  0  0  0  0  0
  -28.1807  -25.3318   20.3680 O   0  0  0  0  0  0
  -26.5796  -34.8848   22.4553 O   0  0  0  0  0  0
  -23.5925  -32.0993   23.6305 O   0  0  0  0  0  0
  -28.7755  -22.3343   20.4603 C   0  0  0  0  0  0
  -28.1993  -23.7214   19.9872 C   0  0  0  0  0  0
  -29.0477  -18.6565   20.6213 C   0  0  0  0  0  0
  -27.9720  -18.8807   21.6656 C   0  0  0  0  0  0
  -28.6431  -20.4112   18.5130 C   0  0  0  0  0  0
  -29.1410  -20.5121   19.9598 C   0  0  1  0  0  0
  -29.3761  -17.1573   20.6719 N   0  0  0  0  0  0
  -31.4184  -13.4230   19.2226 H   0  0  0  0  0  0
  -30.5889  -12.3267   20.2643 H   0  0  0  0  0  0
  -30.0485  -11.8709   17.8461 H   0  0  0  0  0  0
  -29.5166  -13.5216   17.6374 H   0  0  0  0  0  0
  -28.1914  -11.3249   19.2420 H   0  0  0  0  0  0
  -27.4864  -12.2354   17.9251 H   0  0  0  0  0  0
  -27.4492  -14.2385   19.2354 H   0  0  0  0  0  0
  -28.8595  -12.8339   21.5494 H   0  0  0  0  0  0
  -28.1287  -14.4151   21.6238 H   0  0  0  0  0  0
  -25.2806   -9.5691   22.4750 H   0  0  0  0  0  0
  -24.0024   -7.4655   22.7478 H   0  0  0  0  0  0
  -21.0877   -8.8798   19.8950 H   0  0  0  0  0  0
  -22.3753  -10.9678   19.6148 H   0  0  0  0  0  0
  -21.2019   -7.6155   23.9720 H   0  0  0  0  0  0
  -21.1483   -6.0525   25.9077 H   0  0  0  0  0  0
  -22.0593   -2.7614   23.2841 H   0  0  0  0  0  0
  -22.4057  -11.9806   22.4857 H   0  0  0  0  0  0
  -21.1005  -13.1113   22.2683 H   0  0  0  0  0  0
  -24.6334  -15.8650   20.5704 H   0  0  0  0  0  0
  -26.2637  -15.6525   20.1693 H   0  0  0  0  0  0
  -26.7551  -32.4840   23.0720 H   0  0  0  0  0  0
  -25.0032  -33.9252   24.9958 H   0  0  0  0  0  0
  -22.8563  -31.2223   21.2973 H   0  0  0  0  0  0
  -23.3779  -35.9431   23.3260 H   0  0  0  0  0  0
  -24.3558  -36.8852   22.2082 H   0  0  0  0  0  0
  -23.7237  -37.6274   23.6782 H   0  0  0  0  0  0
  -26.3251  -31.2002   20.6335 H   0  0  0  0  0  0
  -26.9543  -30.5524   22.0967 H   0  0  0  0  0  0
  -28.1523  -28.2678   21.3713 H   0  0  0  0  0  0
  -25.8434  -25.5688   18.9711 H   0  0  0  0  0  0
  -24.0655  -27.1984   18.8920 H   0  0  0  0  0  0
  -23.9660  -30.4243   19.3706 H   0  0  0  0  0  0
  -22.8888  -29.1381   19.8108 H   0  0  0  0  0  0
  -25.1368  -36.1600   25.0763 H   0  0  0  0  0  0
  -21.0064  -28.3427   24.1249 H   0  0  0  0  0  0
  -20.5654  -26.2418   23.3680 H   0  0  0  0  0  0
  -21.6665  -26.7361   22.1234 H   0  0  0  0  0  0
  -19.6936  -25.6254   21.1303 H   0  0  0  0  0  0
  -19.6731  -27.3130   20.6713 H   0  0  0  0  0  0
  -17.4235  -26.6695   21.4019 H   0  0  0  0  0  0
  -18.0347  -26.0116   22.9033 H   0  0  0  0  0  0
  -19.7994  -30.7354   24.2145 H   0  0  0  0  0  0
  -17.5057  -31.6278   24.5166 H   0  0  0  0  0  0
  -15.5392  -30.2961   23.7727 H   0  0  0  0  0  0
  -15.8724  -28.0800   22.7131 H   0  0  0  0  0  0
  -24.5858  -30.7160   25.7568 H   0  0  0  0  0  0
  -24.8804  -32.3074   26.4461 H   0  0  0  0  0  0
  -25.7793  -30.9155   27.0206 H   0  0  0  0  0  0
  -26.3303  -29.6383   24.1678 H   0  0  0  0  0  0
  -27.3954  -29.7309   25.5457 H   0  0  0  0  0  0
  -27.9295  -30.3906   24.0240 H   0  0  0  0  0  0
  -27.2554  -33.3762   26.1833 H   0  0  0  0  0  0
  -28.3967  -32.6808   25.0422 H   0  0  0  0  0  0
  -28.0564  -31.8676   26.5621 H   0  0  0  0  0  0
  -28.2540  -38.0047   24.7511 H   0  0  0  0  0  0
  -28.1091  -36.2567   24.6299 H   0  0  0  0  0  0
  -27.2272  -37.1359   25.8867 H   0  0  0  0  0  0
  -20.9777  -29.8646   21.6456 H   0  0  0  0  0  0
  -26.0082  -38.2671   24.1419 H   0  0  0  0  0  0
  -29.2474  -22.4649   21.4237 H   0  0  0  0  0  0
  -27.7035  -23.6576   19.0287 H   0  0  0  0  0  0
  -27.0150  -19.0671   21.1783 H   0  0  0  0  0  0
  -28.2172  -19.7473   22.2796 H   0  0  0  0  0  0
  -27.8542  -18.0264   22.3336 H   0  0  0  0  0  0
  -29.0681  -19.5444   18.0054 H   0  0  0  0  0  0
  -28.9177  -21.2938   17.9350 H   0  0  0  0  0  0
  -27.5577  -20.3151   18.4821 H   0  0  0  0  0  0
  -30.2230  -20.6144   19.8693 H   0  0  0  0  0  0
  1 25  1  0  0  0
  1 30  2  0  0  0
  1 77  1  0  0  0
  2  3  1  0  0  0
  2 25  1  0  0  0
  2 78  1  0  0  0
  2 79  1  0  0  0
  3  4  1  0  0  0
  3 80  1  0  0  0
  3 81  1  0  0  0
  4  5  1  0  0  0
  4 82  1  0  0  0
  4 83  1  0  0  0
  5  6  1  0  0  0
  5 26  1  0  0  0
  5 84  1  0  0  0
  6 25  1  0  0  0
  6 85  1  0  0  0
  6 86  1  0  0  0
  7  8  2  0  0  0
  7 26  1  0  0  0
  7 29  1  0  0  0
  8  9  1  0  0  0
  8 22  1  0  0  0
  9 10  1  0  0  0
  9 27  2  0  0  0
 10 11  2  0  0  0
 10 15  1  0  0  0
 11 12  1  0  0  0
 11 87  1  0  0  0
 12 13  2  0  0  0
 12 88  1  0  0  0
 13 14  1  0  0  0
 13 31  1  0  0  0
 14 15  2  0  0  0
 14 89  1  0  0  0
 15 90  1  0  0  0
 16 17  2  0  0  0
 16 21  1  0  0  0
 16 31  1  0  0  0
 17 18  1  0  0  0
 17 91  1  0  0  0
 18 19  2  0  0  0
 18 92  1  0  0  0
 19 20  1  0  0  0
 19 24  1  0  0  0
 20 21  2  0  0  0
 20 93  1  0  0  0
 21 23  1  0  0  0
 22 28  1  0  0  0
 22 32  2  0  0  0
 26 27  1  0  0  0
 28 94  1  0  0  0
 28 95  1  0  0  0
 29 96  1  0  0  0
 29 97  1  0  0  0
 33 34  1  0  0  0
 33 66  1  0  0  0
 33 70  2  0  0  0
 34 36  1  0  0  0
 34 59  1  0  0  0
 34 98  1  0  0  0
 35 44  2  0  0  0
 35 45  1  0  0  0
 35 68  1  0  0  0
 36 56  1  0  0  0
 36 99  1  0  0  0
 37 39  1  0  0  0
 37 47  1  0  0  0
 37 66  1  0  0  0
 37100  1  0  0  0
 38 43  2  0  0  0
 38 46  1  0  0  0
 38 47  1  0  0  0
 39 64  1  0  0  0
 39 67  2  0  0  0
 40 52  1  0  0  0
 40 53  2  0  0  0
 40 58  1  0  0  0
 41101  1  0  0  0
 41102  1  0  0  0
 41103  1  0  0  0
 41 48  1  0  0  0
 42 43  1  0  0  0
 42 66  1  0  0  0
 42104  1  0  0  0
 42105  1  0  0  0
 43 44  1  0  0  0
 44106  1  0  0  0
 45 46  2  0  0  0
 45107  1  0  0  0
 46108  1  0  0  0
 47109  1  0  0  0
 47110  1  0  0  0
 48 56  1  0  0  0
 48 65  1  0  0  0
 48111  1  0  0  0
 49 50  1  0  0  0
 49 53  1  0  0  0
 49 64  1  0  0  0
 49112  1  0  0  0
 50 51  1  0  0  0
 50113  1  0  0  0
 50114  1  0  0  0
 51 52  1  0  0  0
 51115  1  0  0  0
 51116  1  0  0  0
 52117  1  0  0  0
 52118  1  0  0  0
 53 54  1  0  0  0
 54 55  2  0  0  0
 54119  1  0  0  0
 55 57  1  0  0  0
 55120  1  0  0  0
 56 69  2  0  0  0
 57 58  2  0  0  0
 57121  1  0  0  0
 58122  1  0  0  0
 59 60  1  0  0  0
 59 61  1  0  0  0
 59 62  1  0  0  0
 60123  1  0  0  0
 60124  1  0  0  0
 60125  1  0  0  0
 61126  1  0  0  0
 61127  1  0  0  0
 61128  1  0  0  0
 62129  1  0  0  0
 62130  1  0  0  0
 62131  1  0  0  0
 63 65  1  0  0  0
 63132  1  0  0  0
 63133  1  0  0  0
 63134  1  0  0  0
 64135  1  0  0  0
 65136  1  0  0  0
 68 72  1  0  0  0
 71 72  2  0  0  0
 71 76  1  0  0  0
 71137  1  0  0  0
 72138  1  0  0  0
 73 74  1  0  0  0
 73 76  1  0  0  0
 73 77  2  0  0  0
 74139  1  0  0  0
 74140  1  0  0  0
 74141  1  0  0  0
 75142  1  0  0  0
 75143  1  0  0  0
 75144  1  0  0  0
 75 76  1  0  0  0
 76145  1  0  0  0
M  ISO  4   1 100  68 101  72 101  77 100
M  END
> <chiral flag>
0

> <version>
0

> <s_m_source_file>
/data/baiqing/PycharmProjects/Reinvent-master-3.2/result/LINK_invent/BTK/process_docking_weight1_custom_product_contain_oxygen_bond_distance_aromatic_linkinvent_7_9_3/rearranged_h_0087.sdf

> <i_m_source_file_index>
85

> <r_mmod_Potential_Energy-OPLS-2005>
3122.14501953125

> <r_mmod_Stretch_Energy-OPLS-2005>
1329.56091308594

> <r_mmod_Bend_Energy-OPLS-2005>
888.312194824219

> <r_mmod_Torsional_Energy-OPLS-2005>
176.266860961914

> <r_mmod_Improper_Torsional_Energy-OPLS-2005>
3.93551063537598

> <r_mmod_Van_der_Waal_Energy-OPLS-2005>
109.510765075684

> <r_mmod_Electrostatic_Energy-OPLS-2005>
-339.035125732422

> <r_mmod_Solvation_Energy-OPLS-2005>
-174.115234375

> <b_mmod_Minimization_Converged-OPLS-2005>
0

> <r_mmod_RMS_Derivative-OPLS-2005>
0.243877798318863

$$$$
85
                    3D
 Structure written by MMmdl.
155164  0  0  1  0            999 V2000
  -30.7128  -14.6236   20.4731 C   0  0  0  0  0  0
  -30.4111  -12.3853   19.4475 C   0  0  0  0  0  0
  -29.4949  -12.4865   18.2137 C   0  0  0  0  0  0
  -28.0210  -12.3298   18.6343 C   0  0  0  0  0  0
  -27.6374  -13.2336   19.8393 C   0  0  2  0  0  0
  -28.6881  -13.1646   20.9684 C   0  0  0  0  0  0
  -25.2464  -13.8212   20.5688 C   0  0  0  0  0  0
  -24.1774  -13.0432   20.9201 C   0  0  0  0  0  0
  -24.6385  -11.6919   20.8731 C   0  0  0  0  0  0
  -23.9071  -10.4283   21.0378 C   0  0  0  0  0  0
  -24.3617   -9.4193   21.9152 C   0  0  0  0  0  0
  -23.6282   -8.2235   22.0747 C   0  0  0  0  0  0
  -22.4259   -8.0277   21.3549 C   0  0  0  0  0  0
  -21.9894   -9.0240   20.4641 C   0  0  0  0  0  0
  -22.7238  -10.2110   20.3028 C   0  0  0  0  0  0
  -21.6860   -6.0719   22.5270 C   0  0  0  0  0  0
  -21.4022   -6.5623   23.8202 C   0  0  0  0  0  0
  -21.3660   -5.6780   24.9169 C   0  0  0  0  0  0
  -21.6037   -4.3042   24.7222 C   0  0  0  0  0  0
  -21.8818   -3.8127   23.4348 C   0  0  0  0  0  0
  -21.9188   -4.6944   22.3400 C   0  0  0  0  0  0
  -22.7776  -13.5174   21.1869 C   0  0  0  0  0  0
  -22.1653   -4.2125   21.0978 F   0  0  0  0  0  0
  -21.5634   -3.4524   25.7739 F   0  0  0  0  0  0
  -29.9965  -13.4595   20.3709 N   0  0  0  0  0  0
  -26.2911  -12.9439   20.3251 N   0  0  0  0  0  0
  -25.9315  -11.6578   20.5737 N   0  0  0  0  0  0
  -22.0435  -12.8148   22.0442 N   0  0  0  0  0  0
  -25.4116  -15.1938   20.4124 N   0  0  0  0  0  0
  -31.9147  -14.6184   20.1975 O   0  0  0  0  0  0
  -21.6642   -6.8859   21.4235 O   0  0  0  0  0  0
  -22.3418  -14.5461   20.6712 O   0  0  0  0  0  0
  -24.6211  -31.8646   23.2066 C   0  0  0  0  0  0
  -25.9105  -32.4791   23.8365 C   0  0  1  0  0  0
  -27.2188  -27.3758   20.1020 C   0  0  0  0  0  0
  -25.5958  -33.8580   24.2345 N   0  0  0  0  0  0
  -23.4093  -30.4877   21.5509 C   0  0  2  0  0  0
  -24.8556  -28.9467   20.1160 C   0  0  0  0  0  0
  -22.7431  -29.4630   22.4979 C   0  0  0  0  0  0
  -18.0271  -28.1351   22.8474 C   0  0  0  0  0  0
  -24.1477  -36.7266   23.2628 C   0  0  0  0  0  0
  -25.9430  -30.8141   21.3630 C   0  0  0  0  0  0
  -26.0227  -29.4394   20.7167 C   0  0  0  0  0  0
  -27.2120  -28.6615   20.7103 C   0  0  0  0  0  0
  -26.0379  -26.9143   19.4912 C   0  0  0  0  0  0
  -24.8591  -27.6817   19.5034 C   0  0  0  0  0  0
  -23.6214  -29.8222   20.1656 C   0  0  0  0  0  0
  -25.4093  -36.3084   24.0356 C   0  0  1  0  0  0
  -20.5864  -28.3639   23.1291 C   0  0  2  0  0  0
  -20.6753  -26.9370   22.5382 C   0  0  0  0  0  0
  -19.5725  -26.6378   21.5162 C   0  0  0  0  0  0
  -18.1915  -26.7903   22.1593 C   0  0  0  0  0  0
  -19.1527  -28.8811   23.2880 C   0  0  0  0  0  0
  -18.9463  -30.1420   23.8892 C   0  0  0  0  0  0
  -17.6462  -30.6549   24.0558 C   0  0  0  0  0  0
  -25.9044  -34.9456   23.5142 C   0  0  0  0  0  0
  -16.5353  -29.9051   23.6313 C   0  0  0  0  0  0
  -16.7266  -28.6469   23.0338 C   0  0  0  0  0  0
  -26.4534  -31.6530   25.0673 C   0  0  0  0  0  0
  -25.3821  -31.3648   26.1444 C   0  0  0  0  0  0
  -27.0318  -30.2959   24.5996 C   0  0  0  0  0  0
  -27.6122  -32.4210   25.7460 C   0  0  0  0  0  0
  -27.5581  -37.1793   24.8472 C   0  0  0  0  0  0
  -21.4156  -29.3017   22.3716 N   0  0  0  0  0  0
  -26.4272  -37.3780   23.9435 N   0  0  0  0  0  0
  -24.6777  -31.0704   22.0996 N   0  0  0  0  0  0
  -23.4197  -28.8164   23.3020 O   0  0  0  0  0  0
  -28.3107  -26.5240   20.0635 O   0  0  0  0  0  0
  -26.5561  -34.8928   22.4679 O   0  0  0  0  0  0
  -23.5400  -32.1419   23.7424 O   0  0  0  0  0  0
  -28.7069  -20.2413   19.7204 C   0  0  0  0  0  0
  -28.9741  -18.8157   19.6267 C   0  0  0  0  0  0
  -29.8440  -18.3479   20.5947 C   0  0  0  0  0  0
  -29.3372  -20.9090   20.7507 C   0  0  0  0  0  0
  -28.8513  -24.4954   21.4252 C   0  0  0  0  0  0
  -28.8354  -23.3563   20.4855 C   0  0  0  0  0  0
  -28.5908  -25.8243   21.2228 C   0  0  0  0  0  0
  -30.5853  -17.0400   20.8618 C   0  0  0  0  0  0
  -29.2260  -23.9940   22.7891 C   0  0  0  0  0  0
  -29.6813  -22.5633   22.5285 C   0  0  0  0  0  0
  -28.3794  -17.9618   18.5448 C   0  0  0  0  0  0
  -29.2622  -22.2359   21.1613 N   0  0  0  0  0  0
  -30.0292  -15.8083   20.6155 N   0  0  0  0  0  0
  -28.4847  -23.3799   19.3028 O   0  0  0  0  0  0
  -31.7195  -17.1496   21.3446 O   0  0  0  0  0  0
  -30.3276  -19.7159   21.6036 S   0  0  0  0  0  0
  -31.4544  -12.4665   19.1380 H   0  0  0  0  0  0
  -30.3184  -11.4091   19.9287 H   0  0  0  0  0  0
  -29.7601  -11.7221   17.4819 H   0  0  0  0  0  0
  -29.6419  -13.4500   17.7204 H   0  0  0  0  0  0
  -27.8681  -11.2825   18.8984 H   0  0  0  0  0  0
  -27.3617  -12.5273   17.7879 H   0  0  0  0  0  0
  -27.6320  -14.2562   19.4608 H   0  0  0  0  0  0
  -28.6954  -12.1767   21.4306 H   0  0  0  0  0  0
  -28.4505  -13.8754   21.7619 H   0  0  0  0  0  0
  -25.2766   -9.5654   22.4713 H   0  0  0  0  0  0
  -23.9998   -7.4613   22.7447 H   0  0  0  0  0  0
  -21.0835   -8.8731   19.8928 H   0  0  0  0  0  0
  -22.3699  -10.9633   19.6113 H   0  0  0  0  0  0
  -21.2035   -7.6129   23.9700 H   0  0  0  0  0  0
  -21.1479   -6.0512   25.9070 H   0  0  0  0  0  0
  -22.0608   -2.7583   23.2858 H   0  0  0  0  0  0
  -22.4048  -11.9818   22.4850 H   0  0  0  0  0  0
  -21.1030  -13.1133   22.2621 H   0  0  0  0  0  0
  -24.6401  -15.8429   20.5261 H   0  0  0  0  0  0
  -26.2638  -15.6482   20.1161 H   0  0  0  0  0  0
  -26.7173  -32.5516   23.1121 H   0  0  0  0  0  0
  -25.0199  -33.9732   25.0556 H   0  0  0  0  0  0
  -22.6989  -31.3061   21.4129 H   0  0  0  0  0  0
  -23.3748  -35.9588   23.3284 H   0  0  0  0  0  0
  -24.3586  -36.8849   22.2041 H   0  0  0  0  0  0
  -23.7204  -37.6471   23.6621 H   0  0  0  0  0  0
  -26.0487  -31.5716   20.5852 H   0  0  0  0  0  0
  -26.8345  -30.8786   21.9742 H   0  0  0  0  0  0
  -28.1156  -29.0346   21.1749 H   0  0  0  0  0  0
  -26.0278  -25.9401   19.0237 H   0  0  0  0  0  0
  -23.9589  -27.2941   19.0479 H   0  0  0  0  0  0
  -23.7389  -30.6012   19.4115 H   0  0  0  0  0  0
  -22.7393  -29.2539   19.8624 H   0  0  0  0  0  0
  -25.1236  -36.1951   25.0841 H   0  0  0  0  0  0
  -20.9961  -28.3214   24.1413 H   0  0  0  0  0  0
  -20.5564  -26.2243   23.3560 H   0  0  0  0  0  0
  -21.6636  -26.7365   22.1220 H   0  0  0  0  0  0
  -19.6877  -25.6303   21.1142 H   0  0  0  0  0  0
  -19.6654  -27.3231   20.6722 H   0  0  0  0  0  0
  -17.4168  -26.6619   21.4021 H   0  0  0  0  0  0
  -18.0339  -26.0031   22.8971 H   0  0  0  0  0  0
  -19.7955  -30.7219   24.2244 H   0  0  0  0  0  0
  -17.5025  -31.6221   24.5165 H   0  0  0  0  0  0
  -15.5355  -30.2951   23.7632 H   0  0  0  0  0  0
  -15.8668  -28.0778   22.7057 H   0  0  0  0  0  0
  -24.6028  -30.6934   25.7833 H   0  0  0  0  0  0
  -24.8996  -32.2803   26.4865 H   0  0  0  0  0  0
  -25.8215  -30.8881   27.0214 H   0  0  0  0  0  0
  -26.2816  -29.6724   24.1112 H   0  0  0  0  0  0
  -27.4177  -29.7166   25.4392 H   0  0  0  0  0  0
  -27.8624  -30.4257   23.9053 H   0  0  0  0  0  0
  -27.2792  -33.3563   26.1969 H   0  0  0  0  0  0
  -28.4020  -32.6635   25.0339 H   0  0  0  0  0  0
  -28.0671  -31.8325   26.5440 H   0  0  0  0  0  0
  -28.2604  -38.0092   24.7545 H   0  0  0  0  0  0
  -28.1087  -36.2630   24.6274 H   0  0  0  0  0  0
  -27.2303  -37.1412   25.8876 H   0  0  0  0  0  0
  -20.9295  -29.8808   21.7009 H   0  0  0  0  0  0
  -26.0155  -38.2849   24.1467 H   0  0  0  0  0  0
  -28.0442  -20.7281   19.0186 H   0  0  0  0  0  0
  -28.6359  -26.5081   22.0593 H   0  0  0  0  0  0
  -28.3494  -24.0170   23.4389 H   0  0  0  0  0  0
  -30.0108  -24.6027   23.2424 H   0  0  0  0  0  0
  -29.2462  -21.8773   23.2568 H   0  0  0  0  0  0
  -30.7688  -22.4977   22.6014 H   0  0  0  0  0  0
  -27.8161  -18.5582   17.8257 H   0  0  0  0  0  0
  -27.6948  -17.2227   18.9572 H   0  0  0  0  0  0
  -29.1451  -17.4254   17.9845 H   0  0  0  0  0  0
  -29.0346  -15.7859   20.4797 H   0  0  0  0  0  0
  1 25  1  0  0  0
  1 30  2  0  0  0
  1 83  1  0  0  0
  2  3  1  0  0  0
  2 25  1  0  0  0
  2 87  1  0  0  0
  2 88  1  0  0  0
  3  4  1  0  0  0
  3 89  1  0  0  0
  3 90  1  0  0  0
  4  5  1  0  0  0
  4 91  1  0  0  0
  4 92  1  0  0  0
  5  6  1  0  0  0
  5 26  1  0  0  0
  5 93  1  0  0  0
  6 25  1  0  0  0
  6 94  1  0  0  0
  6 95  1  0  0  0
  7  8  2  0  0  0
  7 26  1  0  0  0
  7 29  1  0  0  0
  8  9  1  0  0  0
  8 22  1  0  0  0
  9 10  1  0  0  0
  9 27  2  0  0  0
 10 11  2  0  0  0
 10 15  1  0  0  0
 11 12  1  0  0  0
 11 96  1  0  0  0
 12 13  2  0  0  0
 12 97  1  0  0  0
 13 14  1  0  0  0
 13 31  1  0  0  0
 14 15  2  0  0  0
 14 98  1  0  0  0
 15 99  1  0  0  0
 16 17  2  0  0  0
 16 21  1  0  0  0
 16 31  1  0  0  0
 17 18  1  0  0  0
 17100  1  0  0  0
 18 19  2  0  0  0
 18101  1  0  0  0
 19 20  1  0  0  0
 19 24  1  0  0  0
 20 21  2  0  0  0
 20102  1  0  0  0
 21 23  1  0  0  0
 22 28  1  0  0  0
 22 32  2  0  0  0
 26 27  1  0  0  0
 28103  1  0  0  0
 28104  1  0  0  0
 29105  1  0  0  0
 29106  1  0  0  0
 33 34  1  0  0  0
 33 66  1  0  0  0
 33 70  2  0  0  0
 34 36  1  0  0  0
 34 59  1  0  0  0
 34107  1  0  0  0
 35 44  2  0  0  0
 35 45  1  0  0  0
 35 68  1  0  0  0
 36 56  1  0  0  0
 36108  1  0  0  0
 37 39  1  0  0  0
 37 47  1  0  0  0
 37 66  1  0  0  0
 37109  1  0  0  0
 38 43  2  0  0  0
 38 46  1  0  0  0
 38 47  1  0  0  0
 39 64  1  0  0  0
 39 67  2  0  0  0
 40 52  1  0  0  0
 40 53  2  0  0  0
 40 58  1  0  0  0
 41110  1  0  0  0
 41111  1  0  0  0
 41112  1  0  0  0
 41 48  1  0  0  0
 42 43  1  0  0  0
 42 66  1  0  0  0
 42113  1  0  0  0
 42114  1  0  0  0
 43 44  1  0  0  0
 44115  1  0  0  0
 45 46  2  0  0  0
 45116  1  0  0  0
 46117  1  0  0  0
 47118  1  0  0  0
 47119  1  0  0  0
 48 56  1  0  0  0
 48 65  1  0  0  0
 48120  1  0  0  0
 49 50  1  0  0  0
 49 53  1  0  0  0
 49 64  1  0  0  0
 49121  1  0  0  0
 50 51  1  0  0  0
 50122  1  0  0  0
 50123  1  0  0  0
 51 52  1  0  0  0
 51124  1  0  0  0
 51125  1  0  0  0
 52126  1  0  0  0
 52127  1  0  0  0
 53 54  1  0  0  0
 54 55  2  0  0  0
 54128  1  0  0  0
 55 57  1  0  0  0
 55129  1  0  0  0
 56 69  2  0  0  0
 57 58  2  0  0  0
 57130  1  0  0  0
 58131  1  0  0  0
 59 60  1  0  0  0
 59 61  1  0  0  0
 59 62  1  0  0  0
 60132  1  0  0  0
 60133  1  0  0  0
 60134  1  0  0  0
 61135  1  0  0  0
 61136  1  0  0  0
 61137  1  0  0  0
 62138  1  0  0  0
 62139  1  0  0  0
 62140  1  0  0  0
 63 65  1  0  0  0
 63141  1  0  0  0
 63142  1  0  0  0
 63143  1  0  0  0
 64144  1  0  0  0
 65145  1  0  0  0
 68 77  1  0  0  0
 71 72  1  0  0  0
 71 74  2  0  0  0
 71146  1  0  0  0
 72 73  2  0  0  0
 72 81  1  0  0  0
 73 78  1  0  0  0
 73 86  1  0  0  0
 74 82  1  0  0  0
 74 86  1  0  0  0
 75 76  1  0  0  0
 75 77  2  0  0  0
 75 79  1  0  0  0
 76 82  1  0  0  0
 76 84  2  0  0  0
 77147  1  0  0  0
 78 83  1  0  0  0
 78 85  2  0  0  0
 79 80  1  0  0  0
 79148  1  0  0  0
 79149  1  0  0  0
 80 82  1  0  0  0
 80150  1  0  0  0
 80151  1  0  0  0
 81152  1  0  0  0
 81153  1  0  0  0
 81154  1  0  0  0
 83155  1  0  0  0
M  ISO  4   1 100  68 101  77 101  83 100
M  END
> <chiral flag>
0

> <version>
0

> <s_m_source_file>
/data/baiqing/PycharmProjects/Reinvent-master-3.2/result/LINK_invent/BTK/process_docking_weight1_custom_product_contain_oxygen_bond_distance_aromatic_linkinvent_7_9_3/rearranged_h_0087.sdf

> <i_m_source_file_index>
86

> <r_mmod_Potential_Energy-OPLS-2005>
77.7466125488281

> <r_mmod_Stretch_Energy-OPLS-2005>
60.9507942199707

> <r_mmod_Bend_Energy-OPLS-2005>
174.895278930664

> <r_mmod_Torsional_Energy-OPLS-2005>
280.915069580078

> <r_mmod_Improper_Torsional_Energy-OPLS-2005>
6.67803764343262

> <r_mmod_Van_der_Waal_Energy-OPLS-2005>
122.967124938965

> <r_mmod_Electrostatic_Energy-OPLS-2005>
-382.281982421875

> <r_mmod_Solvation_Energy-OPLS-2005>
-232.710052490234

> <b_mmod_Minimization_Converged-OPLS-2005>
0

> <r_mmod_RMS_Derivative-OPLS-2005>
3.40748357772827

$$$$
86
                    3D
 Structure written by MMmdl.
156165  0  0  1  0            999 V2000
  -30.6026  -14.8442   20.4576 C   0  0  0  0  0  0
  -30.4076  -12.5390   19.4425 C   0  0  0  0  0  0
  -29.4766  -12.5475   18.2074 C   0  0  0  0  0  0
  -28.0017  -12.3535   18.6130 C   0  0  0  0  0  0
  -27.6180  -13.2256   19.8337 C   0  0  2  0  0  0
  -28.6751  -13.1600   20.9569 C   0  0  0  0  0  0
  -25.2402  -13.8178   20.5671 C   0  0  0  0  0  0
  -24.1718  -13.0429   20.9169 C   0  0  0  0  0  0
  -24.6351  -11.6923   20.8735 C   0  0  0  0  0  0
  -23.9078  -10.4304   21.0408 C   0  0  0  0  0  0
  -24.3656   -9.4229   21.9187 C   0  0  0  0  0  0
  -23.6327   -8.2267   22.0779 C   0  0  0  0  0  0
  -22.4294   -8.0308   21.3586 C   0  0  0  0  0  0
  -21.9934   -9.0269   20.4674 C   0  0  0  0  0  0
  -22.7273  -10.2131   20.3043 C   0  0  0  0  0  0
  -21.6867   -6.0759   22.5311 C   0  0  0  0  0  0
  -21.4032   -6.5661   23.8248 C   0  0  0  0  0  0
  -21.3642   -5.6803   24.9199 C   0  0  0  0  0  0
  -21.6031   -4.3067   24.7238 C   0  0  0  0  0  0
  -21.8821   -3.8172   23.4358 C   0  0  0  0  0  0
  -21.9214   -4.6992   22.3422 C   0  0  0  0  0  0
  -22.7757  -13.5219   21.1863 C   0  0  0  0  0  0
  -22.1679   -4.2184   21.0996 F   0  0  0  0  0  0
  -21.5605   -3.4545   25.7744 F   0  0  0  0  0  0
  -29.9455  -13.6137   20.3693 N   0  0  0  0  0  0
  -26.2814  -12.9380   20.3248 N   0  0  0  0  0  0
  -25.9272  -11.6529   20.5746 N   0  0  0  0  0  0
  -22.0475  -12.8169   22.0438 N   0  0  0  0  0  0
  -25.4026  -15.1890   20.4089 N   0  0  0  0  0  0
  -31.7937  -14.8093   20.1303 O   0  0  0  0  0  0
  -21.6660   -6.8902   21.4272 O   0  0  0  0  0  0
  -22.3434  -14.5571   20.6795 O   0  0  0  0  0  0
  -24.6402  -31.8541   23.1868 C   0  0  0  0  0  0
  -25.9248  -32.4718   23.8211 C   0  0  1  0  0  0
  -27.2262  -27.1949   20.1243 C   0  0  0  0  0  0
  -25.6036  -33.8499   24.2180 N   0  0  0  0  0  0
  -23.4323  -30.4795   21.5278 C   0  0  2  0  0  0
  -24.8812  -28.9093   20.1043 C   0  0  0  0  0  0
  -22.7480  -29.4688   22.4791 C   0  0  0  0  0  0
  -18.0310  -28.1424   22.8493 C   0  0  0  0  0  0
  -24.1504  -36.7226   23.2614 C   0  0  0  0  0  0
  -25.9838  -30.7477   21.3738 C   0  0  0  0  0  0
  -26.0558  -29.3614   20.7169 C   0  0  0  0  0  0
  -27.2221  -28.5164   20.7187 C   0  0  0  0  0  0
  -26.0221  -26.8323   19.4776 C   0  0  0  0  0  0
  -24.8758  -27.6542   19.4780 C   0  0  0  0  0  0
  -23.6535  -29.8031   20.1473 C   0  0  0  0  0  0
  -25.4144  -36.3002   24.0283 C   0  0  1  0  0  0
  -20.5914  -28.3792   23.1216 C   0  0  2  0  0  0
  -20.6783  -26.9492   22.5397 C   0  0  0  0  0  0
  -19.5764  -26.6446   21.5187 C   0  0  0  0  0  0
  -18.1952  -26.7976   22.1613 C   0  0  0  0  0  0
  -19.1563  -28.8918   23.2867 C   0  0  0  0  0  0
  -18.9492  -30.1499   23.8928 C   0  0  0  0  0  0
  -17.6491  -30.6622   24.0596 C   0  0  0  0  0  0
  -25.9127  -34.9409   23.5030 C   0  0  0  0  0  0
  -16.5385  -29.9130   23.6329 C   0  0  0  0  0  0
  -16.7297  -28.6528   23.0388 C   0  0  0  0  0  0
  -26.4576  -31.6533   25.0618 C   0  0  0  0  0  0
  -25.3765  -31.3736   26.1319 C   0  0  0  0  0  0
  -27.0418  -30.2919   24.6174 C   0  0  0  0  0  0
  -27.6106  -32.4252   25.7447 C   0  0  0  0  0  0
  -27.5568  -37.1775   24.8458 C   0  0  0  0  0  0
  -21.4194  -29.3129   22.3541 N   0  0  0  0  0  0
  -26.4283  -37.3743   23.9397 N   0  0  0  0  0  0
  -24.7049  -31.0469   22.0847 N   0  0  0  0  0  0
  -23.4188  -28.8268   23.2939 O   0  0  0  0  0  0
  -28.3188  -26.2704   20.1920 O   0  0  0  0  0  0
  -26.5648  -34.8913   22.4583 O   0  0  0  0  0  0
  -23.5558  -32.1388   23.7169 O   0  0  0  0  0  0
  -32.5883  -18.8897   20.7321 C   0  0  0  0  0  0
  -31.8626  -20.0871   20.6974 C   0  0  0  0  0  0
  -31.9557  -17.6437   20.7285 C   0  0  0  0  0  0
  -29.8131  -18.8060   20.6586 C   0  0  0  0  0  0
  -30.4456  -20.1403   20.6869 C   0  0  0  0  0  0
  -30.5503  -17.5106   20.6654 C   0  0  0  0  0  0
  -28.9391  -23.7565   20.4490 C   0  0  0  0  0  0
  -29.9162  -23.8720   21.5016 C   0  0  0  0  0  0
  -28.9340  -22.2823   20.0779 C   0  0  0  0  0  0
  -28.0925  -16.3075   22.1850 C   0  0  0  0  0  0
  -28.2234  -24.8429   19.9136 C   0  0  0  0  0  0
  -28.5906  -16.1914   20.9424 C   0  0  0  0  0  0
  -30.5736  -22.5143   21.7068 C   0  0  0  0  0  0
  -29.8707  -21.5497   20.8189 N   0  0  0  0  0  0
  -29.9545  -16.1086   20.6710 N   0  0  0  0  0  0
  -30.2247  -24.8844   22.1399 O   0  0  0  0  0  0
  -28.2029  -21.7598   19.2280 O   0  0  0  0  0  0
  -31.4415  -12.6717   19.1193 H   0  0  0  0  0  0
  -30.3845  -11.5651   19.9333 H   0  0  0  0  0  0
  -29.7710  -11.7775   17.4942 H   0  0  0  0  0  0
  -29.5754  -13.4989   17.6814 H   0  0  0  0  0  0
  -27.8340  -11.3000   18.8346 H   0  0  0  0  0  0
  -27.3479  -12.5836   17.7679 H   0  0  0  0  0  0
  -27.5926  -14.2354   19.4350 H   0  0  0  0  0  0
  -28.7628  -12.1376   21.3288 H   0  0  0  0  0  0
  -28.3781  -13.7474   21.8220 H   0  0  0  0  0  0
  -25.2817   -9.5704   22.4729 H   0  0  0  0  0  0
  -24.0055   -7.4671   22.7515 H   0  0  0  0  0  0
  -21.0855   -8.8804   19.8990 H   0  0  0  0  0  0
  -22.3787  -10.9655   19.6112 H   0  0  0  0  0  0
  -21.2039   -7.6173   23.9754 H   0  0  0  0  0  0
  -21.1434   -6.0536   25.9101 H   0  0  0  0  0  0
  -22.0607   -2.7638   23.2856 H   0  0  0  0  0  0
  -22.4147  -11.9739   22.4587 H   0  0  0  0  0  0
  -21.1143  -13.1188   22.2836 H   0  0  0  0  0  0
  -24.6445  -15.8491   20.5405 H   0  0  0  0  0  0
  -26.2822  -15.6362   20.1933 H   0  0  0  0  0  0
  -26.7285  -32.5368   23.0901 H   0  0  0  0  0  0
  -25.0156  -33.9598   25.0296 H   0  0  0  0  0  0
  -22.7320  -31.3041   21.3713 H   0  0  0  0  0  0
  -23.3758  -35.9572   23.3311 H   0  0  0  0  0  0
  -24.3539  -36.8836   22.2015 H   0  0  0  0  0  0
  -23.7318  -37.6448   23.6643 H   0  0  0  0  0  0
  -26.1399  -31.5119   20.6102 H   0  0  0  0  0  0
  -26.8524  -30.7942   22.0188 H   0  0  0  0  0  0
  -28.1175  -28.8604   21.2151 H   0  0  0  0  0  0
  -25.9261  -25.8817   18.9758 H   0  0  0  0  0  0
  -23.9772  -27.3031   18.9920 H   0  0  0  0  0  0
  -23.7775  -30.5728   19.3847 H   0  0  0  0  0  0
  -22.7663  -29.2395   19.8466 H   0  0  0  0  0  0
  -25.1356  -36.1769   25.0769 H   0  0  0  0  0  0
  -21.0070  -28.3426   24.1316 H   0  0  0  0  0  0
  -20.5651  -26.2426   23.3637 H   0  0  0  0  0  0
  -21.6658  -26.7486   22.1230 H   0  0  0  0  0  0
  -19.6927  -25.6354   21.1237 H   0  0  0  0  0  0
  -19.6692  -27.3214   20.6681 H   0  0  0  0  0  0
  -17.4219  -26.6734   21.4024 H   0  0  0  0  0  0
  -18.0370  -26.0110   22.9001 H   0  0  0  0  0  0
  -19.7985  -30.7282   24.2324 H   0  0  0  0  0  0
  -17.5081  -31.6306   24.5201 H   0  0  0  0  0  0
  -15.5406  -30.3081   23.7647 H   0  0  0  0  0  0
  -15.8678  -28.0854   22.7160 H   0  0  0  0  0  0
  -24.6004  -30.6994   25.7660 H   0  0  0  0  0  0
  -24.8887  -32.2927   26.4571 H   0  0  0  0  0  0
  -25.8099  -30.9057   27.0168 H   0  0  0  0  0  0
  -26.3008  -29.6630   24.1228 H   0  0  0  0  0  0
  -27.4047  -29.7245   25.4748 H   0  0  0  0  0  0
  -27.8907  -30.4078   23.9439 H   0  0  0  0  0  0
  -27.2703  -33.3544   26.2012 H   0  0  0  0  0  0
  -28.3997  -32.6811   25.0369 H   0  0  0  0  0  0
  -28.0682  -31.8357   26.5401 H   0  0  0  0  0  0
  -28.2603  -38.0051   24.7511 H   0  0  0  0  0  0
  -28.1065  -36.2598   24.6310 H   0  0  0  0  0  0
  -27.2268  -37.1443   25.8852 H   0  0  0  0  0  0
  -20.9336  -29.8798   21.6709 H   0  0  0  0  0  0
  -26.0127  -38.2796   24.1427 H   0  0  0  0  0  0
  -33.6673  -18.9192   20.7790 H   0  0  0  0  0  0
  -32.4684  -20.9777   20.7009 H   0  0  0  0  0  0
  -32.6238  -16.8019   20.7965 H   0  0  0  0  0  0
  -28.7339  -18.7753   20.6748 H   0  0  0  0  0  0
  -27.0311  -16.4231   22.3525 H   0  0  0  0  0  0
  -28.7353  -16.2888   23.0526 H   0  0  0  0  0  0
  -27.5517  -24.6391   19.0943 H   0  0  0  0  0  0
  -27.9808  -16.2282   20.0521 H   0  0  0  0  0  0
  -30.5310  -22.2088   22.7523 H   0  0  0  0  0  0
  -31.6143  -22.6681   21.4300 H   0  0  0  0  0  0
  1 25  1  0  0  0
  1 30  2  0  0  0
  1 85  1  0  0  0
  2  3  1  0  0  0
  2 25  1  0  0  0
  2 88  1  0  0  0
  2 89  1  0  0  0
  3  4  1  0  0  0
  3 90  1  0  0  0
  3 91  1  0  0  0
  4  5  1  0  0  0
  4 92  1  0  0  0
  4 93  1  0  0  0
  5  6  1  0  0  0
  5 26  1  0  0  0
  5 94  1  0  0  0
  6 25  1  0  0  0
  6 95  1  0  0  0
  6 96  1  0  0  0
  7  8  2  0  0  0
  7 26  1  0  0  0
  7 29  1  0  0  0
  8  9  1  0  0  0
  8 22  1  0  0  0
  9 10  1  0  0  0
  9 27  2  0  0  0
 10 11  2  0  0  0
 10 15  1  0  0  0
 11 12  1  0  0  0
 11 97  1  0  0  0
 12 13  2  0  0  0
 12 98  1  0  0  0
 13 14  1  0  0  0
 13 31  1  0  0  0
 14 15  2  0  0  0
 14 99  1  0  0  0
 15100  1  0  0  0
 16 17  2  0  0  0
 16 21  1  0  0  0
 16 31  1  0  0  0
 17 18  1  0  0  0
 17101  1  0  0  0
 18 19  2  0  0  0
 18102  1  0  0  0
 19 20  1  0  0  0
 19 24  1  0  0  0
 20 21  2  0  0  0
 20103  1  0  0  0
 21 23  1  0  0  0
 22 28  1  0  0  0
 22 32  2  0  0  0
 26 27  1  0  0  0
 28104  1  0  0  0
 28105  1  0  0  0
 29106  1  0  0  0
 29107  1  0  0  0
 33 34  1  0  0  0
 33 66  1  0  0  0
 33 70  2  0  0  0
 34 36  1  0  0  0
 34 59  1  0  0  0
 34108  1  0  0  0
 35 44  2  0  0  0
 35 45  1  0  0  0
 35 68  1  0  0  0
 36 56  1  0  0  0
 36109  1  0  0  0
 37 39  1  0  0  0
 37 47  1  0  0  0
 37 66  1  0  0  0
 37110  1  0  0  0
 38 43  2  0  0  0
 38 46  1  0  0  0
 38 47  1  0  0  0
 39 64  1  0  0  0
 39 67  2  0  0  0
 40 52  1  0  0  0
 40 53  2  0  0  0
 40 58  1  0  0  0
 41111  1  0  0  0
 41112  1  0  0  0
 41113  1  0  0  0
 41 48  1  0  0  0
 42 43  1  0  0  0
 42 66  1  0  0  0
 42114  1  0  0  0
 42115  1  0  0  0
 43 44  1  0  0  0
 44116  1  0  0  0
 45 46  2  0  0  0
 45117  1  0  0  0
 46118  1  0  0  0
 47119  1  0  0  0
 47120  1  0  0  0
 48 56  1  0  0  0
 48 65  1  0  0  0
 48121  1  0  0  0
 49 50  1  0  0  0
 49 53  1  0  0  0
 49 64  1  0  0  0
 49122  1  0  0  0
 50 51  1  0  0  0
 50123  1  0  0  0
 50124  1  0  0  0
 51 52  1  0  0  0
 51125  1  0  0  0
 51126  1  0  0  0
 52127  1  0  0  0
 52128  1  0  0  0
 53 54  1  0  0  0
 54 55  2  0  0  0
 54129  1  0  0  0
 55 57  1  0  0  0
 55130  1  0  0  0
 56 69  2  0  0  0
 57 58  2  0  0  0
 57131  1  0  0  0
 58132  1  0  0  0
 59 60  1  0  0  0
 59 61  1  0  0  0
 59 62  1  0  0  0
 60133  1  0  0  0
 60134  1  0  0  0
 60135  1  0  0  0
 61136  1  0  0  0
 61137  1  0  0  0
 61138  1  0  0  0
 62139  1  0  0  0
 62140  1  0  0  0
 62141  1  0  0  0
 63 65  1  0  0  0
 63142  1  0  0  0
 63143  1  0  0  0
 63144  1  0  0  0
 64145  1  0  0  0
 65146  1  0  0  0
 68 81  1  0  0  0
 71 72  2  0  0  0
 71 73  1  0  0  0
 71147  1  0  0  0
 72 75  1  0  0  0
 72148  1  0  0  0
 73 76  2  0  0  0
 73149  1  0  0  0
 74 75  2  0  0  0
 74 76  1  0  0  0
 74150  1  0  0  0
 75 84  1  0  0  0
 76 85  1  0  0  0
 77 78  1  0  0  0
 77 79  1  0  0  0
 77 81  2  0  0  0
 78 83  1  0  0  0
 78 86  2  0  0  0
 79 84  1  0  0  0
 79 87  2  0  0  0
 80 82  2  0  0  0
 80151  1  0  0  0
 80152  1  0  0  0
 81153  1  0  0  0
 82 85  1  0  0  0
 82154  1  0  0  0
 83 84  1  0  0  0
 83155  1  0  0  0
 83156  1  0  0  0
M  ISO  4   1 100  68 101  81 101  85 100
M  END
> <chiral flag>
0

> <version>
0

> <s_m_source_file>
/data/baiqing/PycharmProjects/Reinvent-master-3.2/result/LINK_invent/BTK/process_docking_weight1_custom_product_contain_oxygen_bond_distance_aromatic_linkinvent_7_9_3/rearranged_h_0087.sdf

> <i_m_source_file_index>
87

> <r_mmod_Potential_Energy-OPLS-2005>
636.060974121094

> <r_mmod_Stretch_Energy-OPLS-2005>
201.108642578125

> <r_mmod_Bend_Energy-OPLS-2005>
278.526336669922

> <r_mmod_Torsional_Energy-OPLS-2005>
355.741668701172

> <r_mmod_Improper_Torsional_Energy-OPLS-2005>
6.59170913696289

> <r_mmod_Van_der_Waal_Energy-OPLS-2005>
165.056991577148

> <r_mmod_Electrostatic_Energy-OPLS-2005>
-268.855560302734

> <r_mmod_Solvation_Energy-OPLS-2005>
-224.827651977539

> <b_mmod_Minimization_Converged-OPLS-2005>
0

> <r_mmod_RMS_Derivative-OPLS-2005>
4.96275901794434

$$$$
87
                    3D
 Structure written by MMmdl.
158167  0  0  1  0            999 V2000
  -30.7356  -14.5076   20.5771 C   0  0  0  0  0  0
  -30.4053  -12.3364   19.4361 C   0  0  0  0  0  0
  -29.4884  -12.5031   18.2101 C   0  0  0  0  0  0
  -28.0123  -12.3609   18.6247 C   0  0  0  0  0  0
  -27.6495  -13.2227   19.8647 C   0  0  2  0  0  0
  -28.6928  -13.0690   20.9935 C   0  0  0  0  0  0
  -25.2529  -13.8193   20.5696 C   0  0  0  0  0  0
  -24.1801  -13.0449   20.9195 C   0  0  0  0  0  0
  -24.6380  -11.6925   20.8738 C   0  0  0  0  0  0
  -23.9056  -10.4302   21.0396 C   0  0  0  0  0  0
  -24.3606   -9.4219   21.9181 C   0  0  0  0  0  0
  -23.6284   -8.2252   22.0752 C   0  0  0  0  0  0
  -22.4270   -8.0284   21.3542 C   0  0  0  0  0  0
  -21.9903   -9.0254   20.4645 C   0  0  0  0  0  0
  -22.7225  -10.2136   20.3053 C   0  0  0  0  0  0
  -21.6852   -6.0732   22.5274 C   0  0  0  0  0  0
  -21.4017   -6.5636   23.8207 C   0  0  0  0  0  0
  -21.3664   -5.6791   24.9168 C   0  0  0  0  0  0
  -21.6044   -4.3053   24.7221 C   0  0  0  0  0  0
  -21.8819   -3.8144   23.4344 C   0  0  0  0  0  0
  -21.9194   -4.6959   22.3400 C   0  0  0  0  0  0
  -22.7823  -13.5232   21.1861 C   0  0  0  0  0  0
  -22.1661   -4.2141   21.0976 F   0  0  0  0  0  0
  -21.5632   -3.4543   25.7737 F   0  0  0  0  0  0
  -30.0137  -13.3611   20.4223 N   0  0  0  0  0  0
  -26.2961  -12.9393   20.3341 N   0  0  0  0  0  0
  -25.9314  -11.6534   20.5770 N   0  0  0  0  0  0
  -22.0472  -12.8214   22.0408 N   0  0  0  0  0  0
  -25.4237  -15.1916   20.4100 N   0  0  0  0  0  0
  -31.8866  -14.5809   20.1364 O   0  0  0  0  0  0
  -21.6648   -6.8871   21.4234 O   0  0  0  0  0  0
  -22.3509  -14.5546   20.6726 O   0  0  0  0  0  0
  -24.6173  -31.8660   23.2094 C   0  0  0  0  0  0
  -25.9057  -32.4817   23.8395 C   0  0  1  0  0  0
  -27.2322  -27.4086   20.1166 C   0  0  0  0  0  0
  -25.5915  -33.8618   24.2331 N   0  0  0  0  0  0
  -23.4082  -30.4869   21.5493 C   0  0  2  0  0  0
  -24.8567  -28.9451   20.1201 C   0  0  0  0  0  0
  -22.7432  -29.4646   22.4992 C   0  0  0  0  0  0
  -18.0281  -28.1387   22.8488 C   0  0  0  0  0  0
  -24.1485  -36.7309   23.2635 C   0  0  0  0  0  0
  -25.9374  -30.8219   21.3677 C   0  0  0  0  0  0
  -26.0153  -29.4505   20.7245 C   0  0  0  0  0  0
  -27.2084  -28.6879   20.7249 C   0  0  0  0  0  0
  -26.0629  -26.9241   19.4997 C   0  0  0  0  0  0
  -24.8754  -27.6810   19.5054 C   0  0  0  0  0  0
  -23.6202  -29.8154   20.1653 C   0  0  0  0  0  0
  -25.4102  -36.3106   24.0339 C   0  0  1  0  0  0
  -20.5870  -28.3672   23.1309 C   0  0  2  0  0  0
  -20.6778  -26.9405   22.5419 C   0  0  0  0  0  0
  -19.5753  -26.6394   21.5217 C   0  0  0  0  0  0
  -18.1931  -26.7936   22.1621 C   0  0  0  0  0  0
  -19.1529  -28.8847   23.2896 C   0  0  0  0  0  0
  -18.9454  -30.1454   23.8904 C   0  0  0  0  0  0
  -17.6453  -30.6583   24.0569 C   0  0  0  0  0  0
  -25.9038  -34.9472   23.5123 C   0  0  0  0  0  0
  -16.5348  -29.9078   23.6333 C   0  0  0  0  0  0
  -16.7268  -28.6504   23.0344 C   0  0  0  0  0  0
  -26.4479  -31.6589   25.0719 C   0  0  0  0  0  0
  -25.3747  -31.3677   26.1473 C   0  0  0  0  0  0
  -27.0316  -30.3032   24.6101 C   0  0  0  0  0  0
  -27.6075  -32.4299   25.7471 C   0  0  0  0  0  0
  -27.5590  -37.1792   24.8453 C   0  0  0  0  0  0
  -21.4157  -29.3029   22.3713 N   0  0  0  0  0  0
  -26.4284  -37.3798   23.9427 N   0  0  0  0  0  0
  -24.6725  -31.0732   22.1009 N   0  0  0  0  0  0
  -23.4182  -28.8200   23.3069 O   0  0  0  0  0  0
  -28.3786  -26.6461   20.0416 O   0  0  0  0  0  0
  -26.5597  -34.8921   22.4687 O   0  0  0  0  0  0
  -23.5356  -32.1422   23.7466 O   0  0  0  0  0  0
  -30.3080  -19.0821   22.3805 C   0  0  0  0  0  0
  -29.7847  -20.3938   22.3266 C   0  0  0  0  0  0
  -26.9934  -23.8960   21.2623 C   0  0  0  0  0  0
  -28.3840  -19.7435   20.4622 C   0  0  0  0  0  0
  -29.9029  -18.0766   21.4642 C   0  0  0  0  0  0
  -28.3255  -24.3945   21.1743 C   0  0  0  0  0  0
  -28.8390  -20.7558   21.3435 C   0  0  0  0  0  0
  -28.9072  -18.4235   20.5141 C   0  0  0  0  0  0
  -29.1476  -23.2798   21.1379 C   0  0  0  0  0  0
  -27.0537  -22.5333   21.3141 C   0  0  0  0  0  0
  -30.6842  -16.7698   21.4185 C   0  0  0  0  0  0
  -30.6414  -23.2100   21.0223 C   0  0  0  0  0  0
  -28.7311  -25.8763   21.2028 C   0  0  0  0  0  0
  -28.3722  -22.1135   21.2584 N   0  0  0  0  0  0
  -30.0864  -15.6021   21.0594 N   0  0  0  0  0  0
  -31.8722  -16.8273   21.7658 O   0  0  0  0  0  0
  -26.0343  -21.6405   21.4425 O   0  0  0  0  0  0
  -28.4719  -17.5092   19.6124 F   0  0  0  0  0  0
  -31.4507  -12.4125   19.1333 H   0  0  0  0  0  0
  -30.2943  -11.3396   19.8666 H   0  0  0  0  0  0
  -29.7359  -11.7631   17.4475 H   0  0  0  0  0  0
  -29.6520  -13.4806   17.7531 H   0  0  0  0  0  0
  -27.8296  -11.3076   18.8399 H   0  0  0  0  0  0
  -27.3623  -12.6191   17.7876 H   0  0  0  0  0  0
  -27.6746  -14.2623   19.5363 H   0  0  0  0  0  0
  -28.6798  -12.0548   21.3956 H   0  0  0  0  0  0
  -28.4558  -13.7271   21.8312 H   0  0  0  0  0  0
  -25.2748   -9.5706   22.4763 H   0  0  0  0  0  0
  -24.0001   -7.4644   22.7470 H   0  0  0  0  0  0
  -21.0840   -8.8760   19.8948 H   0  0  0  0  0  0
  -22.3670  -10.9673   19.6169 H   0  0  0  0  0  0
  -21.2007   -7.6143   23.9704 H   0  0  0  0  0  0
  -21.1487   -6.0525   25.9067 H   0  0  0  0  0  0
  -22.0595   -2.7608   23.2851 H   0  0  0  0  0  0
  -22.4087  -11.9874   22.4795 H   0  0  0  0  0  0
  -21.1086  -13.1234   22.2611 H   0  0  0  0  0  0
  -24.6555  -15.8447   20.5170 H   0  0  0  0  0  0
  -26.2652  -15.6310   20.0587 H   0  0  0  0  0  0
  -26.7138  -32.5515   23.1166 H   0  0  0  0  0  0
  -25.0095  -33.9783   25.0501 H   0  0  0  0  0  0
  -22.6994  -31.3050   21.4053 H   0  0  0  0  0  0
  -23.3764  -35.9621   23.3261 H   0  0  0  0  0  0
  -24.3597  -36.8963   22.2059 H   0  0  0  0  0  0
  -23.7200  -37.6489   23.6670 H   0  0  0  0  0  0
  -26.0496  -31.5834   20.5943 H   0  0  0  0  0  0
  -26.8265  -30.8818   21.9843 H   0  0  0  0  0  0
  -28.1065  -29.0781   21.1829 H   0  0  0  0  0  0
  -26.0743  -25.9567   19.0170 H   0  0  0  0  0  0
  -23.9869  -27.2877   19.0330 H   0  0  0  0  0  0
  -23.7327  -30.5875   19.4036 H   0  0  0  0  0  0
  -22.7432  -29.2362   19.8685 H   0  0  0  0  0  0
  -25.1268  -36.1978   25.0830 H   0  0  0  0  0  0
  -20.9957  -28.3238   24.1430 H   0  0  0  0  0  0
  -20.5700  -26.2274   23.3606 H   0  0  0  0  0  0
  -21.6648  -26.7460   22.1196 H   0  0  0  0  0  0
  -19.6919  -25.6309   21.1237 H   0  0  0  0  0  0
  -19.6695  -27.3216   20.6753 H   0  0  0  0  0  0
  -17.4205  -26.6700   21.4013 H   0  0  0  0  0  0
  -18.0310  -26.0068   22.9002 H   0  0  0  0  0  0
  -19.7930  -30.7282   24.2272 H   0  0  0  0  0  0
  -17.4997  -31.6268   24.5168 H   0  0  0  0  0  0
  -15.5341  -30.2979   23.7651 H   0  0  0  0  0  0
  -15.8678  -28.0828   22.7038 H   0  0  0  0  0  0
  -24.5940  -30.7008   25.7799 H   0  0  0  0  0  0
  -24.8919  -32.2814   26.4946 H   0  0  0  0  0  0
  -25.8113  -30.8831   27.0217 H   0  0  0  0  0  0
  -26.2857  -29.6782   24.1179 H   0  0  0  0  0  0
  -27.4107  -29.7281   25.4561 H   0  0  0  0  0  0
  -27.8683  -30.4354   23.9239 H   0  0  0  0  0  0
  -27.2735  -33.3607   26.2067 H   0  0  0  0  0  0
  -28.3874  -32.6844   25.0281 H   0  0  0  0  0  0
  -28.0756  -31.8405   26.5361 H   0  0  0  0  0  0
  -28.2562  -38.0139   24.7587 H   0  0  0  0  0  0
  -28.1136  -36.2677   24.6169 H   0  0  0  0  0  0
  -27.2322  -37.1304   25.8856 H   0  0  0  0  0  0
  -20.9342  -29.8718   21.6890 H   0  0  0  0  0  0
  -26.0172  -38.2866   24.1489 H   0  0  0  0  0  0
  -31.0745  -18.8649   23.1115 H   0  0  0  0  0  0
  -30.1386  -21.1355   23.0283 H   0  0  0  0  0  0
  -26.0925  -24.4917   21.3184 H   0  0  0  0  0  0
  -27.6417  -19.9861   19.7158 H   0  0  0  0  0  0
  -31.0392  -24.0854   20.5104 H   0  0  0  0  0  0
  -30.9599  -22.3373   20.4495 H   0  0  0  0  0  0
  -31.1097  -23.1584   22.0058 H   0  0  0  0  0  0
  -29.8134  -25.9413   21.3161 H   0  0  0  0  0  0
  -28.3198  -26.3318   22.1048 H   0  0  0  0  0  0
  -29.0813  -15.5755   21.0724 H   0  0  0  0  0  0
  -25.2261  -22.1365   21.5269 H   0  0  0  0  0  0
  1 25  1  0  0  0
  1 30  2  0  0  0
  1 85  1  0  0  0
  2  3  1  0  0  0
  2 25  1  0  0  0
  2 89  1  0  0  0
  2 90  1  0  0  0
  3  4  1  0  0  0
  3 91  1  0  0  0
  3 92  1  0  0  0
  4  5  1  0  0  0
  4 93  1  0  0  0
  4 94  1  0  0  0
  5  6  1  0  0  0
  5 26  1  0  0  0
  5 95  1  0  0  0
  6 25  1  0  0  0
  6 96  1  0  0  0
  6 97  1  0  0  0
  7  8  2  0  0  0
  7 26  1  0  0  0
  7 29  1  0  0  0
  8  9  1  0  0  0
  8 22  1  0  0  0
  9 10  1  0  0  0
  9 27  2  0  0  0
 10 11  2  0  0  0
 10 15  1  0  0  0
 11 12  1  0  0  0
 11 98  1  0  0  0
 12 13  2  0  0  0
 12 99  1  0  0  0
 13 14  1  0  0  0
 13 31  1  0  0  0
 14 15  2  0  0  0
 14100  1  0  0  0
 15101  1  0  0  0
 16 17  2  0  0  0
 16 21  1  0  0  0
 16 31  1  0  0  0
 17 18  1  0  0  0
 17102  1  0  0  0
 18 19  2  0  0  0
 18103  1  0  0  0
 19 20  1  0  0  0
 19 24  1  0  0  0
 20 21  2  0  0  0
 20104  1  0  0  0
 21 23  1  0  0  0
 22 28  1  0  0  0
 22 32  2  0  0  0
 26 27  1  0  0  0
 28105  1  0  0  0
 28106  1  0  0  0
 29107  1  0  0  0
 29108  1  0  0  0
 33 34  1  0  0  0
 33 66  1  0  0  0
 33 70  2  0  0  0
 34 36  1  0  0  0
 34 59  1  0  0  0
 34109  1  0  0  0
 35 44  2  0  0  0
 35 45  1  0  0  0
 35 68  1  0  0  0
 36 56  1  0  0  0
 36110  1  0  0  0
 37 39  1  0  0  0
 37 47  1  0  0  0
 37 66  1  0  0  0
 37111  1  0  0  0
 38 43  2  0  0  0
 38 46  1  0  0  0
 38 47  1  0  0  0
 39 64  1  0  0  0
 39 67  2  0  0  0
 40 52  1  0  0  0
 40 53  2  0  0  0
 40 58  1  0  0  0
 41112  1  0  0  0
 41113  1  0  0  0
 41114  1  0  0  0
 41 48  1  0  0  0
 42 43  1  0  0  0
 42 66  1  0  0  0
 42115  1  0  0  0
 42116  1  0  0  0
 43 44  1  0  0  0
 44117  1  0  0  0
 45 46  2  0  0  0
 45118  1  0  0  0
 46119  1  0  0  0
 47120  1  0  0  0
 47121  1  0  0  0
 48 56  1  0  0  0
 48 65  1  0  0  0
 48122  1  0  0  0
 49 50  1  0  0  0
 49 53  1  0  0  0
 49 64  1  0  0  0
 49123  1  0  0  0
 50 51  1  0  0  0
 50124  1  0  0  0
 50125  1  0  0  0
 51 52  1  0  0  0
 51126  1  0  0  0
 51127  1  0  0  0
 52128  1  0  0  0
 52129  1  0  0  0
 53 54  1  0  0  0
 54 55  2  0  0  0
 54130  1  0  0  0
 55 57  1  0  0  0
 55131  1  0  0  0
 56 69  2  0  0  0
 57 58  2  0  0  0
 57132  1  0  0  0
 58133  1  0  0  0
 59 60  1  0  0  0
 59 61  1  0  0  0
 59 62  1  0  0  0
 60134  1  0  0  0
 60135  1  0  0  0
 60136  1  0  0  0
 61137  1  0  0  0
 61138  1  0  0  0
 61139  1  0  0  0
 62140  1  0  0  0
 62141  1  0  0  0
 62142  1  0  0  0
 63 65  1  0  0  0
 63143  1  0  0  0
 63144  1  0  0  0
 63145  1  0  0  0
 64146  1  0  0  0
 65147  1  0  0  0
 68 83  1  0  0  0
 71 72  2  0  0  0
 71 75  1  0  0  0
 71148  1  0  0  0
 72 77  1  0  0  0
 72149  1  0  0  0
 73 76  1  0  0  0
 73 80  2  0  0  0
 73150  1  0  0  0
 74 77  2  0  0  0
 74 78  1  0  0  0
 74151  1  0  0  0
 75 78  2  0  0  0
 75 81  1  0  0  0
 76 79  2  0  0  0
 76 83  1  0  0  0
 77 84  1  0  0  0
 78 88  1  0  0  0
 79 82  1  0  0  0
 79 84  1  0  0  0
 80 84  1  0  0  0
 80 87  1  0  0  0
 81 85  1  0  0  0
 81 86  2  0  0  0
 82152  1  0  0  0
 82153  1  0  0  0
 82154  1  0  0  0
 83155  1  0  0  0
 83156  1  0  0  0
 85157  1  0  0  0
 87158  1  0  0  0
M  ISO  4   1 100  68 101  83 101  85 100
M  END
> <chiral flag>
0

> <version>
0

> <s_m_source_file>
/data/baiqing/PycharmProjects/Reinvent-master-3.2/result/LINK_invent/BTK/process_docking_weight1_custom_product_contain_oxygen_bond_distance_aromatic_linkinvent_7_9_3/rearranged_h_0087.sdf

> <i_m_source_file_index>
88

> <r_mmod_Potential_Energy-OPLS-2005>
-56.4508171081543

> <r_mmod_Stretch_Energy-OPLS-2005>
45.1342430114746

> <r_mmod_Bend_Energy-OPLS-2005>
106.769195556641

> <r_mmod_Torsional_Energy-OPLS-2005>
273.410614013672

> <r_mmod_Improper_Torsional_Energy-OPLS-2005>
5.24396657943726

> <r_mmod_Van_der_Waal_Energy-OPLS-2005>
148.639663696289

> <r_mmod_Electrostatic_Energy-OPLS-2005>
-434.676086425781

> <r_mmod_Solvation_Energy-OPLS-2005>
-220.846603393555

> <b_mmod_Minimization_Converged-OPLS-2005>
0

> <r_mmod_RMS_Derivative-OPLS-2005>
1.61986184120178

$$$$
88
                    3D
 Structure written by MMmdl.
155164  0  0  1  0            999 V2000
  -30.6183  -14.6457   20.4987 C   0  0  0  0  0  0
  -30.4426  -12.3972   19.4480 C   0  0  0  0  0  0
  -29.5082  -12.5068   18.2220 C   0  0  0  0  0  0
  -28.0312  -12.3426   18.6356 C   0  0  0  0  0  0
  -27.6530  -13.2157   19.8614 C   0  0  2  0  0  0
  -28.7000  -13.0725   20.9896 C   0  0  0  0  0  0
  -25.2566  -13.8174   20.5684 C   0  0  0  0  0  0
  -24.1832  -13.0436   20.9183 C   0  0  0  0  0  0
  -24.6399  -11.6907   20.8734 C   0  0  0  0  0  0
  -23.9066  -10.4292   21.0403 C   0  0  0  0  0  0
  -24.3617   -9.4208   21.9182 C   0  0  0  0  0  0
  -23.6291   -8.2243   22.0754 C   0  0  0  0  0  0
  -22.4274   -8.0281   21.3544 C   0  0  0  0  0  0
  -21.9909   -9.0255   20.4646 C   0  0  0  0  0  0
  -22.7238  -10.2134   20.3054 C   0  0  0  0  0  0
  -21.6853   -6.0735   22.5279 C   0  0  0  0  0  0
  -21.4014   -6.5639   23.8212 C   0  0  0  0  0  0
  -21.3659   -5.6792   24.9174 C   0  0  0  0  0  0
  -21.6044   -4.3055   24.7225 C   0  0  0  0  0  0
  -21.8819   -3.8147   23.4346 C   0  0  0  0  0  0
  -21.9193   -4.6963   22.3402 C   0  0  0  0  0  0
  -22.7854  -13.5229   21.1850 C   0  0  0  0  0  0
  -22.1661   -4.2149   21.0980 F   0  0  0  0  0  0
  -21.5629   -3.4539   25.7738 F   0  0  0  0  0  0
  -30.0143  -13.4176   20.4237 N   0  0  0  0  0  0
  -26.2993  -12.9351   20.3315 N   0  0  0  0  0  0
  -25.9328  -11.6505   20.5752 N   0  0  0  0  0  0
  -22.0499  -12.8221   22.0410 N   0  0  0  0  0  0
  -25.4249  -15.1901   20.4125 N   0  0  0  0  0  0
  -31.7912  -14.8110   20.1504 O   0  0  0  0  0  0
  -21.6639   -6.8878   21.4240 O   0  0  0  0  0  0
  -22.3531  -14.5534   20.6701 O   0  0  0  0  0  0
  -24.6276  -31.8604   23.2039 C   0  0  0  0  0  0
  -25.9121  -32.4783   23.8365 C   0  0  1  0  0  0
  -27.2199  -27.3116   20.1112 C   0  0  0  0  0  0
  -25.5934  -33.8583   24.2288 N   0  0  0  0  0  0
  -23.4208  -30.4866   21.5476 C   0  0  2  0  0  0
  -24.8657  -28.9454   20.1132 C   0  0  0  0  0  0
  -22.7481  -29.4632   22.4939 C   0  0  0  0  0  0
  -18.0289  -28.1385   22.8487 C   0  0  0  0  0  0
  -24.1490  -36.7294   23.2638 C   0  0  0  0  0  0
  -25.9649  -30.7890   21.3772 C   0  0  0  0  0  0
  -26.0382  -29.4172   20.7166 C   0  0  0  0  0  0
  -27.2193  -28.6137   20.7048 C   0  0  0  0  0  0
  -26.0196  -26.9014   19.4820 C   0  0  0  0  0  0
  -24.8591  -27.6928   19.4874 C   0  0  0  0  0  0
  -23.6354  -29.8266   20.1621 C   0  0  0  0  0  0
  -25.4114  -36.3086   24.0329 C   0  0  1  0  0  0
  -20.5890  -28.3692   23.1280 C   0  0  2  0  0  0
  -20.6778  -26.9415   22.5407 C   0  0  0  0  0  0
  -19.5752  -26.6386   21.5211 C   0  0  0  0  0  0
  -18.1933  -26.7928   22.1626 C   0  0  0  0  0  0
  -19.1541  -28.8855   23.2879 C   0  0  0  0  0  0
  -18.9463  -30.1456   23.8897 C   0  0  0  0  0  0
  -17.6462  -30.6587   24.0563 C   0  0  0  0  0  0
  -25.9052  -34.9454   23.5107 C   0  0  0  0  0  0
  -16.5354  -29.9085   23.6330 C   0  0  0  0  0  0
  -16.7275  -28.6503   23.0353 C   0  0  0  0  0  0
  -26.4500  -31.6589   25.0734 C   0  0  0  0  0  0
  -25.3731  -31.3726   26.1458 C   0  0  0  0  0  0
  -27.0342  -30.3012   24.6191 C   0  0  0  0  0  0
  -27.6058  -32.4323   25.7507 C   0  0  0  0  0  0
  -27.5579  -37.1804   24.8465 C   0  0  0  0  0  0
  -21.4194  -29.3048   22.3677 N   0  0  0  0  0  0
  -26.4293  -37.3780   23.9408 N   0  0  0  0  0  0
  -24.6901  -31.0614   22.0996 N   0  0  0  0  0  0
  -23.4204  -28.8163   23.3013 O   0  0  0  0  0  0
  -28.3303  -26.4463   20.1488 O   0  0  0  0  0  0
  -26.5617  -34.8919   22.4671 O   0  0  0  0  0  0
  -23.5437  -32.1405   23.7363 O   0  0  0  0  0  0
  -31.0485  -19.3222   20.9190 C   0  0  0  0  0  0
  -31.0462  -17.8963   21.0026 C   0  0  0  0  0  0
  -28.8045  -19.3059   20.0777 C   0  0  0  0  0  0
  -29.9391  -20.0915   20.4362 C   0  0  0  0  0  0
  -29.9096  -17.1368   20.6337 C   0  0  0  0  0  0
  -28.7868  -17.8817   20.1867 C   0  0  0  0  0  0
  -30.4837  -24.3530   19.9726 C   0  0  0  0  0  0
  -31.2963  -22.0942   19.9948 C   0  0  0  0  0  0
  -29.2199  -23.9531   20.2115 C   0  0  0  0  0  0
  -31.5648  -23.4038   19.8619 C   0  0  0  0  0  0
  -28.9472  -22.4773   20.4096 C   0  0  0  0  0  0
  -28.0431  -24.9857   20.1984 C   0  0  0  0  0  0
  -30.0098  -21.5754   20.2788 N   0  0  0  0  0  0
  -29.7809  -15.6892   20.7824 N   0  0  0  0  0  0
  -27.8117  -22.0817   20.6946 O   0  0  0  0  0  0
  -32.8081  -23.8111   19.5846 O   0  0  0  0  0  0
  -27.6611  -17.2074   19.8456 F   0  0  0  0  0  0
  -31.4822  -12.5308   19.1436 H   0  0  0  0  0  0
  -30.3849  -11.4018   19.8911 H   0  0  0  0  0  0
  -29.7730  -11.7546   17.4777 H   0  0  0  0  0  0
  -29.6470  -13.4756   17.7393 H   0  0  0  0  0  0
  -27.8703  -11.2897   18.8699 H   0  0  0  0  0  0
  -27.3755  -12.5692   17.7941 H   0  0  0  0  0  0
  -27.6675  -14.2496   19.5162 H   0  0  0  0  0  0
  -28.7136  -12.0512   21.3730 H   0  0  0  0  0  0
  -28.4470  -13.7058   21.8415 H   0  0  0  0  0  0
  -25.2762   -9.5684   22.4755 H   0  0  0  0  0  0
  -24.0001   -7.4635   22.7473 H   0  0  0  0  0  0
  -21.0840   -8.8774   19.8953 H   0  0  0  0  0  0
  -22.3697  -10.9672   19.6162 H   0  0  0  0  0  0
  -21.2007   -7.6148   23.9715 H   0  0  0  0  0  0
  -21.1481   -6.0523   25.9077 H   0  0  0  0  0  0
  -22.0599   -2.7609   23.2847 H   0  0  0  0  0  0
  -22.4118  -11.9883   22.4796 H   0  0  0  0  0  0
  -21.1118  -13.1248   22.2620 H   0  0  0  0  0  0
  -24.6532  -15.8364   20.5314 H   0  0  0  0  0  0
  -26.2717  -15.6519   20.0993 H   0  0  0  0  0  0
  -26.7189  -32.5449   23.1113 H   0  0  0  0  0  0
  -25.0084  -33.9729   25.0435 H   0  0  0  0  0  0
  -22.7149  -31.3079   21.4068 H   0  0  0  0  0  0
  -23.3752  -35.9627   23.3304 H   0  0  0  0  0  0
  -24.3581  -36.8911   22.2052 H   0  0  0  0  0  0
  -23.7243  -37.6498   23.6656 H   0  0  0  0  0  0
  -26.0991  -31.5536   20.6108 H   0  0  0  0  0  0
  -26.8445  -30.8348   22.0076 H   0  0  0  0  0  0
  -28.1183  -28.9725   21.1862 H   0  0  0  0  0  0
  -25.9321  -25.9570   18.9708 H   0  0  0  0  0  0
  -23.9622  -27.3272   19.0064 H   0  0  0  0  0  0
  -23.7571  -30.6052   19.4082 H   0  0  0  0  0  0
  -22.7545  -29.2587   19.8570 H   0  0  0  0  0  0
  -25.1295  -36.1940   25.0822 H   0  0  0  0  0  0
  -20.9983  -28.3264   24.1400 H   0  0  0  0  0  0
  -20.5683  -26.2301   23.3607 H   0  0  0  0  0  0
  -21.6646  -26.7447   22.1197 H   0  0  0  0  0  0
  -19.6915  -25.6297   21.1240 H   0  0  0  0  0  0
  -19.6687  -27.3197   20.6741 H   0  0  0  0  0  0
  -17.4202  -26.6674   21.4030 H   0  0  0  0  0  0
  -18.0337  -26.0070   22.9023 H   0  0  0  0  0  0
  -19.7938  -30.7273   24.2267 H   0  0  0  0  0  0
  -17.5017  -31.6268   24.5165 H   0  0  0  0  0  0
  -15.5354  -30.2987   23.7655 H   0  0  0  0  0  0
  -15.8675  -28.0821   22.7069 H   0  0  0  0  0  0
  -24.5911  -30.7070   25.7787 H   0  0  0  0  0  0
  -24.8917  -32.2891   26.4879 H   0  0  0  0  0  0
  -25.8056  -30.8909   27.0236 H   0  0  0  0  0  0
  -26.2919  -29.6765   24.1210 H   0  0  0  0  0  0
  -27.4032  -29.7265   25.4697 H   0  0  0  0  0  0
  -27.8794  -30.4296   23.9424 H   0  0  0  0  0  0
  -27.2669  -33.3624   26.2082 H   0  0  0  0  0  0
  -28.3871  -32.6882   25.0338 H   0  0  0  0  0  0
  -28.0723  -31.8449   26.5426 H   0  0  0  0  0  0
  -28.2599  -38.0099   24.7510 H   0  0  0  0  0  0
  -28.1074  -36.2631   24.6295 H   0  0  0  0  0  0
  -27.2297  -37.1458   25.8869 H   0  0  0  0  0  0
  -20.9370  -29.8780   21.6896 H   0  0  0  0  0  0
  -26.0175  -38.2856   24.1405 H   0  0  0  0  0  0
  -31.9471  -19.8192   21.2547 H   0  0  0  0  0  0
  -31.9232  -17.3926   21.3837 H   0  0  0  0  0  0
  -27.9168  -19.7855   19.6942 H   0  0  0  0  0  0
  -30.6749  -25.4041   19.8055 H   0  0  0  0  0  0
  -32.0742  -21.3616   19.8514 H   0  0  0  0  0  0
  -27.4089  -24.7916   21.0650 H   0  0  0  0  0  0
  -27.4796  -24.6876   19.3171 H   0  0  0  0  0  0
  -28.8301  -15.3868   20.9270 H   0  0  0  0  0  0
  -32.7950  -24.7573   19.5001 H   0  0  0  0  0  0
  1 25  1  0  0  0
  1 30  2  0  0  0
  1 84  1  0  0  0
  2  3  1  0  0  0
  2 25  1  0  0  0
  2 88  1  0  0  0
  2 89  1  0  0  0
  3  4  1  0  0  0
  3 90  1  0  0  0
  3 91  1  0  0  0
  4  5  1  0  0  0
  4 92  1  0  0  0
  4 93  1  0  0  0
  5  6  1  0  0  0
  5 26  1  0  0  0
  5 94  1  0  0  0
  6 25  1  0  0  0
  6 95  1  0  0  0
  6 96  1  0  0  0
  7  8  2  0  0  0
  7 26  1  0  0  0
  7 29  1  0  0  0
  8  9  1  0  0  0
  8 22  1  0  0  0
  9 10  1  0  0  0
  9 27  2  0  0  0
 10 11  2  0  0  0
 10 15  1  0  0  0
 11 12  1  0  0  0
 11 97  1  0  0  0
 12 13  2  0  0  0
 12 98  1  0  0  0
 13 14  1  0  0  0
 13 31  1  0  0  0
 14 15  2  0  0  0
 14 99  1  0  0  0
 15100  1  0  0  0
 16 17  2  0  0  0
 16 21  1  0  0  0
 16 31  1  0  0  0
 17 18  1  0  0  0
 17101  1  0  0  0
 18 19  2  0  0  0
 18102  1  0  0  0
 19 20  1  0  0  0
 19 24  1  0  0  0
 20 21  2  0  0  0
 20103  1  0  0  0
 21 23  1  0  0  0
 22 28  1  0  0  0
 22 32  2  0  0  0
 26 27  1  0  0  0
 28104  1  0  0  0
 28105  1  0  0  0
 29106  1  0  0  0
 29107  1  0  0  0
 33 34  1  0  0  0
 33 66  1  0  0  0
 33 70  2  0  0  0
 34 36  1  0  0  0
 34 59  1  0  0  0
 34108  1  0  0  0
 35 44  2  0  0  0
 35 45  1  0  0  0
 35 68  1  0  0  0
 36 56  1  0  0  0
 36109  1  0  0  0
 37 39  1  0  0  0
 37 47  1  0  0  0
 37 66  1  0  0  0
 37110  1  0  0  0
 38 43  2  0  0  0
 38 46  1  0  0  0
 38 47  1  0  0  0
 39 64  1  0  0  0
 39 67  2  0  0  0
 40 52  1  0  0  0
 40 53  2  0  0  0
 40 58  1  0  0  0
 41111  1  0  0  0
 41112  1  0  0  0
 41113  1  0  0  0
 41 48  1  0  0  0
 42 43  1  0  0  0
 42 66  1  0  0  0
 42114  1  0  0  0
 42115  1  0  0  0
 43 44  1  0  0  0
 44116  1  0  0  0
 45 46  2  0  0  0
 45117  1  0  0  0
 46118  1  0  0  0
 47119  1  0  0  0
 47120  1  0  0  0
 48 56  1  0  0  0
 48 65  1  0  0  0
 48121  1  0  0  0
 49 50  1  0  0  0
 49 53  1  0  0  0
 49 64  1  0  0  0
 49122  1  0  0  0
 50 51  1  0  0  0
 50123  1  0  0  0
 50124  1  0  0  0
 51 52  1  0  0  0
 51125  1  0  0  0
 51126  1  0  0  0
 52127  1  0  0  0
 52128  1  0  0  0
 53 54  1  0  0  0
 54 55  2  0  0  0
 54129  1  0  0  0
 55 57  1  0  0  0
 55130  1  0  0  0
 56 69  2  0  0  0
 57 58  2  0  0  0
 57131  1  0  0  0
 58132  1  0  0  0
 59 60  1  0  0  0
 59 61  1  0  0  0
 59 62  1  0  0  0
 60133  1  0  0  0
 60134  1  0  0  0
 60135  1  0  0  0
 61136  1  0  0  0
 61137  1  0  0  0
 61138  1  0  0  0
 62139  1  0  0  0
 62140  1  0  0  0
 62141  1  0  0  0
 63 65  1  0  0  0
 63142  1  0  0  0
 63143  1  0  0  0
 63144  1  0  0  0
 64145  1  0  0  0
 65146  1  0  0  0
 68 82  1  0  0  0
 71 72  2  0  0  0
 71 74  1  0  0  0
 71147  1  0  0  0
 72 75  1  0  0  0
 72148  1  0  0  0
 73 74  2  0  0  0
 73 76  1  0  0  0
 73149  1  0  0  0
 74 83  1  0  0  0
 75 76  2  0  0  0
 75 84  1  0  0  0
 76 87  1  0  0  0
 77 79  2  0  0  0
 77 80  1  0  0  0
 77150  1  0  0  0
 78 80  2  0  0  0
 78 83  1  0  0  0
 78151  1  0  0  0
 79 81  1  0  0  0
 79 82  1  0  0  0
 80 86  1  0  0  0
 81 83  1  0  0  0
 81 85  2  0  0  0
 82152  1  0  0  0
 82153  1  0  0  0
 84154  1  0  0  0
 86155  1  0  0  0
M  ISO  4   1 100  68 101  82 101  84 100
M  END
> <chiral flag>
0

> <version>
0

> <s_m_source_file>
/data/baiqing/PycharmProjects/Reinvent-master-3.2/result/LINK_invent/BTK/process_docking_weight1_custom_product_contain_oxygen_bond_distance_aromatic_linkinvent_7_9_3/rearranged_h_0087.sdf

> <i_m_source_file_index>
89

> <r_mmod_Potential_Energy-OPLS-2005>
95.4790267944336

> <r_mmod_Stretch_Energy-OPLS-2005>
97.2312088012695

> <r_mmod_Bend_Energy-OPLS-2005>
140.33952331543

> <r_mmod_Torsional_Energy-OPLS-2005>
242.992645263672

> <r_mmod_Improper_Torsional_Energy-OPLS-2005>
5.53601169586182

> <r_mmod_Van_der_Waal_Energy-OPLS-2005>
178.354141235352

> <r_mmod_Electrostatic_Energy-OPLS-2005>
-403.184967041016

> <r_mmod_Solvation_Energy-OPLS-2005>
-217.814758300781

> <b_mmod_Minimization_Converged-OPLS-2005>
0

> <r_mmod_RMS_Derivative-OPLS-2005>
0.0751201957464218

$$$$
89
                    3D
 Structure written by MMmdl.
159167  0  0  1  0            999 V2000
  -30.6206  -14.7889   20.4666 C   0  0  0  0  0  0
  -30.4305  -12.4811   19.5274 C   0  0  0  0  0  0
  -29.5259  -12.5105   18.2749 C   0  0  0  0  0  0
  -28.0546  -12.3117   18.6829 C   0  0  0  0  0  0
  -27.6400  -13.2412   19.8560 C   0  0  2  0  0  0
  -28.6727  -13.2193   21.0051 C   0  0  0  0  0  0
  -25.2526  -13.8254   20.5709 C   0  0  0  0  0  0
  -24.1800  -13.0456   20.9122 C   0  0  0  0  0  0
  -24.6408  -11.6951   20.8716 C   0  0  0  0  0  0
  -23.9094  -10.4319   21.0372 C   0  0  0  0  0  0
  -24.3646   -9.4234   21.9161 C   0  0  0  0  0  0
  -23.6305   -8.2275   22.0760 C   0  0  0  0  0  0
  -22.4300   -8.0291   21.3540 C   0  0  0  0  0  0
  -21.9930   -9.0274   20.4654 C   0  0  0  0  0  0
  -22.7265  -10.2143   20.3035 C   0  0  0  0  0  0
  -21.6877   -6.0756   22.5268 C   0  0  0  0  0  0
  -21.4023   -6.5652   23.8191 C   0  0  0  0  0  0
  -21.3647   -5.6810   24.9167 C   0  0  0  0  0  0
  -21.6042   -4.3080   24.7236 C   0  0  0  0  0  0
  -21.8804   -3.8165   23.4361 C   0  0  0  0  0  0
  -21.9200   -4.6981   22.3401 C   0  0  0  0  0  0
  -22.7835  -13.5210   21.1788 C   0  0  0  0  0  0
  -22.1668   -4.2166   21.0989 F   0  0  0  0  0  0
  -21.5641   -3.4553   25.7749 F   0  0  0  0  0  0
  -29.9798  -13.5659   20.4361 N   0  0  0  0  0  0
  -26.2926  -12.9457   20.3297 N   0  0  0  0  0  0
  -25.9324  -11.6603   20.5742 N   0  0  0  0  0  0
  -22.0520  -12.8171   22.0367 N   0  0  0  0  0  0
  -25.4268  -15.1984   20.4227 N   0  0  0  0  0  0
  -31.8033  -14.8424   20.1216 O   0  0  0  0  0  0
  -21.6655   -6.8912   21.4227 O   0  0  0  0  0  0
  -22.3527  -14.5537   20.6657 O   0  0  0  0  0  0
  -24.6275  -31.8585   23.1953 C   0  0  0  0  0  0
  -25.9075  -32.4796   23.8348 C   0  0  1  0  0  0
  -27.2627  -27.2881   20.1306 C   0  0  0  0  0  0
  -25.5849  -33.8587   24.2264 N   0  0  0  0  0  0
  -23.4273  -30.4749   21.5331 C   0  0  2  0  0  0
  -24.8871  -28.9197   20.1119 C   0  0  0  0  0  0
  -22.7495  -29.4649   22.4894 C   0  0  0  0  0  0
  -18.0313  -28.1392   22.8546 C   0  0  0  0  0  0
  -24.1496  -36.7268   23.2652 C   0  0  0  0  0  0
  -25.9667  -30.7877   21.3682 C   0  0  0  0  0  0
  -26.0514  -29.4063   20.7174 C   0  0  0  0  0  0
  -27.2324  -28.5990   20.7229 C   0  0  0  0  0  0
  -26.0692  -26.8621   19.4983 C   0  0  0  0  0  0
  -24.9012  -27.6567   19.4970 C   0  0  0  0  0  0
  -23.6443  -29.7891   20.1582 C   0  0  0  0  0  0
  -25.4125  -36.3078   24.0350 C   0  0  1  0  0  0
  -20.5934  -28.3746   23.1337 C   0  0  2  0  0  0
  -20.6826  -26.9439   22.5522 C   0  0  0  0  0  0
  -19.5842  -26.6472   21.5281 C   0  0  0  0  0  0
  -18.2041  -26.7954   22.1684 C   0  0  0  0  0  0
  -19.1563  -28.8902   23.2908 C   0  0  0  0  0  0
  -18.9443  -30.1518   23.8891 C   0  0  0  0  0  0
  -17.6427  -30.6615   24.0501 C   0  0  0  0  0  0
  -25.9048  -34.9448   23.5124 C   0  0  0  0  0  0
  -16.5336  -29.9068   23.6323 C   0  0  0  0  0  0
  -16.7280  -28.6476   23.0372 C   0  0  0  0  0  0
  -26.4462  -31.6585   25.0714 C   0  0  0  0  0  0
  -25.3685  -31.3687   26.1429 C   0  0  0  0  0  0
  -27.0324  -30.3022   24.6166 C   0  0  0  0  0  0
  -27.6084  -32.4296   25.7437 C   0  0  0  0  0  0
  -27.5589  -37.1811   24.8470 C   0  0  0  0  0  0
  -21.4199  -29.3043   22.3628 N   0  0  0  0  0  0
  -26.4299  -37.3782   23.9400 N   0  0  0  0  0  0
  -24.6921  -31.0584   22.0882 N   0  0  0  0  0  0
  -23.4215  -28.8182   23.2988 O   0  0  0  0  0  0
  -28.4184  -26.4696   20.2119 O   0  0  0  0  0  0
  -26.5625  -34.8926   22.4702 O   0  0  0  0  0  0
  -23.5435  -32.1314   23.7280 O   0  0  0  0  0  0
  -30.4423  -19.9634   19.0064 C   0  0  0  0  0  0
  -29.6159  -18.6003   20.8461 C   0  0  0  0  0  0
  -30.8600  -17.5454   19.0556 C   0  0  0  0  0  0
  -29.7618  -19.9309   20.2407 C   0  0  0  0  0  0
  -31.0244  -18.8099   18.4516 C   0  0  0  0  0  0
  -30.1283  -17.3632   20.2507 C   0  0  0  0  0  0
  -30.8718  -22.1002   22.7035 C   0  0  0  0  0  0
  -29.7767  -21.4376   22.2824 C   0  0  0  0  0  0
  -29.4393  -21.3391   20.8517 C   0  0  0  0  0  0
  -27.5494  -23.8311   21.7047 C   0  0  0  0  0  0
  -28.5382  -25.0482   19.7370 C   0  0  0  0  0  0
  -28.7771  -23.8336   20.7809 C   0  0  2  0  0  0
  -29.0290  -22.4254   20.1942 N   0  0  0  0  0  0
  -31.7872  -18.9235   17.2910 N   0  0  0  0  0  0
  -29.9072  -15.9619   20.7504 N   0  0  0  0  0  0
  -31.4782  -12.5866   19.2410 H   0  0  0  0  0  0
  -30.3613  -11.5193   20.0350 H   0  0  0  0  0  0
  -29.8294  -11.7335   17.5743 H   0  0  0  0  0  0
  -29.6509  -13.4656   17.7582 H   0  0  0  0  0  0
  -27.9435  -11.2709   18.9885 H   0  0  0  0  0  0
  -27.3938  -12.4523   17.8301 H   0  0  0  0  0  0
  -27.6280  -14.2517   19.4476 H   0  0  0  0  0  0
  -28.7058  -12.2354   21.4768 H   0  0  0  0  0  0
  -28.3868  -13.9215   21.7880 H   0  0  0  0  0  0
  -25.2801   -9.5729   22.4734 H   0  0  0  0  0  0
  -24.0016   -7.4690   22.7497 H   0  0  0  0  0  0
  -21.0854   -8.8790   19.8985 H   0  0  0  0  0  0
  -22.3705  -10.9683   19.6156 H   0  0  0  0  0  0
  -21.2003   -7.6160   23.9697 H   0  0  0  0  0  0
  -21.1476   -6.0559   25.9071 H   0  0  0  0  0  0
  -22.0584   -2.7630   23.2853 H   0  0  0  0  0  0
  -22.4181  -11.9840   22.4744 H   0  0  0  0  0  0
  -21.1161  -13.1180   22.2688 H   0  0  0  0  0  0
  -24.6676  -15.8658   20.5222 H   0  0  0  0  0  0
  -26.3056  -15.6333   20.1660 H   0  0  0  0  0  0
  -26.7147  -32.5501   23.1130 H   0  0  0  0  0  0
  -24.9963  -33.9731   25.0373 H   0  0  0  0  0  0
  -22.7228  -31.2917   21.3810 H   0  0  0  0  0  0
  -23.3778  -35.9580   23.3306 H   0  0  0  0  0  0
  -24.3591  -36.8880   22.2064 H   0  0  0  0  0  0
  -23.7200  -37.6474   23.6651 H   0  0  0  0  0  0
  -26.0998  -31.5515   20.6006 H   0  0  0  0  0  0
  -26.8455  -30.8495   21.9998 H   0  0  0  0  0  0
  -28.1214  -28.9692   21.2167 H   0  0  0  0  0  0
  -25.9972  -25.9044   19.0062 H   0  0  0  0  0  0
  -24.0056  -27.2768   19.0282 H   0  0  0  0  0  0
  -23.7424  -30.5482   19.3827 H   0  0  0  0  0  0
  -22.7687  -29.1985   19.8807 H   0  0  0  0  0  0
  -25.1325  -36.1970   25.0851 H   0  0  0  0  0  0
  -21.0131  -28.3385   24.1432 H   0  0  0  0  0  0
  -20.5739  -26.2398   23.3770 H   0  0  0  0  0  0
  -21.6681  -26.7459   22.1337 H   0  0  0  0  0  0
  -19.6859  -27.3355   20.6868 H   0  0  0  0  0  0
  -19.6923  -25.6378   21.1324 H   0  0  0  0  0  0
  -17.4329  -26.6640   21.4062 H   0  0  0  0  0  0
  -18.0531  -26.0087   22.9089 H   0  0  0  0  0  0
  -19.7904  -30.7360   24.2265 H   0  0  0  0  0  0
  -17.4973  -31.6312   24.5058 H   0  0  0  0  0  0
  -15.5316  -30.2911   23.7663 H   0  0  0  0  0  0
  -15.8700  -28.0740   22.7154 H   0  0  0  0  0  0
  -24.5908  -30.7009   25.7707 H   0  0  0  0  0  0
  -24.8818  -32.2818   26.4863 H   0  0  0  0  0  0
  -25.8009  -30.8858   27.0181 H   0  0  0  0  0  0
  -26.2901  -29.6766   24.1218 H   0  0  0  0  0  0
  -27.4022  -29.7349   25.4700 H   0  0  0  0  0  0
  -27.8751  -30.4332   23.9384 H   0  0  0  0  0  0
  -27.2776  -33.3603   26.2036 H   0  0  0  0  0  0
  -28.3847  -32.6798   25.0199 H   0  0  0  0  0  0
  -28.0767  -31.8365   26.5297 H   0  0  0  0  0  0
  -28.2659  -38.0081   24.7549 H   0  0  0  0  0  0
  -28.1048  -36.2622   24.6276 H   0  0  0  0  0  0
  -27.2306  -37.1435   25.8880 H   0  0  0  0  0  0
  -20.9449  -29.8501   21.6584 H   0  0  0  0  0  0
  -26.0197  -38.2879   24.1378 H   0  0  0  0  0  0
  -30.5893  -20.9193   18.5248 H   0  0  0  0  0  0
  -29.1071  -18.5293   21.7976 H   0  0  0  0  0  0
  -31.3086  -16.6917   18.5748 H   0  0  0  0  0  0
  -31.1536  -22.1400   23.7455 H   0  0  0  0  0  0
  -31.5156  -22.6143   22.0025 H   0  0  0  0  0  0
  -29.1236  -20.9128   22.9634 H   0  0  0  0  0  0
  -27.5101  -24.7712   22.2583 H   0  0  0  0  0  0
  -27.5540  -23.0191   22.4320 H   0  0  0  0  0  0
  -26.6247  -23.7714   21.1249 H   0  0  0  0  0  0
  -27.7168  -24.7727   19.0839 H   0  0  0  0  0  0
  -29.4068  -25.0669   19.0761 H   0  0  0  0  0  0
  -29.6399  -24.1280   21.3765 H   0  0  0  0  0  0
  -31.9116  -19.8087   16.8094 H   0  0  0  0  0  0
  -32.1267  -18.1113   16.7854 H   0  0  0  0  0  0
  -29.0247  -15.8100   21.2147 H   0  0  0  0  0  0
  1 25  1  0  0  0
  1 30  2  0  0  0
  1 85  1  0  0  0
  2  3  1  0  0  0
  2 25  1  0  0  0
  2 86  1  0  0  0
  2 87  1  0  0  0
  3  4  1  0  0  0
  3 88  1  0  0  0
  3 89  1  0  0  0
  4  5  1  0  0  0
  4 90  1  0  0  0
  4 91  1  0  0  0
  5  6  1  0  0  0
  5 26  1  0  0  0
  5 92  1  0  0  0
  6 25  1  0  0  0
  6 93  1  0  0  0
  6 94  1  0  0  0
  7  8  2  0  0  0
  7 26  1  0  0  0
  7 29  1  0  0  0
  8  9  1  0  0  0
  8 22  1  0  0  0
  9 10  1  0  0  0
  9 27  2  0  0  0
 10 11  2  0  0  0
 10 15  1  0  0  0
 11 12  1  0  0  0
 11 95  1  0  0  0
 12 13  2  0  0  0
 12 96  1  0  0  0
 13 14  1  0  0  0
 13 31  1  0  0  0
 14 15  2  0  0  0
 14 97  1  0  0  0
 15 98  1  0  0  0
 16 17  2  0  0  0
 16 21  1  0  0  0
 16 31  1  0  0  0
 17 18  1  0  0  0
 17 99  1  0  0  0
 18 19  2  0  0  0
 18100  1  0  0  0
 19 20  1  0  0  0
 19 24  1  0  0  0
 20 21  2  0  0  0
 20101  1  0  0  0
 21 23  1  0  0  0
 22 28  1  0  0  0
 22 32  2  0  0  0
 26 27  1  0  0  0
 28102  1  0  0  0
 28103  1  0  0  0
 29104  1  0  0  0
 29105  1  0  0  0
 33 34  1  0  0  0
 33 66  1  0  0  0
 33 70  2  0  0  0
 34 36  1  0  0  0
 34 59  1  0  0  0
 34106  1  0  0  0
 35 44  2  0  0  0
 35 45  1  0  0  0
 35 68  1  0  0  0
 36 56  1  0  0  0
 36107  1  0  0  0
 37 39  1  0  0  0
 37 47  1  0  0  0
 37 66  1  0  0  0
 37108  1  0  0  0
 38 43  2  0  0  0
 38 46  1  0  0  0
 38 47  1  0  0  0
 39 64  1  0  0  0
 39 67  2  0  0  0
 40 52  1  0  0  0
 40 53  2  0  0  0
 40 58  1  0  0  0
 41109  1  0  0  0
 41110  1  0  0  0
 41111  1  0  0  0
 41 48  1  0  0  0
 42 43  1  0  0  0
 42 66  1  0  0  0
 42112  1  0  0  0
 42113  1  0  0  0
 43 44  1  0  0  0
 44114  1  0  0  0
 45 46  2  0  0  0
 45115  1  0  0  0
 46116  1  0  0  0
 47117  1  0  0  0
 47118  1  0  0  0
 48 56  1  0  0  0
 48 65  1  0  0  0
 48119  1  0  0  0
 49 50  1  0  0  0
 49 53  1  0  0  0
 49 64  1  0  0  0
 49120  1  0  0  0
 50 51  1  0  0  0
 50121  1  0  0  0
 50122  1  0  0  0
 51 52  1  0  0  0
 51123  1  0  0  0
 51124  1  0  0  0
 52125  1  0  0  0
 52126  1  0  0  0
 53 54  1  0  0  0
 54 55  2  0  0  0
 54127  1  0  0  0
 55 57  1  0  0  0
 55128  1  0  0  0
 56 69  2  0  0  0
 57 58  2  0  0  0
 57129  1  0  0  0
 58130  1  0  0  0
 59 60  1  0  0  0
 59 61  1  0  0  0
 59 62  1  0  0  0
 60131  1  0  0  0
 60132  1  0  0  0
 60133  1  0  0  0
 61134  1  0  0  0
 61135  1  0  0  0
 61136  1  0  0  0
 62137  1  0  0  0
 62138  1  0  0  0
 62139  1  0  0  0
 63 65  1  0  0  0
 63140  1  0  0  0
 63141  1  0  0  0
 63142  1  0  0  0
 64143  1  0  0  0
 65144  1  0  0  0
 68 81  1  0  0  0
 71 74  2  0  0  0
 71 75  1  0  0  0
 71145  1  0  0  0
 72 74  1  0  0  0
 72 76  2  0  0  0
 72146  1  0  0  0
 73 75  2  0  0  0
 73 76  1  0  0  0
 73147  1  0  0  0
 74 79  1  0  0  0
 75 84  1  0  0  0
 76 85  1  0  0  0
 77 78  2  0  0  0
 77148  1  0  0  0
 77149  1  0  0  0
 78 79  1  0  0  0
 78150  1  0  0  0
 79 83  2  0  0  0
 80151  1  0  0  0
 80152  1  0  0  0
 80153  1  0  0  0
 80 82  1  0  0  0
 81 82  1  0  0  0
 81154  1  0  0  0
 81155  1  0  0  0
 82 83  1  0  0  0
 82156  1  0  0  0
 84157  1  0  0  0
 84158  1  0  0  0
 85159  1  0  0  0
M  ISO  4   1 100  68 101  81 101  85 100
M  END
> <chiral flag>
0

> <version>
0

> <s_m_source_file>
/data/baiqing/PycharmProjects/Reinvent-master-3.2/result/LINK_invent/BTK/process_docking_weight1_custom_product_contain_oxygen_bond_distance_aromatic_linkinvent_7_9_3/rearranged_h_0087.sdf

> <i_m_source_file_index>
90

> <r_mmod_Potential_Energy-OPLS-2005>
245.766464233398

> <r_mmod_Stretch_Energy-OPLS-2005>
150.289978027344

> <r_mmod_Bend_Energy-OPLS-2005>
200.351425170898

> <r_mmod_Torsional_Energy-OPLS-2005>
259.962188720703

> <r_mmod_Improper_Torsional_Energy-OPLS-2005>
5.68311786651611

> <r_mmod_Van_der_Waal_Energy-OPLS-2005>
144.23876953125

> <r_mmod_Electrostatic_Energy-OPLS-2005>
-379.580169677734

> <r_mmod_Solvation_Energy-OPLS-2005>
-223.124740600586

> <b_mmod_Minimization_Converged-OPLS-2005>
0

> <r_mmod_RMS_Derivative-OPLS-2005>
6.52561664581299

$$$$
90
                    3D
 Structure written by MMmdl.
149157  0  0  1  0            999 V2000
  -30.5941  -14.6845   20.4789 C   0  0  0  0  0  0
  -30.4437  -12.4152   19.4592 C   0  0  0  0  0  0
  -29.5127  -12.5071   18.2286 C   0  0  0  0  0  0
  -28.0353  -12.3405   18.6378 C   0  0  0  0  0  0
  -27.6510  -13.2164   19.8597 C   0  0  2  0  0  0
  -28.6961  -13.0868   20.9907 C   0  0  0  0  0  0
  -25.2555  -13.8167   20.5683 C   0  0  0  0  0  0
  -24.1823  -13.0433   20.9198 C   0  0  0  0  0  0
  -24.6387  -11.6905   20.8734 C   0  0  0  0  0  0
  -23.9053  -10.4288   21.0399 C   0  0  0  0  0  0
  -24.3608   -9.4207   21.9177 C   0  0  0  0  0  0
  -23.6283   -8.2244   22.0751 C   0  0  0  0  0  0
  -22.4268   -8.0279   21.3543 C   0  0  0  0  0  0
  -21.9896   -9.0254   20.4645 C   0  0  0  0  0  0
  -22.7223  -10.2132   20.3054 C   0  0  0  0  0  0
  -21.6855   -6.0729   22.5273 C   0  0  0  0  0  0
  -21.4020   -6.5635   23.8208 C   0  0  0  0  0  0
  -21.3659   -5.6786   24.9168 C   0  0  0  0  0  0
  -21.6041   -4.3049   24.7219 C   0  0  0  0  0  0
  -21.8821   -3.8141   23.4342 C   0  0  0  0  0  0
  -21.9195   -4.6956   22.3396 C   0  0  0  0  0  0
  -22.7845  -13.5228   21.1858 C   0  0  0  0  0  0
  -22.1660   -4.2143   21.0971 F   0  0  0  0  0  0
  -21.5626   -3.4532   25.7734 F   0  0  0  0  0  0
  -30.0072  -13.4436   20.4263 N   0  0  0  0  0  0
  -26.2975  -12.9343   20.3289 N   0  0  0  0  0  0
  -25.9315  -11.6501   20.5742 N   0  0  0  0  0  0
  -22.0484  -12.8234   22.0418 N   0  0  0  0  0  0
  -25.4261  -15.1888   20.4085 N   0  0  0  0  0  0
  -31.7637  -14.8490   20.1189 O   0  0  0  0  0  0
  -21.6639   -6.8873   21.4237 O   0  0  0  0  0  0
  -22.3532  -14.5531   20.6698 O   0  0  0  0  0  0
  -24.6276  -31.8581   23.2004 C   0  0  0  0  0  0
  -25.9111  -32.4768   23.8348 C   0  0  1  0  0  0
  -27.2274  -27.3038   20.1261 C   0  0  0  0  0  0
  -25.5920  -33.8567   24.2274 N   0  0  0  0  0  0
  -23.4235  -30.4793   21.5433 C   0  0  2  0  0  0
  -24.8721  -28.9288   20.1138 C   0  0  0  0  0  0
  -22.7486  -29.4610   22.4934 C   0  0  0  0  0  0
  -18.0290  -28.1385   22.8491 C   0  0  0  0  0  0
  -24.1491  -36.7294   23.2642 C   0  0  0  0  0  0
  -25.9652  -30.7839   21.3737 C   0  0  0  0  0  0
  -26.0414  -29.4083   20.7191 C   0  0  0  0  0  0
  -27.2247  -28.6083   20.7131 C   0  0  0  0  0  0
  -26.0391  -26.8814   19.4924 C   0  0  0  0  0  0
  -24.8730  -27.6707   19.4912 C   0  0  0  0  0  0
  -23.6402  -29.8106   20.1603 C   0  0  0  0  0  0
  -25.4114  -36.3077   24.0330 C   0  0  1  0  0  0
  -20.5890  -28.3692   23.1280 C   0  0  2  0  0  0
  -20.6779  -26.9416   22.5402 C   0  0  0  0  0  0
  -19.5745  -26.6383   21.5214 C   0  0  0  0  0  0
  -18.1933  -26.7923   22.1641 C   0  0  0  0  0  0
  -19.1541  -28.8857   23.2879 C   0  0  0  0  0  0
  -18.9463  -30.1460   23.8895 C   0  0  0  0  0  0
  -17.6462  -30.6588   24.0563 C   0  0  0  0  0  0
  -25.9048  -34.9445   23.5105 C   0  0  0  0  0  0
  -16.5354  -29.9087   23.6325 C   0  0  0  0  0  0
  -16.7278  -28.6502   23.0353 C   0  0  0  0  0  0
  -26.4487  -31.6584   25.0726 C   0  0  0  0  0  0
  -25.3722  -31.3743   26.1463 C   0  0  0  0  0  0
  -27.0323  -30.3003   24.6190 C   0  0  0  0  0  0
  -27.6056  -32.4316   25.7486 C   0  0  0  0  0  0
  -27.5568  -37.1815   24.8474 C   0  0  0  0  0  0
  -21.4197  -29.3045   22.3676 N   0  0  0  0  0  0
  -26.4298  -37.3763   23.9392 N   0  0  0  0  0  0
  -24.6910  -31.0575   22.0964 N   0  0  0  0  0  0
  -23.4199  -28.8154   23.3023 O   0  0  0  0  0  0
  -28.3340  -26.4383   20.1398 O   0  0  0  0  0  0
  -26.5621  -34.8912   22.4674 O   0  0  0  0  0  0
  -23.5434  -32.1386   23.7319 O   0  0  0  0  0  0
  -28.5234  -19.3504   20.3931 C   0  0  0  0  0  0
  -28.5843  -17.9388   20.6237 C   0  0  0  0  0  0
  -30.9601  -17.9630   20.3069 C   0  0  0  0  0  0
  -29.6821  -20.1192   20.1061 C   0  0  0  0  0  0
  -29.7955  -17.1893   20.5638 C   0  0  0  0  0  0
  -30.9066  -19.3787   20.0898 C   0  0  0  0  0  0
  -28.9109  -23.8443   19.9983 C   0  0  0  0  0  0
  -29.6199  -21.6060   19.6585 C   0  0  0  0  0  0
  -28.1161  -25.0512   20.6448 C   0  0  0  0  0  0
  -28.8952  -22.5883   20.3969 N   0  0  0  0  0  0
  -29.7492  -15.7304   20.7791 N   0  0  0  0  0  0
  -30.2659  -21.8653   18.6389 O   0  0  0  0  0  0
  -32.0716  -20.0215   19.8292 F   0  0  0  0  0  0
  -31.4832  -12.5518   19.1559 H   0  0  0  0  0  0
  -30.3913  -11.4233   19.9104 H   0  0  0  0  0  0
  -29.7837  -11.7483   17.4933 H   0  0  0  0  0  0
  -29.6498  -13.4715   17.7363 H   0  0  0  0  0  0
  -27.8757  -11.2881   18.8738 H   0  0  0  0  0  0
  -27.3824  -12.5646   17.7937 H   0  0  0  0  0  0
  -27.6621  -14.2481   19.5092 H   0  0  0  0  0  0
  -28.7166  -12.0670   21.3776 H   0  0  0  0  0  0
  -28.4352  -13.7213   21.8395 H   0  0  0  0  0  0
  -25.2757   -9.5684   22.4748 H   0  0  0  0  0  0
  -23.9991   -7.4638   22.7475 H   0  0  0  0  0  0
  -21.0823   -8.8772   19.8955 H   0  0  0  0  0  0
  -22.3678  -10.9673   19.6165 H   0  0  0  0  0  0
  -21.2020   -7.6147   23.9710 H   0  0  0  0  0  0
  -21.1475   -6.0516   25.9069 H   0  0  0  0  0  0
  -22.0602   -2.7603   23.2845 H   0  0  0  0  0  0
  -22.4097  -11.9901   22.4822 H   0  0  0  0  0  0
  -21.1104  -13.1274   22.2618 H   0  0  0  0  0  0
  -24.6535  -15.8385   20.5101 H   0  0  0  0  0  0
  -26.2566  -15.6209   20.0263 H   0  0  0  0  0  0
  -26.7183  -32.5434   23.1102 H   0  0  0  0  0  0
  -25.0055  -33.9708   25.0412 H   0  0  0  0  0  0
  -22.7180  -31.2999   21.3972 H   0  0  0  0  0  0
  -23.3728  -35.9656   23.3347 H   0  0  0  0  0  0
  -24.3573  -36.8866   22.2047 H   0  0  0  0  0  0
  -23.7279  -37.6526   23.6633 H   0  0  0  0  0  0
  -26.0961  -31.5447   20.6030 H   0  0  0  0  0  0
  -26.8455  -30.8359   22.0028 H   0  0  0  0  0  0
  -28.1231  -28.9713   21.1927 H   0  0  0  0  0  0
  -26.0029  -25.9208   18.9989 H   0  0  0  0  0  0
  -23.9787  -27.2987   19.0100 H   0  0  0  0  0  0
  -23.7612  -30.5849   19.4018 H   0  0  0  0  0  0
  -22.7600  -29.2403   19.8581 H   0  0  0  0  0  0
  -25.1296  -36.1941   25.0824 H   0  0  0  0  0  0
  -20.9981  -28.3268   24.1401 H   0  0  0  0  0  0
  -20.5691  -26.2301   23.3601 H   0  0  0  0  0  0
  -21.6646  -26.7450   22.1186 H   0  0  0  0  0  0
  -19.6904  -25.6295   21.1243 H   0  0  0  0  0  0
  -19.6667  -27.3192   20.6742 H   0  0  0  0  0  0
  -17.4189  -26.6653   21.4062 H   0  0  0  0  0  0
  -18.0354  -26.0074   22.9050 H   0  0  0  0  0  0
  -19.7938  -30.7280   24.2261 H   0  0  0  0  0  0
  -17.5014  -31.6266   24.5167 H   0  0  0  0  0  0
  -15.5355  -30.2991   23.7643 H   0  0  0  0  0  0
  -15.8679  -28.0819   22.7072 H   0  0  0  0  0  0
  -24.5835  -30.7172   25.7782 H   0  0  0  0  0  0
  -24.8996  -32.2929   26.4954 H   0  0  0  0  0  0
  -25.8032  -30.8842   27.0202 H   0  0  0  0  0  0
  -26.2898  -29.6758   24.1209 H   0  0  0  0  0  0
  -27.4009  -29.7259   25.4699 H   0  0  0  0  0  0
  -27.8772  -30.4283   23.9419 H   0  0  0  0  0  0
  -27.2680  -33.3630   26.2043 H   0  0  0  0  0  0
  -28.3871  -32.6850   25.0309 H   0  0  0  0  0  0
  -28.0713  -31.8450   26.5416 H   0  0  0  0  0  0
  -28.2628  -38.0068   24.7452 H   0  0  0  0  0  0
  -28.1022  -36.2598   24.6394 H   0  0  0  0  0  0
  -27.2273  -37.1574   25.8876 H   0  0  0  0  0  0
  -20.9385  -29.8773   21.6884 H   0  0  0  0  0  0
  -26.0184  -38.2849   24.1345 H   0  0  0  0  0  0
  -27.5601  -19.8410   20.4037 H   0  0  0  0  0  0
  -27.6554  -17.4232   20.8242 H   0  0  0  0  0  0
  -31.9231  -17.4766   20.2614 H   0  0  0  0  0  0
  -29.4997  -24.1698   19.1352 H   0  0  0  0  0  0
  -28.3725  -25.0696   21.7041 H   0  0  0  0  0  0
  -27.0609  -24.7818   20.6244 H   0  0  0  0  0  0
  -28.8445  -15.3927   21.0675 H   0  0  0  0  0  0
  1 25  1  0  0  0
  1 30  2  0  0  0
  1 81  1  0  0  0
  2  3  1  0  0  0
  2 25  1  0  0  0
  2 84  1  0  0  0
  2 85  1  0  0  0
  3  4  1  0  0  0
  3 86  1  0  0  0
  3 87  1  0  0  0
  4  5  1  0  0  0
  4 88  1  0  0  0
  4 89  1  0  0  0
  5  6  1  0  0  0
  5 26  1  0  0  0
  5 90  1  0  0  0
  6 25  1  0  0  0
  6 91  1  0  0  0
  6 92  1  0  0  0
  7  8  2  0  0  0
  7 26  1  0  0  0
  7 29  1  0  0  0
  8  9  1  0  0  0
  8 22  1  0  0  0
  9 10  1  0  0  0
  9 27  2  0  0  0
 10 11  2  0  0  0
 10 15  1  0  0  0
 11 12  1  0  0  0
 11 93  1  0  0  0
 12 13  2  0  0  0
 12 94  1  0  0  0
 13 14  1  0  0  0
 13 31  1  0  0  0
 14 15  2  0  0  0
 14 95  1  0  0  0
 15 96  1  0  0  0
 16 17  2  0  0  0
 16 21  1  0  0  0
 16 31  1  0  0  0
 17 18  1  0  0  0
 17 97  1  0  0  0
 18 19  2  0  0  0
 18 98  1  0  0  0
 19 20  1  0  0  0
 19 24  1  0  0  0
 20 21  2  0  0  0
 20 99  1  0  0  0
 21 23  1  0  0  0
 22 28  1  0  0  0
 22 32  2  0  0  0
 26 27  1  0  0  0
 28100  1  0  0  0
 28101  1  0  0  0
 29102  1  0  0  0
 29103  1  0  0  0
 33 34  1  0  0  0
 33 66  1  0  0  0
 33 70  2  0  0  0
 34 36  1  0  0  0
 34 59  1  0  0  0
 34104  1  0  0  0
 35 44  2  0  0  0
 35 45  1  0  0  0
 35 68  1  0  0  0
 36 56  1  0  0  0
 36105  1  0  0  0
 37 39  1  0  0  0
 37 47  1  0  0  0
 37 66  1  0  0  0
 37106  1  0  0  0
 38 43  2  0  0  0
 38 46  1  0  0  0
 38 47  1  0  0  0
 39 64  1  0  0  0
 39 67  2  0  0  0
 40 52  1  0  0  0
 40 53  2  0  0  0
 40 58  1  0  0  0
 41107  1  0  0  0
 41108  1  0  0  0
 41109  1  0  0  0
 41 48  1  0  0  0
 42 43  1  0  0  0
 42 66  1  0  0  0
 42110  1  0  0  0
 42111  1  0  0  0
 43 44  1  0  0  0
 44112  1  0  0  0
 45 46  2  0  0  0
 45113  1  0  0  0
 46114  1  0  0  0
 47115  1  0  0  0
 47116  1  0  0  0
 48 56  1  0  0  0
 48 65  1  0  0  0
 48117  1  0  0  0
 49 50  1  0  0  0
 49 53  1  0  0  0
 49 64  1  0  0  0
 49118  1  0  0  0
 50 51  1  0  0  0
 50119  1  0  0  0
 50120  1  0  0  0
 51 52  1  0  0  0
 51121  1  0  0  0
 51122  1  0  0  0
 52123  1  0  0  0
 52124  1  0  0  0
 53 54  1  0  0  0
 54 55  2  0  0  0
 54125  1  0  0  0
 55 57  1  0  0  0
 55126  1  0  0  0
 56 69  2  0  0  0
 57 58  2  0  0  0
 57127  1  0  0  0
 58128  1  0  0  0
 59 60  1  0  0  0
 59 61  1  0  0  0
 59 62  1  0  0  0
 60129  1  0  0  0
 60130  1  0  0  0
 60131  1  0  0  0
 61132  1  0  0  0
 61133  1  0  0  0
 61134  1  0  0  0
 62135  1  0  0  0
 62136  1  0  0  0
 62137  1  0  0  0
 63 65  1  0  0  0
 63138  1  0  0  0
 63139  1  0  0  0
 63140  1  0  0  0
 64141  1  0  0  0
 65142  1  0  0  0
 68 79  1  0  0  0
 71 72  2  0  0  0
 71 74  1  0  0  0
 71143  1  0  0  0
 72 75  1  0  0  0
 72144  1  0  0  0
 73 75  2  0  0  0
 73 76  1  0  0  0
 73145  1  0  0  0
 74 76  2  0  0  0
 74 78  1  0  0  0
 75 81  1  0  0  0
 76 83  1  0  0  0
 77 79  1  0  0  0
 77 80  2  0  0  0
 77146  1  0  0  0
 78 80  1  0  0  0
 78 82  2  0  0  0
 79147  1  0  0  0
 79148  1  0  0  0
 81149  1  0  0  0
M  ISO  4   1 100  68 101  79 101  81 100
M  END
> <chiral flag>
0

> <version>
0

> <s_m_source_file>
/data/baiqing/PycharmProjects/Reinvent-master-3.2/result/LINK_invent/BTK/process_docking_weight1_custom_product_contain_oxygen_bond_distance_aromatic_linkinvent_7_9_3/rearranged_h_0087.sdf

> <i_m_source_file_index>
91

> <r_mmod_Potential_Energy-OPLS-2005>
117.288688659668

> <r_mmod_Stretch_Energy-OPLS-2005>
93.9881362915039

> <r_mmod_Bend_Energy-OPLS-2005>
143.158737182617

> <r_mmod_Torsional_Energy-OPLS-2005>
230.474792480469

> <r_mmod_Improper_Torsional_Energy-OPLS-2005>
5.39532899856567

> <r_mmod_Van_der_Waal_Energy-OPLS-2005>
147.806732177734

> <r_mmod_Electrostatic_Energy-OPLS-2005>
-354.025787353516

> <r_mmod_Solvation_Energy-OPLS-2005>
-209.601470947266

> <b_mmod_Minimization_Converged-OPLS-2005>
0

> <r_mmod_RMS_Derivative-OPLS-2005>
0.876761496067047

$$$$
91
                    3D
 Structure written by MMmdl.
156165  0  0  1  0            999 V2000
  -30.6144  -14.6304   20.5084 C   0  0  0  0  0  0
  -30.4402  -12.3879   19.4499 C   0  0  0  0  0  0
  -29.5113  -12.5188   18.2199 C   0  0  0  0  0  0
  -28.0294  -12.3591   18.6243 C   0  0  0  0  0  0
  -27.6564  -13.2151   19.8647 C   0  0  2  0  0  0
  -28.7000  -13.0431   20.9923 C   0  0  0  0  0  0
  -25.2586  -13.8185   20.5732 C   0  0  0  0  0  0
  -24.1837  -13.0448   20.9196 C   0  0  0  0  0  0
  -24.6390  -11.6912   20.8732 C   0  0  0  0  0  0
  -23.9031  -10.4305   21.0392 C   0  0  0  0  0  0
  -24.3613   -9.4215   21.9154 C   0  0  0  0  0  0
  -23.6326   -8.2230   22.0726 C   0  0  0  0  0  0
  -22.4284   -8.0281   21.3534 C   0  0  0  0  0  0
  -21.9888   -9.0221   20.4613 C   0  0  0  0  0  0
  -22.7196  -10.2113   20.3030 C   0  0  0  0  0  0
  -21.6835   -6.0739   22.5283 C   0  0  0  0  0  0
  -21.3994   -6.5639   23.8214 C   0  0  0  0  0  0
  -21.3673   -5.6774   24.9184 C   0  0  0  0  0  0
  -21.6066   -4.3045   24.7221 C   0  0  0  0  0  0
  -21.8822   -3.8140   23.4328 C   0  0  0  0  0  0
  -21.9186   -4.6967   22.3394 C   0  0  0  0  0  0
  -22.7845  -13.5239   21.1873 C   0  0  0  0  0  0
  -22.1662   -4.2144   21.0976 F   0  0  0  0  0  0
  -21.5644   -3.4526   25.7737 F   0  0  0  0  0  0
  -30.0191  -13.3954   20.4422 N   0  0  0  0  0  0
  -26.3007  -12.9345   20.3320 N   0  0  0  0  0  0
  -25.9330  -11.6503   20.5734 N   0  0  0  0  0  0
  -22.0483  -12.8226   22.0434 N   0  0  0  0  0  0
  -25.4354  -15.1904   20.4272 N   0  0  0  0  0  0
  -31.7595  -14.8139   20.0844 O   0  0  0  0  0  0
  -21.6649   -6.8875   21.4236 O   0  0  0  0  0  0
  -22.3530  -14.5537   20.6712 O   0  0  0  0  0  0
  -24.6287  -31.8587   23.2039 C   0  0  0  0  0  0
  -25.9122  -32.4772   23.8369 C   0  0  1  0  0  0
  -27.2249  -27.2895   20.1061 C   0  0  0  0  0  0
  -25.5926  -33.8576   24.2275 N   0  0  0  0  0  0
  -23.4253  -30.4819   21.5489 C   0  0  2  0  0  0
  -24.8727  -28.9432   20.1075 C   0  0  0  0  0  0
  -22.7478  -29.4619   22.4955 C   0  0  0  0  0  0
  -18.0281  -28.1413   22.8488 C   0  0  0  0  0  0
  -24.1467  -36.7284   23.2618 C   0  0  0  0  0  0
  -25.9701  -30.7744   21.3866 C   0  0  0  0  0  0
  -26.0433  -29.4019   20.7245 C   0  0  0  0  0  0
  -27.2183  -28.5841   20.7239 C   0  0  0  0  0  0
  -26.0333  -26.9147   19.4368 C   0  0  0  0  0  0
  -24.8714  -27.7051   19.4554 C   0  0  0  0  0  0
  -23.6388  -29.8190   20.1649 C   0  0  0  0  0  0
  -25.4089  -36.3074   24.0329 C   0  0  1  0  0  0
  -20.5875  -28.3707   23.1292 C   0  0  2  0  0  0
  -20.6769  -26.9429   22.5436 C   0  0  0  0  0  0
  -19.5740  -26.6404   21.5246 C   0  0  0  0  0  0
  -18.1922  -26.7955   22.1633 C   0  0  0  0  0  0
  -19.1528  -28.8881   23.2880 C   0  0  0  0  0  0
  -18.9432  -30.1494   23.8890 C   0  0  0  0  0  0
  -17.6434  -30.6607   24.0583 C   0  0  0  0  0  0
  -25.9066  -34.9453   23.5107 C   0  0  0  0  0  0
  -16.5338  -29.9101   23.6359 C   0  0  0  0  0  0
  -16.7262  -28.6526   23.0342 C   0  0  0  0  0  0
  -26.4499  -31.6592   25.0743 C   0  0  0  0  0  0
  -25.3720  -31.3768   26.1464 C   0  0  0  0  0  0
  -27.0314  -30.2992   24.6250 C   0  0  0  0  0  0
  -27.6087  -32.4315   25.7469 C   0  0  0  0  0  0
  -27.5615  -37.1703   24.8385 C   0  0  0  0  0  0
  -21.4175  -29.3059   22.3680 N   0  0  0  0  0  0
  -26.4229  -37.3824   23.9490 N   0  0  0  0  0  0
  -24.6936  -31.0549   22.1032 N   0  0  0  0  0  0
  -23.4166  -28.8148   23.3053 O   0  0  0  0  0  0
  -28.3201  -26.3934   20.1733 O   0  0  0  0  0  0
  -26.5650  -34.8940   22.4682 O   0  0  0  0  0  0
  -23.5443  -32.1407   23.7333 O   0  0  0  0  0  0
  -28.8510  -19.3059   21.4618 C   0  0  0  0  0  0
  -28.9344  -17.8854   21.5677 C   0  0  0  0  0  0
  -30.6420  -17.8442   19.8782 C   0  0  0  0  0  0
  -29.6728  -20.0465   20.5715 C   0  0  0  0  0  0
  -29.8406  -17.1084   20.7994 C   0  0  0  0  0  0
  -30.5587  -19.2714   19.7586 C   0  0  0  0  0  0
  -30.0699  -23.7308   20.9343 C   0  0  0  0  0  0
  -28.9466  -23.7561   20.2021 C   0  0  0  0  0  0
  -28.6521  -22.3380   19.9405 C   0  0  0  0  0  0
  -30.5055  -22.3461   21.1747 C   0  0  0  0  0  0
  -27.6214  -21.8644   19.2169 C   0  0  0  0  0  0
  -28.0724  -24.9845   19.7479 C   0  0  0  0  0  0
  -29.6277  -21.5203   20.5506 N   0  0  0  0  0  0
  -31.3494  -19.9017   18.7975 N   0  0  0  0  0  0
  -29.8209  -15.6499   20.9640 N   0  0  0  0  0  0
  -31.4769  -21.9934   21.8534 O   0  0  0  0  0  0
  -31.4838  -12.5144   19.1597 H   0  0  0  0  0  0
  -30.3737  -11.3858   19.8750 H   0  0  0  0  0  0
  -29.7828  -11.7778   17.4660 H   0  0  0  0  0  0
  -29.6539  -13.4943   17.7534 H   0  0  0  0  0  0
  -27.8569  -11.3028   18.8388 H   0  0  0  0  0  0
  -27.3755  -12.6008   17.7850 H   0  0  0  0  0  0
  -27.6796  -14.2575   19.5474 H   0  0  0  0  0  0
  -28.7081  -12.0086   21.3405 H   0  0  0  0  0  0
  -28.4478  -13.6423   21.8660 H   0  0  0  0  0  0
  -25.2759   -9.5712   22.4714 H   0  0  0  0  0  0
  -24.0036   -7.4615   22.7434 H   0  0  0  0  0  0
  -21.0807   -8.8717   19.8938 H   0  0  0  0  0  0
  -22.3633  -10.9646   19.6143 H   0  0  0  0  0  0
  -21.1968   -7.6135   23.9729 H   0  0  0  0  0  0
  -21.1506   -6.0504   25.9095 H   0  0  0  0  0  0
  -22.0596   -2.7591   23.2820 H   0  0  0  0  0  0
  -22.4071  -11.9892   22.4846 H   0  0  0  0  0  0
  -21.1089  -13.1244   22.2632 H   0  0  0  0  0  0
  -24.6830  -15.8538   20.5777 H   0  0  0  0  0  0
  -26.3037  -15.6290   20.1515 H   0  0  0  0  0  0
  -26.7185  -32.5416   23.1122 H   0  0  0  0  0  0
  -25.0003  -33.9746   25.0358 H   0  0  0  0  0  0
  -22.7233  -31.3045   21.4053 H   0  0  0  0  0  0
  -23.3836  -35.9495   23.3067 H   0  0  0  0  0  0
  -24.3641  -36.9134   22.2083 H   0  0  0  0  0  0
  -23.7054  -37.6345   23.6800 H   0  0  0  0  0  0
  -26.1065  -31.5341   20.6174 H   0  0  0  0  0  0
  -26.8523  -30.8231   22.0124 H   0  0  0  0  0  0
  -28.1057  -28.9244   21.2369 H   0  0  0  0  0  0
  -25.9543  -25.9931   18.8811 H   0  0  0  0  0  0
  -23.9769  -27.3620   18.9512 H   0  0  0  0  0  0
  -23.7470  -30.5967   19.4094 H   0  0  0  0  0  0
  -22.7637  -29.2377   19.8700 H   0  0  0  0  0  0
  -25.1245  -36.1891   25.0811 H   0  0  0  0  0  0
  -20.9969  -28.3293   24.1401 H   0  0  0  0  0  0
  -20.5689  -26.2319   23.3632 H   0  0  0  0  0  0
  -21.6618  -26.7465   22.1178 H   0  0  0  0  0  0
  -19.6893  -25.6308   21.1268 H   0  0  0  0  0  0
  -19.6714  -27.3219   20.6779 H   0  0  0  0  0  0
  -17.4200  -26.6718   21.4039 H   0  0  0  0  0  0
  -18.0325  -26.0123   22.9037 H   0  0  0  0  0  0
  -19.7915  -30.7334   24.2231 H   0  0  0  0  0  0
  -17.4988  -31.6288   24.5175 H   0  0  0  0  0  0
  -15.5336  -30.2981   23.7726 H   0  0  0  0  0  0
  -15.8653  -28.0876   22.7014 H   0  0  0  0  0  0
  -24.5829  -30.7239   25.7740 H   0  0  0  0  0  0
  -24.9010  -32.2957   26.4972 H   0  0  0  0  0  0
  -25.7988  -30.8813   27.0190 H   0  0  0  0  0  0
  -26.2879  -29.6756   24.1288 H   0  0  0  0  0  0
  -27.3960  -29.7280   25.4796 H   0  0  0  0  0  0
  -27.8798  -30.4247   23.9522 H   0  0  0  0  0  0
  -27.2738  -33.3615   26.2096 H   0  0  0  0  0  0
  -28.3851  -32.6879   25.0239 H   0  0  0  0  0  0
  -28.0837  -31.8408   26.5324 H   0  0  0  0  0  0
  -28.2368  -38.0250   24.7867 H   0  0  0  0  0  0
  -28.1371  -36.2851   24.5645 H   0  0  0  0  0  0
  -27.2451  -37.0618   25.8774 H   0  0  0  0  0  0
  -20.9372  -29.8742   21.6834 H   0  0  0  0  0  0
  -26.0092  -38.2821   24.1808 H   0  0  0  0  0  0
  -28.1468  -19.8295   22.0911 H   0  0  0  0  0  0
  -28.2826  -17.3936   22.2763 H   0  0  0  0  0  0
  -31.3236  -17.3023   19.2360 H   0  0  0  0  0  0
  -30.5766  -24.6032   21.3188 H   0  0  0  0  0  0
  -26.9061  -22.5316   18.7547 H   0  0  0  0  0  0
  -27.4764  -20.8010   19.0680 H   0  0  0  0  0  0
  -27.0903  -24.6802   20.1078 H   0  0  0  0  0  0
  -28.0338  -24.9560   18.6574 H   0  0  0  0  0  0
  -31.8101  -19.3073   18.1146 H   0  0  0  0  0  0
  -30.9715  -20.7402   18.3664 H   0  0  0  0  0  0
  -28.9915  -15.2964   21.4194 H   0  0  0  0  0  0
  1 25  1  0  0  0
  1 30  2  0  0  0
  1 85  1  0  0  0
  2  3  1  0  0  0
  2 25  1  0  0  0
  2 87  1  0  0  0
  2 88  1  0  0  0
  3  4  1  0  0  0
  3 89  1  0  0  0
  3 90  1  0  0  0
  4  5  1  0  0  0
  4 91  1  0  0  0
  4 92  1  0  0  0
  5  6  1  0  0  0
  5 26  1  0  0  0
  5 93  1  0  0  0
  6 25  1  0  0  0
  6 94  1  0  0  0
  6 95  1  0  0  0
  7  8  2  0  0  0
  7 26  1  0  0  0
  7 29  1  0  0  0
  8  9  1  0  0  0
  8 22  1  0  0  0
  9 10  1  0  0  0
  9 27  2  0  0  0
 10 11  2  0  0  0
 10 15  1  0  0  0
 11 12  1  0  0  0
 11 96  1  0  0  0
 12 13  2  0  0  0
 12 97  1  0  0  0
 13 14  1  0  0  0
 13 31  1  0  0  0
 14 15  2  0  0  0
 14 98  1  0  0  0
 15 99  1  0  0  0
 16 17  2  0  0  0
 16 21  1  0  0  0
 16 31  1  0  0  0
 17 18  1  0  0  0
 17100  1  0  0  0
 18 19  2  0  0  0
 18101  1  0  0  0
 19 20  1  0  0  0
 19 24  1  0  0  0
 20 21  2  0  0  0
 20102  1  0  0  0
 21 23  1  0  0  0
 22 28  1  0  0  0
 22 32  2  0  0  0
 26 27  1  0  0  0
 28103  1  0  0  0
 28104  1  0  0  0
 29105  1  0  0  0
 29106  1  0  0  0
 33 34  1  0  0  0
 33 66  1  0  0  0
 33 70  2  0  0  0
 34 36  1  0  0  0
 34 59  1  0  0  0
 34107  1  0  0  0
 35 44  2  0  0  0
 35 45  1  0  0  0
 35 68  1  0  0  0
 36 56  1  0  0  0
 36108  1  0  0  0
 37 39  1  0  0  0
 37 47  1  0  0  0
 37 66  1  0  0  0
 37109  1  0  0  0
 38 43  2  0  0  0
 38 46  1  0  0  0
 38 47  1  0  0  0
 39 64  1  0  0  0
 39 67  2  0  0  0
 40 52  1  0  0  0
 40 53  2  0  0  0
 40 58  1  0  0  0
 41110  1  0  0  0
 41111  1  0  0  0
 41112  1  0  0  0
 41 48  1  0  0  0
 42 43  1  0  0  0
 42 66  1  0  0  0
 42113  1  0  0  0
 42114  1  0  0  0
 43 44  1  0  0  0
 44115  1  0  0  0
 45 46  2  0  0  0
 45116  1  0  0  0
 46117  1  0  0  0
 47118  1  0  0  0
 47119  1  0  0  0
 48 56  1  0  0  0
 48 65  1  0  0  0
 48120  1  0  0  0
 49 50  1  0  0  0
 49 53  1  0  0  0
 49 64  1  0  0  0
 49121  1  0  0  0
 50 51  1  0  0  0
 50122  1  0  0  0
 50123  1  0  0  0
 51 52  1  0  0  0
 51124  1  0  0  0
 51125  1  0  0  0
 52126  1  0  0  0
 52127  1  0  0  0
 53 54  1  0  0  0
 54 55  2  0  0  0
 54128  1  0  0  0
 55 57  1  0  0  0
 55129  1  0  0  0
 56 69  2  0  0  0
 57 58  2  0  0  0
 57130  1  0  0  0
 58131  1  0  0  0
 59 60  1  0  0  0
 59 61  1  0  0  0
 59 62  1  0  0  0
 60132  1  0  0  0
 60133  1  0  0  0
 60134  1  0  0  0
 61135  1  0  0  0
 61136  1  0  0  0
 61137  1  0  0  0
 62138  1  0  0  0
 62139  1  0  0  0
 62140  1  0  0  0
 63 65  1  0  0  0
 63141  1  0  0  0
 63142  1  0  0  0
 63143  1  0  0  0
 64144  1  0  0  0
 65145  1  0  0  0
 68 82  1  0  0  0
 71 72  2  0  0  0
 71 74  1  0  0  0
 71146  1  0  0  0
 72 75  1  0  0  0
 72147  1  0  0  0
 73 75  2  0  0  0
 73 76  1  0  0  0
 73148  1  0  0  0
 74 76  2  0  0  0
 74 83  1  0  0  0
 75 85  1  0  0  0
 76 84  1  0  0  0
 77 78  2  0  0  0
 77 80  1  0  0  0
 77149  1  0  0  0
 78 79  1  0  0  0
 78 82  1  0  0  0
 79 81  2  0  0  0
 79 83  1  0  0  0
 80 83  1  0  0  0
 80 86  2  0  0  0
 81150  1  0  0  0
 81151  1  0  0  0
 82152  1  0  0  0
 82153  1  0  0  0
 84154  1  0  0  0
 84155  1  0  0  0
 85156  1  0  0  0
M  ISO  4   1 100  68 101  82 101  85 100
M  END
> <chiral flag>
0

> <version>
0

> <s_m_source_file>
/data/baiqing/PycharmProjects/Reinvent-master-3.2/result/LINK_invent/BTK/process_docking_weight1_custom_product_contain_oxygen_bond_distance_aromatic_linkinvent_7_9_3/rearranged_h_0087.sdf

> <i_m_source_file_index>
92

> <r_mmod_Potential_Energy-OPLS-2005>
210.776428222656

> <r_mmod_Stretch_Energy-OPLS-2005>
86.069938659668

> <r_mmod_Bend_Energy-OPLS-2005>
219.730026245117

> <r_mmod_Torsional_Energy-OPLS-2005>
255.726989746094

> <r_mmod_Improper_Torsional_Energy-OPLS-2005>
7.33107566833496

> <r_mmod_Van_der_Waal_Energy-OPLS-2005>
142.324447631836

> <r_mmod_Electrostatic_Energy-OPLS-2005>
-317.897918701172

> <r_mmod_Solvation_Energy-OPLS-2005>
-238.519683837891

> <b_mmod_Minimization_Converged-OPLS-2005>
0

> <r_mmod_RMS_Derivative-OPLS-2005>
4.52154970169067

$$$$
