0
                    3D
 Structure written by MMmdl.
159167  0  0  1  0            999 V2000
  -30.6494  -14.5780   20.4740 C   0  0  0  0  0  0
  -30.4355  -12.3414   19.4555 C   0  0  0  0  0  0
  -29.5065  -12.4549   18.2268 C   0  0  0  0  0  0
  -28.0207  -12.3552   18.6312 C   0  0  0  0  0  0
  -27.6549  -13.2045   19.8792 C   0  0  2  0  0  0
  -28.7052  -13.0442   21.0006 C   0  0  0  0  0  0
  -25.2574  -13.8137   20.5736 C   0  0  0  0  0  0
  -24.1810  -13.0432   20.9227 C   0  0  0  0  0  0
  -24.6364  -11.6893   20.8770 C   0  0  0  0  0  0
  -23.9030  -10.4279   21.0425 C   0  0  0  0  0  0
  -24.3583   -9.4202   21.9198 C   0  0  0  0  0  0
  -23.6272   -8.2232   22.0767 C   0  0  0  0  0  0
  -22.4247   -8.0276   21.3556 C   0  0  0  0  0  0
  -21.9889   -9.0245   20.4659 C   0  0  0  0  0  0
  -22.7213  -10.2124   20.3060 C   0  0  0  0  0  0
  -21.6847   -6.0727   22.5272 C   0  0  0  0  0  0
  -21.4006   -6.5625   23.8207 C   0  0  0  0  0  0
  -21.3667   -5.6780   24.9172 C   0  0  0  0  0  0
  -21.6049   -4.3037   24.7223 C   0  0  0  0  0  0
  -21.8819   -3.8139   23.4338 C   0  0  0  0  0  0
  -21.9191   -4.6956   22.3395 C   0  0  0  0  0  0
  -22.7834  -13.5241   21.1861 C   0  0  0  0  0  0
  -22.1659   -4.2156   21.0973 F   0  0  0  0  0  0
  -21.5642   -3.4516   25.7732 F   0  0  0  0  0  0
  -30.0236  -13.3651   20.4303 N   0  0  0  0  0  0
  -26.2994  -12.9284   20.3421 N   0  0  0  0  0  0
  -25.9290  -11.6456   20.5822 N   0  0  0  0  0  0
  -22.0402  -12.8268   22.0397 N   0  0  0  0  0  0
  -25.4341  -15.1862   20.4132 N   0  0  0  0  0  0
  -31.8122  -14.7324   20.0860 O   0  0  0  0  0  0
  -21.6624   -6.8864   21.4236 O   0  0  0  0  0  0
  -22.3537  -14.5556   20.6704 O   0  0  0  0  0  0
  -24.6190  -31.8646   23.2099 C   0  0  0  0  0  0
  -25.9069  -32.4800   23.8409 C   0  0  1  0  0  0
  -27.2314  -27.3768   20.1296 C   0  0  0  0  0  0
  -25.5913  -33.8602   24.2321 N   0  0  0  0  0  0
  -23.4101  -30.4895   21.5469 C   0  0  2  0  0  0
  -24.8605  -28.9554   20.1097 C   0  0  0  0  0  0
  -22.7427  -29.4645   22.4940 C   0  0  0  0  0  0
  -18.0268  -28.1362   22.8471 C   0  0  0  0  0  0
  -24.1469  -36.7289   23.2646 C   0  0  0  0  0  0
  -25.9468  -30.8107   21.3819 C   0  0  0  0  0  0
  -26.0197  -29.4452   20.7229 C   0  0  0  0  0  0
  -27.2029  -28.6629   20.7311 C   0  0  0  0  0  0
  -26.0588  -26.9377   19.4682 C   0  0  0  0  0  0
  -24.8799  -27.7041   19.4754 C   0  0  0  0  0  0
  -23.6263  -29.8284   20.1587 C   0  0  0  0  0  0
  -25.4097  -36.3095   24.0340 C   0  0  1  0  0  0
  -20.5860  -28.3663   23.1284 C   0  0  2  0  0  0
  -20.6753  -26.9392   22.5407 C   0  0  0  0  0  0
  -19.5739  -26.6370   21.5191 C   0  0  0  0  0  0
  -18.1913  -26.7913   22.1601 C   0  0  0  0  0  0
  -19.1521  -28.8830   23.2878 C   0  0  0  0  0  0
  -18.9455  -30.1427   23.8894 C   0  0  0  0  0  0
  -17.6471  -30.6577   24.0545 C   0  0  0  0  0  0
  -25.9028  -34.9467   23.5121 C   0  0  0  0  0  0
  -16.5353  -29.9078   23.6332 C   0  0  0  0  0  0
  -16.7263  -28.6490   23.0359 C   0  0  0  0  0  0
  -26.4472  -31.6614   25.0775 C   0  0  0  0  0  0
  -25.3739  -31.3745   26.1532 C   0  0  0  0  0  0
  -27.0342  -30.3044   24.6248 C   0  0  0  0  0  0
  -27.6012  -32.4374   25.7559 C   0  0  0  0  0  0
  -27.5562  -37.1814   24.8460 C   0  0  0  0  0  0
  -21.4153  -29.3038   22.3689 N   0  0  0  0  0  0
  -26.4271  -37.3794   23.9408 N   0  0  0  0  0  0
  -24.6750  -31.0719   22.1018 N   0  0  0  0  0  0
  -23.4187  -28.8173   23.2988 O   0  0  0  0  0  0
  -28.3849  -26.6004   20.2203 O   0  0  0  0  0  0
  -26.5585  -34.8923   22.4676 O   0  0  0  0  0  0
  -23.5370  -32.1424   23.7453 O   0  0  0  0  0  0
  -29.7532  -19.6435   19.2300 C   0  0  0  0  0  0
  -29.5454  -18.5418   18.3870 C   0  0  0  0  0  0
  -30.0796  -18.1170   21.1021 C   0  0  0  0  0  0
  -30.0441  -19.4552   20.5916 C   0  0  0  0  0  0
  -29.6263  -17.2195   18.8741 C   0  0  0  0  0  0
  -29.8915  -16.9784   20.2542 C   0  0  0  0  0  0
  -29.4278  -16.1092   17.8571 C   0  0  0  0  0  0
  -30.4575  -20.6859   21.4315 C   0  0  0  0  0  0
  -28.9910  -24.2414   21.0583 C   0  0  0  0  0  0
  -29.1329  -22.7408   20.6070 C   0  0  0  0  0  0
  -28.3340  -25.1627   19.9767 C   0  0  0  0  0  0
  -29.8687  -15.6393   20.8093 N   0  0  0  0  0  0
  -29.4418  -21.7565   21.6942 N   0  3  0  0  0  0
  -31.4785  -12.4491   19.1540 H   0  0  0  0  0  0
  -30.3607  -11.3507   19.9052 H   0  0  0  0  0  0
  -29.7470  -11.6706   17.5082 H   0  0  0  0  0  0
  -29.6866  -13.3909   17.7058 H   0  0  0  0  0  0
  -27.8130  -11.3026   18.8283 H   0  0  0  0  0  0
  -27.3858  -12.6394   17.7913 H   0  0  0  0  0  0
  -27.6698  -14.2458   19.5792 H   0  0  0  0  0  0
  -28.6974  -12.0213   21.3813 H   0  0  0  0  0  0
  -28.4688  -13.6783   21.8557 H   0  0  0  0  0  0
  -25.2715   -9.5704   22.4788 H   0  0  0  0  0  0
  -23.9995   -7.4620   22.7463 H   0  0  0  0  0  0
  -21.0842   -8.8770   19.8935 H   0  0  0  0  0  0
  -22.3692  -10.9671   19.6164 H   0  0  0  0  0  0
  -21.1980   -7.6128   23.9723 H   0  0  0  0  0  0
  -21.1502   -6.0495   25.9081 H   0  0  0  0  0  0
  -22.0597   -2.7605   23.2825 H   0  0  0  0  0  0
  -22.3912  -11.9913   22.4854 H   0  0  0  0  0  0
  -21.1005  -13.1344   22.2492 H   0  0  0  0  0  0
  -24.6855  -15.8556   20.5540 H   0  0  0  0  0  0
  -26.2922  -15.6173   20.0950 H   0  0  0  0  0  0
  -26.7146  -32.5482   23.1172 H   0  0  0  0  0  0
  -25.0090  -33.9758   25.0487 H   0  0  0  0  0  0
  -22.7010  -31.3079   21.4061 H   0  0  0  0  0  0
  -23.3740  -35.9609   23.3320 H   0  0  0  0  0  0
  -24.3566  -36.8895   22.2056 H   0  0  0  0  0  0
  -23.7217  -37.6495   23.6659 H   0  0  0  0  0  0
  -26.0903  -31.5817   20.6233 H   0  0  0  0  0  0
  -26.8220  -30.8443   22.0200 H   0  0  0  0  0  0
  -28.0888  -29.0308   21.2300 H   0  0  0  0  0  0
  -26.0170  -26.0043   18.9299 H   0  0  0  0  0  0
  -23.9964  -27.3272   18.9789 H   0  0  0  0  0  0
  -23.7463  -30.6075   19.4048 H   0  0  0  0  0  0
  -22.7492  -29.2559   19.8522 H   0  0  0  0  0  0
  -25.1276  -36.1945   25.0838 H   0  0  0  0  0  0
  -20.9948  -28.3239   24.1407 H   0  0  0  0  0  0
  -20.5616  -26.2279   23.3603 H   0  0  0  0  0  0
  -21.6635  -26.7404   22.1234 H   0  0  0  0  0  0
  -19.6898  -25.6274   21.1239 H   0  0  0  0  0  0
  -19.6682  -27.3164   20.6704 H   0  0  0  0  0  0
  -17.4181  -26.6647   21.4007 H   0  0  0  0  0  0
  -18.0321  -26.0057   22.9001 H   0  0  0  0  0  0
  -19.7947  -30.7221   24.2289 H   0  0  0  0  0  0
  -17.5038  -31.6269   24.5128 H   0  0  0  0  0  0
  -15.5355  -30.2978   23.7669 H   0  0  0  0  0  0
  -15.8663  -28.0806   22.7101 H   0  0  0  0  0  0
  -24.5863  -30.7141   25.7891 H   0  0  0  0  0  0
  -24.8997  -32.2916   26.5036 H   0  0  0  0  0  0
  -25.8096  -30.8877   27.0265 H   0  0  0  0  0  0
  -26.2948  -29.6808   24.1213 H   0  0  0  0  0  0
  -27.3973  -29.7286   25.4770 H   0  0  0  0  0  0
  -27.8837  -30.4343   23.9542 H   0  0  0  0  0  0
  -27.2579  -33.3648   26.2160 H   0  0  0  0  0  0
  -28.3813  -32.6993   25.0402 H   0  0  0  0  0  0
  -28.0700  -31.8517   26.5475 H   0  0  0  0  0  0
  -28.2577  -38.0110   24.7507 H   0  0  0  0  0  0
  -28.1051  -36.2643   24.6266 H   0  0  0  0  0  0
  -27.2288  -37.1455   25.8866 H   0  0  0  0  0  0
  -20.9302  -29.8795   21.6947 H   0  0  0  0  0  0
  -26.0144  -38.2866   24.1412 H   0  0  0  0  0  0
  -29.7247  -20.6366   18.8030 H   0  0  0  0  0  0
  -29.3380  -18.7240   17.3432 H   0  0  0  0  0  0
  -30.2942  -17.9596   22.1499 H   0  0  0  0  0  0
  -29.1613  -16.5094   16.8784 H   0  0  0  0  0  0
  -28.6261  -15.4370   18.1434 H   0  0  0  0  0  0
  -30.3505  -15.5438   17.7311 H   0  0  0  0  0  0
  -31.3277  -21.1412   20.9572 H   0  0  0  0  0  0
  -30.8184  -20.3288   22.3962 H   0  0  0  0  0  0
  -29.9759  -24.6289   21.3234 H   0  0  0  0  0  0
  -28.3884  -24.2989   21.9662 H   0  0  0  0  0  0
  -29.8968  -22.6921   19.8324 H   0  0  0  0  0  0
  -28.2053  -22.4106   20.1382 H   0  0  0  0  0  0
  -27.3221  -24.7789   19.8846 H   0  0  0  0  0  0
  -28.8157  -24.9876   19.0143 H   0  0  0  0  0  0
  -29.0057  -15.3790   21.2602 H   0  0  0  0  0  0
  -29.8068  -22.2853   22.4695 H   0  0  0  0  0  0
  -28.5917  -21.3264   22.0181 H   0  0  0  0  0  0
  1 25  1  0  0  0
  1 30  2  0  0  0
  1 82  1  0  0  0
  2  3  1  0  0  0
  2 25  1  0  0  0
  2 84  1  0  0  0
  2 85  1  0  0  0
  3  4  1  0  0  0
  3 86  1  0  0  0
  3 87  1  0  0  0
  4  5  1  0  0  0
  4 88  1  0  0  0
  4 89  1  0  0  0
  5  6  1  0  0  0
  5 26  1  0  0  0
  5 90  1  0  0  0
  6 25  1  0  0  0
  6 91  1  0  0  0
  6 92  1  0  0  0
  7  8  2  0  0  0
  7 26  1  0  0  0
  7 29  1  0  0  0
  8  9  1  0  0  0
  8 22  1  0  0  0
  9 10  1  0  0  0
  9 27  2  0  0  0
 10 11  2  0  0  0
 10 15  1  0  0  0
 11 12  1  0  0  0
 11 93  1  0  0  0
 12 13  2  0  0  0
 12 94  1  0  0  0
 13 14  1  0  0  0
 13 31  1  0  0  0
 14 15  2  0  0  0
 14 95  1  0  0  0
 15 96  1  0  0  0
 16 17  2  0  0  0
 16 21  1  0  0  0
 16 31  1  0  0  0
 17 18  1  0  0  0
 17 97  1  0  0  0
 18 19  2  0  0  0
 18 98  1  0  0  0
 19 20  1  0  0  0
 19 24  1  0  0  0
 20 21  2  0  0  0
 20 99  1  0  0  0
 21 23  1  0  0  0
 22 28  1  0  0  0
 22 32  2  0  0  0
 26 27  1  0  0  0
 28100  1  0  0  0
 28101  1  0  0  0
 29102  1  0  0  0
 29103  1  0  0  0
 33 34  1  0  0  0
 33 66  1  0  0  0
 33 70  2  0  0  0
 34 36  1  0  0  0
 34 59  1  0  0  0
 34104  1  0  0  0
 35 44  2  0  0  0
 35 45  1  0  0  0
 35 68  1  0  0  0
 36 56  1  0  0  0
 36105  1  0  0  0
 37 39  1  0  0  0
 37 47  1  0  0  0
 37 66  1  0  0  0
 37106  1  0  0  0
 38 43  2  0  0  0
 38 46  1  0  0  0
 38 47  1  0  0  0
 39 64  1  0  0  0
 39 67  2  0  0  0
 40 52  1  0  0  0
 40 53  2  0  0  0
 40 58  1  0  0  0
 41107  1  0  0  0
 41108  1  0  0  0
 41109  1  0  0  0
 41 48  1  0  0  0
 42 43  1  0  0  0
 42 66  1  0  0  0
 42110  1  0  0  0
 42111  1  0  0  0
 43 44  1  0  0  0
 44112  1  0  0  0
 45 46  2  0  0  0
 45113  1  0  0  0
 46114  1  0  0  0
 47115  1  0  0  0
 47116  1  0  0  0
 48 56  1  0  0  0
 48 65  1  0  0  0
 48117  1  0  0  0
 49 50  1  0  0  0
 49 53  1  0  0  0
 49 64  1  0  0  0
 49118  1  0  0  0
 50 51  1  0  0  0
 50119  1  0  0  0
 50120  1  0  0  0
 51 52  1  0  0  0
 51121  1  0  0  0
 51122  1  0  0  0
 52123  1  0  0  0
 52124  1  0  0  0
 53 54  1  0  0  0
 54 55  2  0  0  0
 54125  1  0  0  0
 55 57  1  0  0  0
 55126  1  0  0  0
 56 69  2  0  0  0
 57 58  2  0  0  0
 57127  1  0  0  0
 58128  1  0  0  0
 59 60  1  0  0  0
 59 61  1  0  0  0
 59 62  1  0  0  0
 60129  1  0  0  0
 60130  1  0  0  0
 60131  1  0  0  0
 61132  1  0  0  0
 61133  1  0  0  0
 61134  1  0  0  0
 62135  1  0  0  0
 62136  1  0  0  0
 62137  1  0  0  0
 63 65  1  0  0  0
 63138  1  0  0  0
 63139  1  0  0  0
 63140  1  0  0  0
 64141  1  0  0  0
 65142  1  0  0  0
 68 81  1  0  0  0
 71 72  2  0  0  0
 71 74  1  0  0  0
 71143  1  0  0  0
 72 75  1  0  0  0
 72144  1  0  0  0
 73 74  2  0  0  0
 73 76  1  0  0  0
 73145  1  0  0  0
 74 78  1  0  0  0
 75 76  2  0  0  0
 75 77  1  0  0  0
 76 82  1  0  0  0
 77146  1  0  0  0
 77147  1  0  0  0
 77148  1  0  0  0
 78 83  1  0  0  0
 78149  1  0  0  0
 78150  1  0  0  0
 79 80  1  0  0  0
 79 81  1  0  0  0
 79151  1  0  0  0
 79152  1  0  0  0
 80 83  1  0  0  0
 80153  1  0  0  0
 80154  1  0  0  0
 81155  1  0  0  0
 81156  1  0  0  0
 82157  1  0  0  0
 83158  1  0  0  0
 83159  1  0  0  0
M  CHG  1  83   1
M  ISO  4   1 100  68 101  81 101  82 100
M  END
> <chiral flag>
0

> <version>
0

> <s_m_source_file>
/data/baiqing/PycharmProjects/Reinvent-master-3.2/result/LINK_invent/BTK/process_docking_weight1_custom_product_contain_oxygen_bond_distance_aromatic_linkinvent_7_9_3/rearranged_h_0044.sdf

> <i_m_source_file_index>
1

> <r_mmod_Potential_Energy-OPLS-2005>
-195.242248535156

> <r_mmod_Stretch_Energy-OPLS-2005>
54.0150680541992

> <r_mmod_Bend_Energy-OPLS-2005>
122.050567626953

> <r_mmod_Torsional_Energy-OPLS-2005>
249.226974487305

> <r_mmod_Improper_Torsional_Energy-OPLS-2005>
5.53120994567871

> <r_mmod_Van_der_Waal_Energy-OPLS-2005>
147.071975708008

> <r_mmod_Electrostatic_Energy-OPLS-2005>
-320.497589111328

> <r_mmod_Solvation_Energy-OPLS-2005>
-485.327697753906

> <b_mmod_Minimization_Converged-OPLS-2005>
0

> <r_mmod_RMS_Derivative-OPLS-2005>
2.98291420936584

$$$$
1
                    3D
 Structure written by MMmdl.
168177  0  0  1  0            999 V2000
  -30.6599  -14.6531   20.5246 C   0  0  0  0  0  0
  -30.4411  -12.4055   19.4654 C   0  0  0  0  0  0
  -29.5151  -12.5195   18.2338 C   0  0  0  0  0  0
  -28.0378  -12.3525   18.6417 C   0  0  0  0  0  0
  -27.6517  -13.2257   19.8650 C   0  0  2  0  0  0
  -28.7003  -13.0984   20.9973 C   0  0  0  0  0  0
  -25.2370  -13.7995   20.5530 C   0  0  0  0  0  0
  -24.1731  -13.0287   20.9207 C   0  0  0  0  0  0
  -24.6394  -11.6809   20.8767 C   0  0  0  0  0  0
  -23.9077  -10.4215   21.0413 C   0  0  0  0  0  0
  -24.3611   -9.4141   21.9196 C   0  0  0  0  0  0
  -23.6266   -8.2196   22.0764 C   0  0  0  0  0  0
  -22.4246   -8.0256   21.3555 C   0  0  0  0  0  0
  -21.9895   -9.0232   20.4656 C   0  0  0  0  0  0
  -22.7251  -10.2090   20.3053 C   0  0  0  0  0  0
  -21.6842   -6.0715   22.5272 C   0  0  0  0  0  0
  -21.4024   -6.5622   23.8208 C   0  0  0  0  0  0
  -21.3657   -5.6774   24.9167 C   0  0  0  0  0  0
  -21.6031   -4.3038   24.7217 C   0  0  0  0  0  0
  -21.8822   -3.8134   23.4342 C   0  0  0  0  0  0
  -21.9193   -4.6947   22.3397 C   0  0  0  0  0  0
  -22.7758  -13.5110   21.1849 C   0  0  0  0  0  0
  -22.1663   -4.2135   21.0975 F   0  0  0  0  0  0
  -21.5614   -3.4528   25.7736 F   0  0  0  0  0  0
  -30.0230  -13.4367   20.4398 N   0  0  0  0  0  0
  -26.2952  -12.9319   20.3311 N   0  0  0  0  0  0
  -25.9346  -11.6468   20.5801 N   0  0  0  0  0  0
  -22.0412  -12.8160   22.0456 N   0  0  0  0  0  0
  -25.3664  -15.1630   20.3583 N   0  0  0  0  0  0
  -31.8109  -14.8006   20.1060 O   0  0  0  0  0  0
  -21.6615   -6.8855   21.4237 O   0  0  0  0  0  0
  -22.3451  -14.5417   20.6679 O   0  0  0  0  0  0
  -24.6265  -31.8593   23.2032 C   0  0  0  0  0  0
  -25.9103  -32.4780   23.8369 C   0  0  1  0  0  0
  -27.2436  -27.3077   20.1344 C   0  0  0  0  0  0
  -25.5917  -33.8582   24.2284 N   0  0  0  0  0  0
  -23.4238  -30.4809   21.5451 C   0  0  2  0  0  0
  -24.8778  -28.9315   20.1190 C   0  0  0  0  0  0
  -22.7486  -29.4622   22.4939 C   0  0  0  0  0  0
  -18.0289  -28.1380   22.8477 C   0  0  0  0  0  0
  -24.1484  -36.7297   23.2631 C   0  0  0  0  0  0
  -25.9662  -30.7821   21.3841 C   0  0  0  0  0  0
  -26.0423  -29.4055   20.7354 C   0  0  0  0  0  0
  -27.2259  -28.6049   20.7360 C   0  0  0  0  0  0
  -26.0684  -26.9130   19.4573 C   0  0  0  0  0  0
  -24.8914  -27.6870   19.4719 C   0  0  0  0  0  0
  -23.6452  -29.8126   20.1626 C   0  0  0  0  0  0
  -25.4098  -36.3090   24.0337 C   0  0  1  0  0  0
  -20.5890  -28.3693   23.1268 C   0  0  2  0  0  0
  -20.6773  -26.9415   22.5400 C   0  0  0  0  0  0
  -19.5752  -26.6383   21.5196 C   0  0  0  0  0  0
  -18.1933  -26.7920   22.1612 C   0  0  0  0  0  0
  -19.1544  -28.8850   23.2863 C   0  0  0  0  0  0
  -18.9467  -30.1449   23.8882 C   0  0  0  0  0  0
  -17.6470  -30.6578   24.0564 C   0  0  0  0  0  0
  -25.9051  -34.9460   23.5109 C   0  0  0  0  0  0
  -16.5358  -29.9077   23.6337 C   0  0  0  0  0  0
  -16.7278  -28.6498   23.0345 C   0  0  0  0  0  0
  -26.4479  -31.6588   25.0742 C   0  0  0  0  0  0
  -25.3704  -31.3737   26.1469 C   0  0  0  0  0  0
  -27.0347  -30.3011   24.6218 C   0  0  0  0  0  0
  -27.6031  -32.4335   25.7503 C   0  0  0  0  0  0
  -27.5600  -37.1763   24.8427 C   0  0  0  0  0  0
  -21.4199  -29.3046   22.3662 N   0  0  0  0  0  0
  -26.4256  -37.3808   23.9462 N   0  0  0  0  0  0
  -24.6902  -31.0583   22.1009 N   0  0  0  0  0  0
  -23.4192  -28.8172   23.3041 O   0  0  0  0  0  0
  -28.3833  -26.4774   20.1088 O   0  0  0  0  0  0
  -26.5629  -34.8922   22.4683 O   0  0  0  0  0  0
  -23.5417  -32.1410   23.7328 O   0  0  0  0  0  0
  -31.1539  -19.3484   20.4118 C   0  0  0  0  0  0
  -31.1793  -17.9265   20.6098 C   0  0  0  0  0  0
  -28.7677  -19.3396   20.5875 C   0  0  0  0  0  0
  -29.9390  -20.0987   20.3719 C   0  0  0  0  0  0
  -28.7881  -17.9359   20.8121 C   0  0  0  0  0  0
  -29.9882  -17.1661   20.7891 C   0  0  0  0  0  0
  -29.6855  -24.2398   20.4311 C   0  0  0  0  0  0
  -33.1660  -24.7567   19.2269 C   0  0  0  0  0  0
  -30.8149  -24.7865   19.9267 C   0  0  0  0  0  0
  -32.1131  -24.1449   19.7923 C   0  0  0  0  0  0
  -27.1503  -22.8242   21.0851 C   0  0  0  0  0  0
  -27.1221  -24.2311   20.4491 C   0  0  0  0  0  0
  -28.4676  -22.5048   21.8107 C   0  0  0  0  0  0
  -28.3840  -25.0974   20.6968 C   0  0  2  0  0  0
  -27.4485  -17.2697   20.9973 C   0  0  0  0  0  0
  -29.8458  -21.6178   19.9210 C   0  0  0  0  0  0
  -29.9035  -15.7076   20.9690 N   0  0  0  0  0  0
  -29.6294  -22.7491   20.9254 N   0  3  1  0  0  0
  -31.4842  -12.5171   19.1654 H   0  0  0  0  0  0
  -30.3666  -11.4125   19.9113 H   0  0  0  0  0  0
  -29.7839  -11.7720   17.4861 H   0  0  0  0  0  0
  -29.6592  -13.4911   17.7579 H   0  0  0  0  0  0
  -27.8747  -11.2995   18.8755 H   0  0  0  0  0  0
  -27.3866  -12.5793   17.7964 H   0  0  0  0  0  0
  -27.6628  -14.2605   19.5220 H   0  0  0  0  0  0
  -28.7088  -12.0819   21.3925 H   0  0  0  0  0  0
  -28.4381  -13.7390   21.8406 H   0  0  0  0  0  0
  -25.2754   -9.5606   22.4781 H   0  0  0  0  0  0
  -23.9960   -7.4578   22.7478 H   0  0  0  0  0  0
  -21.0827   -8.8766   19.8962 H   0  0  0  0  0  0
  -22.3728  -10.9628   19.6155 H   0  0  0  0  0  0
  -21.2041   -7.6135   23.9709 H   0  0  0  0  0  0
  -21.1468   -6.0505   25.9066 H   0  0  0  0  0  0
  -22.0609   -2.7600   23.2840 H   0  0  0  0  0  0
  -22.4019  -11.9833   22.4878 H   0  0  0  0  0  0
  -21.1039  -13.1217   22.2661 H   0  0  0  0  0  0
  -24.5603  -15.7749   20.4087 H   0  0  0  0  0  0
  -26.1564  -15.5834   19.8907 H   0  0  0  0  0  0
  -26.7174  -32.5462   23.1120 H   0  0  0  0  0  0
  -25.0051  -33.9724   25.0421 H   0  0  0  0  0  0
  -22.7188  -31.3017   21.3982 H   0  0  0  0  0  0
  -23.3773  -35.9596   23.3204 H   0  0  0  0  0  0
  -24.3608  -36.9009   22.2068 H   0  0  0  0  0  0
  -23.7177  -37.6446   23.6705 H   0  0  0  0  0  0
  -26.1019  -31.5411   20.6123 H   0  0  0  0  0  0
  -26.8440  -30.8343   22.0162 H   0  0  0  0  0  0
  -28.1218  -28.9722   21.2147 H   0  0  0  0  0  0
  -26.0474  -25.9941   18.8948 H   0  0  0  0  0  0
  -24.0090  -27.3270   18.9610 H   0  0  0  0  0  0
  -23.7721  -30.5888   19.4076 H   0  0  0  0  0  0
  -22.7669  -29.2431   19.8546 H   0  0  0  0  0  0
  -25.1253  -36.1931   25.0823 H   0  0  0  0  0  0
  -20.9973  -28.3264   24.1391 H   0  0  0  0  0  0
  -20.5656  -26.2305   23.3599 H   0  0  0  0  0  0
  -21.6647  -26.7433   22.1211 H   0  0  0  0  0  0
  -19.6918  -25.6291   21.1231 H   0  0  0  0  0  0
  -19.6681  -27.3183   20.6718 H   0  0  0  0  0  0
  -17.4199  -26.6657   21.4018 H   0  0  0  0  0  0
  -18.0349  -26.0054   22.9006 H   0  0  0  0  0  0
  -19.7943  -30.7267   24.2238 H   0  0  0  0  0  0
  -17.5028  -31.6258   24.5167 H   0  0  0  0  0  0
  -15.5356  -30.2976   23.7661 H   0  0  0  0  0  0
  -15.8679  -28.0812   22.7066 H   0  0  0  0  0  0
  -24.5865  -30.7091   25.7811 H   0  0  0  0  0  0
  -24.8899  -32.2908   26.4895 H   0  0  0  0  0  0
  -25.8026  -30.8923   27.0250 H   0  0  0  0  0  0
  -26.2950  -29.6742   24.1219 H   0  0  0  0  0  0
  -27.4018  -29.7285   25.4746 H   0  0  0  0  0  0
  -27.8828  -30.4304   23.9487 H   0  0  0  0  0  0
  -27.2625  -33.3626   26.2084 H   0  0  0  0  0  0
  -28.3822  -32.6908   25.0317 H   0  0  0  0  0  0
  -28.0711  -31.8459   26.5408 H   0  0  0  0  0  0
  -28.2480  -38.0198   24.7708 H   0  0  0  0  0  0
  -28.1234  -36.2753   24.5944 H   0  0  0  0  0  0
  -27.2373  -37.1044   25.8828 H   0  0  0  0  0  0
  -20.9382  -29.8768   21.6869 H   0  0  0  0  0  0
  -26.0126  -38.2850   24.1596 H   0  0  0  0  0  0
  -32.0941  -19.8552   20.2411 H   0  0  0  0  0  0
  -32.1345  -17.4195   20.6106 H   0  0  0  0  0  0
  -27.8091  -19.8371   20.5364 H   0  0  0  0  0  0
  -34.1206  -24.2550   19.1464 H   0  0  0  0  0  0
  -33.1019  -25.7631   18.8370 H   0  0  0  0  0  0
  -30.7625  -25.8316   19.6518 H   0  0  0  0  0  0
  -32.2774  -23.1449   20.1648 H   0  0  0  0  0  0
  -26.9670  -22.0796   20.3111 H   0  0  0  0  0  0
  -26.3198  -22.7178   21.7839 H   0  0  0  0  0  0
  -26.2425  -24.7362   20.8451 H   0  0  0  0  0  0
  -26.9723  -24.1155   19.3760 H   0  0  0  0  0  0
  -28.4627  -21.4874   22.2003 H   0  0  0  0  0  0
  -28.5658  -23.1400   22.6917 H   0  0  0  0  0  0
  -28.4185  -25.2995   21.7682 H   0  0  0  0  0  0
  -26.7275  -17.9440   21.4604 H   0  0  0  0  0  0
  -27.5018  -16.3771   21.6197 H   0  0  0  0  0  0
  -27.0802  -17.0109   20.0064 H   0  0  0  0  0  0
  -29.0376  -21.6813   19.1919 H   0  0  0  0  0  0
  -30.7389  -21.8253   19.3356 H   0  0  0  0  0  0
  -29.0064  -15.3954   21.3044 H   0  0  0  0  0  0
  -30.4133  -22.6332   21.5494 H   0  0  0  0  0  0
  1 25  1  0  0  0
  1 30  2  0  0  0
  1 87  1  0  0  0
  2  3  1  0  0  0
  2 25  1  0  0  0
  2 89  1  0  0  0
  2 90  1  0  0  0
  3  4  1  0  0  0
  3 91  1  0  0  0
  3 92  1  0  0  0
  4  5  1  0  0  0
  4 93  1  0  0  0
  4 94  1  0  0  0
  5  6  1  0  0  0
  5 26  1  0  0  0
  5 95  1  0  0  0
  6 25  1  0  0  0
  6 96  1  0  0  0
  6 97  1  0  0  0
  7  8  2  0  0  0
  7 26  1  0  0  0
  7 29  1  0  0  0
  8  9  1  0  0  0
  8 22  1  0  0  0
  9 10  1  0  0  0
  9 27  2  0  0  0
 10 11  2  0  0  0
 10 15  1  0  0  0
 11 12  1  0  0  0
 11 98  1  0  0  0
 12 13  2  0  0  0
 12 99  1  0  0  0
 13 14  1  0  0  0
 13 31  1  0  0  0
 14 15  2  0  0  0
 14100  1  0  0  0
 15101  1  0  0  0
 16 17  2  0  0  0
 16 21  1  0  0  0
 16 31  1  0  0  0
 17 18  1  0  0  0
 17102  1  0  0  0
 18 19  2  0  0  0
 18103  1  0  0  0
 19 20  1  0  0  0
 19 24  1  0  0  0
 20 21  2  0  0  0
 20104  1  0  0  0
 21 23  1  0  0  0
 22 28  1  0  0  0
 22 32  2  0  0  0
 26 27  1  0  0  0
 28105  1  0  0  0
 28106  1  0  0  0
 29107  1  0  0  0
 29108  1  0  0  0
 33 34  1  0  0  0
 33 66  1  0  0  0
 33 70  2  0  0  0
 34 36  1  0  0  0
 34 59  1  0  0  0
 34109  1  0  0  0
 35 44  2  0  0  0
 35 45  1  0  0  0
 35 68  1  0  0  0
 36 56  1  0  0  0
 36110  1  0  0  0
 37 39  1  0  0  0
 37 47  1  0  0  0
 37 66  1  0  0  0
 37111  1  0  0  0
 38 43  2  0  0  0
 38 46  1  0  0  0
 38 47  1  0  0  0
 39 64  1  0  0  0
 39 67  2  0  0  0
 40 52  1  0  0  0
 40 53  2  0  0  0
 40 58  1  0  0  0
 41112  1  0  0  0
 41113  1  0  0  0
 41114  1  0  0  0
 41 48  1  0  0  0
 42 43  1  0  0  0
 42 66  1  0  0  0
 42115  1  0  0  0
 42116  1  0  0  0
 43 44  1  0  0  0
 44117  1  0  0  0
 45 46  2  0  0  0
 45118  1  0  0  0
 46119  1  0  0  0
 47120  1  0  0  0
 47121  1  0  0  0
 48 56  1  0  0  0
 48 65  1  0  0  0
 48122  1  0  0  0
 49 50  1  0  0  0
 49 53  1  0  0  0
 49 64  1  0  0  0
 49123  1  0  0  0
 50 51  1  0  0  0
 50124  1  0  0  0
 50125  1  0  0  0
 51 52  1  0  0  0
 51126  1  0  0  0
 51127  1  0  0  0
 52128  1  0  0  0
 52129  1  0  0  0
 53 54  1  0  0  0
 54 55  2  0  0  0
 54130  1  0  0  0
 55 57  1  0  0  0
 55131  1  0  0  0
 56 69  2  0  0  0
 57 58  2  0  0  0
 57132  1  0  0  0
 58133  1  0  0  0
 59 60  1  0  0  0
 59 61  1  0  0  0
 59 62  1  0  0  0
 60134  1  0  0  0
 60135  1  0  0  0
 60136  1  0  0  0
 61137  1  0  0  0
 61138  1  0  0  0
 61139  1  0  0  0
 62140  1  0  0  0
 62141  1  0  0  0
 62142  1  0  0  0
 63 65  1  0  0  0
 63143  1  0  0  0
 63144  1  0  0  0
 63145  1  0  0  0
 64146  1  0  0  0
 65147  1  0  0  0
 68 84  1  0  0  0
 71 72  2  0  0  0
 71 74  1  0  0  0
 71148  1  0  0  0
 72 76  1  0  0  0
 72149  1  0  0  0
 73 74  2  0  0  0
 73 75  1  0  0  0
 73150  1  0  0  0
 74 86  1  0  0  0
 75 76  2  0  0  0
 75 85  1  0  0  0
 76 87  1  0  0  0
 77 79  2  0  0  0
 77 84  1  0  0  0
 77 88  1  0  0  0
 78 80  2  0  0  0
 78151  1  0  0  0
 78152  1  0  0  0
 79 80  1  0  0  0
 79153  1  0  0  0
 80154  1  0  0  0
 81 82  1  0  0  0
 81 83  1  0  0  0
 81155  1  0  0  0
 81156  1  0  0  0
 82 84  1  0  0  0
 82157  1  0  0  0
 82158  1  0  0  0
 83 88  1  0  0  0
 83159  1  0  0  0
 83160  1  0  0  0
 84161  1  0  0  0
 85162  1  0  0  0
 85163  1  0  0  0
 85164  1  0  0  0
 86165  1  0  0  0
 86166  1  0  0  0
 86 88  1  0  0  0
 87167  1  0  0  0
 88168  1  0  0  0
M  CHG  1  88   1
M  ISO  4   1 100  68 101  84 101  87 100
M  END
> <chiral flag>
0

> <version>
0

> <s_m_source_file>
/data/baiqing/PycharmProjects/Reinvent-master-3.2/result/LINK_invent/BTK/process_docking_weight1_custom_product_contain_oxygen_bond_distance_aromatic_linkinvent_7_9_3/rearranged_h_0044.sdf

> <i_m_source_file_index>
2

> <r_mmod_Potential_Energy-OPLS-2005>
14.4685888290405

> <r_mmod_Stretch_Energy-OPLS-2005>
100.817565917969

> <r_mmod_Bend_Energy-OPLS-2005>
170.865768432617

> <r_mmod_Torsional_Energy-OPLS-2005>
253.891204833984

> <r_mmod_Improper_Torsional_Energy-OPLS-2005>
6.05265855789185

> <r_mmod_Van_der_Waal_Energy-OPLS-2005>
156.554351806641

> <r_mmod_Electrostatic_Energy-OPLS-2005>
-295.906982421875

> <r_mmod_Solvation_Energy-OPLS-2005>
-427.996124267578

> <b_mmod_Minimization_Converged-OPLS-2005>
0

> <r_mmod_RMS_Derivative-OPLS-2005>
2.15420031547546

$$$$
2
                    3D
 Structure written by MMmdl.
161170  0  0  1  0            999 V2000
  -30.5464  -14.6779   20.5035 C   0  0  0  0  0  0
  -30.4495  -12.4227   19.4409 C   0  0  0  0  0  0
  -29.4994  -12.5074   18.2220 C   0  0  0  0  0  0
  -28.0241  -12.3305   18.6365 C   0  0  0  0  0  0
  -27.6487  -13.1999   19.8625 C   0  0  2  0  0  0
  -28.6932  -13.0373   20.9898 C   0  0  0  0  0  0
  -25.2572  -13.8118   20.5712 C   0  0  0  0  0  0
  -24.1811  -13.0429   20.9210 C   0  0  0  0  0  0
  -24.6324  -11.6880   20.8752 C   0  0  0  0  0  0
  -23.8974  -10.4291   21.0428 C   0  0  0  0  0  0
  -24.3538   -9.4219   21.9214 C   0  0  0  0  0  0
  -23.6236   -8.2237   22.0771 C   0  0  0  0  0  0
  -22.4238   -8.0252   21.3532 C   0  0  0  0  0  0
  -21.9850   -9.0229   20.4645 C   0  0  0  0  0  0
  -22.7148  -10.2135   20.3068 C   0  0  0  0  0  0
  -21.6856   -6.0713   22.5275 C   0  0  0  0  0  0
  -21.4005   -6.5628   23.8207 C   0  0  0  0  0  0
  -21.3652   -5.6778   24.9163 C   0  0  0  0  0  0
  -21.6046   -4.3036   24.7217 C   0  0  0  0  0  0
  -21.8827   -3.8123   23.4345 C   0  0  0  0  0  0
  -21.9194   -4.6939   22.3403 C   0  0  0  0  0  0
  -22.7849  -13.5286   21.1819 C   0  0  0  0  0  0
  -22.1671   -4.2127   21.0980 F   0  0  0  0  0  0
  -21.5620   -3.4510   25.7732 F   0  0  0  0  0  0
  -30.0020  -13.4219   20.4332 N   0  0  0  0  0  0
  -26.2947  -12.9258   20.3300 N   0  0  0  0  0  0
  -25.9249  -11.6427   20.5760 N   0  0  0  0  0  0
  -22.0393  -12.8341   22.0337 N   0  0  0  0  0  0
  -25.4333  -15.1829   20.4163 N   0  0  0  0  0  0
  -31.7042  -14.9005   20.1264 O   0  0  0  0  0  0
  -21.6617   -6.8842   21.4233 O   0  0  0  0  0  0
  -22.3595  -14.5591   20.6629 O   0  0  0  0  0  0
  -24.6258  -31.8607   23.2033 C   0  0  0  0  0  0
  -25.9113  -32.4788   23.8339 C   0  0  1  0  0  0
  -27.2186  -27.3276   20.0981 C   0  0  0  0  0  0
  -25.5938  -33.8581   24.2286 N   0  0  0  0  0  0
  -23.4136  -30.4850   21.5530 C   0  0  2  0  0  0
  -24.8489  -28.9300   20.1279 C   0  0  0  0  0  0
  -22.7441  -29.4641   22.5027 C   0  0  0  0  0  0
  -18.0276  -28.1402   22.8511 C   0  0  0  0  0  0
  -24.1437  -36.7243   23.2647 C   0  0  0  0  0  0
  -25.9502  -30.8015   21.3534 C   0  0  0  0  0  0
  -26.0240  -29.4248   20.7030 C   0  0  0  0  0  0
  -27.2112  -28.6367   20.6732 C   0  0  0  0  0  0
  -25.9904  -26.8510   19.5878 C   0  0  0  0  0  0
  -24.8289  -27.6438   19.5710 C   0  0  0  0  0  0
  -23.6210  -29.8135   20.1707 C   0  0  0  0  0  0
  -25.4070  -36.3079   24.0354 C   0  0  1  0  0  0
  -20.5874  -28.3675   23.1339 C   0  0  2  0  0  0
  -20.6773  -26.9420   22.5430 C   0  0  0  0  0  0
  -19.5742  -26.6399   21.5245 C   0  0  0  0  0  0
  -18.1913  -26.7956   22.1631 C   0  0  0  0  0  0
  -19.1528  -28.8858   23.2904 C   0  0  0  0  0  0
  -18.9462  -30.1479   23.8887 C   0  0  0  0  0  0
  -17.6470  -30.6621   24.0574 C   0  0  0  0  0  0
  -25.9027  -34.9461   23.5100 C   0  0  0  0  0  0
  -16.5356  -29.9124   23.6358 C   0  0  0  0  0  0
  -16.7265  -28.6539   23.0378 C   0  0  0  0  0  0
  -26.4505  -31.6615   25.0692 C   0  0  0  0  0  0
  -25.3778  -31.3812   26.1465 C   0  0  0  0  0  0
  -27.0344  -30.3069   24.6082 C   0  0  0  0  0  0
  -27.6045  -32.4363   25.7486 C   0  0  0  0  0  0
  -27.5543  -37.1774   24.8479 C   0  0  0  0  0  0
  -21.4157  -29.3039   22.3759 N   0  0  0  0  0  0
  -26.4235  -37.3789   23.9456 N   0  0  0  0  0  0
  -24.6843  -31.0631   22.0967 N   0  0  0  0  0  0
  -23.4166  -28.8195   23.3112 O   0  0  0  0  0  0
  -28.3908  -26.5554   20.0781 O   0  0  0  0  0  0
  -26.5546  -34.8941   22.4636 O   0  0  0  0  0  0
  -23.5439  -32.1387   23.7404 O   0  0  0  0  0  0
  -30.3343  -19.4638   20.4176 C   0  0  0  0  0  0
  -30.5701  -18.0470   20.4244 C   0  0  0  0  0  0
  -28.2635  -17.6994   20.9774 C   0  0  0  0  0  0
  -29.0612  -20.0403   20.7043 C   0  0  0  0  0  0
  -29.5375  -17.1189   20.7340 C   0  0  0  0  0  0
  -28.0199  -19.1035   20.9586 C   0  0  0  0  0  0
  -28.2759  -23.9385   20.2128 C   0  0  0  0  0  0
  -27.9408  -23.9500   17.1944 C   0  0  0  0  0  0
  -29.2056  -23.1017   17.3363 C   0  0  0  0  0  0
  -28.1340  -25.3103   17.8671 C   0  0  0  0  0  0
  -29.2435  -22.1793   18.5715 C   0  0  0  0  0  0
  -28.5620  -25.2589   19.3637 C   0  0  1  0  0  0
  -28.8643  -21.5965   20.9624 C   0  0  0  0  0  0
  -28.7490  -22.6635   19.8840 N   0  0  0  0  0  0
  -29.6522  -15.6592   20.8651 N   0  0  0  0  0  0
  -27.6922  -24.1143   21.2884 O   0  0  0  0  0  0
  -26.4142  -19.6428   21.3108 Cl  0  0  0  0  0  0
  -31.4768  -12.6048   19.1219 H   0  0  0  0  0  0
  -30.4389  -11.4226   19.8759 H   0  0  0  0  0  0
  -29.7716  -11.7549   17.4822 H   0  0  0  0  0  0
  -29.6160  -13.4742   17.7289 H   0  0  0  0  0  0
  -27.8682  -11.2758   18.8726 H   0  0  0  0  0  0
  -27.3614  -12.5542   17.7987 H   0  0  0  0  0  0
  -27.6695  -14.2354   19.5217 H   0  0  0  0  0  0
  -28.7195  -12.0037   21.3376 H   0  0  0  0  0  0
  -28.4240  -13.6330   21.8630 H   0  0  0  0  0  0
  -25.2669   -9.5731   22.4794 H   0  0  0  0  0  0
  -23.9928   -7.4641   22.7517 H   0  0  0  0  0  0
  -21.0756   -8.8734   19.8979 H   0  0  0  0  0  0
  -22.3568  -10.9659   19.6172 H   0  0  0  0  0  0
  -21.1997   -7.6146   23.9700 H   0  0  0  0  0  0
  -21.1470   -6.0506   25.9073 H   0  0  0  0  0  0
  -22.0618   -2.7582   23.2833 H   0  0  0  0  0  0
  -22.3912  -12.0011   22.4803 H   0  0  0  0  0  0
  -21.1029  -13.1492   22.2452 H   0  0  0  0  0  0
  -24.6677  -15.8355   20.5494 H   0  0  0  0  0  0
  -26.2498  -15.6044   19.9960 H   0  0  0  0  0  0
  -26.7171  -32.5463   23.1086 H   0  0  0  0  0  0
  -25.0242  -33.9725   25.0545 H   0  0  0  0  0  0
  -22.7101  -31.3076   21.4115 H   0  0  0  0  0  0
  -23.3740  -35.9532   23.3311 H   0  0  0  0  0  0
  -24.3549  -36.8839   22.2063 H   0  0  0  0  0  0
  -23.7120  -37.6425   23.6641 H   0  0  0  0  0  0
  -26.0505  -31.5612   20.5768 H   0  0  0  0  0  0
  -26.8435  -30.8692   21.9627 H   0  0  0  0  0  0
  -28.1232  -29.0266   21.1022 H   0  0  0  0  0  0
  -25.8878  -25.8395   19.2294 H   0  0  0  0  0  0
  -23.9119  -27.2369   19.1665 H   0  0  0  0  0  0
  -23.7485  -30.5845   19.4109 H   0  0  0  0  0  0
  -22.7374  -29.2462   19.8710 H   0  0  0  0  0  0
  -25.1252  -36.1917   25.0851 H   0  0  0  0  0  0
  -20.9939  -28.3222   24.1477 H   0  0  0  0  0  0
  -20.5725  -26.2276   23.3608 H   0  0  0  0  0  0
  -21.6637  -26.7518   22.1192 H   0  0  0  0  0  0
  -19.6898  -25.6314   21.1267 H   0  0  0  0  0  0
  -19.6682  -27.3214   20.6787 H   0  0  0  0  0  0
  -17.4207  -26.6747   21.4010 H   0  0  0  0  0  0
  -18.0266  -26.0093   22.9012 H   0  0  0  0  0  0
  -19.7946  -30.7309   24.2196 H   0  0  0  0  0  0
  -17.5049  -31.6297   24.5177 H   0  0  0  0  0  0
  -15.5354  -30.3035   23.7713 H   0  0  0  0  0  0
  -15.8657  -28.0878   22.7086 H   0  0  0  0  0  0
  -24.5879  -30.7215   25.7875 H   0  0  0  0  0  0
  -24.9052  -32.3010   26.4921 H   0  0  0  0  0  0
  -25.8138  -30.9001   27.0225 H   0  0  0  0  0  0
  -26.2893  -29.6825   24.1121 H   0  0  0  0  0  0
  -27.4135  -29.7331   25.4547 H   0  0  0  0  0  0
  -27.8717  -30.4439   23.9230 H   0  0  0  0  0  0
  -27.2635  -33.3698   26.1991 H   0  0  0  0  0  0
  -28.3913  -32.6861   25.0358 H   0  0  0  0  0  0
  -28.0613  -31.8510   26.5478 H   0  0  0  0  0  0
  -28.2588  -38.0051   24.7547 H   0  0  0  0  0  0
  -28.1002  -36.2589   24.6270 H   0  0  0  0  0  0
  -27.2272  -37.1394   25.8883 H   0  0  0  0  0  0
  -20.9324  -29.8776   21.6996 H   0  0  0  0  0  0
  -26.0107  -38.2848   24.1524 H   0  0  0  0  0  0
  -31.1742  -20.1223   20.2421 H   0  0  0  0  0  0
  -31.5671  -17.6849   20.2269 H   0  0  0  0  0  0
  -27.4281  -17.0583   21.2177 H   0  0  0  0  0  0
  -27.0623  -23.4332   17.5849 H   0  0  0  0  0  0
  -27.7277  -24.1137   16.1382 H   0  0  0  0  0  0
  -30.0919  -23.7387   17.3122 H   0  0  0  0  0  0
  -29.3032  -22.4781   16.4425 H   0  0  0  0  0  0
  -27.2523  -25.9097   17.6706 H   0  0  0  0  0  0
  -28.9087  -25.8605   17.3292 H   0  0  0  0  0  0
  -30.2726  -21.8378   18.6922 H   0  0  0  0  0  0
  -28.6665  -21.2898   18.3084 H   0  0  0  0  0  0
  -29.6487  -25.2035   19.3026 H   0  0  0  0  0  0
  -29.7181  -21.8940   21.5729 H   0  0  0  0  0  0
  -28.0268  -21.7014   21.6522 H   0  0  0  0  0  0
  -28.7929  -15.2321   21.1765 H   0  0  0  0  0  0
  1 25  1  0  0  0
  1 30  2  0  0  0
  1 85  1  0  0  0
  2  3  1  0  0  0
  2 25  1  0  0  0
  2 88  1  0  0  0
  2 89  1  0  0  0
  3  4  1  0  0  0
  3 90  1  0  0  0
  3 91  1  0  0  0
  4  5  1  0  0  0
  4 92  1  0  0  0
  4 93  1  0  0  0
  5  6  1  0  0  0
  5 26  1  0  0  0
  5 94  1  0  0  0
  6 25  1  0  0  0
  6 95  1  0  0  0
  6 96  1  0  0  0
  7  8  2  0  0  0
  7 26  1  0  0  0
  7 29  1  0  0  0
  8  9  1  0  0  0
  8 22  1  0  0  0
  9 10  1  0  0  0
  9 27  2  0  0  0
 10 11  2  0  0  0
 10 15  1  0  0  0
 11 12  1  0  0  0
 11 97  1  0  0  0
 12 13  2  0  0  0
 12 98  1  0  0  0
 13 14  1  0  0  0
 13 31  1  0  0  0
 14 15  2  0  0  0
 14 99  1  0  0  0
 15100  1  0  0  0
 16 17  2  0  0  0
 16 21  1  0  0  0
 16 31  1  0  0  0
 17 18  1  0  0  0
 17101  1  0  0  0
 18 19  2  0  0  0
 18102  1  0  0  0
 19 20  1  0  0  0
 19 24  1  0  0  0
 20 21  2  0  0  0
 20103  1  0  0  0
 21 23  1  0  0  0
 22 28  1  0  0  0
 22 32  2  0  0  0
 26 27  1  0  0  0
 28104  1  0  0  0
 28105  1  0  0  0
 29106  1  0  0  0
 29107  1  0  0  0
 33 34  1  0  0  0
 33 66  1  0  0  0
 33 70  2  0  0  0
 34 36  1  0  0  0
 34 59  1  0  0  0
 34108  1  0  0  0
 35 44  2  0  0  0
 35 45  1  0  0  0
 35 68  1  0  0  0
 36 56  1  0  0  0
 36109  1  0  0  0
 37 39  1  0  0  0
 37 47  1  0  0  0
 37 66  1  0  0  0
 37110  1  0  0  0
 38 43  2  0  0  0
 38 46  1  0  0  0
 38 47  1  0  0  0
 39 64  1  0  0  0
 39 67  2  0  0  0
 40 52  1  0  0  0
 40 53  2  0  0  0
 40 58  1  0  0  0
 41111  1  0  0  0
 41112  1  0  0  0
 41113  1  0  0  0
 41 48  1  0  0  0
 42 43  1  0  0  0
 42 66  1  0  0  0
 42114  1  0  0  0
 42115  1  0  0  0
 43 44  1  0  0  0
 44116  1  0  0  0
 45 46  2  0  0  0
 45117  1  0  0  0
 46118  1  0  0  0
 47119  1  0  0  0
 47120  1  0  0  0
 48 56  1  0  0  0
 48 65  1  0  0  0
 48121  1  0  0  0
 49 50  1  0  0  0
 49 53  1  0  0  0
 49 64  1  0  0  0
 49122  1  0  0  0
 50 51  1  0  0  0
 50123  1  0  0  0
 50124  1  0  0  0
 51 52  1  0  0  0
 51125  1  0  0  0
 51126  1  0  0  0
 52127  1  0  0  0
 52128  1  0  0  0
 53 54  1  0  0  0
 54 55  2  0  0  0
 54129  1  0  0  0
 55 57  1  0  0  0
 55130  1  0  0  0
 56 69  2  0  0  0
 57 58  2  0  0  0
 57131  1  0  0  0
 58132  1  0  0  0
 59 60  1  0  0  0
 59 61  1  0  0  0
 59 62  1  0  0  0
 60133  1  0  0  0
 60134  1  0  0  0
 60135  1  0  0  0
 61136  1  0  0  0
 61137  1  0  0  0
 61138  1  0  0  0
 62139  1  0  0  0
 62140  1  0  0  0
 62141  1  0  0  0
 63 65  1  0  0  0
 63142  1  0  0  0
 63143  1  0  0  0
 63144  1  0  0  0
 64145  1  0  0  0
 65146  1  0  0  0
 68 82  1  0  0  0
 71 72  2  0  0  0
 71 74  1  0  0  0
 71147  1  0  0  0
 72 75  1  0  0  0
 72148  1  0  0  0
 73 75  2  0  0  0
 73 76  1  0  0  0
 73149  1  0  0  0
 74 76  2  0  0  0
 74 83  1  0  0  0
 75 85  1  0  0  0
 76 87  1  0  0  0
 77 82  1  0  0  0
 77 84  1  0  0  0
 77 86  2  0  0  0
 78 79  1  0  0  0
 78 80  1  0  0  0
 78150  1  0  0  0
 78151  1  0  0  0
 79 81  1  0  0  0
 79152  1  0  0  0
 79153  1  0  0  0
 80 82  1  0  0  0
 80154  1  0  0  0
 80155  1  0  0  0
 81 84  1  0  0  0
 81156  1  0  0  0
 81157  1  0  0  0
 82158  1  0  0  0
 83 84  1  0  0  0
 83159  1  0  0  0
 83160  1  0  0  0
 85161  1  0  0  0
M  ISO  4   1 100  68 101  82 101  85 100
M  END
> <chiral flag>
0

> <version>
0

> <s_m_source_file>
/data/baiqing/PycharmProjects/Reinvent-master-3.2/result/LINK_invent/BTK/process_docking_weight1_custom_product_contain_oxygen_bond_distance_aromatic_linkinvent_7_9_3/rearranged_h_0044.sdf

> <i_m_source_file_index>
3

> <r_mmod_Potential_Energy-OPLS-2005>
243.503570556641

> <r_mmod_Stretch_Energy-OPLS-2005>
98.3858871459961

> <r_mmod_Bend_Energy-OPLS-2005>
215.539688110352

> <r_mmod_Torsional_Energy-OPLS-2005>
248.726593017578

> <r_mmod_Improper_Torsional_Energy-OPLS-2005>
6.9037299156189

> <r_mmod_Van_der_Waal_Energy-OPLS-2005>
152.571548461914

> <r_mmod_Electrostatic_Energy-OPLS-2005>
-303.390380859375

> <r_mmod_Solvation_Energy-OPLS-2005>
-229.662078857422

> <b_mmod_Minimization_Converged-OPLS-2005>
0

> <r_mmod_RMS_Derivative-OPLS-2005>
3.94574403762817

$$$$
3
                    3D
 Structure written by MMmdl.
171180  0  0  1  0            999 V2000
  -30.5918  -14.6855   20.4941 C   0  0  0  0  0  0
  -30.4452  -12.4206   19.4569 C   0  0  0  0  0  0
  -29.5098  -12.5172   18.2296 C   0  0  0  0  0  0
  -28.0338  -12.3443   18.6414 C   0  0  0  0  0  0
  -27.6531  -13.2155   19.8677 C   0  0  2  0  0  0
  -28.6997  -13.0787   20.9969 C   0  0  0  0  0  0
  -25.2552  -13.8166   20.5695 C   0  0  0  0  0  0
  -24.1820  -13.0431   20.9188 C   0  0  0  0  0  0
  -24.6390  -11.6903   20.8742 C   0  0  0  0  0  0
  -23.9058  -10.4292   21.0411 C   0  0  0  0  0  0
  -24.3613   -9.4206   21.9187 C   0  0  0  0  0  0
  -23.6293   -8.2239   22.0756 C   0  0  0  0  0  0
  -22.4274   -8.0279   21.3546 C   0  0  0  0  0  0
  -21.9907   -9.0248   20.4645 C   0  0  0  0  0  0
  -22.7230  -10.2132   20.3058 C   0  0  0  0  0  0
  -21.6853   -6.0735   22.5281 C   0  0  0  0  0  0
  -21.4011   -6.5640   23.8213 C   0  0  0  0  0  0
  -21.3660   -5.6796   24.9177 C   0  0  0  0  0  0
  -21.6051   -4.3055   24.7229 C   0  0  0  0  0  0
  -21.8819   -3.8143   23.4349 C   0  0  0  0  0  0
  -21.9192   -4.6960   22.3406 C   0  0  0  0  0  0
  -22.7843  -13.5221   21.1855 C   0  0  0  0  0  0
  -22.1663   -4.2145   21.0983 F   0  0  0  0  0  0
  -21.5629   -3.4539   25.7740 F   0  0  0  0  0  0
  -30.0099  -13.4428   20.4322 N   0  0  0  0  0  0
  -26.2988  -12.9343   20.3353 N   0  0  0  0  0  0
  -25.9322  -11.6496   20.5775 N   0  0  0  0  0  0
  -22.0495  -12.8205   22.0410 N   0  0  0  0  0  0
  -25.4265  -15.1894   20.4127 N   0  0  0  0  0  0
  -31.7516  -14.8664   20.1100 O   0  0  0  0  0  0
  -21.6639   -6.8878   21.4246 O   0  0  0  0  0  0
  -22.3528  -14.5528   20.6710 O   0  0  0  0  0  0
  -24.6277  -31.8570   23.2011 C   0  0  0  0  0  0
  -25.9117  -32.4762   23.8344 C   0  0  1  0  0  0
  -27.2305  -27.3007   20.1035 C   0  0  0  0  0  0
  -25.5923  -33.8566   24.2264 N   0  0  0  0  0  0
  -23.4228  -30.4810   21.5426 C   0  0  2  0  0  0
  -24.8706  -28.9348   20.1056 C   0  0  0  0  0  0
  -22.7482  -29.4613   22.4917 C   0  0  0  0  0  0
  -18.0289  -28.1381   22.8487 C   0  0  0  0  0  0
  -24.1490  -36.7293   23.2639 C   0  0  0  0  0  0
  -25.9661  -30.7800   21.3769 C   0  0  0  0  0  0
  -26.0389  -29.4064   20.7166 C   0  0  0  0  0  0
  -27.2156  -28.5965   20.7142 C   0  0  0  0  0  0
  -26.0355  -26.8861   19.4792 C   0  0  0  0  0  0
  -24.8717  -27.6788   19.4808 C   0  0  0  0  0  0
  -23.6385  -29.8163   20.1573 C   0  0  0  0  0  0
  -25.4115  -36.3076   24.0323 C   0  0  1  0  0  0
  -20.5892  -28.3694   23.1269 C   0  0  2  0  0  0
  -20.6773  -26.9414   22.5408 C   0  0  0  0  0  0
  -19.5752  -26.6383   21.5208 C   0  0  0  0  0  0
  -18.1933  -26.7925   22.1621 C   0  0  0  0  0  0
  -19.1542  -28.8854   23.2874 C   0  0  0  0  0  0
  -18.9465  -30.1453   23.8895 C   0  0  0  0  0  0
  -17.6465  -30.6587   24.0560 C   0  0  0  0  0  0
  -25.9055  -34.9443   23.5099 C   0  0  0  0  0  0
  -16.5356  -29.9084   23.6328 C   0  0  0  0  0  0
  -16.7274  -28.6497   23.0357 C   0  0  0  0  0  0
  -26.4498  -31.6585   25.0727 C   0  0  0  0  0  0
  -25.3731  -31.3719   26.1453 C   0  0  0  0  0  0
  -27.0347  -30.3003   24.6209 C   0  0  0  0  0  0
  -27.6056  -32.4324   25.7500 C   0  0  0  0  0  0
  -27.5579  -37.1802   24.8462 C   0  0  0  0  0  0
  -21.4192  -29.3043   22.3656 N   0  0  0  0  0  0
  -26.4290  -37.3774   23.9405 N   0  0  0  0  0  0
  -24.6910  -31.0564   22.0971 N   0  0  0  0  0  0
  -23.4195  -28.8153   23.3003 O   0  0  0  0  0  0
  -28.3430  -26.4403   20.1989 O   0  0  0  0  0  0
  -26.5629  -34.8911   22.4668 O   0  0  0  0  0  0
  -23.5437  -32.1379   23.7330 O   0  0  0  0  0  0
  -28.8441  -19.2116   19.5671 C   0  0  0  0  0  0
  -30.1604  -18.0491   21.7252 C   0  0  0  0  0  0
  -29.1330  -20.0777   20.6612 C   0  0  0  0  0  0
  -29.1407  -17.8078   19.5678 C   0  0  0  0  0  0
  -29.8626  -19.4532   21.7256 C   0  0  0  0  0  0
  -29.7761  -17.1738   20.6753 C   0  0  0  0  0  0
  -28.0180  -23.8560   19.4548 C   0  0  0  0  0  0
  -25.3124  -21.9786   17.6932 C   0  0  0  0  0  0
  -26.9914  -23.4722   18.6520 C   0  0  0  0  0  0
  -26.4697  -22.1528   18.3498 C   0  0  0  0  0  0
  -30.9154  -24.2517   19.8509 C   0  0  0  0  0  0
  -30.1399  -25.2626   18.9879 C   0  0  0  0  0  0
  -30.3283  -22.8311   19.7452 C   0  0  0  0  0  0
  -28.6193  -25.3205   19.2624 C   0  0  2  0  0  0
  -28.6854  -16.9753   18.3823 C   0  0  0  0  0  0
  -30.2646  -20.2461   22.9591 C   0  0  0  0  0  0
  -28.4338  -21.5143   20.8098 C   0  0  0  0  0  0
  -29.7566  -15.7139   20.8659 N   0  0  0  0  0  0
  -28.9372  -22.8465   20.2325 N   0  3  2  0  0  0
  -31.4835  -12.5615   19.1511 H   0  0  0  0  0  0
  -30.3953  -11.4261   19.9038 H   0  0  0  0  0  0
  -29.7794  -11.7660   17.4862 H   0  0  0  0  0  0
  -29.6405  -13.4869   17.7465 H   0  0  0  0  0  0
  -27.8744  -11.2904   18.8726 H   0  0  0  0  0  0
  -27.3780  -12.5712   17.8005 H   0  0  0  0  0  0
  -27.6662  -14.2488   19.5244 H   0  0  0  0  0  0
  -28.7245  -12.0553   21.3749 H   0  0  0  0  0  0
  -28.4380  -13.7011   21.8538 H   0  0  0  0  0  0
  -25.2762   -9.5678   22.4750 H   0  0  0  0  0  0
  -24.0004   -7.4629   22.7475 H   0  0  0  0  0  0
  -21.0841   -8.8769   19.8945 H   0  0  0  0  0  0
  -22.3695  -10.9673   19.6162 H   0  0  0  0  0  0
  -21.2007   -7.6151   23.9709 H   0  0  0  0  0  0
  -21.1483   -6.0533   25.9083 H   0  0  0  0  0  0
  -22.0599   -2.7603   23.2854 H   0  0  0  0  0  0
  -22.4121  -11.9867   22.4789 H   0  0  0  0  0  0
  -21.1113  -13.1225   22.2631 H   0  0  0  0  0  0
  -24.6576  -15.8412   20.5227 H   0  0  0  0  0  0
  -26.2802  -15.6348   20.1027 H   0  0  0  0  0  0
  -26.7184  -32.5429   23.1091 H   0  0  0  0  0  0
  -25.0056  -33.9709   25.0398 H   0  0  0  0  0  0
  -22.7172  -31.3022   21.3990 H   0  0  0  0  0  0
  -23.3754  -35.9627   23.3297 H   0  0  0  0  0  0
  -24.3573  -36.8931   22.2055 H   0  0  0  0  0  0
  -23.7250  -37.6491   23.6672 H   0  0  0  0  0  0
  -26.1012  -31.5446   20.6103 H   0  0  0  0  0  0
  -26.8441  -30.8263   22.0100 H   0  0  0  0  0  0
  -28.1083  -28.9505   21.2102 H   0  0  0  0  0  0
  -25.9572  -25.9189   19.0233 H   0  0  0  0  0  0
  -23.9735  -27.3044   19.0086 H   0  0  0  0  0  0
  -23.7572  -30.5930   19.4010 H   0  0  0  0  0  0
  -22.7577  -29.2464   19.8561 H   0  0  0  0  0  0
  -25.1300  -36.1923   25.0816 H   0  0  0  0  0  0
  -20.9986  -28.3279   24.1388 H   0  0  0  0  0  0
  -20.5663  -26.2310   23.3614 H   0  0  0  0  0  0
  -21.6642  -26.7433   22.1214 H   0  0  0  0  0  0
  -19.6913  -25.6293   21.1241 H   0  0  0  0  0  0
  -19.6685  -27.3185   20.6732 H   0  0  0  0  0  0
  -17.4202  -26.6681   21.4022 H   0  0  0  0  0  0
  -18.0325  -26.0061   22.9012 H   0  0  0  0  0  0
  -19.7940  -30.7265   24.2270 H   0  0  0  0  0  0
  -17.5021  -31.6268   24.5164 H   0  0  0  0  0  0
  -15.5356  -30.2990   23.7643 H   0  0  0  0  0  0
  -15.8675  -28.0808   22.7085 H   0  0  0  0  0  0
  -24.5912  -30.7057   25.7787 H   0  0  0  0  0  0
  -24.8908  -32.2876   26.4876 H   0  0  0  0  0  0
  -25.8056  -30.8904   27.0233 H   0  0  0  0  0  0
  -26.2929  -29.6743   24.1232 H   0  0  0  0  0  0
  -27.4029  -29.7271   25.4731 H   0  0  0  0  0  0
  -27.8805  -30.4279   23.9449 H   0  0  0  0  0  0
  -27.2667  -33.3629   26.2065 H   0  0  0  0  0  0
  -28.3868  -32.6876   25.0327 H   0  0  0  0  0  0
  -28.0718  -31.8455   26.5427 H   0  0  0  0  0  0
  -28.2596  -38.0101   24.7511 H   0  0  0  0  0  0
  -28.1077  -36.2632   24.6291 H   0  0  0  0  0  0
  -27.2291  -37.1458   25.8864 H   0  0  0  0  0  0
  -20.9366  -29.8776   21.6879 H   0  0  0  0  0  0
  -26.0172  -38.2847   24.1413 H   0  0  0  0  0  0
  -28.2962  -19.6036   18.7246 H   0  0  0  0  0  0
  -30.6250  -17.6183   22.6015 H   0  0  0  0  0  0
  -24.9477  -20.9875   17.4606 H   0  0  0  0  0  0
  -24.7061  -22.8156   17.3737 H   0  0  0  0  0  0
  -26.5639  -24.2440   18.0318 H   0  0  0  0  0  0
  -27.0131  -21.2632   18.6040 H   0  0  0  0  0  0
  -30.9262  -24.5823   20.8904 H   0  0  0  0  0  0
  -31.9580  -24.2319   19.5322 H   0  0  0  0  0  0
  -30.2857  -24.9838   17.9433 H   0  0  0  0  0  0
  -30.5777  -26.2569   19.0841 H   0  0  0  0  0  0
  -30.9337  -22.1512   20.3461 H   0  0  0  0  0  0
  -30.3566  -22.4633   18.7192 H   0  0  0  0  0  0
  -28.2120  -25.6826   18.3168 H   0  0  0  0  0  0
  -28.5151  -17.5977   17.5037 H   0  0  0  0  0  0
  -27.7544  -16.4592   18.6129 H   0  0  0  0  0  0
  -29.4370  -16.2316   18.1149 H   0  0  0  0  0  0
  -31.0607  -19.7435   23.5096 H   0  0  0  0  0  0
  -29.4161  -20.3601   23.6344 H   0  0  0  0  0  0
  -30.6354  -21.2361   22.6954 H   0  0  0  0  0  0
  -28.4230  -21.7235   21.8777 H   0  0  0  0  0  0
  -27.3684  -21.3933   20.6424 H   0  0  0  0  0  0
  -28.8669  -15.3639   21.1873 H   0  0  0  0  0  0
  -29.0733  -23.3139   21.1162 H   0  0  0  0  0  0
  1 25  1  0  0  0
  1 30  2  0  0  0
  1 88  1  0  0  0
  2  3  1  0  0  0
  2 25  1  0  0  0
  2 90  1  0  0  0
  2 91  1  0  0  0
  3  4  1  0  0  0
  3 92  1  0  0  0
  3 93  1  0  0  0
  4  5  1  0  0  0
  4 94  1  0  0  0
  4 95  1  0  0  0
  5  6  1  0  0  0
  5 26  1  0  0  0
  5 96  1  0  0  0
  6 25  1  0  0  0
  6 97  1  0  0  0
  6 98  1  0  0  0
  7  8  2  0  0  0
  7 26  1  0  0  0
  7 29  1  0  0  0
  8  9  1  0  0  0
  8 22  1  0  0  0
  9 10  1  0  0  0
  9 27  2  0  0  0
 10 11  2  0  0  0
 10 15  1  0  0  0
 11 12  1  0  0  0
 11 99  1  0  0  0
 12 13  2  0  0  0
 12100  1  0  0  0
 13 14  1  0  0  0
 13 31  1  0  0  0
 14 15  2  0  0  0
 14101  1  0  0  0
 15102  1  0  0  0
 16 17  2  0  0  0
 16 21  1  0  0  0
 16 31  1  0  0  0
 17 18  1  0  0  0
 17103  1  0  0  0
 18 19  2  0  0  0
 18104  1  0  0  0
 19 20  1  0  0  0
 19 24  1  0  0  0
 20 21  2  0  0  0
 20105  1  0  0  0
 21 23  1  0  0  0
 22 28  1  0  0  0
 22 32  2  0  0  0
 26 27  1  0  0  0
 28106  1  0  0  0
 28107  1  0  0  0
 29108  1  0  0  0
 29109  1  0  0  0
 33 34  1  0  0  0
 33 66  1  0  0  0
 33 70  2  0  0  0
 34 36  1  0  0  0
 34 59  1  0  0  0
 34110  1  0  0  0
 35 44  2  0  0  0
 35 45  1  0  0  0
 35 68  1  0  0  0
 36 56  1  0  0  0
 36111  1  0  0  0
 37 39  1  0  0  0
 37 47  1  0  0  0
 37 66  1  0  0  0
 37112  1  0  0  0
 38 43  2  0  0  0
 38 46  1  0  0  0
 38 47  1  0  0  0
 39 64  1  0  0  0
 39 67  2  0  0  0
 40 52  1  0  0  0
 40 53  2  0  0  0
 40 58  1  0  0  0
 41113  1  0  0  0
 41114  1  0  0  0
 41115  1  0  0  0
 41 48  1  0  0  0
 42 43  1  0  0  0
 42 66  1  0  0  0
 42116  1  0  0  0
 42117  1  0  0  0
 43 44  1  0  0  0
 44118  1  0  0  0
 45 46  2  0  0  0
 45119  1  0  0  0
 46120  1  0  0  0
 47121  1  0  0  0
 47122  1  0  0  0
 48 56  1  0  0  0
 48 65  1  0  0  0
 48123  1  0  0  0
 49 50  1  0  0  0
 49 53  1  0  0  0
 49 64  1  0  0  0
 49124  1  0  0  0
 50 51  1  0  0  0
 50125  1  0  0  0
 50126  1  0  0  0
 51 52  1  0  0  0
 51127  1  0  0  0
 51128  1  0  0  0
 52129  1  0  0  0
 52130  1  0  0  0
 53 54  1  0  0  0
 54 55  2  0  0  0
 54131  1  0  0  0
 55 57  1  0  0  0
 55132  1  0  0  0
 56 69  2  0  0  0
 57 58  2  0  0  0
 57133  1  0  0  0
 58134  1  0  0  0
 59 60  1  0  0  0
 59 61  1  0  0  0
 59 62  1  0  0  0
 60135  1  0  0  0
 60136  1  0  0  0
 60137  1  0  0  0
 61138  1  0  0  0
 61139  1  0  0  0
 61140  1  0  0  0
 62141  1  0  0  0
 62142  1  0  0  0
 62143  1  0  0  0
 63 65  1  0  0  0
 63144  1  0  0  0
 63145  1  0  0  0
 63146  1  0  0  0
 64147  1  0  0  0
 65148  1  0  0  0
 68 84  1  0  0  0
 71 73  2  0  0  0
 71 74  1  0  0  0
 71149  1  0  0  0
 72 75  2  0  0  0
 72 76  1  0  0  0
 72150  1  0  0  0
 73 75  1  0  0  0
 73 87  1  0  0  0
 74 76  2  0  0  0
 74 85  1  0  0  0
 75 86  1  0  0  0
 76 88  1  0  0  0
 77 79  2  0  0  0
 77 84  1  0  0  0
 77 89  1  0  0  0
 78 80  2  0  0  0
 78151  1  0  0  0
 78152  1  0  0  0
 79 80  1  0  0  0
 79153  1  0  0  0
 80154  1  0  0  0
 81 82  1  0  0  0
 81 83  1  0  0  0
 81155  1  0  0  0
 81156  1  0  0  0
 82 84  1  0  0  0
 82157  1  0  0  0
 82158  1  0  0  0
 83 89  1  0  0  0
 83159  1  0  0  0
 83160  1  0  0  0
 84161  1  0  0  0
 85162  1  0  0  0
 85163  1  0  0  0
 85164  1  0  0  0
 86165  1  0  0  0
 86166  1  0  0  0
 86167  1  0  0  0
 87168  1  0  0  0
 87169  1  0  0  0
 87 89  1  0  0  0
 88170  1  0  0  0
 89171  1  0  0  0
M  CHG  1  89   1
M  ISO  4   1 100  68 101  84 101  88 100
M  END
> <chiral flag>
0

> <version>
0

> <s_m_source_file>
/data/baiqing/PycharmProjects/Reinvent-master-3.2/result/LINK_invent/BTK/process_docking_weight1_custom_product_contain_oxygen_bond_distance_aromatic_linkinvent_7_9_3/rearranged_h_0044.sdf

> <i_m_source_file_index>
4

> <r_mmod_Potential_Energy-OPLS-2005>
99.1925659179688

> <r_mmod_Stretch_Energy-OPLS-2005>
109.587188720703

> <r_mmod_Bend_Energy-OPLS-2005>
224.296920776367

> <r_mmod_Torsional_Energy-OPLS-2005>
276.299255371094

> <r_mmod_Improper_Torsional_Energy-OPLS-2005>
9.69318962097168

> <r_mmod_Van_der_Waal_Energy-OPLS-2005>
140.707931518555

> <r_mmod_Electrostatic_Energy-OPLS-2005>
-296.820190429688

> <r_mmod_Solvation_Energy-OPLS-2005>
-426.860687255859

> <b_mmod_Minimization_Converged-OPLS-2005>
0

> <r_mmod_RMS_Derivative-OPLS-2005>
1.02584505081177

$$$$
4
                    3D
 Structure written by MMmdl.
159167  0  0  1  0            999 V2000
  -30.6936  -14.4592   20.5172 C   0  0  0  0  0  0
  -30.4203  -12.2771   19.4397 C   0  0  0  0  0  0
  -29.5031  -12.4972   18.2184 C   0  0  0  0  0  0
  -28.0200  -12.3700   18.6204 C   0  0  0  0  0  0
  -27.6637  -13.2083   19.8782 C   0  0  2  0  0  0
  -28.7042  -12.9956   21.0052 C   0  0  0  0  0  0
  -25.2605  -13.8186   20.5714 C   0  0  0  0  0  0
  -24.1865  -13.0455   20.9214 C   0  0  0  0  0  0
  -24.6425  -11.6920   20.8775 C   0  0  0  0  0  0
  -23.9101  -10.4286   21.0404 C   0  0  0  0  0  0
  -24.3636   -9.4193   21.9173 C   0  0  0  0  0  0
  -23.6302   -8.2237   22.0734 C   0  0  0  0  0  0
  -22.4283   -8.0287   21.3533 C   0  0  0  0  0  0
  -21.9939   -9.0267   20.4638 C   0  0  0  0  0  0
  -22.7280  -10.2142   20.3047 C   0  0  0  0  0  0
  -21.6852   -6.0751   22.5282 C   0  0  0  0  0  0
  -21.4013   -6.5641   23.8221 C   0  0  0  0  0  0
  -21.3664   -5.6783   24.9175 C   0  0  0  0  0  0
  -21.6044   -4.3049   24.7212 C   0  0  0  0  0  0
  -21.8826   -3.8156   23.4325 C   0  0  0  0  0  0
  -21.9189   -4.6979   22.3391 C   0  0  0  0  0  0
  -22.7875  -13.5233   21.1859 C   0  0  0  0  0  0
  -22.1656   -4.2174   21.0962 F   0  0  0  0  0  0
  -21.5622   -3.4523   25.7712 F   0  0  0  0  0  0
  -30.0427  -13.2681   20.4580 N   0  0  0  0  0  0
  -26.3047  -12.9354   20.3389 N   0  0  0  0  0  0
  -25.9353  -11.6513   20.5807 N   0  0  0  0  0  0
  -22.0504  -12.8237   22.0413 N   0  0  0  0  0  0
  -25.4291  -15.1917   20.4101 N   0  0  0  0  0  0
  -31.8451  -14.6243   20.1072 O   0  0  0  0  0  0
  -21.6633   -6.8902   21.4246 O   0  0  0  0  0  0
  -22.3552  -14.5522   20.6677 O   0  0  0  0  0  0
  -24.6143  -31.8706   23.2107 C   0  0  0  0  0  0
  -25.9045  -32.4834   23.8384 C   0  0  1  0  0  0
  -27.2191  -27.4386   20.0906 C   0  0  0  0  0  0
  -25.5902  -33.8625   24.2314 N   0  0  0  0  0  0
  -23.3983  -30.4994   21.5521 C   0  0  2  0  0  0
  -24.8386  -28.9688   20.1099 C   0  0  0  0  0  0
  -22.7402  -29.4698   22.4993 C   0  0  0  0  0  0
  -18.0279  -28.1380   22.8500 C   0  0  0  0  0  0
  -24.1490  -36.7311   23.2638 C   0  0  0  0  0  0
  -25.9283  -30.8368   21.3614 C   0  0  0  0  0  0
  -26.0002  -29.4734   20.7058 C   0  0  0  0  0  0
  -27.1932  -28.7168   20.6937 C   0  0  0  0  0  0
  -26.0386  -26.9565   19.4747 C   0  0  0  0  0  0
  -24.8520  -27.7091   19.4924 C   0  0  0  0  0  0
  -23.6022  -29.8373   20.1644 C   0  0  0  0  0  0
  -25.4113  -36.3117   24.0340 C   0  0  1  0  0  0
  -20.5875  -28.3673   23.1318 C   0  0  2  0  0  0
  -20.6781  -26.9411   22.5417 C   0  0  0  0  0  0
  -19.5753  -26.6392   21.5219 C   0  0  0  0  0  0
  -18.1929  -26.7935   22.1622 C   0  0  0  0  0  0
  -19.1531  -28.8840   23.2909 C   0  0  0  0  0  0
  -18.9458  -30.1452   23.8913 C   0  0  0  0  0  0
  -17.6462  -30.6592   24.0576 C   0  0  0  0  0  0
  -25.9043  -34.9482   23.5128 C   0  0  0  0  0  0
  -16.5353  -29.9099   23.6323 C   0  0  0  0  0  0
  -16.7269  -28.6511   23.0348 C   0  0  0  0  0  0
  -26.4464  -31.6605   25.0706 C   0  0  0  0  0  0
  -25.3730  -31.3714   26.1457 C   0  0  0  0  0  0
  -27.0282  -30.3053   24.6051 C   0  0  0  0  0  0
  -27.6040  -32.4326   25.7467 C   0  0  0  0  0  0
  -27.5586  -37.1812   24.8472 C   0  0  0  0  0  0
  -21.4138  -29.3049   22.3724 N   0  0  0  0  0  0
  -26.4303  -37.3800   23.9413 N   0  0  0  0  0  0
  -24.6653  -31.0835   22.0989 N   0  0  0  0  0  0
  -23.4195  -28.8239   23.3020 O   0  0  0  0  0  0
  -28.3854  -26.7005   20.1270 O   0  0  0  0  0  0
  -26.5613  -34.8940   22.4699 O   0  0  0  0  0  0
  -23.5344  -32.1432   23.7529 O   0  0  0  0  0  0
  -30.6980  -18.9779   19.4747 C   0  0  0  0  0  0
  -29.4580  -18.4814   21.4986 C   0  0  0  0  0  0
  -30.0310  -18.0433   20.2897 C   0  0  0  0  0  0
  -30.7766  -20.3403   19.8283 C   0  0  0  0  0  0
  -30.1850  -20.7932   21.0404 C   0  0  0  0  0  0
  -29.5316  -19.8419   21.8737 C   0  0  0  0  0  0
  -31.5028  -21.2613   18.8540 C   0  0  0  0  0  0
  -29.8567  -16.6217   19.7668 C   0  0  0  0  0  0
  -30.2420  -22.2763   21.4345 C   0  0  0  0  0  0
  -29.3994  -24.5402   20.7486 C   0  0  0  0  0  0
  -28.2433  -25.2745   20.0402 C   0  0  0  0  0  0
  -29.8868  -15.5118   20.7274 N   0  0  0  0  0  0
  -29.2163  -23.0644   20.7125 N   0  3  0  0  0  0
  -28.7692  -20.3136   23.3516 Cl  0  0  0  0  0  0
  -31.4675  -12.3606   19.1452 H   0  0  0  0  0  0
  -30.3017  -11.2673   19.8352 H   0  0  0  0  0  0
  -29.7388  -11.7761   17.4358 H   0  0  0  0  0  0
  -29.6905  -13.4826   17.7898 H   0  0  0  0  0  0
  -27.8259  -11.3148   18.8112 H   0  0  0  0  0  0
  -27.3781  -12.6502   17.7839 H   0  0  0  0  0  0
  -27.6990  -14.2529   19.5711 H   0  0  0  0  0  0
  -28.6652  -11.9690   21.3711 H   0  0  0  0  0  0
  -28.4823  -13.6270   21.8678 H   0  0  0  0  0  0
  -25.2777   -9.5654   22.4757 H   0  0  0  0  0  0
  -24.0004   -7.4619   22.7447 H   0  0  0  0  0  0
  -21.0862   -8.8810   19.8939 H   0  0  0  0  0  0
  -22.3749  -10.9683   19.6156 H   0  0  0  0  0  0
  -21.2000   -7.6146   23.9744 H   0  0  0  0  0  0
  -21.1487   -6.0497   25.9088 H   0  0  0  0  0  0
  -22.0603   -2.7617   23.2812 H   0  0  0  0  0  0
  -22.4087  -11.9889   22.4815 H   0  0  0  0  0  0
  -21.1110  -13.1271   22.2580 H   0  0  0  0  0  0
  -24.6555  -15.8411   20.5086 H   0  0  0  0  0  0
  -26.2804  -15.6385   20.0946 H   0  0  0  0  0  0
  -26.7108  -32.5538   23.1138 H   0  0  0  0  0  0
  -25.0065  -33.9783   25.0468 H   0  0  0  0  0  0
  -22.6872  -31.3175   21.4190 H   0  0  0  0  0  0
  -23.3761  -35.9642   23.3319 H   0  0  0  0  0  0
  -24.3578  -36.8895   22.2050 H   0  0  0  0  0  0
  -23.7237  -37.6515   23.6638 H   0  0  0  0  0  0
  -26.0447  -31.6027   20.5938 H   0  0  0  0  0  0
  -26.8166  -30.8852   21.9788 H   0  0  0  0  0  0
  -28.0892  -29.1032   21.1577 H   0  0  0  0  0  0
  -26.0064  -26.0012   18.9716 H   0  0  0  0  0  0
  -23.9607  -27.3171   19.0220 H   0  0  0  0  0  0
  -23.7098  -30.6160   19.4081 H   0  0  0  0  0  0
  -22.7221  -29.2641   19.8674 H   0  0  0  0  0  0
  -25.1290  -36.1981   25.0832 H   0  0  0  0  0  0
  -20.9963  -28.3241   24.1440 H   0  0  0  0  0  0
  -20.5699  -26.2281   23.3608 H   0  0  0  0  0  0
  -21.6651  -26.7476   22.1193 H   0  0  0  0  0  0
  -19.6923  -25.6308   21.1233 H   0  0  0  0  0  0
  -19.6689  -27.3226   20.6770 H   0  0  0  0  0  0
  -17.4206  -26.6696   21.4019 H   0  0  0  0  0  0
  -18.0318  -26.0075   22.9006 H   0  0  0  0  0  0
  -19.7937  -30.7270   24.2279 H   0  0  0  0  0  0
  -17.5020  -31.6271   24.5187 H   0  0  0  0  0  0
  -15.5356  -30.3014   23.7642 H   0  0  0  0  0  0
  -15.8664  -28.0845   22.7047 H   0  0  0  0  0  0
  -24.5909  -30.7042   25.7804 H   0  0  0  0  0  0
  -24.8912  -32.2870   26.4898 H   0  0  0  0  0  0
  -25.8086  -30.8891   27.0219 H   0  0  0  0  0  0
  -26.2793  -29.6834   24.1122 H   0  0  0  0  0  0
  -27.4083  -29.7267   25.4483 H   0  0  0  0  0  0
  -27.8627  -30.4385   23.9164 H   0  0  0  0  0  0
  -27.2645  -33.3619   26.2063 H   0  0  0  0  0  0
  -28.3840  -32.6899   25.0282 H   0  0  0  0  0  0
  -28.0724  -31.8438   26.5365 H   0  0  0  0  0  0
  -28.2625  -38.0089   24.7518 H   0  0  0  0  0  0
  -28.1055  -36.2627   24.6305 H   0  0  0  0  0  0
  -27.2303  -37.1473   25.8871 H   0  0  0  0  0  0
  -20.9294  -29.8751   21.6929 H   0  0  0  0  0  0
  -26.0196  -38.2880   24.1401 H   0  0  0  0  0  0
  -31.1388  -18.6478   18.5426 H   0  0  0  0  0  0
  -28.9278  -17.7816   22.1282 H   0  0  0  0  0  0
  -31.1621  -21.0674   17.8360 H   0  0  0  0  0  0
  -32.5767  -21.0690   18.8866 H   0  0  0  0  0  0
  -31.3509  -22.3234   19.0363 H   0  0  0  0  0  0
  -30.5719  -16.4586   18.9574 H   0  0  0  0  0  0
  -28.8805  -16.5820   19.2811 H   0  0  0  0  0  0
  -31.2387  -22.6631   21.2237 H   0  0  0  0  0  0
  -30.1122  -22.4205   22.5068 H   0  0  0  0  0  0
  -29.4496  -24.8684   21.7877 H   0  0  0  0  0  0
  -30.3469  -24.8015   20.2772 H   0  0  0  0  0  0
  -27.3165  -24.9482   20.5154 H   0  0  0  0  0  0
  -28.1861  -24.9814   18.9904 H   0  0  0  0  0  0
  -29.0002  -15.2860   21.1514 H   0  0  0  0  0  0
  -28.3176  -22.8293   21.1049 H   0  0  0  0  0  0
  -29.2117  -22.7610   19.7513 H   0  0  0  0  0  0
  1 25  1  0  0  0
  1 30  2  0  0  0
  1 82  1  0  0  0
  2  3  1  0  0  0
  2 25  1  0  0  0
  2 85  1  0  0  0
  2 86  1  0  0  0
  3  4  1  0  0  0
  3 87  1  0  0  0
  3 88  1  0  0  0
  4  5  1  0  0  0
  4 89  1  0  0  0
  4 90  1  0  0  0
  5  6  1  0  0  0
  5 26  1  0  0  0
  5 91  1  0  0  0
  6 25  1  0  0  0
  6 92  1  0  0  0
  6 93  1  0  0  0
  7  8  2  0  0  0
  7 26  1  0  0  0
  7 29  1  0  0  0
  8  9  1  0  0  0
  8 22  1  0  0  0
  9 10  1  0  0  0
  9 27  2  0  0  0
 10 11  2  0  0  0
 10 15  1  0  0  0
 11 12  1  0  0  0
 11 94  1  0  0  0
 12 13  2  0  0  0
 12 95  1  0  0  0
 13 14  1  0  0  0
 13 31  1  0  0  0
 14 15  2  0  0  0
 14 96  1  0  0  0
 15 97  1  0  0  0
 16 17  2  0  0  0
 16 21  1  0  0  0
 16 31  1  0  0  0
 17 18  1  0  0  0
 17 98  1  0  0  0
 18 19  2  0  0  0
 18 99  1  0  0  0
 19 20  1  0  0  0
 19 24  1  0  0  0
 20 21  2  0  0  0
 20100  1  0  0  0
 21 23  1  0  0  0
 22 28  1  0  0  0
 22 32  2  0  0  0
 26 27  1  0  0  0
 28101  1  0  0  0
 28102  1  0  0  0
 29103  1  0  0  0
 29104  1  0  0  0
 33 34  1  0  0  0
 33 66  1  0  0  0
 33 70  2  0  0  0
 34 36  1  0  0  0
 34 59  1  0  0  0
 34105  1  0  0  0
 35 44  2  0  0  0
 35 45  1  0  0  0
 35 68  1  0  0  0
 36 56  1  0  0  0
 36106  1  0  0  0
 37 39  1  0  0  0
 37 47  1  0  0  0
 37 66  1  0  0  0
 37107  1  0  0  0
 38 43  2  0  0  0
 38 46  1  0  0  0
 38 47  1  0  0  0
 39 64  1  0  0  0
 39 67  2  0  0  0
 40 52  1  0  0  0
 40 53  2  0  0  0
 40 58  1  0  0  0
 41108  1  0  0  0
 41109  1  0  0  0
 41110  1  0  0  0
 41 48  1  0  0  0
 42 43  1  0  0  0
 42 66  1  0  0  0
 42111  1  0  0  0
 42112  1  0  0  0
 43 44  1  0  0  0
 44113  1  0  0  0
 45 46  2  0  0  0
 45114  1  0  0  0
 46115  1  0  0  0
 47116  1  0  0  0
 47117  1  0  0  0
 48 56  1  0  0  0
 48 65  1  0  0  0
 48118  1  0  0  0
 49 50  1  0  0  0
 49 53  1  0  0  0
 49 64  1  0  0  0
 49119  1  0  0  0
 50 51  1  0  0  0
 50120  1  0  0  0
 50121  1  0  0  0
 51 52  1  0  0  0
 51122  1  0  0  0
 51123  1  0  0  0
 52124  1  0  0  0
 52125  1  0  0  0
 53 54  1  0  0  0
 54 55  2  0  0  0
 54126  1  0  0  0
 55 57  1  0  0  0
 55127  1  0  0  0
 56 69  2  0  0  0
 57 58  2  0  0  0
 57128  1  0  0  0
 58129  1  0  0  0
 59 60  1  0  0  0
 59 61  1  0  0  0
 59 62  1  0  0  0
 60130  1  0  0  0
 60131  1  0  0  0
 60132  1  0  0  0
 61133  1  0  0  0
 61134  1  0  0  0
 61135  1  0  0  0
 62136  1  0  0  0
 62137  1  0  0  0
 62138  1  0  0  0
 63 65  1  0  0  0
 63139  1  0  0  0
 63140  1  0  0  0
 63141  1  0  0  0
 64142  1  0  0  0
 65143  1  0  0  0
 68 81  1  0  0  0
 71 73  2  0  0  0
 71 74  1  0  0  0
 71144  1  0  0  0
 72 73  1  0  0  0
 72 76  2  0  0  0
 72145  1  0  0  0
 73 78  1  0  0  0
 74 75  2  0  0  0
 74 77  1  0  0  0
 75 76  1  0  0  0
 75 79  1  0  0  0
 76 84  1  0  0  0
 77146  1  0  0  0
 77147  1  0  0  0
 77148  1  0  0  0
 78 82  1  0  0  0
 78149  1  0  0  0
 78150  1  0  0  0
 79 83  1  0  0  0
 79151  1  0  0  0
 79152  1  0  0  0
 80 81  1  0  0  0
 80 83  1  0  0  0
 80153  1  0  0  0
 80154  1  0  0  0
 81155  1  0  0  0
 81156  1  0  0  0
 82157  1  0  0  0
 83158  1  0  0  0
 83159  1  0  0  0
M  CHG  1  83   1
M  ISO  4   1 100  68 101  81 101  82 100
M  END
> <chiral flag>
0

> <version>
0

> <s_m_source_file>
/data/baiqing/PycharmProjects/Reinvent-master-3.2/result/LINK_invent/BTK/process_docking_weight1_custom_product_contain_oxygen_bond_distance_aromatic_linkinvent_7_9_3/rearranged_h_0044.sdf

> <i_m_source_file_index>
5

> <r_mmod_Potential_Energy-OPLS-2005>
-249.357543945312

> <r_mmod_Stretch_Energy-OPLS-2005>
35.9125137329102

> <r_mmod_Bend_Energy-OPLS-2005>
94.4699783325195

> <r_mmod_Torsional_Energy-OPLS-2005>
216.782363891602

> <r_mmod_Improper_Torsional_Energy-OPLS-2005>
12.2175979614258

> <r_mmod_Van_der_Waal_Energy-OPLS-2005>
158.875701904297

> <r_mmod_Electrostatic_Energy-OPLS-2005>
-327.184234619141

> <r_mmod_Solvation_Energy-OPLS-2005>
-455.025726318359

> <b_mmod_Minimization_Converged-OPLS-2005>
0

> <r_mmod_RMS_Derivative-OPLS-2005>
2.37525606155396

$$$$
5
                    3D
 Structure written by MMmdl.
159167  0  0  1  0            999 V2000
  -30.6724  -14.7814   20.4049 C   0  0  0  0  0  0
  -30.4358  -12.4516   19.5583 C   0  0  0  0  0  0
  -29.5348  -12.3610   18.3021 C   0  0  0  0  0  0
  -28.0369  -12.3129   18.6522 C   0  0  0  0  0  0
  -27.6323  -13.2604   19.8148 C   0  0  2  0  0  0
  -28.6625  -13.3081   20.9665 C   0  0  0  0  0  0
  -25.2596  -13.8413   20.5578 C   0  0  0  0  0  0
  -24.1909  -13.0645   20.9131 C   0  0  0  0  0  0
  -24.6438  -11.7139   20.8505 C   0  0  0  0  0  0
  -23.9101  -10.4448   21.0126 C   0  0  0  0  0  0
  -24.3651   -9.4476   21.8963 C   0  0  0  0  0  0
  -23.6411   -8.2457   22.0670 C   0  0  0  0  0  0
  -22.4374   -8.0426   21.3534 C   0  0  0  0  0  0
  -21.9967   -9.0287   20.4587 C   0  0  0  0  0  0
  -22.7197  -10.2247   20.2889 C   0  0  0  0  0  0
  -21.6982   -6.0926   22.5348 C   0  0  0  0  0  0
  -21.4112   -6.5786   23.8291 C   0  0  0  0  0  0
  -21.3624   -5.6885   24.9183 C   0  0  0  0  0  0
  -21.5989   -4.3150   24.7168 C   0  0  0  0  0  0
  -21.8885   -3.8307   23.4325 C   0  0  0  0  0  0
  -21.9303   -4.7148   22.3397 C   0  0  0  0  0  0
  -22.7931  -13.5381   21.1896 C   0  0  0  0  0  0
  -22.1741   -4.2394   21.0958 F   0  0  0  0  0  0
  -21.5494   -3.4534   25.7618 F   0  0  0  0  0  0
  -29.9873  -13.5867   20.3903 N   0  0  0  0  0  0
  -26.2947  -12.9586   20.3029 N   0  0  0  0  0  0
  -25.9369  -11.6738   20.5526 N   0  0  0  0  0  0
  -22.0584  -12.8224   22.0357 N   0  0  0  0  0  0
  -25.4405  -15.2092   20.4162 N   0  0  0  0  0  0
  -31.8735  -14.7922   20.1258 O   0  0  0  0  0  0
  -21.6747   -6.9030   21.4304 O   0  0  0  0  0  0
  -22.3550  -14.5643   20.6780 O   0  0  0  0  0  0
  -24.6363  -31.8502   23.1976 C   0  0  0  0  0  0
  -25.9177  -32.4748   23.8333 C   0  0  1  0  0  0
  -27.2177  -27.2202   20.1362 C   0  0  0  0  0  0
  -25.5938  -33.8539   24.2258 N   0  0  0  0  0  0
  -23.4375  -30.4712   21.5368 C   0  0  2  0  0  0
  -24.8878  -28.9157   20.1122 C   0  0  0  0  0  0
  -22.7544  -29.4553   22.4835 C   0  0  0  0  0  0
  -18.0300  -28.1398   22.8470 C   0  0  0  0  0  0
  -24.1485  -36.7286   23.2643 C   0  0  0  0  0  0
  -25.9848  -30.7501   21.3905 C   0  0  0  0  0  0
  -26.0585  -29.3689   20.7307 C   0  0  0  0  0  0
  -27.2239  -28.5285   20.7409 C   0  0  0  0  0  0
  -26.0268  -26.8533   19.4691 C   0  0  0  0  0  0
  -24.8780  -27.6681   19.4716 C   0  0  0  0  0  0
  -23.6653  -29.8118   20.1525 C   0  0  0  0  0  0
  -25.4113  -36.3047   24.0317 C   0  0  1  0  0  0
  -20.5917  -28.3719   23.1243 C   0  0  2  0  0  0
  -20.6774  -26.9421   22.5404 C   0  0  0  0  0  0
  -19.5734  -26.6374   21.5215 C   0  0  0  0  0  0
  -18.1924  -26.7933   22.1638 C   0  0  0  0  0  0
  -19.1560  -28.8863   23.2868 C   0  0  0  0  0  0
  -18.9478  -30.1464   23.8888 C   0  0  0  0  0  0
  -17.6470  -30.6585   24.0566 C   0  0  0  0  0  0
  -25.9053  -34.9420   23.5101 C   0  0  0  0  0  0
  -16.5361  -29.9079   23.6326 C   0  0  0  0  0  0
  -16.7292  -28.6507   23.0341 C   0  0  0  0  0  0
  -26.4516  -31.6576   25.0739 C   0  0  0  0  0  0
  -25.3745  -31.3747   26.1482 C   0  0  0  0  0  0
  -27.0392  -30.2975   24.6293 C   0  0  0  0  0  0
  -27.6030  -32.4337   25.7565 C   0  0  0  0  0  0
  -27.5574  -37.1810   24.8466 C   0  0  0  0  0  0
  -21.4239  -29.3069   22.3640 N   0  0  0  0  0  0
  -26.4280  -37.3752   23.9415 N   0  0  0  0  0  0
  -24.7031  -31.0426   22.0985 N   0  0  0  0  0  0
  -23.4231  -28.8063   23.2917 O   0  0  0  0  0  0
  -28.3008  -26.3013   20.2101 O   0  0  0  0  0  0
  -26.5618  -34.8911   22.4672 O   0  0  0  0  0  0
  -23.5491  -32.1331   23.7216 O   0  0  0  0  0  0
  -28.3427  -17.0577   17.5215 C   0  0  0  0  0  0
  -27.8724  -18.6653   19.2654 C   0  0  0  0  0  0
  -29.5081  -16.6331   18.1959 C   0  0  0  0  0  0
  -29.1062  -18.3454   19.8772 C   0  0  0  0  0  0
  -29.7312  -17.0595   19.5444 C   0  0  0  0  0  0
  -27.4691  -17.9887   18.0993 C   0  0  0  0  0  0
  -30.4954  -15.8098   17.3736 C   0  0  0  0  0  0
  -29.9202  -19.6052   20.3949 C   0  0  0  0  0  0
  -28.9788  -23.6153   20.5320 C   0  0  0  0  0  0
  -28.9512  -22.1017   19.9138 C   0  0  0  0  0  0
  -28.1063  -24.8290   19.8872 C   0  0  0  0  0  0
  -29.9869  -15.9806   20.5429 N   0  0  0  0  0  0
  -29.2447  -20.9144   20.8450 N   0  3  0  0  0  0
  -26.0013  -18.4120   17.2984 Cl  0  0  0  0  0  0
  -31.4883  -12.5170   19.2902 H   0  0  0  0  0  0
  -30.3612  -11.5489   20.1631 H   0  0  0  0  0  0
  -29.7949  -11.4519   17.7561 H   0  0  0  0  0  0
  -29.7420  -13.1680   17.6006 H   0  0  0  0  0  0
  -27.7967  -11.2855   18.9187 H   0  0  0  0  0  0
  -27.4370  -12.5385   17.7642 H   0  0  0  0  0  0
  -27.5730  -14.2591   19.3710 H   0  0  0  0  0  0
  -28.3598  -14.1040   21.6438 H   0  0  0  0  0  0
  -28.6637  -12.4007   21.5674 H   0  0  0  0  0  0
  -25.2804   -9.6139   22.4453 H   0  0  0  0  0  0
  -24.0328   -7.4985   22.7394 H   0  0  0  0  0  0
  -21.0968   -8.8705   19.8833 H   0  0  0  0  0  0
  -22.3521  -10.9698   19.6030 H   0  0  0  0  0  0
  -21.2083   -7.6290   23.9872 H   0  0  0  0  0  0
  -21.1272   -6.0490   25.9086 H   0  0  0  0  0  0
  -22.0592   -2.7751   23.2665 H   0  0  0  0  0  0
  -22.4425  -12.0068   22.4833 H   0  0  0  0  0  0
  -21.1105  -13.0980   22.2505 H   0  0  0  0  0  0
  -24.6670  -15.8453   20.5737 H   0  0  0  0  0  0
  -26.2790  -15.6683   20.0879 H   0  0  0  0  0  0
  -26.7254  -32.5374   23.1099 H   0  0  0  0  0  0
  -25.0081  -33.9675   25.0398 H   0  0  0  0  0  0
  -22.7392  -31.2952   21.3864 H   0  0  0  0  0  0
  -23.3727  -35.9643   23.3299 H   0  0  0  0  0  0
  -24.3571  -36.8925   22.2061 H   0  0  0  0  0  0
  -23.7278  -37.6495   23.6680 H   0  0  0  0  0  0
  -26.1340  -31.5017   20.6139 H   0  0  0  0  0  0
  -26.8623  -30.7967   22.0231 H   0  0  0  0  0  0
  -28.1133  -28.8542   21.2667 H   0  0  0  0  0  0
  -25.9511  -25.9041   18.9593 H   0  0  0  0  0  0
  -23.9860  -27.3228   18.9690 H   0  0  0  0  0  0
  -23.8128  -30.5900   19.4018 H   0  0  0  0  0  0
  -22.7838  -29.2553   19.8266 H   0  0  0  0  0  0
  -25.1301  -36.1875   25.0795 H   0  0  0  0  0  0
  -21.0026  -28.3290   24.1362 H   0  0  0  0  0  0
  -20.5636  -26.2325   23.3631 H   0  0  0  0  0  0
  -21.6644  -26.7390   22.1225 H   0  0  0  0  0  0
  -19.6891  -25.6274   21.1259 H   0  0  0  0  0  0
  -19.6674  -27.3173   20.6736 H   0  0  0  0  0  0
  -17.4200  -26.6684   21.4047 H   0  0  0  0  0  0
  -18.0335  -26.0083   22.9039 H   0  0  0  0  0  0
  -19.7952  -30.7291   24.2259 H   0  0  0  0  0  0
  -17.5019  -31.6264   24.5189 H   0  0  0  0  0  0
  -15.5364  -30.2988   23.7635 H   0  0  0  0  0  0
  -15.8704  -28.0834   22.7044 H   0  0  0  0  0  0
  -24.5908  -30.7102   25.7857 H   0  0  0  0  0  0
  -24.8952  -32.2911   26.4903 H   0  0  0  0  0  0
  -25.8060  -30.8945   27.0281 H   0  0  0  0  0  0
  -26.2999  -29.6724   24.1279 H   0  0  0  0  0  0
  -27.4012  -29.7247   25.4845 H   0  0  0  0  0  0
  -27.8898  -30.4247   23.9605 H   0  0  0  0  0  0
  -27.2592  -33.3635   26.2140 H   0  0  0  0  0  0
  -28.3876  -32.6941   25.0436 H   0  0  0  0  0  0
  -28.0690  -31.8491   26.5522 H   0  0  0  0  0  0
  -28.2576  -38.0115   24.7485 H   0  0  0  0  0  0
  -28.1075  -36.2640   24.6297 H   0  0  0  0  0  0
  -27.2299  -37.1477   25.8871 H   0  0  0  0  0  0
  -20.9424  -29.8880   21.6931 H   0  0  0  0  0  0
  -26.0138  -38.2820   24.1389 H   0  0  0  0  0  0
  -28.1128  -16.6638   16.5399 H   0  0  0  0  0  0
  -27.3070  -19.5306   19.5749 H   0  0  0  0  0  0
  -29.9594  -15.1606   16.6801 H   0  0  0  0  0  0
  -31.1852  -15.1896   17.9225 H   0  0  0  0  0  0
  -31.1172  -16.4803   16.7758 H   0  0  0  0  0  0
  -30.6447  -19.8721   19.6277 H   0  0  0  0  0  0
  -30.5289  -19.2602   21.2309 H   0  0  0  0  0  0
  -30.0236  -23.9255   20.5497 H   0  0  0  0  0  0
  -28.6943  -23.5468   21.5807 H   0  0  0  0  0  0
  -29.6663  -22.0684   19.0937 H   0  0  0  0  0  0
  -27.9775  -21.9120   19.4584 H   0  0  0  0  0  0
  -27.0897  -24.5576   20.1741 H   0  0  0  0  0  0
  -28.1586  -24.7443   18.8046 H   0  0  0  0  0  0
  -29.2512  -15.9278   21.2385 H   0  0  0  0  0  0
  -29.8989  -21.2754   21.5237 H   0  0  0  0  0  0
  -28.4152  -20.6818   21.3636 H   0  0  0  0  0  0
  1 25  1  0  0  0
  1 30  2  0  0  0
  1 82  1  0  0  0
  2  3  1  0  0  0
  2 25  1  0  0  0
  2 85  1  0  0  0
  2 86  1  0  0  0
  3  4  1  0  0  0
  3 87  1  0  0  0
  3 88  1  0  0  0
  4  5  1  0  0  0
  4 89  1  0  0  0
  4 90  1  0  0  0
  5  6  1  0  0  0
  5 26  1  0  0  0
  5 91  1  0  0  0
  6 25  1  0  0  0
  6 92  1  0  0  0
  6 93  1  0  0  0
  7  8  2  0  0  0
  7 26  1  0  0  0
  7 29  1  0  0  0
  8  9  1  0  0  0
  8 22  1  0  0  0
  9 10  1  0  0  0
  9 27  2  0  0  0
 10 11  2  0  0  0
 10 15  1  0  0  0
 11 12  1  0  0  0
 11 94  1  0  0  0
 12 13  2  0  0  0
 12 95  1  0  0  0
 13 14  1  0  0  0
 13 31  1  0  0  0
 14 15  2  0  0  0
 14 96  1  0  0  0
 15 97  1  0  0  0
 16 17  2  0  0  0
 16 21  1  0  0  0
 16 31  1  0  0  0
 17 18  1  0  0  0
 17 98  1  0  0  0
 18 19  2  0  0  0
 18 99  1  0  0  0
 19 20  1  0  0  0
 19 24  1  0  0  0
 20 21  2  0  0  0
 20100  1  0  0  0
 21 23  1  0  0  0
 22 28  1  0  0  0
 22 32  2  0  0  0
 26 27  1  0  0  0
 28101  1  0  0  0
 28102  1  0  0  0
 29103  1  0  0  0
 29104  1  0  0  0
 33 34  1  0  0  0
 33 66  1  0  0  0
 33 70  2  0  0  0
 34 36  1  0  0  0
 34 59  1  0  0  0
 34105  1  0  0  0
 35 44  2  0  0  0
 35 45  1  0  0  0
 35 68  1  0  0  0
 36 56  1  0  0  0
 36106  1  0  0  0
 37 39  1  0  0  0
 37 47  1  0  0  0
 37 66  1  0  0  0
 37107  1  0  0  0
 38 43  2  0  0  0
 38 46  1  0  0  0
 38 47  1  0  0  0
 39 64  1  0  0  0
 39 67  2  0  0  0
 40 52  1  0  0  0
 40 53  2  0  0  0
 40 58  1  0  0  0
 41108  1  0  0  0
 41109  1  0  0  0
 41110  1  0  0  0
 41 48  1  0  0  0
 42 43  1  0  0  0
 42 66  1  0  0  0
 42111  1  0  0  0
 42112  1  0  0  0
 43 44  1  0  0  0
 44113  1  0  0  0
 45 46  2  0  0  0
 45114  1  0  0  0
 46115  1  0  0  0
 47116  1  0  0  0
 47117  1  0  0  0
 48 56  1  0  0  0
 48 65  1  0  0  0
 48118  1  0  0  0
 49 50  1  0  0  0
 49 53  1  0  0  0
 49 64  1  0  0  0
 49119  1  0  0  0
 50 51  1  0  0  0
 50120  1  0  0  0
 50121  1  0  0  0
 51 52  1  0  0  0
 51122  1  0  0  0
 51123  1  0  0  0
 52124  1  0  0  0
 52125  1  0  0  0
 53 54  1  0  0  0
 54 55  2  0  0  0
 54126  1  0  0  0
 55 57  1  0  0  0
 55127  1  0  0  0
 56 69  2  0  0  0
 57 58  2  0  0  0
 57128  1  0  0  0
 58129  1  0  0  0
 59 60  1  0  0  0
 59 61  1  0  0  0
 59 62  1  0  0  0
 60130  1  0  0  0
 60131  1  0  0  0
 60132  1  0  0  0
 61133  1  0  0  0
 61134  1  0  0  0
 61135  1  0  0  0
 62136  1  0  0  0
 62137  1  0  0  0
 62138  1  0  0  0
 63 65  1  0  0  0
 63139  1  0  0  0
 63140  1  0  0  0
 63141  1  0  0  0
 64142  1  0  0  0
 65143  1  0  0  0
 68 81  1  0  0  0
 71 73  2  0  0  0
 71 76  1  0  0  0
 71144  1  0  0  0
 72 74  1  0  0  0
 72 76  2  0  0  0
 72145  1  0  0  0
 73 75  1  0  0  0
 73 77  1  0  0  0
 74 75  2  0  0  0
 74 78  1  0  0  0
 75 82  1  0  0  0
 76 84  1  0  0  0
 77146  1  0  0  0
 77147  1  0  0  0
 77148  1  0  0  0
 78 83  1  0  0  0
 78149  1  0  0  0
 78150  1  0  0  0
 79 80  1  0  0  0
 79 81  1  0  0  0
 79151  1  0  0  0
 79152  1  0  0  0
 80 83  1  0  0  0
 80153  1  0  0  0
 80154  1  0  0  0
 81155  1  0  0  0
 81156  1  0  0  0
 82157  1  0  0  0
 83158  1  0  0  0
 83159  1  0  0  0
M  CHG  1  83   1
M  ISO  4   1 100  68 101  81 101  82 100
M  END
> <chiral flag>
0

> <version>
0

> <s_m_source_file>
/data/baiqing/PycharmProjects/Reinvent-master-3.2/result/LINK_invent/BTK/process_docking_weight1_custom_product_contain_oxygen_bond_distance_aromatic_linkinvent_7_9_3/rearranged_h_0044.sdf

> <i_m_source_file_index>
6

> <r_mmod_Potential_Energy-OPLS-2005>
248.524139404297

> <r_mmod_Stretch_Energy-OPLS-2005>
137.444488525391

> <r_mmod_Bend_Energy-OPLS-2005>
198.940826416016

> <r_mmod_Torsional_Energy-OPLS-2005>
441.616363525391

> <r_mmod_Improper_Torsional_Energy-OPLS-2005>
19.8933525085449

> <r_mmod_Van_der_Waal_Energy-OPLS-2005>
138.910049438477

> <r_mmod_Electrostatic_Energy-OPLS-2005>
-314.886566162109

> <r_mmod_Solvation_Energy-OPLS-2005>
-496.526733398438

> <b_mmod_Minimization_Converged-OPLS-2005>
0

> <r_mmod_RMS_Derivative-OPLS-2005>
12.179762840271

$$$$
6
                    3D
 Structure written by MMmdl.
161170  0  0  1  0            999 V2000
  -30.5980  -14.6509   20.5141 C   0  0  0  0  0  0
  -30.4466  -12.4042   19.4478 C   0  0  0  0  0  0
  -29.5125  -12.5249   18.2211 C   0  0  0  0  0  0
  -28.0329  -12.3608   18.6268 C   0  0  0  0  0  0
  -27.6567  -13.2164   19.8655 C   0  0  2  0  0  0
  -28.7000  -13.0424   20.9917 C   0  0  0  0  0  0
  -25.2563  -13.8167   20.5678 C   0  0  0  0  0  0
  -24.1818  -13.0428   20.9150 C   0  0  0  0  0  0
  -24.6386  -11.6902   20.8691 C   0  0  0  0  0  0
  -23.9050  -10.4287   21.0371 C   0  0  0  0  0  0
  -24.3604   -9.4206   21.9150 C   0  0  0  0  0  0
  -23.6286   -8.2238   22.0730 C   0  0  0  0  0  0
  -22.4266   -8.0268   21.3534 C   0  0  0  0  0  0
  -21.9892   -9.0233   20.4634 C   0  0  0  0  0  0
  -22.7215  -10.2115   20.3035 C   0  0  0  0  0  0
  -21.6853   -6.0720   22.5275 C   0  0  0  0  0  0
  -21.4021   -6.5626   23.8205 C   0  0  0  0  0  0
  -21.3660   -5.6780   24.9168 C   0  0  0  0  0  0
  -21.6045   -4.3042   24.7225 C   0  0  0  0  0  0
  -21.8822   -3.8132   23.4346 C   0  0  0  0  0  0
  -21.9192   -4.6950   22.3402 C   0  0  0  0  0  0
  -22.7839  -13.5217   21.1825 C   0  0  0  0  0  0
  -22.1661   -4.2133   21.0980 F   0  0  0  0  0  0
  -21.5628   -3.4528   25.7738 F   0  0  0  0  0  0
  -30.0165  -13.4090   20.4423 N   0  0  0  0  0  0
  -26.3000  -12.9348   20.3305 N   0  0  0  0  0  0
  -25.9319  -11.6499   20.5700 N   0  0  0  0  0  0
  -22.0493  -12.8224   22.0402 N   0  0  0  0  0  0
  -25.4285  -15.1888   20.4147 N   0  0  0  0  0  0
  -31.7311  -14.8553   20.0658 O   0  0  0  0  0  0
  -21.6637   -6.8862   21.4235 O   0  0  0  0  0  0
  -22.3510  -14.5511   20.6657 O   0  0  0  0  0  0
  -24.6264  -31.8570   23.1987 C   0  0  0  0  0  0
  -25.9114  -32.4753   23.8314 C   0  0  1  0  0  0
  -27.2366  -27.3075   20.1108 C   0  0  0  0  0  0
  -25.5928  -33.8557   24.2241 N   0  0  0  0  0  0
  -23.4206  -30.4774   21.5398 C   0  0  2  0  0  0
  -24.8694  -28.9258   20.1066 C   0  0  0  0  0  0
  -22.7476  -29.4603   22.4914 C   0  0  0  0  0  0
  -18.0288  -28.1385   22.8482 C   0  0  0  0  0  0
  -24.1487  -36.7274   23.2645 C   0  0  0  0  0  0
  -25.9610  -30.7808   21.3735 C   0  0  0  0  0  0
  -26.0341  -29.4067   20.7150 C   0  0  0  0  0  0
  -27.2137  -28.6059   20.7121 C   0  0  0  0  0  0
  -26.0446  -26.8719   19.4900 C   0  0  0  0  0  0
  -24.8764  -27.6630   19.4879 C   0  0  0  0  0  0
  -23.6365  -29.8071   20.1556 C   0  0  0  0  0  0
  -25.4116  -36.3063   24.0324 C   0  0  1  0  0  0
  -20.5886  -28.3683   23.1279 C   0  0  2  0  0  0
  -20.6768  -26.9402   22.5418 C   0  0  0  0  0  0
  -19.5752  -26.6378   21.5211 C   0  0  0  0  0  0
  -18.1930  -26.7930   22.1615 C   0  0  0  0  0  0
  -19.1541  -28.8853   23.2877 C   0  0  0  0  0  0
  -18.9468  -30.1456   23.8888 C   0  0  0  0  0  0
  -17.6471  -30.6592   24.0556 C   0  0  0  0  0  0
  -25.9056  -34.9437   23.5086 C   0  0  0  0  0  0
  -16.5360  -29.9089   23.6329 C   0  0  0  0  0  0
  -16.7277  -28.6508   23.0348 C   0  0  0  0  0  0
  -26.4503  -31.6580   25.0698 C   0  0  0  0  0  0
  -25.3751  -31.3723   26.1438 C   0  0  0  0  0  0
  -27.0357  -30.3004   24.6169 C   0  0  0  0  0  0
  -27.6042  -32.4341   25.7479 C   0  0  0  0  0  0
  -27.5571  -37.1796   24.8462 C   0  0  0  0  0  0
  -21.4188  -29.3027   22.3664 N   0  0  0  0  0  0
  -26.4281  -37.3767   23.9409 N   0  0  0  0  0  0
  -24.6876  -31.0566   22.0934 N   0  0  0  0  0  0
  -23.4196  -28.8160   23.3013 O   0  0  0  0  0  0
  -28.3841  -26.4973   20.1926 O   0  0  0  0  0  0
  -26.5630  -34.8916   22.4652 O   0  0  0  0  0  0
  -23.5429  -32.1375   23.7313 O   0  0  0  0  0  0
  -29.3607  -19.3276   21.8994 C   0  0  0  0  0  0
  -29.6953  -17.9462   21.9949 C   0  0  0  0  0  0
  -29.5471  -17.7490   19.6080 C   0  0  0  0  0  0
  -29.0421  -19.9627   20.6688 C   0  0  0  0  0  0
  -29.1814  -19.1360   19.5078 C   0  0  0  0  0  0
  -29.7699  -17.1035   20.8569 C   0  0  0  0  0  0
  -28.1332  -23.8776   20.2741 C   0  0  0  0  0  0
  -30.8858  -24.0340   19.6517 C   0  0  0  0  0  0
  -30.0341  -25.1365   18.9990 C   0  0  0  0  0  0
  -30.1839  -22.6688   19.5505 C   0  0  0  0  0  0
  -28.5624  -25.1980   19.4879 C   0  0  2  0  0  0
  -28.8664  -19.6889   18.1286 C   0  0  0  0  0  0
  -28.3224  -21.3808   20.7113 C   0  0  0  0  0  0
  -28.8528  -22.6915   20.1652 N   0  0  0  0  0  0
  -29.8176  -15.6486   21.0385 N   0  0  0  0  0  0
  -27.0946  -23.9237   20.9407 O   0  0  0  0  0  0
  -31.4863  -12.5431   19.1456 H   0  0  0  0  0  0
  -30.3948  -11.4017   19.8763 H   0  0  0  0  0  0
  -29.7798  -11.7822   17.4682 H   0  0  0  0  0  0
  -29.6523  -13.4977   17.7472 H   0  0  0  0  0  0
  -27.8619  -11.3055   18.8412 H   0  0  0  0  0  0
  -27.3819  -12.6072   17.7862 H   0  0  0  0  0  0
  -27.6827  -14.2577   19.5418 H   0  0  0  0  0  0
  -28.7139  -12.0068   21.3348 H   0  0  0  0  0  0
  -28.4375  -13.6344   21.8685 H   0  0  0  0  0  0
  -25.2763   -9.5686   22.4696 H   0  0  0  0  0  0
  -24.0004   -7.4638   22.7455 H   0  0  0  0  0  0
  -21.0815   -8.8745   19.8955 H   0  0  0  0  0  0
  -22.3665  -10.9634   19.6129 H   0  0  0  0  0  0
  -21.2025   -7.6137   23.9709 H   0  0  0  0  0  0
  -21.1477   -6.0506   25.9066 H   0  0  0  0  0  0
  -22.0607   -2.7597   23.2846 H   0  0  0  0  0  0
  -22.4137  -11.9925   22.4845 H   0  0  0  0  0  0
  -21.1090  -13.1210   22.2574 H   0  0  0  0  0  0
  -24.6665  -15.8474   20.5367 H   0  0  0  0  0  0
  -26.2903  -15.6314   20.1211 H   0  0  0  0  0  0
  -26.7177  -32.5412   23.1051 H   0  0  0  0  0  0
  -25.0065  -33.9689   25.0380 H   0  0  0  0  0  0
  -22.7150  -31.2976   21.3935 H   0  0  0  0  0  0
  -23.3747  -35.9608   23.3315 H   0  0  0  0  0  0
  -24.3571  -36.8891   22.2056 H   0  0  0  0  0  0
  -23.7249  -37.6478   23.6669 H   0  0  0  0  0  0
  -26.0997  -31.5457   20.6084 H   0  0  0  0  0  0
  -26.8391  -30.8248   22.0061 H   0  0  0  0  0  0
  -28.1061  -28.9687   21.2018 H   0  0  0  0  0  0
  -25.9796  -25.8975   19.0305 H   0  0  0  0  0  0
  -23.9797  -27.2828   19.0180 H   0  0  0  0  0  0
  -23.7557  -30.5813   19.3968 H   0  0  0  0  0  0
  -22.7566  -29.2362   19.8539 H   0  0  0  0  0  0
  -25.1305  -36.1894   25.0817 H   0  0  0  0  0  0
  -20.9972  -28.3269   24.1402 H   0  0  0  0  0  0
  -20.5646  -26.2303   23.3626 H   0  0  0  0  0  0
  -21.6645  -26.7420   22.1232 H   0  0  0  0  0  0
  -19.6908  -25.6287   21.1250 H   0  0  0  0  0  0
  -19.6692  -27.3183   20.6736 H   0  0  0  0  0  0
  -17.4199  -26.6674   21.4016 H   0  0  0  0  0  0
  -18.0322  -26.0078   22.9018 H   0  0  0  0  0  0
  -19.7953  -30.7266   24.2250 H   0  0  0  0  0  0
  -17.5036  -31.6269   24.5163 H   0  0  0  0  0  0
  -15.5362  -30.2988   23.7665 H   0  0  0  0  0  0
  -15.8675  -28.0828   22.7057 H   0  0  0  0  0  0
  -24.5912  -30.7084   25.7779 H   0  0  0  0  0  0
  -24.8968  -32.2897   26.4883 H   0  0  0  0  0  0
  -25.8101  -30.8892   27.0198 H   0  0  0  0  0  0
  -26.2933  -29.6747   24.1206 H   0  0  0  0  0  0
  -27.4062  -29.7270   25.4674 H   0  0  0  0  0  0
  -27.8799  -30.4280   23.9390 H   0  0  0  0  0  0
  -27.2617  -33.3631   26.2048 H   0  0  0  0  0  0
  -28.3861  -32.6926   25.0327 H   0  0  0  0  0  0
  -28.0707  -31.8488   26.5411 H   0  0  0  0  0  0
  -28.2593  -38.0089   24.7502 H   0  0  0  0  0  0
  -28.1063  -36.2620   24.6293 H   0  0  0  0  0  0
  -27.2293  -37.1457   25.8867 H   0  0  0  0  0  0
  -20.9369  -29.8741   21.6865 H   0  0  0  0  0  0
  -26.0152  -38.2835   24.1416 H   0  0  0  0  0  0
  -29.2609  -19.8891   22.8186 H   0  0  0  0  0  0
  -29.8360  -17.5200   22.9790 H   0  0  0  0  0  0
  -29.5657  -17.1519   18.7065 H   0  0  0  0  0  0
  -31.0706  -24.2785   20.6996 H   0  0  0  0  0  0
  -31.8654  -23.9850   19.1738 H   0  0  0  0  0  0
  -30.0365  -24.9769   17.9195 H   0  0  0  0  0  0
  -30.5214  -26.1000   19.1496 H   0  0  0  0  0  0
  -30.8072  -21.9144   20.0310 H   0  0  0  0  0  0
  -30.0871  -22.3760   18.5044 H   0  0  0  0  0  0
  -27.9603  -25.2202   18.5804 H   0  0  0  0  0  0
  -28.5713  -18.8932   17.4435 H   0  0  0  0  0  0
  -29.7469  -20.1745   17.7082 H   0  0  0  0  0  0
  -28.0522  -20.4118   18.1551 H   0  0  0  0  0  0
  -28.0869  -21.5739   21.7588 H   0  0  0  0  0  0
  -27.3459  -21.2270   20.2507 H   0  0  0  0  0  0
  -29.0291  -15.2803   21.5494 H   0  0  0  0  0  0
  1 25  1  0  0  0
  1 30  2  0  0  0
  1 85  1  0  0  0
  2  3  1  0  0  0
  2 25  1  0  0  0
  2 87  1  0  0  0
  2 88  1  0  0  0
  3  4  1  0  0  0
  3 89  1  0  0  0
  3 90  1  0  0  0
  4  5  1  0  0  0
  4 91  1  0  0  0
  4 92  1  0  0  0
  5  6  1  0  0  0
  5 26  1  0  0  0
  5 93  1  0  0  0
  6 25  1  0  0  0
  6 94  1  0  0  0
  6 95  1  0  0  0
  7  8  2  0  0  0
  7 26  1  0  0  0
  7 29  1  0  0  0
  8  9  1  0  0  0
  8 22  1  0  0  0
  9 10  1  0  0  0
  9 27  2  0  0  0
 10 11  2  0  0  0
 10 15  1  0  0  0
 11 12  1  0  0  0
 11 96  1  0  0  0
 12 13  2  0  0  0
 12 97  1  0  0  0
 13 14  1  0  0  0
 13 31  1  0  0  0
 14 15  2  0  0  0
 14 98  1  0  0  0
 15 99  1  0  0  0
 16 17  2  0  0  0
 16 21  1  0  0  0
 16 31  1  0  0  0
 17 18  1  0  0  0
 17100  1  0  0  0
 18 19  2  0  0  0
 18101  1  0  0  0
 19 20  1  0  0  0
 19 24  1  0  0  0
 20 21  2  0  0  0
 20102  1  0  0  0
 21 23  1  0  0  0
 22 28  1  0  0  0
 22 32  2  0  0  0
 26 27  1  0  0  0
 28103  1  0  0  0
 28104  1  0  0  0
 29105  1  0  0  0
 29106  1  0  0  0
 33 34  1  0  0  0
 33 66  1  0  0  0
 33 70  2  0  0  0
 34 36  1  0  0  0
 34 59  1  0  0  0
 34107  1  0  0  0
 35 44  2  0  0  0
 35 45  1  0  0  0
 35 68  1  0  0  0
 36 56  1  0  0  0
 36108  1  0  0  0
 37 39  1  0  0  0
 37 47  1  0  0  0
 37 66  1  0  0  0
 37109  1  0  0  0
 38 43  2  0  0  0
 38 46  1  0  0  0
 38 47  1  0  0  0
 39 64  1  0  0  0
 39 67  2  0  0  0
 40 52  1  0  0  0
 40 53  2  0  0  0
 40 58  1  0  0  0
 41110  1  0  0  0
 41111  1  0  0  0
 41112  1  0  0  0
 41 48  1  0  0  0
 42 43  1  0  0  0
 42 66  1  0  0  0
 42113  1  0  0  0
 42114  1  0  0  0
 43 44  1  0  0  0
 44115  1  0  0  0
 45 46  2  0  0  0
 45116  1  0  0  0
 46117  1  0  0  0
 47118  1  0  0  0
 47119  1  0  0  0
 48 56  1  0  0  0
 48 65  1  0  0  0
 48120  1  0  0  0
 49 50  1  0  0  0
 49 53  1  0  0  0
 49 64  1  0  0  0
 49121  1  0  0  0
 50 51  1  0  0  0
 50122  1  0  0  0
 50123  1  0  0  0
 51 52  1  0  0  0
 51124  1  0  0  0
 51125  1  0  0  0
 52126  1  0  0  0
 52127  1  0  0  0
 53 54  1  0  0  0
 54 55  2  0  0  0
 54128  1  0  0  0
 55 57  1  0  0  0
 55129  1  0  0  0
 56 69  2  0  0  0
 57 58  2  0  0  0
 57130  1  0  0  0
 58131  1  0  0  0
 59 60  1  0  0  0
 59 61  1  0  0  0
 59 62  1  0  0  0
 60132  1  0  0  0
 60133  1  0  0  0
 60134  1  0  0  0
 61135  1  0  0  0
 61136  1  0  0  0
 61137  1  0  0  0
 62138  1  0  0  0
 62139  1  0  0  0
 62140  1  0  0  0
 63 65  1  0  0  0
 63141  1  0  0  0
 63142  1  0  0  0
 63143  1  0  0  0
 64144  1  0  0  0
 65145  1  0  0  0
 68 81  1  0  0  0
 71 72  2  0  0  0
 71 74  1  0  0  0
 71146  1  0  0  0
 72 76  1  0  0  0
 72147  1  0  0  0
 73 75  1  0  0  0
 73 76  2  0  0  0
 73148  1  0  0  0
 74 75  2  0  0  0
 74 83  1  0  0  0
 75 82  1  0  0  0
 76 85  1  0  0  0
 77 81  1  0  0  0
 77 84  1  0  0  0
 77 86  2  0  0  0
 78 79  1  0  0  0
 78 80  1  0  0  0
 78149  1  0  0  0
 78150  1  0  0  0
 79 81  1  0  0  0
 79151  1  0  0  0
 79152  1  0  0  0
 80 84  1  0  0  0
 80153  1  0  0  0
 80154  1  0  0  0
 81155  1  0  0  0
 82156  1  0  0  0
 82157  1  0  0  0
 82158  1  0  0  0
 83 84  1  0  0  0
 83159  1  0  0  0
 83160  1  0  0  0
 85161  1  0  0  0
M  ISO  4   1 100  68 101  81 101  85 100
M  END
> <chiral flag>
0

> <version>
0

> <s_m_source_file>
/data/baiqing/PycharmProjects/Reinvent-master-3.2/result/LINK_invent/BTK/process_docking_weight1_custom_product_contain_oxygen_bond_distance_aromatic_linkinvent_7_9_3/rearranged_h_0044.sdf

> <i_m_source_file_index>
7

> <r_mmod_Potential_Energy-OPLS-2005>
173.306228637695

> <r_mmod_Stretch_Energy-OPLS-2005>
94.7043380737305

> <r_mmod_Bend_Energy-OPLS-2005>
168.754257202148

> <r_mmod_Torsional_Energy-OPLS-2005>
274.311218261719

> <r_mmod_Improper_Torsional_Energy-OPLS-2005>
6.43611001968384

> <r_mmod_Van_der_Waal_Energy-OPLS-2005>
146.141632080078

> <r_mmod_Electrostatic_Energy-OPLS-2005>
-336.319671630859

> <r_mmod_Solvation_Energy-OPLS-2005>
-232.14079284668

> <b_mmod_Minimization_Converged-OPLS-2005>
0

> <r_mmod_RMS_Derivative-OPLS-2005>
1.53249526023865

$$$$
7
                    3D
 Structure written by MMmdl.
167176  0  0  1  0            999 V2000
  -30.5968  -14.6361   20.4973 C   0  0  0  0  0  0
  -30.4456  -12.3894   19.4438 C   0  0  0  0  0  0
  -29.5078  -12.5052   18.2202 C   0  0  0  0  0  0
  -28.0295  -12.3439   18.6332 C   0  0  0  0  0  0
  -27.6560  -13.2024   19.8704 C   0  0  2  0  0  0
  -28.7037  -13.0347   20.9938 C   0  0  0  0  0  0
  -25.2582  -13.8131   20.5686 C   0  0  0  0  0  0
  -24.1826  -13.0419   20.9184 C   0  0  0  0  0  0
  -24.6378  -11.6882   20.8744 C   0  0  0  0  0  0
  -23.9046  -10.4276   21.0408 C   0  0  0  0  0  0
  -24.3601   -9.4195   21.9190 C   0  0  0  0  0  0
  -23.6285   -8.2229   22.0751 C   0  0  0  0  0  0
  -22.4266   -8.0272   21.3548 C   0  0  0  0  0  0
  -21.9901   -9.0236   20.4641 C   0  0  0  0  0  0
  -22.7220  -10.2118   20.3056 C   0  0  0  0  0  0
  -21.6845   -6.0737   22.5284 C   0  0  0  0  0  0
  -21.4006   -6.5641   23.8215 C   0  0  0  0  0  0
  -21.3663   -5.6793   24.9179 C   0  0  0  0  0  0
  -21.6041   -4.3059   24.7223 C   0  0  0  0  0  0
  -21.8816   -3.8151   23.4346 C   0  0  0  0  0  0
  -21.9191   -4.6970   22.3402 C   0  0  0  0  0  0
  -22.7857  -13.5231   21.1844 C   0  0  0  0  0  0
  -22.1666   -4.2158   21.0983 F   0  0  0  0  0  0
  -21.5631   -3.4544   25.7737 F   0  0  0  0  0  0
  -30.0172  -13.3956   20.4340 N   0  0  0  0  0  0
  -26.3001  -12.9281   20.3358 N   0  0  0  0  0  0
  -25.9309  -11.6451   20.5787 N   0  0  0  0  0  0
  -22.0489  -12.8235   22.0400 N   0  0  0  0  0  0
  -25.4297  -15.1850   20.4101 N   0  0  0  0  0  0
  -31.7486  -14.8358   20.1008 O   0  0  0  0  0  0
  -21.6631   -6.8877   21.4242 O   0  0  0  0  0  0
  -22.3554  -14.5544   20.6696 O   0  0  0  0  0  0
  -24.6228  -31.8603   23.2025 C   0  0  0  0  0  0
  -25.9088  -32.4773   23.8345 C   0  0  1  0  0  0
  -27.2271  -27.3353   20.1149 C   0  0  0  0  0  0
  -25.5915  -33.8577   24.2265 N   0  0  0  0  0  0
  -23.4135  -30.4841   21.5450 C   0  0  2  0  0  0
  -24.8560  -28.9304   20.1119 C   0  0  0  0  0  0
  -22.7433  -29.4654   22.4959 C   0  0  0  0  0  0
  -18.0275  -28.1378   22.8485 C   0  0  0  0  0  0
  -24.1490  -36.7303   23.2646 C   0  0  0  0  0  0
  -25.9500  -30.7972   21.3671 C   0  0  0  0  0  0
  -26.0212  -29.4248   20.7091 C   0  0  0  0  0  0
  -27.2035  -28.6367   20.6989 C   0  0  0  0  0  0
  -26.0343  -26.8715   19.5197 C   0  0  0  0  0  0
  -24.8630  -27.6587   19.5117 C   0  0  0  0  0  0
  -23.6236  -29.8107   20.1620 C   0  0  0  0  0  0
  -25.4122  -36.3086   24.0326 C   0  0  1  0  0  0
  -20.5875  -28.3694   23.1292 C   0  0  2  0  0  0
  -20.6770  -26.9426   22.5416 C   0  0  0  0  0  0
  -19.5752  -26.6386   21.5212 C   0  0  0  0  0  0
  -18.1927  -26.7924   22.1617 C   0  0  0  0  0  0
  -19.1526  -28.8849   23.2886 C   0  0  0  0  0  0
  -18.9451  -30.1444   23.8919 C   0  0  0  0  0  0
  -17.6456  -30.6587   24.0569 C   0  0  0  0  0  0
  -25.9057  -34.9452   23.5105 C   0  0  0  0  0  0
  -16.5345  -29.9093   23.6326 C   0  0  0  0  0  0
  -16.7263  -28.6497   23.0367 C   0  0  0  0  0  0
  -26.4473  -31.6584   25.0711 C   0  0  0  0  0  0
  -25.3704  -31.3734   26.1434 C   0  0  0  0  0  0
  -27.0295  -30.2998   24.6156 C   0  0  0  0  0  0
  -27.6028  -32.4323   25.7483 C   0  0  0  0  0  0
  -27.5586  -37.1811   24.8452 C   0  0  0  0  0  0
  -21.4156  -29.3050   22.3677 N   0  0  0  0  0  0
  -26.4301  -37.3780   23.9395 N   0  0  0  0  0  0
  -24.6813  -31.0638   22.0960 N   0  0  0  0  0  0
  -23.4163  -28.8213   23.3047 O   0  0  0  0  0  0
  -28.3986  -26.5760   20.1929 O   0  0  0  0  0  0
  -26.5629  -34.8918   22.4673 O   0  0  0  0  0  0
  -23.5406  -32.1398   23.7391 O   0  0  0  0  0  0
  -29.8140  -19.3840   21.5199 C   0  0  0  0  0  0
  -30.1725  -18.0067   21.5727 C   0  0  0  0  0  0
  -28.9104  -19.9104   20.5551 C   0  0  0  0  0  0
  -28.4674  -18.9765   19.5587 C   0  0  0  0  0  0
  -28.9111  -17.6052   19.5569 C   0  0  0  0  0  0
  -29.7049  -17.0743   20.6166 C   0  0  0  0  0  0
  -28.0844  -23.9744   20.5142 C   0  0  0  0  0  0
  -27.1665  -24.0567   21.4966 C   0  0  0  0  0  0
  -29.1482  -23.6663   17.7850 C   0  0  0  0  0  0
  -28.4817  -24.9917   18.1924 C   0  0  0  0  0  0
  -28.5963  -22.4590   18.5714 C   0  0  0  0  0  0
  -28.6256  -25.1989   19.7070 C   0  0  2  0  0  0
  -27.4325  -19.3934   18.5159 C   0  0  0  0  0  0
  -28.4854  -16.6816   18.4190 C   0  0  0  0  0  0
  -28.2805  -21.3525   20.7958 C   0  0  0  0  0  0
  -29.7572  -15.6414   20.8937 N   0  0  0  0  0  0
  -28.7036  -22.6157   20.0467 N   0  3  1  0  0  0
  -31.4843  -12.5279   19.1380 H   0  0  0  0  0  0
  -30.3918  -11.3884   19.8740 H   0  0  0  0  0  0
  -29.7721  -11.7556   17.4731 H   0  0  0  0  0  0
  -29.6497  -13.4736   17.7393 H   0  0  0  0  0  0
  -27.8651  -11.2896   18.8548 H   0  0  0  0  0  0
  -27.3720  -12.5805   17.7957 H   0  0  0  0  0  0
  -27.6786  -14.2387   19.5439 H   0  0  0  0  0  0
  -28.7203  -12.0031   21.3496 H   0  0  0  0  0  0
  -28.4495  -13.6412   21.8640 H   0  0  0  0  0  0
  -25.2744   -9.5679   22.4772 H   0  0  0  0  0  0
  -23.9994   -7.4617   22.7473 H   0  0  0  0  0  0
  -21.0833   -8.8735   19.8953 H   0  0  0  0  0  0
  -22.3666  -10.9651   19.6165 H   0  0  0  0  0  0
  -21.1995   -7.6147   23.9723 H   0  0  0  0  0  0
  -21.1497   -6.0527   25.9084 H   0  0  0  0  0  0
  -22.0595   -2.7620   23.2835 H   0  0  0  0  0  0
  -22.4076  -11.9886   22.4796 H   0  0  0  0  0  0
  -21.1105  -13.1267   22.2594 H   0  0  0  0  0  0
  -24.6617  -15.8361   20.5282 H   0  0  0  0  0  0
  -26.2827  -15.6342   20.1060 H   0  0  0  0  0  0
  -26.7159  -32.5429   23.1099 H   0  0  0  0  0  0
  -25.0015  -33.9718   25.0374 H   0  0  0  0  0  0
  -22.7069  -31.3046   21.4017 H   0  0  0  0  0  0
  -23.3754  -35.9635   23.3300 H   0  0  0  0  0  0
  -24.3584  -36.8937   22.2064 H   0  0  0  0  0  0
  -23.7234  -37.6504   23.6667 H   0  0  0  0  0  0
  -26.0799  -31.5664   20.6041 H   0  0  0  0  0  0
  -26.8302  -30.8414   21.9976 H   0  0  0  0  0  0
  -28.0990  -29.0154   21.1719 H   0  0  0  0  0  0
  -25.9735  -25.8854   19.0915 H   0  0  0  0  0  0
  -23.9618  -27.2670   19.0597 H   0  0  0  0  0  0
  -23.7410  -30.5835   19.4018 H   0  0  0  0  0  0
  -22.7395  -29.2422   19.8660 H   0  0  0  0  0  0
  -25.1313  -36.1957   25.0824 H   0  0  0  0  0  0
  -20.9969  -28.3280   24.1411 H   0  0  0  0  0  0
  -20.5665  -26.2315   23.3615 H   0  0  0  0  0  0
  -21.6642  -26.7456   22.1217 H   0  0  0  0  0  0
  -19.6932  -25.6294   21.1249 H   0  0  0  0  0  0
  -19.6706  -27.3180   20.6731 H   0  0  0  0  0  0
  -17.4205  -26.6669   21.4012 H   0  0  0  0  0  0
  -18.0340  -26.0053   22.9000 H   0  0  0  0  0  0
  -19.7929  -30.7244   24.2313 H   0  0  0  0  0  0
  -17.5015  -31.6273   24.5158 H   0  0  0  0  0  0
  -15.5348  -30.3014   23.7634 H   0  0  0  0  0  0
  -15.8651  -28.0812   22.7117 H   0  0  0  0  0  0
  -24.5886  -30.7070   25.7764 H   0  0  0  0  0  0
  -24.8884  -32.2909   26.4824 H   0  0  0  0  0  0
  -25.8024  -30.8938   27.0226 H   0  0  0  0  0  0
  -26.2858  -29.6775   24.1161 H   0  0  0  0  0  0
  -27.3958  -29.7222   25.4653 H   0  0  0  0  0  0
  -27.8740  -30.4256   23.9376 H   0  0  0  0  0  0
  -27.2616  -33.3615   26.2059 H   0  0  0  0  0  0
  -28.3834  -32.6910   25.0314 H   0  0  0  0  0  0
  -28.0692  -31.8454   26.5406 H   0  0  0  0  0  0
  -28.2597  -38.0113   24.7511 H   0  0  0  0  0  0
  -28.1089  -36.2649   24.6268 H   0  0  0  0  0  0
  -27.2297  -37.1439   25.8850 H   0  0  0  0  0  0
  -20.9325  -29.8748   21.6870 H   0  0  0  0  0  0
  -26.0192  -38.2861   24.1391 H   0  0  0  0  0  0
  -30.1676  -20.0203   22.3190 H   0  0  0  0  0  0
  -30.7584  -17.6573   22.4114 H   0  0  0  0  0  0
  -26.7540  -25.0121   21.7866 H   0  0  0  0  0  0
  -26.7985  -23.1950   22.0318 H   0  0  0  0  0  0
  -30.2278  -23.7353   17.9275 H   0  0  0  0  0  0
  -28.9979  -23.4962   16.7190 H   0  0  0  0  0  0
  -27.4373  -24.9758   17.8877 H   0  0  0  0  0  0
  -28.9500  -25.8189   17.6576 H   0  0  0  0  0  0
  -29.1443  -21.5716   18.2571 H   0  0  0  0  0  0
  -27.5490  -22.3133   18.3056 H   0  0  0  0  0  0
  -29.6996  -25.1303   19.8862 H   0  0  0  0  0  0
  -27.9231  -19.6701   17.5825 H   0  0  0  0  0  0
  -26.8015  -20.2161   18.8406 H   0  0  0  0  0  0
  -26.7357  -18.5840   18.2990 H   0  0  0  0  0  0
  -28.5743  -17.1924   17.4596 H   0  0  0  0  0  0
  -27.4522  -16.3592   18.5368 H   0  0  0  0  0  0
  -29.1166  -15.7984   18.3395 H   0  0  0  0  0  0
  -28.4476  -21.5699   21.8525 H   0  0  0  0  0  0
  -27.1980  -21.2583   20.7153 H   0  0  0  0  0  0
  -28.8810  -15.2733   21.2290 H   0  0  0  0  0  0
  -29.6949  -22.6668   20.2293 H   0  0  0  0  0  0
  1 25  1  0  0  0
  1 30  2  0  0  0
  1 86  1  0  0  0
  2  3  1  0  0  0
  2 25  1  0  0  0
  2 88  1  0  0  0
  2 89  1  0  0  0
  3  4  1  0  0  0
  3 90  1  0  0  0
  3 91  1  0  0  0
  4  5  1  0  0  0
  4 92  1  0  0  0
  4 93  1  0  0  0
  5  6  1  0  0  0
  5 26  1  0  0  0
  5 94  1  0  0  0
  6 25  1  0  0  0
  6 95  1  0  0  0
  6 96  1  0  0  0
  7  8  2  0  0  0
  7 26  1  0  0  0
  7 29  1  0  0  0
  8  9  1  0  0  0
  8 22  1  0  0  0
  9 10  1  0  0  0
  9 27  2  0  0  0
 10 11  2  0  0  0
 10 15  1  0  0  0
 11 12  1  0  0  0
 11 97  1  0  0  0
 12 13  2  0  0  0
 12 98  1  0  0  0
 13 14  1  0  0  0
 13 31  1  0  0  0
 14 15  2  0  0  0
 14 99  1  0  0  0
 15100  1  0  0  0
 16 17  2  0  0  0
 16 21  1  0  0  0
 16 31  1  0  0  0
 17 18  1  0  0  0
 17101  1  0  0  0
 18 19  2  0  0  0
 18102  1  0  0  0
 19 20  1  0  0  0
 19 24  1  0  0  0
 20 21  2  0  0  0
 20103  1  0  0  0
 21 23  1  0  0  0
 22 28  1  0  0  0
 22 32  2  0  0  0
 26 27  1  0  0  0
 28104  1  0  0  0
 28105  1  0  0  0
 29106  1  0  0  0
 29107  1  0  0  0
 33 34  1  0  0  0
 33 66  1  0  0  0
 33 70  2  0  0  0
 34 36  1  0  0  0
 34 59  1  0  0  0
 34108  1  0  0  0
 35 44  2  0  0  0
 35 45  1  0  0  0
 35 68  1  0  0  0
 36 56  1  0  0  0
 36109  1  0  0  0
 37 39  1  0  0  0
 37 47  1  0  0  0
 37 66  1  0  0  0
 37110  1  0  0  0
 38 43  2  0  0  0
 38 46  1  0  0  0
 38 47  1  0  0  0
 39 64  1  0  0  0
 39 67  2  0  0  0
 40 52  1  0  0  0
 40 53  2  0  0  0
 40 58  1  0  0  0
 41111  1  0  0  0
 41112  1  0  0  0
 41113  1  0  0  0
 41 48  1  0  0  0
 42 43  1  0  0  0
 42 66  1  0  0  0
 42114  1  0  0  0
 42115  1  0  0  0
 43 44  1  0  0  0
 44116  1  0  0  0
 45 46  2  0  0  0
 45117  1  0  0  0
 46118  1  0  0  0
 47119  1  0  0  0
 47120  1  0  0  0
 48 56  1  0  0  0
 48 65  1  0  0  0
 48121  1  0  0  0
 49 50  1  0  0  0
 49 53  1  0  0  0
 49 64  1  0  0  0
 49122  1  0  0  0
 50 51  1  0  0  0
 50123  1  0  0  0
 50124  1  0  0  0
 51 52  1  0  0  0
 51125  1  0  0  0
 51126  1  0  0  0
 52127  1  0  0  0
 52128  1  0  0  0
 53 54  1  0  0  0
 54 55  2  0  0  0
 54129  1  0  0  0
 55 57  1  0  0  0
 55130  1  0  0  0
 56 69  2  0  0  0
 57 58  2  0  0  0
 57131  1  0  0  0
 58132  1  0  0  0
 59 60  1  0  0  0
 59 61  1  0  0  0
 59 62  1  0  0  0
 60133  1  0  0  0
 60134  1  0  0  0
 60135  1  0  0  0
 61136  1  0  0  0
 61137  1  0  0  0
 61138  1  0  0  0
 62139  1  0  0  0
 62140  1  0  0  0
 62141  1  0  0  0
 63 65  1  0  0  0
 63142  1  0  0  0
 63143  1  0  0  0
 63144  1  0  0  0
 64145  1  0  0  0
 65146  1  0  0  0
 68 82  1  0  0  0
 71 72  2  0  0  0
 71 73  1  0  0  0
 71147  1  0  0  0
 72 76  1  0  0  0
 72148  1  0  0  0
 73 74  2  0  0  0
 73 85  1  0  0  0
 74 75  1  0  0  0
 74 83  1  0  0  0
 75 76  2  0  0  0
 75 84  1  0  0  0
 76 86  1  0  0  0
 77 78  2  0  0  0
 77 82  1  0  0  0
 77 87  1  0  0  0
 78149  1  0  0  0
 78150  1  0  0  0
 79 80  1  0  0  0
 79 81  1  0  0  0
 79151  1  0  0  0
 79152  1  0  0  0
 80 82  1  0  0  0
 80153  1  0  0  0
 80154  1  0  0  0
 81 87  1  0  0  0
 81155  1  0  0  0
 81156  1  0  0  0
 82157  1  0  0  0
 83158  1  0  0  0
 83159  1  0  0  0
 83160  1  0  0  0
 84161  1  0  0  0
 84162  1  0  0  0
 84163  1  0  0  0
 85164  1  0  0  0
 85165  1  0  0  0
 85 87  1  0  0  0
 86166  1  0  0  0
 87167  1  0  0  0
M  CHG  1  87   1
M  ISO  4   1 100  68 101  82 101  86 100
M  END
> <chiral flag>
0

> <version>
0

> <s_m_source_file>
/data/baiqing/PycharmProjects/Reinvent-master-3.2/result/LINK_invent/BTK/process_docking_weight1_custom_product_contain_oxygen_bond_distance_aromatic_linkinvent_7_9_3/rearranged_h_0044.sdf

> <i_m_source_file_index>
8

> <r_mmod_Potential_Energy-OPLS-2005>
-7.40734672546387

> <r_mmod_Stretch_Energy-OPLS-2005>
87.6987152099609

> <r_mmod_Bend_Energy-OPLS-2005>
187.883728027344

> <r_mmod_Torsional_Energy-OPLS-2005>
252.138458251953

> <r_mmod_Improper_Torsional_Energy-OPLS-2005>
8.39542198181152

> <r_mmod_Van_der_Waal_Energy-OPLS-2005>
144.531204223633

> <r_mmod_Electrostatic_Energy-OPLS-2005>
-295.252349853516

> <r_mmod_Solvation_Energy-OPLS-2005>
-436.048919677734

> <b_mmod_Minimization_Converged-OPLS-2005>
0

> <r_mmod_RMS_Derivative-OPLS-2005>
1.837557554245

$$$$
8
                    3D
 Structure written by MMmdl.
164172  0  0  1  0            999 V2000
  -30.6424  -14.5015   20.7112 C   0  0  0  0  0  0
  -30.4683  -12.3821   19.4365 C   0  0  0  0  0  0
  -29.5273  -12.5528   18.2237 C   0  0  0  0  0  0
  -28.0365  -12.4144   18.6125 C   0  0  0  0  0  0
  -27.6747  -13.1974   19.9062 C   0  0  2  0  0  0
  -28.7110  -12.8941   21.0076 C   0  0  0  0  0  0
  -25.2679  -13.7793   20.5870 C   0  0  0  0  0  0
  -24.1894  -13.0186   20.9226 C   0  0  0  0  0  0
  -24.6379  -11.6669   20.8672 C   0  0  0  0  0  0
  -23.8933  -10.4164   21.0319 C   0  0  0  0  0  0
  -24.3478   -9.4154   21.9164 C   0  0  0  0  0  0
  -23.6200   -8.2167   22.0720 C   0  0  0  0  0  0
  -22.4173   -8.0168   21.3528 C   0  0  0  0  0  0
  -21.9777   -9.0107   20.4626 C   0  0  0  0  0  0
  -22.7039  -10.2012   20.3068 C   0  0  0  0  0  0
  -21.6746   -6.0653   22.5306 C   0  0  0  0  0  0
  -21.3915   -6.5584   23.8250 C   0  0  0  0  0  0
  -21.3719   -5.6761   24.9256 C   0  0  0  0  0  0
  -21.6101   -4.3023   24.7293 C   0  0  0  0  0  0
  -21.8811   -3.8087   23.4417 C   0  0  0  0  0  0
  -21.9151   -4.6893   22.3457 C   0  0  0  0  0  0
  -22.7992  -13.5170   21.1827 C   0  0  0  0  0  0
  -22.1611   -4.2119   21.1017 F   0  0  0  0  0  0
  -21.5727   -3.4510   25.7795 F   0  0  0  0  0  0
  -30.0358  -13.2956   20.5148 N   0  0  0  0  0  0
  -26.3114  -12.9058   20.3552 N   0  0  0  0  0  0
  -25.9355  -11.6193   20.5725 N   0  0  0  0  0  0
  -22.0485  -12.8352   22.0426 N   0  0  0  0  0  0
  -25.4522  -15.1313   20.4369 N   0  0  0  0  0  0
  -31.7232  -14.7773   20.1880 O   0  0  0  0  0  0
  -21.6543   -6.8742   21.4234 O   0  0  0  0  0  0
  -22.3887  -14.5566   20.6641 O   0  0  0  0  0  0
  -24.6129  -31.8793   23.1967 C   0  0  0  0  0  0
  -25.9030  -32.4842   23.8307 C   0  0  1  0  0  0
  -27.2423  -27.4132   20.1274 C   0  0  0  0  0  0
  -25.5908  -33.8633   24.2319 N   0  0  0  0  0  0
  -23.3950  -30.5063   21.5240 C   0  0  2  0  0  0
  -24.8444  -28.9476   20.1189 C   0  0  0  0  0  0
  -22.7340  -29.4893   22.4820 C   0  0  0  0  0  0
  -18.0266  -28.1361   22.8517 C   0  0  0  0  0  0
  -24.1478  -36.7320   23.2635 C   0  0  0  0  0  0
  -25.9228  -30.8507   21.3349 C   0  0  0  0  0  0
  -26.0027  -29.4647   20.7132 C   0  0  0  0  0  0
  -27.1973  -28.7027   20.7153 C   0  0  0  0  0  0
  -26.0650  -26.9181   19.5238 C   0  0  0  0  0  0
  -24.8732  -27.6744   19.5209 C   0  0  0  0  0  0
  -23.6094  -29.8175   20.1445 C   0  0  0  0  0  0
  -25.4074  -36.3087   24.0304 C   0  0  1  0  0  0
  -20.5967  -28.3875   23.1089 C   0  0  2  0  0  0
  -20.6991  -26.9503   22.5462 C   0  0  0  0  0  0
  -19.5818  -26.6188   21.5437 C   0  0  0  0  0  0
  -18.2006  -26.7798   22.2020 C   0  0  0  0  0  0
  -19.1509  -28.9038   23.2653 C   0  0  0  0  0  0
  -18.9328  -30.1660   23.8670 C   0  0  0  0  0  0
  -17.6245  -30.6667   24.0098 C   0  0  0  0  0  0
  -25.9023  -34.9451   23.5096 C   0  0  0  0  0  0
  -16.5171  -29.8918   23.6042 C   0  0  0  0  0  0
  -16.7149  -28.6191   23.0325 C   0  0  0  0  0  0
  -26.4414  -31.6552   25.0603 C   0  0  0  0  0  0
  -25.3677  -31.3719   26.1395 C   0  0  0  0  0  0
  -27.0307  -30.3006   24.5902 C   0  0  0  0  0  0
  -27.5960  -32.4251   25.7356 C   0  0  0  0  0  0
  -27.5563  -37.1784   24.8454 C   0  0  0  0  0  0
  -21.4148  -29.3097   22.3263 N   0  0  0  0  0  0
  -26.4274  -37.3736   23.9415 N   0  0  0  0  0  0
  -24.6633  -31.0973   22.0764 N   0  0  0  0  0  0
  -23.4048  -28.8674   23.3152 O   0  0  0  0  0  0
  -28.4420  -26.7305   20.1456 O   0  0  0  0  0  0
  -26.5626  -34.8895   22.4698 O   0  0  0  0  0  0
  -23.5270  -32.1509   23.7376 O   0  0  0  0  0  0
  -27.9213  -22.1883   23.3793 C   0  0  0  0  0  0
  -26.6064  -18.8664   21.5258 C   0  0  0  0  0  0
  -25.9083  -18.4720   20.3731 C   0  0  0  0  0  0
  -27.8581  -17.1604   19.6921 C   0  0  0  0  0  0
  -27.9733  -18.5320   21.6802 C   0  0  0  0  0  0
  -28.5658  -17.5285   20.8595 C   0  0  0  0  0  0
  -26.5653  -17.6862   19.4123 C   0  0  0  0  0  0
  -27.5620  -22.2402   24.6311 C   0  0  0  0  0  0
  -28.2730  -21.9887   22.1130 C   0  0  0  0  0  0
  -29.9664  -16.9030   21.1244 C   0  0  0  0  0  0
  -28.8164  -19.4981   22.4926 C   0  0  0  0  0  0
  -28.0497  -22.9509   20.9373 C   0  0  0  0  0  0
  -28.2679  -24.4737   21.2142 C   0  0  0  0  0  0
  -28.5154  -25.3119   19.9321 C   0  0  0  0  0  0
  -29.9236  -15.4432   21.3811 N   0  0  0  0  0  0
  -28.9603  -20.7333   21.6751 N   0  3  0  0  0  0
  -25.8119  -17.3302   17.8990 Cl  0  0  0  0  0  0
  -31.4904  -12.5934   19.1081 H   0  0  0  0  0  0
  -30.4743  -11.3519   19.7916 H   0  0  0  0  0  0
  -29.7745  -11.8019   17.4762 H   0  0  0  0  0  0
  -29.7209  -13.5266   17.7658 H   0  0  0  0  0  0
  -27.8282  -11.3582   18.7598 H   0  0  0  0  0  0
  -27.3905  -12.7326   17.7906 H   0  0  0  0  0  0
  -27.7311  -14.2622   19.6922 H   0  0  0  0  0  0
  -28.7215  -11.8218   21.1955 H   0  0  0  0  0  0
  -28.4508  -13.3422   21.9665 H   0  0  0  0  0  0
  -25.2534   -9.5686   22.4861 H   0  0  0  0  0  0
  -23.9914   -7.4538   22.7405 H   0  0  0  0  0  0
  -21.0762   -8.8574   19.8890 H   0  0  0  0  0  0
  -22.3387  -10.9597   19.6308 H   0  0  0  0  0  0
  -21.1771   -7.6075   23.9788 H   0  0  0  0  0  0
  -21.1587   -6.0456   25.9185 H   0  0  0  0  0  0
  -22.0500   -2.7549   23.2909 H   0  0  0  0  0  0
  -22.3884  -12.0019   22.4983 H   0  0  0  0  0  0
  -21.1138  -13.1654   22.2507 H   0  0  0  0  0  0
  -24.6855  -15.7834   20.4889 H   0  0  0  0  0  0
  -26.3195  -15.5213   20.0940 H   0  0  0  0  0  0
  -26.7119  -32.5549   23.1115 H   0  0  0  0  0  0
  -24.9789  -33.9750   25.0250 H   0  0  0  0  0  0
  -22.6989  -31.3286   21.3446 H   0  0  0  0  0  0
  -23.3704  -35.9716   23.3277 H   0  0  0  0  0  0
  -24.3552  -36.8975   22.2081 H   0  0  0  0  0  0
  -23.7330  -37.6526   23.6688 H   0  0  0  0  0  0
  -26.0092  -31.5964   20.5418 H   0  0  0  0  0  0
  -26.8236  -30.9375   21.9273 H   0  0  0  0  0  0
  -28.0738  -29.1050   21.2004 H   0  0  0  0  0  0
  -26.0329  -25.9503   19.0512 H   0  0  0  0  0  0
  -23.9758  -27.2667   19.0655 H   0  0  0  0  0  0
  -23.7291  -30.5707   19.3565 H   0  0  0  0  0  0
  -22.7308  -29.2350   19.8663 H   0  0  0  0  0  0
  -25.1288  -36.1866   25.0773 H   0  0  0  0  0  0
  -20.9818  -28.3940   24.1314 H   0  0  0  0  0  0
  -20.6458  -26.2464   23.3753 H   0  0  0  0  0  0
  -21.6753  -26.7687   22.0946 H   0  0  0  0  0  0
  -19.6857  -25.6008   21.1539 H   0  0  0  0  0  0
  -19.6681  -27.2791   20.6884 H   0  0  0  0  0  0
  -17.4016  -26.5632   21.4876 H   0  0  0  0  0  0
  -18.0859  -26.0449   22.9933 H   0  0  0  0  0  0
  -19.7594  -30.7715   24.2127 H   0  0  0  0  0  0
  -17.4537  -31.6409   24.4550 H   0  0  0  0  0  0
  -15.5271  -30.2927   23.7011 H   0  0  0  0  0  0
  -15.8539  -28.0335   22.7247 H   0  0  0  0  0  0
  -24.5768  -30.7139   25.7777 H   0  0  0  0  0  0
  -24.8951  -32.2971   26.4746 H   0  0  0  0  0  0
  -25.8031  -30.8945   27.0195 H   0  0  0  0  0  0
  -26.2927  -29.6700   24.0942 H   0  0  0  0  0  0
  -27.4256  -29.7234   25.4281 H   0  0  0  0  0  0
  -27.8604  -30.4427   23.8949 H   0  0  0  0  0  0
  -27.2567  -33.3538   26.1936 H   0  0  0  0  0  0
  -28.3755  -32.6842   25.0178 H   0  0  0  0  0  0
  -28.0659  -31.8365   26.5264 H   0  0  0  0  0  0
  -28.2526  -38.0095   24.7452 H   0  0  0  0  0  0
  -28.1088  -36.2646   24.6307 H   0  0  0  0  0  0
  -27.2287  -37.1452   25.8836 H   0  0  0  0  0  0
  -20.9486  -29.8262   21.5969 H   0  0  0  0  0  0
  -26.0140  -38.2771   24.1437 H   0  0  0  0  0  0
  -26.1149  -19.5400   22.2133 H   0  0  0  0  0  0
  -24.9016  -18.8556   20.2127 H   0  0  0  0  0  0
  -28.3506  -16.5585   18.9545 H   0  0  0  0  0  0
  -26.5870  -21.8783   24.9614 H   0  0  0  0  0  0
  -28.2106  -22.6433   25.4018 H   0  0  0  0  0  0
  -30.5922  -17.1827   20.2649 H   0  0  0  0  0  0
  -30.4997  -17.3325   21.9711 H   0  0  0  0  0  0
  -29.8216  -19.1521   22.6870 H   0  0  0  0  0  0
  -28.3658  -19.6373   23.4814 H   0  0  0  0  0  0
  -27.0069  -22.8104   20.6282 H   0  0  0  0  0  0
  -28.6758  -22.6381   20.0982 H   0  0  0  0  0  0
  -29.1230  -24.6252   21.8819 H   0  0  0  0  0  0
  -27.3891  -24.8768   21.7335 H   0  0  0  0  0  0
  -27.8908  -24.9928   19.1061 H   0  0  0  0  0  0
  -29.5339  -25.1117   19.5834 H   0  0  0  0  0  0
  -29.2307  -15.1324   22.0537 H   0  0  0  0  0  0
  -29.9449  -20.9183   21.5877 H   0  0  0  0  0  0
  -28.6658  -20.5005   20.7294 H   0  0  0  0  0  0
  1 25  1  0  0  0
  1 30  2  0  0  0
  1 85  1  0  0  0
  2  3  1  0  0  0
  2 25  1  0  0  0
  2 88  1  0  0  0
  2 89  1  0  0  0
  3  4  1  0  0  0
  3 90  1  0  0  0
  3 91  1  0  0  0
  4  5  1  0  0  0
  4 92  1  0  0  0
  4 93  1  0  0  0
  5  6  1  0  0  0
  5 26  1  0  0  0
  5 94  1  0  0  0
  6 25  1  0  0  0
  6 95  1  0  0  0
  6 96  1  0  0  0
  7  8  2  0  0  0
  7 26  1  0  0  0
  7 29  1  0  0  0
  8  9  1  0  0  0
  8 22  1  0  0  0
  9 10  1  0  0  0
  9 27  2  0  0  0
 10 11  2  0  0  0
 10 15  1  0  0  0
 11 12  1  0  0  0
 11 97  1  0  0  0
 12 13  2  0  0  0
 12 98  1  0  0  0
 13 14  1  0  0  0
 13 31  1  0  0  0
 14 15  2  0  0  0
 14 99  1  0  0  0
 15100  1  0  0  0
 16 17  2  0  0  0
 16 21  1  0  0  0
 16 31  1  0  0  0
 17 18  1  0  0  0
 17101  1  0  0  0
 18 19  2  0  0  0
 18102  1  0  0  0
 19 20  1  0  0  0
 19 24  1  0  0  0
 20 21  2  0  0  0
 20103  1  0  0  0
 21 23  1  0  0  0
 22 28  1  0  0  0
 22 32  2  0  0  0
 26 27  1  0  0  0
 28104  1  0  0  0
 28105  1  0  0  0
 29106  1  0  0  0
 29107  1  0  0  0
 33 34  1  0  0  0
 33 66  1  0  0  0
 33 70  2  0  0  0
 34 36  1  0  0  0
 34 59  1  0  0  0
 34108  1  0  0  0
 35 44  2  0  0  0
 35 45  1  0  0  0
 35 68  1  0  0  0
 36 56  1  0  0  0
 36109  1  0  0  0
 37 39  1  0  0  0
 37 47  1  0  0  0
 37 66  1  0  0  0
 37110  1  0  0  0
 38 43  2  0  0  0
 38 46  1  0  0  0
 38 47  1  0  0  0
 39 64  1  0  0  0
 39 67  2  0  0  0
 40 52  1  0  0  0
 40 53  2  0  0  0
 40 58  1  0  0  0
 41111  1  0  0  0
 41112  1  0  0  0
 41113  1  0  0  0
 41 48  1  0  0  0
 42 43  1  0  0  0
 42 66  1  0  0  0
 42114  1  0  0  0
 42115  1  0  0  0
 43 44  1  0  0  0
 44116  1  0  0  0
 45 46  2  0  0  0
 45117  1  0  0  0
 46118  1  0  0  0
 47119  1  0  0  0
 47120  1  0  0  0
 48 56  1  0  0  0
 48 65  1  0  0  0
 48121  1  0  0  0
 49 50  1  0  0  0
 49 53  1  0  0  0
 49 64  1  0  0  0
 49122  1  0  0  0
 50 51  1  0  0  0
 50123  1  0  0  0
 50124  1  0  0  0
 51 52  1  0  0  0
 51125  1  0  0  0
 51126  1  0  0  0
 52127  1  0  0  0
 52128  1  0  0  0
 53 54  1  0  0  0
 54 55  2  0  0  0
 54129  1  0  0  0
 55 57  1  0  0  0
 55130  1  0  0  0
 56 69  2  0  0  0
 57 58  2  0  0  0
 57131  1  0  0  0
 58132  1  0  0  0
 59 60  1  0  0  0
 59 61  1  0  0  0
 59 62  1  0  0  0
 60133  1  0  0  0
 60134  1  0  0  0
 60135  1  0  0  0
 61136  1  0  0  0
 61137  1  0  0  0
 61138  1  0  0  0
 62139  1  0  0  0
 62140  1  0  0  0
 62141  1  0  0  0
 63 65  1  0  0  0
 63142  1  0  0  0
 63143  1  0  0  0
 63144  1  0  0  0
 64145  1  0  0  0
 65146  1  0  0  0
 68 84  1  0  0  0
 71 78  2  0  0  0
 71 79  2  0  0  0
 72 73  2  0  0  0
 72 75  1  0  0  0
 72147  1  0  0  0
 73 77  1  0  0  0
 73148  1  0  0  0
 74 76  1  0  0  0
 74 77  2  0  0  0
 74149  1  0  0  0
 75 76  2  0  0  0
 75 81  1  0  0  0
 76 80  1  0  0  0
 77 87  1  0  0  0
 78150  1  0  0  0
 78151  1  0  0  0
 79 82  1  0  0  0
 79 86  1  0  0  0
 80 85  1  0  0  0
 80152  1  0  0  0
 80153  1  0  0  0
 81 86  1  0  0  0
 81154  1  0  0  0
 81155  1  0  0  0
 82 83  1  0  0  0
 82156  1  0  0  0
 82157  1  0  0  0
 83 84  1  0  0  0
 83158  1  0  0  0
 83159  1  0  0  0
 84160  1  0  0  0
 84161  1  0  0  0
 85162  1  0  0  0
 86163  1  0  0  0
 86164  1  0  0  0
M  CHG  1  86   1
M  ISO  4   1 100  68 101  84 101  85 100
M  END
> <chiral flag>
0

> <version>
0

> <s_m_source_file>
/data/baiqing/PycharmProjects/Reinvent-master-3.2/result/LINK_invent/BTK/process_docking_weight1_custom_product_contain_oxygen_bond_distance_aromatic_linkinvent_7_9_3/rearranged_h_0044.sdf

> <i_m_source_file_index>
9

> <r_mmod_Potential_Energy-OPLS-2005>
-318.918884277344

> <r_mmod_Stretch_Energy-OPLS-2005>
51.3610954284668

> <r_mmod_Bend_Energy-OPLS-2005>
124.494735717773

> <r_mmod_Torsional_Energy-OPLS-2005>
166.112640380859

> <r_mmod_Improper_Torsional_Energy-OPLS-2005>
6.90737056732178

> <r_mmod_Van_der_Waal_Energy-OPLS-2005>
146.621978759766

> <r_mmod_Electrostatic_Energy-OPLS-2005>
-357.011322021484

> <r_mmod_Solvation_Energy-OPLS-2005>
-481.31982421875

> <b_mmod_Minimization_Converged-OPLS-2005>
0

> <r_mmod_RMS_Derivative-OPLS-2005>
23.3461074829102

$$$$
9
                    3D
 Structure written by MMmdl.
164173  0  0  1  0            999 V2000
  -30.5958  -14.7554   20.5102 C   0  0  0  0  0  0
  -30.4304  -12.4692   19.4826 C   0  0  0  0  0  0
  -29.5140  -12.5305   18.2408 C   0  0  0  0  0  0
  -28.0340  -12.3572   18.6372 C   0  0  0  0  0  0
  -27.6377  -13.2376   19.8530 C   0  0  2  0  0  0
  -28.6775  -13.1590   20.9910 C   0  0  0  0  0  0
  -25.2459  -13.8221   20.5694 C   0  0  0  0  0  0
  -24.1769  -13.0422   20.9217 C   0  0  0  0  0  0
  -24.6395  -11.6914   20.8736 C   0  0  0  0  0  0
  -23.9076  -10.4294   21.0388 C   0  0  0  0  0  0
  -24.3629   -9.4212   21.9168 C   0  0  0  0  0  0
  -23.6298   -8.2245   22.0747 C   0  0  0  0  0  0
  -22.4283   -8.0280   21.3531 C   0  0  0  0  0  0
  -21.9899   -9.0260   20.4655 C   0  0  0  0  0  0
  -22.7228  -10.2135   20.3054 C   0  0  0  0  0  0
  -21.6851   -6.0740   22.5286 C   0  0  0  0  0  0
  -21.4026   -6.5645   23.8225 C   0  0  0  0  0  0
  -21.3667   -5.6790   24.9182 C   0  0  0  0  0  0
  -21.6040   -4.3056   24.7220 C   0  0  0  0  0  0
  -21.8811   -3.8149   23.4343 C   0  0  0  0  0  0
  -21.9190   -4.6969   22.3403 C   0  0  0  0  0  0
  -22.7796  -13.5209   21.1865 C   0  0  0  0  0  0
  -22.1654   -4.2157   21.0976 F   0  0  0  0  0  0
  -21.5625   -3.4540   25.7732 F   0  0  0  0  0  0
  -29.9769  -13.5270   20.4158 N   0  0  0  0  0  0
  -26.2906  -12.9432   20.3271 N   0  0  0  0  0  0
  -25.9327  -11.6565   20.5741 N   0  0  0  0  0  0
  -22.0459  -12.8197   22.0457 N   0  0  0  0  0  0
  -25.4079  -15.1947   20.4131 N   0  0  0  0  0  0
  -31.7763  -14.8629   20.1628 O   0  0  0  0  0  0
  -21.6633   -6.8879   21.4243 O   0  0  0  0  0  0
  -22.3461  -14.5503   20.6712 O   0  0  0  0  0  0
  -24.6267  -31.8569   23.2032 C   0  0  0  0  0  0
  -25.9107  -32.4765   23.8366 C   0  0  1  0  0  0
  -27.2012  -27.2468   20.1756 C   0  0  0  0  0  0
  -25.5858  -33.8568   24.2240 N   0  0  0  0  0  0
  -23.4264  -30.4797   21.5423 C   0  0  2  0  0  0
  -24.8759  -28.9249   20.1105 C   0  0  0  0  0  0
  -22.7478  -29.4604   22.4906 C   0  0  0  0  0  0
  -18.0283  -28.1400   22.8486 C   0  0  0  0  0  0
  -24.1476  -36.7308   23.2654 C   0  0  0  0  0  0
  -25.9722  -30.7639   21.3907 C   0  0  0  0  0  0
  -26.0432  -29.3860   20.7344 C   0  0  0  0  0  0
  -27.2126  -28.5594   20.7531 C   0  0  0  0  0  0
  -26.0290  -26.8660   19.4898 C   0  0  0  0  0  0
  -24.8739  -27.6744   19.4737 C   0  0  0  0  0  0
  -23.6479  -29.8170   20.1553 C   0  0  0  0  0  0
  -25.4113  -36.3088   24.0315 C   0  0  1  0  0  0
  -20.5890  -28.3685   23.1272 C   0  0  2  0  0  0
  -20.6774  -26.9411   22.5408 C   0  0  0  0  0  0
  -19.5744  -26.6383   21.5212 C   0  0  0  0  0  0
  -18.1916  -26.7951   22.1622 C   0  0  0  0  0  0
  -19.1542  -28.8856   23.2880 C   0  0  0  0  0  0
  -18.9474  -30.1458   23.8889 C   0  0  0  0  0  0
  -17.6469  -30.6591   24.0570 C   0  0  0  0  0  0
  -25.9034  -34.9442   23.5099 C   0  0  0  0  0  0
  -16.5356  -29.9086   23.6344 C   0  0  0  0  0  0
  -16.7268  -28.6517   23.0350 C   0  0  0  0  0  0
  -26.4518  -31.6650   25.0777 C   0  0  0  0  0  0
  -25.3771  -31.3802   26.1528 C   0  0  0  0  0  0
  -27.0458  -30.3093   24.6325 C   0  0  0  0  0  0
  -27.6011  -32.4511   25.7507 C   0  0  0  0  0  0
  -27.5583  -37.1820   24.8440 C   0  0  0  0  0  0
  -21.4180  -29.3026   22.3642 N   0  0  0  0  0  0
  -26.4292  -37.3789   23.9391 N   0  0  0  0  0  0
  -24.6936  -31.0530   22.1006 N   0  0  0  0  0  0
  -23.4197  -28.8130   23.2987 O   0  0  0  0  0  0
  -28.2795  -26.3376   20.2174 O   0  0  0  0  0  0
  -26.5664  -34.8928   22.4693 O   0  0  0  0  0  0
  -23.5418  -32.1391   23.7311 O   0  0  0  0  0  0
  -31.4081  -18.9366   22.4302 C   0  0  0  0  0  0
  -29.4208  -18.4578   20.5838 C   0  0  0  0  0  0
  -30.7293  -20.0459   21.8825 C   0  0  0  0  0  0
  -31.1263  -17.5955   22.0843 C   0  0  0  0  0  0
  -29.6775  -19.8499   20.9490 C   0  0  0  0  0  0
  -30.1397  -17.2983   21.1062 C   0  0  0  0  0  0
  -28.6969  -23.6887   20.2161 C   0  0  0  0  0  0
  -26.7907  -23.3109   22.3784 C   0  0  0  0  0  0
  -26.8232  -24.6810   21.6449 C   0  0  0  0  0  0
  -28.0893  -22.4773   22.2435 C   0  0  0  0  0  0
  -28.1741  -25.0128   20.9520 C   0  0  2  0  0  0
  -31.2088  -21.4195   22.3275 C   0  0  0  0  0  0
  -31.8924  -16.5107   22.8293 C   0  0  0  0  0  0
  -28.9208  -21.0840   20.2537 C   0  0  0  0  0  0
  -28.6441  -22.4642   20.8795 N   0  0  0  0  0  0
  -29.8116  -15.8790   20.7681 N   0  0  0  0  0  0
  -29.1180  -23.7778   19.0577 O   0  0  0  0  0  0
  -31.4748  -12.5987   19.1917 H   0  0  0  0  0  0
  -30.3718  -11.4905   19.9614 H   0  0  0  0  0  0
  -29.8035  -11.7667   17.5190 H   0  0  0  0  0  0
  -29.6468  -13.4928   17.7415 H   0  0  0  0  0  0
  -27.8725  -11.3062   18.8728 H   0  0  0  0  0  0
  -27.3919  -12.5864   17.7868 H   0  0  0  0  0  0
  -27.6319  -14.2643   19.4866 H   0  0  0  0  0  0
  -28.7171  -12.1557   21.4172 H   0  0  0  0  0  0
  -28.4073  -13.8286   21.8093 H   0  0  0  0  0  0
  -25.2777   -9.5686   22.4733 H   0  0  0  0  0  0
  -24.0019   -7.4632   22.7455 H   0  0  0  0  0  0
  -21.0826   -8.8779   19.8971 H   0  0  0  0  0  0
  -22.3684  -10.9670   19.6173 H   0  0  0  0  0  0
  -21.2030   -7.6155   23.9730 H   0  0  0  0  0  0
  -21.1496   -6.0524   25.9084 H   0  0  0  0  0  0
  -22.0581   -2.7610   23.2837 H   0  0  0  0  0  0
  -22.4083  -11.9866   22.4853 H   0  0  0  0  0  0
  -21.1094  -13.1238   22.2702 H   0  0  0  0  0  0
  -24.6264  -15.8330   20.5189 H   0  0  0  0  0  0
  -26.2481  -15.6507   20.0821 H   0  0  0  0  0  0
  -26.7152  -32.5421   23.1095 H   0  0  0  0  0  0
  -24.9911  -33.9736   25.0311 H   0  0  0  0  0  0
  -22.7201  -31.3011   21.3974 H   0  0  0  0  0  0
  -23.3744  -35.9639   23.3328 H   0  0  0  0  0  0
  -24.3531  -36.8944   22.2065 H   0  0  0  0  0  0
  -23.7230  -37.6493   23.6702 H   0  0  0  0  0  0
  -26.1299  -31.5313   20.6334 H   0  0  0  0  0  0
  -26.8403  -30.8004   22.0357 H   0  0  0  0  0  0
  -28.1046  -28.9041   21.2591 H   0  0  0  0  0  0
  -25.9933  -25.9077   18.9904 H   0  0  0  0  0  0
  -23.9839  -27.3224   18.9704 H   0  0  0  0  0  0
  -23.7770  -30.5974   19.4033 H   0  0  0  0  0  0
  -22.7660  -29.2533   19.8454 H   0  0  0  0  0  0
  -25.1319  -36.1943   25.0809 H   0  0  0  0  0  0
  -20.9998  -28.3283   24.1390 H   0  0  0  0  0  0
  -20.5659  -26.2310   23.3611 H   0  0  0  0  0  0
  -21.6643  -26.7424   22.1211 H   0  0  0  0  0  0
  -19.6904  -25.6282   21.1245 H   0  0  0  0  0  0
  -19.6699  -27.3189   20.6734 H   0  0  0  0  0  0
  -17.4202  -26.6695   21.4009 H   0  0  0  0  0  0
  -18.0320  -26.0087   22.9011 H   0  0  0  0  0  0
  -19.7945  -30.7284   24.2258 H   0  0  0  0  0  0
  -17.5020  -31.6271   24.5186 H   0  0  0  0  0  0
  -15.5355  -30.2989   23.7678 H   0  0  0  0  0  0
  -15.8672  -28.0829   22.7071 H   0  0  0  0  0  0
  -24.5684  -30.7522   25.7786 H   0  0  0  0  0  0
  -24.9371  -32.3020   26.5324 H   0  0  0  0  0  0
  -25.8035  -30.8559   27.0089 H   0  0  0  0  0  0
  -26.3126  -29.6726   24.1369 H   0  0  0  0  0  0
  -27.4182  -29.7467   25.4899 H   0  0  0  0  0  0
  -27.8958  -30.4410   23.9623 H   0  0  0  0  0  0
  -27.2533  -33.3768   26.2094 H   0  0  0  0  0  0
  -28.0799  -31.8721   26.5411 H   0  0  0  0  0  0
  -28.3739  -32.7214   25.0304 H   0  0  0  0  0  0
  -28.2590  -38.0128   24.7489 H   0  0  0  0  0  0
  -28.1092  -36.2653   24.6270 H   0  0  0  0  0  0
  -27.2299  -37.1473   25.8842 H   0  0  0  0  0  0
  -20.9367  -29.8754   21.6846 H   0  0  0  0  0  0
  -26.0174  -38.2864   24.1383 H   0  0  0  0  0  0
  -32.1908  -19.1220   23.1551 H   0  0  0  0  0  0
  -28.6444  -18.2793   19.8538 H   0  0  0  0  0  0
  -25.9513  -22.7195   22.0114 H   0  0  0  0  0  0
  -26.5717  -23.4657   23.4375 H   0  0  0  0  0  0
  -26.5688  -25.4746   22.3470 H   0  0  0  0  0  0
  -26.0215  -24.6585   20.9082 H   0  0  0  0  0  0
  -27.9287  -21.4616   22.6101 H   0  0  0  0  0  0
  -28.8243  -22.9329   22.9053 H   0  0  0  0  0  0
  -28.8925  -25.1404   21.7669 H   0  0  0  0  0  0
  -32.2261  -21.3697   22.7171 H   0  0  0  0  0  0
  -30.5998  -21.7980   23.1449 H   0  0  0  0  0  0
  -31.2217  -22.1439   21.5136 H   0  0  0  0  0  0
  -32.3288  -16.9012   23.7474 H   0  0  0  0  0  0
  -32.7047  -16.1169   22.2179 H   0  0  0  0  0  0
  -31.2368  -15.6895   23.1207 H   0  0  0  0  0  0
  -29.4842  -21.2667   19.3377 H   0  0  0  0  0  0
  -27.9559  -20.7101   19.9170 H   0  0  0  0  0  0
  -28.8256  -15.6750   20.7559 H   0  0  0  0  0  0
  1 25  1  0  0  0
  1 30  2  0  0  0
  1 86  1  0  0  0
  2  3  1  0  0  0
  2 25  1  0  0  0
  2 88  1  0  0  0
  2 89  1  0  0  0
  3  4  1  0  0  0
  3 90  1  0  0  0
  3 91  1  0  0  0
  4  5  1  0  0  0
  4 92  1  0  0  0
  4 93  1  0  0  0
  5  6  1  0  0  0
  5 26  1  0  0  0
  5 94  1  0  0  0
  6 25  1  0  0  0
  6 95  1  0  0  0
  6 96  1  0  0  0
  7  8  2  0  0  0
  7 26  1  0  0  0
  7 29  1  0  0  0
  8  9  1  0  0  0
  8 22  1  0  0  0
  9 10  1  0  0  0
  9 27  2  0  0  0
 10 11  2  0  0  0
 10 15  1  0  0  0
 11 12  1  0  0  0
 11 97  1  0  0  0
 12 13  2  0  0  0
 12 98  1  0  0  0
 13 14  1  0  0  0
 13 31  1  0  0  0
 14 15  2  0  0  0
 14 99  1  0  0  0
 15100  1  0  0  0
 16 17  2  0  0  0
 16 21  1  0  0  0
 16 31  1  0  0  0
 17 18  1  0  0  0
 17101  1  0  0  0
 18 19  2  0  0  0
 18102  1  0  0  0
 19 20  1  0  0  0
 19 24  1  0  0  0
 20 21  2  0  0  0
 20103  1  0  0  0
 21 23  1  0  0  0
 22 28  1  0  0  0
 22 32  2  0  0  0
 26 27  1  0  0  0
 28104  1  0  0  0
 28105  1  0  0  0
 29106  1  0  0  0
 29107  1  0  0  0
 33 34  1  0  0  0
 33 66  1  0  0  0
 33 70  2  0  0  0
 34 36  1  0  0  0
 34 59  1  0  0  0
 34108  1  0  0  0
 35 44  2  0  0  0
 35 45  1  0  0  0
 35 68  1  0  0  0
 36 56  1  0  0  0
 36109  1  0  0  0
 37 39  1  0  0  0
 37 47  1  0  0  0
 37 66  1  0  0  0
 37110  1  0  0  0
 38 43  2  0  0  0
 38 46  1  0  0  0
 38 47  1  0  0  0
 39 64  1  0  0  0
 39 67  2  0  0  0
 40 52  1  0  0  0
 40 53  2  0  0  0
 40 58  1  0  0  0
 41111  1  0  0  0
 41112  1  0  0  0
 41113  1  0  0  0
 41 48  1  0  0  0
 42 43  1  0  0  0
 42 66  1  0  0  0
 42114  1  0  0  0
 42115  1  0  0  0
 43 44  1  0  0  0
 44116  1  0  0  0
 45 46  2  0  0  0
 45117  1  0  0  0
 46118  1  0  0  0
 47119  1  0  0  0
 47120  1  0  0  0
 48 56  1  0  0  0
 48 65  1  0  0  0
 48121  1  0  0  0
 49 50  1  0  0  0
 49 53  1  0  0  0
 49 64  1  0  0  0
 49122  1  0  0  0
 50 51  1  0  0  0
 50123  1  0  0  0
 50124  1  0  0  0
 51 52  1  0  0  0
 51125  1  0  0  0
 51126  1  0  0  0
 52127  1  0  0  0
 52128  1  0  0  0
 53 54  1  0  0  0
 54 55  2  0  0  0
 54129  1  0  0  0
 55 57  1  0  0  0
 55130  1  0  0  0
 56 69  2  0  0  0
 57 58  2  0  0  0
 57131  1  0  0  0
 58132  1  0  0  0
 59 60  1  0  0  0
 59 61  1  0  0  0
 59 62  1  0  0  0
 60133  1  0  0  0
 60134  1  0  0  0
 60135  1  0  0  0
 61136  1  0  0  0
 61137  1  0  0  0
 61138  1  0  0  0
 62139  1  0  0  0
 62140  1  0  0  0
 62141  1  0  0  0
 63 65  1  0  0  0
 63142  1  0  0  0
 63143  1  0  0  0
 63144  1  0  0  0
 64145  1  0  0  0
 65146  1  0  0  0
 68 81  1  0  0  0
 71 73  2  0  0  0
 71 74  1  0  0  0
 71147  1  0  0  0
 72 75  2  0  0  0
 72 76  1  0  0  0
 72148  1  0  0  0
 73 75  1  0  0  0
 73 82  1  0  0  0
 74 76  2  0  0  0
 74 83  1  0  0  0
 75 84  1  0  0  0
 76 86  1  0  0  0
 77 81  1  0  0  0
 77 85  1  0  0  0
 77 87  2  0  0  0
 78 79  1  0  0  0
 78 80  1  0  0  0
 78149  1  0  0  0
 78150  1  0  0  0
 79 81  1  0  0  0
 79151  1  0  0  0
 79152  1  0  0  0
 80 85  1  0  0  0
 80153  1  0  0  0
 80154  1  0  0  0
 81155  1  0  0  0
 82156  1  0  0  0
 82157  1  0  0  0
 82158  1  0  0  0
 83159  1  0  0  0
 83160  1  0  0  0
 83161  1  0  0  0
 84 85  1  0  0  0
 84162  1  0  0  0
 84163  1  0  0  0
 86164  1  0  0  0
M  ISO  4   1 100  68 101  81 101  86 100
M  END
> <chiral flag>
0

> <version>
0

> <s_m_source_file>
/data/baiqing/PycharmProjects/Reinvent-master-3.2/result/LINK_invent/BTK/process_docking_weight1_custom_product_contain_oxygen_bond_distance_aromatic_linkinvent_7_9_3/rearranged_h_0044.sdf

> <i_m_source_file_index>
10

> <r_mmod_Potential_Energy-OPLS-2005>
270.909027099609

> <r_mmod_Stretch_Energy-OPLS-2005>
137.38801574707

> <r_mmod_Bend_Energy-OPLS-2005>
182.159088134766

> <r_mmod_Torsional_Energy-OPLS-2005>
281.950317382812

> <r_mmod_Improper_Torsional_Energy-OPLS-2005>
6.17591619491577

> <r_mmod_Van_der_Waal_Energy-OPLS-2005>
152.862869262695

> <r_mmod_Electrostatic_Energy-OPLS-2005>
-357.100219726562

> <r_mmod_Solvation_Energy-OPLS-2005>
-225.615692138672

> <b_mmod_Minimization_Converged-OPLS-2005>
0

> <r_mmod_RMS_Derivative-OPLS-2005>
5.01516056060791

$$$$
10
                    3D
 Structure written by MMmdl.
158167  0  0  1  0            999 V2000
  -30.5701  -14.7627   20.4628 C   0  0  0  0  0  0
  -30.4455  -12.4683   19.4564 C   0  0  0  0  0  0
  -29.5116  -12.4959   18.2255 C   0  0  0  0  0  0
  -28.0389  -12.3114   18.6481 C   0  0  0  0  0  0
  -27.6391  -13.2192   19.8418 C   0  0  2  0  0  0
  -28.6875  -13.1552   20.9724 C   0  0  0  0  0  0
  -25.2515  -13.8166   20.5678 C   0  0  0  0  0  0
  -24.1786  -13.0436   20.9197 C   0  0  0  0  0  0
  -24.6370  -11.6903   20.8741 C   0  0  0  0  0  0
  -23.9047  -10.4287   21.0406 C   0  0  0  0  0  0
  -24.3604   -9.4210   21.9195 C   0  0  0  0  0  0
  -23.6273   -8.2253   22.0766 C   0  0  0  0  0  0
  -22.4261   -8.0282   21.3550 C   0  0  0  0  0  0
  -21.9885   -9.0256   20.4658 C   0  0  0  0  0  0
  -22.7210  -10.2139   20.3068 C   0  0  0  0  0  0
  -21.6846   -6.0728   22.5271 C   0  0  0  0  0  0
  -21.4017   -6.5639   23.8205 C   0  0  0  0  0  0
  -21.3657   -5.6792   24.9171 C   0  0  0  0  0  0
  -21.6033   -4.3052   24.7215 C   0  0  0  0  0  0
  -21.8819   -3.8146   23.4341 C   0  0  0  0  0  0
  -21.9192   -4.6960   22.3397 C   0  0  0  0  0  0
  -22.7820  -13.5236   21.1857 C   0  0  0  0  0  0
  -22.1653   -4.2150   21.0971 F   0  0  0  0  0  0
  -21.5631   -3.4533   25.7724 F   0  0  0  0  0  0
  -29.9790  -13.5240   20.3789 N   0  0  0  0  0  0
  -26.2920  -12.9340   20.3239 N   0  0  0  0  0  0
  -25.9292  -11.6501   20.5729 N   0  0  0  0  0  0
  -22.0445  -12.8257   22.0429 N   0  0  0  0  0  0
  -25.4207  -15.1893   20.4105 N   0  0  0  0  0  0
  -31.7791  -14.8909   20.2483 O   0  0  0  0  0  0
  -21.6640   -6.8870   21.4229 O   0  0  0  0  0  0
  -22.3513  -14.5542   20.6686 O   0  0  0  0  0  0
  -24.6319  -31.8537   23.1965 C   0  0  0  0  0  0
  -25.9139  -32.4747   23.8318 C   0  0  1  0  0  0
  -27.2211  -27.2599   20.1441 C   0  0  0  0  0  0
  -25.5925  -33.8552   24.2240 N   0  0  0  0  0  0
  -23.4294  -30.4746   21.5391 C   0  0  2  0  0  0
  -24.8773  -28.9114   20.1194 C   0  0  0  0  0  0
  -22.7504  -29.4600   22.4906 C   0  0  0  0  0  0
  -18.0293  -28.1390   22.8483 C   0  0  0  0  0  0
  -24.1487  -36.7285   23.2641 C   0  0  0  0  0  0
  -25.9749  -30.7673   21.3751 C   0  0  0  0  0  0
  -26.0493  -29.3858   20.7251 C   0  0  0  0  0  0
  -27.2286  -28.5744   20.7200 C   0  0  0  0  0  0
  -26.0287  -26.8420   19.5230 C   0  0  0  0  0  0
  -24.8716  -27.6468   19.5071 C   0  0  0  0  0  0
  -23.6498  -29.8017   20.1584 C   0  0  0  0  0  0
  -25.4114  -36.3068   24.0326 C   0  0  1  0  0  0
  -20.5896  -28.3707   23.1265 C   0  0  2  0  0  0
  -20.6776  -26.9422   22.5406 C   0  0  0  0  0  0
  -19.5752  -26.6385   21.5209 C   0  0  0  0  0  0
  -18.1932  -26.7930   22.1622 C   0  0  0  0  0  0
  -19.1546  -28.8865   23.2869 C   0  0  0  0  0  0
  -18.9468  -30.1462   23.8896 C   0  0  0  0  0  0
  -17.6468  -30.6590   24.0564 C   0  0  0  0  0  0
  -25.9056  -34.9437   23.5087 C   0  0  0  0  0  0
  -16.5360  -29.9087   23.6331 C   0  0  0  0  0  0
  -16.7280  -28.6503   23.0354 C   0  0  0  0  0  0
  -26.4509  -31.6579   25.0713 C   0  0  0  0  0  0
  -25.3724  -31.3742   26.1431 C   0  0  0  0  0  0
  -27.0364  -30.2990   24.6216 C   0  0  0  0  0  0
  -27.6054  -32.4333   25.7487 C   0  0  0  0  0  0
  -27.5578  -37.1795   24.8465 C   0  0  0  0  0  0
  -21.4211  -29.3048   22.3648 N   0  0  0  0  0  0
  -26.4289  -37.3766   23.9409 N   0  0  0  0  0  0
  -24.6978  -31.0506   22.0931 N   0  0  0  0  0  0
  -23.4197  -28.8143   23.3014 O   0  0  0  0  0  0
  -28.3237  -26.3851   20.0954 O   0  0  0  0  0  0
  -26.5637  -34.8917   22.4664 O   0  0  0  0  0  0
  -23.5468  -32.1361   23.7256 O   0  0  0  0  0  0
  -29.4753  -18.4630   20.3116 C   0  0  0  0  0  0
  -29.3024  -18.4947   23.0709 C   0  0  0  0  0  0
  -29.1600  -19.7459   20.9497 C   0  0  0  0  0  0
  -29.7060  -17.2065   21.0250 C   0  0  0  0  0  0
  -28.9995  -19.6733   22.3597 C   0  0  0  0  0  0
  -29.6541  -17.2887   22.4367 C   0  0  0  0  0  0
  -28.3243  -23.6809   20.1365 C   0  0  0  0  0  0
  -29.9075  -23.9303   22.5349 C   0  0  0  0  0  0
  -29.5316  -25.2471   21.8459 C   0  0  0  0  0  0
  -30.1757  -22.8276   21.4908 C   0  0  0  0  0  0
  -28.3280  -25.1124   20.8948 C   0  0  1  0  0  0
  -28.8647  -21.1047   20.1233 C   0  0  0  0  0  0
  -29.0071  -22.5614   20.6375 N   0  0  0  0  0  0
  -29.7091  -15.8532   20.4095 N   0  0  0  0  0  0
  -27.6142  -23.5750   19.1319 O   0  0  0  0  0  0
  -28.3188  -20.9652   23.2830 Cl  0  0  0  0  0  0
  -29.8792  -15.8982   23.4416 Cl  0  0  0  0  0  0
  -31.4794  -12.6280   19.1477 H   0  0  0  0  0  0
  -30.4220  -11.4940   19.9466 H   0  0  0  0  0  0
  -29.7982  -11.7178   17.5161 H   0  0  0  0  0  0
  -29.6260  -13.4448   17.6983 H   0  0  0  0  0  0
  -27.9053  -11.2643   18.9236 H   0  0  0  0  0  0
  -27.3782  -12.4888   17.7991 H   0  0  0  0  0  0
  -27.6277  -14.2357   19.4497 H   0  0  0  0  0  0
  -28.7369  -12.1555   21.4066 H   0  0  0  0  0  0
  -28.4210  -13.8325   21.7859 H   0  0  0  0  0  0
  -25.2754   -9.5672   22.4775 H   0  0  0  0  0  0
  -23.9968   -7.4646   22.7501 H   0  0  0  0  0  0
  -21.0814   -8.8775   19.8971 H   0  0  0  0  0  0
  -22.3666  -10.9683   19.6183 H   0  0  0  0  0  0
  -21.2019   -7.6150   23.9701 H   0  0  0  0  0  0
  -21.1472   -6.0534   25.9071 H   0  0  0  0  0  0
  -22.0603   -2.7610   23.2841 H   0  0  0  0  0  0
  -22.4030  -11.9901   22.4798 H   0  0  0  0  0  0
  -21.1081  -13.1312   22.2648 H   0  0  0  0  0  0
  -24.6503  -15.8364   20.5405 H   0  0  0  0  0  0
  -26.2592  -15.6412   20.0709 H   0  0  0  0  0  0
  -26.7210  -32.5401   23.1067 H   0  0  0  0  0  0
  -25.0054  -33.9679   25.0372 H   0  0  0  0  0  0
  -22.7268  -31.2966   21.3881 H   0  0  0  0  0  0
  -23.3744  -35.9623   23.3309 H   0  0  0  0  0  0
  -24.3570  -36.8906   22.2055 H   0  0  0  0  0  0
  -23.7251  -37.6490   23.6668 H   0  0  0  0  0  0
  -26.1133  -31.5251   20.6024 H   0  0  0  0  0  0
  -26.8526  -30.8195   22.0081 H   0  0  0  0  0  0
  -28.1345  -28.9409   21.1818 H   0  0  0  0  0  0
  -25.9931  -25.8711   19.0482 H   0  0  0  0  0  0
  -23.9747  -27.2776   19.0280 H   0  0  0  0  0  0
  -23.7789  -30.5737   19.3991 H   0  0  0  0  0  0
  -22.7680  -29.2360   19.8520 H   0  0  0  0  0  0
  -25.1298  -36.1912   25.0819 H   0  0  0  0  0  0
  -20.9992  -28.3285   24.1384 H   0  0  0  0  0  0
  -20.5665  -26.2320   23.3613 H   0  0  0  0  0  0
  -21.6643  -26.7430   22.1208 H   0  0  0  0  0  0
  -19.6911  -25.6293   21.1244 H   0  0  0  0  0  0
  -19.6685  -27.3191   20.6735 H   0  0  0  0  0  0
  -17.4196  -26.6678   21.4028 H   0  0  0  0  0  0
  -18.0335  -26.0076   22.9025 H   0  0  0  0  0  0
  -19.7941  -30.7278   24.2268 H   0  0  0  0  0  0
  -17.5019  -31.6267   24.5170 H   0  0  0  0  0  0
  -15.5361  -30.2993   23.7653 H   0  0  0  0  0  0
  -15.8674  -28.0823   22.7074 H   0  0  0  0  0  0
  -24.5885  -30.7115   25.7752 H   0  0  0  0  0  0
  -24.8937  -32.2921   26.4853 H   0  0  0  0  0  0
  -25.8026  -30.8908   27.0210 H   0  0  0  0  0  0
  -26.2957  -29.6723   24.1235 H   0  0  0  0  0  0
  -27.4032  -29.7278   25.4756 H   0  0  0  0  0  0
  -27.8840  -30.4263   23.9477 H   0  0  0  0  0  0
  -27.2649  -33.3634   26.2057 H   0  0  0  0  0  0
  -28.3863  -32.6900   25.0313 H   0  0  0  0  0  0
  -28.0728  -31.8468   26.5409 H   0  0  0  0  0  0
  -28.2597  -38.0090   24.7498 H   0  0  0  0  0  0
  -28.1069  -36.2618   24.6301 H   0  0  0  0  0  0
  -27.2293  -37.1458   25.8867 H   0  0  0  0  0  0
  -20.9401  -29.8780   21.6857 H   0  0  0  0  0  0
  -26.0166  -38.2841   24.1400 H   0  0  0  0  0  0
  -29.4882  -18.4371   19.2314 H   0  0  0  0  0  0
  -29.1888  -18.4931   24.1448 H   0  0  0  0  0  0
  -29.1081  -23.6327   23.2138 H   0  0  0  0  0  0
  -30.7924  -24.0787   23.1553 H   0  0  0  0  0  0
  -30.3921  -25.6130   21.2852 H   0  0  0  0  0  0
  -29.3179  -26.0057   22.6002 H   0  0  0  0  0  0
  -30.5246  -21.9241   21.9874 H   0  0  0  0  0  0
  -31.0020  -23.1342   20.8474 H   0  0  0  0  0  0
  -27.4270  -25.1014   21.5104 H   0  0  0  0  0  0
  -27.8384  -20.9989   19.7700 H   0  0  0  0  0  0
  -29.4743  -21.0534   19.2212 H   0  0  0  0  0  0
  -28.7774  -15.5470   20.1800 H   0  0  0  0  0  0
  1 25  1  0  0  0
  1 30  2  0  0  0
  1 84  1  0  0  0
  2  3  1  0  0  0
  2 25  1  0  0  0
  2 88  1  0  0  0
  2 89  1  0  0  0
  3  4  1  0  0  0
  3 90  1  0  0  0
  3 91  1  0  0  0
  4  5  1  0  0  0
  4 92  1  0  0  0
  4 93  1  0  0  0
  5  6  1  0  0  0
  5 26  1  0  0  0
  5 94  1  0  0  0
  6 25  1  0  0  0
  6 95  1  0  0  0
  6 96  1  0  0  0
  7  8  2  0  0  0
  7 26  1  0  0  0
  7 29  1  0  0  0
  8  9  1  0  0  0
  8 22  1  0  0  0
  9 10  1  0  0  0
  9 27  2  0  0  0
 10 11  2  0  0  0
 10 15  1  0  0  0
 11 12  1  0  0  0
 11 97  1  0  0  0
 12 13  2  0  0  0
 12 98  1  0  0  0
 13 14  1  0  0  0
 13 31  1  0  0  0
 14 15  2  0  0  0
 14 99  1  0  0  0
 15100  1  0  0  0
 16 17  2  0  0  0
 16 21  1  0  0  0
 16 31  1  0  0  0
 17 18  1  0  0  0
 17101  1  0  0  0
 18 19  2  0  0  0
 18102  1  0  0  0
 19 20  1  0  0  0
 19 24  1  0  0  0
 20 21  2  0  0  0
 20103  1  0  0  0
 21 23  1  0  0  0
 22 28  1  0  0  0
 22 32  2  0  0  0
 26 27  1  0  0  0
 28104  1  0  0  0
 28105  1  0  0  0
 29106  1  0  0  0
 29107  1  0  0  0
 33 34  1  0  0  0
 33 66  1  0  0  0
 33 70  2  0  0  0
 34 36  1  0  0  0
 34 59  1  0  0  0
 34108  1  0  0  0
 35 44  2  0  0  0
 35 45  1  0  0  0
 35 68  1  0  0  0
 36 56  1  0  0  0
 36109  1  0  0  0
 37 39  1  0  0  0
 37 47  1  0  0  0
 37 66  1  0  0  0
 37110  1  0  0  0
 38 43  2  0  0  0
 38 46  1  0  0  0
 38 47  1  0  0  0
 39 64  1  0  0  0
 39 67  2  0  0  0
 40 52  1  0  0  0
 40 53  2  0  0  0
 40 58  1  0  0  0
 41111  1  0  0  0
 41112  1  0  0  0
 41113  1  0  0  0
 41 48  1  0  0  0
 42 43  1  0  0  0
 42 66  1  0  0  0
 42114  1  0  0  0
 42115  1  0  0  0
 43 44  1  0  0  0
 44116  1  0  0  0
 45 46  2  0  0  0
 45117  1  0  0  0
 46118  1  0  0  0
 47119  1  0  0  0
 47120  1  0  0  0
 48 56  1  0  0  0
 48 65  1  0  0  0
 48121  1  0  0  0
 49 50  1  0  0  0
 49 53  1  0  0  0
 49 64  1  0  0  0
 49122  1  0  0  0
 50 51  1  0  0  0
 50123  1  0  0  0
 50124  1  0  0  0
 51 52  1  0  0  0
 51125  1  0  0  0
 51126  1  0  0  0
 52127  1  0  0  0
 52128  1  0  0  0
 53 54  1  0  0  0
 54 55  2  0  0  0
 54129  1  0  0  0
 55 57  1  0  0  0
 55130  1  0  0  0
 56 69  2  0  0  0
 57 58  2  0  0  0
 57131  1  0  0  0
 58132  1  0  0  0
 59 60  1  0  0  0
 59 61  1  0  0  0
 59 62  1  0  0  0
 60133  1  0  0  0
 60134  1  0  0  0
 60135  1  0  0  0
 61136  1  0  0  0
 61137  1  0  0  0
 61138  1  0  0  0
 62139  1  0  0  0
 62140  1  0  0  0
 62141  1  0  0  0
 63 65  1  0  0  0
 63142  1  0  0  0
 63143  1  0  0  0
 63144  1  0  0  0
 64145  1  0  0  0
 65146  1  0  0  0
 68 81  1  0  0  0
 71 73  2  0  0  0
 71 74  1  0  0  0
 71147  1  0  0  0
 72 75  2  0  0  0
 72 76  1  0  0  0
 72148  1  0  0  0
 73 75  1  0  0  0
 73 82  1  0  0  0
 74 76  2  0  0  0
 74 84  1  0  0  0
 75 86  1  0  0  0
 76 87  1  0  0  0
 77 81  1  0  0  0
 77 83  1  0  0  0
 77 85  2  0  0  0
 78 79  1  0  0  0
 78 80  1  0  0  0
 78149  1  0  0  0
 78150  1  0  0  0
 79 81  1  0  0  0
 79151  1  0  0  0
 79152  1  0  0  0
 80 83  1  0  0  0
 80153  1  0  0  0
 80154  1  0  0  0
 81155  1  0  0  0
 82 83  1  0  0  0
 82156  1  0  0  0
 82157  1  0  0  0
 84158  1  0  0  0
M  ISO  4   1 100  68 101  81 101  84 100
M  END
> <chiral flag>
0

> <version>
0

> <s_m_source_file>
/data/baiqing/PycharmProjects/Reinvent-master-3.2/result/LINK_invent/BTK/process_docking_weight1_custom_product_contain_oxygen_bond_distance_aromatic_linkinvent_7_9_3/rearranged_h_0044.sdf

> <i_m_source_file_index>
11

> <r_mmod_Potential_Energy-OPLS-2005>
265.906951904297

> <r_mmod_Stretch_Energy-OPLS-2005>
140.807312011719

> <r_mmod_Bend_Energy-OPLS-2005>
180.542510986328

> <r_mmod_Torsional_Energy-OPLS-2005>
308.524047851562

> <r_mmod_Improper_Torsional_Energy-OPLS-2005>
15.6776742935181

> <r_mmod_Van_der_Waal_Energy-OPLS-2005>
136.669937133789

> <r_mmod_Electrostatic_Energy-OPLS-2005>
-381.197967529297

> <r_mmod_Solvation_Energy-OPLS-2005>
-226.44303894043

> <b_mmod_Minimization_Converged-OPLS-2005>
0

> <r_mmod_RMS_Derivative-OPLS-2005>
1.95628774166107

$$$$
11
                    3D
 Structure written by MMmdl.
152160  0  0  1  0            999 V2000
  -30.6294  -14.6263   20.5002 C   0  0  0  0  0  0
  -30.4394  -12.3845   19.4468 C   0  0  0  0  0  0
  -29.5059  -12.5054   18.2215 C   0  0  0  0  0  0
  -28.0285  -12.3468   18.6351 C   0  0  0  0  0  0
  -27.6543  -13.2159   19.8655 C   0  0  2  0  0  0
  -28.7018  -13.0636   20.9923 C   0  0  0  0  0  0
  -25.2557  -13.8163   20.5693 C   0  0  0  0  0  0
  -24.1818  -13.0423   20.9161 C   0  0  0  0  0  0
  -24.6395  -11.6900   20.8724 C   0  0  0  0  0  0
  -23.9065  -10.4286   21.0397 C   0  0  0  0  0  0
  -24.3616   -9.4205   21.9179 C   0  0  0  0  0  0
  -23.6290   -8.2241   22.0753 C   0  0  0  0  0  0
  -22.4272   -8.0278   21.3543 C   0  0  0  0  0  0
  -21.9906   -9.0251   20.4645 C   0  0  0  0  0  0
  -22.7235  -10.2129   20.3050 C   0  0  0  0  0  0
  -21.6852   -6.0734   22.5279 C   0  0  0  0  0  0
  -21.4014   -6.5639   23.8212 C   0  0  0  0  0  0
  -21.3659   -5.6792   24.9174 C   0  0  0  0  0  0
  -21.6043   -4.3055   24.7225 C   0  0  0  0  0  0
  -21.8820   -3.8146   23.4346 C   0  0  0  0  0  0
  -21.9193   -4.6962   22.3402 C   0  0  0  0  0  0
  -22.7843  -13.5220   21.1838 C   0  0  0  0  0  0
  -22.1661   -4.2148   21.0979 F   0  0  0  0  0  0
  -21.5629   -3.4538   25.7738 F   0  0  0  0  0  0
  -30.0184  -13.4027   20.4278 N   0  0  0  0  0  0
  -26.3000  -12.9352   20.3350 N   0  0  0  0  0  0
  -25.9330  -11.6504   20.5767 N   0  0  0  0  0  0
  -22.0494  -12.8212   22.0404 N   0  0  0  0  0  0
  -25.4229  -15.1890   20.4186 N   0  0  0  0  0  0
  -31.7940  -14.7897   20.1257 O   0  0  0  0  0  0
  -21.6636   -6.8876   21.4240 O   0  0  0  0  0  0
  -22.3520  -14.5528   20.6698 O   0  0  0  0  0  0
  -24.6258  -31.8611   23.2040 C   0  0  0  0  0  0
  -25.9109  -32.4786   23.8365 C   0  0  1  0  0  0
  -27.2242  -27.3291   20.1094 C   0  0  0  0  0  0
  -25.5929  -33.8586   24.2292 N   0  0  0  0  0  0
  -23.4183  -30.4863   21.5469 C   0  0  2  0  0  0
  -24.8638  -28.9455   20.1109 C   0  0  0  0  0  0
  -22.7473  -29.4630   22.4940 C   0  0  0  0  0  0
  -18.0287  -28.1381   22.8484 C   0  0  0  0  0  0
  -24.1490  -36.7295   23.2639 C   0  0  0  0  0  0
  -25.9594  -30.7951   21.3734 C   0  0  0  0  0  0
  -26.0336  -29.4241   20.7141 C   0  0  0  0  0  0
  -27.2169  -28.6278   20.7041 C   0  0  0  0  0  0
  -26.0276  -26.9040   19.4834 C   0  0  0  0  0  0
  -24.8622  -27.6901   19.4877 C   0  0  0  0  0  0
  -23.6317  -29.8243   20.1611 C   0  0  0  0  0  0
  -25.4112  -36.3087   24.0332 C   0  0  1  0  0  0
  -20.5887  -28.3686   23.1281 C   0  0  2  0  0  0
  -20.6776  -26.9410   22.5406 C   0  0  0  0  0  0
  -19.5751  -26.6384   21.5208 C   0  0  0  0  0  0
  -18.1932  -26.7924   22.1622 C   0  0  0  0  0  0
  -19.1539  -28.8849   23.2879 C   0  0  0  0  0  0
  -18.9463  -30.1452   23.8896 C   0  0  0  0  0  0
  -17.6464  -30.6584   24.0561 C   0  0  0  0  0  0
  -25.9050  -34.9456   23.5111 C   0  0  0  0  0  0
  -16.5355  -29.9084   23.6328 C   0  0  0  0  0  0
  -16.7274  -28.6500   23.0349 C   0  0  0  0  0  0
  -26.4498  -31.6586   25.0727 C   0  0  0  0  0  0
  -25.3735  -31.3713   26.1457 C   0  0  0  0  0  0
  -27.0341  -30.3016   24.6163 C   0  0  0  0  0  0
  -27.6062  -32.4317   25.7496 C   0  0  0  0  0  0
  -27.5578  -37.1803   24.8466 C   0  0  0  0  0  0
  -21.4188  -29.3043   22.3681 N   0  0  0  0  0  0
  -26.4291  -37.3780   23.9410 N   0  0  0  0  0  0
  -24.6867  -31.0634   22.0985 N   0  0  0  0  0  0
  -23.4203  -28.8165   23.3012 O   0  0  0  0  0  0
  -28.3444  -26.4828   20.1576 O   0  0  0  0  0  0
  -26.5616  -34.8920   22.4675 O   0  0  0  0  0  0
  -23.5424  -32.1403   23.7375 O   0  0  0  0  0  0
  -28.7262  -19.3056   20.6211 C   0  0  0  0  0  0
  -31.1307  -17.8509   20.5475 C   0  0  0  0  0  0
  -29.9301  -20.0457   20.5004 C   0  0  0  0  0  0
  -29.9245  -17.1177   20.6849 C   0  0  0  0  0  0
  -28.7288  -17.8824   20.7164 C   0  0  0  0  0  0
  -31.1317  -19.2753   20.4609 C   0  0  0  0  0  0
  -29.2555  -23.9874   20.3462 C   0  0  0  0  0  0
  -28.8732  -22.4409   20.2546 C   0  0  0  0  0  0
  -28.1092  -25.0296   20.0076 C   0  0  0  0  0  0
  -29.8111  -15.6686   20.8318 N   0  0  0  0  0  0
  -29.9991  -21.4804   20.4388 N   0  0  0  0  0  0
  -27.5499  -17.2262   20.8415 F   0  0  0  0  0  0
  -32.6546  -20.0825   20.3113 Cl  0  0  0  0  0  0
  -31.4800  -12.5102   19.1428 H   0  0  0  0  0  0
  -30.3741  -11.3876   19.8854 H   0  0  0  0  0  0
  -29.7662  -11.7548   17.4739 H   0  0  0  0  0  0
  -29.6500  -13.4753   17.7427 H   0  0  0  0  0  0
  -27.8626  -11.2936   18.8644 H   0  0  0  0  0  0
  -27.3736  -12.5807   17.7950 H   0  0  0  0  0  0
  -27.6718  -14.2520   19.5269 H   0  0  0  0  0  0
  -28.7107  -12.0404   21.3712 H   0  0  0  0  0  0
  -28.4518  -13.6931   21.8478 H   0  0  0  0  0  0
  -25.2763   -9.5682   22.4751 H   0  0  0  0  0  0
  -23.9999   -7.4635   22.7475 H   0  0  0  0  0  0
  -21.0836   -8.8770   19.8953 H   0  0  0  0  0  0
  -22.3694  -10.9667   19.6158 H   0  0  0  0  0  0
  -21.2005   -7.6148   23.9715 H   0  0  0  0  0  0
  -21.1479   -6.0522   25.9077 H   0  0  0  0  0  0
  -22.0600   -2.7609   23.2846 H   0  0  0  0  0  0
  -22.4114  -11.9871   22.4784 H   0  0  0  0  0  0
  -21.1118  -13.1243   22.2626 H   0  0  0  0  0  0
  -24.6598  -15.8384   20.5700 H   0  0  0  0  0  0
  -26.2967  -15.6608   20.2161 H   0  0  0  0  0  0
  -26.7177  -32.5458   23.1115 H   0  0  0  0  0  0
  -25.0081  -33.9732   25.0441 H   0  0  0  0  0  0
  -22.7114  -31.3066   21.4060 H   0  0  0  0  0  0
  -23.3752  -35.9629   23.3305 H   0  0  0  0  0  0
  -24.3580  -36.8910   22.2053 H   0  0  0  0  0  0
  -23.7245  -37.6499   23.6657 H   0  0  0  0  0  0
  -26.0891  -31.5596   20.6061 H   0  0  0  0  0  0
  -26.8407  -30.8432   22.0012 H   0  0  0  0  0  0
  -28.1141  -28.9908   21.1859 H   0  0  0  0  0  0
  -25.9571  -25.9473   18.9891 H   0  0  0  0  0  0
  -23.9656  -27.3177   19.0112 H   0  0  0  0  0  0
  -23.7507  -30.6024   19.4063 H   0  0  0  0  0  0
  -22.7517  -29.2542   19.8579 H   0  0  0  0  0  0
  -25.1291  -36.1942   25.0825 H   0  0  0  0  0  0
  -20.9978  -28.3261   24.1401 H   0  0  0  0  0  0
  -20.5677  -26.2297   23.3606 H   0  0  0  0  0  0
  -21.6644  -26.7441   22.1198 H   0  0  0  0  0  0
  -19.6914  -25.6296   21.1233 H   0  0  0  0  0  0
  -19.6686  -27.3198   20.6740 H   0  0  0  0  0  0
  -17.4200  -26.6669   21.4026 H   0  0  0  0  0  0
  -18.0335  -26.0065   22.9018 H   0  0  0  0  0  0
  -19.7941  -30.7264   24.2267 H   0  0  0  0  0  0
  -17.5021  -31.6264   24.5165 H   0  0  0  0  0  0
  -15.5355  -30.2986   23.7652 H   0  0  0  0  0  0
  -15.8673  -28.0821   22.7062 H   0  0  0  0  0  0
  -24.5918  -30.7052   25.7787 H   0  0  0  0  0  0
  -24.8917  -32.2875   26.4883 H   0  0  0  0  0  0
  -25.8068  -30.8895   27.0231 H   0  0  0  0  0  0
  -26.2909  -29.6765   24.1199 H   0  0  0  0  0  0
  -27.4066  -29.7269   25.4652 H   0  0  0  0  0  0
  -27.8767  -30.4313   23.9366 H   0  0  0  0  0  0
  -27.2680  -33.3619   26.2072 H   0  0  0  0  0  0
  -28.3874  -32.6871   25.0322 H   0  0  0  0  0  0
  -28.0730  -31.8440   26.5411 H   0  0  0  0  0  0
  -28.2599  -38.0098   24.7509 H   0  0  0  0  0  0
  -28.1072  -36.2629   24.6298 H   0  0  0  0  0  0
  -27.2295  -37.1459   25.8869 H   0  0  0  0  0  0
  -20.9363  -29.8778   21.6902 H   0  0  0  0  0  0
  -26.0174  -38.2856   24.1409 H   0  0  0  0  0  0
  -27.7784  -19.8201   20.6577 H   0  0  0  0  0  0
  -32.0773  -17.3333   20.5230 H   0  0  0  0  0  0
  -30.0935  -24.1853   19.6773 H   0  0  0  0  0  0
  -29.6217  -24.1954   21.3521 H   0  0  0  0  0  0
  -28.4225  -22.2462   19.2800 H   0  0  0  0  0  0
  -28.1008  -22.2233   20.9939 H   0  0  0  0  0  0
  -27.8207  -24.8425   18.9727 H   0  0  0  0  0  0
  -27.2490  -24.7616   20.6234 H   0  0  0  0  0  0
  -28.8810  -15.3691   21.0829 H   0  0  0  0  0  0
  -30.9391  -21.8597   20.3466 H   0  0  0  0  0  0
  1 25  1  0  0  0
  1 30  2  0  0  0
  1 80  1  0  0  0
  2  3  1  0  0  0
  2 25  1  0  0  0
  2 84  1  0  0  0
  2 85  1  0  0  0
  3  4  1  0  0  0
  3 86  1  0  0  0
  3 87  1  0  0  0
  4  5  1  0  0  0
  4 88  1  0  0  0
  4 89  1  0  0  0
  5  6  1  0  0  0
  5 26  1  0  0  0
  5 90  1  0  0  0
  6 25  1  0  0  0
  6 91  1  0  0  0
  6 92  1  0  0  0
  7  8  2  0  0  0
  7 26  1  0  0  0
  7 29  1  0  0  0
  8  9  1  0  0  0
  8 22  1  0  0  0
  9 10  1  0  0  0
  9 27  2  0  0  0
 10 11  2  0  0  0
 10 15  1  0  0  0
 11 12  1  0  0  0
 11 93  1  0  0  0
 12 13  2  0  0  0
 12 94  1  0  0  0
 13 14  1  0  0  0
 13 31  1  0  0  0
 14 15  2  0  0  0
 14 95  1  0  0  0
 15 96  1  0  0  0
 16 17  2  0  0  0
 16 21  1  0  0  0
 16 31  1  0  0  0
 17 18  1  0  0  0
 17 97  1  0  0  0
 18 19  2  0  0  0
 18 98  1  0  0  0
 19 20  1  0  0  0
 19 24  1  0  0  0
 20 21  2  0  0  0
 20 99  1  0  0  0
 21 23  1  0  0  0
 22 28  1  0  0  0
 22 32  2  0  0  0
 26 27  1  0  0  0
 28100  1  0  0  0
 28101  1  0  0  0
 29102  1  0  0  0
 29103  1  0  0  0
 33 34  1  0  0  0
 33 66  1  0  0  0
 33 70  2  0  0  0
 34 36  1  0  0  0
 34 59  1  0  0  0
 34104  1  0  0  0
 35 44  2  0  0  0
 35 45  1  0  0  0
 35 68  1  0  0  0
 36 56  1  0  0  0
 36105  1  0  0  0
 37 39  1  0  0  0
 37 47  1  0  0  0
 37 66  1  0  0  0
 37106  1  0  0  0
 38 43  2  0  0  0
 38 46  1  0  0  0
 38 47  1  0  0  0
 39 64  1  0  0  0
 39 67  2  0  0  0
 40 52  1  0  0  0
 40 53  2  0  0  0
 40 58  1  0  0  0
 41107  1  0  0  0
 41108  1  0  0  0
 41109  1  0  0  0
 41 48  1  0  0  0
 42 43  1  0  0  0
 42 66  1  0  0  0
 42110  1  0  0  0
 42111  1  0  0  0
 43 44  1  0  0  0
 44112  1  0  0  0
 45 46  2  0  0  0
 45113  1  0  0  0
 46114  1  0  0  0
 47115  1  0  0  0
 47116  1  0  0  0
 48 56  1  0  0  0
 48 65  1  0  0  0
 48117  1  0  0  0
 49 50  1  0  0  0
 49 53  1  0  0  0
 49 64  1  0  0  0
 49118  1  0  0  0
 50 51  1  0  0  0
 50119  1  0  0  0
 50120  1  0  0  0
 51 52  1  0  0  0
 51121  1  0  0  0
 51122  1  0  0  0
 52123  1  0  0  0
 52124  1  0  0  0
 53 54  1  0  0  0
 54 55  2  0  0  0
 54125  1  0  0  0
 55 57  1  0  0  0
 55126  1  0  0  0
 56 69  2  0  0  0
 57 58  2  0  0  0
 57127  1  0  0  0
 58128  1  0  0  0
 59 60  1  0  0  0
 59 61  1  0  0  0
 59 62  1  0  0  0
 60129  1  0  0  0
 60130  1  0  0  0
 60131  1  0  0  0
 61132  1  0  0  0
 61133  1  0  0  0
 61134  1  0  0  0
 62135  1  0  0  0
 62136  1  0  0  0
 62137  1  0  0  0
 63 65  1  0  0  0
 63138  1  0  0  0
 63139  1  0  0  0
 63140  1  0  0  0
 64141  1  0  0  0
 65142  1  0  0  0
 68 79  1  0  0  0
 71 73  2  0  0  0
 71 75  1  0  0  0
 71143  1  0  0  0
 72 74  1  0  0  0
 72 76  2  0  0  0
 72144  1  0  0  0
 73 76  1  0  0  0
 73 81  1  0  0  0
 74 75  2  0  0  0
 74 80  1  0  0  0
 75 82  1  0  0  0
 76 83  1  0  0  0
 77 78  1  0  0  0
 77 79  1  0  0  0
 77145  1  0  0  0
 77146  1  0  0  0
 78 81  1  0  0  0
 78147  1  0  0  0
 78148  1  0  0  0
 79149  1  0  0  0
 79150  1  0  0  0
 80151  1  0  0  0
 81152  1  0  0  0
M  ISO  4   1 100  68 101  79 101  80 100
M  END
> <chiral flag>
0

> <version>
0

> <s_m_source_file>
/data/baiqing/PycharmProjects/Reinvent-master-3.2/result/LINK_invent/BTK/process_docking_weight1_custom_product_contain_oxygen_bond_distance_aromatic_linkinvent_7_9_3/rearranged_h_0044.sdf

> <i_m_source_file_index>
12

> <r_mmod_Potential_Energy-OPLS-2005>
24.1310348510742

> <r_mmod_Stretch_Energy-OPLS-2005>
72.5720291137695

> <r_mmod_Bend_Energy-OPLS-2005>
144.060836791992

> <r_mmod_Torsional_Energy-OPLS-2005>
200.207427978516

> <r_mmod_Improper_Torsional_Energy-OPLS-2005>
4.75076866149902

> <r_mmod_Van_der_Waal_Energy-OPLS-2005>
146.318298339844

> <r_mmod_Electrostatic_Energy-OPLS-2005>
-383.115539550781

> <r_mmod_Solvation_Energy-OPLS-2005>
-205.298202514648

> <b_mmod_Minimization_Converged-OPLS-2005>
0

> <r_mmod_RMS_Derivative-OPLS-2005>
0.276083499193192

$$$$
12
                    3D
 Structure written by MMmdl.
164173  0  0  1  0            999 V2000
  -30.6385  -14.6960   20.4527 C   0  0  0  0  0  0
  -30.4310  -12.4216   19.4780 C   0  0  0  0  0  0
  -29.5117  -12.5017   18.2392 C   0  0  0  0  0  0
  -28.0364  -12.3354   18.6511 C   0  0  0  0  0  0
  -27.6483  -13.2298   19.8594 C   0  0  2  0  0  0
  -28.6919  -13.1453   20.9961 C   0  0  0  0  0  0
  -25.2533  -13.8202   20.5714 C   0  0  0  0  0  0
  -24.1812  -13.0448   20.9206 C   0  0  0  0  0  0
  -24.6399  -11.6923   20.8739 C   0  0  0  0  0  0
  -23.9068  -10.4302   21.0403 C   0  0  0  0  0  0
  -24.3622   -9.4217   21.9180 C   0  0  0  0  0  0
  -23.6299   -8.2252   22.0750 C   0  0  0  0  0  0
  -22.4277   -8.0291   21.3544 C   0  0  0  0  0  0
  -21.9912   -9.0258   20.4637 C   0  0  0  0  0  0
  -22.7242  -10.2137   20.3049 C   0  0  0  0  0  0
  -21.6850   -6.0734   22.5275 C   0  0  0  0  0  0
  -21.4013   -6.5631   23.8209 C   0  0  0  0  0  0
  -21.3665   -5.6784   24.9168 C   0  0  0  0  0  0
  -21.6052   -4.3050   24.7214 C   0  0  0  0  0  0
  -21.8821   -3.8145   23.4333 C   0  0  0  0  0  0
  -21.9195   -4.6966   22.3395 C   0  0  0  0  0  0
  -22.7831  -13.5231   21.1858 C   0  0  0  0  0  0
  -22.1661   -4.2158   21.0969 F   0  0  0  0  0  0
  -21.5634   -3.4532   25.7725 F   0  0  0  0  0  0
  -30.0022  -13.4778   20.4227 N   0  0  0  0  0  0
  -26.2968  -12.9409   20.3316 N   0  0  0  0  0  0
  -25.9329  -11.6550   20.5763 N   0  0  0  0  0  0
  -22.0460  -12.8226   22.0408 N   0  0  0  0  0  0
  -25.4221  -15.1929   20.4144 N   0  0  0  0  0  0
  -31.8185  -14.7827   20.1025 O   0  0  0  0  0  0
  -21.6642   -6.8883   21.4239 O   0  0  0  0  0  0
  -22.3522  -14.5538   20.6704 O   0  0  0  0  0  0
  -24.6336  -31.8534   23.1992 C   0  0  0  0  0  0
  -25.9163  -32.4746   23.8333 C   0  0  1  0  0  0
  -27.2070  -27.2488   20.1298 C   0  0  0  0  0  0
  -25.5950  -33.8554   24.2251 N   0  0  0  0  0  0
  -23.4294  -30.4805   21.5423 C   0  0  2  0  0  0
  -24.8747  -28.9320   20.1052 C   0  0  0  0  0  0
  -22.7507  -29.4599   22.4890 C   0  0  0  0  0  0
  -18.0301  -28.1397   22.8489 C   0  0  0  0  0  0
  -24.1489  -36.7284   23.2642 C   0  0  0  0  0  0
  -25.9781  -30.7619   21.3832 C   0  0  0  0  0  0
  -26.0466  -29.3861   20.7217 C   0  0  0  0  0  0
  -27.2159  -28.5582   20.7245 C   0  0  0  0  0  0
  -26.0229  -26.8871   19.4482 C   0  0  0  0  0  0
  -24.8681  -27.6913   19.4554 C   0  0  0  0  0  0
  -23.6475  -29.8204   20.1562 C   0  0  0  0  0  0
  -25.4124  -36.3067   24.0320 C   0  0  1  0  0  0
  -20.5906  -28.3703   23.1267 C   0  0  2  0  0  0
  -20.6794  -26.9415   22.5415 C   0  0  0  0  0  0
  -19.5759  -26.6388   21.5222 C   0  0  0  0  0  0
  -18.1939  -26.7944   22.1631 C   0  0  0  0  0  0
  -19.1556  -28.8869   23.2875 C   0  0  0  0  0  0
  -18.9473  -30.1479   23.8875 C   0  0  0  0  0  0
  -17.6468  -30.6587   24.0572 C   0  0  0  0  0  0
  -25.9063  -34.9432   23.5087 C   0  0  0  0  0  0
  -16.5361  -29.9077   23.6346 C   0  0  0  0  0  0
  -16.7288  -28.6509   23.0343 C   0  0  0  0  0  0
  -26.4518  -31.6584   25.0732 C   0  0  0  0  0  0
  -25.3728  -31.3754   26.1445 C   0  0  0  0  0  0
  -27.0377  -30.2988   24.6267 C   0  0  0  0  0  0
  -27.6060  -32.4339   25.7501 C   0  0  0  0  0  0
  -27.5578  -37.1801   24.8463 C   0  0  0  0  0  0
  -21.4213  -29.3046   22.3646 N   0  0  0  0  0  0
  -26.4285  -37.3779   23.9408 N   0  0  0  0  0  0
  -24.6996  -31.0503   22.0968 N   0  0  0  0  0  0
  -23.4214  -28.8140   23.2988 O   0  0  0  0  0  0
  -28.2749  -26.3193   20.2337 O   0  0  0  0  0  0
  -26.5623  -34.8905   22.4650 O   0  0  0  0  0  0
  -23.5489  -32.1356   23.7283 O   0  0  0  0  0  0
  -30.5180  -17.2826   18.8003 C   0  0  0  0  0  0
  -30.6482  -18.5210   18.1501 C   0  0  0  0  0  0
  -29.6770  -18.4457   20.7743 C   0  0  0  0  0  0
  -29.8417  -19.7477   20.1239 C   0  0  0  0  0  0
  -30.0447  -17.1900   20.1281 C   0  0  0  0  0  0
  -30.3313  -19.7290   18.7951 C   0  0  0  0  0  0
  -27.3307  -22.0142   20.5297 C   0  0  0  0  0  0
  -26.6180  -21.0552   19.9144 C   0  0  0  0  0  0
  -26.8327  -22.9480   21.6252 C   0  0  0  0  0  0
  -26.8964  -24.4477   21.2403 C   0  0  0  0  0  0
  -29.1715  -23.7414   20.4006 C   0  0  0  0  0  0
  -27.9938  -24.8257   20.2033 C   0  0  2  0  0  0
  -29.1387  -18.3954   22.1939 C   0  0  0  0  0  0
  -29.6822  -21.1809   20.8145 C   0  0  0  0  0  0
  -29.8964  -15.8355   20.7114 N   0  0  0  0  0  0
  -28.7705  -22.2604   20.2098 N   0  3  1  0  0  0
  -30.5806  -21.2000   17.9214 Cl  0  0  0  0  0  0
  -31.4755  -12.5284   19.1789 H   0  0  0  0  0  0
  -30.3599  -11.4403   19.9479 H   0  0  0  0  0  0
  -29.7877  -11.7305   17.5183 H   0  0  0  0  0  0
  -29.6517  -13.4597   17.7355 H   0  0  0  0  0  0
  -27.8860  -11.2854   18.9055 H   0  0  0  0  0  0
  -27.3817  -12.5387   17.8038 H   0  0  0  0  0  0
  -27.6505  -14.2567   19.4929 H   0  0  0  0  0  0
  -28.7104  -12.1428   21.4273 H   0  0  0  0  0  0
  -28.4357  -13.8230   21.8117 H   0  0  0  0  0  0
  -25.2763   -9.5700   22.4756 H   0  0  0  0  0  0
  -24.0015   -7.4636   22.7456 H   0  0  0  0  0  0
  -21.0850   -8.8769   19.8930 H   0  0  0  0  0  0
  -22.3699  -10.9677   19.6164 H   0  0  0  0  0  0
  -21.1999   -7.6136   23.9720 H   0  0  0  0  0  0
  -21.1488   -6.0502   25.9073 H   0  0  0  0  0  0
  -22.0601   -2.7611   23.2822 H   0  0  0  0  0  0
  -22.4064  -11.9904   22.4844 H   0  0  0  0  0  0
  -21.1065  -13.1246   22.2561 H   0  0  0  0  0  0
  -24.6533  -15.8438   20.5264 H   0  0  0  0  0  0
  -26.2675  -15.6360   20.0786 H   0  0  0  0  0  0
  -26.7223  -32.5374   23.1058 H   0  0  0  0  0  0
  -25.0101  -33.9700   25.0399 H   0  0  0  0  0  0
  -22.7262  -31.3041   21.3990 H   0  0  0  0  0  0
  -23.3745  -35.9622   23.3295 H   0  0  0  0  0  0
  -24.3579  -36.8920   22.2058 H   0  0  0  0  0  0
  -23.7240  -37.6484   23.6664 H   0  0  0  0  0  0
  -26.1256  -31.5221   20.6148 H   0  0  0  0  0  0
  -26.8531  -30.8013   22.0204 H   0  0  0  0  0  0
  -28.1061  -28.8962   21.2341 H   0  0  0  0  0  0
  -25.9462  -25.9475   18.9225 H   0  0  0  0  0  0
  -23.9743  -27.3444   18.9554 H   0  0  0  0  0  0
  -23.7748  -30.5995   19.4037 H   0  0  0  0  0  0
  -22.7649  -29.2583   19.8478 H   0  0  0  0  0  0
  -25.1307  -36.1910   25.0813 H   0  0  0  0  0  0
  -21.0009  -28.3270   24.1379 H   0  0  0  0  0  0
  -20.5703  -26.2298   23.3625 H   0  0  0  0  0  0
  -21.6656  -26.7440   22.1188 H   0  0  0  0  0  0
  -19.6895  -25.6292   21.1249 H   0  0  0  0  0  0
  -19.6688  -27.3201   20.6753 H   0  0  0  0  0  0
  -17.4218  -26.6712   21.4022 H   0  0  0  0  0  0
  -18.0306  -26.0087   22.9024 H   0  0  0  0  0  0
  -19.7944  -30.7324   24.2204 H   0  0  0  0  0  0
  -17.5014  -31.6256   24.5181 H   0  0  0  0  0  0
  -15.5356  -30.2965   23.7695 H   0  0  0  0  0  0
  -15.8695  -28.0837   22.7032 H   0  0  0  0  0  0
  -24.5898  -30.7104   25.7770 H   0  0  0  0  0  0
  -24.8932  -32.2939   26.4833 H   0  0  0  0  0  0
  -25.8040  -30.8947   27.0238 H   0  0  0  0  0  0
  -26.2978  -29.6712   24.1279 H   0  0  0  0  0  0
  -27.4007  -29.7283   25.4830 H   0  0  0  0  0  0
  -27.8876  -30.4237   23.9557 H   0  0  0  0  0  0
  -27.2648  -33.3645   26.2048 H   0  0  0  0  0  0
  -28.3880  -32.6898   25.0339 H   0  0  0  0  0  0
  -28.0708  -31.8487   26.5446 H   0  0  0  0  0  0
  -28.2599  -38.0100   24.7522 H   0  0  0  0  0  0
  -28.1073  -36.2629   24.6267 H   0  0  0  0  0  0
  -27.2290  -37.1426   25.8868 H   0  0  0  0  0  0
  -20.9382  -29.8789   21.6880 H   0  0  0  0  0  0
  -26.0152  -38.2848   24.1417 H   0  0  0  0  0  0
  -30.7824  -16.3943   18.2443 H   0  0  0  0  0  0
  -31.0195  -18.5459   17.1358 H   0  0  0  0  0  0
  -25.5831  -20.8783   20.1710 H   0  0  0  0  0  0
  -27.0483  -20.4207   19.1524 H   0  0  0  0  0  0
  -27.4382  -22.7716   22.5151 H   0  0  0  0  0  0
  -25.8146  -22.6754   21.9046 H   0  0  0  0  0  0
  -27.0373  -25.0335   22.1488 H   0  0  0  0  0  0
  -25.9163  -24.7243   20.8605 H   0  0  0  0  0  0
  -29.5784  -23.8601   21.4051 H   0  0  0  0  0  0
  -29.9914  -23.9612   19.7157 H   0  0  0  0  0  0
  -27.6105  -24.6144   19.2048 H   0  0  0  0  0  0
  -28.3088  -19.0906   22.3199 H   0  0  0  0  0  0
  -29.9263  -18.6556   22.9011 H   0  0  0  0  0  0
  -28.7603  -17.4081   22.4597 H   0  0  0  0  0  0
  -30.6904  -21.5970   20.8378 H   0  0  0  0  0  0
  -29.4216  -21.0577   21.8647 H   0  0  0  0  0  0
  -29.0341  -15.6722   21.2074 H   0  0  0  0  0  0
  -28.8865  -22.1170   19.2149 H   0  0  0  0  0  0
  1 25  1  0  0  0
  1 30  2  0  0  0
  1 85  1  0  0  0
  2  3  1  0  0  0
  2 25  1  0  0  0
  2 88  1  0  0  0
  2 89  1  0  0  0
  3  4  1  0  0  0
  3 90  1  0  0  0
  3 91  1  0  0  0
  4  5  1  0  0  0
  4 92  1  0  0  0
  4 93  1  0  0  0
  5  6  1  0  0  0
  5 26  1  0  0  0
  5 94  1  0  0  0
  6 25  1  0  0  0
  6 95  1  0  0  0
  6 96  1  0  0  0
  7  8  2  0  0  0
  7 26  1  0  0  0
  7 29  1  0  0  0
  8  9  1  0  0  0
  8 22  1  0  0  0
  9 10  1  0  0  0
  9 27  2  0  0  0
 10 11  2  0  0  0
 10 15  1  0  0  0
 11 12  1  0  0  0
 11 97  1  0  0  0
 12 13  2  0  0  0
 12 98  1  0  0  0
 13 14  1  0  0  0
 13 31  1  0  0  0
 14 15  2  0  0  0
 14 99  1  0  0  0
 15100  1  0  0  0
 16 17  2  0  0  0
 16 21  1  0  0  0
 16 31  1  0  0  0
 17 18  1  0  0  0
 17101  1  0  0  0
 18 19  2  0  0  0
 18102  1  0  0  0
 19 20  1  0  0  0
 19 24  1  0  0  0
 20 21  2  0  0  0
 20103  1  0  0  0
 21 23  1  0  0  0
 22 28  1  0  0  0
 22 32  2  0  0  0
 26 27  1  0  0  0
 28104  1  0  0  0
 28105  1  0  0  0
 29106  1  0  0  0
 29107  1  0  0  0
 33 34  1  0  0  0
 33 66  1  0  0  0
 33 70  2  0  0  0
 34 36  1  0  0  0
 34 59  1  0  0  0
 34108  1  0  0  0
 35 44  2  0  0  0
 35 45  1  0  0  0
 35 68  1  0  0  0
 36 56  1  0  0  0
 36109  1  0  0  0
 37 39  1  0  0  0
 37 47  1  0  0  0
 37 66  1  0  0  0
 37110  1  0  0  0
 38 43  2  0  0  0
 38 46  1  0  0  0
 38 47  1  0  0  0
 39 64  1  0  0  0
 39 67  2  0  0  0
 40 52  1  0  0  0
 40 53  2  0  0  0
 40 58  1  0  0  0
 41111  1  0  0  0
 41112  1  0  0  0
 41113  1  0  0  0
 41 48  1  0  0  0
 42 43  1  0  0  0
 42 66  1  0  0  0
 42114  1  0  0  0
 42115  1  0  0  0
 43 44  1  0  0  0
 44116  1  0  0  0
 45 46  2  0  0  0
 45117  1  0  0  0
 46118  1  0  0  0
 47119  1  0  0  0
 47120  1  0  0  0
 48 56  1  0  0  0
 48 65  1  0  0  0
 48121  1  0  0  0
 49 50  1  0  0  0
 49 53  1  0  0  0
 49 64  1  0  0  0
 49122  1  0  0  0
 50 51  1  0  0  0
 50123  1  0  0  0
 50124  1  0  0  0
 51 52  1  0  0  0
 51125  1  0  0  0
 51126  1  0  0  0
 52127  1  0  0  0
 52128  1  0  0  0
 53 54  1  0  0  0
 54 55  2  0  0  0
 54129  1  0  0  0
 55 57  1  0  0  0
 55130  1  0  0  0
 56 69  2  0  0  0
 57 58  2  0  0  0
 57131  1  0  0  0
 58132  1  0  0  0
 59 60  1  0  0  0
 59 61  1  0  0  0
 59 62  1  0  0  0
 60133  1  0  0  0
 60134  1  0  0  0
 60135  1  0  0  0
 61136  1  0  0  0
 61137  1  0  0  0
 61138  1  0  0  0
 62139  1  0  0  0
 62140  1  0  0  0
 62141  1  0  0  0
 63 65  1  0  0  0
 63142  1  0  0  0
 63143  1  0  0  0
 63144  1  0  0  0
 64145  1  0  0  0
 65146  1  0  0  0
 68 82  1  0  0  0
 71 72  2  0  0  0
 71 75  1  0  0  0
 71147  1  0  0  0
 72 76  1  0  0  0
 72148  1  0  0  0
 73 74  1  0  0  0
 73 75  2  0  0  0
 73 83  1  0  0  0
 74 76  2  0  0  0
 74 84  1  0  0  0
 75 85  1  0  0  0
 76 87  1  0  0  0
 77 78  2  0  0  0
 77 79  1  0  0  0
 77 86  1  0  0  0
 78149  1  0  0  0
 78150  1  0  0  0
 79 80  1  0  0  0
 79151  1  0  0  0
 79152  1  0  0  0
 80 82  1  0  0  0
 80153  1  0  0  0
 80154  1  0  0  0
 81 82  1  0  0  0
 81 86  1  0  0  0
 81155  1  0  0  0
 81156  1  0  0  0
 82157  1  0  0  0
 83158  1  0  0  0
 83159  1  0  0  0
 83160  1  0  0  0
 84161  1  0  0  0
 84162  1  0  0  0
 84 86  1  0  0  0
 85163  1  0  0  0
 86164  1  0  0  0
M  CHG  1  86   1
M  ISO  4   1 100  68 101  82 101  85 100
M  END
> <chiral flag>
0

> <version>
0

> <s_m_source_file>
/data/baiqing/PycharmProjects/Reinvent-master-3.2/result/LINK_invent/BTK/process_docking_weight1_custom_product_contain_oxygen_bond_distance_aromatic_linkinvent_7_9_3/rearranged_h_0044.sdf

> <i_m_source_file_index>
13

> <r_mmod_Potential_Energy-OPLS-2005>
48.1877479553223

> <r_mmod_Stretch_Energy-OPLS-2005>
126.073936462402

> <r_mmod_Bend_Energy-OPLS-2005>
161.21858215332

> <r_mmod_Torsional_Energy-OPLS-2005>
260.553619384766

> <r_mmod_Improper_Torsional_Energy-OPLS-2005>
5.04611206054688

> <r_mmod_Van_der_Waal_Energy-OPLS-2005>
150.617095947266

> <r_mmod_Electrostatic_Energy-OPLS-2005>
-320.539001464844

> <r_mmod_Solvation_Energy-OPLS-2005>
-417.784240722656

> <b_mmod_Minimization_Converged-OPLS-2005>
0

> <r_mmod_RMS_Derivative-OPLS-2005>
2.23782467842102

$$$$
13
                    3D
 Structure written by MMmdl.
166175  0  0  1  0            999 V2000
  -30.6139  -14.6050   20.5402 C   0  0  0  0  0  0
  -30.4421  -12.3767   19.4383 C   0  0  0  0  0  0
  -29.5057  -12.5101   18.2153 C   0  0  0  0  0  0
  -28.0263  -12.3557   18.6264 C   0  0  0  0  0  0
  -27.6577  -13.2069   19.8724 C   0  0  2  0  0  0
  -28.7042  -13.0054   20.9920 C   0  0  0  0  0  0
  -25.2554  -13.8127   20.5705 C   0  0  0  0  0  0
  -24.1804  -13.0400   20.9187 C   0  0  0  0  0  0
  -24.6365  -11.6865   20.8722 C   0  0  0  0  0  0
  -23.9026  -10.4270   21.0380 C   0  0  0  0  0  0
  -24.3588   -9.4193   21.9155 C   0  0  0  0  0  0
  -23.6270   -8.2216   22.0742 C   0  0  0  0  0  0
  -22.4245   -8.0252   21.3544 C   0  0  0  0  0  0
  -21.9879   -9.0211   20.4636 C   0  0  0  0  0  0
  -22.7201  -10.2098   20.3032 C   0  0  0  0  0  0
  -21.6845   -6.0708   22.5272 C   0  0  0  0  0  0
  -21.4005   -6.5607   23.8214 C   0  0  0  0  0  0
  -21.3670   -5.6771   24.9172 C   0  0  0  0  0  0
  -21.6052   -4.3032   24.7236 C   0  0  0  0  0  0
  -21.8825   -3.8124   23.4352 C   0  0  0  0  0  0
  -21.9184   -4.6929   22.3408 C   0  0  0  0  0  0
  -22.7835  -13.5199   21.1871 C   0  0  0  0  0  0
  -22.1654   -4.2102   21.0986 F   0  0  0  0  0  0
  -21.5636   -3.4531   25.7752 F   0  0  0  0  0  0
  -30.0204  -13.3704   20.4453 N   0  0  0  0  0  0
  -26.2994  -12.9312   20.3366 N   0  0  0  0  0  0
  -25.9302  -11.6477   20.5770 N   0  0  0  0  0  0
  -22.0483  -12.8183   22.0432 N   0  0  0  0  0  0
  -25.4300  -15.1853   20.4165 N   0  0  0  0  0  0
  -31.7517  -14.8112   20.1068 O   0  0  0  0  0  0
  -21.6618   -6.8834   21.4233 O   0  0  0  0  0  0
  -22.3491  -14.5509   20.6721 O   0  0  0  0  0  0
  -24.6226  -31.8635   23.2068 C   0  0  0  0  0  0
  -25.9083  -32.4804   23.8384 C   0  0  1  0  0  0
  -27.2192  -27.3413   20.1149 C   0  0  0  0  0  0
  -25.5883  -33.8609   24.2289 N   0  0  0  0  0  0
  -23.4133  -30.4856   21.5518 C   0  0  2  0  0  0
  -24.8581  -28.9478   20.1178 C   0  0  0  0  0  0
  -22.7462  -29.4588   22.4968 C   0  0  0  0  0  0
  -18.0246  -28.1475   22.8486 C   0  0  0  0  0  0
  -24.1474  -36.7303   23.2646 C   0  0  0  0  0  0
  -25.9557  -30.8015   21.3727 C   0  0  0  0  0  0
  -26.0296  -29.4305   20.7146 C   0  0  0  0  0  0
  -27.2160  -28.6412   20.7034 C   0  0  0  0  0  0
  -26.0278  -26.9086   19.4869 C   0  0  0  0  0  0
  -24.8563  -27.6892   19.4988 C   0  0  0  0  0  0
  -23.6274  -29.8285   20.1660 C   0  0  0  0  0  0
  -25.4100  -36.3107   24.0340 C   0  0  1  0  0  0
  -20.5832  -28.3697   23.1296 C   0  0  2  0  0  0
  -20.6682  -26.9428   22.5421 C   0  0  0  0  0  0
  -19.5705  -26.6431   21.5194 C   0  0  0  0  0  0
  -18.1850  -26.8083   22.1506 C   0  0  0  0  0  0
  -19.1528  -28.8870   23.2911 C   0  0  0  0  0  0
  -18.9519  -30.1446   23.8983 C   0  0  0  0  0  0
  -17.6552  -30.6653   24.0673 C   0  0  0  0  0  0
  -25.9046  -34.9474   23.5121 C   0  0  0  0  0  0
  -16.5382  -29.9220   23.6449 C   0  0  0  0  0  0
  -16.7254  -28.6642   23.0410 C   0  0  0  0  0  0
  -26.4476  -31.6584   25.0729 C   0  0  0  0  0  0
  -25.3734  -31.3685   26.1460 C   0  0  0  0  0  0
  -27.0329  -30.3026   24.6149 C   0  0  0  0  0  0
  -27.6043  -32.4311   25.7504 C   0  0  0  0  0  0
  -27.5579  -37.1801   24.8479 C   0  0  0  0  0  0
  -21.4160  -29.3108   22.3789 N   0  0  0  0  0  0
  -26.4297  -37.3787   23.9409 N   0  0  0  0  0  0
  -24.6817  -31.0667   22.1008 N   0  0  0  0  0  0
  -23.4202  -28.8018   23.2935 O   0  0  0  0  0  0
  -28.3334  -26.4896   20.1593 O   0  0  0  0  0  0
  -26.5642  -34.8942   22.4707 O   0  0  0  0  0  0
  -23.5391  -32.1447   23.7372 O   0  0  0  0  0  0
  -29.8134  -19.3971   21.5922 C   0  0  0  0  0  0
  -30.0164  -17.9976   21.8059 C   0  0  0  0  0  0
  -29.3481  -17.5450   19.5481 C   0  0  0  0  0  0
  -29.3325  -19.9144   20.3529 C   0  0  0  0  0  0
  -29.1188  -18.9375   19.3227 C   0  0  0  0  0  0
  -29.8021  -17.0356   20.7849 C   0  0  0  0  0  0
  -27.8773  -25.2021   22.1564 C   0  0  0  0  0  0
  -27.7029  -23.8225   22.8189 C   0  0  0  0  0  0
  -29.1610  -23.9717   20.3416 C   0  0  0  0  0  0
  -28.0947  -25.1110   20.6445 C   0  0  2  0  0  0
  -27.6974  -22.6104   21.8453 C   0  0  2  0  0  0
  -27.4469  -21.3369   22.6692 C   0  0  0  0  0  0
  -29.1138  -21.4517   20.0148 C   0  0  0  0  0  0
  -28.6091  -19.3546   17.9422 C   0  0  0  0  0  0
  -29.8274  -15.6014   21.0498 N   0  0  0  0  0  0
  -28.9464  -22.6000   21.0096 N   0  3  1  0  0  0
  -28.6324  -18.3461   17.0690 F   0  0  0  0  0  0
  -27.3480  -19.7688   18.0510 F   0  0  0  0  0  0
  -29.3498  -20.3393   17.4326 F   0  0  0  0  0  0
  -31.4806  -12.5159   19.1331 H   0  0  0  0  0  0
  -30.3872  -11.3663   19.8477 H   0  0  0  0  0  0
  -29.7616  -11.7649   17.4592 H   0  0  0  0  0  0
  -29.6520  -13.4850   17.7494 H   0  0  0  0  0  0
  -27.8515  -11.3002   18.8410 H   0  0  0  0  0  0
  -27.3706  -12.6054   17.7918 H   0  0  0  0  0  0
  -27.6943  -14.2522   19.5639 H   0  0  0  0  0  0
  -28.7125  -11.9607   21.3106 H   0  0  0  0  0  0
  -28.4574  -13.5731   21.8878 H   0  0  0  0  0  0
  -25.2734   -9.5638   22.4721 H   0  0  0  0  0  0
  -23.9964   -7.4594   22.7473 H   0  0  0  0  0  0
  -21.0801   -8.8713   19.8949 H   0  0  0  0  0  0
  -22.3650  -10.9610   19.6118 H   0  0  0  0  0  0
  -21.2007   -7.6116   23.9698 H   0  0  0  0  0  0
  -21.1492   -6.0501   25.9070 H   0  0  0  0  0  0
  -22.0607   -2.7579   23.2876 H   0  0  0  0  0  0
  -22.4120  -11.9829   22.4775 H   0  0  0  0  0  0
  -21.1095  -13.1186   22.2692 H   0  0  0  0  0  0
  -24.6660  -15.8395   20.5552 H   0  0  0  0  0  0
  -26.2865  -15.6329   20.1178 H   0  0  0  0  0  0
  -26.7178  -32.5460   23.1156 H   0  0  0  0  0  0
  -24.9970  -33.9752   25.0391 H   0  0  0  0  0  0
  -22.7017  -31.3025   21.4162 H   0  0  0  0  0  0
  -23.3746  -35.9630   23.3334 H   0  0  0  0  0  0
  -24.3592  -36.8913   22.2070 H   0  0  0  0  0  0
  -23.7230  -37.6514   23.6654 H   0  0  0  0  0  0
  -26.0832  -31.5635   20.6013 H   0  0  0  0  0  0
  -26.8420  -30.8505   21.9945 H   0  0  0  0  0  0
  -28.1134  -29.0137   21.1791 H   0  0  0  0  0  0
  -25.9723  -25.9534   18.9838 H   0  0  0  0  0  0
  -23.9563  -27.3073   19.0375 H   0  0  0  0  0  0
  -23.7516  -30.6100   19.4158 H   0  0  0  0  0  0
  -22.7450  -29.2686   19.8552 H   0  0  0  0  0  0
  -25.1274  -36.1994   25.0840 H   0  0  0  0  0  0
  -20.9887  -28.3209   24.1429 H   0  0  0  0  0  0
  -20.5538  -26.2309   23.3594 H   0  0  0  0  0  0
  -21.6582  -26.7452   22.1317 H   0  0  0  0  0  0
  -19.6724  -25.6379   21.1124 H   0  0  0  0  0  0
  -19.6739  -27.3269   20.6739 H   0  0  0  0  0  0
  -17.4171  -26.7087   21.3827 H   0  0  0  0  0  0
  -18.0028  -26.0163   22.8786 H   0  0  0  0  0  0
  -19.8041  -30.7119   24.2418 H   0  0  0  0  0  0
  -17.5253  -31.6308   24.5336 H   0  0  0  0  0  0
  -15.5427  -30.3215   23.7833 H   0  0  0  0  0  0
  -15.8634  -28.1014   22.7109 H   0  0  0  0  0  0
  -24.5880  -30.7072   25.7771 H   0  0  0  0  0  0
  -24.8952  -32.2840   26.4955 H   0  0  0  0  0  0
  -25.8069  -30.8809   27.0196 H   0  0  0  0  0  0
  -26.2893  -29.6774   24.1202 H   0  0  0  0  0  0
  -27.4099  -29.7267   25.4610 H   0  0  0  0  0  0
  -27.8717  -30.4344   23.9315 H   0  0  0  0  0  0
  -27.2645  -33.3596   26.2094 H   0  0  0  0  0  0
  -28.3835  -32.6905   25.0324 H   0  0  0  0  0  0
  -28.0727  -31.8445   26.5418 H   0  0  0  0  0  0
  -28.2597  -38.0091   24.7507 H   0  0  0  0  0  0
  -28.1067  -36.2629   24.6318 H   0  0  0  0  0  0
  -27.2292  -37.1455   25.8879 H   0  0  0  0  0  0
  -20.9320  -29.9155   21.7309 H   0  0  0  0  0  0
  -26.0194  -38.2872   24.1405 H   0  0  0  0  0  0
  -30.0091  -20.0630   22.4205 H   0  0  0  0  0  0
  -30.3266  -17.6589   22.7842 H   0  0  0  0  0  0
  -29.1307  -16.8425   18.7583 H   0  0  0  0  0  0
  -28.7192  -25.7244   22.6125 H   0  0  0  0  0  0
  -27.0060  -25.8192   22.3684 H   0  0  0  0  0  0
  -26.7866  -23.8364   23.4130 H   0  0  0  0  0  0
  -28.5092  -23.6953   23.5389 H   0  0  0  0  0  0
  -30.1544  -24.3226   20.6222 H   0  0  0  0  0  0
  -29.1888  -23.8479   19.2608 H   0  0  0  0  0  0
  -27.1705  -24.7408   20.2079 H   0  0  0  0  0  0
  -26.8459  -22.7083   21.1695 H   0  0  0  0  0  0
  -28.2247  -21.1677   23.4137 H   0  0  0  0  0  0
  -27.3486  -20.4463   22.0512 H   0  0  0  0  0  0
  -26.5081  -21.4163   23.2168 H   0  0  0  0  0  0
  -28.2732  -21.5543   19.3324 H   0  0  0  0  0  0
  -29.9967  -21.7000   19.4263 H   0  0  0  0  0  0
  -28.9725  -15.2407   21.4455 H   0  0  0  0  0  0
  -29.7197  -22.5040   21.6536 H   0  0  0  0  0  0
  1 25  1  0  0  0
  1 30  2  0  0  0
  1 85  1  0  0  0
  2  3  1  0  0  0
  2 25  1  0  0  0
  2 90  1  0  0  0
  2 91  1  0  0  0
  3  4  1  0  0  0
  3 92  1  0  0  0
  3 93  1  0  0  0
  4  5  1  0  0  0
  4 94  1  0  0  0
  4 95  1  0  0  0
  5  6  1  0  0  0
  5 26  1  0  0  0
  5 96  1  0  0  0
  6 25  1  0  0  0
  6 97  1  0  0  0
  6 98  1  0  0  0
  7  8  2  0  0  0
  7 26  1  0  0  0
  7 29  1  0  0  0
  8  9  1  0  0  0
  8 22  1  0  0  0
  9 10  1  0  0  0
  9 27  2  0  0  0
 10 11  2  0  0  0
 10 15  1  0  0  0
 11 12  1  0  0  0
 11 99  1  0  0  0
 12 13  2  0  0  0
 12100  1  0  0  0
 13 14  1  0  0  0
 13 31  1  0  0  0
 14 15  2  0  0  0
 14101  1  0  0  0
 15102  1  0  0  0
 16 17  2  0  0  0
 16 21  1  0  0  0
 16 31  1  0  0  0
 17 18  1  0  0  0
 17103  1  0  0  0
 18 19  2  0  0  0
 18104  1  0  0  0
 19 20  1  0  0  0
 19 24  1  0  0  0
 20 21  2  0  0  0
 20105  1  0  0  0
 21 23  1  0  0  0
 22 28  1  0  0  0
 22 32  2  0  0  0
 26 27  1  0  0  0
 28106  1  0  0  0
 28107  1  0  0  0
 29108  1  0  0  0
 29109  1  0  0  0
 33 34  1  0  0  0
 33 66  1  0  0  0
 33 70  2  0  0  0
 34 36  1  0  0  0
 34 59  1  0  0  0
 34110  1  0  0  0
 35 44  2  0  0  0
 35 45  1  0  0  0
 35 68  1  0  0  0
 36 56  1  0  0  0
 36111  1  0  0  0
 37 39  1  0  0  0
 37 47  1  0  0  0
 37 66  1  0  0  0
 37112  1  0  0  0
 38 43  2  0  0  0
 38 46  1  0  0  0
 38 47  1  0  0  0
 39 64  1  0  0  0
 39 67  2  0  0  0
 40 52  1  0  0  0
 40 53  2  0  0  0
 40 58  1  0  0  0
 41113  1  0  0  0
 41114  1  0  0  0
 41115  1  0  0  0
 41 48  1  0  0  0
 42 43  1  0  0  0
 42 66  1  0  0  0
 42116  1  0  0  0
 42117  1  0  0  0
 43 44  1  0  0  0
 44118  1  0  0  0
 45 46  2  0  0  0
 45119  1  0  0  0
 46120  1  0  0  0
 47121  1  0  0  0
 47122  1  0  0  0
 48 56  1  0  0  0
 48 65  1  0  0  0
 48123  1  0  0  0
 49 50  1  0  0  0
 49 53  1  0  0  0
 49 64  1  0  0  0
 49124  1  0  0  0
 50 51  1  0  0  0
 50125  1  0  0  0
 50126  1  0  0  0
 51 52  1  0  0  0
 51127  1  0  0  0
 51128  1  0  0  0
 52129  1  0  0  0
 52130  1  0  0  0
 53 54  1  0  0  0
 54 55  2  0  0  0
 54131  1  0  0  0
 55 57  1  0  0  0
 55132  1  0  0  0
 56 69  2  0  0  0
 57 58  2  0  0  0
 57133  1  0  0  0
 58134  1  0  0  0
 59 60  1  0  0  0
 59 61  1  0  0  0
 59 62  1  0  0  0
 60135  1  0  0  0
 60136  1  0  0  0
 60137  1  0  0  0
 61138  1  0  0  0
 61139  1  0  0  0
 61140  1  0  0  0
 62141  1  0  0  0
 62142  1  0  0  0
 62143  1  0  0  0
 63 65  1  0  0  0
 63144  1  0  0  0
 63145  1  0  0  0
 63146  1  0  0  0
 64147  1  0  0  0
 65148  1  0  0  0
 68 80  1  0  0  0
 71 72  2  0  0  0
 71 74  1  0  0  0
 71149  1  0  0  0
 72 76  1  0  0  0
 72150  1  0  0  0
 73 75  1  0  0  0
 73 76  2  0  0  0
 73151  1  0  0  0
 74 75  2  0  0  0
 74 83  1  0  0  0
 75 84  1  0  0  0
 76 85  1  0  0  0
 77 78  1  0  0  0
 77 80  1  0  0  0
 77152  1  0  0  0
 77153  1  0  0  0
 78 81  1  0  0  0
 78154  1  0  0  0
 78155  1  0  0  0
 79 80  1  0  0  0
 79 86  1  0  0  0
 79156  1  0  0  0
 79157  1  0  0  0
 80158  1  0  0  0
 81 82  1  0  0  0
 81 86  1  0  0  0
 81159  1  0  0  0
 82160  1  0  0  0
 82161  1  0  0  0
 82162  1  0  0  0
 83163  1  0  0  0
 83164  1  0  0  0
 83 86  1  0  0  0
 84 87  1  0  0  0
 84 88  1  0  0  0
 84 89  1  0  0  0
 85165  1  0  0  0
 86166  1  0  0  0
M  CHG  1  86   1
M  ISO  4   1 100  68 101  80 101  85 100
M  END
> <chiral flag>
0

> <version>
0

> <s_m_source_file>
/data/baiqing/PycharmProjects/Reinvent-master-3.2/result/LINK_invent/BTK/process_docking_weight1_custom_product_contain_oxygen_bond_distance_aromatic_linkinvent_7_9_3/rearranged_h_0044.sdf

> <i_m_source_file_index>
14

> <r_mmod_Potential_Energy-OPLS-2005>
78.5854949951172

> <r_mmod_Stretch_Energy-OPLS-2005>
86.9271926879883

> <r_mmod_Bend_Energy-OPLS-2005>
162.619827270508

> <r_mmod_Torsional_Energy-OPLS-2005>
305.051147460938

> <r_mmod_Improper_Torsional_Energy-OPLS-2005>
4.98805236816406

> <r_mmod_Van_der_Waal_Energy-OPLS-2005>
159.814819335938

> <r_mmod_Electrostatic_Energy-OPLS-2005>
-254.18132019043

> <r_mmod_Solvation_Energy-OPLS-2005>
-426.034088134766

> <b_mmod_Minimization_Converged-OPLS-2005>
0

> <r_mmod_RMS_Derivative-OPLS-2005>
5.22726440429688

$$$$
14
                    3D
 Structure written by MMmdl.
158166  0  0  1  0            999 V2000
  -30.7267  -14.4576   20.5960 C   0  0  0  0  0  0
  -30.4101  -12.3008   19.4289 C   0  0  0  0  0  0
  -29.4942  -12.5110   18.2073 C   0  0  0  0  0  0
  -28.0086  -12.3978   18.6081 C   0  0  0  0  0  0
  -27.6597  -13.2204   19.8806 C   0  0  2  0  0  0
  -28.7012  -12.9945   21.0002 C   0  0  0  0  0  0
  -25.2550  -13.8192   20.5717 C   0  0  0  0  0  0
  -24.1819  -13.0456   20.9191 C   0  0  0  0  0  0
  -24.6377  -11.6917   20.8726 C   0  0  0  0  0  0
  -23.9043  -10.4307   21.0405 C   0  0  0  0  0  0
  -24.3611   -9.4226   21.9180 C   0  0  0  0  0  0
  -23.6297   -8.2252   22.0762 C   0  0  0  0  0  0
  -22.4273   -8.0288   21.3558 C   0  0  0  0  0  0
  -21.9904   -9.0248   20.4643 C   0  0  0  0  0  0
  -22.7220  -10.2131   20.3041 C   0  0  0  0  0  0
  -21.6854   -6.0731   22.5278 C   0  0  0  0  0  0
  -21.4017   -6.5643   23.8215 C   0  0  0  0  0  0
  -21.3666   -5.6792   24.9178 C   0  0  0  0  0  0
  -21.6040   -4.3056   24.7225 C   0  0  0  0  0  0
  -21.8824   -3.8146   23.4352 C   0  0  0  0  0  0
  -21.9197   -4.6957   22.3404 C   0  0  0  0  0  0
  -22.7826  -13.5232   21.1841 C   0  0  0  0  0  0
  -22.1667   -4.2152   21.0975 F   0  0  0  0  0  0
  -21.5621   -3.4542   25.7739 F   0  0  0  0  0  0
  -30.0319  -13.2951   20.4462 N   0  0  0  0  0  0
  -26.3015  -12.9394   20.3417 N   0  0  0  0  0  0
  -25.9316  -11.6534   20.5772 N   0  0  0  0  0  0
  -22.0460  -12.8239   22.0392 N   0  0  0  0  0  0
  -25.4237  -15.1920   20.4162 N   0  0  0  0  0  0
  -31.8301  -14.6416   20.0765 O   0  0  0  0  0  0
  -21.6640   -6.8878   21.4245 O   0  0  0  0  0  0
  -22.3500  -14.5539   20.6682 O   0  0  0  0  0  0
  -24.6156  -31.8630   23.2058 C   0  0  0  0  0  0
  -25.9036  -32.4794   23.8356 C   0  0  1  0  0  0
  -27.2408  -27.4165   20.0884 C   0  0  0  0  0  0
  -25.5876  -33.8599   24.2293 N   0  0  0  0  0  0
  -23.4061  -30.4825   21.5472 C   0  0  2  0  0  0
  -24.8528  -28.9459   20.1094 C   0  0  0  0  0  0
  -22.7400  -29.4619   22.4973 C   0  0  0  0  0  0
  -18.0246  -28.1360   22.8492 C   0  0  0  0  0  0
  -24.1473  -36.7308   23.2652 C   0  0  0  0  0  0
  -25.9347  -30.8222   21.3594 C   0  0  0  0  0  0
  -26.0111  -29.4556   20.7074 C   0  0  0  0  0  0
  -27.2037  -28.6973   20.6932 C   0  0  0  0  0  0
  -26.0587  -26.9186   19.4938 C   0  0  0  0  0  0
  -24.8732  -27.6801   19.4978 C   0  0  0  0  0  0
  -23.6131  -29.8109   20.1618 C   0  0  0  0  0  0
  -25.4091  -36.3092   24.0342 C   0  0  1  0  0  0
  -20.5841  -28.3644   23.1314 C   0  0  2  0  0  0
  -20.6726  -26.9369   22.5432 C   0  0  0  0  0  0
  -19.5726  -26.6354   21.5217 C   0  0  0  0  0  0
  -18.1893  -26.7898   22.1618 C   0  0  0  0  0  0
  -19.1500  -28.8820   23.2902 C   0  0  0  0  0  0
  -18.9447  -30.1427   23.8912 C   0  0  0  0  0  0
  -17.6456  -30.6576   24.0556 C   0  0  0  0  0  0
  -25.9022  -34.9458   23.5119 C   0  0  0  0  0  0
  -16.5339  -29.9080   23.6323 C   0  0  0  0  0  0
  -16.7240  -28.6489   23.0356 C   0  0  0  0  0  0
  -26.4482  -31.6582   25.0691 C   0  0  0  0  0  0
  -25.3760  -31.3659   26.1443 C   0  0  0  0  0  0
  -27.0357  -30.3036   24.6068 C   0  0  0  0  0  0
  -27.6016  -32.4330   25.7489 C   0  0  0  0  0  0
  -27.5566  -37.1804   24.8461 C   0  0  0  0  0  0
  -21.4116  -29.3016   22.3722 N   0  0  0  0  0  0
  -26.4273  -37.3783   23.9406 N   0  0  0  0  0  0
  -24.6715  -31.0691   22.0983 N   0  0  0  0  0  0
  -23.4156  -28.8158   23.3022 O   0  0  0  0  0  0
  -28.4353  -26.7179   20.1062 O   0  0  0  0  0  0
  -26.5610  -34.8924   22.4698 O   0  0  0  0  0  0
  -23.5337  -32.1408   23.7422 O   0  0  0  0  0  0
  -30.7917  -19.2333   21.2943 C   0  0  0  0  0  0
  -30.2423  -20.4642   20.8738 C   0  0  0  0  0  0
  -28.8612  -18.0580   20.4254 C   0  0  0  0  0  0
  -30.1016  -18.0174   21.0989 C   0  0  0  0  0  0
  -28.9731  -20.5232   20.2516 C   0  0  0  0  0  0
  -28.3016  -19.2919   20.0000 C   0  0  0  0  0  0
  -26.9707  -19.2645   19.2648 C   0  0  0  0  0  0
  -30.7215  -16.7256   21.6611 C   0  0  0  0  0  0
  -28.0549  -24.2708   20.5252 C   0  0  0  0  0  0
  -28.5528  -25.3881   19.5668 C   0  0  0  0  0  0
  -28.3290  -21.8819   19.8861 C   0  0  1  0  0  0
  -30.1130  -15.4370   21.2858 N   0  0  0  0  0  0
  -28.9101  -23.0693   20.5264 N   0  0  0  0  0  0
  -28.4616  -22.2035   18.1377 Cl  0  0  0  0  0  0
  -31.4599  -12.3782   19.1365 H   0  0  0  0  0  0
  -30.2882  -11.2925   19.8292 H   0  0  0  0  0  0
  -29.7257  -11.7772   17.4329 H   0  0  0  0  0  0
  -29.6862  -13.4923   17.7698 H   0  0  0  0  0  0
  -27.7834  -11.3436   18.7715 H   0  0  0  0  0  0
  -27.3766  -12.7179   17.7786 H   0  0  0  0  0  0
  -27.7053  -14.2729   19.5999 H   0  0  0  0  0  0
  -28.6723  -11.9580   21.3379 H   0  0  0  0  0  0
  -28.4621  -13.5931   21.8805 H   0  0  0  0  0  0
  -25.2756   -9.5713   22.4758 H   0  0  0  0  0  0
  -24.0009   -7.4647   22.7500 H   0  0  0  0  0  0
  -21.0830   -8.8753   19.8948 H   0  0  0  0  0  0
  -22.3677  -10.9667   19.6149 H   0  0  0  0  0  0
  -21.2012   -7.6156   23.9723 H   0  0  0  0  0  0
  -21.1483   -6.0523   25.9082 H   0  0  0  0  0  0
  -22.0596   -2.7613   23.2847 H   0  0  0  0  0  0
  -22.4082  -11.9921   22.4798 H   0  0  0  0  0  0
  -21.1086  -13.1287   22.2598 H   0  0  0  0  0  0
  -24.6564  -15.8461   20.5255 H   0  0  0  0  0  0
  -26.2805  -15.6336   20.1104 H   0  0  0  0  0  0
  -26.7108  -32.5483   23.1119 H   0  0  0  0  0  0
  -24.9995  -33.9754   25.0421 H   0  0  0  0  0  0
  -22.6983  -31.3013   21.4045 H   0  0  0  0  0  0
  -23.3732  -35.9652   23.3322 H   0  0  0  0  0  0
  -24.3553  -36.8917   22.2061 H   0  0  0  0  0  0
  -23.7237  -37.6518   23.6672 H   0  0  0  0  0  0
  -26.0439  -31.5840   20.5859 H   0  0  0  0  0  0
  -26.8262  -30.8810   21.9719 H   0  0  0  0  0  0
  -28.1000  -29.0921   21.1525 H   0  0  0  0  0  0
  -26.0339  -25.9467   19.0243 H   0  0  0  0  0  0
  -23.9824  -27.2799   19.0325 H   0  0  0  0  0  0
  -23.7134  -30.5874   19.4020 H   0  0  0  0  0  0
  -22.7398  -29.2229   19.8704 H   0  0  0  0  0  0
  -25.1272  -36.1970   25.0842 H   0  0  0  0  0  0
  -20.9929  -28.3214   24.1444 H   0  0  0  0  0  0
  -20.5571  -26.2256   23.3624 H   0  0  0  0  0  0
  -21.6596  -26.7362   22.1272 H   0  0  0  0  0  0
  -19.6871  -25.6273   21.1233 H   0  0  0  0  0  0
  -19.6667  -27.3179   20.6764 H   0  0  0  0  0  0
  -17.4156  -26.6665   21.4019 H   0  0  0  0  0  0
  -18.0282  -26.0036   22.9011 H   0  0  0  0  0  0
  -19.7936  -30.7218   24.2276 H   0  0  0  0  0  0
  -17.5027  -31.6264   24.5157 H   0  0  0  0  0  0
  -15.5352  -30.3003   23.7622 H   0  0  0  0  0  0
  -15.8636  -28.0814   22.7070 H   0  0  0  0  0  0
  -24.5927  -30.7015   25.7783 H   0  0  0  0  0  0
  -24.8967  -32.2806   26.4934 H   0  0  0  0  0  0
  -25.8126  -30.8800   27.0175 H   0  0  0  0  0  0
  -26.2927  -29.6748   24.1135 H   0  0  0  0  0  0
  -27.4190  -29.7290   25.4509 H   0  0  0  0  0  0
  -27.8717  -30.4390   23.9195 H   0  0  0  0  0  0
  -27.2595  -33.3630   26.2050 H   0  0  0  0  0  0
  -28.3853  -32.6880   25.0345 H   0  0  0  0  0  0
  -28.0664  -31.8466   26.5431 H   0  0  0  0  0  0
  -28.2563  -38.0115   24.7508 H   0  0  0  0  0  0
  -28.1066  -36.2634   24.6287 H   0  0  0  0  0  0
  -27.2268  -37.1465   25.8858 H   0  0  0  0  0  0
  -20.9256  -29.8767   21.6985 H   0  0  0  0  0  0
  -26.0152  -38.2857   24.1426 H   0  0  0  0  0  0
  -31.7529  -19.2274   21.7916 H   0  0  0  0  0  0
  -30.8067  -21.3687   21.0512 H   0  0  0  0  0  0
  -28.3265  -17.1368   20.2440 H   0  0  0  0  0  0
  -26.5713  -18.2521   19.1958 H   0  0  0  0  0  0
  -27.0902  -19.6342   18.2468 H   0  0  0  0  0  0
  -26.2230  -19.8763   19.7698 H   0  0  0  0  0  0
  -30.6721  -16.7905   22.7485 H   0  0  0  0  0  0
  -31.7881  -16.7324   21.4256 H   0  0  0  0  0  0
  -27.0104  -24.0303   20.3250 H   0  0  0  0  0  0
  -28.0786  -24.6682   21.5410 H   0  0  0  0  0  0
  -29.6219  -25.2497   19.3966 H   0  0  0  0  0  0
  -28.1015  -25.2980   18.5764 H   0  0  0  0  0  0
  -27.2709  -21.8207   20.1427 H   0  0  0  0  0  0
  -29.2086  -15.2245   21.6783 H   0  0  0  0  0  0
  -29.1409  -22.8242   21.4848 H   0  0  0  0  0  0
  1 25  1  0  0  0
  1 30  2  0  0  0
  1 82  1  0  0  0
  2  3  1  0  0  0
  2 25  1  0  0  0
  2 85  1  0  0  0
  2 86  1  0  0  0
  3  4  1  0  0  0
  3 87  1  0  0  0
  3 88  1  0  0  0
  4  5  1  0  0  0
  4 89  1  0  0  0
  4 90  1  0  0  0
  5  6  1  0  0  0
  5 26  1  0  0  0
  5 91  1  0  0  0
  6 25  1  0  0  0
  6 92  1  0  0  0
  6 93  1  0  0  0
  7  8  2  0  0  0
  7 26  1  0  0  0
  7 29  1  0  0  0
  8  9  1  0  0  0
  8 22  1  0  0  0
  9 10  1  0  0  0
  9 27  2  0  0  0
 10 11  2  0  0  0
 10 15  1  0  0  0
 11 12  1  0  0  0
 11 94  1  0  0  0
 12 13  2  0  0  0
 12 95  1  0  0  0
 13 14  1  0  0  0
 13 31  1  0  0  0
 14 15  2  0  0  0
 14 96  1  0  0  0
 15 97  1  0  0  0
 16 17  2  0  0  0
 16 21  1  0  0  0
 16 31  1  0  0  0
 17 18  1  0  0  0
 17 98  1  0  0  0
 18 19  2  0  0  0
 18 99  1  0  0  0
 19 20  1  0  0  0
 19 24  1  0  0  0
 20 21  2  0  0  0
 20100  1  0  0  0
 21 23  1  0  0  0
 22 28  1  0  0  0
 22 32  2  0  0  0
 26 27  1  0  0  0
 28101  1  0  0  0
 28102  1  0  0  0
 29103  1  0  0  0
 29104  1  0  0  0
 33 34  1  0  0  0
 33 66  1  0  0  0
 33 70  2  0  0  0
 34 36  1  0  0  0
 34 59  1  0  0  0
 34105  1  0  0  0
 35 44  2  0  0  0
 35 45  1  0  0  0
 35 68  1  0  0  0
 36 56  1  0  0  0
 36106  1  0  0  0
 37 39  1  0  0  0
 37 47  1  0  0  0
 37 66  1  0  0  0
 37107  1  0  0  0
 38 43  2  0  0  0
 38 46  1  0  0  0
 38 47  1  0  0  0
 39 64  1  0  0  0
 39 67  2  0  0  0
 40 52  1  0  0  0
 40 53  2  0  0  0
 40 58  1  0  0  0
 41108  1  0  0  0
 41109  1  0  0  0
 41110  1  0  0  0
 41 48  1  0  0  0
 42 43  1  0  0  0
 42 66  1  0  0  0
 42111  1  0  0  0
 42112  1  0  0  0
 43 44  1  0  0  0
 44113  1  0  0  0
 45 46  2  0  0  0
 45114  1  0  0  0
 46115  1  0  0  0
 47116  1  0  0  0
 47117  1  0  0  0
 48 56  1  0  0  0
 48 65  1  0  0  0
 48118  1  0  0  0
 49 50  1  0  0  0
 49 53  1  0  0  0
 49 64  1  0  0  0
 49119  1  0  0  0
 50 51  1  0  0  0
 50120  1  0  0  0
 50121  1  0  0  0
 51 52  1  0  0  0
 51122  1  0  0  0
 51123  1  0  0  0
 52124  1  0  0  0
 52125  1  0  0  0
 53 54  1  0  0  0
 54 55  2  0  0  0
 54126  1  0  0  0
 55 57  1  0  0  0
 55127  1  0  0  0
 56 69  2  0  0  0
 57 58  2  0  0  0
 57128  1  0  0  0
 58129  1  0  0  0
 59 60  1  0  0  0
 59 61  1  0  0  0
 59 62  1  0  0  0
 60130  1  0  0  0
 60131  1  0  0  0
 60132  1  0  0  0
 61133  1  0  0  0
 61134  1  0  0  0
 61135  1  0  0  0
 62136  1  0  0  0
 62137  1  0  0  0
 62138  1  0  0  0
 63 65  1  0  0  0
 63139  1  0  0  0
 63140  1  0  0  0
 63141  1  0  0  0
 64142  1  0  0  0
 65143  1  0  0  0
 68 80  1  0  0  0
 71 72  2  0  0  0
 71 74  1  0  0  0
 71144  1  0  0  0
 72 75  1  0  0  0
 72145  1  0  0  0
 73 74  2  0  0  0
 73 76  1  0  0  0
 73146  1  0  0  0
 74 78  1  0  0  0
 75 76  2  0  0  0
 75 81  1  0  0  0
 76 77  1  0  0  0
 77147  1  0  0  0
 77148  1  0  0  0
 77149  1  0  0  0
 78 82  1  0  0  0
 78150  1  0  0  0
 78151  1  0  0  0
 79 80  1  0  0  0
 79 83  1  0  0  0
 79152  1  0  0  0
 79153  1  0  0  0
 80154  1  0  0  0
 80155  1  0  0  0
 81 83  1  0  0  0
 81 84  1  0  0  0
 81156  1  0  0  0
 82157  1  0  0  0
 83158  1  0  0  0
M  ISO  4   1 100  68 101  80 101  82 100
M  END
> <chiral flag>
0

> <version>
0

> <s_m_source_file>
/data/baiqing/PycharmProjects/Reinvent-master-3.2/result/LINK_invent/BTK/process_docking_weight1_custom_product_contain_oxygen_bond_distance_aromatic_linkinvent_7_9_3/rearranged_h_0044.sdf

> <i_m_source_file_index>
15

> <r_mmod_Potential_Energy-OPLS-2005>
-76.6982727050781

> <r_mmod_Stretch_Energy-OPLS-2005>
42.642951965332

> <r_mmod_Bend_Energy-OPLS-2005>
113.068801879883

> <r_mmod_Torsional_Energy-OPLS-2005>
210.442993164062

> <r_mmod_Improper_Torsional_Energy-OPLS-2005>
2.28914022445679

> <r_mmod_Van_der_Waal_Energy-OPLS-2005>
150.856597900391

> <r_mmod_Electrostatic_Energy-OPLS-2005>
-392.694763183594

> <r_mmod_Solvation_Energy-OPLS-2005>
-215.730529785156

> <b_mmod_Minimization_Converged-OPLS-2005>
0

> <r_mmod_RMS_Derivative-OPLS-2005>
3.22040820121765

$$$$
15
                    3D
 Structure written by MMmdl.
168177  0  0  1  0            999 V2000
  -30.6318  -14.6006   20.5013 C   0  0  0  0  0  0
  -30.4253  -12.3672   19.4417 C   0  0  0  0  0  0
  -29.5028  -12.5096   18.2109 C   0  0  0  0  0  0
  -28.0208  -12.3640   18.6097 C   0  0  0  0  0  0
  -27.6485  -13.2165   19.8504 C   0  0  2  0  0  0
  -28.6903  -13.0585   20.9807 C   0  0  0  0  0  0
  -25.2539  -13.8166   20.5654 C   0  0  0  0  0  0
  -24.1811  -13.0435   20.9178 C   0  0  0  0  0  0
  -24.6374  -11.6901   20.8715 C   0  0  0  0  0  0
  -23.9047  -10.4279   21.0387 C   0  0  0  0  0  0
  -24.3594   -9.4195   21.9161 C   0  0  0  0  0  0
  -23.6271   -8.2235   22.0742 C   0  0  0  0  0  0
  -22.4255   -8.0272   21.3540 C   0  0  0  0  0  0
  -21.9876   -9.0246   20.4661 C   0  0  0  0  0  0
  -22.7203  -10.2127   20.3053 C   0  0  0  0  0  0
  -21.6841   -6.0726   22.5275 C   0  0  0  0  0  0
  -21.4019   -6.5633   23.8213 C   0  0  0  0  0  0
  -21.3658   -5.6785   24.9174 C   0  0  0  0  0  0
  -21.6034   -4.3045   24.7223 C   0  0  0  0  0  0
  -21.8818   -3.8149   23.4347 C   0  0  0  0  0  0
  -21.9186   -4.6960   22.3404 C   0  0  0  0  0  0
  -22.7827  -13.5247   21.1839 C   0  0  0  0  0  0
  -22.1662   -4.2144   21.0976 F   0  0  0  0  0  0
  -21.5617   -3.4529   25.7741 F   0  0  0  0  0  0
  -30.0125  -13.3852   20.4231 N   0  0  0  0  0  0
  -26.2948  -12.9342   20.3218 N   0  0  0  0  0  0
  -25.9294  -11.6496   20.5690 N   0  0  0  0  0  0
  -22.0469  -12.8271   22.0419 N   0  0  0  0  0  0
  -25.4273  -15.1886   20.4040 N   0  0  0  0  0  0
  -31.7961  -14.7554   20.1214 O   0  0  0  0  0  0
  -21.6628   -6.8863   21.4237 O   0  0  0  0  0  0
  -22.3528  -14.5548   20.6696 O   0  0  0  0  0  0
  -24.6192  -31.8616   23.2026 C   0  0  0  0  0  0
  -25.9053  -32.4798   23.8338 C   0  0  1  0  0  0
  -27.2538  -27.3898   20.0883 C   0  0  0  0  0  0
  -25.5890  -33.8592   24.2281 N   0  0  0  0  0  0
  -23.4104  -30.4796   21.5456 C   0  0  2  0  0  0
  -24.8583  -28.9323   20.1138 C   0  0  0  0  0  0
  -22.7434  -29.4603   22.4978 C   0  0  0  0  0  0
  -18.0271  -28.1366   22.8473 C   0  0  0  0  0  0
  -24.1487  -36.7327   23.2622 C   0  0  0  0  0  0
  -25.9390  -30.8145   21.3555 C   0  0  0  0  0  0
  -26.0198  -29.4419   20.7055 C   0  0  0  0  0  0
  -27.2134  -28.6798   20.6832 C   0  0  0  0  0  0
  -26.0642  -26.8964   19.5023 C   0  0  0  0  0  0
  -24.8777  -27.6606   19.5119 C   0  0  0  0  0  0
  -23.6203  -29.8038   20.1630 C   0  0  0  0  0  0
  -25.4098  -36.3095   24.0327 C   0  0  1  0  0  0
  -20.5857  -28.3643   23.1309 C   0  0  2  0  0  0
  -20.6750  -26.9373   22.5412 C   0  0  0  0  0  0
  -19.5738  -26.6366   21.5193 C   0  0  0  0  0  0
  -18.1918  -26.7918   22.1604 C   0  0  0  0  0  0
  -19.1525  -28.8824   23.2890 C   0  0  0  0  0  0
  -18.9453  -30.1431   23.8899 C   0  0  0  0  0  0
  -17.6456  -30.6571   24.0553 C   0  0  0  0  0  0
  -25.9024  -34.9467   23.5107 C   0  0  0  0  0  0
  -16.5345  -29.9069   23.6322 C   0  0  0  0  0  0
  -16.7259  -28.6490   23.0334 C   0  0  0  0  0  0
  -26.4469  -31.6593   25.0683 C   0  0  0  0  0  0
  -25.3737  -31.3780   26.1456 C   0  0  0  0  0  0
  -27.0256  -30.3012   24.6069 C   0  0  0  0  0  0
  -27.6051  -32.4310   25.7443 C   0  0  0  0  0  0
  -27.5599  -37.1780   24.8443 C   0  0  0  0  0  0
  -21.4150  -29.3018   22.3730 N   0  0  0  0  0  0
  -26.4283  -37.3785   23.9432 N   0  0  0  0  0  0
  -24.6764  -31.0667   22.0943 N   0  0  0  0  0  0
  -23.4189  -28.8132   23.3025 O   0  0  0  0  0  0
  -28.4535  -26.6867   20.1057 O   0  0  0  0  0  0
  -26.5592  -34.8933   22.4669 O   0  0  0  0  0  0
  -23.5373  -32.1382   23.7390 O   0  0  0  0  0  0
  -28.9852  -19.2341   19.9112 C   0  0  0  0  0  0
  -28.8688  -17.8443   20.1792 C   0  0  0  0  0  0
  -30.2111  -19.9307   20.0680 C   0  0  0  0  0  0
  -31.2987  -19.1695   20.6136 C   0  0  0  0  0  0
  -29.9716  -17.0703   20.6194 C   0  0  0  0  0  0
  -31.1689  -17.7770   20.8915 C   0  0  0  0  0  0
  -30.6857  -23.8288   20.1624 C   0  0  0  0  0  0
  -33.2538  -22.8865   22.6559 C   0  0  0  0  0  0
  -31.7013  -23.8718   21.0487 C   0  0  0  0  0  0
  -32.1398  -22.7990   21.9103 C   0  0  0  0  0  0
  -30.1245  -25.0641   19.4476 C   0  0  0  0  0  0
  -28.0461  -24.2663   20.7019 C   0  0  0  0  0  0
  -28.4339  -22.7631   20.4085 C   0  0  0  0  0  0
  -28.5954  -25.3039   19.6718 C   0  0  1  0  0  0
  -32.6688  -19.7627   20.9063 C   0  0  0  0  0  0
  -30.3918  -21.3323   19.3782 C   0  0  0  0  0  0
  -29.8092  -15.6415   20.8191 N   0  0  0  0  0  0
  -29.8051  -22.6505   19.8455 N   0  3  2  0  0  0
  -32.2220  -17.1209   21.4343 F   0  0  0  0  0  0
  -31.4717  -12.4724   19.1493 H   0  0  0  0  0  0
  -30.3331  -11.3717   19.8775 H   0  0  0  0  0  0
  -29.7583  -11.7639   17.4573 H   0  0  0  0  0  0
  -29.6570  -13.4823   17.7402 H   0  0  0  0  0  0
  -27.8276  -11.3085   18.8060 H   0  0  0  0  0  0
  -27.3855  -12.6392   17.7675 H   0  0  0  0  0  0
  -27.6677  -14.2530   19.5119 H   0  0  0  0  0  0
  -28.6889  -12.0367   21.3616 H   0  0  0  0  0  0
  -28.4384  -13.6975   21.8292 H   0  0  0  0  0  0
  -25.2720   -9.5680   22.4747 H   0  0  0  0  0  0
  -23.9973   -7.4624   22.7462 H   0  0  0  0  0  0
  -21.0790   -8.8763   19.8993 H   0  0  0  0  0  0
  -22.3621  -10.9664   19.6197 H   0  0  0  0  0  0
  -21.2030   -7.6142   23.9718 H   0  0  0  0  0  0
  -21.1485   -6.0517   25.9071 H   0  0  0  0  0  0
  -22.0607   -2.7613   23.2858 H   0  0  0  0  0  0
  -22.4039  -11.9921   22.4817 H   0  0  0  0  0  0
  -21.1138  -13.1395   22.2684 H   0  0  0  0  0  0
  -24.6547  -15.8401   20.4869 H   0  0  0  0  0  0
  -26.2558  -15.6105   20.0069 H   0  0  0  0  0  0
  -26.7117  -32.5501   23.1094 H   0  0  0  0  0  0
  -25.0051  -33.9744   25.0437 H   0  0  0  0  0  0
  -22.7007  -31.2969   21.4009 H   0  0  0  0  0  0
  -23.3746  -35.9661   23.3244 H   0  0  0  0  0  0
  -24.3597  -36.8980   22.2047 H   0  0  0  0  0  0
  -23.7247  -37.6520   23.6664 H   0  0  0  0  0  0
  -26.0400  -31.5733   20.5787 H   0  0  0  0  0  0
  -26.8315  -30.8817   21.9666 H   0  0  0  0  0  0
  -28.1157  -29.0751   21.1299 H   0  0  0  0  0  0
  -26.0350  -25.9205   19.0403 H   0  0  0  0  0  0
  -23.9790  -27.2627   19.0592 H   0  0  0  0  0  0
  -23.7276  -30.5740   19.3983 H   0  0  0  0  0  0
  -22.7435  -29.2228   19.8722 H   0  0  0  0  0  0
  -25.1267  -36.1937   25.0815 H   0  0  0  0  0  0
  -20.9945  -28.3200   24.1432 H   0  0  0  0  0  0
  -20.5598  -26.2252   23.3602 H   0  0  0  0  0  0
  -21.6628  -26.7377   22.1246 H   0  0  0  0  0  0
  -19.6897  -25.6277   21.1226 H   0  0  0  0  0  0
  -19.6694  -27.3171   20.6723 H   0  0  0  0  0  0
  -17.4185  -26.6648   21.4010 H   0  0  0  0  0  0
  -18.0325  -26.0057   22.9000 H   0  0  0  0  0  0
  -19.7927  -30.7240   24.2271 H   0  0  0  0  0  0
  -17.5010  -31.6254   24.5145 H   0  0  0  0  0  0
  -15.5344  -30.2970   23.7644 H   0  0  0  0  0  0
  -15.8663  -28.0814   22.7041 H   0  0  0  0  0  0
  -24.5857  -30.7163   25.7848 H   0  0  0  0  0  0
  -24.8999  -32.2978   26.4893 H   0  0  0  0  0  0
  -25.8084  -30.8967   27.0222 H   0  0  0  0  0  0
  -26.2774  -29.6809   24.1115 H   0  0  0  0  0  0
  -27.3992  -29.7225   25.4528 H   0  0  0  0  0  0
  -27.8634  -30.4305   23.9212 H   0  0  0  0  0  0
  -27.2652  -33.3571   26.2096 H   0  0  0  0  0  0
  -28.3817  -32.6936   25.0247 H   0  0  0  0  0  0
  -28.0768  -31.8393   26.5301 H   0  0  0  0  0  0
  -28.2566  -38.0122   24.7549 H   0  0  0  0  0  0
  -28.1137  -36.2666   24.6162 H   0  0  0  0  0  0
  -27.2343  -37.1305   25.8844 H   0  0  0  0  0  0
  -20.9308  -29.8779   21.6987 H   0  0  0  0  0  0
  -26.0170  -38.2847   24.1485 H   0  0  0  0  0  0
  -28.1245  -19.7458   19.5008 H   0  0  0  0  0  0
  -27.9167  -17.3652   19.9916 H   0  0  0  0  0  0
  -33.5711  -22.0652   23.2844 H   0  0  0  0  0  0
  -33.8739  -23.7733   22.6530 H   0  0  0  0  0  0
  -32.1911  -24.8271   21.1752 H   0  0  0  0  0  0
  -31.5497  -21.8974   21.9707 H   0  0  0  0  0  0
  -30.3468  -24.9915   18.3817 H   0  0  0  0  0  0
  -30.6871  -25.9338   19.7943 H   0  0  0  0  0  0
  -28.4495  -24.5416   21.6778 H   0  0  0  0  0  0
  -26.9662  -24.3706   20.7985 H   0  0  0  0  0  0
  -27.7425  -22.3328   19.6824 H   0  0  0  0  0  0
  -28.3508  -22.1633   21.3154 H   0  0  0  0  0  0
  -28.0990  -25.1599   18.7101 H   0  0  0  0  0  0
  -32.8448  -20.7428   20.4802 H   0  0  0  0  0  0
  -33.4614  -19.1218   20.5241 H   0  0  0  0  0  0
  -32.7968  -19.8298   21.9875 H   0  0  0  0  0  0
  -29.9413  -21.1977   18.3937 H   0  0  0  0  0  0
  -31.4344  -21.5023   19.1202 H   0  0  0  0  0  0
  -28.8624  -15.3456   20.9985 H   0  0  0  0  0  0
  -29.5381  -22.9011   18.9061 H   0  0  0  0  0  0
  1 25  1  0  0  0
  1 30  2  0  0  0
  1 87  1  0  0  0
  2  3  1  0  0  0
  2 25  1  0  0  0
  2 90  1  0  0  0
  2 91  1  0  0  0
  3  4  1  0  0  0
  3 92  1  0  0  0
  3 93  1  0  0  0
  4  5  1  0  0  0
  4 94  1  0  0  0
  4 95  1  0  0  0
  5  6  1  0  0  0
  5 26  1  0  0  0
  5 96  1  0  0  0
  6 25  1  0  0  0
  6 97  1  0  0  0
  6 98  1  0  0  0
  7  8  2  0  0  0
  7 26  1  0  0  0
  7 29  1  0  0  0
  8  9  1  0  0  0
  8 22  1  0  0  0
  9 10  1  0  0  0
  9 27  2  0  0  0
 10 11  2  0  0  0
 10 15  1  0  0  0
 11 12  1  0  0  0
 11 99  1  0  0  0
 12 13  2  0  0  0
 12100  1  0  0  0
 13 14  1  0  0  0
 13 31  1  0  0  0
 14 15  2  0  0  0
 14101  1  0  0  0
 15102  1  0  0  0
 16 17  2  0  0  0
 16 21  1  0  0  0
 16 31  1  0  0  0
 17 18  1  0  0  0
 17103  1  0  0  0
 18 19  2  0  0  0
 18104  1  0  0  0
 19 20  1  0  0  0
 19 24  1  0  0  0
 20 21  2  0  0  0
 20105  1  0  0  0
 21 23  1  0  0  0
 22 28  1  0  0  0
 22 32  2  0  0  0
 26 27  1  0  0  0
 28106  1  0  0  0
 28107  1  0  0  0
 29108  1  0  0  0
 29109  1  0  0  0
 33 34  1  0  0  0
 33 66  1  0  0  0
 33 70  2  0  0  0
 34 36  1  0  0  0
 34 59  1  0  0  0
 34110  1  0  0  0
 35 44  2  0  0  0
 35 45  1  0  0  0
 35 68  1  0  0  0
 36 56  1  0  0  0
 36111  1  0  0  0
 37 39  1  0  0  0
 37 47  1  0  0  0
 37 66  1  0  0  0
 37112  1  0  0  0
 38 43  2  0  0  0
 38 46  1  0  0  0
 38 47  1  0  0  0
 39 64  1  0  0  0
 39 67  2  0  0  0
 40 52  1  0  0  0
 40 53  2  0  0  0
 40 58  1  0  0  0
 41113  1  0  0  0
 41114  1  0  0  0
 41115  1  0  0  0
 41 48  1  0  0  0
 42 43  1  0  0  0
 42 66  1  0  0  0
 42116  1  0  0  0
 42117  1  0  0  0
 43 44  1  0  0  0
 44118  1  0  0  0
 45 46  2  0  0  0
 45119  1  0  0  0
 46120  1  0  0  0
 47121  1  0  0  0
 47122  1  0  0  0
 48 56  1  0  0  0
 48 65  1  0  0  0
 48123  1  0  0  0
 49 50  1  0  0  0
 49 53  1  0  0  0
 49 64  1  0  0  0
 49124  1  0  0  0
 50 51  1  0  0  0
 50125  1  0  0  0
 50126  1  0  0  0
 51 52  1  0  0  0
 51127  1  0  0  0
 51128  1  0  0  0
 52129  1  0  0  0
 52130  1  0  0  0
 53 54  1  0  0  0
 54 55  2  0  0  0
 54131  1  0  0  0
 55 57  1  0  0  0
 55132  1  0  0  0
 56 69  2  0  0  0
 57 58  2  0  0  0
 57133  1  0  0  0
 58134  1  0  0  0
 59 60  1  0  0  0
 59 61  1  0  0  0
 59 62  1  0  0  0
 60135  1  0  0  0
 60136  1  0  0  0
 60137  1  0  0  0
 61138  1  0  0  0
 61139  1  0  0  0
 61140  1  0  0  0
 62141  1  0  0  0
 62142  1  0  0  0
 62143  1  0  0  0
 63 65  1  0  0  0
 63144  1  0  0  0
 63145  1  0  0  0
 63146  1  0  0  0
 64147  1  0  0  0
 65148  1  0  0  0
 68 84  1  0  0  0
 71 72  2  0  0  0
 71 73  1  0  0  0
 71149  1  0  0  0
 72 75  1  0  0  0
 72150  1  0  0  0
 73 74  2  0  0  0
 73 86  1  0  0  0
 74 76  1  0  0  0
 74 85  1  0  0  0
 75 76  2  0  0  0
 75 87  1  0  0  0
 76 89  1  0  0  0
 77 79  2  0  0  0
 77 81  1  0  0  0
 77 88  1  0  0  0
 78 80  2  0  0  0
 78151  1  0  0  0
 78152  1  0  0  0
 79 80  1  0  0  0
 79153  1  0  0  0
 80154  1  0  0  0
 81 84  1  0  0  0
 81155  1  0  0  0
 81156  1  0  0  0
 82 83  1  0  0  0
 82 84  1  0  0  0
 82157  1  0  0  0
 82158  1  0  0  0
 83 88  1  0  0  0
 83159  1  0  0  0
 83160  1  0  0  0
 84161  1  0  0  0
 85162  1  0  0  0
 85163  1  0  0  0
 85164  1  0  0  0
 86165  1  0  0  0
 86166  1  0  0  0
 86 88  1  0  0  0
 87167  1  0  0  0
 88168  1  0  0  0
M  CHG  1  88   1
M  ISO  4   1 100  68 101  84 101  87 100
M  END
> <chiral flag>
0

> <version>
0

> <s_m_source_file>
/data/baiqing/PycharmProjects/Reinvent-master-3.2/result/LINK_invent/BTK/process_docking_weight1_custom_product_contain_oxygen_bond_distance_aromatic_linkinvent_7_9_3/rearranged_h_0044.sdf

> <i_m_source_file_index>
16

> <r_mmod_Potential_Energy-OPLS-2005>
-25.9005908966064

> <r_mmod_Stretch_Energy-OPLS-2005>
63.8724937438965

> <r_mmod_Bend_Energy-OPLS-2005>
203.285171508789

> <r_mmod_Torsional_Energy-OPLS-2005>
255.352981567383

> <r_mmod_Improper_Torsional_Energy-OPLS-2005>
8.25584602355957

> <r_mmod_Van_der_Waal_Energy-OPLS-2005>
151.694107055664

> <r_mmod_Electrostatic_Energy-OPLS-2005>
-277.111602783203

> <r_mmod_Solvation_Energy-OPLS-2005>
-460.839752197266

> <b_mmod_Minimization_Converged-OPLS-2005>
0

> <r_mmod_RMS_Derivative-OPLS-2005>
3.47741413116455

$$$$
16
                    3D
 Structure written by MMmdl.
164173  0  0  1  0            999 V2000
  -30.6652  -14.5375   20.5207 C   0  0  0  0  0  0
  -30.4292  -12.3192   19.4496 C   0  0  0  0  0  0
  -29.5243  -12.5032   18.2126 C   0  0  0  0  0  0
  -28.0329  -12.3873   18.6025 C   0  0  0  0  0  0
  -27.6657  -13.2259   19.8565 C   0  0  2  0  0  0
  -28.6983  -13.0186   20.9894 C   0  0  0  0  0  0
  -25.2620  -13.8220   20.5667 C   0  0  0  0  0  0
  -24.1877  -13.0467   20.9159 C   0  0  0  0  0  0
  -24.6448  -11.6930   20.8672 C   0  0  0  0  0  0
  -23.9092  -10.4308   21.0361 C   0  0  0  0  0  0
  -24.3615   -9.4207   21.9139 C   0  0  0  0  0  0
  -23.6304   -8.2247   22.0739 C   0  0  0  0  0  0
  -22.4271   -8.0285   21.3527 C   0  0  0  0  0  0
  -21.9893   -9.0270   20.4637 C   0  0  0  0  0  0
  -22.7250  -10.2144   20.3011 C   0  0  0  0  0  0
  -21.6862   -6.0731   22.5273 C   0  0  0  0  0  0
  -21.4020   -6.5620   23.8205 C   0  0  0  0  0  0
  -21.3665   -5.6758   24.9159 C   0  0  0  0  0  0
  -21.6019   -4.3026   24.7217 C   0  0  0  0  0  0
  -21.8818   -3.8123   23.4332 C   0  0  0  0  0  0
  -21.9199   -4.6961   22.3408 C   0  0  0  0  0  0
  -22.7861  -13.5253   21.1790 C   0  0  0  0  0  0
  -22.1664   -4.2143   21.0985 F   0  0  0  0  0  0
  -21.5642   -3.4513   25.7743 F   0  0  0  0  0  0
  -30.0274  -13.3318   20.4480 N   0  0  0  0  0  0
  -26.3058  -12.9416   20.3204 N   0  0  0  0  0  0
  -25.9362  -11.6552   20.5605 N   0  0  0  0  0  0
  -22.0448  -12.8306   22.0342 N   0  0  0  0  0  0
  -25.4397  -15.1938   20.4155 N   0  0  0  0  0  0
  -31.8125  -14.6912   20.0934 O   0  0  0  0  0  0
  -21.6617   -6.8889   21.4236 O   0  0  0  0  0  0
  -22.3558  -14.5510   20.6579 O   0  0  0  0  0  0
  -24.6175  -31.8602   23.2100 C   0  0  0  0  0  0
  -25.9067  -32.4781   23.8350 C   0  0  1  0  0  0
  -27.2200  -27.3945   20.1211 C   0  0  0  0  0  0
  -25.5886  -33.8570   24.2248 N   0  0  0  0  0  0
  -23.4064  -30.4830   21.5496 C   0  0  2  0  0  0
  -24.8563  -28.9474   20.1180 C   0  0  0  0  0  0
  -22.7439  -29.4573   22.4976 C   0  0  0  0  0  0
  -18.0262  -28.1357   22.8506 C   0  0  0  0  0  0
  -24.1479  -36.7317   23.2633 C   0  0  0  0  0  0
  -25.9374  -30.8173   21.3726 C   0  0  0  0  0  0
  -26.0152  -29.4474   20.7237 C   0  0  0  0  0  0
  -27.2056  -28.6763   20.7223 C   0  0  0  0  0  0
  -26.0468  -26.9175   19.5082 C   0  0  0  0  0  0
  -24.8692  -27.6838   19.5037 C   0  0  0  0  0  0
  -23.6168  -29.8122   20.1656 C   0  0  0  0  0  0
  -25.4098  -36.3074   24.0303 C   0  0  1  0  0  0
  -20.5870  -28.3604   23.1352 C   0  0  2  0  0  0
  -20.6738  -26.9329   22.5445 C   0  0  0  0  0  0
  -19.5718  -26.6363   21.5227 C   0  0  0  0  0  0
  -18.1899  -26.7912   22.1642 C   0  0  0  0  0  0
  -19.1524  -28.8806   23.2929 C   0  0  0  0  0  0
  -18.9429  -30.1429   23.8910 C   0  0  0  0  0  0
  -17.6426  -30.6568   24.0550 C   0  0  0  0  0  0
  -25.9034  -34.9446   23.5066 C   0  0  0  0  0  0
  -16.5323  -29.9060   23.6342 C   0  0  0  0  0  0
  -16.7258  -28.6480   23.0358 C   0  0  0  0  0  0
  -26.4508  -31.6617   25.0725 C   0  0  0  0  0  0
  -25.3764  -31.3816   26.1491 C   0  0  0  0  0  0
  -27.0303  -30.3002   24.6213 C   0  0  0  0  0  0
  -27.6038  -32.4388   25.7495 C   0  0  0  0  0  0
  -27.5562  -37.1798   24.8434 C   0  0  0  0  0  0
  -21.4165  -29.2957   22.3754 N   0  0  0  0  0  0
  -26.4272  -37.3771   23.9396 N   0  0  0  0  0  0
  -24.6697  -31.0718   22.1004 N   0  0  0  0  0  0
  -23.4220  -28.8088   23.2990 O   0  0  0  0  0  0
  -28.3578  -26.6166   20.0547 O   0  0  0  0  0  0
  -26.5629  -34.8908   22.4662 O   0  0  0  0  0  0
  -23.5379  -32.1320   23.7553 O   0  0  0  0  0  0
  -29.1615  -19.3695   20.4878 C   0  0  0  0  0  0
  -30.1029  -19.6555   23.0876 C   0  0  0  0  0  0
  -28.9893  -20.6311   21.1379 C   0  0  0  0  0  0
  -29.8146  -18.2581   21.1021 C   0  0  0  0  0  0
  -29.4089  -20.7383   22.4933 C   0  0  0  0  0  0
  -30.3304  -18.4450   22.4075 C   0  0  0  0  0  0
  -27.9907  -24.2433   20.8479 C   0  0  0  0  0  0
  -30.7355  -24.8104   20.1647 C   0  0  0  0  0  0
  -30.1013  -25.5982   21.3153 C   0  0  0  0  0  0
  -30.2474  -23.3447   20.2022 C   0  0  0  0  0  0
  -28.5860  -25.6665   21.1233 C   0  0  1  0  0  0
  -29.1037  -21.9553   23.3544 C   0  0  0  0  0  0
  -28.2889  -21.7906   20.3684 C   0  0  0  0  0  0
  -30.0730  -16.9712   20.2674 C   0  0  0  0  0  0
  -28.8052  -23.1912   20.5048 N   0  0  0  0  0  0
  -29.8986  -15.6101   20.8555 N   0  0  0  0  0  0
  -26.7745  -24.0957   21.0146 O   0  0  0  0  0  0
  -31.2784  -17.2309   23.1945 Cl  0  0  0  0  0  0
  -31.4835  -12.3935   19.1728 H   0  0  0  0  0  0
  -30.3153  -11.3128   19.8530 H   0  0  0  0  0  0
  -29.7769  -11.7590   17.4529 H   0  0  0  0  0  0
  -29.7226  -13.4709   17.7538 H   0  0  0  0  0  0
  -27.8132  -11.3359   18.7856 H   0  0  0  0  0  0
  -27.4099  -12.6785   17.7566 H   0  0  0  0  0  0
  -27.7032  -14.2738   19.5475 H   0  0  0  0  0  0
  -28.6726  -11.9837   21.3339 H   0  0  0  0  0  0
  -28.4687  -13.6361   21.8580 H   0  0  0  0  0  0
  -25.2777   -9.5703   22.4694 H   0  0  0  0  0  0
  -24.0004   -7.4644   22.7450 H   0  0  0  0  0  0
  -21.0827   -8.8795   19.8971 H   0  0  0  0  0  0
  -22.3710  -10.9657   19.6092 H   0  0  0  0  0  0
  -21.1993   -7.6120   23.9719 H   0  0  0  0  0  0
  -21.1491   -6.0475   25.9060 H   0  0  0  0  0  0
  -22.0603   -2.7597   23.2826 H   0  0  0  0  0  0
  -22.4014  -12.0059   22.4931 H   0  0  0  0  0  0
  -21.1016  -13.1344   22.2368 H   0  0  0  0  0  0
  -24.6843  -15.8621   20.5133 H   0  0  0  0  0  0
  -26.2954  -15.6153   20.0808 H   0  0  0  0  0  0
  -26.7123  -32.5472   23.1083 H   0  0  0  0  0  0
  -24.9961  -33.9683   25.0346 H   0  0  0  0  0  0
  -22.6902  -31.2971   21.4116 H   0  0  0  0  0  0
  -23.3723  -35.9670   23.3266 H   0  0  0  0  0  0
  -24.3554  -36.9007   22.2053 H   0  0  0  0  0  0
  -23.7262  -37.6508   23.6707 H   0  0  0  0  0  0
  -26.0602  -31.5824   20.6059 H   0  0  0  0  0  0
  -26.8200  -30.8635   21.9999 H   0  0  0  0  0  0
  -28.1054  -29.0607   21.1837 H   0  0  0  0  0  0
  -26.0459  -25.9438   19.0403 H   0  0  0  0  0  0
  -23.9776  -27.2994   19.0296 H   0  0  0  0  0  0
  -23.7125  -30.5774   19.3941 H   0  0  0  0  0  0
  -22.7475  -29.2166   19.8817 H   0  0  0  0  0  0
  -25.1291  -36.1875   25.0795 H   0  0  0  0  0  0
  -20.9941  -28.3127   24.1488 H   0  0  0  0  0  0
  -20.5633  -26.2156   23.3597 H   0  0  0  0  0  0
  -21.6598  -26.7353   22.1221 H   0  0  0  0  0  0
  -19.6837  -25.6282   21.1223 H   0  0  0  0  0  0
  -19.6686  -27.3202   20.6776 H   0  0  0  0  0  0
  -17.4167  -26.6696   21.4039 H   0  0  0  0  0  0
  -18.0281  -26.0040   22.9021 H   0  0  0  0  0  0
  -19.7886  -30.7267   24.2280 H   0  0  0  0  0  0
  -17.4956  -31.6250   24.5143 H   0  0  0  0  0  0
  -15.5314  -30.2940   23.7664 H   0  0  0  0  0  0
  -15.8662  -28.0802   22.7066 H   0  0  0  0  0  0
  -24.5836  -30.7299   25.7818 H   0  0  0  0  0  0
  -24.9137  -32.3059   26.4956 H   0  0  0  0  0  0
  -25.8103  -30.8903   27.0218 H   0  0  0  0  0  0
  -26.2846  -29.6787   24.1262 H   0  0  0  0  0  0
  -27.3934  -29.7245   25.4739 H   0  0  0  0  0  0
  -27.8759  -30.4176   23.9436 H   0  0  0  0  0  0
  -27.2576  -33.3651   26.2084 H   0  0  0  0  0  0
  -28.3858  -32.7055   25.0372 H   0  0  0  0  0  0
  -28.0725  -31.8557   26.5435 H   0  0  0  0  0  0
  -28.2575  -38.0100   24.7489 H   0  0  0  0  0  0
  -28.1070  -36.2636   24.6238 H   0  0  0  0  0  0
  -27.2287  -37.1417   25.8841 H   0  0  0  0  0  0
  -20.9322  -29.8625   21.6932 H   0  0  0  0  0  0
  -26.0140  -38.2834   24.1450 H   0  0  0  0  0  0
  -28.7966  -19.2603   19.4740 H   0  0  0  0  0  0
  -30.4857  -19.7519   24.0938 H   0  0  0  0  0  0
  -31.8223  -24.8536   20.2299 H   0  0  0  0  0  0
  -30.4682  -25.2753   19.2128 H   0  0  0  0  0  0
  -30.5233  -26.6011   21.3803 H   0  0  0  0  0  0
  -30.3190  -25.1035   22.2642 H   0  0  0  0  0  0
  -30.8203  -22.8222   20.9709 H   0  0  0  0  0  0
  -30.4905  -22.8417   19.2617 H   0  0  0  0  0  0
  -28.1397  -26.0470   22.0453 H   0  0  0  0  0  0
  -29.4309  -21.8037   24.3847 H   0  0  0  0  0  0
  -28.0248  -22.1238   23.3932 H   0  0  0  0  0  0
  -29.5889  -22.8643   22.9985 H   0  0  0  0  0  0
  -27.2335  -21.7238   20.6338 H   0  0  0  0  0  0
  -28.3015  -21.5602   19.3035 H   0  0  0  0  0  0
  -31.0757  -17.0750   19.8562 H   0  0  0  0  0  0
  -29.4169  -17.0050   19.3981 H   0  0  0  0  0  0
  -28.9995  -15.4027   21.2612 H   0  0  0  0  0  0
  1 25  1  0  0  0
  1 30  2  0  0  0
  1 86  1  0  0  0
  2  3  1  0  0  0
  2 25  1  0  0  0
  2 89  1  0  0  0
  2 90  1  0  0  0
  3  4  1  0  0  0
  3 91  1  0  0  0
  3 92  1  0  0  0
  4  5  1  0  0  0
  4 93  1  0  0  0
  4 94  1  0  0  0
  5  6  1  0  0  0
  5 26  1  0  0  0
  5 95  1  0  0  0
  6 25  1  0  0  0
  6 96  1  0  0  0
  6 97  1  0  0  0
  7  8  2  0  0  0
  7 26  1  0  0  0
  7 29  1  0  0  0
  8  9  1  0  0  0
  8 22  1  0  0  0
  9 10  1  0  0  0
  9 27  2  0  0  0
 10 11  2  0  0  0
 10 15  1  0  0  0
 11 12  1  0  0  0
 11 98  1  0  0  0
 12 13  2  0  0  0
 12 99  1  0  0  0
 13 14  1  0  0  0
 13 31  1  0  0  0
 14 15  2  0  0  0
 14100  1  0  0  0
 15101  1  0  0  0
 16 17  2  0  0  0
 16 21  1  0  0  0
 16 31  1  0  0  0
 17 18  1  0  0  0
 17102  1  0  0  0
 18 19  2  0  0  0
 18103  1  0  0  0
 19 20  1  0  0  0
 19 24  1  0  0  0
 20 21  2  0  0  0
 20104  1  0  0  0
 21 23  1  0  0  0
 22 28  1  0  0  0
 22 32  2  0  0  0
 26 27  1  0  0  0
 28105  1  0  0  0
 28106  1  0  0  0
 29107  1  0  0  0
 29108  1  0  0  0
 33 34  1  0  0  0
 33 66  1  0  0  0
 33 70  2  0  0  0
 34 36  1  0  0  0
 34 59  1  0  0  0
 34109  1  0  0  0
 35 44  2  0  0  0
 35 45  1  0  0  0
 35 68  1  0  0  0
 36 56  1  0  0  0
 36110  1  0  0  0
 37 39  1  0  0  0
 37 47  1  0  0  0
 37 66  1  0  0  0
 37111  1  0  0  0
 38 43  2  0  0  0
 38 46  1  0  0  0
 38 47  1  0  0  0
 39 64  1  0  0  0
 39 67  2  0  0  0
 40 52  1  0  0  0
 40 53  2  0  0  0
 40 58  1  0  0  0
 41112  1  0  0  0
 41113  1  0  0  0
 41114  1  0  0  0
 41 48  1  0  0  0
 42 43  1  0  0  0
 42 66  1  0  0  0
 42115  1  0  0  0
 42116  1  0  0  0
 43 44  1  0  0  0
 44117  1  0  0  0
 45 46  2  0  0  0
 45118  1  0  0  0
 46119  1  0  0  0
 47120  1  0  0  0
 47121  1  0  0  0
 48 56  1  0  0  0
 48 65  1  0  0  0
 48122  1  0  0  0
 49 50  1  0  0  0
 49 53  1  0  0  0
 49 64  1  0  0  0
 49123  1  0  0  0
 50 51  1  0  0  0
 50124  1  0  0  0
 50125  1  0  0  0
 51 52  1  0  0  0
 51126  1  0  0  0
 51127  1  0  0  0
 52128  1  0  0  0
 52129  1  0  0  0
 53 54  1  0  0  0
 54 55  2  0  0  0
 54130  1  0  0  0
 55 57  1  0  0  0
 55131  1  0  0  0
 56 69  2  0  0  0
 57 58  2  0  0  0
 57132  1  0  0  0
 58133  1  0  0  0
 59 60  1  0  0  0
 59 61  1  0  0  0
 59 62  1  0  0  0
 60134  1  0  0  0
 60135  1  0  0  0
 60136  1  0  0  0
 61137  1  0  0  0
 61138  1  0  0  0
 61139  1  0  0  0
 62140  1  0  0  0
 62141  1  0  0  0
 62142  1  0  0  0
 63 65  1  0  0  0
 63143  1  0  0  0
 63144  1  0  0  0
 63145  1  0  0  0
 64146  1  0  0  0
 65147  1  0  0  0
 68 81  1  0  0  0
 71 73  2  0  0  0
 71 74  1  0  0  0
 71148  1  0  0  0
 72 75  2  0  0  0
 72 76  1  0  0  0
 72149  1  0  0  0
 73 75  1  0  0  0
 73 83  1  0  0  0
 74 76  2  0  0  0
 74 84  1  0  0  0
 75 82  1  0  0  0
 76 88  1  0  0  0
 77 81  1  0  0  0
 77 85  1  0  0  0
 77 87  2  0  0  0
 78 79  1  0  0  0
 78 80  1  0  0  0
 78150  1  0  0  0
 78151  1  0  0  0
 79 81  1  0  0  0
 79152  1  0  0  0
 79153  1  0  0  0
 80 85  1  0  0  0
 80154  1  0  0  0
 80155  1  0  0  0
 81156  1  0  0  0
 82157  1  0  0  0
 82158  1  0  0  0
 82159  1  0  0  0
 83 85  1  0  0  0
 83160  1  0  0  0
 83161  1  0  0  0
 84 86  1  0  0  0
 84162  1  0  0  0
 84163  1  0  0  0
 86164  1  0  0  0
M  ISO  4   1 100  68 101  81 101  86 100
M  END
> <chiral flag>
0

> <version>
0

> <s_m_source_file>
/data/baiqing/PycharmProjects/Reinvent-master-3.2/result/LINK_invent/BTK/process_docking_weight1_custom_product_contain_oxygen_bond_distance_aromatic_linkinvent_7_9_3/rearranged_h_0044.sdf

> <i_m_source_file_index>
17

> <r_mmod_Potential_Energy-OPLS-2005>
42.8262901306152

> <r_mmod_Stretch_Energy-OPLS-2005>
60.4662399291992

> <r_mmod_Bend_Energy-OPLS-2005>
121.229827880859

> <r_mmod_Torsional_Energy-OPLS-2005>
264.295989990234

> <r_mmod_Improper_Torsional_Energy-OPLS-2005>
8.07936000823975

> <r_mmod_Van_der_Waal_Energy-OPLS-2005>
150.355499267578

> <r_mmod_Electrostatic_Energy-OPLS-2005>
-358.4716796875

> <r_mmod_Solvation_Energy-OPLS-2005>
-224.15283203125

> <b_mmod_Minimization_Converged-OPLS-2005>
0

> <r_mmod_RMS_Derivative-OPLS-2005>
7.44669151306152

$$$$
17
                    3D
 Structure written by MMmdl.
160168  0  0  1  0            999 V2000
  -27.3125  -17.9579   21.2818 C   0  0  0  0  0  0
  -29.1909  -15.2859   19.9805 C   0  0  0  0  0  0
  -29.2484  -13.9186   18.9282 C   0  0  0  0  0  0
  -28.2934  -12.7811   19.2580 C   0  0  0  0  0  0
  -27.3113  -13.6127   20.0576 C   0  0  2  0  0  0
  -27.7476  -14.6349   21.2471 C   0  0  0  0  0  0
  -25.0066  -13.8415   20.5625 C   0  0  0  0  0  0
  -24.0269  -13.0061   20.9306 C   0  0  0  0  0  0
  -24.5759  -11.6847   20.8849 C   0  0  0  0  0  0
  -23.8893  -10.4079   21.0399 C   0  0  0  0  0  0
  -24.3551   -9.4079   21.9187 C   0  0  0  0  0  0
  -23.6258   -8.2108   22.0752 C   0  0  0  0  0  0
  -22.4243   -8.0136   21.3534 C   0  0  0  0  0  0
  -21.9837   -9.0039   20.4601 C   0  0  0  0  0  0
  -22.7123  -10.1903   20.2994 C   0  0  0  0  0  0
  -21.6823   -6.0658   22.5295 C   0  0  0  0  0  0
  -21.3998   -6.5595   23.8216 C   0  0  0  0  0  0
  -21.3658   -5.6766   24.9189 C   0  0  0  0  0  0
  -21.6042   -4.3027   24.7252 C   0  0  0  0  0  0
  -21.8824   -3.8097   23.4383 C   0  0  0  0  0  0
  -21.9186   -4.6896   22.3427 C   0  0  0  0  0  0
  -22.6395  -13.4591   21.2058 C   0  0  0  0  0  0
  -22.1657   -4.2088   21.1001 F   0  0  0  0  0  0
  -21.5635   -3.4523   25.7771 F   0  0  0  0  0  0
  -27.8408  -16.1916   20.7988 N   0  0  0  0  0  0
  -26.0903  -13.0333   20.3857 N   0  0  0  0  0  0
  -25.8768  -11.7145   20.5973 N   0  0  0  0  0  0
  -21.9423  -12.7586   22.0846 N   0  0  0  0  0  0
  -25.0610  -15.2239   20.3675 N   0  0  0  0  0  0
  -28.6764  -17.8452   21.0964 O   0  0  0  0  0  0
  -21.6597   -6.8763   21.4248 O   0  0  0  0  0  0
  -22.2025  -14.4916   20.6969 O   0  0  0  0  0  0
  -24.6198  -31.8865   23.1758 C   0  0  0  0  0  0
  -25.9034  -32.4850   23.8368 C   0  0  1  0  0  0
  -27.0286  -27.3146   20.4005 C   0  0  0  0  0  0
  -25.5864  -33.8624   24.2329 N   0  0  0  0  0  0
  -23.4473  -30.6561   21.3505 C   0  0  2  0  0  0
  -24.9024  -29.0721   19.9915 C   0  0  0  0  0  0
  -22.7987  -29.5127   22.0877 C   0  0  0  0  0  0
  -18.7836  -26.8590   22.0696 C   0  0  0  0  0  0
  -24.1477  -36.7313   23.2651 C   0  0  0  0  0  0
  -25.9828  -30.8632   21.3579 C   0  0  0  0  0  0
  -26.0339  -29.5013   20.6963 C   0  0  0  0  0  0
  -27.1344  -28.6403   20.8641 C   0  0  0  0  0  0
  -25.9610  -26.9318   19.5670 C   0  0  0  0  0  0
  -24.8698  -27.7992   19.3918 C   0  0  0  0  0  0
  -23.7539  -30.0549   19.9465 C   0  0  0  0  0  0
  -25.4091  -36.3106   24.0360 C   0  0  1  0  0  0
  -21.2445  -27.5605   21.4971 C   0  0  2  0  0  0
  -20.8257  -26.8602   20.3363 C   0  0  0  0  0  0
  -19.3338  -26.7916   20.0546 C   0  0  0  0  0  0
  -18.4567  -26.0764   21.0057 C   0  0  0  0  0  0
  -20.1827  -26.6021   22.7333 C   0  0  0  0  0  0
  -20.6445  -26.5927   24.8911 C   0  0  0  0  0  0
  -20.1548  -27.6090   25.9338 C   0  0  0  0  0  0
  -25.9019  -34.9483   23.5148 C   0  0  0  0  0  0
  -19.9965  -26.6291   25.0202 C   0  0  0  0  0  0
  -19.7014  -26.7877   22.8946 C   0  0  0  0  0  0
  -26.4378  -31.6575   25.0701 C   0  0  0  0  0  0
  -25.3615  -31.3699   26.1409 C   0  0  0  0  0  0
  -27.0208  -30.3006   24.6111 C   0  0  0  0  0  0
  -27.5942  -32.4275   25.7502 C   0  0  0  0  0  0
  -27.5571  -37.1799   24.8469 C   0  0  0  0  0  0
  -21.6457  -29.0281   21.5077 N   0  0  0  0  0  0
  -26.4278  -37.3787   23.9424 N   0  0  0  0  0  0
  -24.6937  -31.1467   22.0306 N   0  0  0  0  0  0
  -23.4024  -29.0580   23.0676 O   0  0  0  0  0  0
  -27.7566  -26.3342   21.0205 O   0  0  0  0  0  0
  -26.5577  -34.8936   22.4706 O   0  0  0  0  0  0
  -23.5307  -32.1423   23.7093 O   0  0  0  0  0  0
  -22.3510  -26.6169   23.4067 C   0  0  0  0  0  0
  -20.7740  -28.5349   23.8253 C   0  0  0  0  0  0
  -18.3413  -25.5119   24.1150 C   0  0  0  0  0  0
  -22.1671  -24.4572   23.0720 C   0  0  0  0  0  0
  -20.2682  -24.4046   23.7420 C   0  0  0  0  0  0
  -18.4439  -27.9306   24.2484 C   0  0  0  0  0  0
  -23.9932  -24.5998   25.1908 C   0  0  0  0  0  0
  -24.1016  -22.1026   22.2863 C   0  0  0  0  0  0
  -21.1563  -23.7208   24.9514 C   0  0  0  0  0  0
  -24.9533  -24.5694   23.8297 C   0  0  0  0  0  0
  -26.0027  -25.7128   23.2386 C   0  0  0  0  0  0
  -26.9118  -25.3880   21.8874 C   0  0  0  0  0  0
  -22.6315  -24.1935   25.4822 N   0  0  0  0  0  0
  -25.7701  -19.6994   21.7662 N   0  0  0  0  0  0
  -24.6061  -25.0048   26.1767 O   0  0  0  0  0  0
  -17.1544  -29.0025   24.6652 Cl  0  0  0  0  0  0
  -29.5951  -16.0715   19.3413 H   0  0  0  0  0  0
  -30.0193  -15.1853   20.6889 H   0  0  0  0  0  0
  -30.2689  -13.5396   18.8499 H   0  0  0  0  0  0
  -29.0010  -14.2725   17.9268 H   0  0  0  0  0  0
  -28.7635  -12.0226   19.8850 H   0  0  0  0  0  0
  -27.8577  -12.3101   18.3754 H   0  0  0  0  0  0
  -26.9899  -14.2743   19.2463 H   0  0  0  0  0  0
  -28.5600  -14.2407   21.8710 H   0  0  0  0  0  0
  -26.9771  -14.6565   22.0185 H   0  0  0  0  0  0
  -25.2654   -9.5648   22.4808 H   0  0  0  0  0  0
  -23.9957   -7.4518   22.7500 H   0  0  0  0  0  0
  -21.0768   -8.8515   19.8917 H   0  0  0  0  0  0
  -22.3541  -10.9433   19.6110 H   0  0  0  0  0  0
  -21.1988   -7.6105   23.9698 H   0  0  0  0  0  0
  -21.1482   -6.0505   25.9087 H   0  0  0  0  0  0
  -22.0610   -2.7559   23.2898 H   0  0  0  0  0  0
  -22.3289  -11.9327   22.5173 H   0  0  0  0  0  0
  -21.0066  -13.0494   22.3306 H   0  0  0  0  0  0
  -24.2383  -15.8153   20.4080 H   0  0  0  0  0  0
  -25.9010  -15.6954   20.0555 H   0  0  0  0  0  0
  -26.7211  -32.5613   23.1245 H   0  0  0  0  0  0
  -24.9969  -33.9765   25.0443 H   0  0  0  0  0  0
  -22.7294  -31.4713   21.2559 H   0  0  0  0  0  0
  -23.3728  -35.9660   23.3334 H   0  0  0  0  0  0
  -24.3569  -36.8895   22.2059 H   0  0  0  0  0  0
  -23.7245  -37.6535   23.6643 H   0  0  0  0  0  0
  -26.1653  -31.6308   20.6049 H   0  0  0  0  0  0
  -26.8385  -30.8764   22.0207 H   0  0  0  0  0  0
  -27.9496  -28.9213   21.5183 H   0  0  0  0  0  0
  -25.8923  -25.9174   19.1994 H   0  0  0  0  0  0
  -24.0056  -27.4737   18.8283 H   0  0  0  0  0  0
  -24.0592  -30.8705   19.2901 H   0  0  0  0  0  0
  -22.8916  -29.6218   19.4375 H   0  0  0  0  0  0
  -25.1270  -36.1959   25.0856 H   0  0  0  0  0  0
  -22.2557  -27.1905   21.2819 H   0  0  0  0  0  0
  -21.1586  -25.8179   20.3844 H   0  0  0  0  0  0
  -21.3171  -27.2765   19.4524 H   0  0  0  0  0  0
  -19.2039  -26.3004   19.0902 H   0  0  0  0  0  0
  -18.9609  -27.8062   19.8792 H   0  0  0  0  0  0
  -17.3971  -26.1525   20.7588 H   0  0  0  0  0  0
  -18.7329  -25.0285   21.1416 H   0  0  0  0  0  0
  -21.7872  -26.3792   25.4157 H   0  0  0  0  0  0
  -20.3980  -27.4524   26.9767 H   0  0  0  0  0  0
  -19.0806  -26.3633   25.8761 H   0  0  0  0  0  0
  -19.1469  -28.0010   22.3516 H   0  0  0  0  0  0
  -24.5713  -30.7175   25.7675 H   0  0  0  0  0  0
  -24.8916  -32.2871   26.4968 H   0  0  0  0  0  0
  -25.7936  -30.8723   27.0097 H   0  0  0  0  0  0
  -26.2801  -29.6837   24.1002 H   0  0  0  0  0  0
  -27.3777  -29.7184   25.4613 H   0  0  0  0  0  0
  -27.8737  -30.4307   23.9445 H   0  0  0  0  0  0
  -27.2542  -33.3554   26.2109 H   0  0  0  0  0  0
  -28.3753  -32.6860   25.0345 H   0  0  0  0  0  0
  -28.0586  -31.8358   26.5393 H   0  0  0  0  0  0
  -28.2596  -38.0084   24.7487 H   0  0  0  0  0  0
  -28.1049  -36.2610   24.6313 H   0  0  0  0  0  0
  -27.2289  -37.1480   25.8873 H   0  0  0  0  0  0
  -21.2367  -29.5844   20.7713 H   0  0  0  0  0  0
  -26.0172  -38.2873   24.1404 H   0  0  0  0  0  0
  -23.3886  -26.8707   23.3443 H   0  0  0  0  0  0
  -21.0791  -29.5564   23.9918 H   0  0  0  0  0  0
  -17.4503  -24.9986   24.4436 H   0  0  0  0  0  0
  -24.5132  -22.6395   21.4332 H   0  0  0  0  0  0
  -23.2366  -21.5547   21.9147 H   0  0  0  0  0  0
  -21.2623  -22.6678   24.6836 H   0  0  0  0  0  0
  -20.5088  -23.7064   25.8294 H   0  0  0  0  0  0
  -24.4315  -24.3724   22.9201 H   0  0  0  0  0  0
  -25.5592  -23.6783   23.9959 H   0  0  0  0  0  0
  -26.6700  -26.0188   24.0427 H   0  0  0  0  0  0
  -25.4317  -26.6063   23.0010 H   0  0  0  0  0  0
  -26.2541  -24.8534   21.2036 H   0  0  0  0  0  0
  -27.6151  -24.6142   22.1919 H   0  0  0  0  0  0
  -22.5371  -24.3134   26.4822 H   0  0  0  0  0  0
  -26.5954  -20.2786   21.8763 H   0  0  0  0  0  0
  1 25  1  0  0  0
  1 30  2  0  0  0
  1 84  1  0  0  0
  2  3  1  0  0  0
  2 25  1  0  0  0
  2 87  1  0  0  0
  2 88  1  0  0  0
  3  4  1  0  0  0
  3 89  1  0  0  0
  3 90  1  0  0  0
  4  5  1  0  0  0
  4 91  1  0  0  0
  4 92  1  0  0  0
  5  6  1  0  0  0
  5 26  1  0  0  0
  5 93  1  0  0  0
  6 25  1  0  0  0
  6 94  1  0  0  0
  6 95  1  0  0  0
  7  8  2  0  0  0
  7 26  1  0  0  0
  7 29  1  0  0  0
  8  9  1  0  0  0
  8 22  1  0  0  0
  9 10  1  0  0  0
  9 27  2  0  0  0
 10 11  2  0  0  0
 10 15  1  0  0  0
 11 12  1  0  0  0
 11 96  1  0  0  0
 12 13  2  0  0  0
 12 97  1  0  0  0
 13 14  1  0  0  0
 13 31  1  0  0  0
 14 15  2  0  0  0
 14 98  1  0  0  0
 15 99  1  0  0  0
 16 17  2  0  0  0
 16 21  1  0  0  0
 16 31  1  0  0  0
 17 18  1  0  0  0
 17100  1  0  0  0
 18 19  2  0  0  0
 18101  1  0  0  0
 19 20  1  0  0  0
 19 24  1  0  0  0
 20 21  2  0  0  0
 20102  1  0  0  0
 21 23  1  0  0  0
 22 28  1  0  0  0
 22 32  2  0  0  0
 26 27  1  0  0  0
 28103  1  0  0  0
 28104  1  0  0  0
 29105  1  0  0  0
 29106  1  0  0  0
 33 34  1  0  0  0
 33 66  1  0  0  0
 33 70  2  0  0  0
 34 36  1  0  0  0
 34 59  1  0  0  0
 34107  1  0  0  0
 35 44  2  0  0  0
 35 45  1  0  0  0
 35 68  1  0  0  0
 36 56  1  0  0  0
 36108  1  0  0  0
 37 39  1  0  0  0
 37 47  1  0  0  0
 37 66  1  0  0  0
 37109  1  0  0  0
 38 43  2  0  0  0
 38 46  1  0  0  0
 38 47  1  0  0  0
 39 64  1  0  0  0
 39 67  2  0  0  0
 40 52  1  0  0  0
 40 53  2  0  0  0
 40 58  1  0  0  0
 41110  1  0  0  0
 41111  1  0  0  0
 41112  1  0  0  0
 41 48  1  0  0  0
 42 43  1  0  0  0
 42 66  1  0  0  0
 42113  1  0  0  0
 42114  1  0  0  0
 43 44  1  0  0  0
 44115  1  0  0  0
 45 46  2  0  0  0
 45116  1  0  0  0
 46117  1  0  0  0
 47118  1  0  0  0
 47119  1  0  0  0
 48 56  1  0  0  0
 48 65  1  0  0  0
 48120  1  0  0  0
 49 50  1  0  0  0
 49 53  1  0  0  0
 49 64  1  0  0  0
 49121  1  0  0  0
 50 51  1  0  0  0
 50122  1  0  0  0
 50123  1  0  0  0
 51 52  1  0  0  0
 51124  1  0  0  0
 51125  1  0  0  0
 52126  1  0  0  0
 52127  1  0  0  0
 53 54  1  0  0  0
 54 55  2  0  0  0
 54128  1  0  0  0
 55 57  1  0  0  0
 55129  1  0  0  0
 56 69  2  0  0  0
 57 58  2  0  0  0
 57130  1  0  0  0
 58131  1  0  0  0
 59 60  1  0  0  0
 59 61  1  0  0  0
 59 62  1  0  0  0
 60132  1  0  0  0
 60133  1  0  0  0
 60134  1  0  0  0
 61135  1  0  0  0
 61136  1  0  0  0
 61137  1  0  0  0
 62138  1  0  0  0
 62139  1  0  0  0
 62140  1  0  0  0
 63 65  1  0  0  0
 63141  1  0  0  0
 63142  1  0  0  0
 63143  1  0  0  0
 64144  1  0  0  0
 65145  1  0  0  0
 68 82  1  0  0  0
 71 72  2  0  0  0
 71 74  1  0  0  0
 71146  1  0  0  0
 72 76  1  0  0  0
 72147  1  0  0  0
 73 75  1  0  0  0
 73 76  2  0  0  0
 73148  1  0  0  0
 74 75  2  0  0  0
 74 78  1  0  0  0
 75 79  1  0  0  0
 76 86  1  0  0  0
 77 80  1  0  0  0
 77 83  1  0  0  0
 77 85  2  0  0  0
 78 84  1  0  0  0
 78149  1  0  0  0
 78150  1  0  0  0
 79 83  1  0  0  0
 79151  1  0  0  0
 79152  1  0  0  0
 80 81  1  0  0  0
 80153  1  0  0  0
 80154  1  0  0  0
 81 82  1  0  0  0
 81155  1  0  0  0
 81156  1  0  0  0
 82157  1  0  0  0
 82158  1  0  0  0
 83159  1  0  0  0
 84160  1  0  0  0
M  ISO  4   1 100  68 101  82 101  84 100
M  END
> <chiral flag>
0

> <version>
0

> <s_m_source_file>
/data/baiqing/PycharmProjects/Reinvent-master-3.2/result/LINK_invent/BTK/process_docking_weight1_custom_product_contain_oxygen_bond_distance_aromatic_linkinvent_7_9_3/rearranged_h_0044.sdf

> <i_m_source_file_index>
18

> <r_mmod_Potential_Energy-OPLS-2005>
50775.078125

> <r_mmod_Stretch_Energy-OPLS-2005>
23443.572265625

> <r_mmod_Bend_Energy-OPLS-2005>
4353.3740234375

> <r_mmod_Torsional_Energy-OPLS-2005>
791.726440429688

> <r_mmod_Improper_Torsional_Energy-OPLS-2005>
68.0478668212891

> <r_mmod_Van_der_Waal_Energy-OPLS-2005>
5154.2978515625

> <r_mmod_Electrostatic_Energy-OPLS-2005>
-456.285186767578

> <r_mmod_Solvation_Energy-OPLS-2005>
-257.067108154297

> <b_mmod_Minimization_Converged-OPLS-2005>
0

> <r_mmod_RMS_Derivative-OPLS-2005>
5.26559638977051

$$$$
18
                    3D
 Structure written by MMmdl.
170179  0  0  1  0            999 V2000
  -30.6198  -14.6417   20.5108 C   0  0  0  0  0  0
  -30.4399  -12.3950   19.4553 C   0  0  0  0  0  0
  -29.5090  -12.5127   18.2272 C   0  0  0  0  0  0
  -28.0320  -12.3483   18.6382 C   0  0  0  0  0  0
  -27.6558  -13.2166   19.8685 C   0  0  2  0  0  0
  -28.6994  -13.0636   20.9983 C   0  0  0  0  0  0
  -25.2571  -13.8171   20.5694 C   0  0  0  0  0  0
  -24.1832  -13.0439   20.9188 C   0  0  0  0  0  0
  -24.6399  -11.6909   20.8739 C   0  0  0  0  0  0
  -23.9067  -10.4294   21.0405 C   0  0  0  0  0  0
  -24.3617   -9.4210   21.9185 C   0  0  0  0  0  0
  -23.6292   -8.2244   22.0755 C   0  0  0  0  0  0
  -22.4274   -8.0282   21.3544 C   0  0  0  0  0  0
  -21.9910   -9.0256   20.4646 C   0  0  0  0  0  0
  -22.7238  -10.2135   20.3055 C   0  0  0  0  0  0
  -21.6853   -6.0738   22.5280 C   0  0  0  0  0  0
  -21.4013   -6.5642   23.8213 C   0  0  0  0  0  0
  -21.3658   -5.6794   24.9174 C   0  0  0  0  0  0
  -21.6042   -4.3056   24.7224 C   0  0  0  0  0  0
  -21.8820   -3.8150   23.4345 C   0  0  0  0  0  0
  -21.9194   -4.6966   22.3401 C   0  0  0  0  0  0
  -22.7854  -13.5233   21.1850 C   0  0  0  0  0  0
  -22.1661   -4.2153   21.0979 F   0  0  0  0  0  0
  -21.5628   -3.4539   25.7736 F   0  0  0  0  0  0
  -30.0164  -13.4116   20.4401 N   0  0  0  0  0  0
  -26.3003  -12.9353   20.3343 N   0  0  0  0  0  0
  -25.9330  -11.6507   20.5766 N   0  0  0  0  0  0
  -22.0494  -12.8225   22.0406 N   0  0  0  0  0  0
  -25.4295  -15.1891   20.4117 N   0  0  0  0  0  0
  -31.7672  -14.8154   20.0885 O   0  0  0  0  0  0
  -21.6638   -6.8880   21.4241 O   0  0  0  0  0  0
  -22.3541  -14.5544   20.6707 O   0  0  0  0  0  0
  -24.6265  -31.8596   23.2028 C   0  0  0  0  0  0
  -25.9112  -32.4778   23.8355 C   0  0  1  0  0  0
  -27.2239  -27.3158   20.1151 C   0  0  0  0  0  0
  -25.5925  -33.8579   24.2276 N   0  0  0  0  0  0
  -23.4203  -30.4842   21.5453 C   0  0  2  0  0  0
  -24.8666  -28.9413   20.1098 C   0  0  0  0  0  0
  -22.7477  -29.4625   22.4932 C   0  0  0  0  0  0
  -18.0288  -28.1386   22.8490 C   0  0  0  0  0  0
  -24.1488  -36.7290   23.2639 C   0  0  0  0  0  0
  -25.9625  -30.7894   21.3750 C   0  0  0  0  0  0
  -26.0364  -29.4175   20.7155 C   0  0  0  0  0  0
  -27.2178  -28.6167   20.7086 C   0  0  0  0  0  0
  -26.0297  -26.8978   19.4809 C   0  0  0  0  0  0
  -24.8658  -27.6868   19.4837 C   0  0  0  0  0  0
  -23.6350  -29.8212   20.1599 C   0  0  0  0  0  0
  -25.4113  -36.3080   24.0329 C   0  0  1  0  0  0
  -20.5890  -28.3688   23.1283 C   0  0  2  0  0  0
  -20.6777  -26.9410   22.5408 C   0  0  0  0  0  0
  -19.5752  -26.6385   21.5214 C   0  0  0  0  0  0
  -18.1932  -26.7930   22.1625 C   0  0  0  0  0  0
  -19.1543  -28.8855   23.2885 C   0  0  0  0  0  0
  -18.9464  -30.1459   23.8898 C   0  0  0  0  0  0
  -17.6463  -30.6588   24.0568 C   0  0  0  0  0  0
  -25.9052  -34.9451   23.5102 C   0  0  0  0  0  0
  -16.5354  -29.9087   23.6333 C   0  0  0  0  0  0
  -16.7275  -28.6506   23.0352 C   0  0  0  0  0  0
  -26.4494  -31.6592   25.0729 C   0  0  0  0  0  0
  -25.3724  -31.3730   26.1454 C   0  0  0  0  0  0
  -27.0338  -30.3017   24.6187 C   0  0  0  0  0  0
  -27.6054  -32.4329   25.7499 C   0  0  0  0  0  0
  -27.5579  -37.1798   24.8464 C   0  0  0  0  0  0
  -21.4191  -29.3043   22.3676 N   0  0  0  0  0  0
  -26.4287  -37.3778   23.9413 N   0  0  0  0  0  0
  -24.6887  -31.0610   22.0976 N   0  0  0  0  0  0
  -23.4202  -28.8163   23.3008 O   0  0  0  0  0  0
  -28.3366  -26.4578   20.1742 O   0  0  0  0  0  0
  -26.5624  -34.8921   22.4669 O   0  0  0  0  0  0
  -23.5427  -32.1392   23.7354 O   0  0  0  0  0  0
  -29.1398  -17.9458   21.6888 C   0  0  0  0  0  0
  -30.6536  -17.8241   19.8399 C   0  0  0  0  0  0
  -29.1321  -19.3774   21.6317 C   0  0  0  0  0  0
  -30.6629  -19.2539   19.7522 C   0  0  0  0  0  0
  -29.9227  -20.0795   20.6669 C   0  0  0  0  0  0
  -29.9128  -17.1289   20.8259 C   0  0  0  0  0  0
  -29.2465  -24.0262   20.4449 C   0  0  0  0  0  0
  -28.6941  -19.1658   24.8634 C   0  0  0  0  0  0
  -27.2419  -18.8517   24.4871 C   0  0  0  0  0  0
  -29.0899  -20.3508   23.9831 C   0  0  0  0  0  0
  -26.9995  -19.4849   23.1054 C   0  0  0  0  0  0
  -28.3166  -20.1595   22.6723 C   0  0  0  0  0  0
  -30.6803  -20.4983   17.5329 C   0  0  0  0  0  0
  -31.5210  -19.8621   18.6472 C   0  0  0  0  0  0
  -30.1397  -21.6522   20.7480 C   0  0  0  0  0  0
  -28.0978  -25.0030   19.9794 C   0  0  0  0  0  0
  -29.8346  -15.6711   20.9609 N   0  0  0  0  0  0
  -29.1020  -22.6614   20.3415 N   0  0  0  0  0  0
  -30.2822  -24.5120   20.9065 O   0  0  0  0  0  0
  -31.4811  -12.5221   19.1534 H   0  0  0  0  0  0
  -30.3765  -11.3970   19.8918 H   0  0  0  0  0  0
  -29.7737  -11.7631   17.4801 H   0  0  0  0  0  0
  -29.6506  -13.4834   17.7493 H   0  0  0  0  0  0
  -27.8698  -11.2945   18.8680 H   0  0  0  0  0  0
  -27.3767  -12.5792   17.7976 H   0  0  0  0  0  0
  -27.6771  -14.2539   19.5335 H   0  0  0  0  0  0
  -28.7104  -12.0386   21.3721 H   0  0  0  0  0  0
  -28.4400  -13.6857   21.8561 H   0  0  0  0  0  0
  -25.2762   -9.5686   22.4759 H   0  0  0  0  0  0
  -24.0003   -7.4635   22.7472 H   0  0  0  0  0  0
  -21.0842   -8.8775   19.8950 H   0  0  0  0  0  0
  -22.3700  -10.9675   19.6163 H   0  0  0  0  0  0
  -21.2004   -7.6151   23.9718 H   0  0  0  0  0  0
  -21.1478   -6.0523   25.9078 H   0  0  0  0  0  0
  -22.0600   -2.7611   23.2843 H   0  0  0  0  0  0
  -22.4102  -11.9879   22.4787 H   0  0  0  0  0  0
  -21.1114  -13.1257   22.2612 H   0  0  0  0  0  0
  -24.6643  -15.8451   20.5224 H   0  0  0  0  0  0
  -26.2827  -15.6284   20.0897 H   0  0  0  0  0  0
  -26.7181  -32.5445   23.1103 H   0  0  0  0  0  0
  -25.0069  -33.9727   25.0419 H   0  0  0  0  0  0
  -22.7146  -31.3051   21.4030 H   0  0  0  0  0  0
  -23.3753  -35.9620   23.3299 H   0  0  0  0  0  0
  -24.3579  -36.8911   22.2054 H   0  0  0  0  0  0
  -23.7238  -37.6490   23.6663 H   0  0  0  0  0  0
  -26.0963  -31.5533   20.6078 H   0  0  0  0  0  0
  -26.8423  -30.8358   22.0052 H   0  0  0  0  0  0
  -28.1140  -28.9769   21.1945 H   0  0  0  0  0  0
  -25.9611  -25.9425   18.9831 H   0  0  0  0  0  0
  -23.9703  -27.3175   19.0027 H   0  0  0  0  0  0
  -23.7536  -30.5987   19.4045 H   0  0  0  0  0  0
  -22.7551  -29.2506   19.8569 H   0  0  0  0  0  0
  -25.1292  -36.1927   25.0820 H   0  0  0  0  0  0
  -20.9987  -28.3258   24.1402 H   0  0  0  0  0  0
  -20.5681  -26.2295   23.3607 H   0  0  0  0  0  0
  -21.6645  -26.7439   22.1196 H   0  0  0  0  0  0
  -19.6912  -25.6297   21.1241 H   0  0  0  0  0  0
  -19.6691  -27.3200   20.6747 H   0  0  0  0  0  0
  -17.4201  -26.6683   21.4029 H   0  0  0  0  0  0
  -18.0331  -26.0071   22.9019 H   0  0  0  0  0  0
  -19.7939  -30.7279   24.2262 H   0  0  0  0  0  0
  -17.5016  -31.6270   24.5167 H   0  0  0  0  0  0
  -15.5353  -30.2989   23.7662 H   0  0  0  0  0  0
  -15.8675  -28.0828   22.7062 H   0  0  0  0  0  0
  -24.5901  -30.7079   25.7778 H   0  0  0  0  0  0
  -24.8915  -32.2895   26.4881 H   0  0  0  0  0  0
  -25.8044  -30.8903   27.0228 H   0  0  0  0  0  0
  -26.2912  -29.6770   24.1209 H   0  0  0  0  0  0
  -27.4031  -29.7273   25.4692 H   0  0  0  0  0  0
  -27.8784  -30.4304   23.9415 H   0  0  0  0  0  0
  -27.2667  -33.3632   26.2069 H   0  0  0  0  0  0
  -28.3869  -32.6880   25.0329 H   0  0  0  0  0  0
  -28.0718  -31.8458   26.5420 H   0  0  0  0  0  0
  -28.2585  -38.0107   24.7523 H   0  0  0  0  0  0
  -28.1084  -36.2637   24.6266 H   0  0  0  0  0  0
  -27.2302  -37.1416   25.8868 H   0  0  0  0  0  0
  -20.9364  -29.8769   21.6890 H   0  0  0  0  0  0
  -26.0165  -38.2848   24.1426 H   0  0  0  0  0  0
  -28.5508  -17.4508   22.4464 H   0  0  0  0  0  0
  -31.2331  -17.2509   19.1297 H   0  0  0  0  0  0
  -29.3300  -18.3106   24.6305 H   0  0  0  0  0  0
  -28.8139  -19.3785   25.9267 H   0  0  0  0  0  0
  -26.5589  -19.2854   25.2193 H   0  0  0  0  0  0
  -27.0612  -17.7759   24.4774 H   0  0  0  0  0  0
  -30.1677  -20.4410   23.8423 H   0  0  0  0  0  0
  -28.7508  -21.2692   24.4651 H   0  0  0  0  0  0
  -26.2297  -20.2505   23.2144 H   0  0  0  0  0  0
  -26.6145  -18.7780   22.3692 H   0  0  0  0  0  0
  -28.0614  -21.1317   22.2533 H   0  0  0  0  0  0
  -31.3197  -20.8989   16.7460 H   0  0  0  0  0  0
  -30.0642  -21.3162   17.9050 H   0  0  0  0  0  0
  -30.0174  -19.7629   17.0762 H   0  0  0  0  0  0
  -32.1467  -19.0867   18.2031 H   0  0  0  0  0  0
  -32.2307  -20.5778   19.0607 H   0  0  0  0  0  0
  -31.0508  -21.9246   20.2208 H   0  0  0  0  0  0
  -30.3869  -21.8660   21.7889 H   0  0  0  0  0  0
  -27.2009  -24.7027   20.5237 H   0  0  0  0  0  0
  -27.9167  -24.8112   18.9212 H   0  0  0  0  0  0
  -28.9927  -15.3413   21.4075 H   0  0  0  0  0  0
  -28.2402  -22.3056   19.9509 H   0  0  0  0  0  0
  1 25  1  0  0  0
  1 30  2  0  0  0
  1 87  1  0  0  0
  2  3  1  0  0  0
  2 25  1  0  0  0
  2 90  1  0  0  0
  2 91  1  0  0  0
  3  4  1  0  0  0
  3 92  1  0  0  0
  3 93  1  0  0  0
  4  5  1  0  0  0
  4 94  1  0  0  0
  4 95  1  0  0  0
  5  6  1  0  0  0
  5 26  1  0  0  0
  5 96  1  0  0  0
  6 25  1  0  0  0
  6 97  1  0  0  0
  6 98  1  0  0  0
  7  8  2  0  0  0
  7 26  1  0  0  0
  7 29  1  0  0  0
  8  9  1  0  0  0
  8 22  1  0  0  0
  9 10  1  0  0  0
  9 27  2  0  0  0
 10 11  2  0  0  0
 10 15  1  0  0  0
 11 12  1  0  0  0
 11 99  1  0  0  0
 12 13  2  0  0  0
 12100  1  0  0  0
 13 14  1  0  0  0
 13 31  1  0  0  0
 14 15  2  0  0  0
 14101  1  0  0  0
 15102  1  0  0  0
 16 17  2  0  0  0
 16 21  1  0  0  0
 16 31  1  0  0  0
 17 18  1  0  0  0
 17103  1  0  0  0
 18 19  2  0  0  0
 18104  1  0  0  0
 19 20  1  0  0  0
 19 24  1  0  0  0
 20 21  2  0  0  0
 20105  1  0  0  0
 21 23  1  0  0  0
 22 28  1  0  0  0
 22 32  2  0  0  0
 26 27  1  0  0  0
 28106  1  0  0  0
 28107  1  0  0  0
 29108  1  0  0  0
 29109  1  0  0  0
 33 34  1  0  0  0
 33 66  1  0  0  0
 33 70  2  0  0  0
 34 36  1  0  0  0
 34 59  1  0  0  0
 34110  1  0  0  0
 35 44  2  0  0  0
 35 45  1  0  0  0
 35 68  1  0  0  0
 36 56  1  0  0  0
 36111  1  0  0  0
 37 39  1  0  0  0
 37 47  1  0  0  0
 37 66  1  0  0  0
 37112  1  0  0  0
 38 43  2  0  0  0
 38 46  1  0  0  0
 38 47  1  0  0  0
 39 64  1  0  0  0
 39 67  2  0  0  0
 40 52  1  0  0  0
 40 53  2  0  0  0
 40 58  1  0  0  0
 41113  1  0  0  0
 41114  1  0  0  0
 41115  1  0  0  0
 41 48  1  0  0  0
 42 43  1  0  0  0
 42 66  1  0  0  0
 42116  1  0  0  0
 42117  1  0  0  0
 43 44  1  0  0  0
 44118  1  0  0  0
 45 46  2  0  0  0
 45119  1  0  0  0
 46120  1  0  0  0
 47121  1  0  0  0
 47122  1  0  0  0
 48 56  1  0  0  0
 48 65  1  0  0  0
 48123  1  0  0  0
 49 50  1  0  0  0
 49 53  1  0  0  0
 49 64  1  0  0  0
 49124  1  0  0  0
 50 51  1  0  0  0
 50125  1  0  0  0
 50126  1  0  0  0
 51 52  1  0  0  0
 51127  1  0  0  0
 51128  1  0  0  0
 52129  1  0  0  0
 52130  1  0  0  0
 53 54  1  0  0  0
 54 55  2  0  0  0
 54131  1  0  0  0
 55 57  1  0  0  0
 55132  1  0  0  0
 56 69  2  0  0  0
 57 58  2  0  0  0
 57133  1  0  0  0
 58134  1  0  0  0
 59 60  1  0  0  0
 59 61  1  0  0  0
 59 62  1  0  0  0
 60135  1  0  0  0
 60136  1  0  0  0
 60137  1  0  0  0
 61138  1  0  0  0
 61139  1  0  0  0
 61140  1  0  0  0
 62141  1  0  0  0
 62142  1  0  0  0
 62143  1  0  0  0
 63 65  1  0  0  0
 63144  1  0  0  0
 63145  1  0  0  0
 63146  1  0  0  0
 64147  1  0  0  0
 65148  1  0  0  0
 68 86  1  0  0  0
 71 73  2  0  0  0
 71 76  1  0  0  0
 71149  1  0  0  0
 72 74  1  0  0  0
 72 76  2  0  0  0
 72150  1  0  0  0
 73 75  1  0  0  0
 73 82  1  0  0  0
 74 75  2  0  0  0
 74 84  1  0  0  0
 75 85  1  0  0  0
 76 87  1  0  0  0
 77 86  1  0  0  0
 77 88  1  0  0  0
 77 89  2  0  0  0
 78 79  1  0  0  0
 78 80  1  0  0  0
 78151  1  0  0  0
 78152  1  0  0  0
 79 81  1  0  0  0
 79153  1  0  0  0
 79154  1  0  0  0
 80 82  1  0  0  0
 80155  1  0  0  0
 80156  1  0  0  0
 81 82  1  0  0  0
 81157  1  0  0  0
 81158  1  0  0  0
 82159  1  0  0  0
 83 84  1  0  0  0
 83160  1  0  0  0
 83161  1  0  0  0
 83162  1  0  0  0
 84163  1  0  0  0
 84164  1  0  0  0
 85 88  1  0  0  0
 85165  1  0  0  0
 85166  1  0  0  0
 86167  1  0  0  0
 86168  1  0  0  0
 87169  1  0  0  0
 88170  1  0  0  0
M  ISO  4   1 100  68 101  86 101  87 100
M  END
> <chiral flag>
0

> <version>
0

> <s_m_source_file>
/data/baiqing/PycharmProjects/Reinvent-master-3.2/result/LINK_invent/BTK/process_docking_weight1_custom_product_contain_oxygen_bond_distance_aromatic_linkinvent_7_9_3/rearranged_h_0044.sdf

> <i_m_source_file_index>
19

> <r_mmod_Potential_Energy-OPLS-2005>
83.3294372558594

> <r_mmod_Stretch_Energy-OPLS-2005>
86.5684356689453

> <r_mmod_Bend_Energy-OPLS-2005>
161.047546386719

> <r_mmod_Torsional_Energy-OPLS-2005>
284.224609375

> <r_mmod_Improper_Torsional_Energy-OPLS-2005>
4.20683908462524

> <r_mmod_Van_der_Waal_Energy-OPLS-2005>
145.662643432617

> <r_mmod_Electrostatic_Energy-OPLS-2005>
-413.792358398438

> <r_mmod_Solvation_Energy-OPLS-2005>
-234.284362792969

> <b_mmod_Minimization_Converged-OPLS-2005>
0

> <r_mmod_RMS_Derivative-OPLS-2005>
0.451967358589172

$$$$
19
                    3D
 Structure written by MMmdl.
151159  0  0  1  0            999 V2000
  -30.5225  -14.8850   20.4544 C   0  0  0  0  0  0
  -30.4543  -12.5475   19.4888 C   0  0  0  0  0  0
  -29.5258  -12.5371   18.2502 C   0  0  0  0  0  0
  -28.0538  -12.3307   18.6607 C   0  0  0  0  0  0
  -27.6418  -13.2351   19.8521 C   0  0  2  0  0  0
  -28.6857  -13.1934   20.9897 C   0  0  0  0  0  0
  -25.2515  -13.8186   20.5701 C   0  0  0  0  0  0
  -24.1802  -13.0434   20.9209 C   0  0  0  0  0  0
  -24.6394  -11.6913   20.8733 C   0  0  0  0  0  0
  -23.9061  -10.4290   21.0395 C   0  0  0  0  0  0
  -24.3616   -9.4209   21.9175 C   0  0  0  0  0  0
  -23.6293   -8.2242   22.0746 C   0  0  0  0  0  0
  -22.4273   -8.0274   21.3539 C   0  0  0  0  0  0
  -21.9903   -9.0249   20.4644 C   0  0  0  0  0  0
  -22.7228  -10.2131   20.3052 C   0  0  0  0  0  0
  -21.6853   -6.0731   22.5279 C   0  0  0  0  0  0
  -21.4015   -6.5636   23.8211 C   0  0  0  0  0  0
  -21.3662   -5.6785   24.9172 C   0  0  0  0  0  0
  -21.6051   -4.3049   24.7223 C   0  0  0  0  0  0
  -21.8816   -3.8139   23.4345 C   0  0  0  0  0  0
  -21.9195   -4.6959   22.3404 C   0  0  0  0  0  0
  -22.7824  -13.5225   21.1870 C   0  0  0  0  0  0
  -22.1660   -4.2138   21.0984 F   0  0  0  0  0  0
  -21.5635   -3.4539   25.7742 F   0  0  0  0  0  0
  -29.9743  -13.6079   20.4139 N   0  0  0  0  0  0
  -26.2938  -12.9396   20.3262 N   0  0  0  0  0  0
  -25.9326  -11.6533   20.5725 N   0  0  0  0  0  0
  -22.0464  -12.8220   22.0432 N   0  0  0  0  0  0
  -25.4202  -15.1914   20.4133 N   0  0  0  0  0  0
  -31.7019  -15.0329   20.1143 O   0  0  0  0  0  0
  -21.6644   -6.8871   21.4235 O   0  0  0  0  0  0
  -22.3513  -14.5532   20.6712 O   0  0  0  0  0  0
  -24.6417  -31.8469   23.1915 C   0  0  0  0  0  0
  -25.9201  -32.4713   23.8291 C   0  0  1  0  0  0
  -27.2195  -27.1551   20.1458 C   0  0  0  0  0  0
  -25.5959  -33.8517   24.2205 N   0  0  0  0  0  0
  -23.4442  -30.4673   21.5375 C   0  0  2  0  0  0
  -24.8942  -28.9017   20.1108 C   0  0  0  0  0  0
  -22.7552  -29.4562   22.4879 C   0  0  0  0  0  0
  -18.0299  -28.1391   22.8485 C   0  0  0  0  0  0
  -24.1490  -36.7252   23.2641 C   0  0  0  0  0  0
  -26.0002  -30.7258   21.3900 C   0  0  0  0  0  0
  -26.0723  -29.3397   20.7297 C   0  0  0  0  0  0
  -27.2346  -28.4820   20.7342 C   0  0  0  0  0  0
  -26.0141  -26.8214   19.4844 C   0  0  0  0  0  0
  -24.8768  -27.6542   19.4745 C   0  0  0  0  0  0
  -23.6689  -29.7999   20.1560 C   0  0  0  0  0  0
  -25.4119  -36.3035   24.0318 C   0  0  1  0  0  0
  -20.5914  -28.3712   23.1250 C   0  0  2  0  0  0
  -20.6780  -26.9414   22.5424 C   0  0  0  0  0  0
  -19.5761  -26.6374   21.5225 C   0  0  0  0  0  0
  -18.1937  -26.7938   22.1622 C   0  0  0  0  0  0
  -19.1558  -28.8871   23.2861 C   0  0  0  0  0  0
  -18.9475  -30.1470   23.8882 C   0  0  0  0  0  0
  -17.6472  -30.6589   24.0561 C   0  0  0  0  0  0
  -25.9074  -34.9415   23.5065 C   0  0  0  0  0  0
  -16.5360  -29.9080   23.6345 C   0  0  0  0  0  0
  -16.7284  -28.6500   23.0363 C   0  0  0  0  0  0
  -26.4521  -31.6571   25.0725 C   0  0  0  0  0  0
  -25.3705  -31.3786   26.1425 C   0  0  0  0  0  0
  -27.0363  -30.2954   24.6312 C   0  0  0  0  0  0
  -27.6073  -32.4318   25.7487 C   0  0  0  0  0  0
  -27.5585  -37.1762   24.8449 C   0  0  0  0  0  0
  -21.4248  -29.3044   22.3619 N   0  0  0  0  0  0
  -26.4273  -37.3759   23.9422 N   0  0  0  0  0  0
  -24.7150  -31.0337   22.0947 N   0  0  0  0  0  0
  -23.4202  -28.8119   23.3033 O   0  0  0  0  0  0
  -28.2661  -26.1649   20.2219 O   0  0  0  0  0  0
  -26.5662  -34.8910   22.4645 O   0  0  0  0  0  0
  -23.5540  -32.1340   23.7142 O   0  0  0  0  0  0
  -28.0794  -19.5210   20.9098 C   0  0  0  0  0  0
  -28.3420  -18.1077   21.0001 C   0  0  0  0  0  0
  -30.5314  -18.4597   20.2047 C   0  0  0  0  0  0
  -28.9953  -20.5160   20.4435 C   0  0  0  0  0  0
  -30.2678  -19.9037   20.1231 C   0  0  0  0  0  0
  -29.5694  -17.4765   20.6325 C   0  0  0  0  0  0
  -28.4575  -22.0221   20.3354 C   0  0  0  0  0  0
  -28.8831  -23.3645   20.2189 C   0  0  0  0  0  0
  -31.3893  -20.8023   19.6384 C   0  0  0  0  0  0
  -27.9202  -24.6723   19.9986 C   0  0  0  0  0  0
  -29.6542  -15.9566   20.7425 N   0  0  0  0  0  0
  -31.4871  -12.7193   19.1803 H   0  0  0  0  0  0
  -30.4501  -11.5753   19.9839 H   0  0  0  0  0  0
  -29.8341  -11.7576   17.5523 H   0  0  0  0  0  0
  -29.6248  -13.4817   17.7139 H   0  0  0  0  0  0
  -27.9303  -11.2818   18.9332 H   0  0  0  0  0  0
  -27.3952  -12.5035   17.8089 H   0  0  0  0  0  0
  -27.6252  -14.2521   19.4605 H   0  0  0  0  0  0
  -28.7559  -12.1911   21.4148 H   0  0  0  0  0  0
  -28.3921  -13.8496   21.8105 H   0  0  0  0  0  0
  -25.2761   -9.5696   22.4751 H   0  0  0  0  0  0
  -24.0006   -7.4637   22.7463 H   0  0  0  0  0  0
  -21.0828   -8.8756   19.8960 H   0  0  0  0  0  0
  -22.3663  -10.9667   19.6169 H   0  0  0  0  0  0
  -21.1995   -7.6143   23.9711 H   0  0  0  0  0  0
  -21.1493   -6.0519   25.9075 H   0  0  0  0  0  0
  -22.0596   -2.7600   23.2850 H   0  0  0  0  0  0
  -22.4080  -11.9898   22.4850 H   0  0  0  0  0  0
  -21.1083  -13.1247   22.2624 H   0  0  0  0  0  0
  -24.6471  -15.8392   20.5201 H   0  0  0  0  0  0
  -26.2505  -15.6283   20.0357 H   0  0  0  0  0  0
  -26.7274  -32.5323   23.1026 H   0  0  0  0  0  0
  -25.0073  -33.9641   25.0329 H   0  0  0  0  0  0
  -22.7461  -31.2934   21.3859 H   0  0  0  0  0  0
  -23.3767  -35.9568   23.3265 H   0  0  0  0  0  0
  -24.3596  -36.8917   22.2065 H   0  0  0  0  0  0
  -23.7213  -37.6426   23.6699 H   0  0  0  0  0  0
  -26.1561  -31.4834   20.6208 H   0  0  0  0  0  0
  -26.8707  -30.7733   22.0326 H   0  0  0  0  0  0
  -28.1267  -28.8113   21.2486 H   0  0  0  0  0  0
  -25.9041  -25.8728   18.9829 H   0  0  0  0  0  0
  -23.9784  -27.3113   18.9793 H   0  0  0  0  0  0
  -23.7995  -30.5767   19.4018 H   0  0  0  0  0  0
  -22.7849  -29.2384   19.8480 H   0  0  0  0  0  0
  -25.1300  -36.1857   25.0808 H   0  0  0  0  0  0
  -21.0007  -28.3301   24.1371 H   0  0  0  0  0  0
  -20.5656  -26.2328   23.3647 H   0  0  0  0  0  0
  -21.6648  -26.7407   22.1233 H   0  0  0  0  0  0
  -19.6918  -25.6279   21.1274 H   0  0  0  0  0  0
  -19.6711  -27.3173   20.6751 H   0  0  0  0  0  0
  -17.4213  -26.6707   21.4013 H   0  0  0  0  0  0
  -18.0307  -26.0071   22.9006 H   0  0  0  0  0  0
  -19.7945  -30.7298   24.2237 H   0  0  0  0  0  0
  -17.5018  -31.6275   24.5152 H   0  0  0  0  0  0
  -15.5359  -30.2975   23.7682 H   0  0  0  0  0  0
  -15.8682  -28.0815   22.7087 H   0  0  0  0  0  0
  -24.5902  -30.7103   25.7763 H   0  0  0  0  0  0
  -24.8872  -32.2975   26.4751 H   0  0  0  0  0  0
  -25.7988  -30.9041   27.0261 H   0  0  0  0  0  0
  -26.2973  -29.6689   24.1304 H   0  0  0  0  0  0
  -27.3933  -29.7252   25.4898 H   0  0  0  0  0  0
  -27.8907  -30.4165   23.9652 H   0  0  0  0  0  0
  -27.2691  -33.3638   26.2027 H   0  0  0  0  0  0
  -28.3897  -32.6839   25.0315 H   0  0  0  0  0  0
  -28.0726  -31.8460   26.5423 H   0  0  0  0  0  0
  -28.2555  -38.0107   24.7558 H   0  0  0  0  0  0
  -28.1124  -36.2640   24.6172 H   0  0  0  0  0  0
  -27.2330  -37.1283   25.8857 H   0  0  0  0  0  0
  -20.9446  -29.8749   21.6799 H   0  0  0  0  0  0
  -26.0134  -38.2813   24.1481 H   0  0  0  0  0  0
  -27.0946  -19.8485   21.2116 H   0  0  0  0  0  0
  -27.5366  -17.4859   21.3652 H   0  0  0  0  0  0
  -31.5100  -18.1000   19.9183 H   0  0  0  0  0  0
  -27.3768  -21.9930   20.3024 H   0  0  0  0  0  0
  -29.9430  -23.5736   20.2260 H   0  0  0  0  0  0
  -32.3293  -20.2574   19.5426 H   0  0  0  0  0  0
  -31.5511  -21.6205   20.3402 H   0  0  0  0  0  0
  -31.1443  -21.2267   18.6645 H   0  0  0  0  0  0
  -27.0050  -24.4610   20.5539 H   0  0  0  0  0  0
  -27.6493  -24.5928   18.9453 H   0  0  0  0  0  0
  -28.7778  -15.5630   21.0492 H   0  0  0  0  0  0
  1 25  1  0  0  0
  1 30  2  0  0  0
  1 81  1  0  0  0
  2  3  1  0  0  0
  2 25  1  0  0  0
  2 82  1  0  0  0
  2 83  1  0  0  0
  3  4  1  0  0  0
  3 84  1  0  0  0
  3 85  1  0  0  0
  4  5  1  0  0  0
  4 86  1  0  0  0
  4 87  1  0  0  0
  5  6  1  0  0  0
  5 26  1  0  0  0
  5 88  1  0  0  0
  6 25  1  0  0  0
  6 89  1  0  0  0
  6 90  1  0  0  0
  7  8  2  0  0  0
  7 26  1  0  0  0
  7 29  1  0  0  0
  8  9  1  0  0  0
  8 22  1  0  0  0
  9 10  1  0  0  0
  9 27  2  0  0  0
 10 11  2  0  0  0
 10 15  1  0  0  0
 11 12  1  0  0  0
 11 91  1  0  0  0
 12 13  2  0  0  0
 12 92  1  0  0  0
 13 14  1  0  0  0
 13 31  1  0  0  0
 14 15  2  0  0  0
 14 93  1  0  0  0
 15 94  1  0  0  0
 16 17  2  0  0  0
 16 21  1  0  0  0
 16 31  1  0  0  0
 17 18  1  0  0  0
 17 95  1  0  0  0
 18 19  2  0  0  0
 18 96  1  0  0  0
 19 20  1  0  0  0
 19 24  1  0  0  0
 20 21  2  0  0  0
 20 97  1  0  0  0
 21 23  1  0  0  0
 22 28  1  0  0  0
 22 32  2  0  0  0
 26 27  1  0  0  0
 28 98  1  0  0  0
 28 99  1  0  0  0
 29100  1  0  0  0
 29101  1  0  0  0
 33 34  1  0  0  0
 33 66  1  0  0  0
 33 70  2  0  0  0
 34 36  1  0  0  0
 34 59  1  0  0  0
 34102  1  0  0  0
 35 44  2  0  0  0
 35 45  1  0  0  0
 35 68  1  0  0  0
 36 56  1  0  0  0
 36103  1  0  0  0
 37 39  1  0  0  0
 37 47  1  0  0  0
 37 66  1  0  0  0
 37104  1  0  0  0
 38 43  2  0  0  0
 38 46  1  0  0  0
 38 47  1  0  0  0
 39 64  1  0  0  0
 39 67  2  0  0  0
 40 52  1  0  0  0
 40 53  2  0  0  0
 40 58  1  0  0  0
 41105  1  0  0  0
 41106  1  0  0  0
 41107  1  0  0  0
 41 48  1  0  0  0
 42 43  1  0  0  0
 42 66  1  0  0  0
 42108  1  0  0  0
 42109  1  0  0  0
 43 44  1  0  0  0
 44110  1  0  0  0
 45 46  2  0  0  0
 45111  1  0  0  0
 46112  1  0  0  0
 47113  1  0  0  0
 47114  1  0  0  0
 48 56  1  0  0  0
 48 65  1  0  0  0
 48115  1  0  0  0
 49 50  1  0  0  0
 49 53  1  0  0  0
 49 64  1  0  0  0
 49116  1  0  0  0
 50 51  1  0  0  0
 50117  1  0  0  0
 50118  1  0  0  0
 51 52  1  0  0  0
 51119  1  0  0  0
 51120  1  0  0  0
 52121  1  0  0  0
 52122  1  0  0  0
 53 54  1  0  0  0
 54 55  2  0  0  0
 54123  1  0  0  0
 55 57  1  0  0  0
 55124  1  0  0  0
 56 69  2  0  0  0
 57 58  2  0  0  0
 57125  1  0  0  0
 58126  1  0  0  0
 59 60  1  0  0  0
 59 61  1  0  0  0
 59 62  1  0  0  0
 60127  1  0  0  0
 60128  1  0  0  0
 60129  1  0  0  0
 61130  1  0  0  0
 61131  1  0  0  0
 61132  1  0  0  0
 62133  1  0  0  0
 62134  1  0  0  0
 62135  1  0  0  0
 63 65  1  0  0  0
 63136  1  0  0  0
 63137  1  0  0  0
 63138  1  0  0  0
 64139  1  0  0  0
 65140  1  0  0  0
 68 80  1  0  0  0
 71 72  2  0  0  0
 71 74  1  0  0  0
 71141  1  0  0  0
 72 76  1  0  0  0
 72142  1  0  0  0
 73 75  1  0  0  0
 73 76  2  0  0  0
 73143  1  0  0  0
 74 75  2  0  0  0
 74 77  1  0  0  0
 75 79  1  0  0  0
 76 81  1  0  0  0
 77 78  2  0  0  0
 77144  1  0  0  0
 78 80  1  0  0  0
 78145  1  0  0  0
 79146  1  0  0  0
 79147  1  0  0  0
 79148  1  0  0  0
 80149  1  0  0  0
 80150  1  0  0  0
 81151  1  0  0  0
M  ISO  4   1 100  68 101  80 101  81 100
M  END
> <chiral flag>
0

> <version>
0

> <s_m_source_file>
/data/baiqing/PycharmProjects/Reinvent-master-3.2/result/LINK_invent/BTK/process_docking_weight1_custom_product_contain_oxygen_bond_distance_aromatic_linkinvent_7_9_3/rearranged_h_0044.sdf

> <i_m_source_file_index>
20

> <r_mmod_Potential_Energy-OPLS-2005>
412.169677734375

> <r_mmod_Stretch_Energy-OPLS-2005>
204.592926025391

> <r_mmod_Bend_Energy-OPLS-2005>
267.703277587891

> <r_mmod_Torsional_Energy-OPLS-2005>
216.395874023438

> <r_mmod_Improper_Torsional_Energy-OPLS-2005>
4.14633846282959

> <r_mmod_Van_der_Waal_Energy-OPLS-2005>
134.448745727539

> <r_mmod_Electrostatic_Energy-OPLS-2005>
-371.309295654297

> <r_mmod_Solvation_Energy-OPLS-2005>
-208.348007202148

> <b_mmod_Minimization_Converged-OPLS-2005>
0

> <r_mmod_RMS_Derivative-OPLS-2005>
1.41228055953979

$$$$
20
                    3D
 Structure written by MMmdl.
161170  0  0  1  0            999 V2000
  -30.6215  -14.7722   20.4651 C   0  0  0  0  0  0
  -30.4346  -12.4784   19.4711 C   0  0  0  0  0  0
  -29.5095  -12.5086   18.2370 C   0  0  0  0  0  0
  -28.0374  -12.3268   18.6544 C   0  0  0  0  0  0
  -27.6392  -13.2359   19.8471 C   0  0  2  0  0  0
  -28.6881  -13.1952   20.9785 C   0  0  0  0  0  0
  -25.2494  -13.8194   20.5669 C   0  0  0  0  0  0
  -24.1807  -13.0440   20.9226 C   0  0  0  0  0  0
  -24.6407  -11.6917   20.8770 C   0  0  0  0  0  0
  -23.9091  -10.4293   21.0412 C   0  0  0  0  0  0
  -24.3642   -9.4201   21.9188 C   0  0  0  0  0  0
  -23.6319   -8.2234   22.0748 C   0  0  0  0  0  0
  -22.4300   -8.0275   21.3534 C   0  0  0  0  0  0
  -21.9930   -9.0255   20.4643 C   0  0  0  0  0  0
  -22.7257  -10.2140   20.3061 C   0  0  0  0  0  0
  -21.6865   -6.0733   22.5278 C   0  0  0  0  0  0
  -21.4020   -6.5632   23.8209 C   0  0  0  0  0  0
  -21.3669   -5.6779   24.9166 C   0  0  0  0  0  0
  -21.6064   -4.3043   24.7217 C   0  0  0  0  0  0
  -21.8816   -3.8141   23.4331 C   0  0  0  0  0  0
  -21.9195   -4.6962   22.3394 C   0  0  0  0  0  0
  -22.7826  -13.5213   21.1879 C   0  0  0  0  0  0
  -22.1662   -4.2147   21.0968 F   0  0  0  0  0  0
  -21.5633   -3.4528   25.7730 F   0  0  0  0  0  0
  -29.9817  -13.5526   20.3847 N   0  0  0  0  0  0
  -26.2936  -12.9418   20.3289 N   0  0  0  0  0  0
  -25.9347  -11.6557   20.5794 N   0  0  0  0  0  0
  -22.0459  -12.8220   22.0436 N   0  0  0  0  0  0
  -25.4131  -15.1919   20.3982 N   0  0  0  0  0  0
  -31.8215  -14.8403   20.1876 O   0  0  0  0  0  0
  -21.6649   -6.8883   21.4242 O   0  0  0  0  0  0
  -22.3508  -14.5500   20.6686 O   0  0  0  0  0  0
  -24.6319  -31.8530   23.1942 C   0  0  0  0  0  0
  -25.9137  -32.4742   23.8302 C   0  0  1  0  0  0
  -27.2362  -27.2524   20.1494 C   0  0  0  0  0  0
  -25.5915  -33.8546   24.2211 N   0  0  0  0  0  0
  -23.4301  -30.4722   21.5383 C   0  0  2  0  0  0
  -24.8817  -28.9046   20.1194 C   0  0  0  0  0  0
  -22.7506  -29.4590   22.4917 C   0  0  0  0  0  0
  -18.0293  -28.1390   22.8488 C   0  0  0  0  0  0
  -24.1489  -36.7287   23.2636 C   0  0  0  0  0  0
  -25.9752  -30.7659   21.3725 C   0  0  0  0  0  0
  -26.0520  -29.3835   20.7221 C   0  0  0  0  0  0
  -27.2336  -28.5737   20.7153 C   0  0  0  0  0  0
  -26.0399  -26.8293   19.5337 C   0  0  0  0  0  0
  -24.8812  -27.6364   19.5124 C   0  0  0  0  0  0
  -23.6512  -29.7948   20.1590 C   0  0  0  0  0  0
  -25.4114  -36.3063   24.0315 C   0  0  1  0  0  0
  -20.5899  -28.3699   23.1276 C   0  0  2  0  0  0
  -20.6780  -26.9412   22.5423 C   0  0  0  0  0  0
  -19.5759  -26.6382   21.5224 C   0  0  0  0  0  0
  -18.1935  -26.7936   22.1622 C   0  0  0  0  0  0
  -19.1546  -28.8860   23.2877 C   0  0  0  0  0  0
  -18.9465  -30.1462   23.8895 C   0  0  0  0  0  0
  -17.6464  -30.6592   24.0567 C   0  0  0  0  0  0
  -25.9058  -34.9437   23.5073 C   0  0  0  0  0  0
  -16.5357  -29.9092   23.6329 C   0  0  0  0  0  0
  -16.7280  -28.6508   23.0349 C   0  0  0  0  0  0
  -26.4493  -31.6581   25.0708 C   0  0  0  0  0  0
  -25.3703  -31.3764   26.1423 C   0  0  0  0  0  0
  -27.0312  -30.2977   24.6210 C   0  0  0  0  0  0
  -27.6040  -32.4332   25.7486 C   0  0  0  0  0  0
  -27.5592  -37.1772   24.8440 C   0  0  0  0  0  0
  -21.4208  -29.3040   22.3656 N   0  0  0  0  0  0
  -26.4272  -37.3782   23.9430 N   0  0  0  0  0  0
  -24.6985  -31.0495   22.0917 N   0  0  0  0  0  0
  -23.4195  -28.8147   23.3045 O   0  0  0  0  0  0
  -28.3619  -26.3956   20.1200 O   0  0  0  0  0  0
  -26.5663  -34.8926   22.4663 O   0  0  0  0  0  0
  -23.5468  -32.1356   23.7231 O   0  0  0  0  0  0
  -31.3975  -17.5831   21.6272 C   0  0  0  0  0  0
  -31.7290  -18.8743   22.0786 C   0  0  0  0  0  0
  -29.4541  -18.5432   20.5250 C   0  0  0  0  0  0
  -29.7853  -19.9078   20.9549 C   0  0  0  0  0  0
  -30.2328  -17.3483   20.8669 C   0  0  0  0  0  0
  -30.9306  -19.9992   21.7927 C   0  0  0  0  0  0
  -30.6039  -23.0033   19.9883 C   0  0  0  0  0  0
  -31.5425  -22.4075   19.2334 C   0  0  0  0  0  0
  -30.8122  -24.3033   20.7802 C   0  0  0  0  0  0
  -29.5950  -24.8276   21.5748 C   0  0  0  0  0  0
  -28.1650  -23.6498   19.8539 C   0  0  0  0  0  0
  -28.3344  -25.0065   20.7169 C   0  0  2  0  0  0
  -28.8425  -21.2123   20.7809 C   0  0  0  0  0  0
  -29.8509  -15.9310   20.5887 N   0  0  0  0  0  0
  -29.1946  -22.4974   19.9771 N   0  3  2  0  0  0
  -31.3501  -21.4613   22.6086 Cl  0  0  0  0  0  0
  -31.4720  -12.6106   19.1599 H   0  0  0  0  0  0
  -30.3916  -11.5075   19.9669 H   0  0  0  0  0  0
  -29.7945  -11.7252   17.5344 H   0  0  0  0  0  0
  -29.6310  -13.4569   17.7089 H   0  0  0  0  0  0
  -27.9008  -11.2800   18.9277 H   0  0  0  0  0  0
  -27.3781  -12.5061   17.8045 H   0  0  0  0  0  0
  -27.6237  -14.2526   19.4556 H   0  0  0  0  0  0
  -28.7333  -12.2036   21.4328 H   0  0  0  0  0  0
  -28.4238  -13.8888   21.7784 H   0  0  0  0  0  0
  -25.2787   -9.5676   22.4772 H   0  0  0  0  0  0
  -24.0026   -7.4620   22.7455 H   0  0  0  0  0  0
  -21.0857   -8.8784   19.8949 H   0  0  0  0  0  0
  -22.3711  -10.9690   19.6184 H   0  0  0  0  0  0
  -21.2003   -7.6141   23.9720 H   0  0  0  0  0  0
  -21.1507   -6.0499   25.9072 H   0  0  0  0  0  0
  -22.0588   -2.7602   23.2829 H   0  0  0  0  0  0
  -22.4078  -11.9928   22.4909 H   0  0  0  0  0  0
  -21.1063  -13.1250   22.2600 H   0  0  0  0  0  0
  -24.6252  -15.8282   20.4603 H   0  0  0  0  0  0
  -26.2376  -15.6253   20.0038 H   0  0  0  0  0  0
  -26.7207  -32.5396   23.1044 H   0  0  0  0  0  0
  -24.9989  -33.9676   25.0304 H   0  0  0  0  0  0
  -22.7272  -31.2937   21.3869 H   0  0  0  0  0  0
  -23.3779  -35.9585   23.3210 H   0  0  0  0  0  0
  -24.3597  -36.9019   22.2072 H   0  0  0  0  0  0
  -23.7200  -37.6434   23.6737 H   0  0  0  0  0  0
  -26.1095  -31.5239   20.6005 H   0  0  0  0  0  0
  -26.8529  -30.8201   22.0046 H   0  0  0  0  0  0
  -28.1377  -28.9481   21.1745 H   0  0  0  0  0  0
  -25.9987  -25.8561   19.0652 H   0  0  0  0  0  0
  -23.9845  -27.2645   19.0349 H   0  0  0  0  0  0
  -23.7753  -30.5662   19.3989 H   0  0  0  0  0  0
  -22.7694  -29.2267   19.8567 H   0  0  0  0  0  0
  -25.1294  -36.1880   25.0805 H   0  0  0  0  0  0
  -20.9982  -28.3289   24.1401 H   0  0  0  0  0  0
  -20.5678  -26.2313   23.3633 H   0  0  0  0  0  0
  -21.6650  -26.7441   22.1218 H   0  0  0  0  0  0
  -19.6917  -25.6285   21.1269 H   0  0  0  0  0  0
  -19.6706  -27.3183   20.6747 H   0  0  0  0  0  0
  -17.4210  -26.6700   21.4015 H   0  0  0  0  0  0
  -18.0315  -26.0076   22.9012 H   0  0  0  0  0  0
  -19.7940  -30.7287   24.2262 H   0  0  0  0  0  0
  -17.5014  -31.6272   24.5169 H   0  0  0  0  0  0
  -15.5350  -30.2991   23.7654 H   0  0  0  0  0  0
  -15.8677  -28.0829   22.7053 H   0  0  0  0  0  0
  -24.5845  -30.7153   25.7748 H   0  0  0  0  0  0
  -24.8935  -32.2951   26.4853 H   0  0  0  0  0  0
  -25.7996  -30.8919   27.0197 H   0  0  0  0  0  0
  -26.2874  -29.6738   24.1232 H   0  0  0  0  0  0
  -27.3952  -29.7251   25.4752 H   0  0  0  0  0  0
  -27.8787  -30.4223   23.9463 H   0  0  0  0  0  0
  -27.2633  -33.3650   26.2020 H   0  0  0  0  0  0
  -28.3872  -32.6861   25.0326 H   0  0  0  0  0  0
  -28.0668  -31.8476   26.5439 H   0  0  0  0  0  0
  -28.2530  -38.0149   24.7599 H   0  0  0  0  0  0
  -28.1166  -36.2687   24.6105 H   0  0  0  0  0  0
  -27.2337  -37.1227   25.8844 H   0  0  0  0  0  0
  -20.9392  -29.8726   21.6821 H   0  0  0  0  0  0
  -26.0136  -38.2831   24.1516 H   0  0  0  0  0  0
  -32.0281  -16.7631   21.9388 H   0  0  0  0  0  0
  -32.5916  -18.9930   22.7196 H   0  0  0  0  0  0
  -28.5436  -18.4047   19.9589 H   0  0  0  0  0  0
  -32.5466  -22.8033   19.1829 H   0  0  0  0  0  0
  -31.3337  -21.5270   18.6421 H   0  0  0  0  0  0
  -31.1382  -25.0704   20.0772 H   0  0  0  0  0  0
  -31.6484  -24.1599   21.4665 H   0  0  0  0  0  0
  -29.8395  -25.7674   22.0704 H   0  0  0  0  0  0
  -29.3794  -24.1227   22.3796 H   0  0  0  0  0  0
  -28.1894  -23.9500   18.8061 H   0  0  0  0  0  0
  -27.1623  -23.2469   20.0011 H   0  0  0  0  0  0
  -27.5041  -25.0269   21.4252 H   0  0  0  0  0  0
  -28.5968  -21.5403   21.7906 H   0  0  0  0  0  0
  -27.9010  -20.8484   20.3705 H   0  0  0  0  0  0
  -28.8583  -15.7612   20.5463 H   0  0  0  0  0  0
  -29.1009  -22.0990   19.0556 H   0  0  0  0  0  0
  1 25  1  0  0  0
  1 30  2  0  0  0
  1 84  1  0  0  0
  2  3  1  0  0  0
  2 25  1  0  0  0
  2 87  1  0  0  0
  2 88  1  0  0  0
  3  4  1  0  0  0
  3 89  1  0  0  0
  3 90  1  0  0  0
  4  5  1  0  0  0
  4 91  1  0  0  0
  4 92  1  0  0  0
  5  6  1  0  0  0
  5 26  1  0  0  0
  5 93  1  0  0  0
  6 25  1  0  0  0
  6 94  1  0  0  0
  6 95  1  0  0  0
  7  8  2  0  0  0
  7 26  1  0  0  0
  7 29  1  0  0  0
  8  9  1  0  0  0
  8 22  1  0  0  0
  9 10  1  0  0  0
  9 27  2  0  0  0
 10 11  2  0  0  0
 10 15  1  0  0  0
 11 12  1  0  0  0
 11 96  1  0  0  0
 12 13  2  0  0  0
 12 97  1  0  0  0
 13 14  1  0  0  0
 13 31  1  0  0  0
 14 15  2  0  0  0
 14 98  1  0  0  0
 15 99  1  0  0  0
 16 17  2  0  0  0
 16 21  1  0  0  0
 16 31  1  0  0  0
 17 18  1  0  0  0
 17100  1  0  0  0
 18 19  2  0  0  0
 18101  1  0  0  0
 19 20  1  0  0  0
 19 24  1  0  0  0
 20 21  2  0  0  0
 20102  1  0  0  0
 21 23  1  0  0  0
 22 28  1  0  0  0
 22 32  2  0  0  0
 26 27  1  0  0  0
 28103  1  0  0  0
 28104  1  0  0  0
 29105  1  0  0  0
 29106  1  0  0  0
 33 34  1  0  0  0
 33 66  1  0  0  0
 33 70  2  0  0  0
 34 36  1  0  0  0
 34 59  1  0  0  0
 34107  1  0  0  0
 35 44  2  0  0  0
 35 45  1  0  0  0
 35 68  1  0  0  0
 36 56  1  0  0  0
 36108  1  0  0  0
 37 39  1  0  0  0
 37 47  1  0  0  0
 37 66  1  0  0  0
 37109  1  0  0  0
 38 43  2  0  0  0
 38 46  1  0  0  0
 38 47  1  0  0  0
 39 64  1  0  0  0
 39 67  2  0  0  0
 40 52  1  0  0  0
 40 53  2  0  0  0
 40 58  1  0  0  0
 41110  1  0  0  0
 41111  1  0  0  0
 41112  1  0  0  0
 41 48  1  0  0  0
 42 43  1  0  0  0
 42 66  1  0  0  0
 42113  1  0  0  0
 42114  1  0  0  0
 43 44  1  0  0  0
 44115  1  0  0  0
 45 46  2  0  0  0
 45116  1  0  0  0
 46117  1  0  0  0
 47118  1  0  0  0
 47119  1  0  0  0
 48 56  1  0  0  0
 48 65  1  0  0  0
 48120  1  0  0  0
 49 50  1  0  0  0
 49 53  1  0  0  0
 49 64  1  0  0  0
 49121  1  0  0  0
 50 51  1  0  0  0
 50122  1  0  0  0
 50123  1  0  0  0
 51 52  1  0  0  0
 51124  1  0  0  0
 51125  1  0  0  0
 52126  1  0  0  0
 52127  1  0  0  0
 53 54  1  0  0  0
 54 55  2  0  0  0
 54128  1  0  0  0
 55 57  1  0  0  0
 55129  1  0  0  0
 56 69  2  0  0  0
 57 58  2  0  0  0
 57130  1  0  0  0
 58131  1  0  0  0
 59 60  1  0  0  0
 59 61  1  0  0  0
 59 62  1  0  0  0
 60132  1  0  0  0
 60133  1  0  0  0
 60134  1  0  0  0
 61135  1  0  0  0
 61136  1  0  0  0
 61137  1  0  0  0
 62138  1  0  0  0
 62139  1  0  0  0
 62140  1  0  0  0
 63 65  1  0  0  0
 63141  1  0  0  0
 63142  1  0  0  0
 63143  1  0  0  0
 64144  1  0  0  0
 65145  1  0  0  0
 68 82  1  0  0  0
 71 72  2  0  0  0
 71 75  1  0  0  0
 71146  1  0  0  0
 72 76  1  0  0  0
 72147  1  0  0  0
 73 74  1  0  0  0
 73 75  2  0  0  0
 73148  1  0  0  0
 74 76  2  0  0  0
 74 83  1  0  0  0
 75 84  1  0  0  0
 76 86  1  0  0  0
 77 78  2  0  0  0
 77 79  1  0  0  0
 77 85  1  0  0  0
 78149  1  0  0  0
 78150  1  0  0  0
 79 80  1  0  0  0
 79151  1  0  0  0
 79152  1  0  0  0
 80 82  1  0  0  0
 80153  1  0  0  0
 80154  1  0  0  0
 81 82  1  0  0  0
 81 85  1  0  0  0
 81155  1  0  0  0
 81156  1  0  0  0
 82157  1  0  0  0
 83158  1  0  0  0
 83159  1  0  0  0
 83 85  1  0  0  0
 84160  1  0  0  0
 85161  1  0  0  0
M  CHG  1  85   1
M  ISO  4   1 100  68 101  82 101  84 100
M  END
> <chiral flag>
0

> <version>
0

> <s_m_source_file>
/data/baiqing/PycharmProjects/Reinvent-master-3.2/result/LINK_invent/BTK/process_docking_weight1_custom_product_contain_oxygen_bond_distance_aromatic_linkinvent_7_9_3/rearranged_h_0044.sdf

> <i_m_source_file_index>
21

> <r_mmod_Potential_Energy-OPLS-2005>
132.21484375

> <r_mmod_Stretch_Energy-OPLS-2005>
144.350814819336

> <r_mmod_Bend_Energy-OPLS-2005>
214.183898925781

> <r_mmod_Torsional_Energy-OPLS-2005>
276.542907714844

> <r_mmod_Improper_Torsional_Energy-OPLS-2005>
8.83170413970947

> <r_mmod_Van_der_Waal_Energy-OPLS-2005>
132.561248779297

> <r_mmod_Electrostatic_Energy-OPLS-2005>
-303.61572265625

> <r_mmod_Solvation_Energy-OPLS-2005>
-431.509643554688

> <b_mmod_Minimization_Converged-OPLS-2005>
0

> <r_mmod_RMS_Derivative-OPLS-2005>
2.43698287010193

$$$$
21
                    3D
 Structure written by MMmdl.
165173  0  0  1  0            999 V2000
  -30.6148  -14.7637   20.4755 C   0  0  0  0  0  0
  -30.4232  -12.4741   19.4999 C   0  0  0  0  0  0
  -29.5082  -12.5366   18.2563 C   0  0  0  0  0  0
  -28.0341  -12.3591   18.6651 C   0  0  0  0  0  0
  -27.6388  -13.2425   19.8744 C   0  0  2  0  0  0
  -28.6827  -13.1947   21.0115 C   0  0  0  0  0  0
  -25.2469  -13.8225   20.5813 C   0  0  0  0  0  0
  -24.1802  -13.0480   20.9269 C   0  0  0  0  0  0
  -24.6392  -11.6942   20.8812 C   0  0  0  0  0  0
  -23.9070  -10.4313   21.0432 C   0  0  0  0  0  0
  -24.3603   -9.4232   21.9232 C   0  0  0  0  0  0
  -23.6296   -8.2259   22.0788 C   0  0  0  0  0  0
  -22.4284   -8.0286   21.3553 C   0  0  0  0  0  0
  -21.9932   -9.0262   20.4647 C   0  0  0  0  0  0
  -22.7245  -10.2145   20.3081 C   0  0  0  0  0  0
  -21.6852   -6.0742   22.5273 C   0  0  0  0  0  0
  -21.4014   -6.5656   23.8204 C   0  0  0  0  0  0
  -21.3670   -5.6821   24.9175 C   0  0  0  0  0  0
  -21.6034   -4.3075   24.7219 C   0  0  0  0  0  0
  -21.8823   -3.8157   23.4335 C   0  0  0  0  0  0
  -21.9185   -4.6974   22.3385 C   0  0  0  0  0  0
  -22.7811  -13.5229   21.1911 C   0  0  0  0  0  0
  -22.1661   -4.2162   21.0955 F   0  0  0  0  0  0
  -21.5632   -3.4553   25.7734 F   0  0  0  0  0  0
  -29.9819  -13.5421   20.4283 N   0  0  0  0  0  0
  -26.2919  -12.9468   20.3445 N   0  0  0  0  0  0
  -25.9335  -11.6577   20.5871 N   0  0  0  0  0  0
  -22.0436  -12.8198   22.0379 N   0  0  0  0  0  0
  -25.4179  -15.1976   20.4243 N   0  0  0  0  0  0
  -31.8027  -14.8188   20.1475 O   0  0  0  0  0  0
  -21.6643   -6.8882   21.4237 O   0  0  0  0  0  0
  -22.3515  -14.5590   20.6800 O   0  0  0  0  0  0
  -24.6316  -31.8529   23.2118 C   0  0  0  0  0  0
  -25.9120  -32.4699   23.8431 C   0  0  1  0  0  0
  -27.1545  -27.2551   20.0674 C   0  0  0  0  0  0
  -25.5893  -33.8529   24.2246 N   0  0  0  0  0  0
  -23.4183  -30.4855   21.5648 C   0  0  2  0  0  0
  -24.8394  -28.9573   20.0995 C   0  0  0  0  0  0
  -22.7501  -29.4522   22.5042 C   0  0  0  0  0  0
  -18.0224  -28.1304   22.8461 C   0  0  0  0  0  0
  -24.1478  -36.7410   23.2645 C   0  0  0  0  0  0
  -25.9708  -30.7496   21.3984 C   0  0  0  0  0  0
  -26.0163  -29.3826   20.7254 C   0  0  0  0  0  0
  -27.1727  -28.5383   20.7149 C   0  0  0  0  0  0
  -25.9548  -26.9188   19.3971 C   0  0  0  0  0  0
  -24.8149  -27.7357   19.4223 C   0  0  0  0  0  0
  -23.6240  -29.8605   20.1659 C   0  0  0  0  0  0
  -25.4065  -36.3062   24.0335 C   0  0  1  0  0  0
  -20.5824  -28.3592   23.1375 C   0  0  2  0  0  0
  -20.6715  -26.9346   22.5449 C   0  0  0  0  0  0
  -19.5701  -26.6308   21.5250 C   0  0  0  0  0  0
  -18.1847  -26.7832   22.1613 C   0  0  0  0  0  0
  -19.1480  -28.8770   23.2858 C   0  0  0  0  0  0
  -18.9421  -30.1375   23.8858 C   0  0  0  0  0  0
  -17.6427  -30.6521   24.0536 C   0  0  0  0  0  0
  -25.9018  -34.9430   23.5088 C   0  0  0  0  0  0
  -16.5306  -29.9022   23.6334 C   0  0  0  0  0  0
  -16.7214  -28.6430   23.0367 C   0  0  0  0  0  0
  -26.4431  -31.6604   25.0923 C   0  0  0  0  0  0
  -25.3720  -31.3764   26.1734 C   0  0  0  0  0  0
  -27.0341  -30.3022   24.6498 C   0  0  0  0  0  0
  -27.5853  -32.4500   25.7726 C   0  0  0  0  0  0
  -27.5538  -37.1834   24.8438 C   0  0  0  0  0  0
  -21.4202  -29.2970   22.3865 N   0  0  0  0  0  0
  -26.4212  -37.3785   23.9434 N   0  0  0  0  0  0
  -24.6934  -31.0479   22.1134 N   0  0  0  0  0  0
  -23.4220  -28.7982   23.3052 O   0  0  0  0  0  0
  -28.2366  -26.3445   20.1048 O   0  0  0  0  0  0
  -26.5660  -34.8896   22.4709 O   0  0  0  0  0  0
  -23.5479  -32.1423   23.7423 O   0  0  0  0  0  0
  -31.7309  -19.0958   19.6940 C   0  0  0  0  0  0
  -30.8610  -20.1434   20.0224 C   0  0  0  0  0  0
  -31.3984  -17.7535   19.9442 C   0  0  0  0  0  0
  -29.6024  -19.8875   20.5984 C   0  0  0  0  0  0
  -29.2563  -18.4801   20.8511 C   0  0  0  0  0  0
  -30.1633  -17.3705   20.5269 C   0  0  0  0  0  0
  -28.8310  -21.1586   20.9679 C   0  0  0  0  0  0
  -27.9037  -18.1532   21.4771 C   0  0  0  0  0  0
  -28.7984  -23.6173   17.3946 C   0  0  0  0  0  0
  -28.4407  -26.0848   17.2903 C   0  0  0  0  0  0
  -28.5800  -23.7964   20.6548 C   0  0  0  0  0  0
  -28.9158  -24.9318   18.2078 C   0  0  0  0  0  0
  -28.1450  -24.9285   19.5808 C   0  0  2  0  0  0
  -28.1691  -21.1602   22.1231 N   0  0  0  0  0  0
  -29.8598  -15.9149   20.7215 N   0  0  0  0  0  0
  -28.8628  -22.3407   20.2443 N   0  3  0  0  0  0
  -31.4683  -12.5897   19.2050 H   0  0  0  0  0  0
  -30.3574  -11.5025   19.9912 H   0  0  0  0  0  0
  -29.7947  -11.7774   17.5286 H   0  0  0  0  0  0
  -29.6312  -13.4987   17.7558 H   0  0  0  0  0  0
  -27.8857  -11.3097   18.9140 H   0  0  0  0  0  0
  -27.3779  -12.5744   17.8208 H   0  0  0  0  0  0
  -27.6268  -14.2659   19.4987 H   0  0  0  0  0  0
  -28.7278  -12.2108   21.4790 H   0  0  0  0  0  0
  -28.4257  -13.8949   21.8088 H   0  0  0  0  0  0
  -25.2711   -9.5719   22.4875 H   0  0  0  0  0  0
  -23.9989   -7.4640   22.7530 H   0  0  0  0  0  0
  -21.0878   -8.8766   19.8942 H   0  0  0  0  0  0
  -22.3693  -10.9708   19.6217 H   0  0  0  0  0  0
  -21.2009   -7.6179   23.9703 H   0  0  0  0  0  0
  -21.1519   -6.0561   25.9077 H   0  0  0  0  0  0
  -22.0594   -2.7621   23.2830 H   0  0  0  0  0  0
  -22.4049  -11.9779   22.4633 H   0  0  0  0  0  0
  -21.1075  -13.1206   22.2661 H   0  0  0  0  0  0
  -24.6410  -15.8436   20.5144 H   0  0  0  0  0  0
  -26.2525  -15.6299   20.0524 H   0  0  0  0  0  0
  -26.7197  -32.5209   23.1172 H   0  0  0  0  0  0
  -24.9855  -33.9655   25.0257 H   0  0  0  0  0  0
  -22.7100  -31.3083   21.4463 H   0  0  0  0  0  0
  -23.3652  -35.9820   23.3189 H   0  0  0  0  0  0
  -24.3567  -36.9176   22.2077 H   0  0  0  0  0  0
  -23.7351  -37.6643   23.6746 H   0  0  0  0  0  0
  -26.1413  -31.5187   20.6424 H   0  0  0  0  0  0
  -26.8413  -30.7609   22.0439 H   0  0  0  0  0  0
  -28.0573  -28.8548   21.2483 H   0  0  0  0  0  0
  -25.8366  -26.0254   18.8123 H   0  0  0  0  0  0
  -23.9231  -27.4290   18.8895 H   0  0  0  0  0  0
  -23.7777  -30.6770   19.4590 H   0  0  0  0  0  0
  -22.7271  -29.3367   19.8264 H   0  0  0  0  0  0
  -25.1249  -36.1847   25.0826 H   0  0  0  0  0  0
  -20.9735  -28.3034   24.1567 H   0  0  0  0  0  0
  -20.5596  -26.2200   23.3612 H   0  0  0  0  0  0
  -21.6588  -26.7393   22.1258 H   0  0  0  0  0  0
  -19.6919  -25.6240   21.1247 H   0  0  0  0  0  0
  -19.6604  -27.3149   20.6792 H   0  0  0  0  0  0
  -17.4159  -26.6614   21.3941 H   0  0  0  0  0  0
  -18.0142  -25.9950   22.8972 H   0  0  0  0  0  0
  -19.7924  -30.7213   24.2139 H   0  0  0  0  0  0
  -17.5011  -31.6173   24.5202 H   0  0  0  0  0  0
  -15.5314  -30.2923   23.7707 H   0  0  0  0  0  0
  -15.8593  -28.0777   22.7082 H   0  0  0  0  0  0
  -24.5739  -30.7192   25.8261 H   0  0  0  0  0  0
  -24.9074  -32.2921   26.5406 H   0  0  0  0  0  0
  -25.8134  -30.8861   27.0418 H   0  0  0  0  0  0
  -26.3005  -29.6739   24.1417 H   0  0  0  0  0  0
  -27.3886  -29.7303   25.5089 H   0  0  0  0  0  0
  -27.8910  -30.4340   23.9879 H   0  0  0  0  0  0
  -27.2238  -33.3739   26.2277 H   0  0  0  0  0  0
  -28.3639  -32.7221   25.0592 H   0  0  0  0  0  0
  -28.0530  -31.8729   26.5716 H   0  0  0  0  0  0
  -28.2518  -38.0177   24.7516 H   0  0  0  0  0  0
  -28.1036  -36.2701   24.6122 H   0  0  0  0  0  0
  -27.2279  -37.1425   25.8848 H   0  0  0  0  0  0
  -20.9346  -29.8908   21.7307 H   0  0  0  0  0  0
  -26.0043  -38.2850   24.1381 H   0  0  0  0  0  0
  -32.6885  -19.3241   19.2509 H   0  0  0  0  0  0
  -31.1912  -21.1592   19.8450 H   0  0  0  0  0  0
  -32.1436  -17.0352   19.6458 H   0  0  0  0  0  0
  -27.1108  -18.7046   20.9701 H   0  0  0  0  0  0
  -27.8760  -18.4213   22.5317 H   0  0  0  0  0  0
  -27.6452  -17.0991   21.4101 H   0  0  0  0  0  0
  -28.6864  -23.7891   16.3183 H   0  0  0  0  0  0
  -27.9470  -23.0044   17.6926 H   0  0  0  0  0  0
  -29.7021  -23.0207   17.4981 H   0  0  0  0  0  0
  -28.7312  -27.0689   17.6613 H   0  0  0  0  0  0
  -27.3593  -26.0700   17.1904 H   0  0  0  0  0  0
  -28.8446  -26.0263   16.2808 H   0  0  0  0  0  0
  -27.7991  -23.7732   21.4141 H   0  0  0  0  0  0
  -29.4748  -24.1484   21.1642 H   0  0  0  0  0  0
  -29.9745  -25.1007   18.4126 H   0  0  0  0  0  0
  -27.1241  -24.6360   19.3543 H   0  0  0  0  0  0
  -28.2654  -20.3538   22.7214 H   0  0  0  0  0  0
  -27.5055  -21.8693   22.3852 H   0  0  0  0  0  0
  -28.9090  -15.7197   20.9909 H   0  0  0  0  0  0
  -29.3844  -22.2696   19.3824 H   0  0  0  0  0  0
  1 25  1  0  0  0
  1 30  2  0  0  0
  1 85  1  0  0  0
  2  3  1  0  0  0
  2 25  1  0  0  0
  2 87  1  0  0  0
  2 88  1  0  0  0
  3  4  1  0  0  0
  3 89  1  0  0  0
  3 90  1  0  0  0
  4  5  1  0  0  0
  4 91  1  0  0  0
  4 92  1  0  0  0
  5  6  1  0  0  0
  5 26  1  0  0  0
  5 93  1  0  0  0
  6 25  1  0  0  0
  6 94  1  0  0  0
  6 95  1  0  0  0
  7  8  2  0  0  0
  7 26  1  0  0  0
  7 29  1  0  0  0
  8  9  1  0  0  0
  8 22  1  0  0  0
  9 10  1  0  0  0
  9 27  2  0  0  0
 10 11  2  0  0  0
 10 15  1  0  0  0
 11 12  1  0  0  0
 11 96  1  0  0  0
 12 13  2  0  0  0
 12 97  1  0  0  0
 13 14  1  0  0  0
 13 31  1  0  0  0
 14 15  2  0  0  0
 14 98  1  0  0  0
 15 99  1  0  0  0
 16 17  2  0  0  0
 16 21  1  0  0  0
 16 31  1  0  0  0
 17 18  1  0  0  0
 17100  1  0  0  0
 18 19  2  0  0  0
 18101  1  0  0  0
 19 20  1  0  0  0
 19 24  1  0  0  0
 20 21  2  0  0  0
 20102  1  0  0  0
 21 23  1  0  0  0
 22 28  1  0  0  0
 22 32  2  0  0  0
 26 27  1  0  0  0
 28103  1  0  0  0
 28104  1  0  0  0
 29105  1  0  0  0
 29106  1  0  0  0
 33 34  1  0  0  0
 33 66  1  0  0  0
 33 70  2  0  0  0
 34 36  1  0  0  0
 34 59  1  0  0  0
 34107  1  0  0  0
 35 44  2  0  0  0
 35 45  1  0  0  0
 35 68  1  0  0  0
 36 56  1  0  0  0
 36108  1  0  0  0
 37 39  1  0  0  0
 37 47  1  0  0  0
 37 66  1  0  0  0
 37109  1  0  0  0
 38 43  2  0  0  0
 38 46  1  0  0  0
 38 47  1  0  0  0
 39 64  1  0  0  0
 39 67  2  0  0  0
 40 52  1  0  0  0
 40 53  2  0  0  0
 40 58  1  0  0  0
 41110  1  0  0  0
 41111  1  0  0  0
 41112  1  0  0  0
 41 48  1  0  0  0
 42 43  1  0  0  0
 42 66  1  0  0  0
 42113  1  0  0  0
 42114  1  0  0  0
 43 44  1  0  0  0
 44115  1  0  0  0
 45 46  2  0  0  0
 45116  1  0  0  0
 46117  1  0  0  0
 47118  1  0  0  0
 47119  1  0  0  0
 48 56  1  0  0  0
 48 65  1  0  0  0
 48120  1  0  0  0
 49 50  1  0  0  0
 49 53  1  0  0  0
 49 64  1  0  0  0
 49121  1  0  0  0
 50 51  1  0  0  0
 50122  1  0  0  0
 50123  1  0  0  0
 51 52  1  0  0  0
 51124  1  0  0  0
 51125  1  0  0  0
 52126  1  0  0  0
 52127  1  0  0  0
 53 54  1  0  0  0
 54 55  2  0  0  0
 54128  1  0  0  0
 55 57  1  0  0  0
 55129  1  0  0  0
 56 69  2  0  0  0
 57 58  2  0  0  0
 57130  1  0  0  0
 58131  1  0  0  0
 59 60  1  0  0  0
 59 61  1  0  0  0
 59 62  1  0  0  0
 60132  1  0  0  0
 60133  1  0  0  0
 60134  1  0  0  0
 61135  1  0  0  0
 61136  1  0  0  0
 61137  1  0  0  0
 62138  1  0  0  0
 62139  1  0  0  0
 62140  1  0  0  0
 63 65  1  0  0  0
 63141  1  0  0  0
 63142  1  0  0  0
 63143  1  0  0  0
 64144  1  0  0  0
 65145  1  0  0  0
 68 83  1  0  0  0
 71 72  2  0  0  0
 71 73  1  0  0  0
 71146  1  0  0  0
 72 74  1  0  0  0
 72147  1  0  0  0
 73 76  2  0  0  0
 73148  1  0  0  0
 74 75  2  0  0  0
 74 77  1  0  0  0
 75 76  1  0  0  0
 75 78  1  0  0  0
 76 85  1  0  0  0
 77 84  1  0  0  0
 77 86  2  0  0  0
 78149  1  0  0  0
 78150  1  0  0  0
 78151  1  0  0  0
 79152  1  0  0  0
 79153  1  0  0  0
 79154  1  0  0  0
 79 82  1  0  0  0
 80 82  1  0  0  0
 80155  1  0  0  0
 80156  1  0  0  0
 80157  1  0  0  0
 81 86  1  0  0  0
 81158  1  0  0  0
 81159  1  0  0  0
 81 83  1  0  0  0
 82 83  1  0  0  0
 82160  1  0  0  0
 83161  1  0  0  0
 84162  1  0  0  0
 84163  1  0  0  0
 85164  1  0  0  0
 86165  1  0  0  0
M  CHG  1  86   1
M  ISO  4   1 100  68 101  83 101  85 100
M  END
> <chiral flag>
0

> <version>
0

> <s_m_source_file>
/data/baiqing/PycharmProjects/Reinvent-master-3.2/result/LINK_invent/BTK/process_docking_weight1_custom_product_contain_oxygen_bond_distance_aromatic_linkinvent_7_9_3/rearranged_h_0044.sdf

> <i_m_source_file_index>
22

> <r_mmod_Potential_Energy-OPLS-2005>
11.8666210174561

> <r_mmod_Stretch_Energy-OPLS-2005>
133.074569702148

> <r_mmod_Bend_Energy-OPLS-2005>
180.017837524414

> <r_mmod_Torsional_Energy-OPLS-2005>
239.955322265625

> <r_mmod_Improper_Torsional_Energy-OPLS-2005>
5.86290168762207

> <r_mmod_Van_der_Waal_Energy-OPLS-2005>
158.896896362305

> <r_mmod_Electrostatic_Energy-OPLS-2005>
-406.005432128906

> <r_mmod_Solvation_Energy-OPLS-2005>
-398.389221191406

> <b_mmod_Minimization_Converged-OPLS-2005>
0

> <r_mmod_RMS_Derivative-OPLS-2005>
7.87794780731201

$$$$
22
                    3D
 Structure written by MMmdl.
161170  0  0  1  0            999 V2000
  -30.5367  -14.6984   20.5012 C   0  0  0  0  0  0
  -30.4479  -12.4481   19.4317 C   0  0  0  0  0  0
  -29.5040  -12.5178   18.2103 C   0  0  0  0  0  0
  -28.0223  -12.3562   18.6195 C   0  0  0  0  0  0
  -27.6424  -13.2152   19.8537 C   0  0  2  0  0  0
  -28.6893  -13.0666   20.9818 C   0  0  0  0  0  0
  -25.2530  -13.8174   20.5653 C   0  0  0  0  0  0
  -24.1801  -13.0392   20.9220 C   0  0  0  0  0  0
  -24.6399  -11.6916   20.8764 C   0  0  0  0  0  0
  -23.9072  -10.4268   21.0437 C   0  0  0  0  0  0
  -24.3649   -9.4164   21.9169 C   0  0  0  0  0  0
  -23.6306   -8.2215   22.0743 C   0  0  0  0  0  0
  -22.4273   -8.0278   21.3553 C   0  0  0  0  0  0
  -21.9935   -9.0255   20.4636 C   0  0  0  0  0  0
  -22.7284  -10.2116   20.3042 C   0  0  0  0  0  0
  -21.6846   -6.0751   22.5283 C   0  0  0  0  0  0
  -21.3996   -6.5637   23.8227 C   0  0  0  0  0  0
  -21.3648   -5.6779   24.9166 C   0  0  0  0  0  0
  -21.6063   -4.3055   24.7221 C   0  0  0  0  0  0
  -21.8800   -3.8155   23.4330 C   0  0  0  0  0  0
  -21.9195   -4.6979   22.3393 C   0  0  0  0  0  0
  -22.7845  -13.5194   21.1878 C   0  0  0  0  0  0
  -22.1656   -4.2182   21.0977 F   0  0  0  0  0  0
  -21.5637   -3.4522   25.7727 F   0  0  0  0  0  0
  -29.9841  -13.4491   20.4089 N   0  0  0  0  0  0
  -26.2912  -12.9319   20.3209 N   0  0  0  0  0  0
  -25.9293  -11.6494   20.5733 N   0  0  0  0  0  0
  -22.0449  -12.8211   22.0438 N   0  0  0  0  0  0
  -25.4136  -15.1877   20.4079 N   0  0  0  0  0  0
  -31.7291  -14.8978   20.2574 O   0  0  0  0  0  0
  -21.6615   -6.8887   21.4246 O   0  0  0  0  0  0
  -22.3546  -14.5491   20.6728 O   0  0  0  0  0  0
  -24.6244  -31.8620   23.2043 C   0  0  0  0  0  0
  -25.9090  -32.4804   23.8382 C   0  0  1  0  0  0
  -27.2169  -27.3510   20.1299 C   0  0  0  0  0  0
  -25.5859  -33.8619   24.2274 N   0  0  0  0  0  0
  -23.4174  -30.4950   21.5481 C   0  0  2  0  0  0
  -24.8589  -28.9541   20.1107 C   0  0  0  0  0  0
  -22.7430  -29.4746   22.4959 C   0  0  0  0  0  0
  -18.0331  -28.1387   22.8884 C   0  0  0  0  0  0
  -24.1503  -36.7340   23.2659 C   0  0  0  0  0  0
  -25.9567  -30.8167   21.3582 C   0  0  0  0  0  0
  -26.0265  -29.4409   20.7102 C   0  0  0  0  0  0
  -27.2121  -28.6466   20.7188 C   0  0  0  0  0  0
  -26.0410  -26.9259   19.4745 C   0  0  0  0  0  0
  -24.8606  -27.6929   19.4931 C   0  0  0  0  0  0
  -23.6291  -29.8301   20.1661 C   0  0  0  0  0  0
  -25.4119  -36.3138   24.0337 C   0  0  1  0  0  0
  -20.5916  -28.3963   23.1538 C   0  0  2  0  0  0
  -20.6799  -26.9625   22.5758 C   0  0  0  0  0  0
  -19.5806  -26.6763   21.5451 C   0  0  0  0  0  0
  -18.2214  -26.7810   22.2381 C   0  0  0  0  0  0
  -19.1516  -28.9027   23.3127 C   0  0  0  0  0  0
  -18.9262  -30.1715   23.8916 C   0  0  0  0  0  0
  -17.6199  -30.6703   24.0480 C   0  0  0  0  0  0
  -25.9008  -34.9491   23.5105 C   0  0  0  0  0  0
  -16.5176  -29.8940   23.6551 C   0  0  0  0  0  0
  -16.7237  -28.6307   23.0787 C   0  0  0  0  0  0
  -26.4481  -31.6557   25.0702 C   0  0  0  0  0  0
  -25.3673  -31.3587   26.1383 C   0  0  0  0  0  0
  -27.0301  -30.2988   24.6079 C   0  0  0  0  0  0
  -27.6097  -32.4294   25.7381 C   0  0  0  0  0  0
  -27.5589  -37.1836   24.8467 C   0  0  0  0  0  0
  -21.4098  -29.3347   22.3895 N   0  0  0  0  0  0
  -26.4306  -37.3793   23.9389 N   0  0  0  0  0  0
  -24.6899  -31.0727   22.0977 N   0  0  0  0  0  0
  -23.4216  -28.8175   23.2915 O   0  0  0  0  0  0
  -28.3145  -26.4874   20.1498 O   0  0  0  0  0  0
  -26.5662  -34.8957   22.4733 O   0  0  0  0  0  0
  -23.5375  -32.1391   23.7328 O   0  0  0  0  0  0
  -30.3420  -19.2563   21.8561 C   0  0  0  0  0  0
  -30.4006  -17.8353   21.7254 C   0  0  0  0  0  0
  -28.8290  -17.9973   19.9210 C   0  0  0  0  0  0
  -29.5737  -20.1087   21.0044 C   0  0  0  0  0  0
  -28.8141  -19.4262   19.9982 C   0  0  0  0  0  0
  -29.6592  -17.1658   20.7202 C   0  0  0  0  0  0
  -29.1986  -24.0860   20.6225 C   0  0  0  0  0  0
  -26.6731  -23.4391   22.0019 C   0  0  0  0  0  0
  -26.9544  -24.9341   21.7719 C   0  0  0  0  0  0
  -27.3556  -22.5275   20.9706 C   0  0  0  0  0  0
  -28.3019  -25.3237   21.0706 C   0  0  2  0  0  0
  -29.7337  -21.6722   21.2594 C   0  0  0  0  0  0
  -27.9641  -20.1438   18.9478 C   0  0  0  0  0  0
  -28.7847  -22.7834   20.8474 N   0  0  0  0  0  0
  -29.6050  -15.7117   20.5509 N   0  0  0  0  0  0
  -30.3361  -24.3261   20.2048 O   0  0  0  0  0  0
  -26.6671  -19.9998   19.2253 F   0  0  0  0  0  0
  -28.2095  -19.6147   17.7474 F   0  0  0  0  0  0
  -31.4776  -12.6315   19.1161 H   0  0  0  0  0  0
  -30.4442  -11.4565   19.8803 H   0  0  0  0  0  0
  -29.7747  -11.7575   17.4747 H   0  0  0  0  0  0
  -29.6360  -13.4751   17.7077 H   0  0  0  0  0  0
  -27.8419  -11.3003   18.8260 H   0  0  0  0  0  0
  -27.3746  -12.6089   17.7801 H   0  0  0  0  0  0
  -27.6431  -14.2477   19.5094 H   0  0  0  0  0  0
  -28.7272  -12.0375   21.3420 H   0  0  0  0  0  0
  -28.4330  -13.6916   21.8413 H   0  0  0  0  0  0
  -25.2779   -9.5629   22.4774 H   0  0  0  0  0  0
  -24.0011   -7.4587   22.7449 H   0  0  0  0  0  0
  -21.0871   -8.8795   19.8929 H   0  0  0  0  0  0
  -22.3754  -10.9688   19.6178 H   0  0  0  0  0  0
  -21.1961   -7.6147   23.9745 H   0  0  0  0  0  0
  -21.1494   -6.0498   25.9090 H   0  0  0  0  0  0
  -22.0605   -2.7630   23.2812 H   0  0  0  0  0  0
  -22.4074  -11.9903   22.4870 H   0  0  0  0  0  0
  -21.1060  -13.1249   22.2551 H   0  0  0  0  0  0
  -24.6292  -15.8244   20.5060 H   0  0  0  0  0  0
  -26.2433  -15.6450   20.0560 H   0  0  0  0  0  0
  -26.7182  -32.5520   23.1174 H   0  0  0  0  0  0
  -24.9927  -33.9792   25.0355 H   0  0  0  0  0  0
  -22.7064  -31.3158   21.4054 H   0  0  0  0  0  0
  -23.3738  -35.9687   23.3301 H   0  0  0  0  0  0
  -24.3588  -36.8965   22.2067 H   0  0  0  0  0  0
  -23.7275  -37.6556   23.6667 H   0  0  0  0  0  0
  -26.0697  -31.5808   20.5899 H   0  0  0  0  0  0
  -26.8468  -30.8763   21.9737 H   0  0  0  0  0  0
  -28.1084  -29.0195   21.2000 H   0  0  0  0  0  0
  -26.0078  -25.9512   19.0090 H   0  0  0  0  0  0
  -23.9505  -27.2986   19.0571 H   0  0  0  0  0  0
  -23.7460  -30.6118   19.4120 H   0  0  0  0  0  0
  -22.7462  -29.2718   19.8584 H   0  0  0  0  0  0
  -25.1294  -36.2009   25.0807 H   0  0  0  0  0  0
  -21.0060  -28.3607   24.1635 H   0  0  0  0  0  0
  -21.6782  -26.7554   22.1951 H   0  0  0  0  0  0
  -20.5446  -26.2686   23.4055 H   0  0  0  0  0  0
  -19.7059  -25.6941   21.0898 H   0  0  0  0  0  0
  -19.6309  -27.4000   20.7355 H   0  0  0  0  0  0
  -17.4077  -26.5668   21.5501 H   0  0  0  0  0  0
  -18.1533  -26.0259   23.0248 H   0  0  0  0  0  0
  -19.7675  -30.7772   24.2020 H   0  0  0  0  0  0
  -17.4521  -31.6447   24.4886 H   0  0  0  0  0  0
  -15.5100  -30.2699   23.7905 H   0  0  0  0  0  0
  -15.8673  -28.0366   22.7809 H   0  0  0  0  0  0
  -24.5955  -30.6857   25.7624 H   0  0  0  0  0  0
  -24.8728  -32.2654   26.4850 H   0  0  0  0  0  0
  -25.8000  -30.8740   27.0119 H   0  0  0  0  0  0
  -26.2831  -29.6748   24.1175 H   0  0  0  0  0  0
  -27.4056  -29.7257   25.4536 H   0  0  0  0  0  0
  -27.8652  -30.4253   23.9211 H   0  0  0  0  0  0
  -27.2811  -33.3672   26.1863 H   0  0  0  0  0  0
  -28.3897  -32.6711   25.0146 H   0  0  0  0  0  0
  -28.0772  -31.8453   26.5314 H   0  0  0  0  0  0
  -28.2623  -38.0134   24.7498 H   0  0  0  0  0  0
  -28.1096  -36.2653   24.6303 H   0  0  0  0  0  0
  -27.2306  -37.1476   25.8885 H   0  0  0  0  0  0
  -20.9241  -29.9309   21.7376 H   0  0  0  0  0  0
  -26.0218  -38.2872   24.1366 H   0  0  0  0  0  0
  -30.9274  -19.7190   22.6413 H   0  0  0  0  0  0
  -31.0022  -17.2591   22.4179 H   0  0  0  0  0  0
  -28.1877  -17.5154   19.1974 H   0  0  0  0  0  0
  -25.5975  -23.2784   21.9246 H   0  0  0  0  0  0
  -26.9619  -23.1652   23.0169 H   0  0  0  0  0  0
  -26.9050  -25.4656   22.7272 H   0  0  0  0  0  0
  -26.0837  -25.2913   21.2459 H   0  0  0  0  0  0
  -26.9009  -22.7052   19.9902 H   0  0  0  0  0  0
  -27.1736  -21.4863   21.2170 H   0  0  0  0  0  0
  -28.8884  -25.7271   21.8977 H   0  0  0  0  0  0
  -30.7540  -21.9257   20.9595 H   0  0  0  0  0  0
  -29.7551  -21.7613   22.3492 H   0  0  0  0  0  0
  -28.1828  -21.2016   18.8385 H   0  0  0  0  0  0
  -28.6897  -15.3684   20.3113 H   0  0  0  0  0  0
  1 25  1  0  0  0
  1 30  2  0  0  0
  1 85  1  0  0  0
  2  3  1  0  0  0
  2 25  1  0  0  0
  2 89  1  0  0  0
  2 90  1  0  0  0
  3  4  1  0  0  0
  3 91  1  0  0  0
  3 92  1  0  0  0
  4  5  1  0  0  0
  4 93  1  0  0  0
  4 94  1  0  0  0
  5  6  1  0  0  0
  5 26  1  0  0  0
  5 95  1  0  0  0
  6 25  1  0  0  0
  6 96  1  0  0  0
  6 97  1  0  0  0
  7  8  2  0  0  0
  7 26  1  0  0  0
  7 29  1  0  0  0
  8  9  1  0  0  0
  8 22  1  0  0  0
  9 10  1  0  0  0
  9 27  2  0  0  0
 10 11  2  0  0  0
 10 15  1  0  0  0
 11 12  1  0  0  0
 11 98  1  0  0  0
 12 13  2  0  0  0
 12 99  1  0  0  0
 13 14  1  0  0  0
 13 31  1  0  0  0
 14 15  2  0  0  0
 14100  1  0  0  0
 15101  1  0  0  0
 16 17  2  0  0  0
 16 21  1  0  0  0
 16 31  1  0  0  0
 17 18  1  0  0  0
 17102  1  0  0  0
 18 19  2  0  0  0
 18103  1  0  0  0
 19 20  1  0  0  0
 19 24  1  0  0  0
 20 21  2  0  0  0
 20104  1  0  0  0
 21 23  1  0  0  0
 22 28  1  0  0  0
 22 32  2  0  0  0
 26 27  1  0  0  0
 28105  1  0  0  0
 28106  1  0  0  0
 29107  1  0  0  0
 29108  1  0  0  0
 33 34  1  0  0  0
 33 66  1  0  0  0
 33 70  2  0  0  0
 34 36  1  0  0  0
 34 59  1  0  0  0
 34109  1  0  0  0
 35 44  2  0  0  0
 35 45  1  0  0  0
 35 68  1  0  0  0
 36 56  1  0  0  0
 36110  1  0  0  0
 37 39  1  0  0  0
 37 47  1  0  0  0
 37 66  1  0  0  0
 37111  1  0  0  0
 38 43  2  0  0  0
 38 46  1  0  0  0
 38 47  1  0  0  0
 39 64  1  0  0  0
 39 67  2  0  0  0
 40 52  1  0  0  0
 40 53  2  0  0  0
 40 58  1  0  0  0
 41112  1  0  0  0
 41113  1  0  0  0
 41114  1  0  0  0
 41 48  1  0  0  0
 42 43  1  0  0  0
 42 66  1  0  0  0
 42115  1  0  0  0
 42116  1  0  0  0
 43 44  1  0  0  0
 44117  1  0  0  0
 45 46  2  0  0  0
 45118  1  0  0  0
 46119  1  0  0  0
 47120  1  0  0  0
 47121  1  0  0  0
 48 56  1  0  0  0
 48 65  1  0  0  0
 48122  1  0  0  0
 49 50  1  0  0  0
 49 53  1  0  0  0
 49 64  1  0  0  0
 49123  1  0  0  0
 50 51  1  0  0  0
 50124  1  0  0  0
 50125  1  0  0  0
 51 52  1  0  0  0
 51126  1  0  0  0
 51127  1  0  0  0
 52128  1  0  0  0
 52129  1  0  0  0
 53 54  1  0  0  0
 54 55  2  0  0  0
 54130  1  0  0  0
 55 57  1  0  0  0
 55131  1  0  0  0
 56 69  2  0  0  0
 57 58  2  0  0  0
 57132  1  0  0  0
 58133  1  0  0  0
 59 60  1  0  0  0
 59 61  1  0  0  0
 59 62  1  0  0  0
 60134  1  0  0  0
 60135  1  0  0  0
 60136  1  0  0  0
 61137  1  0  0  0
 61138  1  0  0  0
 61139  1  0  0  0
 62140  1  0  0  0
 62141  1  0  0  0
 62142  1  0  0  0
 63 65  1  0  0  0
 63143  1  0  0  0
 63144  1  0  0  0
 63145  1  0  0  0
 64146  1  0  0  0
 65147  1  0  0  0
 68 81  1  0  0  0
 71 72  2  0  0  0
 71 74  1  0  0  0
 71148  1  0  0  0
 72 76  1  0  0  0
 72149  1  0  0  0
 73 75  1  0  0  0
 73 76  2  0  0  0
 73150  1  0  0  0
 74 75  2  0  0  0
 74 82  1  0  0  0
 75 83  1  0  0  0
 76 85  1  0  0  0
 77 81  1  0  0  0
 77 84  1  0  0  0
 77 86  2  0  0  0
 78 79  1  0  0  0
 78 80  1  0  0  0
 78151  1  0  0  0
 78152  1  0  0  0
 79 81  1  0  0  0
 79153  1  0  0  0
 79154  1  0  0  0
 80 84  1  0  0  0
 80155  1  0  0  0
 80156  1  0  0  0
 81157  1  0  0  0
 82 84  1  0  0  0
 82158  1  0  0  0
 82159  1  0  0  0
 83 87  1  0  0  0
 83 88  1  0  0  0
 83160  1  0  0  0
 85161  1  0  0  0
M  ISO  4   1 100  68 101  81 101  85 100
M  END
> <chiral flag>
0

> <version>
0

> <s_m_source_file>
/data/baiqing/PycharmProjects/Reinvent-master-3.2/result/LINK_invent/BTK/process_docking_weight1_custom_product_contain_oxygen_bond_distance_aromatic_linkinvent_7_9_3/rearranged_h_0044.sdf

> <i_m_source_file_index>
23

> <r_mmod_Potential_Energy-OPLS-2005>
262.085235595703

> <r_mmod_Stretch_Energy-OPLS-2005>
90.6157760620117

> <r_mmod_Bend_Energy-OPLS-2005>
189.596649169922

> <r_mmod_Torsional_Energy-OPLS-2005>
310.653350830078

> <r_mmod_Improper_Torsional_Energy-OPLS-2005>
11.4168272018433

> <r_mmod_Van_der_Waal_Energy-OPLS-2005>
154.917922973633

> <r_mmod_Electrostatic_Energy-OPLS-2005>
-330.156372070312

> <r_mmod_Solvation_Energy-OPLS-2005>
-228.232330322266

> <b_mmod_Minimization_Converged-OPLS-2005>
0

> <r_mmod_RMS_Derivative-OPLS-2005>
10.5974550247192

$$$$
23
                    3D
 Structure written by MMmdl.
168177  0  0  1  0            999 V2000
  -30.7264  -14.5513   20.4101 C   0  0  0  0  0  0
  -30.4153  -12.3247   19.4163 C   0  0  0  0  0  0
  -29.4715  -12.4523   18.2020 C   0  0  0  0  0  0
  -28.0082  -12.3029   18.6444 C   0  0  0  0  0  0
  -27.6547  -13.2049   19.8587 C   0  0  2  0  0  0
  -28.7226  -13.0958   20.9747 C   0  0  0  0  0  0
  -25.2609  -13.8172   20.5706 C   0  0  0  0  0  0
  -24.1846  -13.0421   20.9196 C   0  0  0  0  0  0
  -24.6394  -11.6896   20.8768 C   0  0  0  0  0  0
  -23.9039  -10.4256   21.0401 C   0  0  0  0  0  0
  -24.3574   -9.4184   21.9215 C   0  0  0  0  0  0
  -23.6227   -8.2217   22.0795 C   0  0  0  0  0  0
  -22.4231   -8.0228   21.3513 C   0  0  0  0  0  0
  -21.9881   -9.0219   20.4619 C   0  0  0  0  0  0
  -22.7190  -10.2122   20.3040 C   0  0  0  0  0  0
  -21.6828   -6.0659   22.5286 C   0  0  0  0  0  0
  -21.3999   -6.5603   23.8204 C   0  0  0  0  0  0
  -21.3680   -5.6782   24.9183 C   0  0  0  0  0  0
  -21.6083   -4.3054   24.7251 C   0  0  0  0  0  0
  -21.8829   -3.8092   23.4381 C   0  0  0  0  0  0
  -21.9190   -4.6904   22.3422 C   0  0  0  0  0  0
  -22.7878  -13.5238   21.1794 C   0  0  0  0  0  0
  -22.1675   -4.2068   21.1028 F   0  0  0  0  0  0
  -21.5586   -3.4548   25.7781 F   0  0  0  0  0  0
  -30.0372  -13.3733   20.3775 N   0  0  0  0  0  0
  -26.3027  -12.9331   20.3430 N   0  0  0  0  0  0
  -25.9343  -11.6485   20.5841 N   0  0  0  0  0  0
  -22.0521  -12.8216   22.0344 N   0  0  0  0  0  0
  -25.4342  -15.1876   20.4106 N   0  0  0  0  0  0
  -31.9181  -14.6254   20.1088 O   0  0  0  0  0  0
  -21.6623   -6.8816   21.4229 O   0  0  0  0  0  0
  -22.3565  -14.5517   20.6627 O   0  0  0  0  0  0
  -24.6057  -31.8733   23.2080 C   0  0  0  0  0  0
  -25.8928  -32.4873   23.8426 C   0  0  1  0  0  0
  -27.2826  -27.4891   20.1029 C   0  0  0  0  0  0
  -25.5806  -33.8691   24.2347 N   0  0  0  0  0  0
  -23.3964  -30.4917   21.5423 C   0  0  2  0  0  0
  -24.8537  -28.9542   20.1072 C   0  0  0  0  0  0
  -22.7343  -29.4700   22.4930 C   0  0  0  0  0  0
  -18.0268  -28.1426   22.8516 C   0  0  0  0  0  0
  -24.1482  -36.7410   23.2628 C   0  0  0  0  0  0
  -25.9069  -30.8627   21.3392 C   0  0  0  0  0  0
  -25.9975  -29.4870   20.7124 C   0  0  0  0  0  0
  -27.2008  -28.7546   20.7206 C   0  0  0  0  0  0
  -26.1225  -26.9548   19.4931 C   0  0  0  0  0  0
  -24.9098  -27.6854   19.4949 C   0  0  0  0  0  0
  -23.6055  -29.8111   20.1574 C   0  0  0  0  0  0
  -25.4093  -36.3168   24.0324 C   0  0  1  0  0  0
  -20.5832  -28.3722   23.1344 C   0  0  2  0  0  0
  -20.6748  -26.9462   22.5465 C   0  0  0  0  0  0
  -19.5751  -26.6415   21.5239 C   0  0  0  0  0  0
  -18.1901  -26.7991   22.1619 C   0  0  0  0  0  0
  -19.1498  -28.8874   23.2936 C   0  0  0  0  0  0
  -18.9434  -30.1453   23.8981 C   0  0  0  0  0  0
  -17.6443  -30.6628   24.0590 C   0  0  0  0  0  0
  -25.9013  -34.9532   23.5142 C   0  0  0  0  0  0
  -16.5323  -29.9146   23.6312 C   0  0  0  0  0  0
  -16.7258  -28.6552   23.0347 C   0  0  0  0  0  0
  -26.4386  -31.6633   25.0740 C   0  0  0  0  0  0
  -25.3657  -31.3670   26.1487 C   0  0  0  0  0  0
  -27.0203  -30.3115   24.5987 C   0  0  0  0  0  0
  -27.5987  -32.4325   25.7526 C   0  0  0  0  0  0
  -27.5598  -37.1838   24.8421 C   0  0  0  0  0  0
  -21.4062  -29.3097   22.3702 N   0  0  0  0  0  0
  -26.4276  -37.3851   23.9399 N   0  0  0  0  0  0
  -24.6560  -31.0877   22.0956 N   0  0  0  0  0  0
  -23.4128  -28.8256   23.2981 O   0  0  0  0  0  0
  -28.5069  -26.8541   20.1880 O   0  0  0  0  0  0
  -26.5602  -34.8961   22.4722 O   0  0  0  0  0  0
  -23.5260  -32.1436   23.7500 O   0  0  0  0  0  0
  -30.9249  -19.5584   18.9438 C   0  0  0  0  0  0
  -30.7717  -18.0249   20.8279 C   0  0  0  0  0  0
  -31.0626  -19.3243   20.3259 C   0  0  0  0  0  0
  -30.4463  -18.5497   18.0838 C   0  0  0  0  0  0
  -30.1611  -17.2508   18.5892 C   0  0  0  0  0  0
  -30.3338  -16.9729   19.9797 C   0  0  0  0  0  0
  -30.3695  -23.9429   20.1481 C   0  0  0  0  0  0
  -30.2906  -22.5709   20.7090 C   0  0  0  0  0  0
  -29.1940  -24.5573   19.8442 C   0  0  0  0  0  0
  -31.7298  -24.6376   19.9899 C   0  0  0  0  0  0
  -32.8244  -23.9057   20.7725 C   0  0  0  0  0  0
  -32.7572  -22.4304   20.3572 C   0  0  0  0  0  0
  -30.2125  -18.9286   16.6264 C   0  0  0  0  0  0
  -29.6819  -16.1552   17.6417 C   0  0  0  0  0  0
  -31.4828  -20.4621   21.2815 C   0  0  0  0  0  0
  -28.9728  -25.9289   19.2161 C   0  0  0  0  0  0
  -31.4545  -21.8525   20.7425 N   0  0  0  0  0  0
  -29.9895  -15.6832   20.5327 N   0  0  0  0  0  0
  -29.2425  -22.0881   21.1503 O   0  0  0  0  0  0
  -31.4525  -12.4105   19.0888 H   0  0  0  0  0  0
  -30.3280  -11.3403   19.8771 H   0  0  0  0  0  0
  -29.7077  -11.6912   17.4572 H   0  0  0  0  0  0
  -29.6115  -13.4110   17.7070 H   0  0  0  0  0  0
  -27.8611  -11.2536   18.9050 H   0  0  0  0  0  0
  -27.3282  -12.4967   17.8133 H   0  0  0  0  0  0
  -27.6600  -14.2297   19.4878 H   0  0  0  0  0  0
  -28.7171  -12.0962   21.4093 H   0  0  0  0  0  0
  -28.5146  -13.7758   21.8021 H   0  0  0  0  0  0
  -25.2734   -9.5703   22.4785 H   0  0  0  0  0  0
  -23.9933   -7.4642   22.7549 H   0  0  0  0  0  0
  -21.0805   -8.8731   19.8926 H   0  0  0  0  0  0
  -22.3612  -10.9662   19.6152 H   0  0  0  0  0  0
  -21.2032   -7.6103   23.9695 H   0  0  0  0  0  0
  -21.1481   -6.0503   25.9087 H   0  0  0  0  0  0
  -22.0583   -2.7528   23.2916 H   0  0  0  0  0  0
  -22.4130  -11.9855   22.4700 H   0  0  0  0  0  0
  -21.1115  -13.1219   22.2506 H   0  0  0  0  0  0
  -24.6714  -15.8476   20.5174 H   0  0  0  0  0  0
  -26.3059  -15.6268   20.1439 H   0  0  0  0  0  0
  -26.7039  -32.5645   23.1278 H   0  0  0  0  0  0
  -24.9846  -33.9891   25.0411 H   0  0  0  0  0  0
  -22.6855  -31.3085   21.3985 H   0  0  0  0  0  0
  -23.3753  -35.9730   23.3202 H   0  0  0  0  0  0
  -24.3593  -36.9158   22.2067 H   0  0  0  0  0  0
  -23.7226  -37.6580   23.6736 H   0  0  0  0  0  0
  -25.9576  -31.6085   20.5432 H   0  0  0  0  0  0
  -26.8208  -30.9744   21.9111 H   0  0  0  0  0  0
  -28.0780  -29.1656   21.2014 H   0  0  0  0  0  0
  -26.1436  -25.9764   19.0327 H   0  0  0  0  0  0
  -24.0299  -27.2613   19.0299 H   0  0  0  0  0  0
  -23.6995  -30.5874   19.3968 H   0  0  0  0  0  0
  -22.7332  -29.2206   19.8701 H   0  0  0  0  0  0
  -25.1259  -36.2057   25.0819 H   0  0  0  0  0  0
  -20.9952  -28.3355   24.1437 H   0  0  0  0  0  0
  -20.5629  -26.2361   23.3665 H   0  0  0  0  0  0
  -21.6629  -26.7492   22.1293 H   0  0  0  0  0  0
  -19.6911  -25.6319   21.1301 H   0  0  0  0  0  0
  -19.6704  -27.3191   20.6751 H   0  0  0  0  0  0
  -17.4187  -26.6779   21.3981 H   0  0  0  0  0  0
  -18.0241  -26.0104   22.8985 H   0  0  0  0  0  0
  -19.7901  -30.7238   24.2429 H   0  0  0  0  0  0
  -17.5009  -31.6302   24.5209 H   0  0  0  0  0  0
  -15.5351  -30.3100   23.7584 H   0  0  0  0  0  0
  -15.8635  -28.0905   22.7043 H   0  0  0  0  0  0
  -24.5800  -30.7093   25.7777 H   0  0  0  0  0  0
  -24.8867  -32.2775   26.5074 H   0  0  0  0  0  0
  -25.7997  -30.8709   27.0160 H   0  0  0  0  0  0
  -26.2704  -29.6950   24.1007 H   0  0  0  0  0  0
  -27.4008  -29.7301   25.4393 H   0  0  0  0  0  0
  -27.8520  -30.4564   23.9085 H   0  0  0  0  0  0
  -27.2646  -33.3640   26.2119 H   0  0  0  0  0  0
  -28.3795  -32.6835   25.0337 H   0  0  0  0  0  0
  -28.0618  -31.8397   26.5423 H   0  0  0  0  0  0
  -28.2514  -38.0238   24.7579 H   0  0  0  0  0  0
  -28.1196  -36.2762   24.6094 H   0  0  0  0  0  0
  -27.2320  -37.1311   25.8821 H   0  0  0  0  0  0
  -20.9166  -29.8856   21.6984 H   0  0  0  0  0  0
  -26.0181  -38.2930   24.1448 H   0  0  0  0  0  0
  -31.1647  -20.5313   18.5374 H   0  0  0  0  0  0
  -30.8675  -17.8398   21.8879 H   0  0  0  0  0  0
  -28.2714  -24.0332   20.0421 H   0  0  0  0  0  0
  -31.6729  -25.6809   20.3019 H   0  0  0  0  0  0
  -32.0090  -24.6557   18.9355 H   0  0  0  0  0  0
  -32.6460  -24.0024   21.8468 H   0  0  0  0  0  0
  -33.8089  -24.3428   20.5997 H   0  0  0  0  0  0
  -33.6031  -21.8823   20.7708 H   0  0  0  0  0  0
  -32.8648  -22.3640   19.2728 H   0  0  0  0  0  0
  -30.5635  -19.9427   16.4210 H   0  0  0  0  0  0
  -29.1449  -18.9044   16.3963 H   0  0  0  0  0  0
  -30.7343  -18.2603   15.9440 H   0  0  0  0  0  0
  -30.5223  -15.4947   17.4267 H   0  0  0  0  0  0
  -29.2999  -16.5116   16.6869 H   0  0  0  0  0  0
  -28.8705  -15.5827   18.0889 H   0  0  0  0  0  0
  -32.4674  -20.2394   21.6954 H   0  0  0  0  0  0
  -30.8157  -20.4185   22.1444 H   0  0  0  0  0  0
  -28.3102  -25.8493   18.3580 H   0  0  0  0  0  0
  -29.9125  -26.3268   18.8250 H   0  0  0  0  0  0
  -29.0211  -15.5403   20.7649 H   0  0  0  0  0  0
  1 25  1  0  0  0
  1 30  2  0  0  0
  1 88  1  0  0  0
  2  3  1  0  0  0
  2 25  1  0  0  0
  2 90  1  0  0  0
  2 91  1  0  0  0
  3  4  1  0  0  0
  3 92  1  0  0  0
  3 93  1  0  0  0
  4  5  1  0  0  0
  4 94  1  0  0  0
  4 95  1  0  0  0
  5  6  1  0  0  0
  5 26  1  0  0  0
  5 96  1  0  0  0
  6 25  1  0  0  0
  6 97  1  0  0  0
  6 98  1  0  0  0
  7  8  2  0  0  0
  7 26  1  0  0  0
  7 29  1  0  0  0
  8  9  1  0  0  0
  8 22  1  0  0  0
  9 10  1  0  0  0
  9 27  2  0  0  0
 10 11  2  0  0  0
 10 15  1  0  0  0
 11 12  1  0  0  0
 11 99  1  0  0  0
 12 13  2  0  0  0
 12100  1  0  0  0
 13 14  1  0  0  0
 13 31  1  0  0  0
 14 15  2  0  0  0
 14101  1  0  0  0
 15102  1  0  0  0
 16 17  2  0  0  0
 16 21  1  0  0  0
 16 31  1  0  0  0
 17 18  1  0  0  0
 17103  1  0  0  0
 18 19  2  0  0  0
 18104  1  0  0  0
 19 20  1  0  0  0
 19 24  1  0  0  0
 20 21  2  0  0  0
 20105  1  0  0  0
 21 23  1  0  0  0
 22 28  1  0  0  0
 22 32  2  0  0  0
 26 27  1  0  0  0
 28106  1  0  0  0
 28107  1  0  0  0
 29108  1  0  0  0
 29109  1  0  0  0
 33 34  1  0  0  0
 33 66  1  0  0  0
 33 70  2  0  0  0
 34 36  1  0  0  0
 34 59  1  0  0  0
 34110  1  0  0  0
 35 44  2  0  0  0
 35 45  1  0  0  0
 35 68  1  0  0  0
 36 56  1  0  0  0
 36111  1  0  0  0
 37 39  1  0  0  0
 37 47  1  0  0  0
 37 66  1  0  0  0
 37112  1  0  0  0
 38 43  2  0  0  0
 38 46  1  0  0  0
 38 47  1  0  0  0
 39 64  1  0  0  0
 39 67  2  0  0  0
 40 52  1  0  0  0
 40 53  2  0  0  0
 40 58  1  0  0  0
 41113  1  0  0  0
 41114  1  0  0  0
 41115  1  0  0  0
 41 48  1  0  0  0
 42 43  1  0  0  0
 42 66  1  0  0  0
 42116  1  0  0  0
 42117  1  0  0  0
 43 44  1  0  0  0
 44118  1  0  0  0
 45 46  2  0  0  0
 45119  1  0  0  0
 46120  1  0  0  0
 47121  1  0  0  0
 47122  1  0  0  0
 48 56  1  0  0  0
 48 65  1  0  0  0
 48123  1  0  0  0
 49 50  1  0  0  0
 49 53  1  0  0  0
 49 64  1  0  0  0
 49124  1  0  0  0
 50 51  1  0  0  0
 50125  1  0  0  0
 50126  1  0  0  0
 51 52  1  0  0  0
 51127  1  0  0  0
 51128  1  0  0  0
 52129  1  0  0  0
 52130  1  0  0  0
 53 54  1  0  0  0
 54 55  2  0  0  0
 54131  1  0  0  0
 55 57  1  0  0  0
 55132  1  0  0  0
 56 69  2  0  0  0
 57 58  2  0  0  0
 57133  1  0  0  0
 58134  1  0  0  0
 59 60  1  0  0  0
 59 61  1  0  0  0
 59 62  1  0  0  0
 60135  1  0  0  0
 60136  1  0  0  0
 60137  1  0  0  0
 61138  1  0  0  0
 61139  1  0  0  0
 61140  1  0  0  0
 62141  1  0  0  0
 62142  1  0  0  0
 62143  1  0  0  0
 63 65  1  0  0  0
 63144  1  0  0  0
 63145  1  0  0  0
 63146  1  0  0  0
 64147  1  0  0  0
 65148  1  0  0  0
 68 86  1  0  0  0
 71 73  2  0  0  0
 71 74  1  0  0  0
 71149  1  0  0  0
 72 73  1  0  0  0
 72 76  2  0  0  0
 72150  1  0  0  0
 73 85  1  0  0  0
 74 75  2  0  0  0
 74 83  1  0  0  0
 75 76  1  0  0  0
 75 84  1  0  0  0
 76 88  1  0  0  0
 77 78  1  0  0  0
 77 79  2  0  0  0
 77 80  1  0  0  0
 78 87  1  0  0  0
 78 89  2  0  0  0
 79 86  1  0  0  0
 79151  1  0  0  0
 80 81  1  0  0  0
 80152  1  0  0  0
 80153  1  0  0  0
 81 82  1  0  0  0
 81154  1  0  0  0
 81155  1  0  0  0
 82 87  1  0  0  0
 82156  1  0  0  0
 82157  1  0  0  0
 83158  1  0  0  0
 83159  1  0  0  0
 83160  1  0  0  0
 84161  1  0  0  0
 84162  1  0  0  0
 84163  1  0  0  0
 85 87  1  0  0  0
 85164  1  0  0  0
 85165  1  0  0  0
 86166  1  0  0  0
 86167  1  0  0  0
 88168  1  0  0  0
M  ISO  4   1 100  68 101  86 101  88 100
M  END
> <chiral flag>
0

> <version>
0

> <s_m_source_file>
/data/baiqing/PycharmProjects/Reinvent-master-3.2/result/LINK_invent/BTK/process_docking_weight1_custom_product_contain_oxygen_bond_distance_aromatic_linkinvent_7_9_3/rearranged_h_0044.sdf

> <i_m_source_file_index>
24

> <r_mmod_Potential_Energy-OPLS-2005>
35.9969215393066

> <r_mmod_Stretch_Energy-OPLS-2005>
52.2824249267578

> <r_mmod_Bend_Energy-OPLS-2005>
123.257316589355

> <r_mmod_Torsional_Energy-OPLS-2005>
269.404541015625

> <r_mmod_Improper_Torsional_Energy-OPLS-2005>
7.17200517654419

> <r_mmod_Van_der_Waal_Energy-OPLS-2005>
168.269424438477

> <r_mmod_Electrostatic_Energy-OPLS-2005>
-388.565460205078

> <r_mmod_Solvation_Energy-OPLS-2005>
-227.837356567383

> <b_mmod_Minimization_Converged-OPLS-2005>
0

> <r_mmod_RMS_Derivative-OPLS-2005>
7.61301851272583

$$$$
24
                    3D
 Structure written by MMmdl.
164173  0  0  1  0            999 V2000
  -30.6109  -14.7340   20.4603 C   0  0  0  0  0  0
  -30.4336  -12.4461   19.4668 C   0  0  0  0  0  0
  -29.5099  -12.5013   18.2302 C   0  0  0  0  0  0
  -28.0360  -12.3248   18.6460 C   0  0  0  0  0  0
  -27.6414  -13.2259   19.8467 C   0  0  2  0  0  0
  -28.6864  -13.1569   20.9814 C   0  0  0  0  0  0
  -25.2517  -13.8167   20.5690 C   0  0  0  0  0  0
  -24.1802  -13.0421   20.9194 C   0  0  0  0  0  0
  -24.6387  -11.6899   20.8745 C   0  0  0  0  0  0
  -23.9058  -10.4281   21.0404 C   0  0  0  0  0  0
  -24.3613   -9.4205   21.9185 C   0  0  0  0  0  0
  -23.6289   -8.2246   22.0762 C   0  0  0  0  0  0
  -22.4271   -8.0282   21.3548 C   0  0  0  0  0  0
  -21.9905   -9.0250   20.4650 C   0  0  0  0  0  0
  -22.7233  -10.2125   20.3054 C   0  0  0  0  0  0
  -21.6852   -6.0735   22.5279 C   0  0  0  0  0  0
  -21.4012   -6.5640   23.8211 C   0  0  0  0  0  0
  -21.3653   -5.6793   24.9175 C   0  0  0  0  0  0
  -21.6039   -4.3055   24.7222 C   0  0  0  0  0  0
  -21.8823   -3.8145   23.4344 C   0  0  0  0  0  0
  -21.9195   -4.6964   22.3402 C   0  0  0  0  0  0
  -22.7828  -13.5219   21.1849 C   0  0  0  0  0  0
  -22.1664   -4.2152   21.0978 F   0  0  0  0  0  0
  -21.5622   -3.4538   25.7733 F   0  0  0  0  0  0
  -29.9865  -13.5083   20.3967 N   0  0  0  0  0  0
  -26.2933  -12.9369   20.3256 N   0  0  0  0  0  0
  -25.9310  -11.6514   20.5727 N   0  0  0  0  0  0
  -22.0466  -12.8217   22.0405 N   0  0  0  0  0  0
  -25.4205  -15.1892   20.4118 N   0  0  0  0  0  0
  -31.8050  -14.8169   20.1591 O   0  0  0  0  0  0
  -21.6641   -6.8876   21.4239 O   0  0  0  0  0  0
  -22.3528  -14.5532   20.6699 O   0  0  0  0  0  0
  -24.6309  -31.8522   23.1948 C   0  0  0  0  0  0
  -25.9124  -32.4746   23.8308 C   0  0  1  0  0  0
  -27.2277  -27.2509   20.1211 C   0  0  0  0  0  0
  -25.5923  -33.8551   24.2239 N   0  0  0  0  0  0
  -23.4284  -30.4710   21.5404 C   0  0  2  0  0  0
  -24.8747  -28.9139   20.1058 C   0  0  0  0  0  0
  -22.7506  -29.4560   22.4938 C   0  0  0  0  0  0
  -18.0284  -28.1386   22.8494 C   0  0  0  0  0  0
  -24.1480  -36.7270   23.2648 C   0  0  0  0  0  0
  -25.9744  -30.7607   21.3743 C   0  0  0  0  0  0
  -26.0446  -29.3823   20.7158 C   0  0  0  0  0  0
  -27.2169  -28.5600   20.7145 C   0  0  0  0  0  0
  -26.0299  -26.8453   19.4917 C   0  0  0  0  0  0
  -24.8740  -27.6539   19.4863 C   0  0  0  0  0  0
  -23.6428  -29.7992   20.1571 C   0  0  0  0  0  0
  -25.4114  -36.3070   24.0327 C   0  0  1  0  0  0
  -20.5885  -28.3663   23.1301 C   0  0  2  0  0  0
  -20.6767  -26.9390   22.5427 C   0  0  0  0  0  0
  -19.5748  -26.6364   21.5233 C   0  0  0  0  0  0
  -18.1920  -26.7936   22.1620 C   0  0  0  0  0  0
  -19.1535  -28.8848   23.2886 C   0  0  0  0  0  0
  -18.9464  -30.1467   23.8880 C   0  0  0  0  0  0
  -17.6465  -30.6591   24.0565 C   0  0  0  0  0  0
  -25.9052  -34.9439   23.5084 C   0  0  0  0  0  0
  -16.5352  -29.9085   23.6353 C   0  0  0  0  0  0
  -16.7267  -28.6504   23.0366 C   0  0  0  0  0  0
  -26.4483  -31.6602   25.0721 C   0  0  0  0  0  0
  -25.3697  -31.3761   26.1443 C   0  0  0  0  0  0
  -27.0353  -30.3034   24.6202 C   0  0  0  0  0  0
  -27.6038  -32.4353   25.7489 C   0  0  0  0  0  0
  -27.5579  -37.1797   24.8474 C   0  0  0  0  0  0
  -21.4206  -29.3022   22.3709 N   0  0  0  0  0  0
  -26.4291  -37.3776   23.9418 N   0  0  0  0  0  0
  -24.6976  -31.0474   22.0929 N   0  0  0  0  0  0
  -23.4213  -28.8105   23.3030 O   0  0  0  0  0  0
  -28.3463  -26.3885   20.2221 O   0  0  0  0  0  0
  -26.5640  -34.8921   22.4666 O   0  0  0  0  0  0
  -23.5451  -32.1342   23.7235 O   0  0  0  0  0  0
  -31.7871  -19.0275   21.3969 C   0  0  0  0  0  0
  -31.4363  -17.6840   21.1797 C   0  0  0  0  0  0
  -30.8832  -20.0911   21.1826 C   0  0  0  0  0  0
  -29.5773  -19.8467   20.6759 C   0  0  0  0  0  0
  -29.2340  -18.4317   20.4658 C   0  0  0  0  0  0
  -30.1528  -17.3183   20.7244 C   0  0  0  0  0  0
  -28.3527  -23.7002   20.4483 C   0  0  0  0  0  0
  -30.5028  -23.6995   18.5231 C   0  0  0  0  0  0
  -29.8811  -25.0730   18.8784 C   0  0  0  0  0  0
  -29.5481  -22.4981   18.6868 C   0  0  0  0  0  0
  -28.4934  -25.0387   19.5607 C   0  0  2  0  0  0
  -31.3650  -21.4813   21.5625 C   0  0  0  0  0  0
  -27.8391  -18.1028   19.9564 C   0  0  0  0  0  0
  -28.5365  -21.0706   20.5071 C   0  0  0  0  0  0
  -28.8692  -22.4845   19.9864 N   0  0  0  0  0  0
  -29.8179  -15.8679   20.6200 N   0  0  0  0  0  0
  -27.7268  -23.7650   21.5089 O   0  0  0  0  0  0
  -31.4741  -12.5699   19.1626 H   0  0  0  0  0  0
  -30.3776  -11.4673   19.9463 H   0  0  0  0  0  0
  -29.7913  -11.7277   17.5137 H   0  0  0  0  0  0
  -29.6374  -13.4563   17.7167 H   0  0  0  0  0  0
  -27.8968  -11.2755   18.9110 H   0  0  0  0  0  0
  -27.3780  -12.5121   17.7970 H   0  0  0  0  0  0
  -27.6365  -14.2467   19.4651 H   0  0  0  0  0  0
  -28.7185  -12.1570   21.4184 H   0  0  0  0  0  0
  -28.4221  -13.8369   21.7926 H   0  0  0  0  0  0
  -25.2758   -9.5686   22.4761 H   0  0  0  0  0  0
  -23.9995   -7.4639   22.7488 H   0  0  0  0  0  0
  -21.0838   -8.8761   19.8958 H   0  0  0  0  0  0
  -22.3689  -10.9661   19.6165 H   0  0  0  0  0  0
  -21.2006   -7.6150   23.9715 H   0  0  0  0  0  0
  -21.1462   -6.0522   25.9076 H   0  0  0  0  0  0
  -22.0605   -2.7609   23.2841 H   0  0  0  0  0  0
  -22.4075  -11.9875   22.4789 H   0  0  0  0  0  0
  -21.1086  -13.1253   22.2600 H   0  0  0  0  0  0
  -24.6511  -15.8389   20.5291 H   0  0  0  0  0  0
  -26.2576  -15.6272   20.0547 H   0  0  0  0  0  0
  -26.7196  -32.5366   23.1051 H   0  0  0  0  0  0
  -25.0130  -33.9705   25.0423 H   0  0  0  0  0  0
  -22.7257  -31.2926   21.3926 H   0  0  0  0  0  0
  -23.3761  -35.9585   23.3304 H   0  0  0  0  0  0
  -24.3579  -36.8899   22.2069 H   0  0  0  0  0  0
  -23.7207  -37.6456   23.6668 H   0  0  0  0  0  0
  -26.1186  -31.5200   20.6041 H   0  0  0  0  0  0
  -26.8515  -30.8081   22.0081 H   0  0  0  0  0  0
  -28.1106  -28.9119   21.2095 H   0  0  0  0  0  0
  -25.9400  -25.8742   19.0310 H   0  0  0  0  0  0
  -23.9743  -27.2830   19.0148 H   0  0  0  0  0  0
  -23.7590  -30.5719   19.3967 H   0  0  0  0  0  0
  -22.7607  -29.2277   19.8583 H   0  0  0  0  0  0
  -25.1300  -36.1923   25.0819 H   0  0  0  0  0  0
  -20.9967  -28.3200   24.1423 H   0  0  0  0  0  0
  -20.5685  -26.2263   23.3616 H   0  0  0  0  0  0
  -21.6633  -26.7425   22.1216 H   0  0  0  0  0  0
  -19.6913  -25.6272   21.1264 H   0  0  0  0  0  0
  -19.6700  -27.3172   20.6766 H   0  0  0  0  0  0
  -17.4214  -26.6717   21.3993 H   0  0  0  0  0  0
  -18.0271  -26.0068   22.8991 H   0  0  0  0  0  0
  -19.7942  -30.7300   24.2200 H   0  0  0  0  0  0
  -17.5022  -31.6269   24.5169 H   0  0  0  0  0  0
  -15.5358  -30.2994   23.7690 H   0  0  0  0  0  0
  -15.8657  -28.0831   22.7093 H   0  0  0  0  0  0
  -24.5907  -30.7053   25.7805 H   0  0  0  0  0  0
  -24.8836  -32.2924   26.4791 H   0  0  0  0  0  0
  -25.8012  -30.9029   27.0274 H   0  0  0  0  0  0
  -26.2945  -29.6782   24.1206 H   0  0  0  0  0  0
  -27.4062  -29.7291   25.4708 H   0  0  0  0  0  0
  -27.8793  -30.4370   23.9438 H   0  0  0  0  0  0
  -27.2663  -33.3706   26.1961 H   0  0  0  0  0  0
  -28.3882  -32.6822   25.0326 H   0  0  0  0  0  0
  -28.0646  -31.8540   26.5487 H   0  0  0  0  0  0
  -28.2604  -38.0090   24.7529 H   0  0  0  0  0  0
  -28.1065  -36.2624   24.6280 H   0  0  0  0  0  0
  -27.2305  -37.1427   25.8882 H   0  0  0  0  0  0
  -20.9381  -29.8784   21.6958 H   0  0  0  0  0  0
  -26.0162  -38.2847   24.1422 H   0  0  0  0  0  0
  -32.7782  -19.2377   21.7765 H   0  0  0  0  0  0
  -32.1772  -16.9323   21.4125 H   0  0  0  0  0  0
  -31.3797  -23.5449   19.1515 H   0  0  0  0  0  0
  -30.8853  -23.7189   17.5022 H   0  0  0  0  0  0
  -29.8038  -25.6754   17.9719 H   0  0  0  0  0  0
  -30.5836  -25.6127   19.5158 H   0  0  0  0  0  0
  -30.1030  -21.5711   18.5400 H   0  0  0  0  0  0
  -28.7909  -22.5209   17.9010 H   0  0  0  0  0  0
  -27.7710  -24.9281   18.7552 H   0  0  0  0  0  0
  -32.1463  -21.4305   22.3230 H   0  0  0  0  0  0
  -30.5698  -22.0979   21.9805 H   0  0  0  0  0  0
  -31.7898  -21.9806   20.6946 H   0  0  0  0  0  0
  -27.0874  -18.3975   20.6892 H   0  0  0  0  0  0
  -27.7015  -17.0434   19.7470 H   0  0  0  0  0  0
  -27.6432  -18.6313   19.0234 H   0  0  0  0  0  0
  -28.0614  -21.1823   21.4817 H   0  0  0  0  0  0
  -27.7348  -20.7343   19.8528 H   0  0  0  0  0  0
  -28.8352  -15.6544   20.6829 H   0  0  0  0  0  0
  1 25  1  0  0  0
  1 30  2  0  0  0
  1 86  1  0  0  0
  2  3  1  0  0  0
  2 25  1  0  0  0
  2 88  1  0  0  0
  2 89  1  0  0  0
  3  4  1  0  0  0
  3 90  1  0  0  0
  3 91  1  0  0  0
  4  5  1  0  0  0
  4 92  1  0  0  0
  4 93  1  0  0  0
  5  6  1  0  0  0
  5 26  1  0  0  0
  5 94  1  0  0  0
  6 25  1  0  0  0
  6 95  1  0  0  0
  6 96  1  0  0  0
  7  8  2  0  0  0
  7 26  1  0  0  0
  7 29  1  0  0  0
  8  9  1  0  0  0
  8 22  1  0  0  0
  9 10  1  0  0  0
  9 27  2  0  0  0
 10 11  2  0  0  0
 10 15  1  0  0  0
 11 12  1  0  0  0
 11 97  1  0  0  0
 12 13  2  0  0  0
 12 98  1  0  0  0
 13 14  1  0  0  0
 13 31  1  0  0  0
 14 15  2  0  0  0
 14 99  1  0  0  0
 15100  1  0  0  0
 16 17  2  0  0  0
 16 21  1  0  0  0
 16 31  1  0  0  0
 17 18  1  0  0  0
 17101  1  0  0  0
 18 19  2  0  0  0
 18102  1  0  0  0
 19 20  1  0  0  0
 19 24  1  0  0  0
 20 21  2  0  0  0
 20103  1  0  0  0
 21 23  1  0  0  0
 22 28  1  0  0  0
 22 32  2  0  0  0
 26 27  1  0  0  0
 28104  1  0  0  0
 28105  1  0  0  0
 29106  1  0  0  0
 29107  1  0  0  0
 33 34  1  0  0  0
 33 66  1  0  0  0
 33 70  2  0  0  0
 34 36  1  0  0  0
 34 59  1  0  0  0
 34108  1  0  0  0
 35 44  2  0  0  0
 35 45  1  0  0  0
 35 68  1  0  0  0
 36 56  1  0  0  0
 36109  1  0  0  0
 37 39  1  0  0  0
 37 47  1  0  0  0
 37 66  1  0  0  0
 37110  1  0  0  0
 38 43  2  0  0  0
 38 46  1  0  0  0
 38 47  1  0  0  0
 39 64  1  0  0  0
 39 67  2  0  0  0
 40 52  1  0  0  0
 40 53  2  0  0  0
 40 58  1  0  0  0
 41111  1  0  0  0
 41112  1  0  0  0
 41113  1  0  0  0
 41 48  1  0  0  0
 42 43  1  0  0  0
 42 66  1  0  0  0
 42114  1  0  0  0
 42115  1  0  0  0
 43 44  1  0  0  0
 44116  1  0  0  0
 45 46  2  0  0  0
 45117  1  0  0  0
 46118  1  0  0  0
 47119  1  0  0  0
 47120  1  0  0  0
 48 56  1  0  0  0
 48 65  1  0  0  0
 48121  1  0  0  0
 49 50  1  0  0  0
 49 53  1  0  0  0
 49 64  1  0  0  0
 49122  1  0  0  0
 50 51  1  0  0  0
 50123  1  0  0  0
 50124  1  0  0  0
 51 52  1  0  0  0
 51125  1  0  0  0
 51126  1  0  0  0
 52127  1  0  0  0
 52128  1  0  0  0
 53 54  1  0  0  0
 54 55  2  0  0  0
 54129  1  0  0  0
 55 57  1  0  0  0
 55130  1  0  0  0
 56 69  2  0  0  0
 57 58  2  0  0  0
 57131  1  0  0  0
 58132  1  0  0  0
 59 60  1  0  0  0
 59 61  1  0  0  0
 59 62  1  0  0  0
 60133  1  0  0  0
 60134  1  0  0  0
 60135  1  0  0  0
 61136  1  0  0  0
 61137  1  0  0  0
 61138  1  0  0  0
 62139  1  0  0  0
 62140  1  0  0  0
 62141  1  0  0  0
 63 65  1  0  0  0
 63142  1  0  0  0
 63143  1  0  0  0
 63144  1  0  0  0
 64145  1  0  0  0
 65146  1  0  0  0
 68 81  1  0  0  0
 71 72  2  0  0  0
 71 73  1  0  0  0
 71147  1  0  0  0
 72 76  1  0  0  0
 72148  1  0  0  0
 73 74  2  0  0  0
 73 82  1  0  0  0
 74 75  1  0  0  0
 74 84  1  0  0  0
 75 76  2  0  0  0
 75 83  1  0  0  0
 76 86  1  0  0  0
 77 81  1  0  0  0
 77 85  1  0  0  0
 77 87  2  0  0  0
 78 79  1  0  0  0
 78 80  1  0  0  0
 78149  1  0  0  0
 78150  1  0  0  0
 79 81  1  0  0  0
 79151  1  0  0  0
 79152  1  0  0  0
 80 85  1  0  0  0
 80153  1  0  0  0
 80154  1  0  0  0
 81155  1  0  0  0
 82156  1  0  0  0
 82157  1  0  0  0
 82158  1  0  0  0
 83159  1  0  0  0
 83160  1  0  0  0
 83161  1  0  0  0
 84 85  1  0  0  0
 84162  1  0  0  0
 84163  1  0  0  0
 86164  1  0  0  0
M  ISO  4   1 100  68 101  81 101  86 100
M  END
> <chiral flag>
0

> <version>
0

> <s_m_source_file>
/data/baiqing/PycharmProjects/Reinvent-master-3.2/result/LINK_invent/BTK/process_docking_weight1_custom_product_contain_oxygen_bond_distance_aromatic_linkinvent_7_9_3/rearranged_h_0044.sdf

> <i_m_source_file_index>
25

> <r_mmod_Potential_Energy-OPLS-2005>
227.776519775391

> <r_mmod_Stretch_Energy-OPLS-2005>
144.085372924805

> <r_mmod_Bend_Energy-OPLS-2005>
184.228210449219

> <r_mmod_Torsional_Energy-OPLS-2005>
247.96891784668

> <r_mmod_Improper_Torsional_Energy-OPLS-2005>
7.25725126266479

> <r_mmod_Van_der_Waal_Energy-OPLS-2005>
146.975189208984

> <r_mmod_Electrostatic_Energy-OPLS-2005>
-355.822052001953

> <r_mmod_Solvation_Energy-OPLS-2005>
-231.152877807617

> <b_mmod_Minimization_Converged-OPLS-2005>
0

> <r_mmod_RMS_Derivative-OPLS-2005>
2.08424782752991

$$$$
25
                    3D
 Structure written by MMmdl.
167176  0  0  1  0            999 V2000
  -30.6486  -14.7242   20.4662 C   0  0  0  0  0  0
  -30.4230  -12.4415   19.4772 C   0  0  0  0  0  0
  -29.5075  -12.5066   18.2366 C   0  0  0  0  0  0
  -28.0332  -12.3373   18.6483 C   0  0  0  0  0  0
  -27.6414  -13.2373   19.8511 C   0  0  2  0  0  0
  -28.6860  -13.1785   20.9880 C   0  0  0  0  0  0
  -25.2495  -13.8204   20.5693 C   0  0  0  0  0  0
  -24.1794  -13.0444   20.9216 C   0  0  0  0  0  0
  -24.6392  -11.6929   20.8753 C   0  0  0  0  0  0
  -23.9069  -10.4301   21.0405 C   0  0  0  0  0  0
  -24.3619   -9.4216   21.9180 C   0  0  0  0  0  0
  -23.6297   -8.2248   22.0749 C   0  0  0  0  0  0
  -22.4282   -8.0281   21.3540 C   0  0  0  0  0  0
  -21.9913   -9.0255   20.4641 C   0  0  0  0  0  0
  -22.7240  -10.2136   20.3052 C   0  0  0  0  0  0
  -21.6855   -6.0734   22.5275 C   0  0  0  0  0  0
  -21.4017   -6.5639   23.8207 C   0  0  0  0  0  0
  -21.3660   -5.6791   24.9170 C   0  0  0  0  0  0
  -21.6047   -4.3054   24.7221 C   0  0  0  0  0  0
  -21.8821   -3.8144   23.4341 C   0  0  0  0  0  0
  -21.9194   -4.6961   22.3399 C   0  0  0  0  0  0
  -22.7816  -13.5224   21.1867 C   0  0  0  0  0  0
  -22.1664   -4.2146   21.0977 F   0  0  0  0  0  0
  -21.5627   -3.4536   25.7732 F   0  0  0  0  0  0
  -29.9910  -13.5147   20.4051 N   0  0  0  0  0  0
  -26.2933  -12.9430   20.3285 N   0  0  0  0  0  0
  -25.9327  -11.6566   20.5759 N   0  0  0  0  0  0
  -22.0460  -12.8217   22.0422 N   0  0  0  0  0  0
  -25.4154  -15.1923   20.4083 N   0  0  0  0  0  0
  -31.8338  -14.7645   20.1296 O   0  0  0  0  0  0
  -21.6646   -6.8878   21.4236 O   0  0  0  0  0  0
  -22.3503  -14.5527   20.6707 O   0  0  0  0  0  0
  -24.6314  -31.8558   23.2007 C   0  0  0  0  0  0
  -25.9148  -32.4749   23.8341 C   0  0  1  0  0  0
  -27.2116  -27.2573   20.1204 C   0  0  0  0  0  0
  -25.5952  -33.8556   24.2265 N   0  0  0  0  0  0
  -23.4268  -30.4818   21.5437 C   0  0  2  0  0  0
  -24.8722  -28.9353   20.1064 C   0  0  0  0  0  0
  -22.7503  -29.4604   22.4901 C   0  0  0  0  0  0
  -18.0294  -28.1384   22.8485 C   0  0  0  0  0  0
  -24.1489  -36.7276   23.2639 C   0  0  0  0  0  0
  -25.9745  -30.7649   21.3852 C   0  0  0  0  0  0
  -26.0429  -29.3889   20.7251 C   0  0  0  0  0  0
  -27.2100  -28.5588   20.7302 C   0  0  0  0  0  0
  -26.0229  -26.8940   19.4417 C   0  0  0  0  0  0
  -24.8678  -27.6961   19.4553 C   0  0  0  0  0  0
  -23.6446  -29.8221   20.1573 C   0  0  0  0  0  0
  -25.4115  -36.3065   24.0329 C   0  0  1  0  0  0
  -20.5896  -28.3699   23.1265 C   0  0  2  0  0  0
  -20.6777  -26.9416   22.5406 C   0  0  0  0  0  0
  -19.5750  -26.6380   21.5211 C   0  0  0  0  0  0
  -18.1933  -26.7928   22.1623 C   0  0  0  0  0  0
  -19.1547  -28.8859   23.2869 C   0  0  0  0  0  0
  -18.9468  -30.1459   23.8890 C   0  0  0  0  0  0
  -17.6465  -30.6586   24.0560 C   0  0  0  0  0  0
  -25.9062  -34.9438   23.5095 C   0  0  0  0  0  0
  -16.5358  -29.9083   23.6329 C   0  0  0  0  0  0
  -16.7278  -28.6497   23.0353 C   0  0  0  0  0  0
  -26.4517  -31.6575   25.0730 C   0  0  0  0  0  0
  -25.3743  -31.3729   26.1450 C   0  0  0  0  0  0
  -27.0366  -30.2986   24.6234 C   0  0  0  0  0  0
  -27.6068  -32.4322   25.7500 C   0  0  0  0  0  0
  -27.5580  -37.1786   24.8462 C   0  0  0  0  0  0
  -21.4209  -29.3045   22.3650 N   0  0  0  0  0  0
  -26.4282  -37.3771   23.9420 N   0  0  0  0  0  0
  -24.6967  -31.0524   22.0989 N   0  0  0  0  0  0
  -23.4207  -28.8137   23.2991 O   0  0  0  0  0  0
  -28.3017  -26.3551   20.2249 O   0  0  0  0  0  0
  -26.5626  -34.8914   22.4659 O   0  0  0  0  0  0
  -23.5467  -32.1390   23.7300 O   0  0  0  0  0  0
  -32.0719  -19.0444   20.5719 C   0  0  0  0  0  0
  -31.6586  -17.7023   20.5894 C   0  0  0  0  0  0
  -31.1573  -20.1130   20.6383 C   0  0  0  0  0  0
  -29.7604  -19.8671   20.6877 C   0  0  0  0  0  0
  -29.3497  -18.4538   20.6831 C   0  0  0  0  0  0
  -30.2942  -17.3353   20.6447 C   0  0  0  0  0  0
  -28.7059  -23.7299   20.6794 C   0  0  0  0  0  0
  -29.4328  -23.4824   17.9484 C   0  0  0  0  0  0
  -28.7965  -24.8421   18.3099 C   0  0  0  0  0  0
  -28.7796  -22.2944   18.6870 C   0  0  0  0  0  0
  -28.2078  -24.9280   19.7373 C   0  0  2  0  0  0
  -31.7326  -21.5185   20.7142 C   0  0  0  0  0  0
  -27.3357  -18.0692   22.1803 C   0  0  0  0  0  0
  -27.8659  -18.1114   20.7426 C   0  0  0  0  0  0
  -28.7785  -21.1193   20.9136 C   0  0  0  0  0  0
  -28.8454  -22.4463   20.1465 N   0  0  0  0  0  0
  -29.9166  -15.8866   20.6981 N   0  0  0  0  0  0
  -28.8587  -23.9494   21.8847 O   0  0  0  0  0  0
  -31.4673  -12.5397   19.1762 H   0  0  0  0  0  0
  -30.3467  -11.4669   19.9615 H   0  0  0  0  0  0
  -29.7875  -11.7341   17.5192 H   0  0  0  0  0  0
  -29.6414  -13.4625   17.7279 H   0  0  0  0  0  0
  -27.8846  -11.2886   18.9081 H   0  0  0  0  0  0
  -27.3777  -12.5345   17.7994 H   0  0  0  0  0  0
  -27.6342  -14.2589   19.4701 H   0  0  0  0  0  0
  -28.7142  -12.1862   21.4402 H   0  0  0  0  0  0
  -28.4247  -13.8717   21.7889 H   0  0  0  0  0  0
  -25.2761   -9.5699   22.4758 H   0  0  0  0  0  0
  -24.0005   -7.4643   22.7473 H   0  0  0  0  0  0
  -21.0840   -8.8772   19.8951 H   0  0  0  0  0  0
  -22.3691  -10.9673   19.6164 H   0  0  0  0  0  0
  -21.2011   -7.6147   23.9710 H   0  0  0  0  0  0
  -21.1482   -6.0520   25.9073 H   0  0  0  0  0  0
  -22.0600   -2.7605   23.2838 H   0  0  0  0  0  0
  -22.4075  -11.9885   22.4824 H   0  0  0  0  0  0
  -21.1073  -13.1235   22.2618 H   0  0  0  0  0  0
  -24.6403  -15.8383   20.5101 H   0  0  0  0  0  0
  -26.2466  -15.6267   20.0326 H   0  0  0  0  0  0
  -26.7210  -32.5393   23.1076 H   0  0  0  0  0  0
  -25.0118  -33.9694   25.0424 H   0  0  0  0  0  0
  -22.7230  -31.3041   21.4000 H   0  0  0  0  0  0
  -23.3758  -35.9597   23.3278 H   0  0  0  0  0  0
  -24.3592  -36.8923   22.2058 H   0  0  0  0  0  0
  -23.7227  -37.6468   23.6672 H   0  0  0  0  0  0
  -26.1186  -31.5259   20.6166 H   0  0  0  0  0  0
  -26.8511  -30.8097   22.0199 H   0  0  0  0  0  0
  -28.0995  -28.8947   21.2443 H   0  0  0  0  0  0
  -25.9287  -25.9755   18.8875 H   0  0  0  0  0  0
  -23.9762  -27.3515   18.9497 H   0  0  0  0  0  0
  -23.7715  -30.6008   19.4043 H   0  0  0  0  0  0
  -22.7621  -29.2583   19.8490 H   0  0  0  0  0  0
  -25.1293  -36.1904   25.0819 H   0  0  0  0  0  0
  -20.9996  -28.3271   24.1379 H   0  0  0  0  0  0
  -20.5671  -26.2310   23.3611 H   0  0  0  0  0  0
  -21.6644  -26.7429   22.1203 H   0  0  0  0  0  0
  -19.6911  -25.6288   21.1245 H   0  0  0  0  0  0
  -19.6687  -27.3187   20.6738 H   0  0  0  0  0  0
  -17.4204  -26.6678   21.4024 H   0  0  0  0  0  0
  -18.0335  -26.0071   22.9021 H   0  0  0  0  0  0
  -19.7945  -30.7275   24.2256 H   0  0  0  0  0  0
  -17.5021  -31.6268   24.5160 H   0  0  0  0  0  0
  -15.5358  -30.2982   23.7657 H   0  0  0  0  0  0
  -15.8678  -28.0813   22.7072 H   0  0  0  0  0  0
  -24.5932  -30.7057   25.7790 H   0  0  0  0  0  0
  -24.8918  -32.2898   26.4845 H   0  0  0  0  0  0
  -25.8073  -30.8939   27.0241 H   0  0  0  0  0  0
  -26.2959  -29.6720   24.1251 H   0  0  0  0  0  0
  -27.4030  -29.7260   25.4765 H   0  0  0  0  0  0
  -27.8848  -30.4248   23.9503 H   0  0  0  0  0  0
  -27.2677  -33.3632   26.2053 H   0  0  0  0  0  0
  -28.3893  -32.6865   25.0338 H   0  0  0  0  0  0
  -28.0719  -31.8462   26.5437 H   0  0  0  0  0  0
  -28.2571  -38.0111   24.7548 H   0  0  0  0  0  0
  -28.1103  -36.2642   24.6233 H   0  0  0  0  0  0
  -27.2309  -37.1375   25.8867 H   0  0  0  0  0  0
  -20.9389  -29.8780   21.6871 H   0  0  0  0  0  0
  -26.0152  -38.2836   24.1448 H   0  0  0  0  0  0
  -33.1336  -19.2490   20.5413 H   0  0  0  0  0  0
  -32.4468  -16.9671   20.5812 H   0  0  0  0  0  0
  -30.4948  -23.5109   18.1986 H   0  0  0  0  0  0
  -29.3903  -23.3285   16.8693 H   0  0  0  0  0  0
  -28.0002  -25.0641   17.5991 H   0  0  0  0  0  0
  -29.5420  -25.6256   18.1690 H   0  0  0  0  0  0
  -29.2754  -21.3702   18.3869 H   0  0  0  0  0  0
  -27.7347  -22.1940   18.3883 H   0  0  0  0  0  0
  -27.1672  -24.6255   19.6780 H   0  0  0  0  0  0
  -32.8070  -21.5027   20.9003 H   0  0  0  0  0  0
  -31.2807  -22.0880   21.5266 H   0  0  0  0  0  0
  -31.5736  -22.0505   19.7773 H   0  0  0  0  0  0
  -26.2743  -17.8205   22.1959 H   0  0  0  0  0  0
  -27.4600  -19.0304   22.6793 H   0  0  0  0  0  0
  -27.8602  -17.3171   22.7706 H   0  0  0  0  0  0
  -27.6902  -17.1487   20.2642 H   0  0  0  0  0  0
  -27.2900  -18.8120   20.1398 H   0  0  0  0  0  0
  -28.8628  -21.3530   21.9757 H   0  0  0  0  0  0
  -27.7478  -20.7914   20.8055 H   0  0  0  0  0  0
  -28.9440  -15.7094   20.8937 H   0  0  0  0  0  0
  1 25  1  0  0  0
  1 30  2  0  0  0
  1 87  1  0  0  0
  2  3  1  0  0  0
  2 25  1  0  0  0
  2 89  1  0  0  0
  2 90  1  0  0  0
  3  4  1  0  0  0
  3 91  1  0  0  0
  3 92  1  0  0  0
  4  5  1  0  0  0
  4 93  1  0  0  0
  4 94  1  0  0  0
  5  6  1  0  0  0
  5 26  1  0  0  0
  5 95  1  0  0  0
  6 25  1  0  0  0
  6 96  1  0  0  0
  6 97  1  0  0  0
  7  8  2  0  0  0
  7 26  1  0  0  0
  7 29  1  0  0  0
  8  9  1  0  0  0
  8 22  1  0  0  0
  9 10  1  0  0  0
  9 27  2  0  0  0
 10 11  2  0  0  0
 10 15  1  0  0  0
 11 12  1  0  0  0
 11 98  1  0  0  0
 12 13  2  0  0  0
 12 99  1  0  0  0
 13 14  1  0  0  0
 13 31  1  0  0  0
 14 15  2  0  0  0
 14100  1  0  0  0
 15101  1  0  0  0
 16 17  2  0  0  0
 16 21  1  0  0  0
 16 31  1  0  0  0
 17 18  1  0  0  0
 17102  1  0  0  0
 18 19  2  0  0  0
 18103  1  0  0  0
 19 20  1  0  0  0
 19 24  1  0  0  0
 20 21  2  0  0  0
 20104  1  0  0  0
 21 23  1  0  0  0
 22 28  1  0  0  0
 22 32  2  0  0  0
 26 27  1  0  0  0
 28105  1  0  0  0
 28106  1  0  0  0
 29107  1  0  0  0
 29108  1  0  0  0
 33 34  1  0  0  0
 33 66  1  0  0  0
 33 70  2  0  0  0
 34 36  1  0  0  0
 34 59  1  0  0  0
 34109  1  0  0  0
 35 44  2  0  0  0
 35 45  1  0  0  0
 35 68  1  0  0  0
 36 56  1  0  0  0
 36110  1  0  0  0
 37 39  1  0  0  0
 37 47  1  0  0  0
 37 66  1  0  0  0
 37111  1  0  0  0
 38 43  2  0  0  0
 38 46  1  0  0  0
 38 47  1  0  0  0
 39 64  1  0  0  0
 39 67  2  0  0  0
 40 52  1  0  0  0
 40 53  2  0  0  0
 40 58  1  0  0  0
 41112  1  0  0  0
 41113  1  0  0  0
 41114  1  0  0  0
 41 48  1  0  0  0
 42 43  1  0  0  0
 42 66  1  0  0  0
 42115  1  0  0  0
 42116  1  0  0  0
 43 44  1  0  0  0
 44117  1  0  0  0
 45 46  2  0  0  0
 45118  1  0  0  0
 46119  1  0  0  0
 47120  1  0  0  0
 47121  1  0  0  0
 48 56  1  0  0  0
 48 65  1  0  0  0
 48122  1  0  0  0
 49 50  1  0  0  0
 49 53  1  0  0  0
 49 64  1  0  0  0
 49123  1  0  0  0
 50 51  1  0  0  0
 50124  1  0  0  0
 50125  1  0  0  0
 51 52  1  0  0  0
 51126  1  0  0  0
 51127  1  0  0  0
 52128  1  0  0  0
 52129  1  0  0  0
 53 54  1  0  0  0
 54 55  2  0  0  0
 54130  1  0  0  0
 55 57  1  0  0  0
 55131  1  0  0  0
 56 69  2  0  0  0
 57 58  2  0  0  0
 57132  1  0  0  0
 58133  1  0  0  0
 59 60  1  0  0  0
 59 61  1  0  0  0
 59 62  1  0  0  0
 60134  1  0  0  0
 60135  1  0  0  0
 60136  1  0  0  0
 61137  1  0  0  0
 61138  1  0  0  0
 61139  1  0  0  0
 62140  1  0  0  0
 62141  1  0  0  0
 62142  1  0  0  0
 63 65  1  0  0  0
 63143  1  0  0  0
 63144  1  0  0  0
 63145  1  0  0  0
 64146  1  0  0  0
 65147  1  0  0  0
 68 81  1  0  0  0
 71 72  2  0  0  0
 71 73  1  0  0  0
 71148  1  0  0  0
 72 76  1  0  0  0
 72149  1  0  0  0
 73 74  2  0  0  0
 73 82  1  0  0  0
 74 75  1  0  0  0
 74 85  1  0  0  0
 75 76  2  0  0  0
 75 84  1  0  0  0
 76 87  1  0  0  0
 77 81  1  0  0  0
 77 86  1  0  0  0
 77 88  2  0  0  0
 78 79  1  0  0  0
 78 80  1  0  0  0
 78150  1  0  0  0
 78151  1  0  0  0
 79 81  1  0  0  0
 79152  1  0  0  0
 79153  1  0  0  0
 80 86  1  0  0  0
 80154  1  0  0  0
 80155  1  0  0  0
 81156  1  0  0  0
 82157  1  0  0  0
 82158  1  0  0  0
 82159  1  0  0  0
 83 84  1  0  0  0
 83160  1  0  0  0
 83161  1  0  0  0
 83162  1  0  0  0
 84163  1  0  0  0
 84164  1  0  0  0
 85 86  1  0  0  0
 85165  1  0  0  0
 85166  1  0  0  0
 87167  1  0  0  0
M  ISO  4   1 100  68 101  81 101  87 100
M  END
> <chiral flag>
0

> <version>
0

> <s_m_source_file>
/data/baiqing/PycharmProjects/Reinvent-master-3.2/result/LINK_invent/BTK/process_docking_weight1_custom_product_contain_oxygen_bond_distance_aromatic_linkinvent_7_9_3/rearranged_h_0044.sdf

> <i_m_source_file_index>
26

> <r_mmod_Potential_Energy-OPLS-2005>
230.780090332031

> <r_mmod_Stretch_Energy-OPLS-2005>
138.549560546875

> <r_mmod_Bend_Energy-OPLS-2005>
176.769424438477

> <r_mmod_Torsional_Energy-OPLS-2005>
245.220062255859

> <r_mmod_Improper_Torsional_Energy-OPLS-2005>
6.74890804290771

> <r_mmod_Van_der_Waal_Energy-OPLS-2005>
155.792465209961

> <r_mmod_Electrostatic_Energy-OPLS-2005>
-349.682373046875

> <r_mmod_Solvation_Energy-OPLS-2005>
-226.613265991211

> <b_mmod_Minimization_Converged-OPLS-2005>
0

> <r_mmod_RMS_Derivative-OPLS-2005>
0.81619656085968

$$$$
26
                    3D
 Structure written by MMmdl.
161170  0  0  1  0            999 V2000
  -30.5749  -14.7714   20.4689 C   0  0  0  0  0  0
  -30.4456  -12.4741   19.4633 C   0  0  0  0  0  0
  -29.5138  -12.5020   18.2301 C   0  0  0  0  0  0
  -28.0385  -12.3202   18.6460 C   0  0  0  0  0  0
  -27.6378  -13.2238   19.8405 C   0  0  2  0  0  0
  -28.6847  -13.1608   20.9714 C   0  0  0  0  0  0
  -25.2504  -13.8179   20.5678 C   0  0  0  0  0  0
  -24.1791  -13.0433   20.9195 C   0  0  0  0  0  0
  -24.6380  -11.6911   20.8738 C   0  0  0  0  0  0
  -23.9059  -10.4292   21.0416 C   0  0  0  0  0  0
  -24.3614   -9.4204   21.9193 C   0  0  0  0  0  0
  -23.6286   -8.2242   22.0762 C   0  0  0  0  0  0
  -22.4265   -8.0286   21.3553 C   0  0  0  0  0  0
  -21.9897   -9.0257   20.4653 C   0  0  0  0  0  0
  -22.7231  -10.2134   20.3066 C   0  0  0  0  0  0
  -21.6852   -6.0738   22.5279 C   0  0  0  0  0  0
  -21.4018   -6.5644   23.8212 C   0  0  0  0  0  0
  -21.3661   -5.6792   24.9174 C   0  0  0  0  0  0
  -21.6046   -4.3053   24.7224 C   0  0  0  0  0  0
  -21.8817   -3.8145   23.4343 C   0  0  0  0  0  0
  -21.9188   -4.6965   22.3400 C   0  0  0  0  0  0
  -22.7816  -13.5225   21.1874 C   0  0  0  0  0  0
  -22.1658   -4.2156   21.0978 F   0  0  0  0  0  0
  -21.5626   -3.4538   25.7736 F   0  0  0  0  0  0
  -29.9799  -13.5321   20.3852 N   0  0  0  0  0  0
  -26.2910  -12.9366   20.3218 N   0  0  0  0  0  0
  -25.9296  -11.6515   20.5695 N   0  0  0  0  0  0
  -22.0468  -12.8207   22.0436 N   0  0  0  0  0  0
  -25.4179  -15.1914   20.4139 N   0  0  0  0  0  0
  -31.7815  -14.8977   20.2402 O   0  0  0  0  0  0
  -21.6635   -6.8879   21.4244 O   0  0  0  0  0  0
  -22.3493  -14.5528   20.6719 O   0  0  0  0  0  0
  -24.6308  -31.8544   23.1955 C   0  0  0  0  0  0
  -25.9125  -32.4752   23.8314 C   0  0  1  0  0  0
  -27.2268  -27.2639   20.1393 C   0  0  0  0  0  0
  -25.5911  -33.8555   24.2233 N   0  0  0  0  0  0
  -23.4284  -30.4723   21.5398 C   0  0  2  0  0  0
  -24.8777  -28.9094   20.1186 C   0  0  0  0  0  0
  -22.7500  -29.4590   22.4934 C   0  0  0  0  0  0
  -18.0290  -28.1375   22.8484 C   0  0  0  0  0  0
  -24.1487  -36.7297   23.2640 C   0  0  0  0  0  0
  -25.9728  -30.7674   21.3743 C   0  0  0  0  0  0
  -26.0494  -29.3869   20.7232 C   0  0  0  0  0  0
  -27.2300  -28.5778   20.7170 C   0  0  0  0  0  0
  -26.0339  -26.8437   19.5187 C   0  0  0  0  0  0
  -24.8748  -27.6454   19.5054 C   0  0  0  0  0  0
  -23.6474  -29.7958   20.1603 C   0  0  0  0  0  0
  -25.4112  -36.3074   24.0322 C   0  0  1  0  0  0
  -20.5887  -28.3689   23.1272 C   0  0  2  0  0  0
  -20.6774  -26.9404   22.5408 C   0  0  0  0  0  0
  -19.5751  -26.6375   21.5212 C   0  0  0  0  0  0
  -18.1931  -26.7919   22.1621 C   0  0  0  0  0  0
  -19.1540  -28.8849   23.2872 C   0  0  0  0  0  0
  -18.9467  -30.1447   23.8896 C   0  0  0  0  0  0
  -17.6464  -30.6582   24.0555 C   0  0  0  0  0  0
  -25.9050  -34.9442   23.5084 C   0  0  0  0  0  0
  -16.5355  -29.9078   23.6324 C   0  0  0  0  0  0
  -16.7274  -28.6487   23.0363 C   0  0  0  0  0  0
  -26.4477  -31.6586   25.0719 C   0  0  0  0  0  0
  -25.3686  -31.3758   26.1437 C   0  0  0  0  0  0
  -27.0329  -30.2998   24.6224 C   0  0  0  0  0  0
  -27.6025  -32.4333   25.7492 C   0  0  0  0  0  0
  -27.5574  -37.1801   24.8454 C   0  0  0  0  0  0
  -21.4205  -29.3037   22.3672 N   0  0  0  0  0  0
  -26.4286  -37.3775   23.9403 N   0  0  0  0  0  0
  -24.6964  -31.0503   22.0930 N   0  0  0  0  0  0
  -23.4193  -28.8147   23.3048 O   0  0  0  0  0  0
  -28.3291  -26.3864   20.1073 O   0  0  0  0  0  0
  -26.5643  -34.8917   22.4665 O   0  0  0  0  0  0
  -23.5455  -32.1370   23.7239 O   0  0  0  0  0  0
  -29.3169  -19.8344   22.2356 C   0  0  0  0  0  0
  -29.5241  -18.6767   23.0102 C   0  0  0  0  0  0
  -29.6040  -18.4785   20.2463 C   0  0  0  0  0  0
  -29.3925  -19.8045   20.8286 C   0  0  0  0  0  0
  -29.7549  -17.4086   22.4317 C   0  0  0  0  0  0
  -29.7850  -17.2501   21.0216 C   0  0  0  0  0  0
  -28.4628  -23.6920   20.0286 C   0  0  0  0  0  0
  -29.6195  -23.8615   22.6594 C   0  0  0  0  0  0
  -29.2420  -25.2081   22.0254 C   0  0  0  0  0  0
  -30.1677  -22.9176   21.5749 C   0  0  0  0  0  0
  -28.2616  -25.0772   20.8429 C   0  0  1  0  0  0
  -29.8729  -16.2181   23.3705 C   0  0  0  0  0  0
  -29.1717  -21.1594   19.9867 C   0  0  0  0  0  0
  -29.1400  -22.5922   20.5741 N   0  0  0  0  0  0
  -29.7173  -15.8675   20.4743 N   0  0  0  0  0  0
  -27.9085  -23.5963   18.9297 O   0  0  0  0  0  0
  -31.4824  -12.6276   19.1589 H   0  0  0  0  0  0
  -30.4143  -11.5008   19.9558 H   0  0  0  0  0  0
  -29.7994  -11.7231   17.5225 H   0  0  0  0  0  0
  -29.6305  -13.4501   17.7029 H   0  0  0  0  0  0
  -27.8953  -11.2723   18.9119 H   0  0  0  0  0  0
  -27.3809  -12.5090   17.7971 H   0  0  0  0  0  0
  -27.6262  -14.2407   19.4493 H   0  0  0  0  0  0
  -28.7276  -12.1616   21.4073 H   0  0  0  0  0  0
  -28.4122  -13.8373   21.7817 H   0  0  0  0  0  0
  -25.2773   -9.5671   22.4749 H   0  0  0  0  0  0
  -24.0004   -7.4623   22.7466 H   0  0  0  0  0  0
  -21.0830   -8.8777   19.8944 H   0  0  0  0  0  0
  -22.3708  -10.9669   19.6160 H   0  0  0  0  0  0
  -21.2028   -7.6154   23.9721 H   0  0  0  0  0  0
  -21.1480   -6.0522   25.9075 H   0  0  0  0  0  0
  -22.0592   -2.7610   23.2841 H   0  0  0  0  0  0
  -22.4084  -11.9863   22.4809 H   0  0  0  0  0  0
  -21.1093  -13.1230   22.2671 H   0  0  0  0  0  0
  -24.6483  -15.8396   20.5382 H   0  0  0  0  0  0
  -26.2609  -15.6418   20.0838 H   0  0  0  0  0  0
  -26.7197  -32.5403   23.1059 H   0  0  0  0  0  0
  -25.0014  -33.9691   25.0347 H   0  0  0  0  0  0
  -22.7242  -31.2932   21.3876 H   0  0  0  0  0  0
  -23.3746  -35.9631   23.3297 H   0  0  0  0  0  0
  -24.3573  -36.8939   22.2056 H   0  0  0  0  0  0
  -23.7252  -37.6495   23.6682 H   0  0  0  0  0  0
  -26.1085  -31.5241   20.6004 H   0  0  0  0  0  0
  -26.8503  -30.8207   22.0074 H   0  0  0  0  0  0
  -28.1337  -28.9430   21.1844 H   0  0  0  0  0  0
  -25.9986  -25.8724   19.0457 H   0  0  0  0  0  0
  -23.9783  -27.2743   19.0273 H   0  0  0  0  0  0
  -23.7658  -30.5640   19.3956 H   0  0  0  0  0  0
  -22.7678  -29.2222   19.8635 H   0  0  0  0  0  0
  -25.1296  -36.1912   25.0817 H   0  0  0  0  0  0
  -20.9970  -28.3268   24.1395 H   0  0  0  0  0  0
  -20.5664  -26.2298   23.3613 H   0  0  0  0  0  0
  -21.6646  -26.7422   22.1206 H   0  0  0  0  0  0
  -19.6910  -25.6288   21.1245 H   0  0  0  0  0  0
  -19.6689  -27.3178   20.6737 H   0  0  0  0  0  0
  -17.4196  -26.6662   21.4028 H   0  0  0  0  0  0
  -18.0328  -26.0064   22.9018 H   0  0  0  0  0  0
  -19.7946  -30.7260   24.2270 H   0  0  0  0  0  0
  -17.5025  -31.6265   24.5152 H   0  0  0  0  0  0
  -15.5356  -30.2981   23.7663 H   0  0  0  0  0  0
  -15.8671  -28.0806   22.7093 H   0  0  0  0  0  0
  -24.5823  -30.7160   25.7751 H   0  0  0  0  0  0
  -24.8924  -32.2946   26.4871 H   0  0  0  0  0  0
  -25.7970  -30.8902   27.0214 H   0  0  0  0  0  0
  -26.2922  -29.6757   24.1214 H   0  0  0  0  0  0
  -27.3957  -29.7259   25.4763 H   0  0  0  0  0  0
  -27.8823  -30.4262   23.9507 H   0  0  0  0  0  0
  -27.2610  -33.3618   26.2077 H   0  0  0  0  0  0
  -28.3824  -32.6927   25.0320 H   0  0  0  0  0  0
  -28.0704  -31.8465   26.5405 H   0  0  0  0  0  0
  -28.2579  -38.0109   24.7505 H   0  0  0  0  0  0
  -28.1084  -36.2641   24.6267 H   0  0  0  0  0  0
  -27.2298  -37.1430   25.8859 H   0  0  0  0  0  0
  -20.9399  -29.8739   21.6854 H   0  0  0  0  0  0
  -26.0164  -38.2850   24.1405 H   0  0  0  0  0  0
  -29.0819  -20.7516   22.7550 H   0  0  0  0  0  0
  -29.4581  -18.7717   24.0850 H   0  0  0  0  0  0
  -29.5852  -18.3980   19.1685 H   0  0  0  0  0  0
  -28.7529  -23.4129   23.1486 H   0  0  0  0  0  0
  -30.3670  -24.0182   23.4380 H   0  0  0  0  0  0
  -30.1525  -25.6953   21.6755 H   0  0  0  0  0  0
  -28.8176  -25.8704   22.7811 H   0  0  0  0  0  0
  -30.6217  -22.0386   22.0238 H   0  0  0  0  0  0
  -30.9949  -23.4075   21.0582 H   0  0  0  0  0  0
  -27.2620  -24.9854   21.2718 H   0  0  0  0  0  0
  -29.9316  -16.5368   24.4117 H   0  0  0  0  0  0
  -30.7703  -15.6375   23.1607 H   0  0  0  0  0  0
  -29.0025  -15.5699   23.2717 H   0  0  0  0  0  0
  -28.2322  -21.0168   19.4504 H   0  0  0  0  0  0
  -29.9359  -21.1688   19.2087 H   0  0  0  0  0  0
  -28.7678  -15.5658   20.3241 H   0  0  0  0  0  0
  1 25  1  0  0  0
  1 30  2  0  0  0
  1 85  1  0  0  0
  2  3  1  0  0  0
  2 25  1  0  0  0
  2 87  1  0  0  0
  2 88  1  0  0  0
  3  4  1  0  0  0
  3 89  1  0  0  0
  3 90  1  0  0  0
  4  5  1  0  0  0
  4 91  1  0  0  0
  4 92  1  0  0  0
  5  6  1  0  0  0
  5 26  1  0  0  0
  5 93  1  0  0  0
  6 25  1  0  0  0
  6 94  1  0  0  0
  6 95  1  0  0  0
  7  8  2  0  0  0
  7 26  1  0  0  0
  7 29  1  0  0  0
  8  9  1  0  0  0
  8 22  1  0  0  0
  9 10  1  0  0  0
  9 27  2  0  0  0
 10 11  2  0  0  0
 10 15  1  0  0  0
 11 12  1  0  0  0
 11 96  1  0  0  0
 12 13  2  0  0  0
 12 97  1  0  0  0
 13 14  1  0  0  0
 13 31  1  0  0  0
 14 15  2  0  0  0
 14 98  1  0  0  0
 15 99  1  0  0  0
 16 17  2  0  0  0
 16 21  1  0  0  0
 16 31  1  0  0  0
 17 18  1  0  0  0
 17100  1  0  0  0
 18 19  2  0  0  0
 18101  1  0  0  0
 19 20  1  0  0  0
 19 24  1  0  0  0
 20 21  2  0  0  0
 20102  1  0  0  0
 21 23  1  0  0  0
 22 28  1  0  0  0
 22 32  2  0  0  0
 26 27  1  0  0  0
 28103  1  0  0  0
 28104  1  0  0  0
 29105  1  0  0  0
 29106  1  0  0  0
 33 34  1  0  0  0
 33 66  1  0  0  0
 33 70  2  0  0  0
 34 36  1  0  0  0
 34 59  1  0  0  0
 34107  1  0  0  0
 35 44  2  0  0  0
 35 45  1  0  0  0
 35 68  1  0  0  0
 36 56  1  0  0  0
 36108  1  0  0  0
 37 39  1  0  0  0
 37 47  1  0  0  0
 37 66  1  0  0  0
 37109  1  0  0  0
 38 43  2  0  0  0
 38 46  1  0  0  0
 38 47  1  0  0  0
 39 64  1  0  0  0
 39 67  2  0  0  0
 40 52  1  0  0  0
 40 53  2  0  0  0
 40 58  1  0  0  0
 41110  1  0  0  0
 41111  1  0  0  0
 41112  1  0  0  0
 41 48  1  0  0  0
 42 43  1  0  0  0
 42 66  1  0  0  0
 42113  1  0  0  0
 42114  1  0  0  0
 43 44  1  0  0  0
 44115  1  0  0  0
 45 46  2  0  0  0
 45116  1  0  0  0
 46117  1  0  0  0
 47118  1  0  0  0
 47119  1  0  0  0
 48 56  1  0  0  0
 48 65  1  0  0  0
 48120  1  0  0  0
 49 50  1  0  0  0
 49 53  1  0  0  0
 49 64  1  0  0  0
 49121  1  0  0  0
 50 51  1  0  0  0
 50122  1  0  0  0
 50123  1  0  0  0
 51 52  1  0  0  0
 51124  1  0  0  0
 51125  1  0  0  0
 52126  1  0  0  0
 52127  1  0  0  0
 53 54  1  0  0  0
 54 55  2  0  0  0
 54128  1  0  0  0
 55 57  1  0  0  0
 55129  1  0  0  0
 56 69  2  0  0  0
 57 58  2  0  0  0
 57130  1  0  0  0
 58131  1  0  0  0
 59 60  1  0  0  0
 59 61  1  0  0  0
 59 62  1  0  0  0
 60132  1  0  0  0
 60133  1  0  0  0
 60134  1  0  0  0
 61135  1  0  0  0
 61136  1  0  0  0
 61137  1  0  0  0
 62138  1  0  0  0
 62139  1  0  0  0
 62140  1  0  0  0
 63 65  1  0  0  0
 63141  1  0  0  0
 63142  1  0  0  0
 63143  1  0  0  0
 64144  1  0  0  0
 65145  1  0  0  0
 68 81  1  0  0  0
 71 72  2  0  0  0
 71 74  1  0  0  0
 71146  1  0  0  0
 72 75  1  0  0  0
 72147  1  0  0  0
 73 74  2  0  0  0
 73 76  1  0  0  0
 73148  1  0  0  0
 74 83  1  0  0  0
 75 76  2  0  0  0
 75 82  1  0  0  0
 76 85  1  0  0  0
 77 81  1  0  0  0
 77 84  1  0  0  0
 77 86  2  0  0  0
 78 79  1  0  0  0
 78 80  1  0  0  0
 78149  1  0  0  0
 78150  1  0  0  0
 79 81  1  0  0  0
 79151  1  0  0  0
 79152  1  0  0  0
 80 84  1  0  0  0
 80153  1  0  0  0
 80154  1  0  0  0
 81155  1  0  0  0
 82156  1  0  0  0
 82157  1  0  0  0
 82158  1  0  0  0
 83 84  1  0  0  0
 83159  1  0  0  0
 83160  1  0  0  0
 85161  1  0  0  0
M  ISO  4   1 100  68 101  81 101  85 100
M  END
> <chiral flag>
0

> <version>
0

> <s_m_source_file>
/data/baiqing/PycharmProjects/Reinvent-master-3.2/result/LINK_invent/BTK/process_docking_weight1_custom_product_contain_oxygen_bond_distance_aromatic_linkinvent_7_9_3/rearranged_h_0044.sdf

> <i_m_source_file_index>
27

> <r_mmod_Potential_Energy-OPLS-2005>
272.948944091797

> <r_mmod_Stretch_Energy-OPLS-2005>
138.050506591797

> <r_mmod_Bend_Energy-OPLS-2005>
174.041854858398

> <r_mmod_Torsional_Energy-OPLS-2005>
298.955017089844

> <r_mmod_Improper_Torsional_Energy-OPLS-2005>
13.1792783737183

> <r_mmod_Van_der_Waal_Energy-OPLS-2005>
139.971069335938

> <r_mmod_Electrostatic_Energy-OPLS-2005>
-353.644012451172

> <r_mmod_Solvation_Energy-OPLS-2005>
-229.624710083008

> <b_mmod_Minimization_Converged-OPLS-2005>
0

> <r_mmod_RMS_Derivative-OPLS-2005>
1.78075683116913

$$$$
27
                    3D
 Structure written by MMmdl.
167176  0  0  1  0            999 V2000
  -30.6031  -14.7908   20.3952 C   0  0  0  0  0  0
  -30.4363  -12.4963   19.4314 C   0  0  0  0  0  0
  -29.4958  -12.4963   18.2132 C   0  0  0  0  0  0
  -28.0235  -12.3205   18.6465 C   0  0  0  0  0  0
  -27.6340  -13.2373   19.8342 C   0  0  2  0  0  0
  -28.6944  -13.2186   20.9555 C   0  0  0  0  0  0
  -25.2418  -13.8124   20.5564 C   0  0  0  0  0  0
  -24.1759  -13.0398   20.9145 C   0  0  0  0  0  0
  -24.6387  -11.6901   20.8770 C   0  0  0  0  0  0
  -23.9049  -10.4301   21.0412 C   0  0  0  0  0  0
  -24.3600   -9.4255   21.9243 C   0  0  0  0  0  0
  -23.6316   -8.2271   22.0758 C   0  0  0  0  0  0
  -22.4330   -8.0285   21.3497 C   0  0  0  0  0  0
  -21.9922   -9.0267   20.4639 C   0  0  0  0  0  0
  -22.7180  -10.2173   20.3075 C   0  0  0  0  0  0
  -21.6895   -6.0774   22.5272 C   0  0  0  0  0  0
  -21.4022   -6.5660   23.8199 C   0  0  0  0  0  0
  -21.3630   -5.6790   24.9156 C   0  0  0  0  0  0
  -21.6030   -4.3060   24.7207 C   0  0  0  0  0  0
  -21.8818   -3.8167   23.4327 C   0  0  0  0  0  0
  -21.9209   -4.7004   22.3385 C   0  0  0  0  0  0
  -22.7749  -13.5234   21.1802 C   0  0  0  0  0  0
  -22.1674   -4.2162   21.0975 F   0  0  0  0  0  0
  -21.5625   -3.4548   25.7724 F   0  0  0  0  0  0
  -29.9716  -13.5748   20.3227 N   0  0  0  0  0  0
  -26.2918  -12.9396   20.3300 N   0  0  0  0  0  0
  -25.9327  -11.6546   20.5834 N   0  0  0  0  0  0
  -22.0418  -12.8250   22.0369 N   0  0  0  0  0  0
  -25.4122  -15.1799   20.3756 N   0  0  0  0  0  0
  -31.8299  -14.8489   20.2558 O   0  0  0  0  0  0
  -21.6639   -6.8934   21.4239 O   0  0  0  0  0  0
  -22.3457  -14.5562   20.6714 O   0  0  0  0  0  0
  -24.6376  -31.8482   23.2000 C   0  0  0  0  0  0
  -25.9190  -32.4703   23.8336 C   0  0  1  0  0  0
  -27.2078  -27.2513   20.0846 C   0  0  0  0  0  0
  -25.5960  -33.8505   24.2223 N   0  0  0  0  0  0
  -23.4269  -30.4720   21.5432 C   0  0  2  0  0  0
  -24.8715  -28.9216   20.0998 C   0  0  0  0  0  0
  -22.7476  -29.4531   22.4870 C   0  0  0  0  0  0
  -18.0430  -28.1316   22.8310 C   0  0  0  0  0  0
  -24.1492  -36.7284   23.2646 C   0  0  0  0  0  0
  -25.9759  -30.7512   21.3856 C   0  0  0  0  0  0
  -26.0357  -29.3708   20.7267 C   0  0  0  0  0  0
  -27.2024  -28.5382   20.7283 C   0  0  0  0  0  0
  -26.0298  -26.8863   19.4094 C   0  0  0  0  0  0
  -24.8688  -27.6869   19.4345 C   0  0  0  0  0  0
  -23.6445  -29.8114   20.1530 C   0  0  0  0  0  0
  -25.4123  -36.3018   24.0332 C   0  0  1  0  0  0
  -20.5961  -28.3596   23.1332 C   0  0  2  0  0  0
  -20.6960  -26.9293   22.5454 C   0  0  0  0  0  0
  -19.5987  -26.6272   21.5133 C   0  0  0  0  0  0
  -18.2122  -26.7943   22.1404 C   0  0  0  0  0  0
  -19.1642  -28.8814   23.2779 C   0  0  0  0  0  0
  -18.9493  -30.1318   23.8848 C   0  0  0  0  0  0
  -17.6476  -30.6400   24.0395 C   0  0  0  0  0  0
  -25.9045  -34.9380   23.5058 C   0  0  0  0  0  0
  -16.5371  -29.8912   23.6084 C   0  0  0  0  0  0
  -16.7396  -28.6298   23.0138 C   0  0  0  0  0  0
  -26.4504  -31.6553   25.0759 C   0  0  0  0  0  0
  -25.3754  -31.3735   26.1522 C   0  0  0  0  0  0
  -27.0347  -30.2980   24.6261 C   0  0  0  0  0  0
  -27.6006  -32.4332   25.7551 C   0  0  0  0  0  0
  -27.5559  -37.1810   24.8460 C   0  0  0  0  0  0
  -21.4218  -29.2883   22.3583 N   0  0  0  0  0  0
  -26.4264  -37.3759   23.9413 N   0  0  0  0  0  0
  -24.6963  -31.0452   22.0977 N   0  0  0  0  0  0
  -23.4174  -28.8227   23.3118 O   0  0  0  0  0  0
  -28.2981  -26.3521   20.1837 O   0  0  0  0  0  0
  -26.5603  -34.8876   22.4625 O   0  0  0  0  0  0
  -23.5522  -32.1358   23.7237 O   0  0  0  0  0  0
  -28.2011  -17.0305   22.9562 C   0  0  0  0  0  0
  -27.3963  -18.1140   20.9610 C   0  0  0  0  0  0
  -27.1290  -17.5019   22.1940 C   0  0  0  0  0  0
  -29.4668  -16.8620   22.3637 C   0  0  0  0  0  0
  -28.7243  -18.2461   20.4948 C   0  0  0  0  0  0
  -29.6330  -17.1832   20.9818 C   0  0  0  0  0  0
  -28.7990  -22.2375   19.8530 C   0  0  0  0  0  0
  -26.0463  -21.8872   18.9025 C   0  0  0  0  0  0
  -26.7671  -23.2201   18.7255 C   0  0  0  0  0  0
  -26.8659  -20.7640   19.5624 C   0  0  0  0  0  0
  -27.8371  -23.5400   19.7959 C   0  0  2  0  0  0
  -25.7149  -17.4166   22.7195 C   0  0  0  0  0  0
  -30.5544  -16.2897   23.2640 C   0  0  0  0  0  0
  -29.1156  -19.5878   19.6807 C   0  0  0  0  0  0
  -28.4499  -25.0334   19.4524 C   0  0  0  0  0  0
  -28.3097  -20.9264   19.7461 N   0  0  0  0  0  0
  -29.8498  -15.9444   20.1820 N   0  0  0  0  0  0
  -30.0094  -22.4217   19.9663 O   0  0  0  0  0  0
  -31.4629  -12.6613   19.0803 H   0  0  0  0  0  0
  -30.4418  -11.5364   19.9471 H   0  0  0  0  0  0
  -29.7763  -11.6976   17.5237 H   0  0  0  0  0  0
  -29.5935  -13.4372   17.6625 H   0  0  0  0  0  0
  -27.8955  -11.2818   18.9349 H   0  0  0  0  0  0
  -27.3491  -12.5013   17.8016 H   0  0  0  0  0  0
  -27.6143  -14.2536   19.4360 H   0  0  0  0  0  0
  -28.7449  -12.2369   21.4356 H   0  0  0  0  0  0
  -28.4298  -13.9381   21.7401 H   0  0  0  0  0  0
  -25.2754   -9.5769   22.4806 H   0  0  0  0  0  0
  -24.0019   -7.4691   22.7457 H   0  0  0  0  0  0
  -21.0881   -8.8837   19.8937 H   0  0  0  0  0  0
  -22.3692  -10.9756   19.6208 H   0  0  0  0  0  0
  -21.1995   -7.6165   23.9712 H   0  0  0  0  0  0
  -21.1440   -6.0527   25.9061 H   0  0  0  0  0  0
  -22.0627   -2.7629   23.2823 H   0  0  0  0  0  0
  -22.4041  -11.9931   22.4791 H   0  0  0  0  0  0
  -21.1055  -13.1290   22.2548 H   0  0  0  0  0  0
  -24.6728  -15.8557   20.5255 H   0  0  0  0  0  0
  -26.3081  -15.6152   20.2044 H   0  0  0  0  0  0
  -26.7236  -32.5297   23.1041 H   0  0  0  0  0  0
  -25.0113  -33.9659   25.0351 H   0  0  0  0  0  0
  -22.7213  -31.2922   21.3925 H   0  0  0  0  0  0
  -23.3695  -35.9648   23.3278 H   0  0  0  0  0  0
  -24.3570  -36.8976   22.2053 H   0  0  0  0  0  0
  -23.7275  -37.6512   23.6678 H   0  0  0  0  0  0
  -26.1271  -31.5038   20.6057 H   0  0  0  0  0  0
  -26.8580  -30.7996   22.0189 H   0  0  0  0  0  0
  -28.0934  -28.8660   21.2484 H   0  0  0  0  0  0
  -25.9859  -25.9691   18.8502 H   0  0  0  0  0  0
  -23.9867  -27.3524   18.9080 H   0  0  0  0  0  0
  -23.7705  -30.5914   19.3956 H   0  0  0  0  0  0
  -22.7598  -29.2462   19.8447 H   0  0  0  0  0  0
  -25.1270  -36.1852   25.0822 H   0  0  0  0  0  0
  -20.9895  -28.3344   24.1539 H   0  0  0  0  0  0
  -20.5864  -26.2078   23.3513 H   0  0  0  0  0  0
  -21.6913  -26.7361   22.1530 H   0  0  0  0  0  0
  -19.7014  -25.6173   21.1132 H   0  0  0  0  0  0
  -19.7087  -27.3062   20.6668 H   0  0  0  0  0  0
  -17.4400  -26.6702   21.3875 H   0  0  0  0  0  0
  -18.0374  -26.0076   22.8763 H   0  0  0  0  0  0
  -19.7923  -30.7134   24.2300 H   0  0  0  0  0  0
  -17.4977  -31.6019   24.5086 H   0  0  0  0  0  0
  -15.5312  -30.2672   23.7493 H   0  0  0  0  0  0
  -15.8987  -28.0331   22.6926 H   0  0  0  0  0  0
  -24.5926  -30.7060   25.7950 H   0  0  0  0  0  0
  -24.8954  -32.2906   26.4941 H   0  0  0  0  0  0
  -25.8186  -30.8991   27.0294 H   0  0  0  0  0  0
  -26.2962  -29.6770   24.1247 H   0  0  0  0  0  0
  -27.3960  -29.7232   25.4783 H   0  0  0  0  0  0
  -27.8814  -30.4254   23.9540 H   0  0  0  0  0  0
  -27.2537  -33.3621   26.2086 H   0  0  0  0  0  0
  -28.3839  -32.6983   25.0429 H   0  0  0  0  0  0
  -28.0608  -31.8519   26.5556 H   0  0  0  0  0  0
  -28.2554  -38.0131   24.7461 H   0  0  0  0  0  0
  -28.1082  -36.2654   24.6270 H   0  0  0  0  0  0
  -27.2281  -37.1429   25.8874 H   0  0  0  0  0  0
  -20.9470  -29.8205   21.6411 H   0  0  0  0  0  0
  -26.0111  -38.2822   24.1438 H   0  0  0  0  0  0
  -28.0353  -16.7182   23.9792 H   0  0  0  0  0  0
  -26.5489  -18.5471   20.4683 H   0  0  0  0  0  0
  -25.6624  -21.5688   17.9260 H   0  0  0  0  0  0
  -25.1581  -22.0405   19.5180 H   0  0  0  0  0  0
  -25.9970  -23.9766   18.7044 H   0  0  0  0  0  0
  -27.2263  -23.2331   17.7346 H   0  0  0  0  0  0
  -26.6865  -19.8811   18.9616 H   0  0  0  0  0  0
  -26.4389  -20.6112   20.5529 H   0  0  0  0  0  0
  -27.3563  -23.6076   20.7742 H   0  0  0  0  0  0
  -25.5656  -18.1033   23.5579 H   0  0  0  0  0  0
  -25.5266  -16.4118   23.0860 H   0  0  0  0  0  0
  -24.9774  -17.6301   21.9461 H   0  0  0  0  0  0
  -31.2610  -15.6229   22.7838 H   0  0  0  0  0  0
  -31.1280  -17.1144   23.6829 H   0  0  0  0  0  0
  -30.1075  -15.7234   24.0927 H   0  0  0  0  0  0
  -29.1383  -19.3097   18.6295 H   0  0  0  0  0  0
  -30.1488  -19.8185   19.9258 H   0  0  0  0  0  0
  -28.2623  -25.2648   18.4023 H   0  0  0  0  0  0
  -29.5321  -24.9026   19.4721 H   0  0  0  0  0  0
  -29.2170  -15.8316   19.3945 H   0  0  0  0  0  0
  1 25  1  0  0  0
  1 30  2  0  0  0
  1 87  1  0  0  0
  2  3  1  0  0  0
  2 25  1  0  0  0
  2 89  1  0  0  0
  2 90  1  0  0  0
  3  4  1  0  0  0
  3 91  1  0  0  0
  3 92  1  0  0  0
  4  5  1  0  0  0
  4 93  1  0  0  0
  4 94  1  0  0  0
  5  6  1  0  0  0
  5 26  1  0  0  0
  5 95  1  0  0  0
  6 25  1  0  0  0
  6 96  1  0  0  0
  6 97  1  0  0  0
  7  8  2  0  0  0
  7 26  1  0  0  0
  7 29  1  0  0  0
  8  9  1  0  0  0
  8 22  1  0  0  0
  9 10  1  0  0  0
  9 27  2  0  0  0
 10 11  2  0  0  0
 10 15  1  0  0  0
 11 12  1  0  0  0
 11 98  1  0  0  0
 12 13  2  0  0  0
 12 99  1  0  0  0
 13 14  1  0  0  0
 13 31  1  0  0  0
 14 15  2  0  0  0
 14100  1  0  0  0
 15101  1  0  0  0
 16 17  2  0  0  0
 16 21  1  0  0  0
 16 31  1  0  0  0
 17 18  1  0  0  0
 17102  1  0  0  0
 18 19  2  0  0  0
 18103  1  0  0  0
 19 20  1  0  0  0
 19 24  1  0  0  0
 20 21  2  0  0  0
 20104  1  0  0  0
 21 23  1  0  0  0
 22 28  1  0  0  0
 22 32  2  0  0  0
 26 27  1  0  0  0
 28105  1  0  0  0
 28106  1  0  0  0
 29107  1  0  0  0
 29108  1  0  0  0
 33 34  1  0  0  0
 33 66  1  0  0  0
 33 70  2  0  0  0
 34 36  1  0  0  0
 34 59  1  0  0  0
 34109  1  0  0  0
 35 44  2  0  0  0
 35 45  1  0  0  0
 35 68  1  0  0  0
 36 56  1  0  0  0
 36110  1  0  0  0
 37 39  1  0  0  0
 37 47  1  0  0  0
 37 66  1  0  0  0
 37111  1  0  0  0
 38 43  2  0  0  0
 38 46  1  0  0  0
 38 47  1  0  0  0
 39 64  1  0  0  0
 39 67  2  0  0  0
 40 52  1  0  0  0
 40 53  2  0  0  0
 40 58  1  0  0  0
 41112  1  0  0  0
 41113  1  0  0  0
 41114  1  0  0  0
 41 48  1  0  0  0
 42 43  1  0  0  0
 42 66  1  0  0  0
 42115  1  0  0  0
 42116  1  0  0  0
 43 44  1  0  0  0
 44117  1  0  0  0
 45 46  2  0  0  0
 45118  1  0  0  0
 46119  1  0  0  0
 47120  1  0  0  0
 47121  1  0  0  0
 48 56  1  0  0  0
 48 65  1  0  0  0
 48122  1  0  0  0
 49 50  1  0  0  0
 49 53  1  0  0  0
 49 64  1  0  0  0
 49123  1  0  0  0
 50 51  1  0  0  0
 50124  1  0  0  0
 50125  1  0  0  0
 51 52  1  0  0  0
 51126  1  0  0  0
 51127  1  0  0  0
 52128  1  0  0  0
 52129  1  0  0  0
 53 54  1  0  0  0
 54 55  2  0  0  0
 54130  1  0  0  0
 55 57  1  0  0  0
 55131  1  0  0  0
 56 69  2  0  0  0
 57 58  2  0  0  0
 57132  1  0  0  0
 58133  1  0  0  0
 59 60  1  0  0  0
 59 61  1  0  0  0
 59 62  1  0  0  0
 60134  1  0  0  0
 60135  1  0  0  0
 60136  1  0  0  0
 61137  1  0  0  0
 61138  1  0  0  0
 61139  1  0  0  0
 62140  1  0  0  0
 62141  1  0  0  0
 62142  1  0  0  0
 63 65  1  0  0  0
 63143  1  0  0  0
 63144  1  0  0  0
 63145  1  0  0  0
 64146  1  0  0  0
 65147  1  0  0  0
 68 85  1  0  0  0
 71 73  2  0  0  0
 71 74  1  0  0  0
 71148  1  0  0  0
 72 73  1  0  0  0
 72 75  2  0  0  0
 72149  1  0  0  0
 73 82  1  0  0  0
 74 76  2  0  0  0
 74 83  1  0  0  0
 75 76  1  0  0  0
 75 84  1  0  0  0
 76 87  1  0  0  0
 77 81  1  0  0  0
 77 86  1  0  0  0
 77 88  2  0  0  0
 78 79  1  0  0  0
 78 80  1  0  0  0
 78150  1  0  0  0
 78151  1  0  0  0
 79 81  1  0  0  0
 79152  1  0  0  0
 79153  1  0  0  0
 80 86  1  0  0  0
 80154  1  0  0  0
 80155  1  0  0  0
 81 85  1  0  0  0
 81156  1  0  0  0
 82157  1  0  0  0
 82158  1  0  0  0
 82159  1  0  0  0
 83160  1  0  0  0
 83161  1  0  0  0
 83162  1  0  0  0
 84 86  1  0  0  0
 84163  1  0  0  0
 84164  1  0  0  0
 85165  1  0  0  0
 85166  1  0  0  0
 87167  1  0  0  0
M  ISO  4   1 100  68 101  85 101  87 100
M  END
> <chiral flag>
0

> <version>
0

> <s_m_source_file>
/data/baiqing/PycharmProjects/Reinvent-master-3.2/result/LINK_invent/BTK/process_docking_weight1_custom_product_contain_oxygen_bond_distance_aromatic_linkinvent_7_9_3/rearranged_h_0044.sdf

> <i_m_source_file_index>
28

> <r_mmod_Potential_Energy-OPLS-2005>
575.093078613281

> <r_mmod_Stretch_Energy-OPLS-2005>
165.442153930664

> <r_mmod_Bend_Energy-OPLS-2005>
242.428649902344

> <r_mmod_Torsional_Energy-OPLS-2005>
488.601989746094

> <r_mmod_Improper_Torsional_Energy-OPLS-2005>
30.1268463134766

> <r_mmod_Van_der_Waal_Energy-OPLS-2005>
155.850509643555

> <r_mmod_Electrostatic_Energy-OPLS-2005>
-395.948608398438

> <r_mmod_Solvation_Energy-OPLS-2005>
-224.563003540039

> <b_mmod_Minimization_Converged-OPLS-2005>
0

> <r_mmod_RMS_Derivative-OPLS-2005>
12.5219964981079

$$$$
28
                    3D
 Structure written by MMmdl.
176185  0  0  1  0            999 V2000
  -30.7240  -14.4058   20.5794 C   0  0  0  0  0  0
  -30.4239  -12.2727   19.3934 C   0  0  0  0  0  0
  -29.4940  -12.5142   18.1867 C   0  0  0  0  0  0
  -28.0145  -12.3753   18.6030 C   0  0  0  0  0  0
  -27.6690  -13.1949   19.8746 C   0  0  2  0  0  0
  -28.7124  -12.9399   20.9861 C   0  0  0  0  0  0
  -25.2621  -13.8103   20.5651 C   0  0  0  0  0  0
  -24.1857  -13.0412   20.9170 C   0  0  0  0  0  0
  -24.6396  -11.6872   20.8733 C   0  0  0  0  0  0
  -23.9048  -10.4278   21.0411 C   0  0  0  0  0  0
  -24.3590   -9.4195   21.9190 C   0  0  0  0  0  0
  -23.6267   -8.2233   22.0753 C   0  0  0  0  0  0
  -22.4255   -8.0273   21.3547 C   0  0  0  0  0  0
  -21.9899   -9.0255   20.4656 C   0  0  0  0  0  0
  -22.7222  -10.2129   20.3059 C   0  0  0  0  0  0
  -21.6864   -6.0721   22.5284 C   0  0  0  0  0  0
  -21.4019   -6.5623   23.8205 C   0  0  0  0  0  0
  -21.3658   -5.6772   24.9175 C   0  0  0  0  0  0
  -21.6043   -4.3037   24.7234 C   0  0  0  0  0  0
  -21.8812   -3.8133   23.4358 C   0  0  0  0  0  0
  -21.9196   -4.6954   22.3415 C   0  0  0  0  0  0
  -22.7882  -13.5243   21.1840 C   0  0  0  0  0  0
  -22.1651   -4.2133   21.0999 F   0  0  0  0  0  0
  -21.5651   -3.4523   25.7751 F   0  0  0  0  0  0
  -30.0502  -13.2364   20.4376 N   0  0  0  0  0  0
  -26.3065  -12.9261   20.3351 N   0  0  0  0  0  0
  -25.9328  -11.6424   20.5730 N   0  0  0  0  0  0
  -22.0479  -12.8260   22.0374 N   0  0  0  0  0  0
  -25.4289  -15.1803   20.3978 N   0  0  0  0  0  0
  -31.8348  -14.6199   20.0839 O   0  0  0  0  0  0
  -21.6630   -6.8873   21.4242 O   0  0  0  0  0  0
  -22.3586  -14.5576   20.6711 O   0  0  0  0  0  0
  -24.6153  -31.8671   23.2134 C   0  0  0  0  0  0
  -25.9048  -32.4844   23.8416 C   0  0  1  0  0  0
  -27.2297  -27.4698   20.0714 C   0  0  0  0  0  0
  -25.5920  -33.8636   24.2355 N   0  0  0  0  0  0
  -23.3979  -30.4927   21.5550 C   0  0  2  0  0  0
  -24.8406  -28.9564   20.1191 C   0  0  0  0  0  0
  -22.7380  -29.4660   22.5032 C   0  0  0  0  0  0
  -18.0241  -28.1375   22.8450 C   0  0  0  0  0  0
  -24.1486  -36.7330   23.2644 C   0  0  0  0  0  0
  -25.9220  -30.8466   21.3534 C   0  0  0  0  0  0
  -26.0003  -29.4800   20.7047 C   0  0  0  0  0  0
  -27.2022  -28.7426   20.6837 C   0  0  0  0  0  0
  -26.0478  -26.9334   19.5253 C   0  0  0  0  0  0
  -24.8515  -27.6772   19.5348 C   0  0  0  0  0  0
  -23.6026  -29.8225   20.1691 C   0  0  0  0  0  0
  -25.4104  -36.3123   24.0344 C   0  0  1  0  0  0
  -20.5839  -28.3654   23.1329 C   0  0  2  0  0  0
  -20.6751  -26.9406   22.5401 C   0  0  0  0  0  0
  -19.5736  -26.6377   21.5200 C   0  0  0  0  0  0
  -18.1909  -26.7915   22.1590 C   0  0  0  0  0  0
  -19.1501  -28.8818   23.2880 C   0  0  0  0  0  0
  -18.9435  -30.1413   23.8907 C   0  0  0  0  0  0
  -17.6458  -30.6585   24.0548 C   0  0  0  0  0  0
  -25.9020  -34.9482   23.5134 C   0  0  0  0  0  0
  -16.5342  -29.9092   23.6324 C   0  0  0  0  0  0
  -16.7242  -28.6499   23.0358 C   0  0  0  0  0  0
  -26.4480  -31.6618   25.0727 C   0  0  0  0  0  0
  -25.3778  -31.3728   26.1503 C   0  0  0  0  0  0
  -27.0269  -30.3064   24.6053 C   0  0  0  0  0  0
  -27.6051  -32.4319   25.7502 C   0  0  0  0  0  0
  -27.5577  -37.1806   24.8453 C   0  0  0  0  0  0
  -21.4124  -29.3019   22.3753 N   0  0  0  0  0  0
  -26.4279  -37.3813   23.9419 N   0  0  0  0  0  0
  -24.6644  -31.0787   22.1035 N   0  0  0  0  0  0
  -23.4168  -28.8204   23.3066 O   0  0  0  0  0  0
  -28.3761  -26.7215   19.9929 O   0  0  0  0  0  0
  -26.5554  -34.8917   22.4682 O   0  0  0  0  0  0
  -23.5346  -32.1389   23.7565 O   0  0  0  0  0  0
  -26.5956  -22.5535   17.0896 C   0  0  0  0  0  0
  -27.3708  -21.6330   17.8126 C   0  0  0  0  0  0
  -27.2060  -23.6810   16.5243 C   0  0  0  0  0  0
  -31.5961  -18.6010   22.1465 C   0  0  0  0  0  0
  -31.3477  -17.2216   22.0566 C   0  0  0  0  0  0
  -28.7665  -21.8124   17.9612 C   0  0  0  0  0  0
  -29.8448  -19.0441   20.4864 C   0  0  0  0  0  0
  -30.8351  -19.5166   21.3902 C   0  0  0  0  0  0
  -28.5940  -23.8954   16.6552 C   0  0  0  0  0  0
  -29.3927  -22.9368   17.3496 C   0  0  0  0  0  0
  -29.6069  -17.6467   20.3846 C   0  0  0  0  0  0
  -30.3434  -16.7449   21.1933 C   0  0  0  0  0  0
  -29.5426  -20.8702   18.8029 C   0  0  0  0  0  0
  -29.0368  -19.9677   19.6656 C   0  0  0  0  0  0
  -31.0856  -21.0014   21.6095 C   0  0  0  0  0  0
  -30.9071  -23.0991   17.4842 C   0  0  0  0  0  0
  -28.5764  -17.1171   19.3857 C   0  0  0  0  0  0
  -29.1232  -25.2175   16.1019 C   0  0  0  0  0  0
  -29.8951  -26.3753   18.1770 C   0  0  0  0  0  0
  -29.4594  -27.3320   19.2973 C   0  0  0  0  0  0
  -30.0326  -15.3660   21.2059 N   0  0  0  0  0  0
  -28.8914  -26.2936   17.0870 N   0  3  0  0  0  0
  -31.4699  -12.3623   19.0916 H   0  0  0  0  0  0
  -30.3100  -11.2529   19.7651 H   0  0  0  0  0  0
  -29.7259  -11.8101   17.3855 H   0  0  0  0  0  0
  -29.6729  -13.5100   17.7748 H   0  0  0  0  0  0
  -27.8145  -11.3190   18.7820 H   0  0  0  0  0  0
  -27.3654  -12.6713   17.7801 H   0  0  0  0  0  0
  -27.7184  -14.2465   19.5987 H   0  0  0  0  0  0
  -28.6805  -11.8976   21.3045 H   0  0  0  0  0  0
  -28.4792  -13.5137   21.8834 H   0  0  0  0  0  0
  -25.2727   -9.5693   22.4747 H   0  0  0  0  0  0
  -23.9996   -7.4634   22.7451 H   0  0  0  0  0  0
  -21.0839   -8.8790   19.8951 H   0  0  0  0  0  0
  -22.3694  -10.9676   19.6162 H   0  0  0  0  0  0
  -21.1991   -7.6116   23.9725 H   0  0  0  0  0  0
  -21.1488   -6.0489   25.9078 H   0  0  0  0  0  0
  -22.0597   -2.7598   23.2867 H   0  0  0  0  0  0
  -22.4042  -11.9919   22.4796 H   0  0  0  0  0  0
  -21.1117  -13.1351   22.2549 H   0  0  0  0  0  0
  -24.6526  -15.8286   20.4837 H   0  0  0  0  0  0
  -26.2710  -15.6150   20.0470 H   0  0  0  0  0  0
  -26.7121  -32.5547   23.1183 H   0  0  0  0  0  0
  -25.0110  -33.9781   25.0533 H   0  0  0  0  0  0
  -22.6862  -31.3111   21.4208 H   0  0  0  0  0  0
  -23.3722  -35.9688   23.3286 H   0  0  0  0  0  0
  -24.3581  -36.8934   22.2057 H   0  0  0  0  0  0
  -23.7213  -37.6533   23.6638 H   0  0  0  0  0  0
  -26.0117  -31.6126   20.5808 H   0  0  0  0  0  0
  -26.8217  -30.9129   21.9535 H   0  0  0  0  0  0
  -28.0980  -29.1460   21.1344 H   0  0  0  0  0  0
  -26.0463  -25.9466   19.0852 H   0  0  0  0  0  0
  -23.9532  -27.2595   19.1003 H   0  0  0  0  0  0
  -23.7150  -30.5980   19.4112 H   0  0  0  0  0  0
  -22.7273  -29.2449   19.8685 H   0  0  0  0  0  0
  -25.1263  -36.2012   25.0830 H   0  0  0  0  0  0
  -20.9892  -28.3222   24.1474 H   0  0  0  0  0  0
  -20.5671  -26.2275   23.3570 H   0  0  0  0  0  0
  -21.6638  -26.7470   22.1226 H   0  0  0  0  0  0
  -19.6913  -25.6291   21.1215 H   0  0  0  0  0  0
  -19.6726  -27.3206   20.6755 H   0  0  0  0  0  0
  -17.4201  -26.6645   21.3965 H   0  0  0  0  0  0
  -18.0320  -26.0084   22.9019 H   0  0  0  0  0  0
  -19.7933  -30.7180   24.2331 H   0  0  0  0  0  0
  -17.5038  -31.6278   24.5146 H   0  0  0  0  0  0
  -15.5341  -30.3022   23.7614 H   0  0  0  0  0  0
  -15.8631  -28.0800   22.7125 H   0  0  0  0  0  0
  -24.5955  -30.7062   25.7883 H   0  0  0  0  0  0
  -24.8989  -32.2890   26.4956 H   0  0  0  0  0  0
  -25.8177  -30.8923   27.0251 H   0  0  0  0  0  0
  -26.2761  -29.6874   24.1139 H   0  0  0  0  0  0
  -27.4070  -29.7271   25.4476 H   0  0  0  0  0  0
  -27.8597  -30.4388   23.9145 H   0  0  0  0  0  0
  -27.2672  -33.3620   26.2079 H   0  0  0  0  0  0
  -28.3878  -32.6856   25.0350 H   0  0  0  0  0  0
  -28.0701  -31.8451   26.5424 H   0  0  0  0  0  0
  -28.2577  -38.0123   24.7523 H   0  0  0  0  0  0
  -28.1065  -36.2636   24.6236 H   0  0  0  0  0  0
  -27.2297  -37.1429   25.8857 H   0  0  0  0  0  0
  -20.9279  -29.8767   21.6990 H   0  0  0  0  0  0
  -26.0159  -38.2876   24.1475 H   0  0  0  0  0  0
  -25.5291  -22.4100   16.9880 H   0  0  0  0  0  0
  -26.8607  -20.7868   18.2458 H   0  0  0  0  0  0
  -26.5898  -24.3984   16.0008 H   0  0  0  0  0  0
  -32.3590  -18.9521   22.8270 H   0  0  0  0  0  0
  -31.9206  -16.5387   22.6698 H   0  0  0  0  0  0
  -30.6165  -20.8920   18.7085 H   0  0  0  0  0  0
  -27.9697  -19.8855   19.8098 H   0  0  0  0  0  0
  -31.5965  -21.1684   22.5590 H   0  0  0  0  0  0
  -30.1541  -21.5703   21.6393 H   0  0  0  0  0  0
  -31.7167  -21.4031   20.8176 H   0  0  0  0  0  0
  -31.4170  -22.2098   17.1136 H   0  0  0  0  0  0
  -31.1842  -23.2338   18.5300 H   0  0  0  0  0  0
  -31.3338  -23.9311   16.9355 H   0  0  0  0  0  0
  -28.5248  -17.7366   18.4906 H   0  0  0  0  0  0
  -27.5855  -17.0868   19.8366 H   0  0  0  0  0  0
  -28.8282  -16.1210   19.0248 H   0  0  0  0  0  0
  -28.5611  -25.4533   15.1971 H   0  0  0  0  0  0
  -30.1621  -25.1954   15.7789 H   0  0  0  0  0  0
  -30.0584  -25.3926   18.6177 H   0  0  0  0  0  0
  -30.8478  -26.6986   17.7551 H   0  0  0  0  0  0
  -29.2084  -28.3124   18.8895 H   0  0  0  0  0  0
  -30.2801  -27.4805   20.0008 H   0  0  0  0  0  0
  -29.1028  -15.1111   21.5027 H   0  0  0  0  0  0
  -27.9802  -26.1328   17.4850 H   0  0  0  0  0  0
  -28.8505  -27.1741   16.5967 H   0  0  0  0  0  0
  1 25  1  0  0  0
  1 30  2  0  0  0
  1 91  1  0  0  0
  2  3  1  0  0  0
  2 25  1  0  0  0
  2 93  1  0  0  0
  2 94  1  0  0  0
  3  4  1  0  0  0
  3 95  1  0  0  0
  3 96  1  0  0  0
  4  5  1  0  0  0
  4 97  1  0  0  0
  4 98  1  0  0  0
  5  6  1  0  0  0
  5 26  1  0  0  0
  5 99  1  0  0  0
  6 25  1  0  0  0
  6100  1  0  0  0
  6101  1  0  0  0
  7  8  2  0  0  0
  7 26  1  0  0  0
  7 29  1  0  0  0
  8  9  1  0  0  0
  8 22  1  0  0  0
  9 10  1  0  0  0
  9 27  2  0  0  0
 10 11  2  0  0  0
 10 15  1  0  0  0
 11 12  1  0  0  0
 11102  1  0  0  0
 12 13  2  0  0  0
 12103  1  0  0  0
 13 14  1  0  0  0
 13 31  1  0  0  0
 14 15  2  0  0  0
 14104  1  0  0  0
 15105  1  0  0  0
 16 17  2  0  0  0
 16 21  1  0  0  0
 16 31  1  0  0  0
 17 18  1  0  0  0
 17106  1  0  0  0
 18 19  2  0  0  0
 18107  1  0  0  0
 19 20  1  0  0  0
 19 24  1  0  0  0
 20 21  2  0  0  0
 20108  1  0  0  0
 21 23  1  0  0  0
 22 28  1  0  0  0
 22 32  2  0  0  0
 26 27  1  0  0  0
 28109  1  0  0  0
 28110  1  0  0  0
 29111  1  0  0  0
 29112  1  0  0  0
 33 34  1  0  0  0
 33 66  1  0  0  0
 33 70  2  0  0  0
 34 36  1  0  0  0
 34 59  1  0  0  0
 34113  1  0  0  0
 35 44  2  0  0  0
 35 45  1  0  0  0
 35 68  1  0  0  0
 36 56  1  0  0  0
 36114  1  0  0  0
 37 39  1  0  0  0
 37 47  1  0  0  0
 37 66  1  0  0  0
 37115  1  0  0  0
 38 43  2  0  0  0
 38 46  1  0  0  0
 38 47  1  0  0  0
 39 64  1  0  0  0
 39 67  2  0  0  0
 40 52  1  0  0  0
 40 53  2  0  0  0
 40 58  1  0  0  0
 41116  1  0  0  0
 41117  1  0  0  0
 41118  1  0  0  0
 41 48  1  0  0  0
 42 43  1  0  0  0
 42 66  1  0  0  0
 42119  1  0  0  0
 42120  1  0  0  0
 43 44  1  0  0  0
 44121  1  0  0  0
 45 46  2  0  0  0
 45122  1  0  0  0
 46123  1  0  0  0
 47124  1  0  0  0
 47125  1  0  0  0
 48 56  1  0  0  0
 48 65  1  0  0  0
 48126  1  0  0  0
 49 50  1  0  0  0
 49 53  1  0  0  0
 49 64  1  0  0  0
 49127  1  0  0  0
 50 51  1  0  0  0
 50128  1  0  0  0
 50129  1  0  0  0
 51 52  1  0  0  0
 51130  1  0  0  0
 51131  1  0  0  0
 52132  1  0  0  0
 52133  1  0  0  0
 53 54  1  0  0  0
 54 55  2  0  0  0
 54134  1  0  0  0
 55 57  1  0  0  0
 55135  1  0  0  0
 56 69  2  0  0  0
 57 58  2  0  0  0
 57136  1  0  0  0
 58137  1  0  0  0
 59 60  1  0  0  0
 59 61  1  0  0  0
 59 62  1  0  0  0
 60138  1  0  0  0
 60139  1  0  0  0
 60140  1  0  0  0
 61141  1  0  0  0
 61142  1  0  0  0
 61143  1  0  0  0
 62144  1  0  0  0
 62145  1  0  0  0
 62146  1  0  0  0
 63 65  1  0  0  0
 63147  1  0  0  0
 63148  1  0  0  0
 63149  1  0  0  0
 64150  1  0  0  0
 65151  1  0  0  0
 68 90  1  0  0  0
 71 72  2  0  0  0
 71 73  1  0  0  0
 71152  1  0  0  0
 72 76  1  0  0  0
 72153  1  0  0  0
 73 79  2  0  0  0
 73154  1  0  0  0
 74 75  2  0  0  0
 74 78  1  0  0  0
 74155  1  0  0  0
 75 82  1  0  0  0
 75156  1  0  0  0
 76 80  2  0  0  0
 76 83  1  0  0  0
 77 78  2  0  0  0
 77 81  1  0  0  0
 77 84  1  0  0  0
 78 85  1  0  0  0
 79 80  1  0  0  0
 79 88  1  0  0  0
 80 86  1  0  0  0
 81 82  2  0  0  0
 81 87  1  0  0  0
 82 91  1  0  0  0
 83 84  2  0  0  0
 83157  1  0  0  0
 84158  1  0  0  0
 85159  1  0  0  0
 85160  1  0  0  0
 85161  1  0  0  0
 86162  1  0  0  0
 86163  1  0  0  0
 86164  1  0  0  0
 87165  1  0  0  0
 87166  1  0  0  0
 87167  1  0  0  0
 88 92  1  0  0  0
 88168  1  0  0  0
 88169  1  0  0  0
 89 90  1  0  0  0
 89 92  1  0  0  0
 89170  1  0  0  0
 89171  1  0  0  0
 90172  1  0  0  0
 90173  1  0  0  0
 91174  1  0  0  0
 92175  1  0  0  0
 92176  1  0  0  0
M  CHG  1  92   1
M  ISO  4   1 100  68 101  90 101  91 100
M  END
> <chiral flag>
0

> <version>
0

> <s_m_source_file>
/data/baiqing/PycharmProjects/Reinvent-master-3.2/result/LINK_invent/BTK/process_docking_weight1_custom_product_contain_oxygen_bond_distance_aromatic_linkinvent_7_9_3/rearranged_h_0044.sdf

> <i_m_source_file_index>
29

> <r_mmod_Potential_Energy-OPLS-2005>
-191.454772949219

> <r_mmod_Stretch_Energy-OPLS-2005>
38.293384552002

> <r_mmod_Bend_Energy-OPLS-2005>
95.6796264648438

> <r_mmod_Torsional_Energy-OPLS-2005>
279.928894042969

> <r_mmod_Improper_Torsional_Energy-OPLS-2005>
4.24191904067993

> <r_mmod_Van_der_Waal_Energy-OPLS-2005>
179.502899169922

> <r_mmod_Electrostatic_Energy-OPLS-2005>
-353.126281738281

> <r_mmod_Solvation_Energy-OPLS-2005>
-444.739471435547

> <b_mmod_Minimization_Converged-OPLS-2005>
0

> <r_mmod_RMS_Derivative-OPLS-2005>
4.29567766189575

$$$$
29
                    3D
 Structure written by MMmdl.
170179  0  0  1  0            999 V2000
  -30.6951  -14.5251   20.5423 C   0  0  0  0  0  0
  -30.4258  -12.3334   19.4350 C   0  0  0  0  0  0
  -29.4986  -12.5069   18.2140 C   0  0  0  0  0  0
  -28.0199  -12.3614   18.6259 C   0  0  0  0  0  0
  -27.6578  -13.2143   19.8715 C   0  0  2  0  0  0
  -28.7036  -13.0350   20.9963 C   0  0  0  0  0  0
  -25.2566  -13.8175   20.5685 C   0  0  0  0  0  0
  -24.1827  -13.0442   20.9178 C   0  0  0  0  0  0
  -24.6401  -11.6914   20.8743 C   0  0  0  0  0  0
  -23.9065  -10.4294   21.0396 C   0  0  0  0  0  0
  -24.3612   -9.4210   21.9179 C   0  0  0  0  0  0
  -23.6291   -8.2243   22.0753 C   0  0  0  0  0  0
  -22.4274   -8.0278   21.3544 C   0  0  0  0  0  0
  -21.9904   -9.0252   20.4643 C   0  0  0  0  0  0
  -22.7231  -10.2134   20.3051 C   0  0  0  0  0  0
  -21.6850   -6.0742   22.5283 C   0  0  0  0  0  0
  -21.4014   -6.5643   23.8217 C   0  0  0  0  0  0
  -21.3662   -5.6795   24.9177 C   0  0  0  0  0  0
  -21.6042   -4.3056   24.7223 C   0  0  0  0  0  0
  -21.8822   -3.8150   23.4346 C   0  0  0  0  0  0
  -21.9192   -4.6970   22.3403 C   0  0  0  0  0  0
  -22.7848  -13.5232   21.1839 C   0  0  0  0  0  0
  -22.1659   -4.2150   21.0980 F   0  0  0  0  0  0
  -21.5621   -3.4540   25.7738 F   0  0  0  0  0  0
  -30.0299  -13.3400   20.4350 N   0  0  0  0  0  0
  -26.3008  -12.9361   20.3353 N   0  0  0  0  0  0
  -25.9328  -11.6520   20.5765 N   0  0  0  0  0  0
  -22.0493  -12.8232   22.0405 N   0  0  0  0  0  0
  -25.4257  -15.1898   20.4105 N   0  0  0  0  0  0
  -31.8403  -14.6783   20.1100 O   0  0  0  0  0  0
  -21.6639   -6.8873   21.4240 O   0  0  0  0  0  0
  -22.3534  -14.5542   20.6676 O   0  0  0  0  0  0
  -24.6196  -31.8632   23.2072 C   0  0  0  0  0  0
  -25.9071  -32.4795   23.8371 C   0  0  1  0  0  0
  -27.2280  -27.3748   20.0816 C   0  0  0  0  0  0
  -25.5901  -33.8599   24.2294 N   0  0  0  0  0  0
  -23.4095  -30.4880   21.5495 C   0  0  2  0  0  0
  -24.8532  -28.9512   20.1107 C   0  0  0  0  0  0
  -22.7434  -29.4631   22.4969 C   0  0  0  0  0  0
  -18.0276  -28.1377   22.8491 C   0  0  0  0  0  0
  -24.1494  -36.7305   23.2639 C   0  0  0  0  0  0
  -25.9462  -30.8056   21.3740 C   0  0  0  0  0  0
  -26.0176  -29.4380   20.7150 C   0  0  0  0  0  0
  -27.2010  -28.6544   20.7040 C   0  0  0  0  0  0
  -26.0368  -26.9238   19.4626 C   0  0  0  0  0  0
  -24.8608  -27.6953   19.4855 C   0  0  0  0  0  0
  -23.6192  -29.8248   20.1633 C   0  0  0  0  0  0
  -25.4117  -36.3095   24.0329 C   0  0  1  0  0  0
  -20.5865  -28.3662   23.1312 C   0  0  2  0  0  0
  -20.6767  -26.9393   22.5420 C   0  0  0  0  0  0
  -19.5749  -26.6375   21.5218 C   0  0  0  0  0  0
  -18.1925  -26.7916   22.1627 C   0  0  0  0  0  0
  -19.1526  -28.8838   23.2896 C   0  0  0  0  0  0
  -18.9454  -30.1446   23.8903 C   0  0  0  0  0  0
  -17.6453  -30.6581   24.0563 C   0  0  0  0  0  0
  -25.9037  -34.9464   23.5108 C   0  0  0  0  0  0
  -16.5343  -29.9082   23.6333 C   0  0  0  0  0  0
  -16.7263  -28.6503   23.0349 C   0  0  0  0  0  0
  -26.4470  -31.6595   25.0729 C   0  0  0  0  0  0
  -25.3716  -31.3733   26.1467 C   0  0  0  0  0  0
  -27.0305  -30.3021   24.6159 C   0  0  0  0  0  0
  -27.6033  -32.4328   25.7495 C   0  0  0  0  0  0
  -27.5582  -37.1809   24.8461 C   0  0  0  0  0  0
  -21.4153  -29.3029   22.3717 N   0  0  0  0  0  0
  -26.4297  -37.3786   23.9397 N   0  0  0  0  0  0
  -24.6768  -31.0681   22.1006 N   0  0  0  0  0  0
  -23.4184  -28.8169   23.3026 O   0  0  0  0  0  0
  -28.3915  -26.6067   20.1420 O   0  0  0  0  0  0
  -26.5616  -34.8924   22.4681 O   0  0  0  0  0  0
  -23.5377  -32.1417   23.7435 O   0  0  0  0  0  0
  -28.4195  -17.5958   19.5219 C   0  0  0  0  0  0
  -29.5303  -19.4290   20.6763 C   0  0  0  0  0  0
  -29.4308  -18.0313   20.3996 C   0  0  0  0  0  0
  -27.4835  -18.5031   18.9928 C   0  0  0  0  0  0
  -28.5994  -20.3747   20.1433 C   0  0  0  0  0  0
  -27.5462  -19.8765   19.3288 C   0  0  0  0  0  0
  -29.4089  -24.3157   20.1481 C   0  0  0  0  0  0
  -30.1547  -24.5996   21.2313 C   0  0  0  0  0  0
  -29.2904  -24.8715   16.9231 C   0  0  0  0  0  0
  -29.9382  -23.5200   17.2456 C   0  0  0  0  0  0
  -29.2757  -25.8548   18.0992 C   0  0  0  0  0  0
  -29.0772  -22.6615   18.1887 C   0  0  0  0  0  0
  -28.5630  -25.3709   19.3798 C   0  0  2  0  0  0
  -26.3930  -17.9779   18.0760 C   0  0  0  0  0  0
  -30.4003  -17.0024   21.0263 C   0  0  0  0  0  0
  -28.6477  -21.8864   20.5375 C   0  0  0  0  0  0
  -29.9767  -15.5786   20.9941 N   0  0  0  0  0  0
  -29.3632  -22.8652   19.6360 N   0  3  2  0  0  0
  -26.2942  -20.9268   18.7544 Cl  0  0  0  0  0  0
  -31.4714  -12.4324   19.1359 H   0  0  0  0  0  0
  -30.3298  -11.3289   19.8497 H   0  0  0  0  0  0
  -29.7451  -11.7738   17.4452 H   0  0  0  0  0  0
  -29.6596  -13.4870   17.7629 H   0  0  0  0  0  0
  -27.8350  -11.3059   18.8297 H   0  0  0  0  0  0
  -27.3704  -12.6197   17.7888 H   0  0  0  0  0  0
  -27.6873  -14.2550   19.5528 H   0  0  0  0  0  0
  -28.6889  -12.0099   21.3710 H   0  0  0  0  0  0
  -28.4657  -13.6620   21.8561 H   0  0  0  0  0  0
  -25.2758   -9.5690   22.4747 H   0  0  0  0  0  0
  -24.0006   -7.4639   22.7477 H   0  0  0  0  0  0
  -21.0833   -8.8766   19.8960 H   0  0  0  0  0  0
  -22.3684  -10.9666   19.6158 H   0  0  0  0  0  0
  -21.2015   -7.6153   23.9719 H   0  0  0  0  0  0
  -21.1477   -6.0524   25.9075 H   0  0  0  0  0  0
  -22.0602   -2.7610   23.2844 H   0  0  0  0  0  0
  -22.4095  -11.9899   22.4812 H   0  0  0  0  0  0
  -21.1111  -13.1270   22.2578 H   0  0  0  0  0  0
  -24.6587  -15.8411   20.5312 H   0  0  0  0  0  0
  -26.2799  -15.6397   20.1103 H   0  0  0  0  0  0
  -26.7134  -32.5478   23.1118 H   0  0  0  0  0  0
  -25.0029  -33.9752   25.0422 H   0  0  0  0  0  0
  -22.7006  -31.3071   21.4112 H   0  0  0  0  0  0
  -23.3749  -35.9643   23.3302 H   0  0  0  0  0  0
  -24.3581  -36.8926   22.2053 H   0  0  0  0  0  0
  -23.7256  -37.6513   23.6656 H   0  0  0  0  0  0
  -26.0745  -31.5723   20.6084 H   0  0  0  0  0  0
  -26.8286  -30.8492   22.0006 H   0  0  0  0  0  0
  -28.0964  -29.0220   21.1862 H   0  0  0  0  0  0
  -25.9569  -25.9745   18.9604 H   0  0  0  0  0  0
  -23.9649  -27.3147   19.0140 H   0  0  0  0  0  0
  -23.7311  -30.6014   19.4060 H   0  0  0  0  0  0
  -22.7408  -29.2497   19.8661 H   0  0  0  0  0  0
  -25.1300  -36.1951   25.0821 H   0  0  0  0  0  0
  -20.9956  -28.3230   24.1431 H   0  0  0  0  0  0
  -20.5677  -26.2264   23.3608 H   0  0  0  0  0  0
  -21.6639  -26.7434   22.1213 H   0  0  0  0  0  0
  -19.6906  -25.6291   21.1243 H   0  0  0  0  0  0
  -19.6693  -27.3193   20.6757 H   0  0  0  0  0  0
  -17.4194  -26.6664   21.4030 H   0  0  0  0  0  0
  -18.0321  -26.0062   22.9028 H   0  0  0  0  0  0
  -19.7931  -30.7266   24.2266 H   0  0  0  0  0  0
  -17.5009  -31.6265   24.5162 H   0  0  0  0  0  0
  -15.5348  -30.2987   23.7654 H   0  0  0  0  0  0
  -15.8661  -28.0830   22.7049 H   0  0  0  0  0  0
  -24.5865  -30.7109   25.7801 H   0  0  0  0  0  0
  -24.8942  -32.2913   26.4916 H   0  0  0  0  0  0
  -25.8051  -30.8890   27.0225 H   0  0  0  0  0  0
  -26.2871  -29.6788   24.1176 H   0  0  0  0  0  0
  -27.3997  -29.7263   25.4655 H   0  0  0  0  0  0
  -27.8743  -30.4311   23.9376 H   0  0  0  0  0  0
  -27.2624  -33.3610   26.2093 H   0  0  0  0  0  0
  -28.3828  -32.6917   25.0316 H   0  0  0  0  0  0
  -28.0706  -31.8442   26.5397 H   0  0  0  0  0  0
  -28.2602  -38.0108   24.7505 H   0  0  0  0  0  0
  -28.1080  -36.2636   24.6290 H   0  0  0  0  0  0
  -27.2294  -37.1466   25.8865 H   0  0  0  0  0  0
  -20.9308  -29.8762   21.6954 H   0  0  0  0  0  0
  -26.0181  -38.2859   24.1402 H   0  0  0  0  0  0
  -28.3481  -16.5516   19.2580 H   0  0  0  0  0  0
  -30.3161  -19.7708   21.3363 H   0  0  0  0  0  0
  -30.2047  -25.6075   21.6196 H   0  0  0  0  0  0
  -30.7310  -23.8459   21.7486 H   0  0  0  0  0  0
  -28.2752  -24.7212   16.5517 H   0  0  0  0  0  0
  -29.8378  -25.3318   16.0980 H   0  0  0  0  0  0
  -30.9538  -23.6431   17.6243 H   0  0  0  0  0  0
  -30.0410  -22.9783   16.3043 H   0  0  0  0  0  0
  -28.7883  -26.7646   17.7466 H   0  0  0  0  0  0
  -30.2964  -26.1497   18.3448 H   0  0  0  0  0  0
  -29.2826  -21.6199   17.9390 H   0  0  0  0  0  0
  -28.0214  -22.8240   17.9785 H   0  0  0  0  0  0
  -27.6238  -24.8831   19.1419 H   0  0  0  0  0  0
  -26.5361  -16.9245   17.8347 H   0  0  0  0  0  0
  -26.3826  -18.5313   17.1364 H   0  0  0  0  0  0
  -25.4170  -18.0817   18.5503 H   0  0  0  0  0  0
  -30.5580  -17.2708   22.0716 H   0  0  0  0  0  0
  -31.3691  -17.1255   20.5398 H   0  0  0  0  0  0
  -29.1040  -21.9456   21.5261 H   0  0  0  0  0  0
  -27.6294  -22.2449   20.6854 H   0  0  0  0  0  0
  -29.0469  -15.3778   21.3284 H   0  0  0  0  0  0
  -30.3160  -22.5387   19.6962 H   0  0  0  0  0  0
  1 25  1  0  0  0
  1 30  2  0  0  0
  1 87  1  0  0  0
  2  3  1  0  0  0
  2 25  1  0  0  0
  2 90  1  0  0  0
  2 91  1  0  0  0
  3  4  1  0  0  0
  3 92  1  0  0  0
  3 93  1  0  0  0
  4  5  1  0  0  0
  4 94  1  0  0  0
  4 95  1  0  0  0
  5  6  1  0  0  0
  5 26  1  0  0  0
  5 96  1  0  0  0
  6 25  1  0  0  0
  6 97  1  0  0  0
  6 98  1  0  0  0
  7  8  2  0  0  0
  7 26  1  0  0  0
  7 29  1  0  0  0
  8  9  1  0  0  0
  8 22  1  0  0  0
  9 10  1  0  0  0
  9 27  2  0  0  0
 10 11  2  0  0  0
 10 15  1  0  0  0
 11 12  1  0  0  0
 11 99  1  0  0  0
 12 13  2  0  0  0
 12100  1  0  0  0
 13 14  1  0  0  0
 13 31  1  0  0  0
 14 15  2  0  0  0
 14101  1  0  0  0
 15102  1  0  0  0
 16 17  2  0  0  0
 16 21  1  0  0  0
 16 31  1  0  0  0
 17 18  1  0  0  0
 17103  1  0  0  0
 18 19  2  0  0  0
 18104  1  0  0  0
 19 20  1  0  0  0
 19 24  1  0  0  0
 20 21  2  0  0  0
 20105  1  0  0  0
 21 23  1  0  0  0
 22 28  1  0  0  0
 22 32  2  0  0  0
 26 27  1  0  0  0
 28106  1  0  0  0
 28107  1  0  0  0
 29108  1  0  0  0
 29109  1  0  0  0
 33 34  1  0  0  0
 33 66  1  0  0  0
 33 70  2  0  0  0
 34 36  1  0  0  0
 34 59  1  0  0  0
 34110  1  0  0  0
 35 44  2  0  0  0
 35 45  1  0  0  0
 35 68  1  0  0  0
 36 56  1  0  0  0
 36111  1  0  0  0
 37 39  1  0  0  0
 37 47  1  0  0  0
 37 66  1  0  0  0
 37112  1  0  0  0
 38 43  2  0  0  0
 38 46  1  0  0  0
 38 47  1  0  0  0
 39 64  1  0  0  0
 39 67  2  0  0  0
 40 52  1  0  0  0
 40 53  2  0  0  0
 40 58  1  0  0  0
 41113  1  0  0  0
 41114  1  0  0  0
 41115  1  0  0  0
 41 48  1  0  0  0
 42 43  1  0  0  0
 42 66  1  0  0  0
 42116  1  0  0  0
 42117  1  0  0  0
 43 44  1  0  0  0
 44118  1  0  0  0
 45 46  2  0  0  0
 45119  1  0  0  0
 46120  1  0  0  0
 47121  1  0  0  0
 47122  1  0  0  0
 48 56  1  0  0  0
 48 65  1  0  0  0
 48123  1  0  0  0
 49 50  1  0  0  0
 49 53  1  0  0  0
 49 64  1  0  0  0
 49124  1  0  0  0
 50 51  1  0  0  0
 50125  1  0  0  0
 50126  1  0  0  0
 51 52  1  0  0  0
 51127  1  0  0  0
 51128  1  0  0  0
 52129  1  0  0  0
 52130  1  0  0  0
 53 54  1  0  0  0
 54 55  2  0  0  0
 54131  1  0  0  0
 55 57  1  0  0  0
 55132  1  0  0  0
 56 69  2  0  0  0
 57 58  2  0  0  0
 57133  1  0  0  0
 58134  1  0  0  0
 59 60  1  0  0  0
 59 61  1  0  0  0
 59 62  1  0  0  0
 60135  1  0  0  0
 60136  1  0  0  0
 60137  1  0  0  0
 61138  1  0  0  0
 61139  1  0  0  0
 61140  1  0  0  0
 62141  1  0  0  0
 62142  1  0  0  0
 62143  1  0  0  0
 63 65  1  0  0  0
 63144  1  0  0  0
 63145  1  0  0  0
 63146  1  0  0  0
 64147  1  0  0  0
 65148  1  0  0  0
 68 83  1  0  0  0
 71 73  2  0  0  0
 71 74  1  0  0  0
 71149  1  0  0  0
 72 73  1  0  0  0
 72 75  2  0  0  0
 72150  1  0  0  0
 73 85  1  0  0  0
 74 76  2  0  0  0
 74 84  1  0  0  0
 75 76  1  0  0  0
 75 86  1  0  0  0
 76 89  1  0  0  0
 77 78  2  0  0  0
 77 83  1  0  0  0
 77 88  1  0  0  0
 78151  1  0  0  0
 78152  1  0  0  0
 79 80  1  0  0  0
 79 81  1  0  0  0
 79153  1  0  0  0
 79154  1  0  0  0
 80 82  1  0  0  0
 80155  1  0  0  0
 80156  1  0  0  0
 81 83  1  0  0  0
 81157  1  0  0  0
 81158  1  0  0  0
 82 88  1  0  0  0
 82159  1  0  0  0
 82160  1  0  0  0
 83161  1  0  0  0
 84162  1  0  0  0
 84163  1  0  0  0
 84164  1  0  0  0
 85 87  1  0  0  0
 85165  1  0  0  0
 85166  1  0  0  0
 86167  1  0  0  0
 86168  1  0  0  0
 86 88  1  0  0  0
 87169  1  0  0  0
 88170  1  0  0  0
M  CHG  1  88   1
M  ISO  4   1 100  68 101  83 101  87 100
M  END
> <chiral flag>
0

> <version>
0

> <s_m_source_file>
/data/baiqing/PycharmProjects/Reinvent-master-3.2/result/LINK_invent/BTK/process_docking_weight1_custom_product_contain_oxygen_bond_distance_aromatic_linkinvent_7_9_3/rearranged_h_0044.sdf

> <i_m_source_file_index>
30

> <r_mmod_Potential_Energy-OPLS-2005>
-179.705718994141

> <r_mmod_Stretch_Energy-OPLS-2005>
61.0982398986816

> <r_mmod_Bend_Energy-OPLS-2005>
137.148681640625

> <r_mmod_Torsional_Energy-OPLS-2005>
200.393249511719

> <r_mmod_Improper_Torsional_Energy-OPLS-2005>
3.91780686378479

> <r_mmod_Van_der_Waal_Energy-OPLS-2005>
151.122299194336

> <r_mmod_Electrostatic_Energy-OPLS-2005>
-337.246856689453

> <r_mmod_Solvation_Energy-OPLS-2005>
-419.678588867188

> <b_mmod_Minimization_Converged-OPLS-2005>
0

> <r_mmod_RMS_Derivative-OPLS-2005>
1.79425001144409

$$$$
30
                    3D
 Structure written by MMmdl.
168177  0  0  1  0            999 V2000
  -30.6156  -14.7155   20.4771 C   0  0  0  0  0  0
  -30.4356  -12.4238   19.5076 C   0  0  0  0  0  0
  -29.5080  -12.4535   18.2697 C   0  0  0  0  0  0
  -28.0280  -12.3411   18.6827 C   0  0  0  0  0  0
  -27.6540  -13.2371   19.8921 C   0  0  2  0  0  0
  -28.6985  -13.1478   21.0261 C   0  0  0  0  0  0
  -25.2559  -13.8312   20.5810 C   0  0  0  0  0  0
  -24.1852  -13.0564   20.9245 C   0  0  0  0  0  0
  -24.6431  -11.7024   20.8868 C   0  0  0  0  0  0
  -23.9141  -10.4371   21.0473 C   0  0  0  0  0  0
  -24.3684   -9.4267   21.9218 C   0  0  0  0  0  0
  -23.6345   -8.2302   22.0717 C   0  0  0  0  0  0
  -22.4325   -8.0364   21.3491 C   0  0  0  0  0  0
  -21.9986   -9.0380   20.4617 C   0  0  0  0  0  0
  -22.7339  -10.2249   20.3077 C   0  0  0  0  0  0
  -21.6890   -6.0810   22.5235 C   0  0  0  0  0  0
  -21.4041   -6.5692   23.8179 C   0  0  0  0  0  0
  -21.3651   -5.6823   24.9107 C   0  0  0  0  0  0
  -21.6045   -4.3085   24.7164 C   0  0  0  0  0  0
  -21.8833   -3.8223   23.4277 C   0  0  0  0  0  0
  -21.9200   -4.7027   22.3351 C   0  0  0  0  0  0
  -22.7859  -13.5308   21.1928 C   0  0  0  0  0  0
  -22.1669   -4.2250   21.0912 F   0  0  0  0  0  0
  -21.5611   -3.4543   25.7650 F   0  0  0  0  0  0
  -30.0055  -13.4875   20.4458 N   0  0  0  0  0  0
  -26.3018  -12.9523   20.3598 N   0  0  0  0  0  0
  -25.9390  -11.6677   20.6035 N   0  0  0  0  0  0
  -22.0575  -12.8194   22.0437 N   0  0  0  0  0  0
  -25.4316  -15.2022   20.4147 N   0  0  0  0  0  0
  -31.7834  -14.8390   20.0871 O   0  0  0  0  0  0
  -21.6680   -6.8974   21.4208 O   0  0  0  0  0  0
  -22.3516  -14.5622   20.6804 O   0  0  0  0  0  0
  -24.6216  -31.8654   23.2038 C   0  0  0  0  0  0
  -25.9099  -32.4789   23.8337 C   0  0  1  0  0  0
  -27.1857  -27.3147   20.1504 C   0  0  0  0  0  0
  -25.5949  -33.8595   24.2258 N   0  0  0  0  0  0
  -23.4086  -30.4905   21.5504 C   0  0  2  0  0  0
  -24.8472  -28.9544   20.0953 C   0  0  0  0  0  0
  -22.7467  -29.4649   22.4988 C   0  0  0  0  0  0
  -18.0281  -28.1406   22.8500 C   0  0  0  0  0  0
  -24.1502  -36.7284   23.2636 C   0  0  0  0  0  0
  -25.9470  -30.7949   21.3737 C   0  0  0  0  0  0
  -26.0121  -29.4244   20.7152 C   0  0  0  0  0  0
  -27.1849  -28.6190   20.7301 C   0  0  0  0  0  0
  -26.0116  -26.8996   19.4883 C   0  0  0  0  0  0
  -24.8579  -27.7042   19.4557 C   0  0  0  0  0  0
  -23.6122  -29.8339   20.1572 C   0  0  0  0  0  0
  -25.4132  -36.3077   24.0322 C   0  0  1  0  0  0
  -20.5891  -28.3698   23.1320 C   0  0  2  0  0  0
  -20.6778  -26.9436   22.5426 C   0  0  0  0  0  0
  -19.5752  -26.6404   21.5244 C   0  0  0  0  0  0
  -18.1927  -26.7951   22.1631 C   0  0  0  0  0  0
  -19.1525  -28.8871   23.2899 C   0  0  0  0  0  0
  -18.9442  -30.1481   23.8912 C   0  0  0  0  0  0
  -17.6431  -30.6603   24.0579 C   0  0  0  0  0  0
  -25.9084  -34.9463   23.5098 C   0  0  0  0  0  0
  -16.5325  -29.9103   23.6336 C   0  0  0  0  0  0
  -16.7261  -28.6519   23.0353 C   0  0  0  0  0  0
  -26.4497  -31.6592   25.0706 C   0  0  0  0  0  0
  -25.3701  -31.3722   26.1403 C   0  0  0  0  0  0
  -27.0335  -30.3002   24.6162 C   0  0  0  0  0  0
  -27.6073  -32.4321   25.7472 C   0  0  0  0  0  0
  -27.5595  -37.1785   24.8453 C   0  0  0  0  0  0
  -21.4176  -29.3044   22.3732 N   0  0  0  0  0  0
  -26.4288  -37.3777   23.9428 N   0  0  0  0  0  0
  -24.6774  -31.0685   22.0973 N   0  0  0  0  0  0
  -23.4227  -28.8206   23.3066 O   0  0  0  0  0  0
  -28.2934  -26.4702   20.2700 O   0  0  0  0  0  0
  -26.5657  -34.8928   22.4662 O   0  0  0  0  0  0
  -23.5393  -32.1458   23.7408 O   0  0  0  0  0  0
  -29.4906  -19.8048   19.0613 C   0  0  0  0  0  0
  -29.5189  -18.6497   18.2654 C   0  0  0  0  0  0
  -29.7232  -18.3928   21.0324 C   0  0  0  0  0  0
  -29.6220  -19.7267   20.4568 C   0  0  0  0  0  0
  -29.6908  -17.3633   18.8217 C   0  0  0  0  0  0
  -29.7881  -17.1787   20.2373 C   0  0  0  0  0  0
  -29.8274  -23.6563   21.3707 C   0  0  0  0  0  0
  -29.9418  -24.7741   24.8601 C   0  0  0  0  0  0
  -30.1352  -24.3007   22.5108 C   0  0  0  0  0  0
  -29.9184  -23.8637   23.8719 C   0  0  0  0  0  0
  -29.7012  -24.4450   20.0541 C   0  0  0  0  0  0
  -27.2865  -24.0231   20.6407 C   0  0  0  0  0  0
  -27.8198  -22.5214   20.5317 C   0  0  0  0  0  0
  -28.2594  -25.0373   19.8996 C   0  0  1  0  0  0
  -29.7766  -16.2161   17.8364 C   0  0  0  0  0  0
  -29.9668  -21.0719   21.2062 C   0  0  0  0  0  0
  -29.8538  -15.8193   20.8281 N   0  0  0  0  0  0
  -29.0835  -22.3296   21.3216 N   0  3  1  0  0  0
  -31.4724  -12.5540   19.1916 H   0  0  0  0  0  0
  -30.3982  -11.4550   20.0097 H   0  0  0  0  0  0
  -29.7557  -11.6220   17.6077 H   0  0  0  0  0  0
  -29.6823  -13.3565   17.6891 H   0  0  0  0  0  0
  -27.8475  -11.2982   18.9453 H   0  0  0  0  0  0
  -27.3752  -12.5568   17.8334 H   0  0  0  0  0  0
  -27.6622  -14.2669   19.5396 H   0  0  0  0  0  0
  -28.7286  -12.1544   21.4725 H   0  0  0  0  0  0
  -28.4435  -13.8296   21.8409 H   0  0  0  0  0  0
  -25.2793   -9.5746   22.4881 H   0  0  0  0  0  0
  -24.0048   -7.4670   22.7408 H   0  0  0  0  0  0
  -21.0921   -8.8975   19.8913 H   0  0  0  0  0  0
  -22.3810  -10.9854   19.6258 H   0  0  0  0  0  0
  -21.2062   -7.6205   23.9698 H   0  0  0  0  0  0
  -21.1432   -6.0531   25.8997 H   0  0  0  0  0  0
  -22.0613   -2.7700   23.2719 H   0  0  0  0  0  0
  -22.4213  -11.9709   22.4581 H   0  0  0  0  0  0
  -21.1258  -13.1217   22.2932 H   0  0  0  0  0  0
  -24.6749  -15.8702   20.5069 H   0  0  0  0  0  0
  -26.2948  -15.6295   20.1107 H   0  0  0  0  0  0
  -26.7171  -32.5425   23.1086 H   0  0  0  0  0  0
  -25.0073  -33.9750   25.0381 H   0  0  0  0  0  0
  -22.6972  -31.3082   21.4223 H   0  0  0  0  0  0
  -23.3782  -35.9593   23.3264 H   0  0  0  0  0  0
  -24.3594  -36.8936   22.2052 H   0  0  0  0  0  0
  -23.7226  -37.6466   23.6679 H   0  0  0  0  0  0
  -26.0864  -31.5595   20.6076 H   0  0  0  0  0  0
  -26.8260  -30.8346   22.0052 H   0  0  0  0  0  0
  -28.0679  -28.9812   21.2365 H   0  0  0  0  0  0
  -25.9487  -25.9367   19.0086 H   0  0  0  0  0  0
  -23.9811  -27.3444   18.9366 H   0  0  0  0  0  0
  -23.7078  -30.6172   19.4017 H   0  0  0  0  0  0
  -22.7292  -29.2610   19.8668 H   0  0  0  0  0  0
  -25.1326  -36.1917   25.0809 H   0  0  0  0  0  0
  -20.9958  -28.3255   24.1454 H   0  0  0  0  0  0
  -20.5742  -26.2322   23.3629 H   0  0  0  0  0  0
  -21.6643  -26.7524   22.1176 H   0  0  0  0  0  0
  -19.6921  -25.6322   21.1283 H   0  0  0  0  0  0
  -19.6690  -27.3221   20.6785 H   0  0  0  0  0  0
  -17.4216  -26.6724   21.4006 H   0  0  0  0  0  0
  -18.0282  -26.0111   22.9029 H   0  0  0  0  0  0
  -19.7908  -30.7312   24.2288 H   0  0  0  0  0  0
  -17.4973  -31.6298   24.5164 H   0  0  0  0  0  0
  -15.5318  -30.2994   23.7684 H   0  0  0  0  0  0
  -15.8653  -28.0847   22.7058 H   0  0  0  0  0  0
  -24.5883  -30.7098   25.7671 H   0  0  0  0  0  0
  -24.8888  -32.2884   26.4823 H   0  0  0  0  0  0
  -25.7969  -30.8854   27.0171 H   0  0  0  0  0  0
  -26.2890  -29.6758   24.1199 H   0  0  0  0  0  0
  -27.4032  -29.7271   25.4675 H   0  0  0  0  0  0
  -27.8780  -30.4281   23.9384 H   0  0  0  0  0  0
  -27.2700  -33.3630   26.2038 H   0  0  0  0  0  0
  -28.3878  -32.6852   25.0288 H   0  0  0  0  0  0
  -28.0744  -31.8444   26.5376 H   0  0  0  0  0  0
  -28.2563  -38.0130   24.7587 H   0  0  0  0  0  0
  -28.1148  -36.2675   24.6180 H   0  0  0  0  0  0
  -27.2336  -37.1297   25.8852 H   0  0  0  0  0  0
  -20.9364  -29.8744   21.6912 H   0  0  0  0  0  0
  -26.0178  -38.2850   24.1433 H   0  0  0  0  0  0
  -29.4608  -20.7693   18.5716 H   0  0  0  0  0  0
  -29.4519  -18.7825   17.1929 H   0  0  0  0  0  0
  -29.8257  -18.3054   22.1067 H   0  0  0  0  0  0
  -29.7763  -24.5141   25.8940 H   0  0  0  0  0  0
  -30.1187  -25.8190   24.6354 H   0  0  0  0  0  0
  -30.4838  -25.3156   22.3945 H   0  0  0  0  0  0
  -29.7360  -22.8260   24.1111 H   0  0  0  0  0  0
  -29.9091  -23.7821   19.2121 H   0  0  0  0  0  0
  -30.4597  -25.2256   20.0052 H   0  0  0  0  0  0
  -27.1900  -24.2873   21.6992 H   0  0  0  0  0  0
  -26.2641  -24.0916   20.2615 H   0  0  0  0  0  0
  -28.0050  -22.3210   19.4772 H   0  0  0  0  0  0
  -27.0789  -21.7910   20.8542 H   0  0  0  0  0  0
  -28.0278  -25.0159   18.8337 H   0  0  0  0  0  0
  -29.5441  -16.5349   16.8190 H   0  0  0  0  0  0
  -29.0736  -15.4323   18.1002 H   0  0  0  0  0  0
  -30.7926  -15.8230   17.8155 H   0  0  0  0  0  0
  -30.8847  -21.3962   20.7087 H   0  0  0  0  0  0
  -30.2986  -20.8215   22.2149 H   0  0  0  0  0  0
  -29.0773  -15.5968   21.4337 H   0  0  0  0  0  0
  -28.7179  -22.1962   22.2535 H   0  0  0  0  0  0
  1 25  1  0  0  0
  1 30  2  0  0  0
  1 87  1  0  0  0
  2  3  1  0  0  0
  2 25  1  0  0  0
  2 89  1  0  0  0
  2 90  1  0  0  0
  3  4  1  0  0  0
  3 91  1  0  0  0
  3 92  1  0  0  0
  4  5  1  0  0  0
  4 93  1  0  0  0
  4 94  1  0  0  0
  5  6  1  0  0  0
  5 26  1  0  0  0
  5 95  1  0  0  0
  6 25  1  0  0  0
  6 96  1  0  0  0
  6 97  1  0  0  0
  7  8  2  0  0  0
  7 26  1  0  0  0
  7 29  1  0  0  0
  8  9  1  0  0  0
  8 22  1  0  0  0
  9 10  1  0  0  0
  9 27  2  0  0  0
 10 11  2  0  0  0
 10 15  1  0  0  0
 11 12  1  0  0  0
 11 98  1  0  0  0
 12 13  2  0  0  0
 12 99  1  0  0  0
 13 14  1  0  0  0
 13 31  1  0  0  0
 14 15  2  0  0  0
 14100  1  0  0  0
 15101  1  0  0  0
 16 17  2  0  0  0
 16 21  1  0  0  0
 16 31  1  0  0  0
 17 18  1  0  0  0
 17102  1  0  0  0
 18 19  2  0  0  0
 18103  1  0  0  0
 19 20  1  0  0  0
 19 24  1  0  0  0
 20 21  2  0  0  0
 20104  1  0  0  0
 21 23  1  0  0  0
 22 28  1  0  0  0
 22 32  2  0  0  0
 26 27  1  0  0  0
 28105  1  0  0  0
 28106  1  0  0  0
 29107  1  0  0  0
 29108  1  0  0  0
 33 34  1  0  0  0
 33 66  1  0  0  0
 33 70  2  0  0  0
 34 36  1  0  0  0
 34 59  1  0  0  0
 34109  1  0  0  0
 35 44  2  0  0  0
 35 45  1  0  0  0
 35 68  1  0  0  0
 36 56  1  0  0  0
 36110  1  0  0  0
 37 39  1  0  0  0
 37 47  1  0  0  0
 37 66  1  0  0  0
 37111  1  0  0  0
 38 43  2  0  0  0
 38 46  1  0  0  0
 38 47  1  0  0  0
 39 64  1  0  0  0
 39 67  2  0  0  0
 40 52  1  0  0  0
 40 53  2  0  0  0
 40 58  1  0  0  0
 41112  1  0  0  0
 41113  1  0  0  0
 41114  1  0  0  0
 41 48  1  0  0  0
 42 43  1  0  0  0
 42 66  1  0  0  0
 42115  1  0  0  0
 42116  1  0  0  0
 43 44  1  0  0  0
 44117  1  0  0  0
 45 46  2  0  0  0
 45118  1  0  0  0
 46119  1  0  0  0
 47120  1  0  0  0
 47121  1  0  0  0
 48 56  1  0  0  0
 48 65  1  0  0  0
 48122  1  0  0  0
 49 50  1  0  0  0
 49 53  1  0  0  0
 49 64  1  0  0  0
 49123  1  0  0  0
 50 51  1  0  0  0
 50124  1  0  0  0
 50125  1  0  0  0
 51 52  1  0  0  0
 51126  1  0  0  0
 51127  1  0  0  0
 52128  1  0  0  0
 52129  1  0  0  0
 53 54  1  0  0  0
 54 55  2  0  0  0
 54130  1  0  0  0
 55 57  1  0  0  0
 55131  1  0  0  0
 56 69  2  0  0  0
 57 58  2  0  0  0
 57132  1  0  0  0
 58133  1  0  0  0
 59 60  1  0  0  0
 59 61  1  0  0  0
 59 62  1  0  0  0
 60134  1  0  0  0
 60135  1  0  0  0
 60136  1  0  0  0
 61137  1  0  0  0
 61138  1  0  0  0
 61139  1  0  0  0
 62140  1  0  0  0
 62141  1  0  0  0
 62142  1  0  0  0
 63 65  1  0  0  0
 63143  1  0  0  0
 63144  1  0  0  0
 63145  1  0  0  0
 64146  1  0  0  0
 65147  1  0  0  0
 68 84  1  0  0  0
 71 72  2  0  0  0
 71 74  1  0  0  0
 71148  1  0  0  0
 72 75  1  0  0  0
 72149  1  0  0  0
 73 74  2  0  0  0
 73 76  1  0  0  0
 73150  1  0  0  0
 74 86  1  0  0  0
 75 76  2  0  0  0
 75 85  1  0  0  0
 76 87  1  0  0  0
 77 79  2  0  0  0
 77 81  1  0  0  0
 77 88  1  0  0  0
 78 80  2  0  0  0
 78151  1  0  0  0
 78152  1  0  0  0
 79 80  1  0  0  0
 79153  1  0  0  0
 80154  1  0  0  0
 81 84  1  0  0  0
 81155  1  0  0  0
 81156  1  0  0  0
 82 83  1  0  0  0
 82 84  1  0  0  0
 82157  1  0  0  0
 82158  1  0  0  0
 83 88  1  0  0  0
 83159  1  0  0  0
 83160  1  0  0  0
 84161  1  0  0  0
 85162  1  0  0  0
 85163  1  0  0  0
 85164  1  0  0  0
 86165  1  0  0  0
 86166  1  0  0  0
 86 88  1  0  0  0
 87167  1  0  0  0
 88168  1  0  0  0
M  CHG  1  88   1
M  ISO  4   1 100  68 101  84 101  87 100
M  END
> <chiral flag>
0

> <version>
0

> <s_m_source_file>
/data/baiqing/PycharmProjects/Reinvent-master-3.2/result/LINK_invent/BTK/process_docking_weight1_custom_product_contain_oxygen_bond_distance_aromatic_linkinvent_7_9_3/rearranged_h_0044.sdf

> <i_m_source_file_index>
31

> <r_mmod_Potential_Energy-OPLS-2005>
82.0019607543945

> <r_mmod_Stretch_Energy-OPLS-2005>
101.695114135742

> <r_mmod_Bend_Energy-OPLS-2005>
199.261245727539

> <r_mmod_Torsional_Energy-OPLS-2005>
290.099182128906

> <r_mmod_Improper_Torsional_Energy-OPLS-2005>
7.47814178466797

> <r_mmod_Van_der_Waal_Energy-OPLS-2005>
154.9580078125

> <r_mmod_Electrostatic_Energy-OPLS-2005>
-297.839447021484

> <r_mmod_Solvation_Energy-OPLS-2005>
-444.471954345703

> <b_mmod_Minimization_Converged-OPLS-2005>
0

> <r_mmod_RMS_Derivative-OPLS-2005>
6.75785636901855

$$$$
31
                    3D
 Structure written by MMmdl.
158167  0  0  1  0            999 V2000
  -30.5742  -14.7653   20.4570 C   0  0  0  0  0  0
  -30.4452  -12.4710   19.4553 C   0  0  0  0  0  0
  -29.5101  -12.4983   18.2257 C   0  0  0  0  0  0
  -28.0374  -12.3169   18.6475 C   0  0  0  0  0  0
  -27.6390  -13.2224   19.8432 C   0  0  2  0  0  0
  -28.6890  -13.1596   20.9725 C   0  0  0  0  0  0
  -25.2509  -13.8169   20.5688 C   0  0  0  0  0  0
  -24.1796  -13.0424   20.9210 C   0  0  0  0  0  0
  -24.6382  -11.6900   20.8756 C   0  0  0  0  0  0
  -23.9056  -10.4285   21.0421 C   0  0  0  0  0  0
  -24.3610   -9.4200   21.9198 C   0  0  0  0  0  0
  -23.6283   -8.2238   22.0762 C   0  0  0  0  0  0
  -22.4268   -8.0280   21.3547 C   0  0  0  0  0  0
  -21.9902   -9.0257   20.4656 C   0  0  0  0  0  0
  -22.7229  -10.2133   20.3069 C   0  0  0  0  0  0
  -21.6850   -6.0734   22.5279 C   0  0  0  0  0  0
  -21.4014   -6.5639   23.8214 C   0  0  0  0  0  0
  -21.3656   -5.6790   24.9174 C   0  0  0  0  0  0
  -21.6043   -4.3055   24.7223 C   0  0  0  0  0  0
  -21.8817   -3.8145   23.4345 C   0  0  0  0  0  0
  -21.9191   -4.6962   22.3400 C   0  0  0  0  0  0
  -22.7819  -13.5220   21.1870 C   0  0  0  0  0  0
  -22.1658   -4.2148   21.0977 F   0  0  0  0  0  0
  -21.5628   -3.4538   25.7736 F   0  0  0  0  0  0
  -29.9805  -13.5266   20.3783 N   0  0  0  0  0  0
  -26.2922  -12.9357   20.3253 N   0  0  0  0  0  0
  -25.9306  -11.6508   20.5741 N   0  0  0  0  0  0
  -22.0460  -12.8222   22.0432 N   0  0  0  0  0  0
  -25.4171  -15.1903   20.4100 N   0  0  0  0  0  0
  -31.7827  -14.8903   20.2376 O   0  0  0  0  0  0
  -21.6635   -6.8875   21.4241 O   0  0  0  0  0  0
  -22.3506  -14.5524   20.6711 O   0  0  0  0  0  0
  -24.6315  -31.8541   23.1961 C   0  0  0  0  0  0
  -25.9135  -32.4750   23.8318 C   0  0  1  0  0  0
  -27.2240  -27.2596   20.1397 C   0  0  0  0  0  0
  -25.5921  -33.8553   24.2238 N   0  0  0  0  0  0
  -23.4290  -30.4740   21.5399 C   0  0  2  0  0  0
  -24.8770  -28.9098   20.1197 C   0  0  0  0  0  0
  -22.7501  -29.4596   22.4920 C   0  0  0  0  0  0
  -18.0289  -28.1384   22.8485 C   0  0  0  0  0  0
  -24.1486  -36.7288   23.2643 C   0  0  0  0  0  0
  -25.9739  -30.7664   21.3750 C   0  0  0  0  0  0
  -26.0489  -29.3847   20.7248 C   0  0  0  0  0  0
  -27.2291  -28.5738   20.7180 C   0  0  0  0  0  0
  -26.0303  -26.8409   19.5208 C   0  0  0  0  0  0
  -24.8719  -27.6446   19.5083 C   0  0  0  0  0  0
  -23.6489  -29.7998   20.1595 C   0  0  0  0  0  0
  -25.4114  -36.3070   24.0325 C   0  0  1  0  0  0
  -20.5893  -28.3695   23.1269 C   0  0  2  0  0  0
  -20.6778  -26.9414   22.5407 C   0  0  0  0  0  0
  -19.5755  -26.6381   21.5210 C   0  0  0  0  0  0
  -18.1934  -26.7927   22.1620 C   0  0  0  0  0  0
  -19.1543  -28.8857   23.2870 C   0  0  0  0  0  0
  -18.9467  -30.1457   23.8892 C   0  0  0  0  0  0
  -17.6466  -30.6586   24.0562 C   0  0  0  0  0  0
  -25.9055  -34.9441   23.5086 C   0  0  0  0  0  0
  -16.5357  -29.9084   23.6329 C   0  0  0  0  0  0
  -16.7275  -28.6499   23.0354 C   0  0  0  0  0  0
  -26.4498  -31.6587   25.0718 C   0  0  0  0  0  0
  -25.3714  -31.3749   26.1439 C   0  0  0  0  0  0
  -27.0358  -30.3004   24.6225 C   0  0  0  0  0  0
  -27.6042  -32.4341   25.7493 C   0  0  0  0  0  0
  -27.5577  -37.1798   24.8463 C   0  0  0  0  0  0
  -21.4207  -29.3042   22.3661 N   0  0  0  0  0  0
  -26.4287  -37.3769   23.9409 N   0  0  0  0  0  0
  -24.6973  -31.0502   22.0934 N   0  0  0  0  0  0
  -23.4199  -28.8145   23.3030 O   0  0  0  0  0  0
  -28.3289  -26.3856   20.0938 O   0  0  0  0  0  0
  -26.5638  -34.8918   22.4662 O   0  0  0  0  0  0
  -23.5465  -32.1365   23.7253 O   0  0  0  0  0  0
  -29.4039  -19.8256   22.1968 C   0  0  0  0  0  0
  -29.6834  -18.6722   22.9589 C   0  0  0  0  0  0
  -29.5308  -18.4601   20.1977 C   0  0  0  0  0  0
  -29.3608  -19.7889   20.7870 C   0  0  0  0  0  0
  -29.7863  -17.2407   20.9633 C   0  0  0  0  0  0
  -29.8709  -17.4051   22.3689 C   0  0  0  0  0  0
  -28.4101  -23.6842   20.0181 C   0  0  0  0  0  0
  -29.7886  -23.8519   22.5413 C   0  0  0  0  0  0
  -29.3793  -25.1987   21.9283 C   0  0  0  0  0  0
  -30.2252  -22.8897   21.4244 C   0  0  0  0  0  0
  -28.2956  -25.0781   20.8369 C   0  0  1  0  0  0
  -29.0718  -21.1359   19.9520 C   0  0  0  0  0  0
  -29.1109  -22.5766   20.5187 N   0  0  0  0  0  0
  -29.7174  -15.8582   20.4209 N   0  0  0  0  0  0
  -27.7706  -23.5909   18.9661 O   0  0  0  0  0  0
  -30.0963  -16.0557   23.4298 Cl  0  0  0  0  0  0
  -31.4801  -12.6279   19.1464 H   0  0  0  0  0  0
  -30.4188  -11.4972   19.9460 H   0  0  0  0  0  0
  -29.7940  -11.7183   17.5180 H   0  0  0  0  0  0
  -29.6271  -13.4451   17.6966 H   0  0  0  0  0  0
  -27.9017  -11.2692   18.9199 H   0  0  0  0  0  0
  -27.3763  -12.4973   17.7990 H   0  0  0  0  0  0
  -27.6270  -14.2400   19.4538 H   0  0  0  0  0  0
  -28.7364  -12.1611   21.4087 H   0  0  0  0  0  0
  -28.4255  -13.8393   21.7847 H   0  0  0  0  0  0
  -25.2758   -9.5669   22.4763 H   0  0  0  0  0  0
  -23.9991   -7.4625   22.7479 H   0  0  0  0  0  0
  -21.0834   -8.8784   19.8958 H   0  0  0  0  0  0
  -22.3702  -10.9678   19.6175 H   0  0  0  0  0  0
  -21.2012   -7.6148   23.9715 H   0  0  0  0  0  0
  -21.1478   -6.0523   25.9076 H   0  0  0  0  0  0
  -22.0599   -2.7606   23.2847 H   0  0  0  0  0  0
  -22.4064  -11.9886   22.4831 H   0  0  0  0  0  0
  -21.1083  -13.1267   22.2640 H   0  0  0  0  0  0
  -24.6439  -15.8363   20.5267 H   0  0  0  0  0  0
  -26.2521  -15.6408   20.0607 H   0  0  0  0  0  0
  -26.7206  -32.5402   23.1067 H   0  0  0  0  0  0
  -25.0050  -33.9686   25.0372 H   0  0  0  0  0  0
  -22.7258  -31.2954   21.3888 H   0  0  0  0  0  0
  -23.3748  -35.9620   23.3302 H   0  0  0  0  0  0
  -24.3575  -36.8921   22.2058 H   0  0  0  0  0  0
  -23.7244  -37.6487   23.6675 H   0  0  0  0  0  0
  -26.1113  -31.5229   20.6010 H   0  0  0  0  0  0
  -26.8521  -30.8194   22.0073 H   0  0  0  0  0  0
  -28.1335  -28.9390   21.1841 H   0  0  0  0  0  0
  -25.9943  -25.8698   19.0464 H   0  0  0  0  0  0
  -23.9748  -27.2745   19.0309 H   0  0  0  0  0  0
  -23.7754  -30.5713   19.3990 H   0  0  0  0  0  0
  -22.7670  -29.2327   19.8553 H   0  0  0  0  0  0
  -25.1297  -36.1915   25.0817 H   0  0  0  0  0  0
  -20.9980  -28.3278   24.1391 H   0  0  0  0  0  0
  -20.5668  -26.2309   23.3614 H   0  0  0  0  0  0
  -21.6648  -26.7433   22.1207 H   0  0  0  0  0  0
  -19.6918  -25.6290   21.1245 H   0  0  0  0  0  0
  -19.6693  -27.3184   20.6737 H   0  0  0  0  0  0
  -17.4201  -26.6669   21.4026 H   0  0  0  0  0  0
  -18.0337  -26.0071   22.9017 H   0  0  0  0  0  0
  -19.7944  -30.7271   24.2264 H   0  0  0  0  0  0
  -17.5022  -31.6266   24.5163 H   0  0  0  0  0  0
  -15.5359  -30.2986   23.7658 H   0  0  0  0  0  0
  -15.8673  -28.0815   22.7080 H   0  0  0  0  0  0
  -24.5873  -30.7120   25.7763 H   0  0  0  0  0  0
  -24.8924  -32.2928   26.4862 H   0  0  0  0  0  0
  -25.8016  -30.8919   27.0222 H   0  0  0  0  0  0
  -26.2954  -29.6744   24.1235 H   0  0  0  0  0  0
  -27.4017  -29.7283   25.4761 H   0  0  0  0  0  0
  -27.8833  -30.4278   23.9489 H   0  0  0  0  0  0
  -27.2635  -33.3638   26.2063 H   0  0  0  0  0  0
  -28.3852  -32.6913   25.0326 H   0  0  0  0  0  0
  -28.0715  -31.8483   26.5419 H   0  0  0  0  0  0
  -28.2592  -38.0096   24.7506 H   0  0  0  0  0  0
  -28.1074  -36.2630   24.6286 H   0  0  0  0  0  0
  -27.2298  -37.1442   25.8866 H   0  0  0  0  0  0
  -20.9401  -29.8757   21.6853 H   0  0  0  0  0  0
  -26.0168  -38.2843   24.1407 H   0  0  0  0  0  0
  -29.2121  -20.7458   22.7282 H   0  0  0  0  0  0
  -29.7135  -18.7543   24.0359 H   0  0  0  0  0  0
  -29.4306  -18.3711   19.1257 H   0  0  0  0  0  0
  -28.9620  -23.4236   23.1109 H   0  0  0  0  0  0
  -30.6061  -24.0021   23.2477 H   0  0  0  0  0  0
  -30.2647  -25.6663   21.4959 H   0  0  0  0  0  0
  -29.0352  -25.8732   22.7130 H   0  0  0  0  0  0
  -30.6992  -22.0060   21.8411 H   0  0  0  0  0  0
  -31.0158  -23.3572   20.8339 H   0  0  0  0  0  0
  -27.3348  -25.0083   21.3492 H   0  0  0  0  0  0
  -28.0871  -20.9954   19.5047 H   0  0  0  0  0  0
  -29.7636  -21.1273   19.1091 H   0  0  0  0  0  0
  -28.7710  -15.5669   20.2396 H   0  0  0  0  0  0
  1 25  1  0  0  0
  1 30  2  0  0  0
  1 84  1  0  0  0
  2  3  1  0  0  0
  2 25  1  0  0  0
  2 87  1  0  0  0
  2 88  1  0  0  0
  3  4  1  0  0  0
  3 89  1  0  0  0
  3 90  1  0  0  0
  4  5  1  0  0  0
  4 91  1  0  0  0
  4 92  1  0  0  0
  5  6  1  0  0  0
  5 26  1  0  0  0
  5 93  1  0  0  0
  6 25  1  0  0  0
  6 94  1  0  0  0
  6 95  1  0  0  0
  7  8  2  0  0  0
  7 26  1  0  0  0
  7 29  1  0  0  0
  8  9  1  0  0  0
  8 22  1  0  0  0
  9 10  1  0  0  0
  9 27  2  0  0  0
 10 11  2  0  0  0
 10 15  1  0  0  0
 11 12  1  0  0  0
 11 96  1  0  0  0
 12 13  2  0  0  0
 12 97  1  0  0  0
 13 14  1  0  0  0
 13 31  1  0  0  0
 14 15  2  0  0  0
 14 98  1  0  0  0
 15 99  1  0  0  0
 16 17  2  0  0  0
 16 21  1  0  0  0
 16 31  1  0  0  0
 17 18  1  0  0  0
 17100  1  0  0  0
 18 19  2  0  0  0
 18101  1  0  0  0
 19 20  1  0  0  0
 19 24  1  0  0  0
 20 21  2  0  0  0
 20102  1  0  0  0
 21 23  1  0  0  0
 22 28  1  0  0  0
 22 32  2  0  0  0
 26 27  1  0  0  0
 28103  1  0  0  0
 28104  1  0  0  0
 29105  1  0  0  0
 29106  1  0  0  0
 33 34  1  0  0  0
 33 66  1  0  0  0
 33 70  2  0  0  0
 34 36  1  0  0  0
 34 59  1  0  0  0
 34107  1  0  0  0
 35 44  2  0  0  0
 35 45  1  0  0  0
 35 68  1  0  0  0
 36 56  1  0  0  0
 36108  1  0  0  0
 37 39  1  0  0  0
 37 47  1  0  0  0
 37 66  1  0  0  0
 37109  1  0  0  0
 38 43  2  0  0  0
 38 46  1  0  0  0
 38 47  1  0  0  0
 39 64  1  0  0  0
 39 67  2  0  0  0
 40 52  1  0  0  0
 40 53  2  0  0  0
 40 58  1  0  0  0
 41110  1  0  0  0
 41111  1  0  0  0
 41112  1  0  0  0
 41 48  1  0  0  0
 42 43  1  0  0  0
 42 66  1  0  0  0
 42113  1  0  0  0
 42114  1  0  0  0
 43 44  1  0  0  0
 44115  1  0  0  0
 45 46  2  0  0  0
 45116  1  0  0  0
 46117  1  0  0  0
 47118  1  0  0  0
 47119  1  0  0  0
 48 56  1  0  0  0
 48 65  1  0  0  0
 48120  1  0  0  0
 49 50  1  0  0  0
 49 53  1  0  0  0
 49 64  1  0  0  0
 49121  1  0  0  0
 50 51  1  0  0  0
 50122  1  0  0  0
 50123  1  0  0  0
 51 52  1  0  0  0
 51124  1  0  0  0
 51125  1  0  0  0
 52126  1  0  0  0
 52127  1  0  0  0
 53 54  1  0  0  0
 54 55  2  0  0  0
 54128  1  0  0  0
 55 57  1  0  0  0
 55129  1  0  0  0
 56 69  2  0  0  0
 57 58  2  0  0  0
 57130  1  0  0  0
 58131  1  0  0  0
 59 60  1  0  0  0
 59 61  1  0  0  0
 59 62  1  0  0  0
 60132  1  0  0  0
 60133  1  0  0  0
 60134  1  0  0  0
 61135  1  0  0  0
 61136  1  0  0  0
 61137  1  0  0  0
 62138  1  0  0  0
 62139  1  0  0  0
 62140  1  0  0  0
 63 65  1  0  0  0
 63141  1  0  0  0
 63142  1  0  0  0
 63143  1  0  0  0
 64144  1  0  0  0
 65145  1  0  0  0
 68 81  1  0  0  0
 71 72  2  0  0  0
 71 74  1  0  0  0
 71146  1  0  0  0
 72 76  1  0  0  0
 72147  1  0  0  0
 73 74  2  0  0  0
 73 75  1  0  0  0
 73148  1  0  0  0
 74 82  1  0  0  0
 75 76  2  0  0  0
 75 84  1  0  0  0
 76 86  1  0  0  0
 77 81  1  0  0  0
 77 83  1  0  0  0
 77 85  2  0  0  0
 78 79  1  0  0  0
 78 80  1  0  0  0
 78149  1  0  0  0
 78150  1  0  0  0
 79 81  1  0  0  0
 79151  1  0  0  0
 79152  1  0  0  0
 80 83  1  0  0  0
 80153  1  0  0  0
 80154  1  0  0  0
 81155  1  0  0  0
 82 83  1  0  0  0
 82156  1  0  0  0
 82157  1  0  0  0
 84158  1  0  0  0
M  ISO  4   1 100  68 101  81 101  84 100
M  END
> <chiral flag>
0

> <version>
0

> <s_m_source_file>
/data/baiqing/PycharmProjects/Reinvent-master-3.2/result/LINK_invent/BTK/process_docking_weight1_custom_product_contain_oxygen_bond_distance_aromatic_linkinvent_7_9_3/rearranged_h_0044.sdf

> <i_m_source_file_index>
32

> <r_mmod_Potential_Energy-OPLS-2005>
260.321441650391

> <r_mmod_Stretch_Energy-OPLS-2005>
137.142532348633

> <r_mmod_Bend_Energy-OPLS-2005>
171.955596923828

> <r_mmod_Torsional_Energy-OPLS-2005>
298.271209716797

> <r_mmod_Improper_Torsional_Energy-OPLS-2005>
13.8201665878296

> <r_mmod_Van_der_Waal_Energy-OPLS-2005>
138.95768737793

> <r_mmod_Electrostatic_Energy-OPLS-2005>
-361.263458251953

> <r_mmod_Solvation_Energy-OPLS-2005>
-229.940475463867

> <b_mmod_Minimization_Converged-OPLS-2005>
0

> <r_mmod_RMS_Derivative-OPLS-2005>
0.948631882667542

$$$$
32
                    3D
 Structure written by MMmdl.
168177  0  0  1  0            999 V2000
  -30.6582  -14.6795   20.5184 C   0  0  0  0  0  0
  -30.4422  -12.4226   19.4835 C   0  0  0  0  0  0
  -29.5173  -12.4942   18.2453 C   0  0  0  0  0  0
  -28.0351  -12.3510   18.6413 C   0  0  0  0  0  0
  -27.6530  -13.2210   19.8674 C   0  0  2  0  0  0
  -28.6939  -13.0780   20.9971 C   0  0  0  0  0  0
  -25.2546  -13.8165   20.5692 C   0  0  0  0  0  0
  -24.1808  -13.0423   20.9192 C   0  0  0  0  0  0
  -24.6381  -11.6900   20.8727 C   0  0  0  0  0  0
  -23.9039  -10.4283   21.0406 C   0  0  0  0  0  0
  -24.3599   -9.4198   21.9185 C   0  0  0  0  0  0
  -23.6288   -8.2218   22.0754 C   0  0  0  0  0  0
  -22.4267   -8.0254   21.3543 C   0  0  0  0  0  0
  -21.9897   -9.0217   20.4634 C   0  0  0  0  0  0
  -22.7207  -10.2111   20.3052 C   0  0  0  0  0  0
  -21.6843   -6.0706   22.5278 C   0  0  0  0  0  0
  -21.3997   -6.5625   23.8202 C   0  0  0  0  0  0
  -21.3680   -5.6791   24.9180 C   0  0  0  0  0  0
  -21.6064   -4.3051   24.7242 C   0  0  0  0  0  0
  -21.8821   -3.8129   23.4365 C   0  0  0  0  0  0
  -21.9189   -4.6936   22.3410 C   0  0  0  0  0  0
  -22.7832  -13.5216   21.1860 C   0  0  0  0  0  0
  -22.1659   -4.2114   21.0993 F   0  0  0  0  0  0
  -21.5656   -3.4545   25.7764 F   0  0  0  0  0  0
  -30.0099  -13.4582   20.4525 N   0  0  0  0  0  0
  -26.2984  -12.9352   20.3332 N   0  0  0  0  0  0
  -25.9321  -11.6504   20.5751 N   0  0  0  0  0  0
  -22.0486  -12.8183   22.0419 N   0  0  0  0  0  0
  -25.4247  -15.1869   20.4110 N   0  0  0  0  0  0
  -31.8156  -14.7859   20.0990 O   0  0  0  0  0  0
  -21.6642   -6.8844   21.4235 O   0  0  0  0  0  0
  -22.3505  -14.5526   20.6737 O   0  0  0  0  0  0
  -24.6295  -31.8599   23.2090 C   0  0  0  0  0  0
  -25.9143  -32.4778   23.8392 C   0  0  1  0  0  0
  -27.1935  -27.2682   20.1209 C   0  0  0  0  0  0
  -25.5953  -33.8585   24.2291 N   0  0  0  0  0  0
  -23.4244  -30.4901   21.5520 C   0  0  2  0  0  0
  -24.8672  -28.9567   20.1095 C   0  0  0  0  0  0
  -22.7502  -29.4626   22.4923 C   0  0  0  0  0  0
  -18.0284  -28.1397   22.8473 C   0  0  0  0  0  0
  -24.1495  -36.7294   23.2634 C   0  0  0  0  0  0
  -25.9733  -30.7686   21.4009 C   0  0  0  0  0  0
  -26.0377  -29.3939   20.7426 C   0  0  0  0  0  0
  -27.2005  -28.5551   20.7569 C   0  0  0  0  0  0
  -26.0371  -26.9720   19.3645 C   0  0  0  0  0  0
  -24.8708  -27.7482   19.4095 C   0  0  0  0  0  0
  -23.6394  -29.8407   20.1632 C   0  0  0  0  0  0
  -25.4121  -36.3082   24.0317 C   0  0  1  0  0  0
  -20.5890  -28.3706   23.1266 C   0  0  2  0  0  0
  -20.6781  -26.9425   22.5403 C   0  0  0  0  0  0
  -19.5756  -26.6387   21.5206 C   0  0  0  0  0  0
  -18.1928  -26.7934   22.1610 C   0  0  0  0  0  0
  -19.1538  -28.8871   23.2867 C   0  0  0  0  0  0
  -18.9460  -30.1474   23.8883 C   0  0  0  0  0  0
  -17.6459  -30.6594   24.0571 C   0  0  0  0  0  0
  -25.9062  -34.9450   23.5098 C   0  0  0  0  0  0
  -16.5351  -29.9089   23.6344 C   0  0  0  0  0  0
  -16.7277  -28.6518   23.0343 C   0  0  0  0  0  0
  -26.4503  -31.6604   25.0786 C   0  0  0  0  0  0
  -25.3716  -31.3751   26.1498 C   0  0  0  0  0  0
  -27.0375  -30.3020   24.6315 C   0  0  0  0  0  0
  -27.6065  -32.4344   25.7541 C   0  0  0  0  0  0
  -27.5575  -37.1792   24.8454 C   0  0  0  0  0  0
  -21.4209  -29.3052   22.3658 N   0  0  0  0  0  0
  -26.4293  -37.3776   23.9395 N   0  0  0  0  0  0
  -24.6938  -31.0570   22.1085 N   0  0  0  0  0  0
  -23.4205  -28.8129   23.2994 O   0  0  0  0  0  0
  -28.2587  -26.3345   20.1709 O   0  0  0  0  0  0
  -26.5629  -34.8909   22.4664 O   0  0  0  0  0  0
  -23.5452  -32.1444   23.7380 O   0  0  0  0  0  0
  -30.1948  -19.8798   18.8511 C   0  0  0  0  0  0
  -30.1726  -18.6680   18.1494 C   0  0  0  0  0  0
  -30.0363  -18.6304   20.9264 C   0  0  0  0  0  0
  -30.0391  -17.3466   20.2366 C   0  0  0  0  0  0
  -30.0845  -19.9119   20.2522 C   0  0  0  0  0  0
  -30.0579  -17.4244   18.8076 C   0  0  0  0  0  0
  -29.3054  -23.9634   20.7476 C   0  0  0  0  0  0
  -30.5066  -24.5637   20.9345 C   0  0  0  0  0  0
  -29.8889  -15.9943   20.9971 C   0  0  0  0  0  0
  -26.6979  -22.6876   20.1354 C   0  0  0  0  0  0
  -26.8993  -24.1492   19.7720 C   0  0  0  0  0  0
  -27.9755  -21.9109   19.9022 C   0  0  0  0  0  0
  -28.0141  -24.8840   20.5649 C   0  0  2  0  0  0
  -29.8874  -16.2180   17.8969 C   0  0  0  0  0  0
  -31.8737  -23.9941   21.2699 C   0  0  0  0  0  0
  -30.1683  -21.3448   20.9275 C   0  0  0  0  0  0
  -29.1638  -15.9934   22.0356 N   0  0  0  0  0  0
  -29.0411  -22.3864   20.8117 N   0  3  1  0  0  0
  -31.4822  -12.5448   19.1754 H   0  0  0  0  0  0
  -30.3898  -11.4343   19.9430 H   0  0  0  0  0  0
  -29.7851  -11.7099   17.5365 H   0  0  0  0  0  0
  -29.6663  -13.4354   17.7206 H   0  0  0  0  0  0
  -27.8612  -11.2997   18.8701 H   0  0  0  0  0  0
  -27.3916  -12.5895   17.7936 H   0  0  0  0  0  0
  -27.6676  -14.2583   19.5358 H   0  0  0  0  0  0
  -28.7225  -12.0494   21.3588 H   0  0  0  0  0  0
  -28.4057  -13.6590   21.8682 H   0  0  0  0  0  0
  -25.2752   -9.5693   22.4750 H   0  0  0  0  0  0
  -24.0011   -7.4617   22.7482 H   0  0  0  0  0  0
  -21.0829   -8.8716   19.8937 H   0  0  0  0  0  0
  -22.3651  -10.9643   19.6163 H   0  0  0  0  0  0
  -21.1960   -7.6132   23.9687 H   0  0  0  0  0  0
  -21.1519   -6.0535   25.9082 H   0  0  0  0  0  0
  -22.0582   -2.7586   23.2880 H   0  0  0  0  0  0
  -22.4111  -11.9855   22.4811 H   0  0  0  0  0  0
  -21.1088  -13.1164   22.2621 H   0  0  0  0  0  0
  -24.6653  -15.8473   20.5325 H   0  0  0  0  0  0
  -26.2933  -15.6248   20.1311 H   0  0  0  0  0  0
  -26.7196  -32.5416   23.1121 H   0  0  0  0  0  0
  -25.0084  -33.9724   25.0421 H   0  0  0  0  0  0
  -22.7228  -31.3148   21.4177 H   0  0  0  0  0  0
  -23.3751  -35.9630   23.3299 H   0  0  0  0  0  0
  -24.3579  -36.8924   22.2046 H   0  0  0  0  0  0
  -23.7242  -37.6487   23.6677 H   0  0  0  0  0  0
  -26.1241  -31.5310   20.6359 H   0  0  0  0  0  0
  -26.8480  -30.8075   22.0384 H   0  0  0  0  0  0
  -28.0887  -28.8747   21.2844 H   0  0  0  0  0  0
  -26.0020  -26.1400   18.6835 H   0  0  0  0  0  0
  -23.9973  -27.4400   18.8516 H   0  0  0  0  0  0
  -23.7609  -30.6267   19.4167 H   0  0  0  0  0  0
  -22.7573  -29.2756   19.8544 H   0  0  0  0  0  0
  -25.1291  -36.1941   25.0805 H   0  0  0  0  0  0
  -20.9980  -28.3296   24.1390 H   0  0  0  0  0  0
  -20.5708  -26.2310   23.3609 H   0  0  0  0  0  0
  -21.6645  -26.7465   22.1183 H   0  0  0  0  0  0
  -19.6934  -25.6300   21.1239 H   0  0  0  0  0  0
  -19.6705  -27.3204   20.6746 H   0  0  0  0  0  0
  -17.4201  -26.6692   21.4011 H   0  0  0  0  0  0
  -18.0328  -26.0096   22.9028 H   0  0  0  0  0  0
  -19.7951  -30.7288   24.2242 H   0  0  0  0  0  0
  -17.5024  -31.6272   24.5175 H   0  0  0  0  0  0
  -15.5352  -30.2974   23.7699 H   0  0  0  0  0  0
  -15.8679  -28.0840   22.7039 H   0  0  0  0  0  0
  -24.5907  -30.7092   25.7803 H   0  0  0  0  0  0
  -24.8888  -32.2923   26.4899 H   0  0  0  0  0  0
  -25.8016  -30.8936   27.0296 H   0  0  0  0  0  0
  -26.2997  -29.6739   24.1321 H   0  0  0  0  0  0
  -27.4013  -29.7315   25.4865 H   0  0  0  0  0  0
  -27.8893  -30.4270   23.9626 H   0  0  0  0  0  0
  -27.2700  -33.3664   26.2093 H   0  0  0  0  0  0
  -28.3887  -32.6865   25.0370 H   0  0  0  0  0  0
  -28.0741  -31.8497   26.5475 H   0  0  0  0  0  0
  -28.2573  -38.0108   24.7516 H   0  0  0  0  0  0
  -28.1087  -36.2630   24.6270 H   0  0  0  0  0  0
  -27.2293  -37.1421   25.8858 H   0  0  0  0  0  0
  -20.9403  -29.8791   21.6871 H   0  0  0  0  0  0
  -26.0178  -38.2844   24.1429 H   0  0  0  0  0  0
  -30.2932  -20.8023   18.2942 H   0  0  0  0  0  0
  -30.2228  -18.7070   17.0692 H   0  0  0  0  0  0
  -30.0102  -18.6291   22.0079 H   0  0  0  0  0  0
  -30.5282  -25.6406   20.8479 H   0  0  0  0  0  0
  -25.8999  -22.2647   19.5235 H   0  0  0  0  0  0
  -26.3728  -22.5895   21.1721 H   0  0  0  0  0  0
  -25.9270  -24.5799   19.9977 H   0  0  0  0  0  0
  -27.0825  -24.2321   18.6992 H   0  0  0  0  0  0
  -28.2935  -21.9901   18.8622 H   0  0  0  0  0  0
  -27.7421  -20.8619   20.0905 H   0  0  0  0  0  0
  -27.6293  -24.9650   21.5829 H   0  0  0  0  0  0
  -29.0489  -15.6075   18.2276 H   0  0  0  0  0  0
  -30.7912  -15.6112   17.8564 H   0  0  0  0  0  0
  -29.6660  -16.5220   16.8722 H   0  0  0  0  0  0
  -31.8342  -23.1269   21.9247 H   0  0  0  0  0  0
  -32.4453  -24.7461   21.8156 H   0  0  0  0  0  0
  -32.4341  -23.7582   20.3653 H   0  0  0  0  0  0
  -31.0502  -21.7584   20.4482 H   0  0  0  0  0  0
  -30.4138  -21.2246   21.9837 H   0  0  0  0  0  0
  -28.7561  -16.9068   22.1893 H   0  0  0  0  0  0
  -28.6031  -22.2475   21.7086 H   0  0  0  0  0  0
  1 25  1  0  0  0
  1 30  2  0  0  0
  1 79  1  0  0  0
  2  3  1  0  0  0
  2 25  1  0  0  0
  2 89  1  0  0  0
  2 90  1  0  0  0
  3  4  1  0  0  0
  3 91  1  0  0  0
  3 92  1  0  0  0
  4  5  1  0  0  0
  4 93  1  0  0  0
  4 94  1  0  0  0
  5  6  1  0  0  0
  5 26  1  0  0  0
  5 95  1  0  0  0
  6 25  1  0  0  0
  6 96  1  0  0  0
  6 97  1  0  0  0
  7  8  2  0  0  0
  7 26  1  0  0  0
  7 29  1  0  0  0
  8  9  1  0  0  0
  8 22  1  0  0  0
  9 10  1  0  0  0
  9 27  2  0  0  0
 10 11  2  0  0  0
 10 15  1  0  0  0
 11 12  1  0  0  0
 11 98  1  0  0  0
 12 13  2  0  0  0
 12 99  1  0  0  0
 13 14  1  0  0  0
 13 31  1  0  0  0
 14 15  2  0  0  0
 14100  1  0  0  0
 15101  1  0  0  0
 16 17  2  0  0  0
 16 21  1  0  0  0
 16 31  1  0  0  0
 17 18  1  0  0  0
 17102  1  0  0  0
 18 19  2  0  0  0
 18103  1  0  0  0
 19 20  1  0  0  0
 19 24  1  0  0  0
 20 21  2  0  0  0
 20104  1  0  0  0
 21 23  1  0  0  0
 22 28  1  0  0  0
 22 32  2  0  0  0
 26 27  1  0  0  0
 28105  1  0  0  0
 28106  1  0  0  0
 29107  1  0  0  0
 29108  1  0  0  0
 33 34  1  0  0  0
 33 66  1  0  0  0
 33 70  2  0  0  0
 34 36  1  0  0  0
 34 59  1  0  0  0
 34109  1  0  0  0
 35 44  2  0  0  0
 35 45  1  0  0  0
 35 68  1  0  0  0
 36 56  1  0  0  0
 36110  1  0  0  0
 37 39  1  0  0  0
 37 47  1  0  0  0
 37 66  1  0  0  0
 37111  1  0  0  0
 38 43  2  0  0  0
 38 46  1  0  0  0
 38 47  1  0  0  0
 39 64  1  0  0  0
 39 67  2  0  0  0
 40 52  1  0  0  0
 40 53  2  0  0  0
 40 58  1  0  0  0
 41112  1  0  0  0
 41113  1  0  0  0
 41114  1  0  0  0
 41 48  1  0  0  0
 42 43  1  0  0  0
 42 66  1  0  0  0
 42115  1  0  0  0
 42116  1  0  0  0
 43 44  1  0  0  0
 44117  1  0  0  0
 45 46  2  0  0  0
 45118  1  0  0  0
 46119  1  0  0  0
 47120  1  0  0  0
 47121  1  0  0  0
 48 56  1  0  0  0
 48 65  1  0  0  0
 48122  1  0  0  0
 49 50  1  0  0  0
 49 53  1  0  0  0
 49 64  1  0  0  0
 49123  1  0  0  0
 50 51  1  0  0  0
 50124  1  0  0  0
 50125  1  0  0  0
 51 52  1  0  0  0
 51126  1  0  0  0
 51127  1  0  0  0
 52128  1  0  0  0
 52129  1  0  0  0
 53 54  1  0  0  0
 54 55  2  0  0  0
 54130  1  0  0  0
 55 57  1  0  0  0
 55131  1  0  0  0
 56 69  2  0  0  0
 57 58  2  0  0  0
 57132  1  0  0  0
 58133  1  0  0  0
 59 60  1  0  0  0
 59 61  1  0  0  0
 59 62  1  0  0  0
 60134  1  0  0  0
 60135  1  0  0  0
 60136  1  0  0  0
 61137  1  0  0  0
 61138  1  0  0  0
 61139  1  0  0  0
 62140  1  0  0  0
 62141  1  0  0  0
 62142  1  0  0  0
 63 65  1  0  0  0
 63143  1  0  0  0
 63144  1  0  0  0
 63145  1  0  0  0
 64146  1  0  0  0
 65147  1  0  0  0
 68 83  1  0  0  0
 71 72  2  0  0  0
 71 75  1  0  0  0
 71148  1  0  0  0
 72 76  1  0  0  0
 72149  1  0  0  0
 73 74  1  0  0  0
 73 75  2  0  0  0
 73150  1  0  0  0
 74 76  2  0  0  0
 74 79  1  0  0  0
 75 86  1  0  0  0
 76 84  1  0  0  0
 77 78  2  0  0  0
 77 83  1  0  0  0
 77 88  1  0  0  0
 78 85  1  0  0  0
 78151  1  0  0  0
 79 87  2  0  0  0
 80 81  1  0  0  0
 80 82  1  0  0  0
 80152  1  0  0  0
 80153  1  0  0  0
 81 83  1  0  0  0
 81154  1  0  0  0
 81155  1  0  0  0
 82 88  1  0  0  0
 82156  1  0  0  0
 82157  1  0  0  0
 83158  1  0  0  0
 84159  1  0  0  0
 84160  1  0  0  0
 84161  1  0  0  0
 85162  1  0  0  0
 85163  1  0  0  0
 85164  1  0  0  0
 86165  1  0  0  0
 86166  1  0  0  0
 86 88  1  0  0  0
 87167  1  0  0  0
 88168  1  0  0  0
M  CHG  1  88   1
M  ISO  4   1 100  68 101  79 100  83 101
M  END
> <chiral flag>
0

> <version>
0

> <s_m_source_file>
/data/baiqing/PycharmProjects/Reinvent-master-3.2/result/LINK_invent/BTK/process_docking_weight1_custom_product_contain_oxygen_bond_distance_aromatic_linkinvent_7_9_3/rearranged_h_0044.sdf

> <i_m_source_file_index>
33

> <r_mmod_Potential_Energy-OPLS-2005>
302.581695556641

> <r_mmod_Stretch_Energy-OPLS-2005>
145.195220947266

> <r_mmod_Bend_Energy-OPLS-2005>
206.279418945312

> <r_mmod_Torsional_Energy-OPLS-2005>
240.303344726562

> <r_mmod_Improper_Torsional_Energy-OPLS-2005>
3.96059799194336

> <r_mmod_Van_der_Waal_Energy-OPLS-2005>
175.599990844727

> <r_mmod_Electrostatic_Energy-OPLS-2005>
-116.939903259277

> <r_mmod_Solvation_Energy-OPLS-2005>
-424.985687255859

> <b_mmod_Minimization_Converged-OPLS-2005>
0

> <r_mmod_RMS_Derivative-OPLS-2005>
2.50008320808411

$$$$
33
                    3D
 Structure written by MMmdl.
160168  0  0  1  0            999 V2000
  -30.7343  -14.4497   20.5654 C   0  0  0  0  0  0
  -30.4068  -12.2795   19.4457 C   0  0  0  0  0  0
  -29.4933  -12.4707   18.2190 C   0  0  0  0  0  0
  -28.0166  -12.3307   18.6365 C   0  0  0  0  0  0
  -27.6558  -13.2045   19.8676 C   0  0  2  0  0  0
  -28.6941  -13.0283   20.9983 C   0  0  0  0  0  0
  -25.2571  -13.8137   20.5718 C   0  0  0  0  0  0
  -24.1811  -13.0421   20.9188 C   0  0  0  0  0  0
  -24.6346  -11.6876   20.8718 C   0  0  0  0  0  0
  -23.9002  -10.4277   21.0393 C   0  0  0  0  0  0
  -24.3562   -9.4203   21.9190 C   0  0  0  0  0  0
  -23.6253   -8.2235   22.0753 C   0  0  0  0  0  0
  -22.4241   -8.0261   21.3533 C   0  0  0  0  0  0
  -21.9872   -9.0233   20.4638 C   0  0  0  0  0  0
  -22.7163  -10.2129   20.3043 C   0  0  0  0  0  0
  -21.6839   -6.0717   22.5280 C   0  0  0  0  0  0
  -21.4004   -6.5641   23.8201 C   0  0  0  0  0  0
  -21.3658   -5.6792   24.9175 C   0  0  0  0  0  0
  -21.6034   -4.3055   24.7219 C   0  0  0  0  0  0
  -21.8816   -3.8139   23.4350 C   0  0  0  0  0  0
  -21.9193   -4.6958   22.3399 C   0  0  0  0  0  0
  -22.7838  -13.5229   21.1870 C   0  0  0  0  0  0
  -22.1646   -4.2145   21.0982 F   0  0  0  0  0  0
  -21.5649   -3.4530   25.7744 F   0  0  0  0  0  0
  -30.0267  -13.2957   20.4398 N   0  0  0  0  0  0
  -26.2977  -12.9298   20.3318 N   0  0  0  0  0  0
  -25.9269  -11.6449   20.5726 N   0  0  0  0  0  0
  -22.0474  -12.8212   22.0427 N   0  0  0  0  0  0
  -25.4348  -15.1860   20.4187 N   0  0  0  0  0  0
  -31.8625  -14.5915   20.0907 O   0  0  0  0  0  0
  -21.6620   -6.8851   21.4232 O   0  0  0  0  0  0
  -22.3534  -14.5561   20.6758 O   0  0  0  0  0  0
  -24.6233  -31.8688   23.2115 C   0  0  0  0  0  0
  -25.9129  -32.4815   23.8426 C   0  0  1  0  0  0
  -27.2421  -27.4366   20.0832 C   0  0  0  0  0  0
  -25.5976  -33.8609   24.2385 N   0  0  0  0  0  0
  -23.4116  -30.4968   21.5503 C   0  0  2  0  0  0
  -24.8521  -28.9588   20.1173 C   0  0  0  0  0  0
  -22.7481  -29.4701   22.4966 C   0  0  0  0  0  0
  -18.0294  -28.1435   22.8415 C   0  0  0  0  0  0
  -24.1490  -36.7299   23.2630 C   0  0  0  0  0  0
  -25.9424  -30.8279   21.3725 C   0  0  0  0  0  0
  -26.0126  -29.4666   20.7114 C   0  0  0  0  0  0
  -27.2078  -28.7153   20.6826 C   0  0  0  0  0  0
  -26.0499  -26.9274   19.5128 C   0  0  0  0  0  0
  -24.8665  -27.6913   19.5125 C   0  0  0  0  0  0
  -23.6204  -29.8331   20.1648 C   0  0  0  0  0  0
  -25.4111  -36.3126   24.0358 C   0  0  1  0  0  0
  -20.5898  -28.3732   23.1233 C   0  0  2  0  0  0
  -20.6820  -26.9456   22.5347 C   0  0  0  0  0  0
  -19.5779  -26.6318   21.5187 C   0  0  0  0  0  0
  -18.1929  -26.7998   22.1525 C   0  0  0  0  0  0
  -19.1542  -28.8874   23.2855 C   0  0  0  0  0  0
  -18.9484  -30.1441   23.8936 C   0  0  0  0  0  0
  -17.6485  -30.6564   24.0652 C   0  0  0  0  0  0
  -25.9047  -34.9479   23.5166 C   0  0  0  0  0  0
  -16.5373  -29.9114   23.6341 C   0  0  0  0  0  0
  -16.7287  -28.6567   23.0295 C   0  0  0  0  0  0
  -26.4540  -31.6587   25.0762 C   0  0  0  0  0  0
  -25.3784  -31.3643   26.1488 C   0  0  0  0  0  0
  -27.0397  -30.3038   24.6171 C   0  0  0  0  0  0
  -27.6175  -32.4287   25.7454 C   0  0  0  0  0  0
  -27.5596  -37.1815   24.8474 C   0  0  0  0  0  0
  -21.4200  -29.3103   22.3663 N   0  0  0  0  0  0
  -26.4318  -37.3810   23.9404 N   0  0  0  0  0  0
  -24.6761  -31.0800   22.1017 N   0  0  0  0  0  0
  -23.4226  -28.8238   23.3037 O   0  0  0  0  0  0
  -28.4567  -26.7791   20.0612 O   0  0  0  0  0  0
  -26.5566  -34.8933   22.4701 O   0  0  0  0  0  0
  -23.5409  -32.1450   23.7482 O   0  0  0  0  0  0
  -28.8830  -18.4149   21.9855 C   0  0  0  0  0  0
  -30.9331  -19.3114   21.0332 C   0  0  0  0  0  0
  -30.1503  -18.1961   21.3970 C   0  0  0  0  0  0
  -28.4089  -19.7336   22.1966 C   0  0  0  0  0  0
  -29.1916  -20.8532   21.7938 C   0  0  0  0  0  0
  -30.4664  -20.6244   21.2179 C   0  0  0  0  0  0
  -28.5437  -24.4929   20.9502 C   0  0  0  0  0  0
  -27.0683  -19.9273   22.8902 C   0  0  0  0  0  0
  -28.1677  -22.4661   19.5572 C   0  0  0  0  0  0
  -30.7568  -16.8151   21.1454 C   0  0  0  0  0  0
  -28.7008  -22.2931   22.0223 C   0  0  0  0  0  0
  -28.5561  -25.3941   19.6925 C   0  0  0  0  0  0
  -30.1021  -15.5033   21.1142 N   0  0  0  0  0  0
  -28.4818  -23.1400   20.8262 N   0  0  0  0  0  0
  -28.6441  -25.0344   22.0581 O   0  0  0  0  0  0
  -31.5038  -21.9306   20.7556 Cl  0  0  0  0  0  0
  -31.4586  -12.3336   19.1539 H   0  0  0  0  0  0
  -30.2677  -11.2843   19.8713 H   0  0  0  0  0  0
  -29.7303  -11.7299   17.4535 H   0  0  0  0  0  0
  -29.6676  -13.4482   17.7681 H   0  0  0  0  0  0
  -27.8446  -11.2794   18.8739 H   0  0  0  0  0  0
  -27.3537  -12.5571   17.8013 H   0  0  0  0  0  0
  -27.6897  -14.2416   19.5308 H   0  0  0  0  0  0
  -28.6662  -12.0082   21.3845 H   0  0  0  0  0  0
  -28.4612  -13.6672   21.8522 H   0  0  0  0  0  0
  -25.2718   -9.5714   22.4754 H   0  0  0  0  0  0
  -23.9978   -7.4624   22.7460 H   0  0  0  0  0  0
  -21.0807   -8.8703   19.8938 H   0  0  0  0  0  0
  -22.3582  -10.9652   19.6147 H   0  0  0  0  0  0
  -21.1974   -7.6141   23.9709 H   0  0  0  0  0  0
  -21.1493   -6.0524   25.9078 H   0  0  0  0  0  0
  -22.0604   -2.7607   23.2844 H   0  0  0  0  0  0
  -22.4077  -11.9860   22.4786 H   0  0  0  0  0  0
  -21.1104  -13.1238   22.2674 H   0  0  0  0  0  0
  -24.6844  -15.8489   20.5839 H   0  0  0  0  0  0
  -26.2878  -15.6200   20.0890 H   0  0  0  0  0  0
  -26.7212  -32.5517   23.1191 H   0  0  0  0  0  0
  -25.0249  -33.9738   25.0619 H   0  0  0  0  0  0
  -22.7063  -31.3179   21.4117 H   0  0  0  0  0  0
  -23.3776  -35.9606   23.3314 H   0  0  0  0  0  0
  -24.3601  -36.8869   22.2039 H   0  0  0  0  0  0
  -23.7201  -37.6510   23.6601 H   0  0  0  0  0  0
  -26.0804  -31.5973   20.6123 H   0  0  0  0  0  0
  -26.8228  -30.8613   22.0034 H   0  0  0  0  0  0
  -28.1142  -29.1131   21.1162 H   0  0  0  0  0  0
  -25.9964  -25.9567   19.0456 H   0  0  0  0  0  0
  -23.9753  -27.2990   19.0428 H   0  0  0  0  0  0
  -23.7413  -30.6115   19.4092 H   0  0  0  0  0  0
  -22.7416  -29.2631   19.8612 H   0  0  0  0  0  0
  -25.1276  -36.2034   25.0858 H   0  0  0  0  0  0
  -21.0020  -28.3318   24.1349 H   0  0  0  0  0  0
  -20.5850  -26.2331   23.3552 H   0  0  0  0  0  0
  -21.6685  -26.7616   22.1059 H   0  0  0  0  0  0
  -19.6941  -25.6176   21.1358 H   0  0  0  0  0  0
  -19.6760  -27.3004   20.6629 H   0  0  0  0  0  0
  -17.4249  -26.6882   21.3853 H   0  0  0  0  0  0
  -18.0196  -26.0117   22.8867 H   0  0  0  0  0  0
  -19.7955  -30.7202   24.2392 H   0  0  0  0  0  0
  -17.5034  -31.6192   24.5360 H   0  0  0  0  0  0
  -15.5374  -30.3011   23.7685 H   0  0  0  0  0  0
  -15.8676  -28.0952   22.6933 H   0  0  0  0  0  0
  -24.5968  -30.7020   25.7750 H   0  0  0  0  0  0
  -24.8948  -32.2752   26.5041 H   0  0  0  0  0  0
  -25.8107  -30.8701   27.0200 H   0  0  0  0  0  0
  -26.2938  -29.6725   24.1328 H   0  0  0  0  0  0
  -27.4281  -29.7371   25.4651 H   0  0  0  0  0  0
  -27.8740  -30.4371   23.9265 H   0  0  0  0  0  0
  -27.2912  -33.3581   26.2130 H   0  0  0  0  0  0
  -28.3890  -32.6860   25.0180 H   0  0  0  0  0  0
  -28.0988  -31.8359   26.5248 H   0  0  0  0  0  0
  -28.2660  -38.0078   24.7548 H   0  0  0  0  0  0
  -28.1063  -36.2633   24.6299 H   0  0  0  0  0  0
  -27.2312  -37.1449   25.8877 H   0  0  0  0  0  0
  -20.9385  -29.8877   21.6908 H   0  0  0  0  0  0
  -26.0236  -38.2908   24.1399 H   0  0  0  0  0  0
  -28.2896  -17.5670   22.3015 H   0  0  0  0  0  0
  -31.9151  -19.1592   20.6077 H   0  0  0  0  0  0
  -26.5984  -18.9771   23.1477 H   0  0  0  0  0  0
  -26.3792  -20.4871   22.2544 H   0  0  0  0  0  0
  -27.2072  -20.4800   23.8207 H   0  0  0  0  0  0
  -29.0563  -22.4061   18.9281 H   0  0  0  0  0  0
  -27.3812  -22.9757   19.0026 H   0  0  0  0  0  0
  -27.7972  -21.4515   19.7074 H   0  0  0  0  0  0
  -30.0812  -16.9188   20.2933 H   0  0  0  0  0  0
  -30.6183  -16.6811   22.2186 H   0  0  0  0  0  0
  -29.4664  -22.7452   22.6557 H   0  0  0  0  0  0
  -27.7988  -22.3337   22.6303 H   0  0  0  0  0  0
  -27.8396  -25.0940   18.9352 H   0  0  0  0  0  0
  -29.5300  -25.2733   19.2170 H   0  0  0  0  0  0
  -29.1546  -15.4073   21.4468 H   0  0  0  0  0  0
  1 25  1  0  0  0
  1 30  2  0  0  0
  1 83  1  0  0  0
  2  3  1  0  0  0
  2 25  1  0  0  0
  2 87  1  0  0  0
  2 88  1  0  0  0
  3  4  1  0  0  0
  3 89  1  0  0  0
  3 90  1  0  0  0
  4  5  1  0  0  0
  4 91  1  0  0  0
  4 92  1  0  0  0
  5  6  1  0  0  0
  5 26  1  0  0  0
  5 93  1  0  0  0
  6 25  1  0  0  0
  6 94  1  0  0  0
  6 95  1  0  0  0
  7  8  2  0  0  0
  7 26  1  0  0  0
  7 29  1  0  0  0
  8  9  1  0  0  0
  8 22  1  0  0  0
  9 10  1  0  0  0
  9 27  2  0  0  0
 10 11  2  0  0  0
 10 15  1  0  0  0
 11 12  1  0  0  0
 11 96  1  0  0  0
 12 13  2  0  0  0
 12 97  1  0  0  0
 13 14  1  0  0  0
 13 31  1  0  0  0
 14 15  2  0  0  0
 14 98  1  0  0  0
 15 99  1  0  0  0
 16 17  2  0  0  0
 16 21  1  0  0  0
 16 31  1  0  0  0
 17 18  1  0  0  0
 17100  1  0  0  0
 18 19  2  0  0  0
 18101  1  0  0  0
 19 20  1  0  0  0
 19 24  1  0  0  0
 20 21  2  0  0  0
 20102  1  0  0  0
 21 23  1  0  0  0
 22 28  1  0  0  0
 22 32  2  0  0  0
 26 27  1  0  0  0
 28103  1  0  0  0
 28104  1  0  0  0
 29105  1  0  0  0
 29106  1  0  0  0
 33 34  1  0  0  0
 33 66  1  0  0  0
 33 70  2  0  0  0
 34 36  1  0  0  0
 34 59  1  0  0  0
 34107  1  0  0  0
 35 44  2  0  0  0
 35 45  1  0  0  0
 35 68  1  0  0  0
 36 56  1  0  0  0
 36108  1  0  0  0
 37 39  1  0  0  0
 37 47  1  0  0  0
 37 66  1  0  0  0
 37109  1  0  0  0
 38 43  2  0  0  0
 38 46  1  0  0  0
 38 47  1  0  0  0
 39 64  1  0  0  0
 39 67  2  0  0  0
 40 52  1  0  0  0
 40 53  2  0  0  0
 40 58  1  0  0  0
 41110  1  0  0  0
 41111  1  0  0  0
 41112  1  0  0  0
 41 48  1  0  0  0
 42 43  1  0  0  0
 42 66  1  0  0  0
 42113  1  0  0  0
 42114  1  0  0  0
 43 44  1  0  0  0
 44115  1  0  0  0
 45 46  2  0  0  0
 45116  1  0  0  0
 46117  1  0  0  0
 47118  1  0  0  0
 47119  1  0  0  0
 48 56  1  0  0  0
 48 65  1  0  0  0
 48120  1  0  0  0
 49 50  1  0  0  0
 49 53  1  0  0  0
 49 64  1  0  0  0
 49121  1  0  0  0
 50 51  1  0  0  0
 50122  1  0  0  0
 50123  1  0  0  0
 51 52  1  0  0  0
 51124  1  0  0  0
 51125  1  0  0  0
 52126  1  0  0  0
 52127  1  0  0  0
 53 54  1  0  0  0
 54 55  2  0  0  0
 54128  1  0  0  0
 55 57  1  0  0  0
 55129  1  0  0  0
 56 69  2  0  0  0
 57 58  2  0  0  0
 57130  1  0  0  0
 58131  1  0  0  0
 59 60  1  0  0  0
 59 61  1  0  0  0
 59 62  1  0  0  0
 60132  1  0  0  0
 60133  1  0  0  0
 60134  1  0  0  0
 61135  1  0  0  0
 61136  1  0  0  0
 61137  1  0  0  0
 62138  1  0  0  0
 62139  1  0  0  0
 62140  1  0  0  0
 63 65  1  0  0  0
 63141  1  0  0  0
 63142  1  0  0  0
 63143  1  0  0  0
 64144  1  0  0  0
 65145  1  0  0  0
 68 82  1  0  0  0
 71 73  2  0  0  0
 71 74  1  0  0  0
 71146  1  0  0  0
 72 73  1  0  0  0
 72 76  2  0  0  0
 72147  1  0  0  0
 73 80  1  0  0  0
 74 75  2  0  0  0
 74 78  1  0  0  0
 75 76  1  0  0  0
 75 81  1  0  0  0
 76 86  1  0  0  0
 77 82  1  0  0  0
 77 84  1  0  0  0
 77 85  2  0  0  0
 78148  1  0  0  0
 78149  1  0  0  0
 78150  1  0  0  0
 79 84  1  0  0  0
 79151  1  0  0  0
 79152  1  0  0  0
 79153  1  0  0  0
 80 83  1  0  0  0
 80154  1  0  0  0
 80155  1  0  0  0
 81 84  1  0  0  0
 81156  1  0  0  0
 81157  1  0  0  0
 82158  1  0  0  0
 82159  1  0  0  0
 83160  1  0  0  0
M  ISO  4   1 100  68 101  82 101  83 100
M  END
> <chiral flag>
0

> <version>
0

> <s_m_source_file>
/data/baiqing/PycharmProjects/Reinvent-master-3.2/result/LINK_invent/BTK/process_docking_weight1_custom_product_contain_oxygen_bond_distance_aromatic_linkinvent_7_9_3/rearranged_h_0044.sdf

> <i_m_source_file_index>
34

> <r_mmod_Potential_Energy-OPLS-2005>
142.107116699219

> <r_mmod_Stretch_Energy-OPLS-2005>
40.3885765075684

> <r_mmod_Bend_Energy-OPLS-2005>
319.559600830078

> <r_mmod_Torsional_Energy-OPLS-2005>
202.243194580078

> <r_mmod_Improper_Torsional_Energy-OPLS-2005>
3.20695400238037

> <r_mmod_Van_der_Waal_Energy-OPLS-2005>
172.604614257812

> <r_mmod_Electrostatic_Energy-OPLS-2005>
-377.961700439453

> <r_mmod_Solvation_Energy-OPLS-2005>
-232.919403076172

> <b_mmod_Minimization_Converged-OPLS-2005>
0

> <r_mmod_RMS_Derivative-OPLS-2005>
4.24902200698853

$$$$
34
                    3D
 Structure written by MMmdl.
154162  0  0  1  0            999 V2000
  -30.6037  -14.6577   20.5004 C   0  0  0  0  0  0
  -30.4467  -12.4017   19.4542 C   0  0  0  0  0  0
  -29.5130  -12.5054   18.2270 C   0  0  0  0  0  0
  -28.0346  -12.3412   18.6383 C   0  0  0  0  0  0
  -27.6560  -13.2119   19.8658 C   0  0  2  0  0  0
  -28.7019  -13.0659   20.9954 C   0  0  0  0  0  0
  -25.2601  -13.8162   20.5695 C   0  0  0  0  0  0
  -24.1858  -13.0437   20.9216 C   0  0  0  0  0  0
  -24.6408  -11.6907   20.8748 C   0  0  0  0  0  0
  -23.9067  -10.4288   21.0409 C   0  0  0  0  0  0
  -24.3613   -9.4199   21.9190 C   0  0  0  0  0  0
  -23.6289   -8.2232   22.0757 C   0  0  0  0  0  0
  -22.4276   -8.0275   21.3539 C   0  0  0  0  0  0
  -21.9900   -9.0248   20.4646 C   0  0  0  0  0  0
  -22.7235  -10.2129   20.3059 C   0  0  0  0  0  0
  -21.6846   -6.0730   22.5275 C   0  0  0  0  0  0
  -21.4008   -6.5632   23.8208 C   0  0  0  0  0  0
  -21.3666   -5.6786   24.9171 C   0  0  0  0  0  0
  -21.6044   -4.3049   24.7218 C   0  0  0  0  0  0
  -21.8825   -3.8143   23.4339 C   0  0  0  0  0  0
  -21.9187   -4.6959   22.3395 C   0  0  0  0  0  0
  -22.7878  -13.5235   21.1865 C   0  0  0  0  0  0
  -22.1658   -4.2150   21.0973 F   0  0  0  0  0  0
  -21.5632   -3.4529   25.7727 F   0  0  0  0  0  0
  -30.0165  -13.4195   20.4333 N   0  0  0  0  0  0
  -26.3013  -12.9331   20.3327 N   0  0  0  0  0  0
  -25.9333  -11.6494   20.5755 N   0  0  0  0  0  0
  -22.0514  -12.8235   22.0424 N   0  0  0  0  0  0
  -25.4312  -15.1876   20.4071 N   0  0  0  0  0  0
  -31.7665  -14.8396   20.1272 O   0  0  0  0  0  0
  -21.6636   -6.8874   21.4237 O   0  0  0  0  0  0
  -22.3568  -14.5525   20.6684 O   0  0  0  0  0  0
  -24.6261  -31.8582   23.2057 C   0  0  0  0  0  0
  -25.9132  -32.4764   23.8360 C   0  0  1  0  0  0
  -27.2282  -27.3261   20.0948 C   0  0  0  0  0  0
  -25.5968  -33.8571   24.2305 N   0  0  0  0  0  0
  -23.4180  -30.4863   21.5464 C   0  0  2  0  0  0
  -24.8618  -28.9427   20.1115 C   0  0  0  0  0  0
  -22.7465  -29.4634   22.4938 C   0  0  0  0  0  0
  -18.0287  -28.1383   22.8487 C   0  0  0  0  0  0
  -24.1493  -36.7276   23.2638 C   0  0  0  0  0  0
  -25.9581  -30.7907   21.3757 C   0  0  0  0  0  0
  -26.0298  -29.4196   20.7152 C   0  0  0  0  0  0
  -27.2100  -28.6206   20.7028 C   0  0  0  0  0  0
  -26.0251  -26.8959   19.4836 C   0  0  0  0  0  0
  -24.8598  -27.6850   19.4922 C   0  0  0  0  0  0
  -23.6312  -29.8231   20.1608 C   0  0  0  0  0  0
  -25.4114  -36.3084   24.0343 C   0  0  1  0  0  0
  -20.5888  -28.3686   23.1291 C   0  0  2  0  0  0
  -20.6782  -26.9409   22.5415 C   0  0  0  0  0  0
  -19.5765  -26.6382   21.5214 C   0  0  0  0  0  0
  -18.1938  -26.7929   22.1614 C   0  0  0  0  0  0
  -19.1538  -28.8847   23.2892 C   0  0  0  0  0  0
  -18.9459  -30.1448   23.8910 C   0  0  0  0  0  0
  -17.6460  -30.6582   24.0558 C   0  0  0  0  0  0
  -25.9051  -34.9446   23.5117 C   0  0  0  0  0  0
  -16.5352  -29.9081   23.6323 C   0  0  0  0  0  0
  -16.7275  -28.6501   23.0346 C   0  0  0  0  0  0
  -26.4525  -31.6566   25.0710 C   0  0  0  0  0  0
  -25.3785  -31.3666   26.1449 C   0  0  0  0  0  0
  -27.0356  -30.2990   24.6147 C   0  0  0  0  0  0
  -27.6101  -32.4282   25.7461 C   0  0  0  0  0  0
  -27.5587  -37.1790   24.8465 C   0  0  0  0  0  0
  -21.4181  -29.3046   22.3680 N   0  0  0  0  0  0
  -26.4289  -37.3783   23.9427 N   0  0  0  0  0  0
  -24.6861  -31.0616   22.0997 N   0  0  0  0  0  0
  -23.4185  -28.8162   23.3016 O   0  0  0  0  0  0
  -28.3842  -26.5291   20.1393 O   0  0  0  0  0  0
  -26.5592  -34.8918   22.4660 O   0  0  0  0  0  0
  -23.5439  -32.1361   23.7420 O   0  0  0  0  0  0
  -30.8444  -19.3859   20.5296 C   0  0  0  0  0  0
  -30.9284  -17.9557   20.5234 C   0  0  0  0  0  0
  -28.5497  -17.8499   20.8508 C   0  0  0  0  0  0
  -29.6202  -20.0882   20.7240 C   0  0  0  0  0  0
  -29.7771  -17.1433   20.7149 C   0  0  0  0  0  0
  -28.4635  -19.2741   20.8529 C   0  0  0  0  0  0
  -28.8638  -24.0060   20.5178 C   0  0  0  0  0  0
  -28.9952  -22.2813   18.6927 C   0  0  0  0  0  0
  -29.6070  -21.6379   21.0311 C   0  0  0  0  0  0
  -28.4745  -25.1777   19.5289 C   0  0  0  0  0  0
  -29.7498  -15.6799   20.8348 N   0  0  0  0  0  0
  -29.0945  -22.7041   20.0917 N   0  0  0  0  0  0
  -28.9795  -24.3007   21.7124 O   0  0  0  0  0  0
  -26.9162  -20.0044   21.0921 Cl  0  0  0  0  0  0
  -31.4848  -12.5433   19.1491 H   0  0  0  0  0  0
  -30.3975  -11.4053   19.8969 H   0  0  0  0  0  0
  -29.7805  -11.7500   17.4865 H   0  0  0  0  0  0
  -29.6555  -13.4734   17.7441 H   0  0  0  0  0  0
  -27.8757  -11.2887   18.8729 H   0  0  0  0  0  0
  -27.3785  -12.5657   17.7968 H   0  0  0  0  0  0
  -27.6720  -14.2461   19.5234 H   0  0  0  0  0  0
  -28.7193  -12.0432   21.3768 H   0  0  0  0  0  0
  -28.4453  -13.6954   21.8503 H   0  0  0  0  0  0
  -25.2757   -9.5660   22.4770 H   0  0  0  0  0  0
  -23.9986   -7.4618   22.7472 H   0  0  0  0  0  0
  -21.0827   -8.8762   19.8957 H   0  0  0  0  0  0
  -22.3689  -10.9667   19.6160 H   0  0  0  0  0  0
  -21.2007   -7.6142   23.9712 H   0  0  0  0  0  0
  -21.1488   -6.0518   25.9079 H   0  0  0  0  0  0
  -22.0604   -2.7607   23.2830 H   0  0  0  0  0  0
  -22.4095  -11.9867   22.4794 H   0  0  0  0  0  0
  -21.1139  -13.1273   22.2631 H   0  0  0  0  0  0
  -24.6559  -15.8339   20.5112 H   0  0  0  0  0  0
  -26.2417  -15.6094   19.9738 H   0  0  0  0  0  0
  -26.7185  -32.5415   23.1095 H   0  0  0  0  0  0
  -25.0194  -33.9713   25.0506 H   0  0  0  0  0  0
  -22.7130  -31.3079   21.4070 H   0  0  0  0  0  0
  -23.3777  -35.9585   23.3275 H   0  0  0  0  0  0
  -24.3600  -36.8897   22.2056 H   0  0  0  0  0  0
  -23.7206  -37.6461   23.6654 H   0  0  0  0  0  0
  -26.0922  -31.5576   20.6109 H   0  0  0  0  0  0
  -26.8391  -30.8336   22.0053 H   0  0  0  0  0  0
  -28.1070  -28.9893   21.1818 H   0  0  0  0  0  0
  -25.9235  -25.9417   18.9961 H   0  0  0  0  0  0
  -23.9591  -27.3146   19.0218 H   0  0  0  0  0  0
  -23.7534  -30.5993   19.4045 H   0  0  0  0  0  0
  -22.7493  -29.2555   19.8572 H   0  0  0  0  0  0
  -25.1292  -36.1932   25.0836 H   0  0  0  0  0  0
  -20.9987  -28.3265   24.1415 H   0  0  0  0  0  0
  -20.5675  -26.2301   23.3620 H   0  0  0  0  0  0
  -21.6651  -26.7437   22.1214 H   0  0  0  0  0  0
  -19.6913  -25.6295   21.1240 H   0  0  0  0  0  0
  -19.6702  -27.3202   20.6755 H   0  0  0  0  0  0
  -17.4215  -26.6698   21.4003 H   0  0  0  0  0  0
  -18.0318  -26.0061   22.8995 H   0  0  0  0  0  0
  -19.7932  -30.7257   24.2290 H   0  0  0  0  0  0
  -17.5012  -31.6263   24.5155 H   0  0  0  0  0  0
  -15.5352  -30.2979   23.7644 H   0  0  0  0  0  0
  -15.8681  -28.0816   22.7054 H   0  0  0  0  0  0
  -24.6013  -30.6945   25.7786 H   0  0  0  0  0  0
  -24.8919  -32.2801   26.4865 H   0  0  0  0  0  0
  -25.8153  -30.8864   27.0213 H   0  0  0  0  0  0
  -26.2900  -29.6727   24.1223 H   0  0  0  0  0  0
  -27.4113  -29.7258   25.4632 H   0  0  0  0  0  0
  -27.8762  -30.4274   23.9325 H   0  0  0  0  0  0
  -27.2749  -33.3597   26.2034 H   0  0  0  0  0  0
  -28.3914  -32.6794   25.0278 H   0  0  0  0  0  0
  -28.0773  -31.8388   26.5363 H   0  0  0  0  0  0
  -28.2587  -38.0110   24.7568 H   0  0  0  0  0  0
  -28.1102  -36.2639   24.6228 H   0  0  0  0  0  0
  -27.2312  -37.1371   25.8870 H   0  0  0  0  0  0
  -20.9352  -29.8761   21.6886 H   0  0  0  0  0  0
  -26.0164  -38.2846   24.1463 H   0  0  0  0  0  0
  -31.7585  -19.9579   20.4442 H   0  0  0  0  0  0
  -31.8986  -17.4935   20.4145 H   0  0  0  0  0  0
  -27.6336  -17.2951   20.9940 H   0  0  0  0  0  0
  -28.6573  -23.0623   18.0145 H   0  0  0  0  0  0
  -28.2875  -21.4572   18.6005 H   0  0  0  0  0  0
  -29.9661  -21.9359   18.3342 H   0  0  0  0  0  0
  -30.6308  -21.9206   21.2783 H   0  0  0  0  0  0
  -29.0551  -21.7422   21.9664 H   0  0  0  0  0  0
  -27.5983  -24.8682   18.9728 H   0  0  0  0  0  0
  -29.2721  -25.2404   18.7876 H   0  0  0  0  0  0
  -28.8545  -15.3139   21.1177 H   0  0  0  0  0  0
  1 25  1  0  0  0
  1 30  2  0  0  0
  1 81  1  0  0  0
  2  3  1  0  0  0
  2 25  1  0  0  0
  2 85  1  0  0  0
  2 86  1  0  0  0
  3  4  1  0  0  0
  3 87  1  0  0  0
  3 88  1  0  0  0
  4  5  1  0  0  0
  4 89  1  0  0  0
  4 90  1  0  0  0
  5  6  1  0  0  0
  5 26  1  0  0  0
  5 91  1  0  0  0
  6 25  1  0  0  0
  6 92  1  0  0  0
  6 93  1  0  0  0
  7  8  2  0  0  0
  7 26  1  0  0  0
  7 29  1  0  0  0
  8  9  1  0  0  0
  8 22  1  0  0  0
  9 10  1  0  0  0
  9 27  2  0  0  0
 10 11  2  0  0  0
 10 15  1  0  0  0
 11 12  1  0  0  0
 11 94  1  0  0  0
 12 13  2  0  0  0
 12 95  1  0  0  0
 13 14  1  0  0  0
 13 31  1  0  0  0
 14 15  2  0  0  0
 14 96  1  0  0  0
 15 97  1  0  0  0
 16 17  2  0  0  0
 16 21  1  0  0  0
 16 31  1  0  0  0
 17 18  1  0  0  0
 17 98  1  0  0  0
 18 19  2  0  0  0
 18 99  1  0  0  0
 19 20  1  0  0  0
 19 24  1  0  0  0
 20 21  2  0  0  0
 20100  1  0  0  0
 21 23  1  0  0  0
 22 28  1  0  0  0
 22 32  2  0  0  0
 26 27  1  0  0  0
 28101  1  0  0  0
 28102  1  0  0  0
 29103  1  0  0  0
 29104  1  0  0  0
 33 34  1  0  0  0
 33 66  1  0  0  0
 33 70  2  0  0  0
 34 36  1  0  0  0
 34 59  1  0  0  0
 34105  1  0  0  0
 35 44  2  0  0  0
 35 45  1  0  0  0
 35 68  1  0  0  0
 36 56  1  0  0  0
 36106  1  0  0  0
 37 39  1  0  0  0
 37 47  1  0  0  0
 37 66  1  0  0  0
 37107  1  0  0  0
 38 43  2  0  0  0
 38 46  1  0  0  0
 38 47  1  0  0  0
 39 64  1  0  0  0
 39 67  2  0  0  0
 40 52  1  0  0  0
 40 53  2  0  0  0
 40 58  1  0  0  0
 41108  1  0  0  0
 41109  1  0  0  0
 41110  1  0  0  0
 41 48  1  0  0  0
 42 43  1  0  0  0
 42 66  1  0  0  0
 42111  1  0  0  0
 42112  1  0  0  0
 43 44  1  0  0  0
 44113  1  0  0  0
 45 46  2  0  0  0
 45114  1  0  0  0
 46115  1  0  0  0
 47116  1  0  0  0
 47117  1  0  0  0
 48 56  1  0  0  0
 48 65  1  0  0  0
 48118  1  0  0  0
 49 50  1  0  0  0
 49 53  1  0  0  0
 49 64  1  0  0  0
 49119  1  0  0  0
 50 51  1  0  0  0
 50120  1  0  0  0
 50121  1  0  0  0
 51 52  1  0  0  0
 51122  1  0  0  0
 51123  1  0  0  0
 52124  1  0  0  0
 52125  1  0  0  0
 53 54  1  0  0  0
 54 55  2  0  0  0
 54126  1  0  0  0
 55 57  1  0  0  0
 55127  1  0  0  0
 56 69  2  0  0  0
 57 58  2  0  0  0
 57128  1  0  0  0
 58129  1  0  0  0
 59 60  1  0  0  0
 59 61  1  0  0  0
 59 62  1  0  0  0
 60130  1  0  0  0
 60131  1  0  0  0
 60132  1  0  0  0
 61133  1  0  0  0
 61134  1  0  0  0
 61135  1  0  0  0
 62136  1  0  0  0
 62137  1  0  0  0
 62138  1  0  0  0
 63 65  1  0  0  0
 63139  1  0  0  0
 63140  1  0  0  0
 63141  1  0  0  0
 64142  1  0  0  0
 65143  1  0  0  0
 68 80  1  0  0  0
 71 72  2  0  0  0
 71 74  1  0  0  0
 71144  1  0  0  0
 72 75  1  0  0  0
 72145  1  0  0  0
 73 75  2  0  0  0
 73 76  1  0  0  0
 73146  1  0  0  0
 74 76  2  0  0  0
 74 79  1  0  0  0
 75 81  1  0  0  0
 76 84  1  0  0  0
 77 80  1  0  0  0
 77 82  1  0  0  0
 77 83  2  0  0  0
 78 82  1  0  0  0
 78147  1  0  0  0
 78148  1  0  0  0
 78149  1  0  0  0
 79 82  1  0  0  0
 79150  1  0  0  0
 79151  1  0  0  0
 80152  1  0  0  0
 80153  1  0  0  0
 81154  1  0  0  0
M  ISO  4   1 100  68 101  80 101  81 100
M  END
> <chiral flag>
0

> <version>
0

> <s_m_source_file>
/data/baiqing/PycharmProjects/Reinvent-master-3.2/result/LINK_invent/BTK/process_docking_weight1_custom_product_contain_oxygen_bond_distance_aromatic_linkinvent_7_9_3/rearranged_h_0044.sdf

> <i_m_source_file_index>
35

> <r_mmod_Potential_Energy-OPLS-2005>
108.092468261719

> <r_mmod_Stretch_Energy-OPLS-2005>
85.3096618652344

> <r_mmod_Bend_Energy-OPLS-2005>
160.214340209961

> <r_mmod_Torsional_Energy-OPLS-2005>
228.462875366211

> <r_mmod_Improper_Torsional_Energy-OPLS-2005>
6.29713535308838

> <r_mmod_Van_der_Waal_Energy-OPLS-2005>
145.265182495117

> <r_mmod_Electrostatic_Energy-OPLS-2005>
-329.593109130859

> <r_mmod_Solvation_Energy-OPLS-2005>
-235.690689086914

> <b_mmod_Minimization_Converged-OPLS-2005>
0

> <r_mmod_RMS_Derivative-OPLS-2005>
2.09384846687317

$$$$
35
                    3D
 Structure written by MMmdl.
160169  0  0  1  0            999 V2000
  -30.6397  -14.6239   20.4827 C   0  0  0  0  0  0
  -30.4287  -12.3768   19.4614 C   0  0  0  0  0  0
  -29.5066  -12.5020   18.2286 C   0  0  0  0  0  0
  -28.0290  -12.3460   18.6382 C   0  0  0  0  0  0
  -27.6523  -13.2196   19.8652 C   0  0  2  0  0  0
  -28.6957  -13.0875   20.9989 C   0  0  0  0  0  0
  -25.2551  -13.8178   20.5691 C   0  0  0  0  0  0
  -24.1825  -13.0439   20.9196 C   0  0  0  0  0  0
  -24.6398  -11.6910   20.8745 C   0  0  0  0  0  0
  -23.9068  -10.4292   21.0406 C   0  0  0  0  0  0
  -24.3617   -9.4208   21.9188 C   0  0  0  0  0  0
  -23.6290   -8.2246   22.0760 C   0  0  0  0  0  0
  -22.4276   -8.0282   21.3547 C   0  0  0  0  0  0
  -21.9910   -9.0258   20.4651 C   0  0  0  0  0  0
  -22.7240  -10.2136   20.3059 C   0  0  0  0  0  0
  -21.6849   -6.0736   22.5279 C   0  0  0  0  0  0
  -21.4013   -6.5642   23.8213 C   0  0  0  0  0  0
  -21.3660   -5.6793   24.9174 C   0  0  0  0  0  0
  -21.6044   -4.3055   24.7227 C   0  0  0  0  0  0
  -21.8818   -3.8148   23.4347 C   0  0  0  0  0  0
  -21.9193   -4.6963   22.3402 C   0  0  0  0  0  0
  -22.7846  -13.5228   21.1857 C   0  0  0  0  0  0
  -22.1661   -4.2149   21.0977 F   0  0  0  0  0  0
  -21.5629   -3.4538   25.7740 F   0  0  0  0  0  0
  -30.0125  -13.4087   20.4327 N   0  0  0  0  0  0
  -26.2985  -12.9367   20.3333 N   0  0  0  0  0  0
  -25.9327  -11.6519   20.5770 N   0  0  0  0  0  0
  -22.0489  -12.8216   22.0409 N   0  0  0  0  0  0
  -25.4243  -15.1899   20.4094 N   0  0  0  0  0  0
  -31.8056  -14.7558   20.1017 O   0  0  0  0  0  0
  -21.6637   -6.8882   21.4242 O   0  0  0  0  0  0
  -22.3536  -14.5540   20.6713 O   0  0  0  0  0  0
  -24.6227  -31.8596   23.2030 C   0  0  0  0  0  0
  -25.9084  -32.4773   23.8351 C   0  0  1  0  0  0
  -27.2326  -27.3426   20.1124 C   0  0  0  0  0  0
  -25.5915  -33.8576   24.2282 N   0  0  0  0  0  0
  -23.4152  -30.4811   21.5443 C   0  0  2  0  0  0
  -24.8629  -28.9353   20.1096 C   0  0  0  0  0  0
  -22.7450  -29.4614   22.4948 C   0  0  0  0  0  0
  -18.0276  -28.1371   22.8493 C   0  0  0  0  0  0
  -24.1482  -36.7295   23.2638 C   0  0  0  0  0  0
  -25.9517  -30.7974   21.3689 C   0  0  0  0  0  0
  -26.0271  -29.4254   20.7135 C   0  0  0  0  0  0
  -27.2115  -28.6384   20.7072 C   0  0  0  0  0  0
  -26.0486  -26.8960   19.4847 C   0  0  0  0  0  0
  -24.8743  -27.6753   19.4879 C   0  0  0  0  0  0
  -23.6277  -29.8105   20.1605 C   0  0  0  0  0  0
  -25.4106  -36.3081   24.0329 C   0  0  1  0  0  0
  -20.5875  -28.3670   23.1293 C   0  0  2  0  0  0
  -20.6768  -26.9397   22.5411 C   0  0  0  0  0  0
  -19.5742  -26.6378   21.5209 C   0  0  0  0  0  0
  -18.1920  -26.7919   22.1616 C   0  0  0  0  0  0
  -19.1530  -28.8836   23.2887 C   0  0  0  0  0  0
  -18.9457  -30.1442   23.8894 C   0  0  0  0  0  0
  -17.6460  -30.6580   24.0557 C   0  0  0  0  0  0
  -25.9042  -34.9449   23.5105 C   0  0  0  0  0  0
  -16.5350  -29.9079   23.6331 C   0  0  0  0  0  0
  -16.7267  -28.6492   23.0360 C   0  0  0  0  0  0
  -26.4493  -31.6587   25.0716 C   0  0  0  0  0  0
  -25.3748  -31.3705   26.1459 C   0  0  0  0  0  0
  -27.0348  -30.3021   24.6151 C   0  0  0  0  0  0
  -27.6050  -32.4339   25.7483 C   0  0  0  0  0  0
  -27.5578  -37.1788   24.8458 C   0  0  0  0  0  0
  -21.4167  -29.3027   22.3692 N   0  0  0  0  0  0
  -26.4279  -37.3780   23.9419 N   0  0  0  0  0  0
  -24.6817  -31.0624   22.0963 N   0  0  0  0  0  0
  -23.4185  -28.8158   23.3022 O   0  0  0  0  0  0
  -28.3825  -26.5494   20.1811 O   0  0  0  0  0  0
  -26.5608  -34.8914   22.4671 O   0  0  0  0  0  0
  -23.5398  -32.1391   23.7376 O   0  0  0  0  0  0
  -29.6032  -20.8348   22.5794 C   0  0  0  0  0  0
  -29.9078  -19.6142   23.2018 C   0  0  0  0  0  0
  -29.8267  -18.4188   21.0606 C   0  0  0  0  0  0
  -29.3902  -20.9275   21.1857 C   0  0  0  0  0  0
  -30.0377  -18.4242   22.4655 C   0  0  0  0  0  0
  -29.4825  -19.6881   20.4410 C   0  0  0  0  0  0
  -30.0046  -23.0090   19.8798 C   0  0  0  0  0  0
  -31.0381  -22.4805   19.1996 C   0  0  0  0  0  0
  -29.8329  -24.5524   19.9206 C   0  0  0  0  0  0
  -27.4368  -24.1863   20.6497 C   0  0  0  0  0  0
  -28.1177  -23.0142   21.4233 C   0  0  0  0  0  0
  -28.3843  -25.1155   19.8342 C   0  0  1  0  0  0
  -30.0823  -17.1185   20.2026 C   0  0  0  0  0  0
  -29.1013  -22.2373   20.6379 N   0  0  0  0  0  0
  -29.8509  -15.7180   20.7141 N   0  0  0  0  0  0
  -30.5035  -17.0154   23.3541 Cl  0  0  0  0  0  0
  -29.1530  -19.7272   18.7395 Cl  0  0  0  0  0  0
  -31.4733  -12.4826   19.1626 H   0  0  0  0  0  0
  -30.3459  -11.3836   19.9055 H   0  0  0  0  0  0
  -29.7684  -11.7511   17.4818 H   0  0  0  0  0  0
  -29.6560  -13.4721   17.7520 H   0  0  0  0  0  0
  -27.8623  -11.2936   18.8700 H   0  0  0  0  0  0
  -27.3761  -12.5776   17.7958 H   0  0  0  0  0  0
  -27.6675  -14.2529   19.5195 H   0  0  0  0  0  0
  -28.6997  -12.0743   21.4040 H   0  0  0  0  0  0
  -28.4509  -13.7452   21.8345 H   0  0  0  0  0  0
  -25.2761   -9.5683   22.4766 H   0  0  0  0  0  0
  -23.9997   -7.4637   22.7481 H   0  0  0  0  0  0
  -21.0841   -8.8780   19.8957 H   0  0  0  0  0  0
  -22.3701  -10.9677   19.6171 H   0  0  0  0  0  0
  -21.2006   -7.6150   23.9716 H   0  0  0  0  0  0
  -21.1481   -6.0523   25.9077 H   0  0  0  0  0  0
  -22.0597   -2.7610   23.2846 H   0  0  0  0  0  0
  -22.4093  -11.9861   22.4772 H   0  0  0  0  0  0
  -21.1118  -13.1258   22.2633 H   0  0  0  0  0  0
  -24.6537  -15.8409   20.5172 H   0  0  0  0  0  0
  -26.2673  -15.6312   20.0650 H   0  0  0  0  0  0
  -26.7145  -32.5449   23.1098 H   0  0  0  0  0  0
  -25.0090  -33.9727   25.0445 H   0  0  0  0  0  0
  -22.7076  -31.2999   21.3996 H   0  0  0  0  0  0
  -23.3749  -35.9620   23.3283 H   0  0  0  0  0  0
  -24.3575  -36.8945   22.2056 H   0  0  0  0  0  0
  -23.7233  -37.6487   23.6677 H   0  0  0  0  0  0
  -26.0772  -31.5591   20.5983 H   0  0  0  0  0  0
  -26.8346  -30.8495   21.9945 H   0  0  0  0  0  0
  -28.1061  -29.0092   21.1878 H   0  0  0  0  0  0
  -26.0093  -25.9331   18.9983 H   0  0  0  0  0  0
  -23.9813  -27.2956   19.0108 H   0  0  0  0  0  0
  -23.7388  -30.5829   19.3987 H   0  0  0  0  0  0
  -22.7500  -29.2327   19.8654 H   0  0  0  0  0  0
  -25.1284  -36.1925   25.0821 H   0  0  0  0  0  0
  -20.9964  -28.3240   24.1415 H   0  0  0  0  0  0
  -20.5669  -26.2275   23.3602 H   0  0  0  0  0  0
  -21.6635  -26.7427   22.1202 H   0  0  0  0  0  0
  -19.6903  -25.6290   21.1236 H   0  0  0  0  0  0
  -19.6682  -27.3184   20.6737 H   0  0  0  0  0  0
  -17.4195  -26.6676   21.4012 H   0  0  0  0  0  0
  -18.0307  -26.0048   22.8994 H   0  0  0  0  0  0
  -19.7934  -30.7256   24.2262 H   0  0  0  0  0  0
  -17.5018  -31.6261   24.5155 H   0  0  0  0  0  0
  -15.5351  -30.2984   23.7657 H   0  0  0  0  0  0
  -15.8663  -28.0814   22.7085 H   0  0  0  0  0  0
  -24.5927  -30.7041   25.7807 H   0  0  0  0  0  0
  -24.8926  -32.2854   26.4903 H   0  0  0  0  0  0
  -25.8103  -30.8886   27.0224 H   0  0  0  0  0  0
  -26.2911  -29.6746   24.1223 H   0  0  0  0  0  0
  -27.4122  -29.7299   25.4639 H   0  0  0  0  0  0
  -27.8744  -30.4331   23.9320 H   0  0  0  0  0  0
  -27.2662  -33.3662   26.2017 H   0  0  0  0  0  0
  -28.3873  -32.6871   25.0315 H   0  0  0  0  0  0
  -28.0694  -31.8493   26.5434 H   0  0  0  0  0  0
  -28.2569  -38.0113   24.7554 H   0  0  0  0  0  0
  -28.1107  -36.2649   24.6231 H   0  0  0  0  0  0
  -27.2300  -37.1376   25.8860 H   0  0  0  0  0  0
  -20.9337  -29.8771   21.6925 H   0  0  0  0  0  0
  -26.0160  -38.2846   24.1458 H   0  0  0  0  0  0
  -29.5640  -21.7138   23.2044 H   0  0  0  0  0  0
  -30.0766  -19.5967   24.2691 H   0  0  0  0  0  0
  -31.7269  -23.1126   18.6559 H   0  0  0  0  0  0
  -31.2396  -21.4215   19.1687 H   0  0  0  0  0  0
  -30.4222  -25.0065   19.1223 H   0  0  0  0  0  0
  -30.2918  -24.8958   20.8487 H   0  0  0  0  0  0
  -26.8494  -24.7767   21.3539 H   0  0  0  0  0  0
  -26.7112  -23.7545   19.9603 H   0  0  0  0  0  0
  -27.3456  -22.3513   21.8172 H   0  0  0  0  0  0
  -28.6261  -23.4433   22.2875 H   0  0  0  0  0  0
  -28.0920  -25.0433   18.7857 H   0  0  0  0  0  0
  -31.1098  -17.2007   19.8455 H   0  0  0  0  0  0
  -29.4682  -17.1784   19.3056 H   0  0  0  0  0  0
  -28.9168  -15.5163   21.0356 H   0  0  0  0  0  0
  1 25  1  0  0  0
  1 30  2  0  0  0
  1 85  1  0  0  0
  2  3  1  0  0  0
  2 25  1  0  0  0
  2 88  1  0  0  0
  2 89  1  0  0  0
  3  4  1  0  0  0
  3 90  1  0  0  0
  3 91  1  0  0  0
  4  5  1  0  0  0
  4 92  1  0  0  0
  4 93  1  0  0  0
  5  6  1  0  0  0
  5 26  1  0  0  0
  5 94  1  0  0  0
  6 25  1  0  0  0
  6 95  1  0  0  0
  6 96  1  0  0  0
  7  8  2  0  0  0
  7 26  1  0  0  0
  7 29  1  0  0  0
  8  9  1  0  0  0
  8 22  1  0  0  0
  9 10  1  0  0  0
  9 27  2  0  0  0
 10 11  2  0  0  0
 10 15  1  0  0  0
 11 12  1  0  0  0
 11 97  1  0  0  0
 12 13  2  0  0  0
 12 98  1  0  0  0
 13 14  1  0  0  0
 13 31  1  0  0  0
 14 15  2  0  0  0
 14 99  1  0  0  0
 15100  1  0  0  0
 16 17  2  0  0  0
 16 21  1  0  0  0
 16 31  1  0  0  0
 17 18  1  0  0  0
 17101  1  0  0  0
 18 19  2  0  0  0
 18102  1  0  0  0
 19 20  1  0  0  0
 19 24  1  0  0  0
 20 21  2  0  0  0
 20103  1  0  0  0
 21 23  1  0  0  0
 22 28  1  0  0  0
 22 32  2  0  0  0
 26 27  1  0  0  0
 28104  1  0  0  0
 28105  1  0  0  0
 29106  1  0  0  0
 29107  1  0  0  0
 33 34  1  0  0  0
 33 66  1  0  0  0
 33 70  2  0  0  0
 34 36  1  0  0  0
 34 59  1  0  0  0
 34108  1  0  0  0
 35 44  2  0  0  0
 35 45  1  0  0  0
 35 68  1  0  0  0
 36 56  1  0  0  0
 36109  1  0  0  0
 37 39  1  0  0  0
 37 47  1  0  0  0
 37 66  1  0  0  0
 37110  1  0  0  0
 38 43  2  0  0  0
 38 46  1  0  0  0
 38 47  1  0  0  0
 39 64  1  0  0  0
 39 67  2  0  0  0
 40 52  1  0  0  0
 40 53  2  0  0  0
 40 58  1  0  0  0
 41111  1  0  0  0
 41112  1  0  0  0
 41113  1  0  0  0
 41 48  1  0  0  0
 42 43  1  0  0  0
 42 66  1  0  0  0
 42114  1  0  0  0
 42115  1  0  0  0
 43 44  1  0  0  0
 44116  1  0  0  0
 45 46  2  0  0  0
 45117  1  0  0  0
 46118  1  0  0  0
 47119  1  0  0  0
 47120  1  0  0  0
 48 56  1  0  0  0
 48 65  1  0  0  0
 48121  1  0  0  0
 49 50  1  0  0  0
 49 53  1  0  0  0
 49 64  1  0  0  0
 49122  1  0  0  0
 50 51  1  0  0  0
 50123  1  0  0  0
 50124  1  0  0  0
 51 52  1  0  0  0
 51125  1  0  0  0
 51126  1  0  0  0
 52127  1  0  0  0
 52128  1  0  0  0
 53 54  1  0  0  0
 54 55  2  0  0  0
 54129  1  0  0  0
 55 57  1  0  0  0
 55130  1  0  0  0
 56 69  2  0  0  0
 57 58  2  0  0  0
 57131  1  0  0  0
 58132  1  0  0  0
 59 60  1  0  0  0
 59 61  1  0  0  0
 59 62  1  0  0  0
 60133  1  0  0  0
 60134  1  0  0  0
 60135  1  0  0  0
 61136  1  0  0  0
 61137  1  0  0  0
 61138  1  0  0  0
 62139  1  0  0  0
 62140  1  0  0  0
 62141  1  0  0  0
 63 65  1  0  0  0
 63142  1  0  0  0
 63143  1  0  0  0
 63144  1  0  0  0
 64145  1  0  0  0
 65146  1  0  0  0
 68 82  1  0  0  0
 71 72  2  0  0  0
 71 74  1  0  0  0
 71147  1  0  0  0
 72 75  1  0  0  0
 72148  1  0  0  0
 73 75  2  0  0  0
 73 76  1  0  0  0
 73 83  1  0  0  0
 74 76  2  0  0  0
 74 84  1  0  0  0
 75 86  1  0  0  0
 76 87  1  0  0  0
 77 78  2  0  0  0
 77 79  1  0  0  0
 77 84  1  0  0  0
 78149  1  0  0  0
 78150  1  0  0  0
 79 82  1  0  0  0
 79151  1  0  0  0
 79152  1  0  0  0
 80 81  1  0  0  0
 80 82  1  0  0  0
 80153  1  0  0  0
 80154  1  0  0  0
 81 84  1  0  0  0
 81155  1  0  0  0
 81156  1  0  0  0
 82157  1  0  0  0
 83 85  1  0  0  0
 83158  1  0  0  0
 83159  1  0  0  0
 85160  1  0  0  0
M  ISO  4   1 100  68 101  82 101  85 100
M  END
> <chiral flag>
0

> <version>
0

> <s_m_source_file>
/data/baiqing/PycharmProjects/Reinvent-master-3.2/result/LINK_invent/BTK/process_docking_weight1_custom_product_contain_oxygen_bond_distance_aromatic_linkinvent_7_9_3/rearranged_h_0044.sdf

> <i_m_source_file_index>
36

> <r_mmod_Potential_Energy-OPLS-2005>
85.514518737793

> <r_mmod_Stretch_Energy-OPLS-2005>
81.300163269043

> <r_mmod_Bend_Energy-OPLS-2005>
142.776473999023

> <r_mmod_Torsional_Energy-OPLS-2005>
250.690200805664

> <r_mmod_Improper_Torsional_Energy-OPLS-2005>
9.44195365905762

> <r_mmod_Van_der_Waal_Energy-OPLS-2005>
161.763427734375

> <r_mmod_Electrostatic_Energy-OPLS-2005>
-394.538024902344

> <r_mmod_Solvation_Energy-OPLS-2005>
-206.967712402344

> <b_mmod_Minimization_Converged-OPLS-2005>
0

> <r_mmod_RMS_Derivative-OPLS-2005>
0.838951528072357

$$$$
36
                    3D
 Structure written by MMmdl.
157165  0  0  1  0            999 V2000
  -30.6134  -14.7594   20.4596 C   0  0  0  0  0  0
  -30.4310  -12.4663   19.4774 C   0  0  0  0  0  0
  -29.5075  -12.5105   18.2400 C   0  0  0  0  0  0
  -28.0345  -12.3327   18.6548 C   0  0  0  0  0  0
  -27.6378  -13.2365   19.8520 C   0  0  2  0  0  0
  -28.6838  -13.1826   20.9877 C   0  0  0  0  0  0
  -25.2458  -13.8196   20.5697 C   0  0  0  0  0  0
  -24.1769  -13.0430   20.9231 C   0  0  0  0  0  0
  -24.6373  -11.6904   20.8764 C   0  0  0  0  0  0
  -23.9048  -10.4278   21.0414 C   0  0  0  0  0  0
  -24.3602   -9.4199   21.9190 C   0  0  0  0  0  0
  -23.6280   -8.2235   22.0753 C   0  0  0  0  0  0
  -22.4263   -8.0271   21.3541 C   0  0  0  0  0  0
  -21.9901   -9.0237   20.4645 C   0  0  0  0  0  0
  -22.7224  -10.2119   20.3057 C   0  0  0  0  0  0
  -21.6856   -6.0714   22.5262 C   0  0  0  0  0  0
  -21.4015   -6.5626   23.8190 C   0  0  0  0  0  0
  -21.3662   -5.6788   24.9158 C   0  0  0  0  0  0
  -21.6053   -4.3049   24.7222 C   0  0  0  0  0  0
  -21.8818   -3.8130   23.4348 C   0  0  0  0  0  0
  -21.9191   -4.6944   22.3397 C   0  0  0  0  0  0
  -22.7789  -13.5209   21.1886 C   0  0  0  0  0  0
  -22.1659   -4.2122   21.0980 F   0  0  0  0  0  0
  -21.5636   -3.4536   25.7745 F   0  0  0  0  0  0
  -29.9829  -13.5351   20.4013 N   0  0  0  0  0  0
  -26.2904  -12.9414   20.3296 N   0  0  0  0  0  0
  -25.9310  -11.6548   20.5777 N   0  0  0  0  0  0
  -22.0437  -12.8187   22.0438 N   0  0  0  0  0  0
  -25.4100  -15.1902   20.4026 N   0  0  0  0  0  0
  -31.8066  -14.8264   20.1533 O   0  0  0  0  0  0
  -21.6637   -6.8857   21.4226 O   0  0  0  0  0  0
  -22.3466  -14.5513   20.6735 O   0  0  0  0  0  0
  -24.6291  -31.8542   23.1961 C   0  0  0  0  0  0
  -25.9117  -32.4753   23.8326 C   0  0  1  0  0  0
  -27.2313  -27.2697   20.1282 C   0  0  0  0  0  0
  -25.5911  -33.8551   24.2230 N   0  0  0  0  0  0
  -23.4276  -30.4741   21.5368 C   0  0  2  0  0  0
  -24.8777  -28.9206   20.1067 C   0  0  0  0  0  0
  -22.7508  -29.4584   22.4896 C   0  0  0  0  0  0
  -18.0291  -28.1376   22.8480 C   0  0  0  0  0  0
  -24.1493  -36.7284   23.2643 C   0  0  0  0  0  0
  -25.9724  -30.7719   21.3736 C   0  0  0  0  0  0
  -26.0451  -29.3946   20.7154 C   0  0  0  0  0  0
  -27.2191  -28.5796   20.7166 C   0  0  0  0  0  0
  -26.0352  -26.8498   19.5053 C   0  0  0  0  0  0
  -24.8786  -27.6573   19.4923 C   0  0  0  0  0  0
  -23.6460  -29.8030   20.1540 C   0  0  0  0  0  0
  -25.4118  -36.3059   24.0323 C   0  0  1  0  0  0
  -20.5894  -28.3679   23.1275 C   0  0  2  0  0  0
  -20.6775  -26.9387   22.5426 C   0  0  0  0  0  0
  -19.5752  -26.6363   21.5227 C   0  0  0  0  0  0
  -18.1919  -26.7921   22.1616 C   0  0  0  0  0  0
  -19.1549  -28.8845   23.2873 C   0  0  0  0  0  0
  -18.9478  -30.1438   23.8900 C   0  0  0  0  0  0
  -17.6474  -30.6583   24.0554 C   0  0  0  0  0  0
  -25.9061  -34.9437   23.5085 C   0  0  0  0  0  0
  -16.5366  -29.9081   23.6335 C   0  0  0  0  0  0
  -16.7279  -28.6498   23.0354 C   0  0  0  0  0  0
  -26.4497  -31.6586   25.0718 C   0  0  0  0  0  0
  -25.3701  -31.3756   26.1429 C   0  0  0  0  0  0
  -27.0351  -30.3001   24.6204 C   0  0  0  0  0  0
  -27.6040  -32.4355   25.7489 C   0  0  0  0  0  0
  -27.5584  -37.1773   24.8451 C   0  0  0  0  0  0
  -21.4215  -29.3020   22.3660 N   0  0  0  0  0  0
  -26.4291  -37.3757   23.9414 N   0  0  0  0  0  0
  -24.6949  -31.0509   22.0933 N   0  0  0  0  0  0
  -23.4210  -28.8128   23.3002 O   0  0  0  0  0  0
  -28.3560  -26.4223   20.2250 O   0  0  0  0  0  0
  -26.5643  -34.8916   22.4663 O   0  0  0  0  0  0
  -23.5440  -32.1376   23.7241 O   0  0  0  0  0  0
  -31.8613  -19.1578   20.6867 C   0  0  0  0  0  0
  -30.8956  -20.1792   20.5978 C   0  0  0  0  0  0
  -31.5028  -17.7948   20.6975 C   0  0  0  0  0  0
  -29.5230  -19.8766   20.5143 C   0  0  0  0  0  0
  -29.1689  -18.4522   20.5171 C   0  0  0  0  0  0
  -30.1544  -17.3687   20.6044 C   0  0  0  0  0  0
  -28.3914  -23.7366   20.4222 C   0  0  0  0  0  0
  -27.6949  -18.1003   20.4226 C   0  0  0  0  0  0
  -29.3575  -22.4115   18.5742 C   0  0  0  0  0  0
  -28.4922  -21.1062   20.5292 C   0  0  0  0  0  0
  -28.4882  -25.0876   19.5491 C   0  0  0  0  0  0
  -29.8338  -15.9040   20.6425 N   0  0  0  0  0  0
  -28.7894  -22.4891   19.9226 N   0  0  0  0  0  0
  -27.9068  -23.8293   21.5545 O   0  0  0  0  0  0
  -31.4706  -12.5904   19.1699 H   0  0  0  0  0  0
  -30.3790  -11.4926   19.9669 H   0  0  0  0  0  0
  -29.7894  -11.7321   17.5300 H   0  0  0  0  0  0
  -29.6316  -13.4627   17.7206 H   0  0  0  0  0  0
  -27.8938  -11.2854   18.9235 H   0  0  0  0  0  0
  -27.3765  -12.5212   17.8060 H   0  0  0  0  0  0
  -27.6268  -14.2562   19.4665 H   0  0  0  0  0  0
  -28.7204  -12.1896   21.4383 H   0  0  0  0  0  0
  -28.4174  -13.8737   21.7899 H   0  0  0  0  0  0
  -25.2737   -9.5682   22.4774 H   0  0  0  0  0  0
  -23.9977   -7.4634   22.7481 H   0  0  0  0  0  0
  -21.0833   -8.8765   19.8958 H   0  0  0  0  0  0
  -22.3679  -10.9663   19.6175 H   0  0  0  0  0  0
  -21.2004   -7.6133   23.9688 H   0  0  0  0  0  0
  -21.1495   -6.0522   25.9064 H   0  0  0  0  0  0
  -22.0600   -2.7590   23.2859 H   0  0  0  0  0  0
  -22.4052  -11.9842   22.4818 H   0  0  0  0  0  0
  -21.1061  -13.1206   22.2669 H   0  0  0  0  0  0
  -24.6320  -15.8351   20.4874 H   0  0  0  0  0  0
  -26.2280  -15.6122   19.9879 H   0  0  0  0  0  0
  -26.7172  -32.5392   23.1057 H   0  0  0  0  0  0
  -25.0019  -33.9706   25.0347 H   0  0  0  0  0  0
  -22.7232  -31.2940   21.3814 H   0  0  0  0  0  0
  -23.3764  -35.9600   23.3280 H   0  0  0  0  0  0
  -24.3586  -36.8959   22.2065 H   0  0  0  0  0  0
  -23.7248  -37.6473   23.6704 H   0  0  0  0  0  0
  -26.1073  -31.5305   20.6017 H   0  0  0  0  0  0
  -26.8538  -30.8233   22.0026 H   0  0  0  0  0  0
  -28.1138  -28.9379   21.2068 H   0  0  0  0  0  0
  -25.9568  -25.8730   19.0545 H   0  0  0  0  0  0
  -23.9797  -27.2877   19.0186 H   0  0  0  0  0  0
  -23.7622  -30.5768   19.3946 H   0  0  0  0  0  0
  -22.7687  -29.2274   19.8527 H   0  0  0  0  0  0
  -25.1286  -36.1909   25.0813 H   0  0  0  0  0  0
  -20.9983  -28.3267   24.1402 H   0  0  0  0  0  0
  -20.5679  -26.2274   23.3630 H   0  0  0  0  0  0
  -21.6634  -26.7399   22.1198 H   0  0  0  0  0  0
  -19.6932  -25.6281   21.1252 H   0  0  0  0  0  0
  -19.6726  -27.3170   20.6760 H   0  0  0  0  0  0
  -17.4197  -26.6697   21.4012 H   0  0  0  0  0  0
  -18.0291  -26.0056   22.9007 H   0  0  0  0  0  0
  -19.7962  -30.7235   24.2276 H   0  0  0  0  0  0
  -17.5037  -31.6265   24.5138 H   0  0  0  0  0  0
  -15.5365  -30.2972   23.7657 H   0  0  0  0  0  0
  -15.8687  -28.0812   22.7079 H   0  0  0  0  0  0
  -24.5895  -30.7088   25.7751 H   0  0  0  0  0  0
  -24.8865  -32.2930   26.4803 H   0  0  0  0  0  0
  -25.8000  -30.8978   27.0239 H   0  0  0  0  0  0
  -26.2933  -29.6741   24.1233 H   0  0  0  0  0  0
  -27.4042  -29.7286   25.4731 H   0  0  0  0  0  0
  -27.8801  -30.4280   23.9428 H   0  0  0  0  0  0
  -27.2658  -33.3692   26.1991 H   0  0  0  0  0  0
  -28.3888  -32.6881   25.0347 H   0  0  0  0  0  0
  -28.0649  -31.8533   26.5471 H   0  0  0  0  0  0
  -28.2535  -38.0121   24.7517 H   0  0  0  0  0  0
  -28.1145  -36.2650   24.6242 H   0  0  0  0  0  0
  -27.2293  -37.1355   25.8846 H   0  0  0  0  0  0
  -20.9389  -29.8752   21.6877 H   0  0  0  0  0  0
  -26.0176  -38.2831   24.1456 H   0  0  0  0  0  0
  -32.9062  -19.4248   20.7645 H   0  0  0  0  0  0
  -31.2180  -21.2113   20.6199 H   0  0  0  0  0  0
  -32.3078  -17.0834   20.7936 H   0  0  0  0  0  0
  -27.1571  -18.4575   21.3008 H   0  0  0  0  0  0
  -27.5250  -17.0304   20.3385 H   0  0  0  0  0  0
  -27.2549  -18.5637   19.5391 H   0  0  0  0  0  0
  -28.7703  -22.9789   17.8520 H   0  0  0  0  0  0
  -29.3881  -21.3881   18.2026 H   0  0  0  0  0  0
  -30.3778  -22.7939   18.5676 H   0  0  0  0  0  0
  -28.2176  -21.2498   21.5752 H   0  0  0  0  0  0
  -27.5719  -20.7774   20.0474 H   0  0  0  0  0  0
  -27.8397  -25.0113   18.6786 H   0  0  0  0  0  0
  -29.4945  -25.1007   19.1294 H   0  0  0  0  0  0
  -28.8591  -15.6920   20.7827 H   0  0  0  0  0  0
  1 25  1  0  0  0
  1 30  2  0  0  0
  1 82  1  0  0  0
  2  3  1  0  0  0
  2 25  1  0  0  0
  2 85  1  0  0  0
  2 86  1  0  0  0
  3  4  1  0  0  0
  3 87  1  0  0  0
  3 88  1  0  0  0
  4  5  1  0  0  0
  4 89  1  0  0  0
  4 90  1  0  0  0
  5  6  1  0  0  0
  5 26  1  0  0  0
  5 91  1  0  0  0
  6 25  1  0  0  0
  6 92  1  0  0  0
  6 93  1  0  0  0
  7  8  2  0  0  0
  7 26  1  0  0  0
  7 29  1  0  0  0
  8  9  1  0  0  0
  8 22  1  0  0  0
  9 10  1  0  0  0
  9 27  2  0  0  0
 10 11  2  0  0  0
 10 15  1  0  0  0
 11 12  1  0  0  0
 11 94  1  0  0  0
 12 13  2  0  0  0
 12 95  1  0  0  0
 13 14  1  0  0  0
 13 31  1  0  0  0
 14 15  2  0  0  0
 14 96  1  0  0  0
 15 97  1  0  0  0
 16 17  2  0  0  0
 16 21  1  0  0  0
 16 31  1  0  0  0
 17 18  1  0  0  0
 17 98  1  0  0  0
 18 19  2  0  0  0
 18 99  1  0  0  0
 19 20  1  0  0  0
 19 24  1  0  0  0
 20 21  2  0  0  0
 20100  1  0  0  0
 21 23  1  0  0  0
 22 28  1  0  0  0
 22 32  2  0  0  0
 26 27  1  0  0  0
 28101  1  0  0  0
 28102  1  0  0  0
 29103  1  0  0  0
 29104  1  0  0  0
 33 34  1  0  0  0
 33 66  1  0  0  0
 33 70  2  0  0  0
 34 36  1  0  0  0
 34 59  1  0  0  0
 34105  1  0  0  0
 35 44  2  0  0  0
 35 45  1  0  0  0
 35 68  1  0  0  0
 36 56  1  0  0  0
 36106  1  0  0  0
 37 39  1  0  0  0
 37 47  1  0  0  0
 37 66  1  0  0  0
 37107  1  0  0  0
 38 43  2  0  0  0
 38 46  1  0  0  0
 38 47  1  0  0  0
 39 64  1  0  0  0
 39 67  2  0  0  0
 40 52  1  0  0  0
 40 53  2  0  0  0
 40 58  1  0  0  0
 41108  1  0  0  0
 41109  1  0  0  0
 41110  1  0  0  0
 41 48  1  0  0  0
 42 43  1  0  0  0
 42 66  1  0  0  0
 42111  1  0  0  0
 42112  1  0  0  0
 43 44  1  0  0  0
 44113  1  0  0  0
 45 46  2  0  0  0
 45114  1  0  0  0
 46115  1  0  0  0
 47116  1  0  0  0
 47117  1  0  0  0
 48 56  1  0  0  0
 48 65  1  0  0  0
 48118  1  0  0  0
 49 50  1  0  0  0
 49 53  1  0  0  0
 49 64  1  0  0  0
 49119  1  0  0  0
 50 51  1  0  0  0
 50120  1  0  0  0
 50121  1  0  0  0
 51 52  1  0  0  0
 51122  1  0  0  0
 51123  1  0  0  0
 52124  1  0  0  0
 52125  1  0  0  0
 53 54  1  0  0  0
 54 55  2  0  0  0
 54126  1  0  0  0
 55 57  1  0  0  0
 55127  1  0  0  0
 56 69  2  0  0  0
 57 58  2  0  0  0
 57128  1  0  0  0
 58129  1  0  0  0
 59 60  1  0  0  0
 59 61  1  0  0  0
 59 62  1  0  0  0
 60130  1  0  0  0
 60131  1  0  0  0
 60132  1  0  0  0
 61133  1  0  0  0
 61134  1  0  0  0
 61135  1  0  0  0
 62136  1  0  0  0
 62137  1  0  0  0
 62138  1  0  0  0
 63 65  1  0  0  0
 63139  1  0  0  0
 63140  1  0  0  0
 63141  1  0  0  0
 64142  1  0  0  0
 65143  1  0  0  0
 68 81  1  0  0  0
 71 72  2  0  0  0
 71 73  1  0  0  0
 71144  1  0  0  0
 72 74  1  0  0  0
 72145  1  0  0  0
 73 76  2  0  0  0
 73146  1  0  0  0
 74 75  2  0  0  0
 74 80  1  0  0  0
 75 76  1  0  0  0
 75 78  1  0  0  0
 76 82  1  0  0  0
 77 81  1  0  0  0
 77 83  1  0  0  0
 77 84  2  0  0  0
 78147  1  0  0  0
 78148  1  0  0  0
 78149  1  0  0  0
 79 83  1  0  0  0
 79150  1  0  0  0
 79151  1  0  0  0
 79152  1  0  0  0
 80 83  1  0  0  0
 80153  1  0  0  0
 80154  1  0  0  0
 81155  1  0  0  0
 81156  1  0  0  0
 82157  1  0  0  0
M  ISO  4   1 100  68 101  81 101  82 100
M  END
> <chiral flag>
0

> <version>
0

> <s_m_source_file>
/data/baiqing/PycharmProjects/Reinvent-master-3.2/result/LINK_invent/BTK/process_docking_weight1_custom_product_contain_oxygen_bond_distance_aromatic_linkinvent_7_9_3/rearranged_h_0044.sdf

> <i_m_source_file_index>
37

> <r_mmod_Potential_Energy-OPLS-2005>
166.229125976562

> <r_mmod_Stretch_Energy-OPLS-2005>
137.783172607422

> <r_mmod_Bend_Energy-OPLS-2005>
173.685760498047

> <r_mmod_Torsional_Energy-OPLS-2005>
218.779922485352

> <r_mmod_Improper_Torsional_Energy-OPLS-2005>
6.16112995147705

> <r_mmod_Van_der_Waal_Energy-OPLS-2005>
143.210311889648

> <r_mmod_Electrostatic_Energy-OPLS-2005>
-358.742309570312

> <r_mmod_Solvation_Energy-OPLS-2005>
-240.029907226562

> <b_mmod_Minimization_Converged-OPLS-2005>
0

> <r_mmod_RMS_Derivative-OPLS-2005>
2.69757056236267

$$$$
37
                    3D
 Structure written by MMmdl.
154162  0  0  1  0            999 V2000
  -30.7224  -14.5230   20.5959 C   0  0  0  0  0  0
  -30.4190  -12.3451   19.4290 C   0  0  0  0  0  0
  -29.4903  -12.5114   18.2105 C   0  0  0  0  0  0
  -28.0147  -12.3631   18.6299 C   0  0  0  0  0  0
  -27.6587  -13.2155   19.8749 C   0  0  2  0  0  0
  -28.7054  -13.0327   20.9972 C   0  0  0  0  0  0
  -25.2535  -13.8171   20.5662 C   0  0  0  0  0  0
  -24.1817  -13.0449   20.9219 C   0  0  0  0  0  0
  -24.6381  -11.6915   20.8789 C   0  0  0  0  0  0
  -23.9061  -10.4294   21.0435 C   0  0  0  0  0  0
  -24.3617   -9.4196   21.9187 C   0  0  0  0  0  0
  -23.6285   -8.2238   22.0758 C   0  0  0  0  0  0
  -22.4266   -8.0283   21.3555 C   0  0  0  0  0  0
  -21.9914   -9.0261   20.4658 C   0  0  0  0  0  0
  -22.7256  -10.2130   20.3067 C   0  0  0  0  0  0
  -21.6850   -6.0722   22.5276 C   0  0  0  0  0  0
  -21.4007   -6.5638   23.8201 C   0  0  0  0  0  0
  -21.3658   -5.6797   24.9169 C   0  0  0  0  0  0
  -21.6032   -4.3056   24.7224 C   0  0  0  0  0  0
  -21.8822   -3.8142   23.4355 C   0  0  0  0  0  0
  -21.9183   -4.6947   22.3406 C   0  0  0  0  0  0
  -22.7840  -13.5248   21.1847 C   0  0  0  0  0  0
  -22.1659   -4.2145   21.0979 F   0  0  0  0  0  0
  -21.5627   -3.4537   25.7734 F   0  0  0  0  0  0
  -30.0306  -13.3509   20.4420 N   0  0  0  0  0  0
  -26.3013  -12.9379   20.3386 N   0  0  0  0  0  0
  -25.9322  -11.6535   20.5841 N   0  0  0  0  0  0
  -22.0472  -12.8244   22.0394 N   0  0  0  0  0  0
  -25.4192  -15.1892   20.3953 N   0  0  0  0  0  0
  -31.8434  -14.6789   20.1052 O   0  0  0  0  0  0
  -21.6641   -6.8879   21.4248 O   0  0  0  0  0  0
  -22.3537  -14.5547   20.6666 O   0  0  0  0  0  0
  -24.6153  -31.8640   23.2087 C   0  0  0  0  0  0
  -25.9056  -32.4819   23.8367 C   0  0  1  0  0  0
  -27.2554  -27.4168   20.1068 C   0  0  0  0  0  0
  -25.5888  -33.8609   24.2271 N   0  0  0  0  0  0
  -23.4045  -30.4879   21.5482 C   0  0  2  0  0  0
  -24.8570  -28.9518   20.1137 C   0  0  0  0  0  0
  -22.7426  -29.4673   22.4972 C   0  0  0  0  0  0
  -18.0300  -28.1457   22.8412 C   0  0  0  0  0  0
  -24.1493  -36.7309   23.2635 C   0  0  0  0  0  0
  -25.9324  -30.8288   21.3640 C   0  0  0  0  0  0
  -26.0166  -29.4622   20.7086 C   0  0  0  0  0  0
  -27.2149  -28.7030   20.7002 C   0  0  0  0  0  0
  -26.0745  -26.9400   19.4861 C   0  0  0  0  0  0
  -24.8857  -27.6922   19.4908 C   0  0  0  0  0  0
  -23.6143  -29.8139   20.1656 C   0  0  0  0  0  0
  -25.4119  -36.3093   24.0320 C   0  0  1  0  0  0
  -20.5861  -28.3736   23.1330 C   0  0  2  0  0  0
  -20.6770  -26.9426   22.5546 C   0  0  0  0  0  0
  -19.5838  -26.6416   21.5248 C   0  0  0  0  0  0
  -18.1997  -26.7976   22.1578 C   0  0  0  0  0  0
  -19.1532  -28.8906   23.2851 C   0  0  0  0  0  0
  -18.9471  -30.1503   23.8862 C   0  0  0  0  0  0
  -17.6502  -30.6625   24.0529 C   0  0  0  0  0  0
  -25.9036  -34.9476   23.5096 C   0  0  0  0  0  0
  -16.5403  -29.9119   23.6306 C   0  0  0  0  0  0
  -16.7297  -28.6555   23.0324 C   0  0  0  0  0  0
  -26.4485  -31.6606   25.0685 C   0  0  0  0  0  0
  -25.3693  -31.3722   26.1377 C   0  0  0  0  0  0
  -27.0316  -30.3046   24.6071 C   0  0  0  0  0  0
  -27.6069  -32.4312   25.7440 C   0  0  0  0  0  0
  -27.5577  -37.1807   24.8464 C   0  0  0  0  0  0
  -21.4147  -29.3017   22.3653 N   0  0  0  0  0  0
  -26.4300  -37.3780   23.9395 N   0  0  0  0  0  0
  -24.6689  -31.0760   22.0980 N   0  0  0  0  0  0
  -23.4158  -28.8256   23.3083 O   0  0  0  0  0  0
  -28.4318  -26.6777   20.1576 O   0  0  0  0  0  0
  -26.5612  -34.8922   22.4660 O   0  0  0  0  0  0
  -23.5365  -32.1397   23.7487 O   0  0  0  0  0  0
  -30.3871  -19.4659   21.2563 C   0  0  0  0  0  0
  -28.1948  -20.5163   21.1516 C   0  0  0  0  0  0
  -28.3894  -18.0715   21.2218 C   0  0  0  0  0  0
  -29.6001  -20.6557   21.1623 C   0  0  0  0  0  0
  -29.7940  -18.1637   21.2917 C   0  0  0  0  0  0
  -27.6015  -19.2391   21.1718 C   0  0  0  0  0  0
  -29.5385  -24.4466   20.4597 C   0  0  0  0  0  0
  -30.2345  -22.0672   21.1105 C   0  0  0  0  0  0
  -30.6774  -16.9055   21.4561 C   0  0  0  0  0  0
  -28.3868  -25.2712   19.8137 C   0  0  0  0  0  0
  -29.3610  -23.1065   20.5236 N   0  0  0  0  0  0
  -30.0949  -15.5507   21.2252 N   0  0  0  0  0  0
  -30.5548  -25.0033   20.8883 O   0  0  0  0  0  0
  -25.8829  -19.1102   21.1378 Cl  0  0  0  0  0  0
  -31.4598  -12.4330   19.1205 H   0  0  0  0  0  0
  -30.3207  -11.3381   19.8345 H   0  0  0  0  0  0
  -29.7373  -11.7757   17.4430 H   0  0  0  0  0  0
  -29.6462  -13.4951   17.7612 H   0  0  0  0  0  0
  -27.8394  -11.3053   18.8386 H   0  0  0  0  0  0
  -27.3612  -12.6226   17.7972 H   0  0  0  0  0  0
  -27.6938  -14.2637   19.5709 H   0  0  0  0  0  0
  -28.6919  -12.0003   21.3525 H   0  0  0  0  0  0
  -28.4575  -13.6537   21.8557 H   0  0  0  0  0  0
  -25.2780   -9.5644   22.4733 H   0  0  0  0  0  0
  -23.9991   -7.4635   22.7481 H   0  0  0  0  0  0
  -21.0842   -8.8795   19.8967 H   0  0  0  0  0  0
  -22.3749  -10.9660   19.6151 H   0  0  0  0  0  0
  -21.2013   -7.6145   23.9722 H   0  0  0  0  0  0
  -21.1476   -6.0510   25.9074 H   0  0  0  0  0  0
  -22.0603   -2.7608   23.2848 H   0  0  0  0  0  0
  -22.4119  -11.9970   22.4865 H   0  0  0  0  0  0
  -21.1076  -13.1215   22.2576 H   0  0  0  0  0  0
  -24.6365  -15.8274   20.4758 H   0  0  0  0  0  0
  -26.2385  -15.6220   19.9861 H   0  0  0  0  0  0
  -26.7101  -32.5554   23.1117 H   0  0  0  0  0  0
  -25.0019  -33.9756   25.0401 H   0  0  0  0  0  0
  -22.6954  -31.3056   21.4089 H   0  0  0  0  0  0
  -23.3746  -35.9653   23.3317 H   0  0  0  0  0  0
  -24.3568  -36.8907   22.2041 H   0  0  0  0  0  0
  -23.7279  -37.6521   23.6647 H   0  0  0  0  0  0
  -26.0474  -31.5969   20.5975 H   0  0  0  0  0  0
  -26.8187  -30.8808   21.9853 H   0  0  0  0  0  0
  -28.1057  -29.1009   21.1685 H   0  0  0  0  0  0
  -26.0448  -25.9831   18.9845 H   0  0  0  0  0  0
  -24.0028  -27.2939   19.0091 H   0  0  0  0  0  0
  -23.7087  -30.5829   19.3992 H   0  0  0  0  0  0
  -22.7429  -29.2220   19.8817 H   0  0  0  0  0  0
  -25.1330  -36.1932   25.0819 H   0  0  0  0  0  0
  -20.9860  -28.3484   24.1486 H   0  0  0  0  0  0
  -20.5534  -26.2438   23.3819 H   0  0  0  0  0  0
  -21.6685  -26.7366   22.1495 H   0  0  0  0  0  0
  -19.6838  -27.3254   20.6808 H   0  0  0  0  0  0
  -19.7000  -25.6348   21.1237 H   0  0  0  0  0  0
  -17.4314  -26.6686   21.3950 H   0  0  0  0  0  0
  -18.0417  -26.0164   22.9024 H   0  0  0  0  0  0
  -19.7980  -30.7297   24.2225 H   0  0  0  0  0  0
  -17.5036  -31.6269   24.5212 H   0  0  0  0  0  0
  -15.5408  -30.3010   23.7680 H   0  0  0  0  0  0
  -15.8641  -28.0918   22.7108 H   0  0  0  0  0  0
  -24.5908  -30.7054   25.7650 H   0  0  0  0  0  0
  -24.8836  -32.2867   26.4764 H   0  0  0  0  0  0
  -25.7955  -30.8896   27.0174 H   0  0  0  0  0  0
  -26.2867  -29.6766   24.1150 H   0  0  0  0  0  0
  -27.4099  -29.7345   25.4565 H   0  0  0  0  0  0
  -27.8692  -30.4365   23.9219 H   0  0  0  0  0  0
  -27.2739  -33.3635   26.2029 H   0  0  0  0  0  0
  -28.3876  -32.6818   25.0236 H   0  0  0  0  0  0
  -28.0725  -31.8393   26.5329 H   0  0  0  0  0  0
  -28.2631  -38.0065   24.7488 H   0  0  0  0  0  0
  -28.1038  -36.2603   24.6351 H   0  0  0  0  0  0
  -27.2272  -37.1533   25.8856 H   0  0  0  0  0  0
  -20.9365  -29.8492   21.6641 H   0  0  0  0  0  0
  -26.0186  -38.2865   24.1338 H   0  0  0  0  0  0
  -31.4641  -19.5521   21.3107 H   0  0  0  0  0  0
  -27.5516  -21.3869   21.1318 H   0  0  0  0  0  0
  -27.8964  -17.1066   21.2254 H   0  0  0  0  0  0
  -31.1737  -22.0218   20.5562 H   0  0  0  0  0  0
  -30.4832  -22.3733   22.1277 H   0  0  0  0  0  0
  -31.5511  -17.0572   20.8238 H   0  0  0  0  0  0
  -31.0480  -16.9310   22.4828 H   0  0  0  0  0  0
  -27.4555  -24.8100   20.1506 H   0  0  0  0  0  0
  -28.4438  -25.1776   18.7257 H   0  0  0  0  0  0
  -28.4861  -22.7660   20.1563 H   0  0  0  0  0  0
  -29.1848  -15.3578   21.6155 H   0  0  0  0  0  0
  1 25  1  0  0  0
  1 30  2  0  0  0
  1 82  1  0  0  0
  2  3  1  0  0  0
  2 25  1  0  0  0
  2 85  1  0  0  0
  2 86  1  0  0  0
  3  4  1  0  0  0
  3 87  1  0  0  0
  3 88  1  0  0  0
  4  5  1  0  0  0
  4 89  1  0  0  0
  4 90  1  0  0  0
  5  6  1  0  0  0
  5 26  1  0  0  0
  5 91  1  0  0  0
  6 25  1  0  0  0
  6 92  1  0  0  0
  6 93  1  0  0  0
  7  8  2  0  0  0
  7 26  1  0  0  0
  7 29  1  0  0  0
  8  9  1  0  0  0
  8 22  1  0  0  0
  9 10  1  0  0  0
  9 27  2  0  0  0
 10 11  2  0  0  0
 10 15  1  0  0  0
 11 12  1  0  0  0
 11 94  1  0  0  0
 12 13  2  0  0  0
 12 95  1  0  0  0
 13 14  1  0  0  0
 13 31  1  0  0  0
 14 15  2  0  0  0
 14 96  1  0  0  0
 15 97  1  0  0  0
 16 17  2  0  0  0
 16 21  1  0  0  0
 16 31  1  0  0  0
 17 18  1  0  0  0
 17 98  1  0  0  0
 18 19  2  0  0  0
 18 99  1  0  0  0
 19 20  1  0  0  0
 19 24  1  0  0  0
 20 21  2  0  0  0
 20100  1  0  0  0
 21 23  1  0  0  0
 22 28  1  0  0  0
 22 32  2  0  0  0
 26 27  1  0  0  0
 28101  1  0  0  0
 28102  1  0  0  0
 29103  1  0  0  0
 29104  1  0  0  0
 33 34  1  0  0  0
 33 66  1  0  0  0
 33 70  2  0  0  0
 34 36  1  0  0  0
 34 59  1  0  0  0
 34105  1  0  0  0
 35 44  2  0  0  0
 35 45  1  0  0  0
 35 68  1  0  0  0
 36 56  1  0  0  0
 36106  1  0  0  0
 37 39  1  0  0  0
 37 47  1  0  0  0
 37 66  1  0  0  0
 37107  1  0  0  0
 38 43  2  0  0  0
 38 46  1  0  0  0
 38 47  1  0  0  0
 39 64  1  0  0  0
 39 67  2  0  0  0
 40 52  1  0  0  0
 40 53  2  0  0  0
 40 58  1  0  0  0
 41108  1  0  0  0
 41109  1  0  0  0
 41110  1  0  0  0
 41 48  1  0  0  0
 42 43  1  0  0  0
 42 66  1  0  0  0
 42111  1  0  0  0
 42112  1  0  0  0
 43 44  1  0  0  0
 44113  1  0  0  0
 45 46  2  0  0  0
 45114  1  0  0  0
 46115  1  0  0  0
 47116  1  0  0  0
 47117  1  0  0  0
 48 56  1  0  0  0
 48 65  1  0  0  0
 48118  1  0  0  0
 49 50  1  0  0  0
 49 53  1  0  0  0
 49 64  1  0  0  0
 49119  1  0  0  0
 50 51  1  0  0  0
 50120  1  0  0  0
 50121  1  0  0  0
 51 52  1  0  0  0
 51122  1  0  0  0
 51123  1  0  0  0
 52124  1  0  0  0
 52125  1  0  0  0
 53 54  1  0  0  0
 54 55  2  0  0  0
 54126  1  0  0  0
 55 57  1  0  0  0
 55127  1  0  0  0
 56 69  2  0  0  0
 57 58  2  0  0  0
 57128  1  0  0  0
 58129  1  0  0  0
 59 60  1  0  0  0
 59 61  1  0  0  0
 59 62  1  0  0  0
 60130  1  0  0  0
 60131  1  0  0  0
 60132  1  0  0  0
 61133  1  0  0  0
 61134  1  0  0  0
 61135  1  0  0  0
 62136  1  0  0  0
 62137  1  0  0  0
 62138  1  0  0  0
 63 65  1  0  0  0
 63139  1  0  0  0
 63140  1  0  0  0
 63141  1  0  0  0
 64142  1  0  0  0
 65143  1  0  0  0
 68 80  1  0  0  0
 71 74  2  0  0  0
 71 75  1  0  0  0
 71144  1  0  0  0
 72 74  1  0  0  0
 72 76  2  0  0  0
 72145  1  0  0  0
 73 75  2  0  0  0
 73 76  1  0  0  0
 73146  1  0  0  0
 74 78  1  0  0  0
 75 79  1  0  0  0
 76 84  1  0  0  0
 77 80  1  0  0  0
 77 81  1  0  0  0
 77 83  2  0  0  0
 78 81  1  0  0  0
 78147  1  0  0  0
 78148  1  0  0  0
 79 82  1  0  0  0
 79149  1  0  0  0
 79150  1  0  0  0
 80151  1  0  0  0
 80152  1  0  0  0
 81153  1  0  0  0
 82154  1  0  0  0
M  ISO  4   1 100  68 101  80 101  82 100
M  END
> <chiral flag>
0

> <version>
0

> <s_m_source_file>
/data/baiqing/PycharmProjects/Reinvent-master-3.2/result/LINK_invent/BTK/process_docking_weight1_custom_product_contain_oxygen_bond_distance_aromatic_linkinvent_7_9_3/rearranged_h_0044.sdf

> <i_m_source_file_index>
38

> <r_mmod_Potential_Energy-OPLS-2005>
-183.763397216797

> <r_mmod_Stretch_Energy-OPLS-2005>
49.4899978637695

> <r_mmod_Bend_Energy-OPLS-2005>
106.697380065918

> <r_mmod_Torsional_Energy-OPLS-2005>
185.523025512695

> <r_mmod_Improper_Torsional_Energy-OPLS-2005>
2.89176940917969

> <r_mmod_Van_der_Waal_Energy-OPLS-2005>
149.292236328125

> <r_mmod_Electrostatic_Energy-OPLS-2005>
-450.223693847656

> <r_mmod_Solvation_Energy-OPLS-2005>
-245.730560302734

> <b_mmod_Minimization_Converged-OPLS-2005>
0

> <r_mmod_RMS_Derivative-OPLS-2005>
6.86665439605713

$$$$
38
                    3D
 Structure written by MMmdl.
160169  0  0  1  0            999 V2000
  -30.5798  -15.1385   20.4659 C   0  0  0  0  0  0
  -30.4196  -12.7295   19.5075 C   0  0  0  0  0  0
  -29.4967  -12.5661   18.2670 C   0  0  0  0  0  0
  -28.0503  -12.3031   18.7158 C   0  0  0  0  0  0
  -27.6151  -13.2729   19.8419 C   0  0  2  0  0  0
  -28.6644  -13.4215   20.9683 C   0  0  0  0  0  0
  -25.2388  -13.8266   20.5888 C   0  0  0  0  0  0
  -24.1704  -13.0407   20.9301 C   0  0  0  0  0  0
  -24.6364  -11.6921   20.8787 C   0  0  0  0  0  0
  -23.9069  -10.4275   21.0415 C   0  0  0  0  0  0
  -24.3622   -9.4183   21.9201 C   0  0  0  0  0  0
  -23.6281   -8.2194   22.0781 C   0  0  0  0  0  0
  -22.4284   -8.0243   21.3539 C   0  0  0  0  0  0
  -21.9918   -9.0231   20.4661 C   0  0  0  0  0  0
  -22.7231  -10.2094   20.3055 C   0  0  0  0  0  0
  -21.6894   -6.0687   22.5263 C   0  0  0  0  0  0
  -21.4003   -6.5614   23.8180 C   0  0  0  0  0  0
  -21.3637   -5.6824   24.9164 C   0  0  0  0  0  0
  -21.6075   -4.3072   24.7258 C   0  0  0  0  0  0
  -21.8793   -3.8112   23.4402 C   0  0  0  0  0  0
  -21.9192   -4.6920   22.3424 C   0  0  0  0  0  0
  -22.7709  -13.5121   21.1933 C   0  0  0  0  0  0
  -22.1668   -4.2057   21.1012 F   0  0  0  0  0  0
  -21.5656   -3.4578   25.7783 F   0  0  0  0  0  0
  -29.9219  -13.8851   20.3439 N   0  0  0  0  0  0
  -26.2790  -12.9530   20.3384 N   0  0  0  0  0  0
  -25.9298  -11.6615   20.5810 N   0  0  0  0  0  0
  -22.0499  -12.8008   22.0531 N   0  0  0  0  0  0
  -25.4157  -15.1953   20.4215 N   0  0  0  0  0  0
  -31.7974  -15.0830   20.2690 O   0  0  0  0  0  0
  -21.6655   -6.8818   21.4228 O   0  0  0  0  0  0
  -22.3337  -14.5471   20.6944 O   0  0  0  0  0  0
  -24.6564  -31.8305   23.1642 C   0  0  0  0  0  0
  -25.9283  -32.4580   23.8117 C   0  0  1  0  0  0
  -27.2555  -27.0014   20.1746 C   0  0  0  0  0  0
  -25.5967  -33.8412   24.2032 N   0  0  0  0  0  0
  -23.4674  -30.4299   21.5143 C   0  0  2  0  0  0
  -24.9236  -28.8202   20.1030 C   0  0  0  0  0  0
  -22.7599  -29.4486   22.4821 C   0  0  0  0  0  0
  -18.0349  -28.1393   22.8414 C   0  0  0  0  0  0
  -24.1551  -36.7243   23.2658 C   0  0  0  0  0  0
  -26.0272  -30.6500   21.3914 C   0  0  0  0  0  0
  -26.1005  -29.2495   20.7301 C   0  0  0  0  0  0
  -27.2516  -28.3578   20.7458 C   0  0  0  0  0  0
  -26.0550  -26.6941   19.4979 C   0  0  0  0  0  0
  -24.9225  -27.5564   19.4715 C   0  0  0  0  0  0
  -23.6966  -29.7295   20.1417 C   0  0  0  0  0  0
  -25.4181  -36.2988   24.0293 C   0  0  1  0  0  0
  -20.5930  -28.3744   23.1180 C   0  0  2  0  0  0
  -20.6824  -26.9428   22.5386 C   0  0  0  0  0  0
  -19.5815  -26.6353   21.5188 C   0  0  0  0  0  0
  -18.2009  -26.7911   22.1600 C   0  0  0  0  0  0
  -19.1588  -28.8896   23.2767 C   0  0  0  0  0  0
  -18.9501  -30.1476   23.8757 C   0  0  0  0  0  0
  -17.6508  -30.6563   24.0548 C   0  0  0  0  0  0
  -25.9144  -34.9356   23.5002 C   0  0  0  0  0  0
  -16.5398  -29.9040   23.6342 C   0  0  0  0  0  0
  -16.7336  -28.6491   23.0309 C   0  0  0  0  0  0
  -26.4500  -31.6490   25.0639 C   0  0  0  0  0  0
  -25.3573  -31.3788   26.1249 C   0  0  0  0  0  0
  -27.0419  -30.2841   24.6417 C   0  0  0  0  0  0
  -27.5999  -32.4275   25.7436 C   0  0  0  0  0  0
  -27.5608  -37.1798   24.8456 C   0  0  0  0  0  0
  -21.4302  -29.3010   22.3511 N   0  0  0  0  0  0
  -26.4348  -37.3690   23.9364 N   0  0  0  0  0  0
  -24.7357  -30.9976   22.0777 N   0  0  0  0  0  0
  -23.4173  -28.8139   23.3136 O   0  0  0  0  0  0
  -28.3292  -25.9956   20.3220 O   0  0  0  0  0  0
  -26.5749  -34.8909   22.4605 O   0  0  0  0  0  0
  -23.5616  -32.1357   23.6707 O   0  0  0  0  0  0
  -32.5898  -18.7413   20.6991 C   0  0  0  0  0  0
  -32.2988  -19.2434   19.4130 C   0  0  0  0  0  0
  -29.9330  -19.2597   20.0296 C   0  0  0  0  0  0
  -31.5663  -18.1067   21.4375 C   0  0  0  0  0  0
  -30.3017  -17.9687   20.7935 C   0  0  0  0  0  0
  -30.9427  -19.4660   19.0493 C   0  0  0  0  0  0
  -28.0208  -21.5398   19.9185 C   0  0  0  0  0  0
  -30.2588  -22.1530   20.3369 C   0  0  0  0  0  0
  -27.5500  -23.1346   20.1860 C   0  0  0  0  0  0
  -29.7640  -23.6796   20.7227 C   0  0  0  0  0  0
  -29.3493  -20.8203   20.5335 C   0  0  2  0  0  0
  -28.5324  -24.4135   19.9760 C   0  0  2  0  0  0
  -31.9260  -17.4529   22.7790 C   0  0  0  0  0  0
  -29.8940  -16.4425   20.5490 N   0  0  0  0  0  0
  -30.6018  -20.2407   17.5386 Cl  0  0  0  0  0  0
  -31.4487  -12.8729   19.1930 H   0  0  0  0  0  0
  -30.4205  -11.8047   20.0971 H   0  0  0  0  0  0
  -29.8325  -11.7465   17.6310 H   0  0  0  0  0  0
  -29.5252  -13.4665   17.6483 H   0  0  0  0  0  0
  -27.9999  -11.2794   19.0882 H   0  0  0  0  0  0
  -27.3499  -12.3555   17.8758 H   0  0  0  0  0  0
  -27.5366  -14.2433   19.3478 H   0  0  0  0  0  0
  -28.8072  -12.4753   21.4937 H   0  0  0  0  0  0
  -28.3206  -14.1434   21.7162 H   0  0  0  0  0  0
  -25.2759   -9.5631   22.4791 H   0  0  0  0  0  0
  -24.0012   -7.4581   22.7481 H   0  0  0  0  0  0
  -21.0869   -8.8671   19.8961 H   0  0  0  0  0  0
  -22.3671  -10.9617   19.6153 H   0  0  0  0  0  0
  -21.1971   -7.6107   23.9615 H   0  0  0  0  0  0
  -21.1527   -6.0588   25.9060 H   0  0  0  0  0  0
  -22.0609   -2.7560   23.2934 H   0  0  0  0  0  0
  -22.4246  -11.9565   22.4578 H   0  0  0  0  0  0
  -21.1134  -13.0843   22.2979 H   0  0  0  0  0  0
  -24.6824  -15.8832   20.5411 H   0  0  0  0  0  0
  -26.2690  -15.5969   20.0545 H   0  0  0  0  0  0
  -26.7371  -32.5135   23.0831 H   0  0  0  0  0  0
  -24.9940  -33.9547   25.0065 H   0  0  0  0  0  0
  -22.7764  -31.2541   21.3336 H   0  0  0  0  0  0
  -23.3817  -35.9581   23.3319 H   0  0  0  0  0  0
  -24.3633  -36.8887   22.2066 H   0  0  0  0  0  0
  -23.7315  -37.6454   23.6704 H   0  0  0  0  0  0
  -26.2134  -31.4013   20.6257 H   0  0  0  0  0  0
  -26.8783  -30.6890   22.0559 H   0  0  0  0  0  0
  -28.1311  -28.6800   21.2834 H   0  0  0  0  0  0
  -25.9539  -25.7199   19.0331 H   0  0  0  0  0  0
  -24.0225  -27.2096   18.9795 H   0  0  0  0  0  0
  -23.8247  -30.4852   19.3713 H   0  0  0  0  0  0
  -22.8136  -29.1584   19.8553 H   0  0  0  0  0  0
  -25.1391  -36.1797   25.0778 H   0  0  0  0  0  0
  -21.0002  -28.3359   24.1329 H   0  0  0  0  0  0
  -20.5729  -26.2363   23.3638 H   0  0  0  0  0  0
  -21.6706  -26.7462   22.1160 H   0  0  0  0  0  0
  -19.7028  -25.6253   21.1240 H   0  0  0  0  0  0
  -19.6749  -27.3129   20.6684 H   0  0  0  0  0  0
  -17.4257  -26.6583   21.4025 H   0  0  0  0  0  0
  -18.0463  -26.0083   22.9040 H   0  0  0  0  0  0
  -19.8006  -30.7321   24.2037 H   0  0  0  0  0  0
  -17.5100  -31.6238   24.5173 H   0  0  0  0  0  0
  -15.5406  -30.2918   23.7773 H   0  0  0  0  0  0
  -15.8752  -28.0834   22.7022 H   0  0  0  0  0  0
  -24.5709  -30.7234   25.7481 H   0  0  0  0  0  0
  -24.8840  -32.3027   26.4542 H   0  0  0  0  0  0
  -25.7708  -30.8936   27.0094 H   0  0  0  0  0  0
  -26.3124  -29.6437   24.1442 H   0  0  0  0  0  0
  -27.3950  -29.7248   25.5105 H   0  0  0  0  0  0
  -27.9039  -30.3998   23.9847 H   0  0  0  0  0  0
  -27.2547  -33.3561   26.1983 H   0  0  0  0  0  0
  -28.3788  -32.6852   25.0245 H   0  0  0  0  0  0
  -28.0689  -31.8429   26.5360 H   0  0  0  0  0  0
  -28.2578  -38.0136   24.7492 H   0  0  0  0  0  0
  -28.1146  -36.2659   24.6287 H   0  0  0  0  0  0
  -27.2324  -37.1405   25.8861 H   0  0  0  0  0  0
  -20.9626  -29.8645   21.6558 H   0  0  0  0  0  0
  -26.0218  -38.2796   24.1255 H   0  0  0  0  0  0
  -33.6089  -18.7358   21.0694 H   0  0  0  0  0  0
  -33.1025  -19.5434   18.7560 H   0  0  0  0  0  0
  -28.0688  -21.4070   18.8346 H   0  0  0  0  0  0
  -27.1795  -20.9243   20.2376 H   0  0  0  0  0  0
  -31.2071  -21.9867   20.8566 H   0  0  0  0  0  0
  -30.5185  -22.2245   19.2846 H   0  0  0  0  0  0
  -26.6932  -23.3009   19.5318 H   0  0  0  0  0  0
  -27.1450  -23.2171   21.1960 H   0  0  0  0  0  0
  -30.6344  -24.3227   20.6156 H   0  0  0  0  0  0
  -29.5403  -23.6983   21.7909 H   0  0  0  0  0  0
  -29.1845  -20.7097   21.6021 H   0  0  0  0  0  0
  -28.7866  -24.4130   18.9144 H   0  0  0  0  0  0
  -32.4808  -18.1547   23.4130 H   0  0  0  0  0  0
  -32.5648  -16.5787   22.6446 H   0  0  0  0  0  0
  -31.0465  -17.1515   23.3563 H   0  0  0  0  0  0
  -28.9038  -16.3359   20.4082 H   0  0  0  0  0  0
  1 25  1  0  0  0
  1 30  2  0  0  0
  1 84  1  0  0  0
  2  3  1  0  0  0
  2 25  1  0  0  0
  2 86  1  0  0  0
  2 87  1  0  0  0
  3  4  1  0  0  0
  3 88  1  0  0  0
  3 89  1  0  0  0
  4  5  1  0  0  0
  4 90  1  0  0  0
  4 91  1  0  0  0
  5  6  1  0  0  0
  5 26  1  0  0  0
  5 92  1  0  0  0
  6 25  1  0  0  0
  6 93  1  0  0  0
  6 94  1  0  0  0
  7  8  2  0  0  0
  7 26  1  0  0  0
  7 29  1  0  0  0
  8  9  1  0  0  0
  8 22  1  0  0  0
  9 10  1  0  0  0
  9 27  2  0  0  0
 10 11  2  0  0  0
 10 15  1  0  0  0
 11 12  1  0  0  0
 11 95  1  0  0  0
 12 13  2  0  0  0
 12 96  1  0  0  0
 13 14  1  0  0  0
 13 31  1  0  0  0
 14 15  2  0  0  0
 14 97  1  0  0  0
 15 98  1  0  0  0
 16 17  2  0  0  0
 16 21  1  0  0  0
 16 31  1  0  0  0
 17 18  1  0  0  0
 17 99  1  0  0  0
 18 19  2  0  0  0
 18100  1  0  0  0
 19 20  1  0  0  0
 19 24  1  0  0  0
 20 21  2  0  0  0
 20101  1  0  0  0
 21 23  1  0  0  0
 22 28  1  0  0  0
 22 32  2  0  0  0
 26 27  1  0  0  0
 28102  1  0  0  0
 28103  1  0  0  0
 29104  1  0  0  0
 29105  1  0  0  0
 33 34  1  0  0  0
 33 66  1  0  0  0
 33 70  2  0  0  0
 34 36  1  0  0  0
 34 59  1  0  0  0
 34106  1  0  0  0
 35 44  2  0  0  0
 35 45  1  0  0  0
 35 68  1  0  0  0
 36 56  1  0  0  0
 36107  1  0  0  0
 37 39  1  0  0  0
 37 47  1  0  0  0
 37 66  1  0  0  0
 37108  1  0  0  0
 38 43  2  0  0  0
 38 46  1  0  0  0
 38 47  1  0  0  0
 39 64  1  0  0  0
 39 67  2  0  0  0
 40 52  1  0  0  0
 40 53  2  0  0  0
 40 58  1  0  0  0
 41109  1  0  0  0
 41110  1  0  0  0
 41111  1  0  0  0
 41 48  1  0  0  0
 42 43  1  0  0  0
 42 66  1  0  0  0
 42112  1  0  0  0
 42113  1  0  0  0
 43 44  1  0  0  0
 44114  1  0  0  0
 45 46  2  0  0  0
 45115  1  0  0  0
 46116  1  0  0  0
 47117  1  0  0  0
 47118  1  0  0  0
 48 56  1  0  0  0
 48 65  1  0  0  0
 48119  1  0  0  0
 49 50  1  0  0  0
 49 53  1  0  0  0
 49 64  1  0  0  0
 49120  1  0  0  0
 50 51  1  0  0  0
 50121  1  0  0  0
 50122  1  0  0  0
 51 52  1  0  0  0
 51123  1  0  0  0
 51124  1  0  0  0
 52125  1  0  0  0
 52126  1  0  0  0
 53 54  1  0  0  0
 54 55  2  0  0  0
 54127  1  0  0  0
 55 57  1  0  0  0
 55128  1  0  0  0
 56 69  2  0  0  0
 57 58  2  0  0  0
 57129  1  0  0  0
 58130  1  0  0  0
 59 60  1  0  0  0
 59 61  1  0  0  0
 59 62  1  0  0  0
 60131  1  0  0  0
 60132  1  0  0  0
 60133  1  0  0  0
 61134  1  0  0  0
 61135  1  0  0  0
 61136  1  0  0  0
 62137  1  0  0  0
 62138  1  0  0  0
 62139  1  0  0  0
 63 65  1  0  0  0
 63140  1  0  0  0
 63141  1  0  0  0
 63142  1  0  0  0
 64143  1  0  0  0
 65144  1  0  0  0
 68 82  1  0  0  0
 71 72  2  0  0  0
 71 74  1  0  0  0
 71145  1  0  0  0
 72 76  1  0  0  0
 72146  1  0  0  0
 73 75  1  0  0  0
 73 76  2  0  0  0
 73 81  1  0  0  0
 74 75  2  0  0  0
 74 83  1  0  0  0
 75 84  1  0  0  0
 76 85  1  0  0  0
 77 79  1  0  0  0
 77 81  1  0  0  0
 77147  1  0  0  0
 77148  1  0  0  0
 78 80  1  0  0  0
 78 81  1  0  0  0
 78149  1  0  0  0
 78150  1  0  0  0
 79 82  1  0  0  0
 79151  1  0  0  0
 79152  1  0  0  0
 80 82  1  0  0  0
 80153  1  0  0  0
 80154  1  0  0  0
 81155  1  0  0  0
 82156  1  0  0  0
 83157  1  0  0  0
 83158  1  0  0  0
 83159  1  0  0  0
 84160  1  0  0  0
M  ISO  4   1 100  68 101  82 101  84 100
M  END
> <chiral flag>
0

> <version>
0

> <s_m_source_file>
/data/baiqing/PycharmProjects/Reinvent-master-3.2/result/LINK_invent/BTK/process_docking_weight1_custom_product_contain_oxygen_bond_distance_aromatic_linkinvent_7_9_3/rearranged_h_0044.sdf

> <i_m_source_file_index>
39

> <r_mmod_Potential_Energy-OPLS-2005>
1344.77368164062

> <r_mmod_Stretch_Energy-OPLS-2005>
462.944732666016

> <r_mmod_Bend_Energy-OPLS-2005>
460.965881347656

> <r_mmod_Torsional_Energy-OPLS-2005>
493.394439697266

> <r_mmod_Improper_Torsional_Energy-OPLS-2005>
31.3429355621338

> <r_mmod_Van_der_Waal_Energy-OPLS-2005>
128.091430664062

> <r_mmod_Electrostatic_Energy-OPLS-2005>
-367.145263671875

> <r_mmod_Solvation_Energy-OPLS-2005>
-201.977157592773

> <b_mmod_Minimization_Converged-OPLS-2005>
0

> <r_mmod_RMS_Derivative-OPLS-2005>
10.7600984573364

$$$$
39
                    3D
 Structure written by MMmdl.
164173  0  0  1  0            999 V2000
  -30.6941  -14.5947   20.5117 C   0  0  0  0  0  0
  -30.4198  -12.3638   19.4572 C   0  0  0  0  0  0
  -29.5003  -12.4826   18.2234 C   0  0  0  0  0  0
  -28.0238  -12.3389   18.6373 C   0  0  0  0  0  0
  -27.6506  -13.2208   19.8594 C   0  0  2  0  0  0
  -28.6965  -13.1080   20.9920 C   0  0  0  0  0  0
  -25.2546  -13.8181   20.5728 C   0  0  0  0  0  0
  -24.1810  -13.0426   20.9198 C   0  0  0  0  0  0
  -24.6388  -11.6912   20.8734 C   0  0  0  0  0  0
  -23.9053  -10.4296   21.0398 C   0  0  0  0  0  0
  -24.3609   -9.4219   21.9188 C   0  0  0  0  0  0
  -23.6300   -8.2253   22.0764 C   0  0  0  0  0  0
  -22.4284   -8.0277   21.3544 C   0  0  0  0  0  0
  -21.9922   -9.0234   20.4635 C   0  0  0  0  0  0
  -22.7237  -10.2126   20.3043 C   0  0  0  0  0  0
  -21.6853   -6.0733   22.5273 C   0  0  0  0  0  0
  -21.4005   -6.5632   23.8210 C   0  0  0  0  0  0
  -21.3665   -5.6789   24.9172 C   0  0  0  0  0  0
  -21.6052   -4.3052   24.7221 C   0  0  0  0  0  0
  -21.8821   -3.8148   23.4339 C   0  0  0  0  0  0
  -21.9197   -4.6960   22.3397 C   0  0  0  0  0  0
  -22.7836  -13.5222   21.1864 C   0  0  0  0  0  0
  -22.1669   -4.2144   21.0980 F   0  0  0  0  0  0
  -21.5641   -3.4541   25.7734 F   0  0  0  0  0  0
  -30.0169  -13.4091   20.4192 N   0  0  0  0  0  0
  -26.2976  -12.9381   20.3334 N   0  0  0  0  0  0
  -25.9320  -11.6525   20.5763 N   0  0  0  0  0  0
  -22.0486  -12.8192   22.0407 N   0  0  0  0  0  0
  -25.4260  -15.1899   20.4215 N   0  0  0  0  0  0
  -31.8599  -14.6939   20.1217 O   0  0  0  0  0  0
  -21.6647   -6.8873   21.4240 O   0  0  0  0  0  0
  -22.3536  -14.5550   20.6752 O   0  0  0  0  0  0
  -24.6230  -31.8612   23.2066 C   0  0  0  0  0  0
  -25.9078  -32.4808   23.8408 C   0  0  1  0  0  0
  -27.2355  -27.3365   20.1354 C   0  0  0  0  0  0
  -25.5886  -33.8614   24.2324 N   0  0  0  0  0  0
  -23.4180  -30.4800   21.5480 C   0  0  2  0  0  0
  -24.8663  -28.9237   20.1290 C   0  0  0  0  0  0
  -22.7452  -29.4621   22.4978 C   0  0  0  0  0  0
  -18.0261  -28.1414   22.8497 C   0  0  0  0  0  0
  -24.1455  -36.7324   23.2640 C   0  0  0  0  0  0
  -25.9542  -30.7937   21.3763 C   0  0  0  0  0  0
  -26.0301  -29.4149   20.7353 C   0  0  0  0  0  0
  -27.2173  -28.6312   20.7311 C   0  0  0  0  0  0
  -26.0563  -26.8871   19.5072 C   0  0  0  0  0  0
  -24.8786  -27.6628   19.5081 C   0  0  0  0  0  0
  -23.6359  -29.8068   20.1665 C   0  0  0  0  0  0
  -25.4075  -36.3123   24.0349 C   0  0  1  0  0  0
  -20.5850  -28.3708   23.1299 C   0  0  2  0  0  0
  -20.6744  -26.9437   22.5423 C   0  0  0  0  0  0
  -19.5720  -26.6404   21.5228 C   0  0  0  0  0  0
  -18.1895  -26.7958   22.1634 C   0  0  0  0  0  0
  -19.1512  -28.8879   23.2886 C   0  0  0  0  0  0
  -18.9444  -30.1480   23.8908 C   0  0  0  0  0  0
  -17.6451  -30.6626   24.0571 C   0  0  0  0  0  0
  -25.9015  -34.9482   23.5138 C   0  0  0  0  0  0
  -16.5338  -29.9132   23.6345 C   0  0  0  0  0  0
  -16.7251  -28.6543   23.0369 C   0  0  0  0  0  0
  -26.4470  -31.6629   25.0786 C   0  0  0  0  0  0
  -25.3721  -31.3757   26.1531 C   0  0  0  0  0  0
  -27.0331  -30.3067   24.6239 C   0  0  0  0  0  0
  -27.6023  -32.4372   25.7565 C   0  0  0  0  0  0
  -27.5584  -37.1783   24.8436 C   0  0  0  0  0  0
  -21.4162  -29.3069   22.3721 N   0  0  0  0  0  0
  -26.4248  -37.3827   23.9459 N   0  0  0  0  0  0
  -24.6843  -31.0611   22.1022 N   0  0  0  0  0  0
  -23.4170  -28.8149   23.3051 O   0  0  0  0  0  0
  -28.4011  -26.5765   20.0409 O   0  0  0  0  0  0
  -26.5586  -34.8933   22.4706 O   0  0  0  0  0  0
  -23.5392  -32.1422   23.7377 O   0  0  0  0  0  0
  -31.1755  -19.8595   20.9704 C   0  0  0  0  0  0
  -31.6819  -17.4750   21.2258 C   0  0  0  0  0  0
  -29.8317  -19.5791   20.6311 C   0  0  0  0  0  0
  -29.4380  -18.1851   20.5876 C   0  0  0  0  0  0
  -30.3610  -17.1116   20.8725 C   0  0  0  0  0  0
  -32.0824  -18.8229   21.2700 C   0  0  0  0  0  0
  -27.8341  -22.8612   21.3093 C   0  0  0  0  0  0
  -27.2327  -22.3602   22.4035 C   0  0  0  0  0  0
  -27.4293  -24.1829   20.6045 C   0  0  0  0  0  0
  -29.8713  -24.5683   20.1819 C   0  0  0  0  0  0
  -29.7569  -23.0638   19.7394 C   0  0  0  0  0  0
  -28.5539  -25.2521   20.6705 C   0  0  1  0  0  0
  -28.0094  -17.8350   20.1944 C   0  0  0  0  0  0
  -28.8480  -20.7499   20.2424 C   0  0  0  0  0  0
  -29.9655  -15.7029   20.8508 N   0  0  0  0  0  0
  -29.0669  -22.1787   20.7306 N   0  3  2  0  0  0
  -33.7107  -19.2083   21.6943 Cl  0  0  0  0  0  0
  -31.4656  -12.4500   19.1567 H   0  0  0  0  0  0
  -30.3202  -11.3796   19.9181 H   0  0  0  0  0  0
  -29.7551  -11.7141   17.4926 H   0  0  0  0  0  0
  -29.6551  -13.4411   17.7265 H   0  0  0  0  0  0
  -27.8543  -11.2897   18.8798 H   0  0  0  0  0  0
  -27.3702  -12.5655   17.7944 H   0  0  0  0  0  0
  -27.6618  -14.2492   19.5004 H   0  0  0  0  0  0
  -28.6951  -12.1079   21.4268 H   0  0  0  0  0  0
  -28.4493  -13.7884   21.8075 H   0  0  0  0  0  0
  -25.2746   -9.5711   22.4770 H   0  0  0  0  0  0
  -24.0004   -7.4651   22.7502 H   0  0  0  0  0  0
  -21.0859   -8.8731   19.8938 H   0  0  0  0  0  0
  -22.3684  -10.9650   19.6147 H   0  0  0  0  0  0
  -21.1983   -7.6142   23.9701 H   0  0  0  0  0  0
  -21.1496   -6.0527   25.9073 H   0  0  0  0  0  0
  -22.0596   -2.7605   23.2842 H   0  0  0  0  0  0
  -22.4100  -11.9815   22.4715 H   0  0  0  0  0  0
  -21.1111  -13.1233   22.2648 H   0  0  0  0  0  0
  -24.6635  -15.8457   20.5511 H   0  0  0  0  0  0
  -26.2794  -15.6317   20.1101 H   0  0  0  0  0  0
  -26.7146  -32.5495   23.1163 H   0  0  0  0  0  0
  -25.0051  -33.9780   25.0479 H   0  0  0  0  0  0
  -22.7126  -31.3002   21.4001 H   0  0  0  0  0  0
  -23.3757  -35.9603   23.3202 H   0  0  0  0  0  0
  -24.3567  -36.9055   22.2073 H   0  0  0  0  0  0
  -23.7119  -37.6459   23.6724 H   0  0  0  0  0  0
  -26.0683  -31.5435   20.5926 H   0  0  0  0  0  0
  -26.8413  -30.8594   21.9955 H   0  0  0  0  0  0
  -28.1188  -29.0126   21.1910 H   0  0  0  0  0  0
  -26.0524  -25.9375   18.9930 H   0  0  0  0  0  0
  -23.9922  -27.2846   19.0184 H   0  0  0  0  0  0
  -23.7639  -30.5815   19.4094 H   0  0  0  0  0  0
  -22.7563  -29.2379   19.8607 H   0  0  0  0  0  0
  -25.1223  -36.1985   25.0834 H   0  0  0  0  0  0
  -20.9915  -28.3283   24.1433 H   0  0  0  0  0  0
  -20.5644  -26.2334   23.3627 H   0  0  0  0  0  0
  -21.6612  -26.7475   22.1216 H   0  0  0  0  0  0
  -19.6866  -25.6301   21.1292 H   0  0  0  0  0  0
  -19.6655  -27.3184   20.6726 H   0  0  0  0  0  0
  -17.4161  -26.6719   21.4035 H   0  0  0  0  0  0
  -18.0268  -26.0107   22.9032 H   0  0  0  0  0  0
  -19.7914  -30.7284   24.2294 H   0  0  0  0  0  0
  -17.5012  -31.6309   24.5167 H   0  0  0  0  0  0
  -15.5340  -30.3046   23.7675 H   0  0  0  0  0  0
  -15.8639  -28.0880   22.7092 H   0  0  0  0  0  0
  -24.5845  -30.7163   25.7877 H   0  0  0  0  0  0
  -24.8967  -32.2921   26.5037 H   0  0  0  0  0  0
  -25.8062  -30.8884   27.0273 H   0  0  0  0  0  0
  -26.2932  -29.6830   24.1215 H   0  0  0  0  0  0
  -27.3978  -29.7319   25.4765 H   0  0  0  0  0  0
  -27.8812  -30.4388   23.9516 H   0  0  0  0  0  0
  -27.2637  -33.3692   26.2115 H   0  0  0  0  0  0
  -28.3859  -32.6912   25.0412 H   0  0  0  0  0  0
  -28.0658  -31.8513   26.5517 H   0  0  0  0  0  0
  -28.2487  -38.0195   24.7671 H   0  0  0  0  0  0
  -28.1192  -36.2740   24.6014 H   0  0  0  0  0  0
  -27.2346  -37.1137   25.8838 H   0  0  0  0  0  0
  -20.9336  -29.8880   21.7009 H   0  0  0  0  0  0
  -26.0138  -38.2882   24.1570 H   0  0  0  0  0  0
  -31.5466  -20.8726   20.9996 H   0  0  0  0  0  0
  -32.4176  -16.7228   21.4717 H   0  0  0  0  0  0
  -26.3799  -22.8525   22.8477 H   0  0  0  0  0  0
  -27.5826  -21.4572   22.8842 H   0  0  0  0  0  0
  -26.5273  -24.5701   21.0792 H   0  0  0  0  0  0
  -27.1629  -23.9660   19.5701 H   0  0  0  0  0  0
  -30.2718  -25.1321   19.3396 H   0  0  0  0  0  0
  -30.6242  -24.6520   20.9654 H   0  0  0  0  0  0
  -30.7462  -22.6605   19.5233 H   0  0  0  0  0  0
  -29.2083  -23.0283   18.7964 H   0  0  0  0  0  0
  -28.6915  -25.4701   21.7312 H   0  0  0  0  0  0
  -27.6668  -18.4532   19.3642 H   0  0  0  0  0  0
  -27.3393  -17.9840   21.0412 H   0  0  0  0  0  0
  -27.9073  -16.8045   19.8626 H   0  0  0  0  0  0
  -27.8651  -20.4471   20.5993 H   0  0  0  0  0  0
  -28.7511  -20.7543   19.1567 H   0  0  0  0  0  0
  -28.9904  -15.5162   21.0211 H   0  0  0  0  0  0
  -29.7184  -22.0807   21.4940 H   0  0  0  0  0  0
  1 25  1  0  0  0
  1 30  2  0  0  0
  1 85  1  0  0  0
  2  3  1  0  0  0
  2 25  1  0  0  0
  2 88  1  0  0  0
  2 89  1  0  0  0
  3  4  1  0  0  0
  3 90  1  0  0  0
  3 91  1  0  0  0
  4  5  1  0  0  0
  4 92  1  0  0  0
  4 93  1  0  0  0
  5  6  1  0  0  0
  5 26  1  0  0  0
  5 94  1  0  0  0
  6 25  1  0  0  0
  6 95  1  0  0  0
  6 96  1  0  0  0
  7  8  2  0  0  0
  7 26  1  0  0  0
  7 29  1  0  0  0
  8  9  1  0  0  0
  8 22  1  0  0  0
  9 10  1  0  0  0
  9 27  2  0  0  0
 10 11  2  0  0  0
 10 15  1  0  0  0
 11 12  1  0  0  0
 11 97  1  0  0  0
 12 13  2  0  0  0
 12 98  1  0  0  0
 13 14  1  0  0  0
 13 31  1  0  0  0
 14 15  2  0  0  0
 14 99  1  0  0  0
 15100  1  0  0  0
 16 17  2  0  0  0
 16 21  1  0  0  0
 16 31  1  0  0  0
 17 18  1  0  0  0
 17101  1  0  0  0
 18 19  2  0  0  0
 18102  1  0  0  0
 19 20  1  0  0  0
 19 24  1  0  0  0
 20 21  2  0  0  0
 20103  1  0  0  0
 21 23  1  0  0  0
 22 28  1  0  0  0
 22 32  2  0  0  0
 26 27  1  0  0  0
 28104  1  0  0  0
 28105  1  0  0  0
 29106  1  0  0  0
 29107  1  0  0  0
 33 34  1  0  0  0
 33 66  1  0  0  0
 33 70  2  0  0  0
 34 36  1  0  0  0
 34 59  1  0  0  0
 34108  1  0  0  0
 35 44  2  0  0  0
 35 45  1  0  0  0
 35 68  1  0  0  0
 36 56  1  0  0  0
 36109  1  0  0  0
 37 39  1  0  0  0
 37 47  1  0  0  0
 37 66  1  0  0  0
 37110  1  0  0  0
 38 43  2  0  0  0
 38 46  1  0  0  0
 38 47  1  0  0  0
 39 64  1  0  0  0
 39 67  2  0  0  0
 40 52  1  0  0  0
 40 53  2  0  0  0
 40 58  1  0  0  0
 41111  1  0  0  0
 41112  1  0  0  0
 41113  1  0  0  0
 41 48  1  0  0  0
 42 43  1  0  0  0
 42 66  1  0  0  0
 42114  1  0  0  0
 42115  1  0  0  0
 43 44  1  0  0  0
 44116  1  0  0  0
 45 46  2  0  0  0
 45117  1  0  0  0
 46118  1  0  0  0
 47119  1  0  0  0
 47120  1  0  0  0
 48 56  1  0  0  0
 48 65  1  0  0  0
 48121  1  0  0  0
 49 50  1  0  0  0
 49 53  1  0  0  0
 49 64  1  0  0  0
 49122  1  0  0  0
 50 51  1  0  0  0
 50123  1  0  0  0
 50124  1  0  0  0
 51 52  1  0  0  0
 51125  1  0  0  0
 51126  1  0  0  0
 52127  1  0  0  0
 52128  1  0  0  0
 53 54  1  0  0  0
 54 55  2  0  0  0
 54129  1  0  0  0
 55 57  1  0  0  0
 55130  1  0  0  0
 56 69  2  0  0  0
 57 58  2  0  0  0
 57131  1  0  0  0
 58132  1  0  0  0
 59 60  1  0  0  0
 59 61  1  0  0  0
 59 62  1  0  0  0
 60133  1  0  0  0
 60134  1  0  0  0
 60135  1  0  0  0
 61136  1  0  0  0
 61137  1  0  0  0
 61138  1  0  0  0
 62139  1  0  0  0
 62140  1  0  0  0
 62141  1  0  0  0
 63 65  1  0  0  0
 63142  1  0  0  0
 63143  1  0  0  0
 63144  1  0  0  0
 64145  1  0  0  0
 65146  1  0  0  0
 68 82  1  0  0  0
 71 73  2  0  0  0
 71 76  1  0  0  0
 71147  1  0  0  0
 72 75  1  0  0  0
 72 76  2  0  0  0
 72148  1  0  0  0
 73 74  1  0  0  0
 73 84  1  0  0  0
 74 75  2  0  0  0
 74 83  1  0  0  0
 75 85  1  0  0  0
 76 87  1  0  0  0
 77 78  2  0  0  0
 77 79  1  0  0  0
 77 86  1  0  0  0
 78149  1  0  0  0
 78150  1  0  0  0
 79 82  1  0  0  0
 79151  1  0  0  0
 79152  1  0  0  0
 80 81  1  0  0  0
 80 82  1  0  0  0
 80153  1  0  0  0
 80154  1  0  0  0
 81 86  1  0  0  0
 81155  1  0  0  0
 81156  1  0  0  0
 82157  1  0  0  0
 83158  1  0  0  0
 83159  1  0  0  0
 83160  1  0  0  0
 84161  1  0  0  0
 84162  1  0  0  0
 84 86  1  0  0  0
 85163  1  0  0  0
 86164  1  0  0  0
M  CHG  1  86   1
M  ISO  4   1 100  68 101  82 101  85 100
M  END
> <chiral flag>
0

> <version>
0

> <s_m_source_file>
/data/baiqing/PycharmProjects/Reinvent-master-3.2/result/LINK_invent/BTK/process_docking_weight1_custom_product_contain_oxygen_bond_distance_aromatic_linkinvent_7_9_3/rearranged_h_0044.sdf

> <i_m_source_file_index>
40

> <r_mmod_Potential_Energy-OPLS-2005>
-34.4639320373535

> <r_mmod_Stretch_Energy-OPLS-2005>
78.8414840698242

> <r_mmod_Bend_Energy-OPLS-2005>
149.2587890625

> <r_mmod_Torsional_Energy-OPLS-2005>
268.42138671875

> <r_mmod_Improper_Torsional_Energy-OPLS-2005>
5.13956022262573

> <r_mmod_Van_der_Waal_Energy-OPLS-2005>
152.154083251953

> <r_mmod_Electrostatic_Energy-OPLS-2005>
-264.369567871094

> <r_mmod_Solvation_Energy-OPLS-2005>
-459.215393066406

> <b_mmod_Minimization_Converged-OPLS-2005>
0

> <r_mmod_RMS_Derivative-OPLS-2005>
2.63925743103027

$$$$
40
                    3D
 Structure written by MMmdl.
159167  0  0  1  0            999 V2000
  -30.6937  -14.4166   20.6496 C   0  0  0  0  0  0
  -30.4308  -12.2950   19.3921 C   0  0  0  0  0  0
  -29.4976  -12.5357   18.1866 C   0  0  0  0  0  0
  -28.0187  -12.3818   18.6005 C   0  0  0  0  0  0
  -27.6708  -13.1935   19.8767 C   0  0  2  0  0  0
  -28.7070  -12.9041   20.9839 C   0  0  0  0  0  0
  -25.2641  -13.8140   20.5649 C   0  0  0  0  0  0
  -24.1885  -13.0432   20.9138 C   0  0  0  0  0  0
  -24.6407  -11.6888   20.8669 C   0  0  0  0  0  0
  -23.9073  -10.4280   21.0364 C   0  0  0  0  0  0
  -24.3615   -9.4207   21.9151 C   0  0  0  0  0  0
  -23.6276   -8.2253   22.0752 C   0  0  0  0  0  0
  -22.4244   -8.0293   21.3557 C   0  0  0  0  0  0
  -21.9894   -9.0269   20.4648 C   0  0  0  0  0  0
  -22.7236  -10.2121   20.3031 C   0  0  0  0  0  0
  -21.6853   -6.0730   22.5294 C   0  0  0  0  0  0
  -21.4012   -6.5642   23.8234 C   0  0  0  0  0  0
  -21.3661   -5.6787   24.9190 C   0  0  0  0  0  0
  -21.6047   -4.3062   24.7236 C   0  0  0  0  0  0
  -21.8812   -3.8140   23.4361 C   0  0  0  0  0  0
  -21.9188   -4.6957   22.3416 C   0  0  0  0  0  0
  -22.7919  -13.5231   21.1845 C   0  0  0  0  0  0
  -22.1660   -4.2150   21.0992 F   0  0  0  0  0  0
  -21.5627   -3.4550   25.7751 F   0  0  0  0  0  0
  -30.0519  -13.2307   20.4598 N   0  0  0  0  0  0
  -26.3070  -12.9286   20.3306 N   0  0  0  0  0  0
  -25.9321  -11.6446   20.5671 N   0  0  0  0  0  0
  -22.0555  -12.8224   22.0390 N   0  0  0  0  0  0
  -25.4373  -15.1875   20.4133 N   0  0  0  0  0  0
  -31.7427  -14.7259   20.0705 O   0  0  0  0  0  0
  -21.6634   -6.8872   21.4251 O   0  0  0  0  0  0
  -22.3624  -14.5554   20.6717 O   0  0  0  0  0  0
  -24.6142  -31.8684   23.2100 C   0  0  0  0  0  0
  -25.9018  -32.4838   23.8430 C   0  0  1  0  0  0
  -27.2417  -27.4447   20.0982 C   0  0  0  0  0  0
  -25.5870  -33.8631   24.2359 N   0  0  0  0  0  0
  -23.4043  -30.4887   21.5499 C   0  0  2  0  0  0
  -24.8529  -28.9505   20.1204 C   0  0  0  0  0  0
  -22.7414  -29.4660   22.5013 C   0  0  0  0  0  0
  -18.0274  -28.1402   22.8508 C   0  0  0  0  0  0
  -24.1461  -36.7311   23.2643 C   0  0  0  0  0  0
  -25.9303  -30.8375   21.3604 C   0  0  0  0  0  0
  -26.0116  -29.4673   20.7152 C   0  0  0  0  0  0
  -27.2142  -28.7236   20.6985 C   0  0  0  0  0  0
  -26.0723  -26.9351   19.4997 C   0  0  0  0  0  0
  -24.8771  -27.6813   19.5126 C   0  0  0  0  0  0
  -23.6133  -29.8161   20.1661 C   0  0  0  0  0  0
  -25.4085  -36.3134   24.0361 C   0  0  1  0  0  0
  -20.5853  -28.3679   23.1331 C   0  0  2  0  0  0
  -20.6753  -26.9418   22.5425 C   0  0  0  0  0  0
  -19.5724  -26.6413   21.5220 C   0  0  0  0  0  0
  -18.1906  -26.7944   22.1641 C   0  0  0  0  0  0
  -19.1519  -28.8862   23.2914 C   0  0  0  0  0  0
  -18.9444  -30.1468   23.8945 C   0  0  0  0  0  0
  -17.6440  -30.6595   24.0578 C   0  0  0  0  0  0
  -25.9013  -34.9487   23.5160 C   0  0  0  0  0  0
  -16.5334  -29.9107   23.6323 C   0  0  0  0  0  0
  -16.7266  -28.6516   23.0357 C   0  0  0  0  0  0
  -26.4443  -31.6614   25.0749 C   0  0  0  0  0  0
  -25.3722  -31.3693   26.1506 C   0  0  0  0  0  0
  -27.0269  -30.3070   24.6093 C   0  0  0  0  0  0
  -27.6049  -32.4320   25.7483 C   0  0  0  0  0  0
  -27.5573  -37.1811   24.8476 C   0  0  0  0  0  0
  -21.4140  -29.3029   22.3731 N   0  0  0  0  0  0
  -26.4286  -37.3813   23.9427 N   0  0  0  0  0  0
  -24.6689  -31.0796   22.0998 N   0  0  0  0  0  0
  -23.4176  -28.8218   23.3073 O   0  0  0  0  0  0
  -28.3924  -26.6918   20.0714 O   0  0  0  0  0  0
  -26.5571  -34.8945   22.4717 O   0  0  0  0  0  0
  -23.5336  -32.1445   23.7464 O   0  0  0  0  0  0
  -30.5045  -18.9635   21.2771 C   0  0  0  0  0  0
  -30.7841  -17.5835   21.0970 C   0  0  0  0  0  0
  -28.7094  -17.0341   22.2287 C   0  0  0  0  0  0
  -29.3419  -19.3918   21.9630 C   0  0  0  0  0  0
  -28.4219  -18.4028   22.4148 C   0  0  0  0  0  0
  -29.8912  -16.6050   21.5942 C   0  0  0  0  0  0
  -29.1579  -20.8256   22.2969 C   0  0  0  0  0  0
  -27.1131  -18.7523   23.1128 C   0  0  0  0  0  0
  -28.7825  -24.2629   20.5638 C   0  0  0  0  0  0
  -28.8381  -23.2487   21.7361 C   0  0  0  0  0  0
  -28.4608  -25.6859   21.0927 C   0  0  0  0  0  0
  -29.0157  -21.1481   23.5823 N   0  0  0  0  0  0
  -30.0936  -15.1964   21.5591 N   0  0  0  0  0  0
  -29.1109  -21.8261   21.3897 N   0  3  0  0  0  0
  -31.4770  -12.3988   19.1022 H   0  0  0  0  0  0
  -30.3199  -11.2675   19.7434 H   0  0  0  0  0  0
  -29.7321  -11.8386   17.3820 H   0  0  0  0  0  0
  -29.6675  -13.5338   17.7786 H   0  0  0  0  0  0
  -27.8365  -11.3205   18.7768 H   0  0  0  0  0  0
  -27.3629  -12.6681   17.7769 H   0  0  0  0  0  0
  -27.7362  -14.2498   19.6162 H   0  0  0  0  0  0
  -28.6726  -11.8472   21.2535 H   0  0  0  0  0  0
  -28.4391  -13.4282   21.9001 H   0  0  0  0  0  0
  -25.2769   -9.5692   22.4712 H   0  0  0  0  0  0
  -24.0004   -7.4643   22.7475 H   0  0  0  0  0  0
  -21.0828   -8.8754   19.8965 H   0  0  0  0  0  0
  -22.3693  -10.9635   19.6130 H   0  0  0  0  0  0
  -21.2005   -7.6152   23.9747 H   0  0  0  0  0  0
  -21.1492   -6.0517   25.9102 H   0  0  0  0  0  0
  -22.0578   -2.7607   23.2860 H   0  0  0  0  0  0
  -22.4141  -11.9849   22.4742 H   0  0  0  0  0  0
  -21.1186  -13.1266   22.2609 H   0  0  0  0  0  0
  -24.6597  -15.8316   20.5109 H   0  0  0  0  0  0
  -26.2906  -15.6367   20.1067 H   0  0  0  0  0  0
  -26.7086  -32.5573   23.1208 H   0  0  0  0  0  0
  -25.0043  -33.9792   25.0527 H   0  0  0  0  0  0
  -22.6935  -31.3051   21.4073 H   0  0  0  0  0  0
  -23.3728  -35.9638   23.3338 H   0  0  0  0  0  0
  -24.3548  -36.8878   22.2047 H   0  0  0  0  0  0
  -23.7194  -37.6530   23.6617 H   0  0  0  0  0  0
  -26.0305  -31.6010   20.5869 H   0  0  0  0  0  0
  -26.8199  -30.9017   21.9749 H   0  0  0  0  0  0
  -28.1130  -29.1223   21.1509 H   0  0  0  0  0  0
  -26.0932  -25.9648   19.0228 H   0  0  0  0  0  0
  -23.9899  -27.2714   19.0524 H   0  0  0  0  0  0
  -23.7207  -30.5878   19.4017 H   0  0  0  0  0  0
  -22.7406  -29.2293   19.8739 H   0  0  0  0  0  0
  -25.1250  -36.2031   25.0859 H   0  0  0  0  0  0
  -20.9954  -28.3232   24.1445 H   0  0  0  0  0  0
  -20.5647  -26.2288   23.3610 H   0  0  0  0  0  0
  -21.6625  -26.7451   22.1216 H   0  0  0  0  0  0
  -19.6867  -25.6330   21.1234 H   0  0  0  0  0  0
  -19.6654  -27.3237   20.6759 H   0  0  0  0  0  0
  -17.4170  -26.6708   21.4041 H   0  0  0  0  0  0
  -18.0307  -26.0082   22.9047 H   0  0  0  0  0  0
  -19.7924  -30.7271   24.2330 H   0  0  0  0  0  0
  -17.5004  -31.6285   24.5173 H   0  0  0  0  0  0
  -15.5339  -30.3027   23.7632 H   0  0  0  0  0  0
  -15.8665  -28.0859   22.7055 H   0  0  0  0  0  0
  -24.5913  -30.7007   25.7855 H   0  0  0  0  0  0
  -24.8877  -32.2822   26.4980 H   0  0  0  0  0  0
  -25.8101  -30.8873   27.0253 H   0  0  0  0  0  0
  -26.2805  -29.6848   24.1127 H   0  0  0  0  0  0
  -27.4033  -29.7291   25.4543 H   0  0  0  0  0  0
  -27.8650  -30.4412   23.9242 H   0  0  0  0  0  0
  -27.2701  -33.3610   26.2106 H   0  0  0  0  0  0
  -28.3822  -32.6883   25.0273 H   0  0  0  0  0  0
  -28.0751  -31.8409   26.5351 H   0  0  0  0  0  0
  -28.2629  -38.0075   24.7524 H   0  0  0  0  0  0
  -28.1036  -36.2619   24.6309 H   0  0  0  0  0  0
  -27.2299  -37.1477   25.8882 H   0  0  0  0  0  0
  -20.9314  -29.8757   21.6951 H   0  0  0  0  0  0
  -26.0188  -38.2904   24.1428 H   0  0  0  0  0  0
  -31.2256  -19.6982   20.9384 H   0  0  0  0  0  0
  -31.7085  -17.2965   20.6160 H   0  0  0  0  0  0
  -28.0119  -16.2973   22.5996 H   0  0  0  0  0  0
  -26.3974  -17.9325   23.0406 H   0  0  0  0  0  0
  -26.6393  -19.6288   22.6691 H   0  0  0  0  0  0
  -27.2834  -18.9445   24.1724 H   0  0  0  0  0  0
  -28.0223  -23.9614   19.8424 H   0  0  0  0  0  0
  -29.7345  -24.2832   20.0336 H   0  0  0  0  0  0
  -27.8799  -23.2839   22.2578 H   0  0  0  0  0  0
  -29.5875  -23.5831   22.4544 H   0  0  0  0  0  0
  -29.2355  -25.9947   21.7949 H   0  0  0  0  0  0
  -27.5365  -25.6441   21.6715 H   0  0  0  0  0  0
  -28.9055  -22.0963   23.8954 H   0  0  0  0  0  0
  -29.0839  -20.4181   24.2738 H   0  0  0  0  0  0
  -29.3813  -14.6783   22.0479 H   0  0  0  0  0  0
  -29.1413  -21.5644   20.4130 H   0  0  0  0  0  0
  1 25  1  0  0  0
  1 30  2  0  0  0
  1 83  1  0  0  0
  2  3  1  0  0  0
  2 25  1  0  0  0
  2 85  1  0  0  0
  2 86  1  0  0  0
  3  4  1  0  0  0
  3 87  1  0  0  0
  3 88  1  0  0  0
  4  5  1  0  0  0
  4 89  1  0  0  0
  4 90  1  0  0  0
  5  6  1  0  0  0
  5 26  1  0  0  0
  5 91  1  0  0  0
  6 25  1  0  0  0
  6 92  1  0  0  0
  6 93  1  0  0  0
  7  8  2  0  0  0
  7 26  1  0  0  0
  7 29  1  0  0  0
  8  9  1  0  0  0
  8 22  1  0  0  0
  9 10  1  0  0  0
  9 27  2  0  0  0
 10 11  2  0  0  0
 10 15  1  0  0  0
 11 12  1  0  0  0
 11 94  1  0  0  0
 12 13  2  0  0  0
 12 95  1  0  0  0
 13 14  1  0  0  0
 13 31  1  0  0  0
 14 15  2  0  0  0
 14 96  1  0  0  0
 15 97  1  0  0  0
 16 17  2  0  0  0
 16 21  1  0  0  0
 16 31  1  0  0  0
 17 18  1  0  0  0
 17 98  1  0  0  0
 18 19  2  0  0  0
 18 99  1  0  0  0
 19 20  1  0  0  0
 19 24  1  0  0  0
 20 21  2  0  0  0
 20100  1  0  0  0
 21 23  1  0  0  0
 22 28  1  0  0  0
 22 32  2  0  0  0
 26 27  1  0  0  0
 28101  1  0  0  0
 28102  1  0  0  0
 29103  1  0  0  0
 29104  1  0  0  0
 33 34  1  0  0  0
 33 66  1  0  0  0
 33 70  2  0  0  0
 34 36  1  0  0  0
 34 59  1  0  0  0
 34105  1  0  0  0
 35 44  2  0  0  0
 35 45  1  0  0  0
 35 68  1  0  0  0
 36 56  1  0  0  0
 36106  1  0  0  0
 37 39  1  0  0  0
 37 47  1  0  0  0
 37 66  1  0  0  0
 37107  1  0  0  0
 38 43  2  0  0  0
 38 46  1  0  0  0
 38 47  1  0  0  0
 39 64  1  0  0  0
 39 67  2  0  0  0
 40 52  1  0  0  0
 40 53  2  0  0  0
 40 58  1  0  0  0
 41108  1  0  0  0
 41109  1  0  0  0
 41110  1  0  0  0
 41 48  1  0  0  0
 42 43  1  0  0  0
 42 66  1  0  0  0
 42111  1  0  0  0
 42112  1  0  0  0
 43 44  1  0  0  0
 44113  1  0  0  0
 45 46  2  0  0  0
 45114  1  0  0  0
 46115  1  0  0  0
 47116  1  0  0  0
 47117  1  0  0  0
 48 56  1  0  0  0
 48 65  1  0  0  0
 48118  1  0  0  0
 49 50  1  0  0  0
 49 53  1  0  0  0
 49 64  1  0  0  0
 49119  1  0  0  0
 50 51  1  0  0  0
 50120  1  0  0  0
 50121  1  0  0  0
 51 52  1  0  0  0
 51122  1  0  0  0
 51123  1  0  0  0
 52124  1  0  0  0
 52125  1  0  0  0
 53 54  1  0  0  0
 54 55  2  0  0  0
 54126  1  0  0  0
 55 57  1  0  0  0
 55127  1  0  0  0
 56 69  2  0  0  0
 57 58  2  0  0  0
 57128  1  0  0  0
 58129  1  0  0  0
 59 60  1  0  0  0
 59 61  1  0  0  0
 59 62  1  0  0  0
 60130  1  0  0  0
 60131  1  0  0  0
 60132  1  0  0  0
 61133  1  0  0  0
 61134  1  0  0  0
 61135  1  0  0  0
 62136  1  0  0  0
 62137  1  0  0  0
 62138  1  0  0  0
 63 65  1  0  0  0
 63139  1  0  0  0
 63140  1  0  0  0
 63141  1  0  0  0
 64142  1  0  0  0
 65143  1  0  0  0
 68 81  1  0  0  0
 71 72  2  0  0  0
 71 74  1  0  0  0
 71144  1  0  0  0
 72 76  1  0  0  0
 72145  1  0  0  0
 73 75  1  0  0  0
 73 76  2  0  0  0
 73146  1  0  0  0
 74 75  2  0  0  0
 74 77  1  0  0  0
 75 78  1  0  0  0
 76 83  1  0  0  0
 77 82  1  0  0  0
 77 84  2  0  0  0
 78147  1  0  0  0
 78148  1  0  0  0
 78149  1  0  0  0
 79 80  1  0  0  0
 79 81  1  0  0  0
 79150  1  0  0  0
 79151  1  0  0  0
 80 84  1  0  0  0
 80152  1  0  0  0
 80153  1  0  0  0
 81154  1  0  0  0
 81155  1  0  0  0
 82156  1  0  0  0
 82157  1  0  0  0
 83158  1  0  0  0
 84159  1  0  0  0
M  CHG  1  84   1
M  ISO  4   1 100  68 101  81 101  83 100
M  END
> <chiral flag>
0

> <version>
0

> <s_m_source_file>
/data/baiqing/PycharmProjects/Reinvent-master-3.2/result/LINK_invent/BTK/process_docking_weight1_custom_product_contain_oxygen_bond_distance_aromatic_linkinvent_7_9_3/rearranged_h_0044.sdf

> <i_m_source_file_index>
41

> <r_mmod_Potential_Energy-OPLS-2005>
-191.636672973633

> <r_mmod_Stretch_Energy-OPLS-2005>
39.1005096435547

> <r_mmod_Bend_Energy-OPLS-2005>
108.052299499512

> <r_mmod_Torsional_Energy-OPLS-2005>
246.857391357422

> <r_mmod_Improper_Torsional_Energy-OPLS-2005>
4.65801048278809

> <r_mmod_Van_der_Waal_Energy-OPLS-2005>
154.224746704102

> <r_mmod_Electrostatic_Energy-OPLS-2005>
-343.782440185547

> <r_mmod_Solvation_Energy-OPLS-2005>
-410.002166748047

> <b_mmod_Minimization_Converged-OPLS-2005>
0

> <r_mmod_RMS_Derivative-OPLS-2005>
4.38591241836548

$$$$
41
                    3D
 Structure written by MMmdl.
166174  0  0  1  0            999 V2000
  -30.6922  -14.4817   20.5322 C   0  0  0  0  0  0
  -30.4324  -12.3083   19.4176 C   0  0  0  0  0  0
  -29.5001  -12.4957   18.2033 C   0  0  0  0  0  0
  -28.0122  -12.3821   18.6100 C   0  0  0  0  0  0
  -27.6611  -13.2052   19.8787 C   0  0  2  0  0  0
  -28.7119  -12.9741   20.9867 C   0  0  0  0  0  0
  -25.2583  -13.8129   20.5737 C   0  0  0  0  0  0
  -24.1857  -13.0396   20.9189 C   0  0  0  0  0  0
  -24.6421  -11.6872   20.8782 C   0  0  0  0  0  0
  -23.9059  -10.4269   21.0381 C   0  0  0  0  0  0
  -24.3574   -9.4164   21.9153 C   0  0  0  0  0  0
  -23.6238   -8.2206   22.0721 C   0  0  0  0  0  0
  -22.4223   -8.0258   21.3504 C   0  0  0  0  0  0
  -21.9857   -9.0257   20.4627 C   0  0  0  0  0  0
  -22.7214  -10.2120   20.3033 C   0  0  0  0  0  0
  -21.6857   -6.0718   22.5280 C   0  0  0  0  0  0
  -21.4061   -6.5629   23.8219 C   0  0  0  0  0  0
  -21.3636   -5.6762   24.9170 C   0  0  0  0  0  0
  -21.5992   -4.3024   24.7217 C   0  0  0  0  0  0
  -21.8843   -3.8129   23.4356 C   0  0  0  0  0  0
  -21.9207   -4.6948   22.3413 C   0  0  0  0  0  0
  -22.7856  -13.5178   21.1769 C   0  0  0  0  0  0
  -22.1668   -4.2140   21.0995 F   0  0  0  0  0  0
  -21.5564   -3.4505   25.7721 F   0  0  0  0  0  0
  -30.0252  -13.3042   20.4207 N   0  0  0  0  0  0
  -26.3053  -12.9313   20.3444 N   0  0  0  0  0  0
  -25.9355  -11.6475   20.5841 N   0  0  0  0  0  0
  -22.0473  -12.8290   22.0385 N   0  0  0  0  0  0
  -25.4223  -15.1864   20.4185 N   0  0  0  0  0  0
  -31.8787  -14.6015   20.2249 O   0  0  0  0  0  0
  -21.6586   -6.8865   21.4234 O   0  0  0  0  0  0
  -22.3560  -14.5425   20.6474 O   0  0  0  0  0  0
  -24.6099  -31.8727   23.2120 C   0  0  0  0  0  0
  -25.9024  -32.4855   23.8400 C   0  0  1  0  0  0
  -27.2369  -27.4928   20.0441 C   0  0  0  0  0  0
  -25.5935  -33.8659   24.2344 N   0  0  0  0  0  0
  -23.3883  -30.4959   21.5557 C   0  0  2  0  0  0
  -24.8288  -28.9566   20.1247 C   0  0  0  0  0  0
  -22.7369  -29.4666   22.5052 C   0  0  0  0  0  0
  -18.0286  -28.1334   22.8576 C   0  0  0  0  0  0
  -24.1489  -36.7352   23.2622 C   0  0  0  0  0  0
  -25.9065  -30.8472   21.3517 C   0  0  0  0  0  0
  -25.9799  -29.4744   20.7210 C   0  0  0  0  0  0
  -27.1776  -28.7364   20.7013 C   0  0  0  0  0  0
  -26.0598  -26.9719   19.4477 C   0  0  0  0  0  0
  -24.8561  -27.6992   19.4984 C   0  0  0  0  0  0
  -23.5943  -29.8258   20.1691 C   0  0  0  0  0  0
  -25.4106  -36.3140   24.0338 C   0  0  1  0  0  0
  -20.5866  -28.3582   23.1403 C   0  0  2  0  0  0
  -20.6755  -26.9332   22.5436 C   0  0  0  0  0  0
  -19.5744  -26.6323   21.5232 C   0  0  0  0  0  0
  -18.1919  -26.7886   22.1683 C   0  0  0  0  0  0
  -19.1540  -28.8775   23.2984 C   0  0  0  0  0  0
  -18.9456  -30.1379   23.8986 C   0  0  0  0  0  0
  -17.6477  -30.6555   24.0598 C   0  0  0  0  0  0
  -25.9032  -34.9501   23.5126 C   0  0  0  0  0  0
  -16.5357  -29.9088   23.6329 C   0  0  0  0  0  0
  -16.7289  -28.6482   23.0388 C   0  0  0  0  0  0
  -26.4498  -31.6617   25.0686 C   0  0  0  0  0  0
  -25.3805  -31.3735   26.1477 C   0  0  0  0  0  0
  -27.0257  -30.3066   24.5923 C   0  0  0  0  0  0
  -27.6092  -32.4312   25.7456 C   0  0  0  0  0  0
  -27.5603  -37.1829   24.8458 C   0  0  0  0  0  0
  -21.4112  -29.2984   22.3819 N   0  0  0  0  0  0
  -26.4302  -37.3811   23.9433 N   0  0  0  0  0  0
  -24.6533  -31.0868   22.1018 N   0  0  0  0  0  0
  -23.4203  -28.8211   23.3054 O   0  0  0  0  0  0
  -28.4682  -26.8844   19.9971 O   0  0  0  0  0  0
  -26.5545  -34.8941   22.4652 O   0  0  0  0  0  0
  -23.5289  -32.1483   23.7546 O   0  0  0  0  0  0
  -27.8790  -17.1652   19.2077 C   0  0  0  0  0  0
  -26.9332  -17.9788   18.5707 C   0  0  0  0  0  0
  -27.6066  -18.4663   21.2633 C   0  0  0  0  0  0
  -28.1995  -17.3663   20.5707 C   0  0  0  0  0  0
  -26.6651  -19.3239   20.6043 C   0  0  0  0  0  0
  -26.2957  -19.0151   19.2678 C   0  0  0  0  0  0
  -27.0331  -18.5163   23.6632 C   0  0  0  0  0  0
  -27.9379  -18.6665   22.6823 C   0  0  0  0  0  0
  -27.2053  -22.7801   21.0436 C   0  0  0  0  0  0
  -25.9822  -20.5008   21.3428 C   0  0  0  0  0  0
  -29.1098  -16.3419   21.2836 C   0  0  0  0  0  0
  -26.0377  -21.8990   20.6671 C   0  0  0  0  0  0
  -28.7885  -24.5335   20.1148 C   0  0  0  0  0  0
  -28.6884  -25.7425   19.1814 C   0  0  0  0  0  0
  -27.8343  -22.6833   22.2314 N   0  0  0  0  0  0
  -29.9535  -15.5881   20.3499 N   0  0  0  0  0  0
  -27.5792  -23.6903   20.1166 N   0  3  0  0  0  0
  -25.0010  -19.8154   18.4446 Cl  0  0  0  0  0  0
  -31.4752  -12.4223   19.1085 H   0  0  0  0  0  0
  -30.3537  -11.3010   19.8302 H   0  0  0  0  0  0
  -29.7426  -11.7644   17.4298 H   0  0  0  0  0  0
  -29.6819  -13.4766   17.7610 H   0  0  0  0  0  0
  -27.7981  -11.3297   18.7866 H   0  0  0  0  0  0
  -27.3725  -12.6838   17.7796 H   0  0  0  0  0  0
  -27.6953  -14.2529   19.5827 H   0  0  0  0  0  0
  -28.7053  -11.9284   21.3014 H   0  0  0  0  0  0
  -28.4979  -13.5474   21.8843 H   0  0  0  0  0  0
  -25.2710   -9.5617   22.4744 H   0  0  0  0  0  0
  -23.9923   -7.4580   22.7436 H   0  0  0  0  0  0
  -21.0771   -8.8775   19.8944 H   0  0  0  0  0  0
  -22.3661  -10.9635   19.6126 H   0  0  0  0  0  0
  -21.2126   -7.6143   23.9747 H   0  0  0  0  0  0
  -21.1399   -6.0477   25.9058 H   0  0  0  0  0  0
  -22.0657   -2.7593   23.2856 H   0  0  0  0  0  0
  -22.4024  -12.0015   22.4951 H   0  0  0  0  0  0
  -21.1042  -13.1329   22.2388 H   0  0  0  0  0  0
  -24.6471  -15.8285   20.5399 H   0  0  0  0  0  0
  -26.2836  -15.6449   20.1524 H   0  0  0  0  0  0
  -26.7090  -32.5580   23.1175 H   0  0  0  0  0  0
  -25.0267  -33.9863   25.0596 H   0  0  0  0  0  0
  -22.6700  -31.3060   21.4182 H   0  0  0  0  0  0
  -23.3732  -35.9699   23.3259 H   0  0  0  0  0  0
  -24.3559  -36.8949   22.2027 H   0  0  0  0  0  0
  -23.7252  -37.6567   23.6629 H   0  0  0  0  0  0
  -25.9766  -31.5910   20.5573 H   0  0  0  0  0  0
  -26.8088  -30.9351   21.9434 H   0  0  0  0  0  0
  -28.0671  -29.1430   21.1604 H   0  0  0  0  0  0
  -26.0355  -26.0367   18.9129 H   0  0  0  0  0  0
  -23.9692  -27.2995   19.0286 H   0  0  0  0  0  0
  -23.7366  -30.5997   19.4156 H   0  0  0  0  0  0
  -22.7091  -29.2718   19.8547 H   0  0  0  0  0  0
  -25.1281  -36.1996   25.0828 H   0  0  0  0  0  0
  -20.9984  -28.3113   24.1520 H   0  0  0  0  0  0
  -20.5652  -26.2198   23.3620 H   0  0  0  0  0  0
  -21.6645  -26.7385   22.1284 H   0  0  0  0  0  0
  -19.6862  -25.6222   21.1276 H   0  0  0  0  0  0
  -19.6657  -27.3159   20.6786 H   0  0  0  0  0  0
  -17.4190  -26.6672   21.4061 H   0  0  0  0  0  0
  -18.0287  -25.9993   22.9045 H   0  0  0  0  0  0
  -19.7924  -30.7178   24.2387 H   0  0  0  0  0  0
  -17.5040  -31.6231   24.5203 H   0  0  0  0  0  0
  -15.5366  -30.3028   23.7569 H   0  0  0  0  0  0
  -15.8691  -28.0808   22.7087 H   0  0  0  0  0  0
  -24.5960  -30.7074   25.7881 H   0  0  0  0  0  0
  -24.9043  -32.2902   26.4964 H   0  0  0  0  0  0
  -25.8222  -30.8926   27.0201 H   0  0  0  0  0  0
  -26.2682  -29.6870   24.1105 H   0  0  0  0  0  0
  -27.4206  -29.7289   25.4285 H   0  0  0  0  0  0
  -27.8467  -30.4423   23.8872 H   0  0  0  0  0  0
  -27.2714  -33.3581   26.2116 H   0  0  0  0  0  0
  -28.3904  -32.6896   25.0294 H   0  0  0  0  0  0
  -28.0776  -31.8374   26.5314 H   0  0  0  0  0  0
  -28.2649  -38.0103   24.7503 H   0  0  0  0  0  0
  -28.1086  -36.2647   24.6297 H   0  0  0  0  0  0
  -27.2345  -37.1507   25.8864 H   0  0  0  0  0  0
  -20.9207  -29.8782   21.7150 H   0  0  0  0  0  0
  -26.0191  -38.2894   24.1402 H   0  0  0  0  0  0
  -28.3056  -16.3464   18.6423 H   0  0  0  0  0  0
  -26.6508  -17.7747   17.5454 H   0  0  0  0  0  0
  -27.2772  -18.6658   24.7066 H   0  0  0  0  0  0
  -26.0164  -18.2340   23.4230 H   0  0  0  0  0  0
  -28.9555  -18.9617   22.9149 H   0  0  0  0  0  0
  -26.2883  -20.6110   22.3781 H   0  0  0  0  0  0
  -24.9300  -20.2146   21.4082 H   0  0  0  0  0  0
  -28.4826  -15.6894   21.8903 H   0  0  0  0  0  0
  -29.7765  -16.8608   21.9701 H   0  0  0  0  0  0
  -26.0309  -21.8268   19.5835 H   0  0  0  0  0  0
  -25.1243  -22.4346   20.9279 H   0  0  0  0  0  0
  -29.0711  -24.8605   21.1154 H   0  0  0  0  0  0
  -29.6075  -23.9189   19.7477 H   0  0  0  0  0  0
  -28.0010  -25.5942   18.3499 H   0  0  0  0  0  0
  -29.6515  -25.8958   18.6959 H   0  0  0  0  0  0
  -27.5345  -22.0335   22.9476 H   0  0  0  0  0  0
  -28.5951  -23.2888   22.5027 H   0  0  0  0  0  0
  -30.4980  -16.2368   19.8052 H   0  0  0  0  0  0
  -27.0234  -23.7230   19.2702 H   0  0  0  0  0  0
  1 25  1  0  0  0
  1 30  2  0  0  0
  1 86  1  0  0  0
  2  3  1  0  0  0
  2 25  1  0  0  0
  2 89  1  0  0  0
  2 90  1  0  0  0
  3  4  1  0  0  0
  3 91  1  0  0  0
  3 92  1  0  0  0
  4  5  1  0  0  0
  4 93  1  0  0  0
  4 94  1  0  0  0
  5  6  1  0  0  0
  5 26  1  0  0  0
  5 95  1  0  0  0
  6 25  1  0  0  0
  6 96  1  0  0  0
  6 97  1  0  0  0
  7  8  2  0  0  0
  7 26  1  0  0  0
  7 29  1  0  0  0
  8  9  1  0  0  0
  8 22  1  0  0  0
  9 10  1  0  0  0
  9 27  2  0  0  0
 10 11  2  0  0  0
 10 15  1  0  0  0
 11 12  1  0  0  0
 11 98  1  0  0  0
 12 13  2  0  0  0
 12 99  1  0  0  0
 13 14  1  0  0  0
 13 31  1  0  0  0
 14 15  2  0  0  0
 14100  1  0  0  0
 15101  1  0  0  0
 16 17  2  0  0  0
 16 21  1  0  0  0
 16 31  1  0  0  0
 17 18  1  0  0  0
 17102  1  0  0  0
 18 19  2  0  0  0
 18103  1  0  0  0
 19 20  1  0  0  0
 19 24  1  0  0  0
 20 21  2  0  0  0
 20104  1  0  0  0
 21 23  1  0  0  0
 22 28  1  0  0  0
 22 32  2  0  0  0
 26 27  1  0  0  0
 28105  1  0  0  0
 28106  1  0  0  0
 29107  1  0  0  0
 29108  1  0  0  0
 33 34  1  0  0  0
 33 66  1  0  0  0
 33 70  2  0  0  0
 34 36  1  0  0  0
 34 59  1  0  0  0
 34109  1  0  0  0
 35 44  2  0  0  0
 35 45  1  0  0  0
 35 68  1  0  0  0
 36 56  1  0  0  0
 36110  1  0  0  0
 37 39  1  0  0  0
 37 47  1  0  0  0
 37 66  1  0  0  0
 37111  1  0  0  0
 38 43  2  0  0  0
 38 46  1  0  0  0
 38 47  1  0  0  0
 39 64  1  0  0  0
 39 67  2  0  0  0
 40 52  1  0  0  0
 40 53  2  0  0  0
 40 58  1  0  0  0
 41112  1  0  0  0
 41113  1  0  0  0
 41114  1  0  0  0
 41 48  1  0  0  0
 42 43  1  0  0  0
 42 66  1  0  0  0
 42115  1  0  0  0
 42116  1  0  0  0
 43 44  1  0  0  0
 44117  1  0  0  0
 45 46  2  0  0  0
 45118  1  0  0  0
 46119  1  0  0  0
 47120  1  0  0  0
 47121  1  0  0  0
 48 56  1  0  0  0
 48 65  1  0  0  0
 48122  1  0  0  0
 49 50  1  0  0  0
 49 53  1  0  0  0
 49 64  1  0  0  0
 49123  1  0  0  0
 50 51  1  0  0  0
 50124  1  0  0  0
 50125  1  0  0  0
 51 52  1  0  0  0
 51126  1  0  0  0
 51127  1  0  0  0
 52128  1  0  0  0
 52129  1  0  0  0
 53 54  1  0  0  0
 54 55  2  0  0  0
 54130  1  0  0  0
 55 57  1  0  0  0
 55131  1  0  0  0
 56 69  2  0  0  0
 57 58  2  0  0  0
 57132  1  0  0  0
 58133  1  0  0  0
 59 60  1  0  0  0
 59 61  1  0  0  0
 59 62  1  0  0  0
 60134  1  0  0  0
 60135  1  0  0  0
 60136  1  0  0  0
 61137  1  0  0  0
 61138  1  0  0  0
 61139  1  0  0  0
 62140  1  0  0  0
 62141  1  0  0  0
 62142  1  0  0  0
 63 65  1  0  0  0
 63143  1  0  0  0
 63144  1  0  0  0
 63145  1  0  0  0
 64146  1  0  0  0
 65147  1  0  0  0
 68 84  1  0  0  0
 71 72  2  0  0  0
 71 74  1  0  0  0
 71148  1  0  0  0
 72 76  1  0  0  0
 72149  1  0  0  0
 73 74  2  0  0  0
 73 75  1  0  0  0
 73 78  1  0  0  0
 74 81  1  0  0  0
 75 76  2  0  0  0
 75 80  1  0  0  0
 76 88  1  0  0  0
 77 78  2  0  0  0
 77150  1  0  0  0
 77151  1  0  0  0
 78152  1  0  0  0
 79 82  1  0  0  0
 79 85  1  0  0  0
 79 87  2  0  0  0
 80 82  1  0  0  0
 80153  1  0  0  0
 80154  1  0  0  0
 81 86  1  0  0  0
 81155  1  0  0  0
 81156  1  0  0  0
 82157  1  0  0  0
 82158  1  0  0  0
 83 84  1  0  0  0
 83 87  1  0  0  0
 83159  1  0  0  0
 83160  1  0  0  0
 84161  1  0  0  0
 84162  1  0  0  0
 85163  1  0  0  0
 85164  1  0  0  0
 86165  1  0  0  0
 87166  1  0  0  0
M  CHG  1  87   1
M  ISO  4   1 100  68 101  84 101  86 100
M  END
> <chiral flag>
0

> <version>
0

> <s_m_source_file>
/data/baiqing/PycharmProjects/Reinvent-master-3.2/result/LINK_invent/BTK/process_docking_weight1_custom_product_contain_oxygen_bond_distance_aromatic_linkinvent_7_9_3/rearranged_h_0044.sdf

> <i_m_source_file_index>
42

> <r_mmod_Potential_Energy-OPLS-2005>
-56.7515335083008

> <r_mmod_Stretch_Energy-OPLS-2005>
39.8960494995117

> <r_mmod_Bend_Energy-OPLS-2005>
144.846084594727

> <r_mmod_Torsional_Energy-OPLS-2005>
285.255493164062

> <r_mmod_Improper_Torsional_Energy-OPLS-2005>
27.0958690643311

> <r_mmod_Van_der_Waal_Energy-OPLS-2005>
157.106216430664

> <r_mmod_Electrostatic_Energy-OPLS-2005>
-299.655822753906

> <r_mmod_Solvation_Energy-OPLS-2005>
-431.031951904297

> <b_mmod_Minimization_Converged-OPLS-2005>
0

> <r_mmod_RMS_Derivative-OPLS-2005>
6.72520732879639

$$$$
42
                    3D
 Structure written by MMmdl.
157165  0  0  1  0            999 V2000
  -30.7020  -14.5544   20.5391 C   0  0  0  0  0  0
  -30.4187  -12.3542   19.4360 C   0  0  0  0  0  0
  -29.4948  -12.5015   18.2096 C   0  0  0  0  0  0
  -28.0175  -12.3553   18.6227 C   0  0  0  0  0  0
  -27.6504  -13.2192   19.8586 C   0  0  2  0  0  0
  -28.6972  -13.0737   20.9860 C   0  0  0  0  0  0
  -25.2563  -13.8181   20.5688 C   0  0  0  0  0  0
  -24.1832  -13.0441   20.9190 C   0  0  0  0  0  0
  -24.6400  -11.6912   20.8730 C   0  0  0  0  0  0
  -23.9068  -10.4295   21.0404 C   0  0  0  0  0  0
  -24.3620   -9.4214   21.9176 C   0  0  0  0  0  0
  -23.6297   -8.2251   22.0758 C   0  0  0  0  0  0
  -22.4280   -8.0286   21.3555 C   0  0  0  0  0  0
  -21.9917   -9.0255   20.4654 C   0  0  0  0  0  0
  -22.7238  -10.2135   20.3055 C   0  0  0  0  0  0
  -21.6865   -6.0737   22.5279 C   0  0  0  0  0  0
  -21.4021   -6.5639   23.8207 C   0  0  0  0  0  0
  -21.3658   -5.6798   24.9169 C   0  0  0  0  0  0
  -21.6042   -4.3063   24.7223 C   0  0  0  0  0  0
  -21.8822   -3.8147   23.4348 C   0  0  0  0  0  0
  -21.9205   -4.6964   22.3409 C   0  0  0  0  0  0
  -22.7855  -13.5226   21.1858 C   0  0  0  0  0  0
  -22.1669   -4.2150   21.0981 F   0  0  0  0  0  0
  -21.5631   -3.4545   25.7733 F   0  0  0  0  0  0
  -30.0145  -13.3820   20.4126 N   0  0  0  0  0  0
  -26.2986  -12.9361   20.3315 N   0  0  0  0  0  0
  -25.9326  -11.6511   20.5733 N   0  0  0  0  0  0
  -22.0520  -12.8195   22.0416 N   0  0  0  0  0  0
  -25.4277  -15.1903   20.4124 N   0  0  0  0  0  0
  -31.8747  -14.6304   20.1897 O   0  0  0  0  0  0
  -21.6647   -6.8880   21.4241 O   0  0  0  0  0  0
  -22.3527  -14.5531   20.6723 O   0  0  0  0  0  0
  -24.6209  -31.8644   23.2077 C   0  0  0  0  0  0
  -25.9077  -32.4796   23.8382 C   0  0  1  0  0  0
  -27.2209  -27.3628   20.1098 C   0  0  0  0  0  0
  -25.5917  -33.8600   24.2316 N   0  0  0  0  0  0
  -23.4117  -30.4904   21.5490 C   0  0  2  0  0  0
  -24.8569  -28.9560   20.1093 C   0  0  0  0  0  0
  -22.7446  -29.4647   22.4954 C   0  0  0  0  0  0
  -18.0279  -28.1379   22.8495 C   0  0  0  0  0  0
  -24.1489  -36.7312   23.2638 C   0  0  0  0  0  0
  -25.9492  -30.8078   21.3737 C   0  0  0  0  0  0
  -26.0230  -29.4399   20.7161 C   0  0  0  0  0  0
  -27.2069  -28.6525   20.7121 C   0  0  0  0  0  0
  -26.0344  -26.9280   19.4694 C   0  0  0  0  0  0
  -24.8625  -27.7033   19.4790 C   0  0  0  0  0  0
  -23.6232  -29.8303   20.1618 C   0  0  0  0  0  0
  -25.4112  -36.3096   24.0332 C   0  0  1  0  0  0
  -20.5874  -28.3685   23.1301 C   0  0  2  0  0  0
  -20.6767  -26.9414   22.5418 C   0  0  0  0  0  0
  -19.5743  -26.6390   21.5217 C   0  0  0  0  0  0
  -18.1925  -26.7927   22.1629 C   0  0  0  0  0  0
  -19.1530  -28.8849   23.2894 C   0  0  0  0  0  0
  -18.9456  -30.1450   23.8909 C   0  0  0  0  0  0
  -17.6452  -30.6587   24.0569 C   0  0  0  0  0  0
  -25.9044  -34.9463   23.5123 C   0  0  0  0  0  0
  -16.5346  -29.9090   23.6327 C   0  0  0  0  0  0
  -16.7266  -28.6504   23.0354 C   0  0  0  0  0  0
  -26.4485  -31.6585   25.0733 C   0  0  0  0  0  0
  -25.3733  -31.3705   26.1469 C   0  0  0  0  0  0
  -27.0321  -30.3014   24.6154 C   0  0  0  0  0  0
  -27.6058  -32.4307   25.7500 C   0  0  0  0  0  0
  -27.5583  -37.1807   24.8463 C   0  0  0  0  0  0
  -21.4166  -29.3046   22.3699 N   0  0  0  0  0  0
  -26.4294  -37.3786   23.9406 N   0  0  0  0  0  0
  -24.6792  -31.0695   22.1011 N   0  0  0  0  0  0
  -23.4192  -28.8184   23.3016 O   0  0  0  0  0  0
  -28.3483  -26.5399   20.1726 O   0  0  0  0  0  0
  -26.5611  -34.8918   22.4688 O   0  0  0  0  0  0
  -23.5387  -32.1424   23.7434 O   0  0  0  0  0  0
  -31.5459  -20.1805   19.2940 C   0  0  0  0  0  0
  -32.7438  -19.6831   18.7580 C   0  0  0  0  0  0
  -32.3808  -17.6110   19.9544 C   0  0  0  0  0  0
  -30.7360  -19.4098   20.1687 C   0  0  0  0  0  0
  -31.1223  -18.0386   20.4444 C   0  0  0  0  0  0
  -33.1758  -18.4011   19.1105 C   0  0  0  0  0  0
  -28.9446  -22.5878   20.2150 C   0  0  0  0  0  0
  -29.5099  -20.1424   20.7744 C   0  0  0  0  0  0
  -30.3479  -17.0379   21.3568 C   0  0  0  0  0  0
  -29.2331  -24.1024   20.5003 C   0  0  0  0  0  0
  -28.1378  -25.1019   19.9752 C   0  0  0  0  0  0
  -29.6334  -21.6306   20.8883 N   0  0  0  0  0  0
  -29.9830  -15.6480   20.9111 N   0  0  0  0  0  0
  -28.0975  -22.2806   19.3748 O   0  0  0  0  0  0
  -34.6838  -17.7975   18.5265 Cl  0  0  0  0  0  0
  -31.4620  -12.4507   19.1314 H   0  0  0  0  0  0
  -30.3241  -11.3583   19.8717 H   0  0  0  0  0  0
  -29.7462  -11.7573   17.4517 H   0  0  0  0  0  0
  -29.6528  -13.4764   17.7450 H   0  0  0  0  0  0
  -27.8374  -11.3023   18.8378 H   0  0  0  0  0  0
  -27.3681  -12.6055   17.7840 H   0  0  0  0  0  0
  -27.6700  -14.2562   19.5241 H   0  0  0  0  0  0
  -28.6930  -12.0588   21.3877 H   0  0  0  0  0  0
  -28.4559  -13.7263   21.8270 H   0  0  0  0  0  0
  -25.2777   -9.5688   22.4729 H   0  0  0  0  0  0
  -24.0030   -7.4640   22.7465 H   0  0  0  0  0  0
  -21.0859   -8.8767   19.8944 H   0  0  0  0  0  0
  -22.3705  -10.9674   19.6160 H   0  0  0  0  0  0
  -21.2004   -7.6148   23.9705 H   0  0  0  0  0  0
  -21.1479   -6.0528   25.9071 H   0  0  0  0  0  0
  -22.0604   -2.7610   23.2842 H   0  0  0  0  0  0
  -22.4157  -11.9850   22.4776 H   0  0  0  0  0  0
  -21.1137  -13.1196   22.2638 H   0  0  0  0  0  0
  -24.6614  -15.8453   20.5220 H   0  0  0  0  0  0
  -26.2756  -15.6310   20.0784 H   0  0  0  0  0  0
  -26.7152  -32.5490   23.1142 H   0  0  0  0  0  0
  -25.0036  -33.9757   25.0437 H   0  0  0  0  0  0
  -22.7028  -31.3094   21.4113 H   0  0  0  0  0  0
  -23.3743  -35.9652   23.3299 H   0  0  0  0  0  0
  -24.3580  -36.8936   22.2056 H   0  0  0  0  0  0
  -23.7252  -37.6519   23.6659 H   0  0  0  0  0  0
  -26.0737  -31.5735   20.6062 H   0  0  0  0  0  0
  -26.8328  -30.8563   21.9985 H   0  0  0  0  0  0
  -28.0994  -29.0152   21.2034 H   0  0  0  0  0  0
  -25.9815  -25.9763   18.9603 H   0  0  0  0  0  0
  -23.9704  -27.3311   18.9944 H   0  0  0  0  0  0
  -23.7358  -30.6086   19.4066 H   0  0  0  0  0  0
  -22.7449  -29.2556   19.8625 H   0  0  0  0  0  0
  -25.1287  -36.1959   25.0824 H   0  0  0  0  0  0
  -20.9967  -28.3259   24.1419 H   0  0  0  0  0  0
  -20.5679  -26.2294   23.3615 H   0  0  0  0  0  0
  -21.6638  -26.7450   22.1210 H   0  0  0  0  0  0
  -19.6908  -25.6306   21.1239 H   0  0  0  0  0  0
  -19.6677  -27.3211   20.6759 H   0  0  0  0  0  0
  -17.4195  -26.6681   21.4032 H   0  0  0  0  0  0
  -18.0320  -26.0067   22.9025 H   0  0  0  0  0  0
  -19.7929  -30.7265   24.2289 H   0  0  0  0  0  0
  -17.5008  -31.6265   24.5173 H   0  0  0  0  0  0
  -15.5348  -30.2998   23.7636 H   0  0  0  0  0  0
  -15.8669  -28.0828   22.7060 H   0  0  0  0  0  0
  -24.5903  -30.7062   25.7797 H   0  0  0  0  0  0
  -24.8926  -32.2863   26.4920 H   0  0  0  0  0  0
  -25.8065  -30.8863   27.0228 H   0  0  0  0  0  0
  -26.2881  -29.6774   24.1186 H   0  0  0  0  0  0
  -27.4042  -29.7259   25.4642 H   0  0  0  0  0  0
  -27.8743  -30.4317   23.9352 H   0  0  0  0  0  0
  -27.2677  -33.3601   26.2098 H   0  0  0  0  0  0
  -28.3853  -32.6876   25.0313 H   0  0  0  0  0  0
  -28.0738  -31.8412   26.5395 H   0  0  0  0  0  0
  -28.2593  -38.0111   24.7505 H   0  0  0  0  0  0
  -28.1077  -36.2636   24.6280 H   0  0  0  0  0  0
  -27.2293  -37.1457   25.8863 H   0  0  0  0  0  0
  -20.9333  -29.8775   21.6921 H   0  0  0  0  0  0
  -26.0176  -38.2861   24.1401 H   0  0  0  0  0  0
  -31.2706  -21.1919   19.0323 H   0  0  0  0  0  0
  -33.3506  -20.2997   18.1105 H   0  0  0  0  0  0
  -32.8011  -16.6720   20.2570 H   0  0  0  0  0  0
  -29.3338  -19.7634   21.7810 H   0  0  0  0  0  0
  -28.6282  -19.8744   20.1897 H   0  0  0  0  0  0
  -29.4098  -17.5033   21.6572 H   0  0  0  0  0  0
  -30.9180  -16.9383   22.2815 H   0  0  0  0  0  0
  -30.1933  -24.3538   20.0490 H   0  0  0  0  0  0
  -29.3523  -24.2353   21.5767 H   0  0  0  0  0  0
  -27.2058  -24.8062   20.4613 H   0  0  0  0  0  0
  -28.0021  -24.9327   18.9058 H   0  0  0  0  0  0
  -30.3121  -21.9567   21.5636 H   0  0  0  0  0  0
  -29.0079  -15.4339   21.0517 H   0  0  0  0  0  0
  1 25  1  0  0  0
  1 30  2  0  0  0
  1 83  1  0  0  0
  2  3  1  0  0  0
  2 25  1  0  0  0
  2 86  1  0  0  0
  2 87  1  0  0  0
  3  4  1  0  0  0
  3 88  1  0  0  0
  3 89  1  0  0  0
  4  5  1  0  0  0
  4 90  1  0  0  0
  4 91  1  0  0  0
  5  6  1  0  0  0
  5 26  1  0  0  0
  5 92  1  0  0  0
  6 25  1  0  0  0
  6 93  1  0  0  0
  6 94  1  0  0  0
  7  8  2  0  0  0
  7 26  1  0  0  0
  7 29  1  0  0  0
  8  9  1  0  0  0
  8 22  1  0  0  0
  9 10  1  0  0  0
  9 27  2  0  0  0
 10 11  2  0  0  0
 10 15  1  0  0  0
 11 12  1  0  0  0
 11 95  1  0  0  0
 12 13  2  0  0  0
 12 96  1  0  0  0
 13 14  1  0  0  0
 13 31  1  0  0  0
 14 15  2  0  0  0
 14 97  1  0  0  0
 15 98  1  0  0  0
 16 17  2  0  0  0
 16 21  1  0  0  0
 16 31  1  0  0  0
 17 18  1  0  0  0
 17 99  1  0  0  0
 18 19  2  0  0  0
 18100  1  0  0  0
 19 20  1  0  0  0
 19 24  1  0  0  0
 20 21  2  0  0  0
 20101  1  0  0  0
 21 23  1  0  0  0
 22 28  1  0  0  0
 22 32  2  0  0  0
 26 27  1  0  0  0
 28102  1  0  0  0
 28103  1  0  0  0
 29104  1  0  0  0
 29105  1  0  0  0
 33 34  1  0  0  0
 33 66  1  0  0  0
 33 70  2  0  0  0
 34 36  1  0  0  0
 34 59  1  0  0  0
 34106  1  0  0  0
 35 44  2  0  0  0
 35 45  1  0  0  0
 35 68  1  0  0  0
 36 56  1  0  0  0
 36107  1  0  0  0
 37 39  1  0  0  0
 37 47  1  0  0  0
 37 66  1  0  0  0
 37108  1  0  0  0
 38 43  2  0  0  0
 38 46  1  0  0  0
 38 47  1  0  0  0
 39 64  1  0  0  0
 39 67  2  0  0  0
 40 52  1  0  0  0
 40 53  2  0  0  0
 40 58  1  0  0  0
 41109  1  0  0  0
 41110  1  0  0  0
 41111  1  0  0  0
 41 48  1  0  0  0
 42 43  1  0  0  0
 42 66  1  0  0  0
 42112  1  0  0  0
 42113  1  0  0  0
 43 44  1  0  0  0
 44114  1  0  0  0
 45 46  2  0  0  0
 45115  1  0  0  0
 46116  1  0  0  0
 47117  1  0  0  0
 47118  1  0  0  0
 48 56  1  0  0  0
 48 65  1  0  0  0
 48119  1  0  0  0
 49 50  1  0  0  0
 49 53  1  0  0  0
 49 64  1  0  0  0
 49120  1  0  0  0
 50 51  1  0  0  0
 50121  1  0  0  0
 50122  1  0  0  0
 51 52  1  0  0  0
 51123  1  0  0  0
 51124  1  0  0  0
 52125  1  0  0  0
 52126  1  0  0  0
 53 54  1  0  0  0
 54 55  2  0  0  0
 54127  1  0  0  0
 55 57  1  0  0  0
 55128  1  0  0  0
 56 69  2  0  0  0
 57 58  2  0  0  0
 57129  1  0  0  0
 58130  1  0  0  0
 59 60  1  0  0  0
 59 61  1  0  0  0
 59 62  1  0  0  0
 60131  1  0  0  0
 60132  1  0  0  0
 60133  1  0  0  0
 61134  1  0  0  0
 61135  1  0  0  0
 61136  1  0  0  0
 62137  1  0  0  0
 62138  1  0  0  0
 62139  1  0  0  0
 63 65  1  0  0  0
 63140  1  0  0  0
 63141  1  0  0  0
 63142  1  0  0  0
 64143  1  0  0  0
 65144  1  0  0  0
 68 81  1  0  0  0
 71 72  2  0  0  0
 71 74  1  0  0  0
 71145  1  0  0  0
 72 76  1  0  0  0
 72146  1  0  0  0
 73 75  1  0  0  0
 73 76  2  0  0  0
 73147  1  0  0  0
 74 75  2  0  0  0
 74 78  1  0  0  0
 75 79  1  0  0  0
 76 85  1  0  0  0
 77 80  1  0  0  0
 77 82  1  0  0  0
 77 84  2  0  0  0
 78 82  1  0  0  0
 78148  1  0  0  0
 78149  1  0  0  0
 79 83  1  0  0  0
 79150  1  0  0  0
 79151  1  0  0  0
 80 81  1  0  0  0
 80152  1  0  0  0
 80153  1  0  0  0
 81154  1  0  0  0
 81155  1  0  0  0
 82156  1  0  0  0
 83157  1  0  0  0
M  ISO  4   1 100  68 101  81 101  83 100
M  END
> <chiral flag>
0

> <version>
0

> <s_m_source_file>
/data/baiqing/PycharmProjects/Reinvent-master-3.2/result/LINK_invent/BTK/process_docking_weight1_custom_product_contain_oxygen_bond_distance_aromatic_linkinvent_7_9_3/rearranged_h_0044.sdf

> <i_m_source_file_index>
43

> <r_mmod_Potential_Energy-OPLS-2005>
-125.854545593262

> <r_mmod_Stretch_Energy-OPLS-2005>
64.9742660522461

> <r_mmod_Bend_Energy-OPLS-2005>
136.029769897461

> <r_mmod_Torsional_Energy-OPLS-2005>
196.47412109375

> <r_mmod_Improper_Torsional_Energy-OPLS-2005>
4.1579270362854

> <r_mmod_Van_der_Waal_Energy-OPLS-2005>
160.259948730469

> <r_mmod_Electrostatic_Energy-OPLS-2005>
-475.322998046875

> <r_mmod_Solvation_Energy-OPLS-2005>
-245.598770141602

> <b_mmod_Minimization_Converged-OPLS-2005>
0

> <r_mmod_RMS_Derivative-OPLS-2005>
1.87972319126129

$$$$
43
                    3D
 Structure written by MMmdl.
161170  0  0  1  0            999 V2000
  -30.6152  -14.6316   20.5252 C   0  0  0  0  0  0
  -30.4437  -12.3935   19.4526 C   0  0  0  0  0  0
  -29.5097  -12.4954   18.2265 C   0  0  0  0  0  0
  -28.0340  -12.3314   18.6427 C   0  0  0  0  0  0
  -27.6544  -13.2080   19.8653 C   0  0  2  0  0  0
  -28.6964  -13.0530   20.9957 C   0  0  0  0  0  0
  -25.2569  -13.8150   20.5680 C   0  0  0  0  0  0
  -24.1822  -13.0431   20.9193 C   0  0  0  0  0  0
  -24.6382  -11.6900   20.8759 C   0  0  0  0  0  0
  -23.9049  -10.4287   21.0425 C   0  0  0  0  0  0
  -24.3603   -9.4205   21.9201 C   0  0  0  0  0  0
  -23.6277   -8.2242   22.0764 C   0  0  0  0  0  0
  -22.4264   -8.0281   21.3545 C   0  0  0  0  0  0
  -21.9892   -9.0263   20.4660 C   0  0  0  0  0  0
  -22.7220  -10.2143   20.3077 C   0  0  0  0  0  0
  -21.6857   -6.0734   22.5280 C   0  0  0  0  0  0
  -21.4010   -6.5636   23.8212 C   0  0  0  0  0  0
  -21.3654   -5.6789   24.9173 C   0  0  0  0  0  0
  -21.6045   -4.3053   24.7227 C   0  0  0  0  0  0
  -21.8814   -3.8143   23.4349 C   0  0  0  0  0  0
  -21.9185   -4.6959   22.3402 C   0  0  0  0  0  0
  -22.7851  -13.5247   21.1842 C   0  0  0  0  0  0
  -22.1657   -4.2147   21.0984 F   0  0  0  0  0  0
  -21.5627   -3.4536   25.7737 F   0  0  0  0  0  0
  -30.0112  -13.4061   20.4359 N   0  0  0  0  0  0
  -26.2983  -12.9311   20.3310 N   0  0  0  0  0  0
  -25.9308  -11.6483   20.5770 N   0  0  0  0  0  0
  -22.0480  -12.8275   22.0417 N   0  0  0  0  0  0
  -25.4296  -15.1866   20.4080 N   0  0  0  0  0  0
  -31.7659  -14.8015   20.1140 O   0  0  0  0  0  0
  -21.6633   -6.8880   21.4244 O   0  0  0  0  0  0
  -22.3547  -14.5551   20.6674 O   0  0  0  0  0  0
  -24.6257  -31.8601   23.2044 C   0  0  0  0  0  0
  -25.9105  -32.4783   23.8364 C   0  0  1  0  0  0
  -27.2209  -27.3135   20.1227 C   0  0  0  0  0  0
  -25.5915  -33.8583   24.2285 N   0  0  0  0  0  0
  -23.4196  -30.4859   21.5457 C   0  0  2  0  0  0
  -24.8659  -28.9457   20.1098 C   0  0  0  0  0  0
  -22.7471  -29.4627   22.4923 C   0  0  0  0  0  0
  -18.0281  -28.1403   22.8485 C   0  0  0  0  0  0
  -24.1485  -36.7289   23.2639 C   0  0  0  0  0  0
  -25.9614  -30.7898   21.3773 C   0  0  0  0  0  0
  -26.0338  -29.4173   20.7204 C   0  0  0  0  0  0
  -27.2119  -28.6113   20.7224 C   0  0  0  0  0  0
  -26.0329  -26.9116   19.4631 C   0  0  0  0  0  0
  -24.8674  -27.6972   19.4724 C   0  0  0  0  0  0
  -23.6349  -29.8253   20.1590 C   0  0  0  0  0  0
  -25.4110  -36.3086   24.0328 C   0  0  1  0  0  0
  -20.5886  -28.3698   23.1281 C   0  0  2  0  0  0
  -20.6762  -26.9418   22.5418 C   0  0  0  0  0  0
  -19.5742  -26.6391   21.5217 C   0  0  0  0  0  0
  -18.1922  -26.7945   22.1626 C   0  0  0  0  0  0
  -19.1538  -28.8867   23.2876 C   0  0  0  0  0  0
  -18.9463  -30.1466   23.8901 C   0  0  0  0  0  0
  -17.6463  -30.6601   24.0571 C   0  0  0  0  0  0
  -25.9042  -34.9456   23.5108 C   0  0  0  0  0  0
  -16.5352  -29.9102   23.6339 C   0  0  0  0  0  0
  -16.7269  -28.6521   23.0356 C   0  0  0  0  0  0
  -26.4489  -31.6600   25.0738 C   0  0  0  0  0  0
  -25.3718  -31.3759   26.1462 C   0  0  0  0  0  0
  -27.0313  -30.3011   24.6204 C   0  0  0  0  0  0
  -27.6043  -32.4336   25.7516 C   0  0  0  0  0  0
  -27.5568  -37.1808   24.8469 C   0  0  0  0  0  0
  -21.4186  -29.3049   22.3666 N   0  0  0  0  0  0
  -26.4289  -37.3775   23.9399 N   0  0  0  0  0  0
  -24.6877  -31.0624   22.0980 N   0  0  0  0  0  0
  -23.4191  -28.8146   23.2982 O   0  0  0  0  0  0
  -28.3331  -26.4550   20.2170 O   0  0  0  0  0  0
  -26.5615  -34.8921   22.4676 O   0  0  0  0  0  0
  -23.5421  -32.1397   23.7367 O   0  0  0  0  0  0
  -28.6869  -19.2913   20.5569 C   0  0  0  0  0  0
  -28.7544  -17.8657   20.4915 C   0  0  0  0  0  0
  -30.9207  -19.3204   21.4311 C   0  0  0  0  0  0
  -29.7758  -20.0660   21.0315 C   0  0  0  0  0  0
  -30.9927  -17.8932   21.3825 C   0  0  0  0  0  0
  -29.8989  -17.1205   20.8937 C   0  0  0  0  0  0
  -28.9305  -23.9753   20.8208 C   0  0  0  0  0  0
  -28.2931  -23.2916   18.0687 C   0  0  0  0  0  0
  -28.5503  -24.7601   18.4268 C   0  0  0  0  0  0
  -29.0923  -22.3203   18.9639 C   0  0  0  0  0  0
  -28.1777  -25.0100   19.8919 C   0  0  2  0  0  0
  -32.2335  -17.2215   21.9435 C   0  0  0  0  0  0
  -29.7200  -21.6223   21.3147 C   0  0  0  0  0  0
  -29.1291  -22.6686   20.3962 N   0  0  0  0  0  0
  -29.7996  -15.6586   20.9315 N   0  0  0  0  0  0
  -29.2648  -24.3422   21.9527 O   0  0  0  0  0  0
  -31.4823  -12.5309   19.1462 H   0  0  0  0  0  0
  -30.3929  -11.3975   19.8949 H   0  0  0  0  0  0
  -29.7762  -11.7327   17.4927 H   0  0  0  0  0  0
  -29.6497  -13.4583   17.7318 H   0  0  0  0  0  0
  -27.8812  -11.2799   18.8889 H   0  0  0  0  0  0
  -27.3750  -12.5429   17.7999 H   0  0  0  0  0  0
  -27.6786  -14.2426   19.5227 H   0  0  0  0  0  0
  -28.7116  -12.0262   21.3650 H   0  0  0  0  0  0
  -28.4371  -13.6723   21.8555 H   0  0  0  0  0  0
  -25.2755   -9.5682   22.4763 H   0  0  0  0  0  0
  -23.9990   -7.4634   22.7481 H   0  0  0  0  0  0
  -21.0813   -8.8786   19.8977 H   0  0  0  0  0  0
  -22.3679  -10.9684   19.6180 H   0  0  0  0  0  0
  -21.2013   -7.6146   23.9716 H   0  0  0  0  0  0
  -21.1478   -6.0522   25.9075 H   0  0  0  0  0  0
  -22.0597   -2.7608   23.2852 H   0  0  0  0  0  0
  -22.4067  -11.9951   22.4843 H   0  0  0  0  0  0
  -21.1110  -13.1342   22.2624 H   0  0  0  0  0  0
  -24.6605  -15.8387   20.5126 H   0  0  0  0  0  0
  -26.2668  -15.6196   20.0426 H   0  0  0  0  0  0
  -26.7171  -32.5453   23.1108 H   0  0  0  0  0  0
  -25.0062  -33.9735   25.0431 H   0  0  0  0  0  0
  -22.7127  -31.3055   21.4041 H   0  0  0  0  0  0
  -23.3737  -35.9637   23.3347 H   0  0  0  0  0  0
  -24.3562  -36.8855   22.2041 H   0  0  0  0  0  0
  -23.7259  -37.6508   23.6642 H   0  0  0  0  0  0
  -26.0971  -31.5514   20.6077 H   0  0  0  0  0  0
  -26.8401  -30.8370   22.0086 H   0  0  0  0  0  0
  -28.1038  -28.9644   21.2222 H   0  0  0  0  0  0
  -25.9606  -25.9739   18.9349 H   0  0  0  0  0  0
  -23.9747  -27.3363   18.9793 H   0  0  0  0  0  0
  -23.7543  -30.6038   19.4036 H   0  0  0  0  0  0
  -22.7559  -29.2544   19.8551 H   0  0  0  0  0  0
  -25.1301  -36.1936   25.0823 H   0  0  0  0  0  0
  -20.9983  -28.3280   24.1398 H   0  0  0  0  0  0
  -20.5657  -26.2309   23.3618 H   0  0  0  0  0  0
  -21.6629  -26.7435   22.1222 H   0  0  0  0  0  0
  -19.6897  -25.6299   21.1250 H   0  0  0  0  0  0
  -19.6693  -27.3197   20.6744 H   0  0  0  0  0  0
  -17.4189  -26.6693   21.4031 H   0  0  0  0  0  0
  -18.0327  -26.0101   22.9039 H   0  0  0  0  0  0
  -19.7936  -30.7281   24.2278 H   0  0  0  0  0  0
  -17.5020  -31.6285   24.5164 H   0  0  0  0  0  0
  -15.5355  -30.3005   23.7674 H   0  0  0  0  0  0
  -15.8665  -28.0842   22.7074 H   0  0  0  0  0  0
  -24.5925  -30.7056   25.7821 H   0  0  0  0  0  0
  -24.8872  -32.2928   26.4826 H   0  0  0  0  0  0
  -25.8037  -30.9010   27.0278 H   0  0  0  0  0  0
  -26.2891  -29.6787   24.1188 H   0  0  0  0  0  0
  -27.3941  -29.7246   25.4725 H   0  0  0  0  0  0
  -27.8809  -30.4278   23.9488 H   0  0  0  0  0  0
  -27.2650  -33.3646   26.2077 H   0  0  0  0  0  0
  -28.3877  -32.6862   25.0361 H   0  0  0  0  0  0
  -28.0694  -31.8470   26.5449 H   0  0  0  0  0  0
  -28.2617  -38.0068   24.7456 H   0  0  0  0  0  0
  -28.1025  -36.2591   24.6381 H   0  0  0  0  0  0
  -27.2282  -37.1570   25.8872 H   0  0  0  0  0  0
  -20.9361  -29.8764   21.6879 H   0  0  0  0  0  0
  -26.0169  -38.2856   24.1367 H   0  0  0  0  0  0
  -27.7646  -19.7837   20.2796 H   0  0  0  0  0  0
  -27.8799  -17.3337   20.1481 H   0  0  0  0  0  0
  -31.7591  -19.8613   21.8483 H   0  0  0  0  0  0
  -28.5420  -23.1155   17.0217 H   0  0  0  0  0  0
  -27.2265  -23.0802   18.1622 H   0  0  0  0  0  0
  -27.9719  -25.4089   17.7699 H   0  0  0  0  0  0
  -29.5988  -25.0140   18.2605 H   0  0  0  0  0  0
  -30.1248  -22.2777   18.6168 H   0  0  0  0  0  0
  -28.6836  -21.3221   18.8235 H   0  0  0  0  0  0
  -27.1461  -24.7039   20.0543 H   0  0  0  0  0  0
  -31.9679  -16.3959   22.6036 H   0  0  0  0  0  0
  -32.8446  -17.9200   22.5166 H   0  0  0  0  0  0
  -32.8495  -16.8366   21.1316 H   0  0  0  0  0  0
  -30.7427  -21.9460   21.5144 H   0  0  0  0  0  0
  -29.2111  -21.7197   22.2753 H   0  0  0  0  0  0
  -28.8735  -15.3217   21.1442 H   0  0  0  0  0  0
  1 25  1  0  0  0
  1 30  2  0  0  0
  1 85  1  0  0  0
  2  3  1  0  0  0
  2 25  1  0  0  0
  2 87  1  0  0  0
  2 88  1  0  0  0
  3  4  1  0  0  0
  3 89  1  0  0  0
  3 90  1  0  0  0
  4  5  1  0  0  0
  4 91  1  0  0  0
  4 92  1  0  0  0
  5  6  1  0  0  0
  5 26  1  0  0  0
  5 93  1  0  0  0
  6 25  1  0  0  0
  6 94  1  0  0  0
  6 95  1  0  0  0
  7  8  2  0  0  0
  7 26  1  0  0  0
  7 29  1  0  0  0
  8  9  1  0  0  0
  8 22  1  0  0  0
  9 10  1  0  0  0
  9 27  2  0  0  0
 10 11  2  0  0  0
 10 15  1  0  0  0
 11 12  1  0  0  0
 11 96  1  0  0  0
 12 13  2  0  0  0
 12 97  1  0  0  0
 13 14  1  0  0  0
 13 31  1  0  0  0
 14 15  2  0  0  0
 14 98  1  0  0  0
 15 99  1  0  0  0
 16 17  2  0  0  0
 16 21  1  0  0  0
 16 31  1  0  0  0
 17 18  1  0  0  0
 17100  1  0  0  0
 18 19  2  0  0  0
 18101  1  0  0  0
 19 20  1  0  0  0
 19 24  1  0  0  0
 20 21  2  0  0  0
 20102  1  0  0  0
 21 23  1  0  0  0
 22 28  1  0  0  0
 22 32  2  0  0  0
 26 27  1  0  0  0
 28103  1  0  0  0
 28104  1  0  0  0
 29105  1  0  0  0
 29106  1  0  0  0
 33 34  1  0  0  0
 33 66  1  0  0  0
 33 70  2  0  0  0
 34 36  1  0  0  0
 34 59  1  0  0  0
 34107  1  0  0  0
 35 44  2  0  0  0
 35 45  1  0  0  0
 35 68  1  0  0  0
 36 56  1  0  0  0
 36108  1  0  0  0
 37 39  1  0  0  0
 37 47  1  0  0  0
 37 66  1  0  0  0
 37109  1  0  0  0
 38 43  2  0  0  0
 38 46  1  0  0  0
 38 47  1  0  0  0
 39 64  1  0  0  0
 39 67  2  0  0  0
 40 52  1  0  0  0
 40 53  2  0  0  0
 40 58  1  0  0  0
 41110  1  0  0  0
 41111  1  0  0  0
 41112  1  0  0  0
 41 48  1  0  0  0
 42 43  1  0  0  0
 42 66  1  0  0  0
 42113  1  0  0  0
 42114  1  0  0  0
 43 44  1  0  0  0
 44115  1  0  0  0
 45 46  2  0  0  0
 45116  1  0  0  0
 46117  1  0  0  0
 47118  1  0  0  0
 47119  1  0  0  0
 48 56  1  0  0  0
 48 65  1  0  0  0
 48120  1  0  0  0
 49 50  1  0  0  0
 49 53  1  0  0  0
 49 64  1  0  0  0
 49121  1  0  0  0
 50 51  1  0  0  0
 50122  1  0  0  0
 50123  1  0  0  0
 51 52  1  0  0  0
 51124  1  0  0  0
 51125  1  0  0  0
 52126  1  0  0  0
 52127  1  0  0  0
 53 54  1  0  0  0
 54 55  2  0  0  0
 54128  1  0  0  0
 55 57  1  0  0  0
 55129  1  0  0  0
 56 69  2  0  0  0
 57 58  2  0  0  0
 57130  1  0  0  0
 58131  1  0  0  0
 59 60  1  0  0  0
 59 61  1  0  0  0
 59 62  1  0  0  0
 60132  1  0  0  0
 60133  1  0  0  0
 60134  1  0  0  0
 61135  1  0  0  0
 61136  1  0  0  0
 61137  1  0  0  0
 62138  1  0  0  0
 62139  1  0  0  0
 62140  1  0  0  0
 63 65  1  0  0  0
 63141  1  0  0  0
 63142  1  0  0  0
 63143  1  0  0  0
 64144  1  0  0  0
 65145  1  0  0  0
 68 81  1  0  0  0
 71 72  2  0  0  0
 71 74  1  0  0  0
 71146  1  0  0  0
 72 76  1  0  0  0
 72147  1  0  0  0
 73 74  2  0  0  0
 73 75  1  0  0  0
 73148  1  0  0  0
 74 83  1  0  0  0
 75 76  2  0  0  0
 75 82  1  0  0  0
 76 85  1  0  0  0
 77 81  1  0  0  0
 77 84  1  0  0  0
 77 86  2  0  0  0
 78 79  1  0  0  0
 78 80  1  0  0  0
 78149  1  0  0  0
 78150  1  0  0  0
 79 81  1  0  0  0
 79151  1  0  0  0
 79152  1  0  0  0
 80 84  1  0  0  0
 80153  1  0  0  0
 80154  1  0  0  0
 81155  1  0  0  0
 82156  1  0  0  0
 82157  1  0  0  0
 82158  1  0  0  0
 83 84  1  0  0  0
 83159  1  0  0  0
 83160  1  0  0  0
 85161  1  0  0  0
M  ISO  4   1 100  68 101  81 101  85 100
M  END
> <chiral flag>
0

> <version>
0

> <s_m_source_file>
/data/baiqing/PycharmProjects/Reinvent-master-3.2/result/LINK_invent/BTK/process_docking_weight1_custom_product_contain_oxygen_bond_distance_aromatic_linkinvent_7_9_3/rearranged_h_0044.sdf

> <i_m_source_file_index>
44

> <r_mmod_Potential_Energy-OPLS-2005>
117.557327270508

> <r_mmod_Stretch_Energy-OPLS-2005>
86.92041015625

> <r_mmod_Bend_Energy-OPLS-2005>
156.34733581543

> <r_mmod_Torsional_Energy-OPLS-2005>
244.77294921875

> <r_mmod_Improper_Torsional_Energy-OPLS-2005>
7.10629320144653

> <r_mmod_Van_der_Waal_Energy-OPLS-2005>
157.878189086914

> <r_mmod_Electrostatic_Energy-OPLS-2005>
-351.009368896484

> <r_mmod_Solvation_Energy-OPLS-2005>
-235.037734985352

> <b_mmod_Minimization_Converged-OPLS-2005>
0

> <r_mmod_RMS_Derivative-OPLS-2005>
2.23557615280151

$$$$
44
                    3D
 Structure written by MMmdl.
159167  0  0  1  0            999 V2000
  -30.7011  -14.4969   20.5793 C   0  0  0  0  0  0
  -30.4235  -12.3266   19.4258 C   0  0  0  0  0  0
  -29.4957  -12.5151   18.2075 C   0  0  0  0  0  0
  -28.0150  -12.3777   18.6159 C   0  0  0  0  0  0
  -27.6585  -13.2141   19.8747 C   0  0  2  0  0  0
  -28.7022  -13.0036   20.9955 C   0  0  0  0  0  0
  -25.2537  -13.8137   20.5674 C   0  0  0  0  0  0
  -24.1814  -13.0410   20.9208 C   0  0  0  0  0  0
  -24.6397  -11.6890   20.8754 C   0  0  0  0  0  0
  -23.9060  -10.4271   21.0408 C   0  0  0  0  0  0
  -24.3600   -9.4188   21.9190 C   0  0  0  0  0  0
  -23.6269   -8.2225   22.0751 C   0  0  0  0  0  0
  -22.4256   -8.0264   21.3537 C   0  0  0  0  0  0
  -21.9895   -9.0243   20.4645 C   0  0  0  0  0  0
  -22.7229  -10.2120   20.3059 C   0  0  0  0  0  0
  -21.6849   -6.0730   22.5283 C   0  0  0  0  0  0
  -21.4022   -6.5629   23.8222 C   0  0  0  0  0  0
  -21.3668   -5.6775   24.9182 C   0  0  0  0  0  0
  -21.6044   -4.3038   24.7228 C   0  0  0  0  0  0
  -21.8814   -3.8135   23.4348 C   0  0  0  0  0  0
  -21.9188   -4.6955   22.3407 C   0  0  0  0  0  0
  -22.7832  -13.5214   21.1857 C   0  0  0  0  0  0
  -22.1659   -4.2140   21.0983 F   0  0  0  0  0  0
  -21.5622   -3.4524   25.7747 F   0  0  0  0  0  0
  -30.0295  -13.3185   20.4422 N   0  0  0  0  0  0
  -26.3002  -12.9345   20.3362 N   0  0  0  0  0  0
  -25.9326  -11.6492   20.5756 N   0  0  0  0  0  0
  -22.0453  -12.8220   22.0414 N   0  0  0  0  0  0
  -25.4164  -15.1841   20.4063 N   0  0  0  0  0  0
  -31.8298  -14.6616   20.1068 O   0  0  0  0  0  0
  -21.6613   -6.8871   21.4244 O   0  0  0  0  0  0
  -22.3524  -14.5519   20.6701 O   0  0  0  0  0  0
  -24.6155  -31.8668   23.2099 C   0  0  0  0  0  0
  -25.9044  -32.4822   23.8390 C   0  0  1  0  0  0
  -27.2281  -27.4186   20.1029 C   0  0  0  0  0  0
  -25.5898  -33.8621   24.2329 N   0  0  0  0  0  0
  -23.4041  -30.4904   21.5511 C   0  0  2  0  0  0
  -24.8524  -28.9589   20.1115 C   0  0  0  0  0  0
  -22.7413  -29.4648   22.4984 C   0  0  0  0  0  0
  -18.0268  -28.1380   22.8486 C   0  0  0  0  0  0
  -24.1482  -36.7315   23.2636 C   0  0  0  0  0  0
  -25.9351  -30.8295   21.3660 C   0  0  0  0  0  0
  -26.0140  -29.4633   20.7113 C   0  0  0  0  0  0
  -27.2076  -28.7014   20.7022 C   0  0  0  0  0  0
  -26.0552  -26.9445   19.4754 C   0  0  0  0  0  0
  -24.8692  -27.7012   19.4868 C   0  0  0  0  0  0
  -23.6137  -29.8252   20.1650 C   0  0  0  0  0  0
  -25.4117  -36.3119   24.0328 C   0  0  1  0  0  0
  -20.5860  -28.3651   23.1316 C   0  0  2  0  0  0
  -20.6772  -26.9392   22.5405 C   0  0  0  0  0  0
  -19.5736  -26.6357   21.5225 C   0  0  0  0  0  0
  -18.1914  -26.7922   22.1625 C   0  0  0  0  0  0
  -19.1523  -28.8834   23.2898 C   0  0  0  0  0  0
  -18.9451  -30.1442   23.8910 C   0  0  0  0  0  0
  -17.6459  -30.6585   24.0573 C   0  0  0  0  0  0
  -25.9038  -34.9480   23.5129 C   0  0  0  0  0  0
  -16.5350  -29.9098   23.6320 C   0  0  0  0  0  0
  -16.7259  -28.6515   23.0337 C   0  0  0  0  0  0
  -26.4471  -31.6593   25.0716 C   0  0  0  0  0  0
  -25.3736  -31.3691   26.1461 C   0  0  0  0  0  0
  -27.0303  -30.3039   24.6087 C   0  0  0  0  0  0
  -27.6051  -32.4309   25.7474 C   0  0  0  0  0  0
  -27.5581  -37.1820   24.8465 C   0  0  0  0  0  0
  -21.4137  -29.3025   22.3734 N   0  0  0  0  0  0
  -26.4303  -37.3805   23.9400 N   0  0  0  0  0  0
  -24.6697  -31.0754   22.1015 N   0  0  0  0  0  0
  -23.4190  -28.8183   23.3010 O   0  0  0  0  0  0
  -28.3686  -26.6378   20.1192 O   0  0  0  0  0  0
  -26.5598  -34.8923   22.4686 O   0  0  0  0  0  0
  -23.5340  -32.1422   23.7488 O   0  0  0  0  0  0
  -31.1600  -19.6257   21.5221 C   0  0  0  0  0  0
  -31.7080  -17.2530   21.6052 C   0  0  0  0  0  0
  -29.8251  -19.3327   21.1682 C   0  0  0  0  0  0
  -29.4285  -17.9574   21.0681 C   0  0  0  0  0  0
  -30.3829  -16.9054   21.2509 C   0  0  0  0  0  0
  -32.0899  -18.5983   21.7465 C   0  0  0  0  0  0
  -28.6708  -22.7941   20.4928 C   0  0  0  0  0  0
  -27.7319  -17.4613   19.2468 C   0  0  0  0  0  0
  -27.9768  -17.6051   20.7556 C   0  0  0  0  0  0
  -28.8352  -20.5017   20.9484 C   0  0  0  0  0  0
  -29.0770  -24.2141   20.0637 C   0  0  0  0  0  0
  -28.1998  -25.3243   20.7045 C   0  0  0  0  0  0
  -29.4555  -21.7833   20.5763 N   0  0  0  0  0  0
  -30.0014  -15.5181   21.1324 N   0  0  0  0  0  0
  -33.7062  -18.9945   22.2027 Cl  0  0  0  0  0  0
  -31.4672  -12.4275   19.1221 H   0  0  0  0  0  0
  -30.3291  -11.3171   19.8297 H   0  0  0  0  0  0
  -29.7369  -11.7873   17.4320 H   0  0  0  0  0  0
  -29.6666  -13.4992   17.7655 H   0  0  0  0  0  0
  -27.8218  -11.3216   18.8036 H   0  0  0  0  0  0
  -27.3690  -12.6585   17.7828 H   0  0  0  0  0  0
  -27.6972  -14.2624   19.5788 H   0  0  0  0  0  0
  -28.6862  -11.9667   21.3371 H   0  0  0  0  0  0
  -28.4619  -13.6039   21.8732 H   0  0  0  0  0  0
  -25.2754   -9.5637   22.4756 H   0  0  0  0  0  0
  -23.9974   -7.4606   22.7464 H   0  0  0  0  0  0
  -21.0826   -8.8769   19.8944 H   0  0  0  0  0  0
  -22.3709  -10.9654   19.6151 H   0  0  0  0  0  0
  -21.2025   -7.6139   23.9737 H   0  0  0  0  0  0
  -21.1499   -6.0500   25.9090 H   0  0  0  0  0  0
  -22.0589   -2.7595   23.2848 H   0  0  0  0  0  0
  -22.4037  -11.9888   22.4838 H   0  0  0  0  0  0
  -21.1076  -13.1266   22.2611 H   0  0  0  0  0  0
  -24.6306  -15.8203   20.4831 H   0  0  0  0  0  0
  -26.2429  -15.6171   20.0173 H   0  0  0  0  0  0
  -26.7132  -32.5543   23.1169 H   0  0  0  0  0  0
  -25.0058  -33.9777   25.0483 H   0  0  0  0  0  0
  -22.6945  -31.3080   21.4141 H   0  0  0  0  0  0
  -23.3742  -35.9650   23.3323 H   0  0  0  0  0  0
  -24.3565  -36.8901   22.2042 H   0  0  0  0  0  0
  -23.7231  -37.6527   23.6633 H   0  0  0  0  0  0
  -26.0486  -31.5960   20.5982 H   0  0  0  0  0  0
  -26.8240  -30.8834   21.9822 H   0  0  0  0  0  0
  -28.1037  -29.0821   21.1732 H   0  0  0  0  0  0
  -26.0510  -25.9842   18.9776 H   0  0  0  0  0  0
  -23.9790  -27.3143   19.0097 H   0  0  0  0  0  0
  -23.7202  -30.6009   19.4060 H   0  0  0  0  0  0
  -22.7385  -29.2420   19.8699 H   0  0  0  0  0  0
  -25.1301  -36.1989   25.0822 H   0  0  0  0  0  0
  -20.9957  -28.3202   24.1437 H   0  0  0  0  0  0
  -20.5716  -26.2260   23.3590 H   0  0  0  0  0  0
  -21.6635  -26.7452   22.1173 H   0  0  0  0  0  0
  -19.6905  -25.6268   21.1254 H   0  0  0  0  0  0
  -19.6661  -27.3151   20.6744 H   0  0  0  0  0  0
  -17.4199  -26.6688   21.4007 H   0  0  0  0  0  0
  -18.0262  -26.0066   22.9012 H   0  0  0  0  0  0
  -19.7935  -30.7247   24.2290 H   0  0  0  0  0  0
  -17.5021  -31.6258   24.5192 H   0  0  0  0  0  0
  -15.5359  -30.3017   23.7645 H   0  0  0  0  0  0
  -15.8653  -28.0855   22.7045 H   0  0  0  0  0  0
  -24.5925  -30.7026   25.7784 H   0  0  0  0  0  0
  -24.8910  -32.2841   26.4905 H   0  0  0  0  0  0
  -25.8082  -30.8858   27.0220 H   0  0  0  0  0  0
  -26.2843  -29.6808   24.1145 H   0  0  0  0  0  0
  -27.4084  -29.7262   25.4529 H   0  0  0  0  0  0
  -27.8666  -30.4368   23.9227 H   0  0  0  0  0  0
  -27.2689  -33.3609   26.2074 H   0  0  0  0  0  0
  -28.3845  -32.6869   25.0284 H   0  0  0  0  0  0
  -28.0745  -31.8422   26.5369 H   0  0  0  0  0  0
  -28.2628  -38.0093   24.7513 H   0  0  0  0  0  0
  -28.1053  -36.2627   24.6314 H   0  0  0  0  0  0
  -27.2287  -37.1494   25.8864 H   0  0  0  0  0  0
  -20.9289  -29.8737   21.6954 H   0  0  0  0  0  0
  -26.0190  -38.2878   24.1412 H   0  0  0  0  0  0
  -31.4825  -20.6499   21.6404 H   0  0  0  0  0  0
  -32.4498  -16.4901   21.7903 H   0  0  0  0  0  0
  -27.6022  -22.6976   20.7085 H   0  0  0  0  0  0
  -28.0044  -18.3700   18.7092 H   0  0  0  0  0  0
  -26.6814  -17.2657   19.0346 H   0  0  0  0  0  0
  -28.3188  -16.6437   18.8267 H   0  0  0  0  0  0
  -27.3079  -18.3550   21.1781 H   0  0  0  0  0  0
  -27.6972  -16.6869   21.2717 H   0  0  0  0  0  0
  -28.2522  -20.6089   21.8674 H   0  0  0  0  0  0
  -28.1267  -20.2214   20.1676 H   0  0  0  0  0  0
  -28.9894  -24.2722   18.9788 H   0  0  0  0  0  0
  -30.1271  -24.3836   20.3017 H   0  0  0  0  0  0
  -28.4465  -25.4018   21.7636 H   0  0  0  0  0  0
  -27.1590  -25.0001   20.6813 H   0  0  0  0  0  0
  -29.0501  -15.2915   21.3774 H   0  0  0  0  0  0
  1 25  1  0  0  0
  1 30  2  0  0  0
  1 84  1  0  0  0
  2  3  1  0  0  0
  2 25  1  0  0  0
  2 86  1  0  0  0
  2 87  1  0  0  0
  3  4  1  0  0  0
  3 88  1  0  0  0
  3 89  1  0  0  0
  4  5  1  0  0  0
  4 90  1  0  0  0
  4 91  1  0  0  0
  5  6  1  0  0  0
  5 26  1  0  0  0
  5 92  1  0  0  0
  6 25  1  0  0  0
  6 93  1  0  0  0
  6 94  1  0  0  0
  7  8  2  0  0  0
  7 26  1  0  0  0
  7 29  1  0  0  0
  8  9  1  0  0  0
  8 22  1  0  0  0
  9 10  1  0  0  0
  9 27  2  0  0  0
 10 11  2  0  0  0
 10 15  1  0  0  0
 11 12  1  0  0  0
 11 95  1  0  0  0
 12 13  2  0  0  0
 12 96  1  0  0  0
 13 14  1  0  0  0
 13 31  1  0  0  0
 14 15  2  0  0  0
 14 97  1  0  0  0
 15 98  1  0  0  0
 16 17  2  0  0  0
 16 21  1  0  0  0
 16 31  1  0  0  0
 17 18  1  0  0  0
 17 99  1  0  0  0
 18 19  2  0  0  0
 18100  1  0  0  0
 19 20  1  0  0  0
 19 24  1  0  0  0
 20 21  2  0  0  0
 20101  1  0  0  0
 21 23  1  0  0  0
 22 28  1  0  0  0
 22 32  2  0  0  0
 26 27  1  0  0  0
 28102  1  0  0  0
 28103  1  0  0  0
 29104  1  0  0  0
 29105  1  0  0  0
 33 34  1  0  0  0
 33 66  1  0  0  0
 33 70  2  0  0  0
 34 36  1  0  0  0
 34 59  1  0  0  0
 34106  1  0  0  0
 35 44  2  0  0  0
 35 45  1  0  0  0
 35 68  1  0  0  0
 36 56  1  0  0  0
 36107  1  0  0  0
 37 39  1  0  0  0
 37 47  1  0  0  0
 37 66  1  0  0  0
 37108  1  0  0  0
 38 43  2  0  0  0
 38 46  1  0  0  0
 38 47  1  0  0  0
 39 64  1  0  0  0
 39 67  2  0  0  0
 40 52  1  0  0  0
 40 53  2  0  0  0
 40 58  1  0  0  0
 41109  1  0  0  0
 41110  1  0  0  0
 41111  1  0  0  0
 41 48  1  0  0  0
 42 43  1  0  0  0
 42 66  1  0  0  0
 42112  1  0  0  0
 42113  1  0  0  0
 43 44  1  0  0  0
 44114  1  0  0  0
 45 46  2  0  0  0
 45115  1  0  0  0
 46116  1  0  0  0
 47117  1  0  0  0
 47118  1  0  0  0
 48 56  1  0  0  0
 48 65  1  0  0  0
 48119  1  0  0  0
 49 50  1  0  0  0
 49 53  1  0  0  0
 49 64  1  0  0  0
 49120  1  0  0  0
 50 51  1  0  0  0
 50121  1  0  0  0
 50122  1  0  0  0
 51 52  1  0  0  0
 51123  1  0  0  0
 51124  1  0  0  0
 52125  1  0  0  0
 52126  1  0  0  0
 53 54  1  0  0  0
 54 55  2  0  0  0
 54127  1  0  0  0
 55 57  1  0  0  0
 55128  1  0  0  0
 56 69  2  0  0  0
 57 58  2  0  0  0
 57129  1  0  0  0
 58130  1  0  0  0
 59 60  1  0  0  0
 59 61  1  0  0  0
 59 62  1  0  0  0
 60131  1  0  0  0
 60132  1  0  0  0
 60133  1  0  0  0
 61134  1  0  0  0
 61135  1  0  0  0
 61136  1  0  0  0
 62137  1  0  0  0
 62138  1  0  0  0
 62139  1  0  0  0
 63 65  1  0  0  0
 63140  1  0  0  0
 63141  1  0  0  0
 63142  1  0  0  0
 64143  1  0  0  0
 65144  1  0  0  0
 68 82  1  0  0  0
 71 73  2  0  0  0
 71 76  1  0  0  0
 71145  1  0  0  0
 72 75  1  0  0  0
 72 76  2  0  0  0
 72146  1  0  0  0
 73 74  1  0  0  0
 73 80  1  0  0  0
 74 75  2  0  0  0
 74 79  1  0  0  0
 75 84  1  0  0  0
 76 85  1  0  0  0
 77 81  1  0  0  0
 77 83  2  0  0  0
 77147  1  0  0  0
 78 79  1  0  0  0
 78148  1  0  0  0
 78149  1  0  0  0
 78150  1  0  0  0
 79151  1  0  0  0
 79152  1  0  0  0
 80 83  1  0  0  0
 80153  1  0  0  0
 80154  1  0  0  0
 81 82  1  0  0  0
 81155  1  0  0  0
 81156  1  0  0  0
 82157  1  0  0  0
 82158  1  0  0  0
 84159  1  0  0  0
M  ISO  4   1 100  68 101  82 101  84 100
M  END
> <chiral flag>
0

> <version>
0

> <s_m_source_file>
/data/baiqing/PycharmProjects/Reinvent-master-3.2/result/LINK_invent/BTK/process_docking_weight1_custom_product_contain_oxygen_bond_distance_aromatic_linkinvent_7_9_3/rearranged_h_0044.sdf

> <i_m_source_file_index>
45

> <r_mmod_Potential_Energy-OPLS-2005>
-53.8371353149414

> <r_mmod_Stretch_Energy-OPLS-2005>
47.6430130004883

> <r_mmod_Bend_Energy-OPLS-2005>
93.5750274658203

> <r_mmod_Torsional_Energy-OPLS-2005>
231.057159423828

> <r_mmod_Improper_Torsional_Energy-OPLS-2005>
3.88726258277893

> <r_mmod_Van_der_Waal_Energy-OPLS-2005>
154.826202392578

> <r_mmod_Electrostatic_Energy-OPLS-2005>
-384.207458496094

> <r_mmod_Solvation_Energy-OPLS-2005>
-216.43522644043

> <b_mmod_Minimization_Converged-OPLS-2005>
0

> <r_mmod_RMS_Derivative-OPLS-2005>
2.09245777130127

$$$$
45
                    3D
 Structure written by MMmdl.
161170  0  0  1  0            999 V2000
  -30.5614  -14.7655   20.4778 C   0  0  0  0  0  0
  -30.4498  -12.4713   19.4609 C   0  0  0  0  0  0
  -29.5165  -12.5087   18.2286 C   0  0  0  0  0  0
  -28.0425  -12.3188   18.6439 C   0  0  0  0  0  0
  -27.6401  -13.2206   19.8405 C   0  0  2  0  0  0
  -28.6854  -13.1437   20.9709 C   0  0  0  0  0  0
  -25.2522  -13.8169   20.5669 C   0  0  0  0  0  0
  -24.1795  -13.0441   20.9195 C   0  0  0  0  0  0
  -24.6375  -11.6911   20.8733 C   0  0  0  0  0  0
  -23.9055  -10.4299   21.0419 C   0  0  0  0  0  0
  -24.3609   -9.4210   21.9199 C   0  0  0  0  0  0
  -23.6274   -8.2257   22.0763 C   0  0  0  0  0  0
  -22.4259   -8.0301   21.3553 C   0  0  0  0  0  0
  -21.9898   -9.0278   20.4659 C   0  0  0  0  0  0
  -22.7236  -10.2146   20.3065 C   0  0  0  0  0  0
  -21.6857   -6.0735   22.5276 C   0  0  0  0  0  0
  -21.4026   -6.5638   23.8215 C   0  0  0  0  0  0
  -21.3651   -5.6780   24.9168 C   0  0  0  0  0  0
  -21.6033   -4.3046   24.7221 C   0  0  0  0  0  0
  -21.8822   -3.8141   23.4345 C   0  0  0  0  0  0
  -21.9193   -4.6958   22.3395 C   0  0  0  0  0  0
  -22.7825  -13.5244   21.1874 C   0  0  0  0  0  0
  -22.1660   -4.2142   21.0969 F   0  0  0  0  0  0
  -21.5617   -3.4527   25.7734 F   0  0  0  0  0  0
  -29.9820  -13.5215   20.3910 N   0  0  0  0  0  0
  -26.2913  -12.9350   20.3193 N   0  0  0  0  0  0
  -25.9285  -11.6502   20.5686 N   0  0  0  0  0  0
  -22.0452  -12.8244   22.0427 N   0  0  0  0  0  0
  -25.4206  -15.1902   20.4115 N   0  0  0  0  0  0
  -31.7681  -14.9087   20.2540 O   0  0  0  0  0  0
  -21.6639   -6.8887   21.4242 O   0  0  0  0  0  0
  -22.3510  -14.5548   20.6711 O   0  0  0  0  0  0
  -24.6315  -31.8536   23.1944 C   0  0  0  0  0  0
  -25.9131  -32.4748   23.8304 C   0  0  1  0  0  0
  -27.2204  -27.2607   20.1365 C   0  0  0  0  0  0
  -25.5910  -33.8547   24.2229 N   0  0  0  0  0  0
  -23.4288  -30.4746   21.5375 C   0  0  2  0  0  0
  -24.8767  -28.9119   20.1160 C   0  0  0  0  0  0
  -22.7490  -29.4600   22.4890 C   0  0  0  0  0  0
  -18.0287  -28.1383   22.8483 C   0  0  0  0  0  0
  -24.1483  -36.7290   23.2642 C   0  0  0  0  0  0
  -25.9741  -30.7682   21.3716 C   0  0  0  0  0  0
  -26.0495  -29.3869   20.7198 C   0  0  0  0  0  0
  -27.2298  -28.5760   20.7114 C   0  0  0  0  0  0
  -26.0269  -26.8431   19.5179 C   0  0  0  0  0  0
  -24.8699  -27.6471   19.5045 C   0  0  0  0  0  0
  -23.6482  -29.8003   20.1567 C   0  0  0  0  0  0
  -25.4109  -36.3062   24.0322 C   0  0  1  0  0  0
  -20.5891  -28.3697   23.1247 C   0  0  2  0  0  0
  -20.6770  -26.9410   22.5398 C   0  0  0  0  0  0
  -19.5745  -26.6379   21.5197 C   0  0  0  0  0  0
  -18.1929  -26.7924   22.1617 C   0  0  0  0  0  0
  -19.1546  -28.8855   23.2866 C   0  0  0  0  0  0
  -18.9473  -30.1448   23.8901 C   0  0  0  0  0  0
  -17.6477  -30.6585   24.0562 C   0  0  0  0  0  0
  -25.9058  -34.9440   23.5089 C   0  0  0  0  0  0
  -16.5365  -29.9094   23.6322 C   0  0  0  0  0  0
  -16.7276  -28.6504   23.0358 C   0  0  0  0  0  0
  -26.4491  -31.6582   25.0710 C   0  0  0  0  0  0
  -25.3709  -31.3760   26.1430 C   0  0  0  0  0  0
  -27.0337  -30.2988   24.6218 C   0  0  0  0  0  0
  -27.6026  -32.4333   25.7496 C   0  0  0  0  0  0
  -27.5569  -37.1794   24.8457 C   0  0  0  0  0  0
  -21.4199  -29.3052   22.3641 N   0  0  0  0  0  0
  -26.4275  -37.3764   23.9412 N   0  0  0  0  0  0
  -24.6975  -31.0510   22.0908 N   0  0  0  0  0  0
  -23.4193  -28.8152   23.2994 O   0  0  0  0  0  0
  -28.3173  -26.3769   20.1006 O   0  0  0  0  0  0
  -26.5646  -34.8916   22.4669 O   0  0  0  0  0  0
  -23.5465  -32.1340   23.7238 O   0  0  0  0  0  0
  -29.5437  -18.4596   20.3284 C   0  0  0  0  0  0
  -28.7851  -18.4739   22.9846 C   0  0  0  0  0  0
  -29.0953  -19.7364   20.8952 C   0  0  0  0  0  0
  -29.2794  -17.2699   22.4385 C   0  0  0  0  0  0
  -29.6173  -17.1955   21.0628 C   0  0  0  0  0  0
  -28.6256  -19.6526   22.2311 C   0  0  0  0  0  0
  -28.4173  -23.6776   20.0384 C   0  0  0  0  0  0
  -29.5191  -23.8637   22.7012 C   0  0  0  0  0  0
  -29.2625  -25.1949   21.9864 C   0  0  0  0  0  0
  -29.9817  -22.7878   21.6982 C   0  0  0  0  0  0
  -28.2428  -25.0706   20.8422 C   0  0  1  0  0  0
  -29.3137  -16.0568   23.3567 C   0  0  0  0  0  0
  -28.9924  -21.1078   20.0488 C   0  0  0  0  0  0
  -29.0027  -22.5461   20.6254 N   0  0  0  0  0  0
  -29.6784  -15.8407   20.4516 N   0  0  0  0  0  0
  -27.9304  -23.6093   18.9057 O   0  0  0  0  0  0
  -27.7363  -20.9247   22.9914 Cl  0  0  0  0  0  0
  -31.4871  -12.6285   19.1584 H   0  0  0  0  0  0
  -30.4195  -11.4934   19.9440 H   0  0  0  0  0  0
  -29.8067  -11.7420   17.5087 H   0  0  0  0  0  0
  -29.6275  -13.4635   17.7119 H   0  0  0  0  0  0
  -27.9065  -11.2700   18.9117 H   0  0  0  0  0  0
  -27.3841  -12.5038   17.7948 H   0  0  0  0  0  0
  -27.6324  -14.2395   19.4516 H   0  0  0  0  0  0
  -28.7320  -12.1392   21.3929 H   0  0  0  0  0  0
  -28.4126  -13.8040   21.7923 H   0  0  0  0  0  0
  -25.2764   -9.5665   22.4755 H   0  0  0  0  0  0
  -23.9980   -7.4640   22.7467 H   0  0  0  0  0  0
  -21.0831   -8.8800   19.8960 H   0  0  0  0  0  0
  -22.3718  -10.9677   19.6154 H   0  0  0  0  0  0
  -21.2041   -7.6150   23.9711 H   0  0  0  0  0  0
  -21.1458   -6.0512   25.9062 H   0  0  0  0  0  0
  -22.0608   -2.7598   23.2845 H   0  0  0  0  0  0
  -22.4054  -11.9904   22.4809 H   0  0  0  0  0  0
  -21.1069  -13.1276   22.2649 H   0  0  0  0  0  0
  -24.6537  -15.8413   20.5418 H   0  0  0  0  0  0
  -26.2582  -15.6344   20.0616 H   0  0  0  0  0  0
  -26.7214  -32.5401   23.1059 H   0  0  0  0  0  0
  -24.9990  -33.9669   25.0328 H   0  0  0  0  0  0
  -22.7267  -31.2966   21.3849 H   0  0  0  0  0  0
  -23.3736  -35.9629   23.3302 H   0  0  0  0  0  0
  -24.3571  -36.8924   22.2057 H   0  0  0  0  0  0
  -23.7249  -37.6493   23.6683 H   0  0  0  0  0  0
  -26.1105  -31.5250   20.5975 H   0  0  0  0  0  0
  -26.8515  -30.8207   22.0046 H   0  0  0  0  0  0
  -28.1359  -28.9402   21.1761 H   0  0  0  0  0  0
  -25.9870  -25.8694   19.0491 H   0  0  0  0  0  0
  -23.9718  -27.2774   19.0283 H   0  0  0  0  0  0
  -23.7715  -30.5690   19.3925 H   0  0  0  0  0  0
  -22.7669  -29.2304   19.8565 H   0  0  0  0  0  0
  -25.1289  -36.1901   25.0813 H   0  0  0  0  0  0
  -20.9992  -28.3292   24.1359 H   0  0  0  0  0  0
  -20.5628  -26.2324   23.3618 H   0  0  0  0  0  0
  -21.6647  -26.7405   22.1224 H   0  0  0  0  0  0
  -19.6913  -25.6288   21.1234 H   0  0  0  0  0  0
  -19.6678  -27.3177   20.6720 H   0  0  0  0  0  0
  -17.4190  -26.6652   21.4036 H   0  0  0  0  0  0
  -18.0348  -26.0067   22.9016 H   0  0  0  0  0  0
  -19.7955  -30.7246   24.2292 H   0  0  0  0  0  0
  -17.5041  -31.6265   24.5165 H   0  0  0  0  0  0
  -15.5371  -30.3008   23.7642 H   0  0  0  0  0  0
  -15.8670  -28.0818   22.7094 H   0  0  0  0  0  0
  -24.5854  -30.7146   25.7764 H   0  0  0  0  0  0
  -24.8941  -32.2948   26.4848 H   0  0  0  0  0  0
  -25.8005  -30.8930   27.0211 H   0  0  0  0  0  0
  -26.2932  -29.6738   24.1218 H   0  0  0  0  0  0
  -27.3972  -29.7257   25.4756 H   0  0  0  0  0  0
  -27.8824  -30.4243   23.9491 H   0  0  0  0  0  0
  -27.2604  -33.3611   26.2077 H   0  0  0  0  0  0
  -28.3835  -32.6926   25.0344 H   0  0  0  0  0  0
  -28.0694  -31.8469   26.5412 H   0  0  0  0  0  0
  -28.2581  -38.0094   24.7502 H   0  0  0  0  0  0
  -28.1067  -36.2629   24.6279 H   0  0  0  0  0  0
  -27.2297  -37.1435   25.8860 H   0  0  0  0  0  0
  -20.9388  -29.8788   21.6853 H   0  0  0  0  0  0
  -26.0153  -38.2835   24.1417 H   0  0  0  0  0  0
  -29.7774  -18.4435   19.2742 H   0  0  0  0  0  0
  -28.4416  -18.4795   24.0095 H   0  0  0  0  0  0
  -28.6112  -23.5484   23.2152 H   0  0  0  0  0  0
  -30.2768  -24.0011   23.4737 H   0  0  0  0  0  0
  -30.2040  -25.5770   21.5916 H   0  0  0  0  0  0
  -28.9065  -25.9356   22.7038 H   0  0  0  0  0  0
  -30.2308  -21.8700   22.2284 H   0  0  0  0  0  0
  -30.9131  -23.1111   21.2305 H   0  0  0  0  0  0
  -27.2548  -24.9964   21.2999 H   0  0  0  0  0  0
  -30.1342  -15.3817   23.1205 H   0  0  0  0  0  0
  -28.3716  -15.5098   23.3029 H   0  0  0  0  0  0
  -29.4565  -16.3640   24.3937 H   0  0  0  0  0  0
  -28.0819  -21.0132   19.4568 H   0  0  0  0  0  0
  -29.8032  -21.0760   19.3201 H   0  0  0  0  0  0
  -28.7530  -15.4811   20.2787 H   0  0  0  0  0  0
  1 25  1  0  0  0
  1 30  2  0  0  0
  1 85  1  0  0  0
  2  3  1  0  0  0
  2 25  1  0  0  0
  2 88  1  0  0  0
  2 89  1  0  0  0
  3  4  1  0  0  0
  3 90  1  0  0  0
  3 91  1  0  0  0
  4  5  1  0  0  0
  4 92  1  0  0  0
  4 93  1  0  0  0
  5  6  1  0  0  0
  5 26  1  0  0  0
  5 94  1  0  0  0
  6 25  1  0  0  0
  6 95  1  0  0  0
  6 96  1  0  0  0
  7  8  2  0  0  0
  7 26  1  0  0  0
  7 29  1  0  0  0
  8  9  1  0  0  0
  8 22  1  0  0  0
  9 10  1  0  0  0
  9 27  2  0  0  0
 10 11  2  0  0  0
 10 15  1  0  0  0
 11 12  1  0  0  0
 11 97  1  0  0  0
 12 13  2  0  0  0
 12 98  1  0  0  0
 13 14  1  0  0  0
 13 31  1  0  0  0
 14 15  2  0  0  0
 14 99  1  0  0  0
 15100  1  0  0  0
 16 17  2  0  0  0
 16 21  1  0  0  0
 16 31  1  0  0  0
 17 18  1  0  0  0
 17101  1  0  0  0
 18 19  2  0  0  0
 18102  1  0  0  0
 19 20  1  0  0  0
 19 24  1  0  0  0
 20 21  2  0  0  0
 20103  1  0  0  0
 21 23  1  0  0  0
 22 28  1  0  0  0
 22 32  2  0  0  0
 26 27  1  0  0  0
 28104  1  0  0  0
 28105  1  0  0  0
 29106  1  0  0  0
 29107  1  0  0  0
 33 34  1  0  0  0
 33 66  1  0  0  0
 33 70  2  0  0  0
 34 36  1  0  0  0
 34 59  1  0  0  0
 34108  1  0  0  0
 35 44  2  0  0  0
 35 45  1  0  0  0
 35 68  1  0  0  0
 36 56  1  0  0  0
 36109  1  0  0  0
 37 39  1  0  0  0
 37 47  1  0  0  0
 37 66  1  0  0  0
 37110  1  0  0  0
 38 43  2  0  0  0
 38 46  1  0  0  0
 38 47  1  0  0  0
 39 64  1  0  0  0
 39 67  2  0  0  0
 40 52  1  0  0  0
 40 53  2  0  0  0
 40 58  1  0  0  0
 41111  1  0  0  0
 41112  1  0  0  0
 41113  1  0  0  0
 41 48  1  0  0  0
 42 43  1  0  0  0
 42 66  1  0  0  0
 42114  1  0  0  0
 42115  1  0  0  0
 43 44  1  0  0  0
 44116  1  0  0  0
 45 46  2  0  0  0
 45117  1  0  0  0
 46118  1  0  0  0
 47119  1  0  0  0
 47120  1  0  0  0
 48 56  1  0  0  0
 48 65  1  0  0  0
 48121  1  0  0  0
 49 50  1  0  0  0
 49 53  1  0  0  0
 49 64  1  0  0  0
 49122  1  0  0  0
 50 51  1  0  0  0
 50123  1  0  0  0
 50124  1  0  0  0
 51 52  1  0  0  0
 51125  1  0  0  0
 51126  1  0  0  0
 52127  1  0  0  0
 52128  1  0  0  0
 53 54  1  0  0  0
 54 55  2  0  0  0
 54129  1  0  0  0
 55 57  1  0  0  0
 55130  1  0  0  0
 56 69  2  0  0  0
 57 58  2  0  0  0
 57131  1  0  0  0
 58132  1  0  0  0
 59 60  1  0  0  0
 59 61  1  0  0  0
 59 62  1  0  0  0
 60133  1  0  0  0
 60134  1  0  0  0
 60135  1  0  0  0
 61136  1  0  0  0
 61137  1  0  0  0
 61138  1  0  0  0
 62139  1  0  0  0
 62140  1  0  0  0
 62141  1  0  0  0
 63 65  1  0  0  0
 63142  1  0  0  0
 63143  1  0  0  0
 63144  1  0  0  0
 64145  1  0  0  0
 65146  1  0  0  0
 68 81  1  0  0  0
 71 73  2  0  0  0
 71 75  1  0  0  0
 71147  1  0  0  0
 72 74  1  0  0  0
 72 76  2  0  0  0
 72148  1  0  0  0
 73 76  1  0  0  0
 73 83  1  0  0  0
 74 75  2  0  0  0
 74 82  1  0  0  0
 75 85  1  0  0  0
 76 87  1  0  0  0
 77 81  1  0  0  0
 77 84  1  0  0  0
 77 86  2  0  0  0
 78 79  1  0  0  0
 78 80  1  0  0  0
 78149  1  0  0  0
 78150  1  0  0  0
 79 81  1  0  0  0
 79151  1  0  0  0
 79152  1  0  0  0
 80 84  1  0  0  0
 80153  1  0  0  0
 80154  1  0  0  0
 81155  1  0  0  0
 82156  1  0  0  0
 82157  1  0  0  0
 82158  1  0  0  0
 83 84  1  0  0  0
 83159  1  0  0  0
 83160  1  0  0  0
 85161  1  0  0  0
M  ISO  4   1 100  68 101  81 101  85 100
M  END
> <chiral flag>
0

> <version>
0

> <s_m_source_file>
/data/baiqing/PycharmProjects/Reinvent-master-3.2/result/LINK_invent/BTK/process_docking_weight1_custom_product_contain_oxygen_bond_distance_aromatic_linkinvent_7_9_3/rearranged_h_0044.sdf

> <i_m_source_file_index>
46

> <r_mmod_Potential_Energy-OPLS-2005>
301.317596435547

> <r_mmod_Stretch_Energy-OPLS-2005>
140.248962402344

> <r_mmod_Bend_Energy-OPLS-2005>
183.822204589844

> <r_mmod_Torsional_Energy-OPLS-2005>
312.576019287109

> <r_mmod_Improper_Torsional_Energy-OPLS-2005>
16.3537158966064

> <r_mmod_Van_der_Waal_Energy-OPLS-2005>
137.435928344727

> <r_mmod_Electrostatic_Energy-OPLS-2005>
-357.359954833984

> <r_mmod_Solvation_Energy-OPLS-2005>
-224.118362426758

> <b_mmod_Minimization_Converged-OPLS-2005>
0

> <r_mmod_RMS_Derivative-OPLS-2005>
2.54220104217529

$$$$
46
                    3D
 Structure written by MMmdl.
167176  0  0  1  0            999 V2000
  -30.5708  -14.5132   20.4826 C   0  0  0  0  0  0
  -30.4615  -12.2999   19.4085 C   0  0  0  0  0  0
  -29.5137  -12.4493   18.1944 C   0  0  0  0  0  0
  -28.0264  -12.3132   18.6009 C   0  0  0  0  0  0
  -27.6603  -13.1595   19.8490 C   0  0  2  0  0  0
  -28.7022  -12.9097   20.9622 C   0  0  0  0  0  0
  -25.2648  -13.8058   20.5586 C   0  0  0  0  0  0
  -24.1862  -13.0417   20.9158 C   0  0  0  0  0  0
  -24.6347  -11.6860   20.8715 C   0  0  0  0  0  0
  -23.9001  -10.4296   21.0391 C   0  0  0  0  0  0
  -24.3563   -9.4223   21.9156 C   0  0  0  0  0  0
  -23.6257   -8.2247   22.0727 C   0  0  0  0  0  0
  -22.4260   -8.0252   21.3510 C   0  0  0  0  0  0
  -21.9881   -9.0235   20.4652 C   0  0  0  0  0  0
  -22.7185  -10.2132   20.3055 C   0  0  0  0  0  0
  -21.6869   -6.0731   22.5283 C   0  0  0  0  0  0
  -21.4034   -6.5639   23.8215 C   0  0  0  0  0  0
  -21.3658   -5.6765   24.9158 C   0  0  0  0  0  0
  -21.6043   -4.3031   24.7200 C   0  0  0  0  0  0
  -21.8810   -3.8145   23.4313 C   0  0  0  0  0  0
  -21.9200   -4.6971   22.3389 C   0  0  0  0  0  0
  -22.7902  -13.5256   21.1807 C   0  0  0  0  0  0
  -22.1637   -4.2165   21.0959 F   0  0  0  0  0  0
  -21.5634   -3.4512   25.7707 F   0  0  0  0  0  0
  -30.0322  -13.2667   20.4241 N   0  0  0  0  0  0
  -26.3012  -12.9103   20.3189 N   0  0  0  0  0  0
  -25.9239  -11.6341   20.5688 N   0  0  0  0  0  0
  -22.0467  -12.8337   22.0390 N   0  0  0  0  0  0
  -25.4507  -15.1757   20.3985 N   0  0  0  0  0  0
  -31.7236  -14.7851   20.1273 O   0  0  0  0  0  0
  -21.6612   -6.8857   21.4234 O   0  0  0  0  0  0
  -22.3599  -14.5506   20.6555 O   0  0  0  0  0  0
  -24.6186  -31.8644   23.2098 C   0  0  0  0  0  0
  -25.9050  -32.4808   23.8418 C   0  0  1  0  0  0
  -27.2146  -27.3943   20.0612 C   0  0  0  0  0  0
  -25.5873  -33.8613   24.2340 N   0  0  0  0  0  0
  -23.4103  -30.4954   21.5500 C   0  0  2  0  0  0
  -24.8483  -28.9656   20.1057 C   0  0  0  0  0  0
  -22.7429  -29.4653   22.4926 C   0  0  0  0  0  0
  -18.0275  -28.1390   22.8511 C   0  0  0  0  0  0
  -24.1459  -36.7328   23.2650 C   0  0  0  0  0  0
  -25.9490  -30.8096   21.3775 C   0  0  0  0  0  0
  -26.0129  -29.4459   20.7169 C   0  0  0  0  0  0
  -27.1968  -28.6600   20.7062 C   0  0  0  0  0  0
  -26.0252  -26.9480   19.4481 C   0  0  0  0  0  0
  -24.8498  -27.7150   19.4748 C   0  0  0  0  0  0
  -23.6175  -29.8410   20.1610 C   0  0  0  0  0  0
  -25.4082  -36.3127   24.0356 C   0  0  1  0  0  0
  -20.5874  -28.3687   23.1296 C   0  0  2  0  0  0
  -20.6755  -26.9406   22.5421 C   0  0  0  0  0  0
  -19.5740  -26.6392   21.5208 C   0  0  0  0  0  0
  -18.1921  -26.7935   22.1626 C   0  0  0  0  0  0
  -19.1535  -28.8848   23.2924 C   0  0  0  0  0  0
  -18.9457  -30.1441   23.8948 C   0  0  0  0  0  0
  -17.6474  -30.6600   24.0561 C   0  0  0  0  0  0
  -25.9012  -34.9471   23.5149 C   0  0  0  0  0  0
  -16.5359  -29.9117   23.6306 C   0  0  0  0  0  0
  -16.7268  -28.6523   23.0353 C   0  0  0  0  0  0
  -26.4451  -31.6617   25.0766 C   0  0  0  0  0  0
  -25.3719  -31.3748   26.1526 C   0  0  0  0  0  0
  -27.0263  -30.3041   24.6199 C   0  0  0  0  0  0
  -27.6039  -32.4350   25.7494 C   0  0  0  0  0  0
  -27.5580  -37.1827   24.8464 C   0  0  0  0  0  0
  -21.4144  -29.3058   22.3679 N   0  0  0  0  0  0
  -26.4285  -37.3816   23.9410 N   0  0  0  0  0  0
  -24.6780  -31.0733   22.1037 N   0  0  0  0  0  0
  -23.4160  -28.8175   23.2965 O   0  0  0  0  0  0
  -28.3502  -26.6003   20.1036 O   0  0  0  0  0  0
  -26.5604  -34.8927   22.4732 O   0  0  0  0  0  0
  -23.5371  -32.1416   23.7496 O   0  0  0  0  0  0
  -29.2647  -19.0217   21.6313 C   0  0  0  0  0  0
  -28.3187  -18.6581   19.4264 C   0  0  0  0  0  0
  -28.5309  -19.5156   20.5287 C   0  0  0  0  0  0
  -29.7329  -17.6871   21.6641 C   0  0  0  0  0  0
  -28.8181  -17.3336   19.4271 C   0  0  0  0  0  0
  -29.4947  -16.8234   20.5715 C   0  0  0  0  0  0
  -28.0237  -23.2841   19.8905 C   0  0  0  0  0  0
  -29.8298  -22.7484   17.7483 C   0  0  0  0  0  0
  -28.6840  -23.7077   17.4312 C   0  0  0  0  0  0
  -29.2618  -21.5703   18.5516 C   0  0  0  0  0  0
  -28.0703  -24.3111   18.7181 C   0  0  2  0  0  0
  -30.4538  -17.1716   22.9000 C   0  0  0  0  0  0
  -28.5842  -16.5100   18.1737 C   0  0  0  0  0  0
  -27.9016  -20.9189   20.5830 C   0  0  0  0  0  0
  -28.7081  -25.7299   18.9978 C   0  0  0  0  0  0
  -28.4214  -21.9893   19.6918 N   0  0  0  0  0  0
  -29.6268  -15.4226   20.7948 N   0  0  0  0  0  0
  -27.5099  -23.6466   20.9534 O   0  0  0  0  0  0
  -31.5003  -12.4562   19.1094 H   0  0  0  0  0  0
  -30.4127  -11.2870   19.8123 H   0  0  0  0  0  0
  -29.7641  -11.6933   17.4489 H   0  0  0  0  0  0
  -29.6794  -13.4114   17.7104 H   0  0  0  0  0  0
  -27.8394  -11.2611   18.8153 H   0  0  0  0  0  0
  -27.3810  -12.5620   17.7599 H   0  0  0  0  0  0
  -27.7006  -14.2004   19.5338 H   0  0  0  0  0  0
  -28.6977  -11.8588   21.2526 H   0  0  0  0  0  0
  -28.4567  -13.4581   21.8725 H   0  0  0  0  0  0
  -25.2714   -9.5714   22.4683 H   0  0  0  0  0  0
  -24.0016   -7.4648   22.7437 H   0  0  0  0  0  0
  -21.0808   -8.8733   19.8954 H   0  0  0  0  0  0
  -22.3625  -10.9631   19.6141 H   0  0  0  0  0  0
  -21.2019   -7.6150   23.9744 H   0  0  0  0  0  0
  -21.1482   -6.0473   25.9067 H   0  0  0  0  0  0
  -22.0597   -2.7628   23.2794 H   0  0  0  0  0  0
  -22.4062  -12.0087   22.4943 H   0  0  0  0  0  0
  -21.1066  -13.1409   22.2454 H   0  0  0  0  0  0
  -24.6860  -15.8342   20.4995 H   0  0  0  0  0  0
  -26.2962  -15.6072   20.0456 H   0  0  0  0  0  0
  -26.7123  -32.5462   23.1184 H   0  0  0  0  0  0
  -24.9926  -33.9757   25.0416 H   0  0  0  0  0  0
  -22.7067  -31.3180   21.4157 H   0  0  0  0  0  0
  -23.3716  -35.9675   23.3319 H   0  0  0  0  0  0
  -24.3556  -36.8924   22.2069 H   0  0  0  0  0  0
  -23.7212  -37.6545   23.6637 H   0  0  0  0  0  0
  -26.0735  -31.5751   20.6122 H   0  0  0  0  0  0
  -26.8371  -30.8533   21.9975 H   0  0  0  0  0  0
  -28.0895  -29.0220   21.2003 H   0  0  0  0  0  0
  -25.9461  -25.9997   18.9599 H   0  0  0  0  0  0
  -23.9547  -27.3345   19.0007 H   0  0  0  0  0  0
  -23.7424  -30.6226   19.4106 H   0  0  0  0  0  0
  -22.7369  -29.2722   19.8548 H   0  0  0  0  0  0
  -25.1267  -36.2017   25.0867 H   0  0  0  0  0  0
  -21.0018  -28.3260   24.1392 H   0  0  0  0  0  0
  -20.5614  -26.2306   23.3630 H   0  0  0  0  0  0
  -21.6635  -26.7411   22.1243 H   0  0  0  0  0  0
  -19.6885  -25.6301   21.1230 H   0  0  0  0  0  0
  -19.6666  -27.3218   20.6750 H   0  0  0  0  0  0
  -17.4188  -26.6697   21.4018 H   0  0  0  0  0  0
  -18.0309  -26.0072   22.9024 H   0  0  0  0  0  0
  -19.7929  -30.7231   24.2352 H   0  0  0  0  0  0
  -17.5020  -31.6260   24.5177 H   0  0  0  0  0  0
  -15.5362  -30.3049   23.7563 H   0  0  0  0  0  0
  -15.8663  -28.0842   22.7067 H   0  0  0  0  0  0
  -24.5901  -30.7075   25.7894 H   0  0  0  0  0  0
  -24.8885  -32.2895   26.4976 H   0  0  0  0  0  0
  -25.8091  -30.8944   27.0286 H   0  0  0  0  0  0
  -26.2824  -29.6835   24.1206 H   0  0  0  0  0  0
  -27.3921  -29.7283   25.4706 H   0  0  0  0  0  0
  -27.8708  -30.4326   23.9428 H   0  0  0  0  0  0
  -27.2684  -33.3661   26.2091 H   0  0  0  0  0  0
  -28.3818  -32.6915   25.0283 H   0  0  0  0  0  0
  -28.0739  -31.8459   26.5386 H   0  0  0  0  0  0
  -28.2636  -38.0094   24.7509 H   0  0  0  0  0  0
  -28.1044  -36.2638   24.6290 H   0  0  0  0  0  0
  -27.2304  -37.1497   25.8872 H   0  0  0  0  0  0
  -20.9280  -29.8827   21.6971 H   0  0  0  0  0  0
  -26.0169  -38.2895   24.1440 H   0  0  0  0  0  0
  -29.4218  -19.6551   22.4917 H   0  0  0  0  0  0
  -27.7425  -19.0107   18.5804 H   0  0  0  0  0  0
  -30.6085  -23.2599   18.3193 H   0  0  0  0  0  0
  -30.3030  -22.3883   16.8340 H   0  0  0  0  0  0
  -27.9102  -23.1737   16.8754 H   0  0  0  0  0  0
  -29.0264  -24.4982   16.7628 H   0  0  0  0  0  0
  -30.0895  -20.9518   18.9063 H   0  0  0  0  0  0
  -28.6662  -20.9550   17.8756 H   0  0  0  0  0  0
  -27.0268  -24.4344   18.4551 H   0  0  0  0  0  0
  -30.5722  -17.9444   23.6592 H   0  0  0  0  0  0
  -31.4475  -16.8246   22.6189 H   0  0  0  0  0  0
  -29.9227  -16.3316   23.3501 H   0  0  0  0  0  0
  -28.8583  -17.1099   17.3056 H   0  0  0  0  0  0
  -27.5376  -16.2299   18.0645 H   0  0  0  0  0  0
  -29.1875  -15.6059   18.1532 H   0  0  0  0  0  0
  -27.9415  -21.2562   21.6202 H   0  0  0  0  0  0
  -26.8389  -20.7994   20.3565 H   0  0  0  0  0  0
  -28.5932  -26.3357   18.0976 H   0  0  0  0  0  0
  -29.7826  -25.5817   19.0923 H   0  0  0  0  0  0
  -28.7616  -14.9723   21.0510 H   0  0  0  0  0  0
  1 25  1  0  0  0
  1 30  2  0  0  0
  1 87  1  0  0  0
  2  3  1  0  0  0
  2 25  1  0  0  0
  2 89  1  0  0  0
  2 90  1  0  0  0
  3  4  1  0  0  0
  3 91  1  0  0  0
  3 92  1  0  0  0
  4  5  1  0  0  0
  4 93  1  0  0  0
  4 94  1  0  0  0
  5  6  1  0  0  0
  5 26  1  0  0  0
  5 95  1  0  0  0
  6 25  1  0  0  0
  6 96  1  0  0  0
  6 97  1  0  0  0
  7  8  2  0  0  0
  7 26  1  0  0  0
  7 29  1  0  0  0
  8  9  1  0  0  0
  8 22  1  0  0  0
  9 10  1  0  0  0
  9 27  2  0  0  0
 10 11  2  0  0  0
 10 15  1  0  0  0
 11 12  1  0  0  0
 11 98  1  0  0  0
 12 13  2  0  0  0
 12 99  1  0  0  0
 13 14  1  0  0  0
 13 31  1  0  0  0
 14 15  2  0  0  0
 14100  1  0  0  0
 15101  1  0  0  0
 16 17  2  0  0  0
 16 21  1  0  0  0
 16 31  1  0  0  0
 17 18  1  0  0  0
 17102  1  0  0  0
 18 19  2  0  0  0
 18103  1  0  0  0
 19 20  1  0  0  0
 19 24  1  0  0  0
 20 21  2  0  0  0
 20104  1  0  0  0
 21 23  1  0  0  0
 22 28  1  0  0  0
 22 32  2  0  0  0
 26 27  1  0  0  0
 28105  1  0  0  0
 28106  1  0  0  0
 29107  1  0  0  0
 29108  1  0  0  0
 33 34  1  0  0  0
 33 66  1  0  0  0
 33 70  2  0  0  0
 34 36  1  0  0  0
 34 59  1  0  0  0
 34109  1  0  0  0
 35 44  2  0  0  0
 35 45  1  0  0  0
 35 68  1  0  0  0
 36 56  1  0  0  0
 36110  1  0  0  0
 37 39  1  0  0  0
 37 47  1  0  0  0
 37 66  1  0  0  0
 37111  1  0  0  0
 38 43  2  0  0  0
 38 46  1  0  0  0
 38 47  1  0  0  0
 39 64  1  0  0  0
 39 67  2  0  0  0
 40 52  1  0  0  0
 40 53  2  0  0  0
 40 58  1  0  0  0
 41112  1  0  0  0
 41113  1  0  0  0
 41114  1  0  0  0
 41 48  1  0  0  0
 42 43  1  0  0  0
 42 66  1  0  0  0
 42115  1  0  0  0
 42116  1  0  0  0
 43 44  1  0  0  0
 44117  1  0  0  0
 45 46  2  0  0  0
 45118  1  0  0  0
 46119  1  0  0  0
 47120  1  0  0  0
 47121  1  0  0  0
 48 56  1  0  0  0
 48 65  1  0  0  0
 48122  1  0  0  0
 49 50  1  0  0  0
 49 53  1  0  0  0
 49 64  1  0  0  0
 49123  1  0  0  0
 50 51  1  0  0  0
 50124  1  0  0  0
 50125  1  0  0  0
 51 52  1  0  0  0
 51126  1  0  0  0
 51127  1  0  0  0
 52128  1  0  0  0
 52129  1  0  0  0
 53 54  1  0  0  0
 54 55  2  0  0  0
 54130  1  0  0  0
 55 57  1  0  0  0
 55131  1  0  0  0
 56 69  2  0  0  0
 57 58  2  0  0  0
 57132  1  0  0  0
 58133  1  0  0  0
 59 60  1  0  0  0
 59 61  1  0  0  0
 59 62  1  0  0  0
 60134  1  0  0  0
 60135  1  0  0  0
 60136  1  0  0  0
 61137  1  0  0  0
 61138  1  0  0  0
 61139  1  0  0  0
 62140  1  0  0  0
 62141  1  0  0  0
 62142  1  0  0  0
 63 65  1  0  0  0
 63143  1  0  0  0
 63144  1  0  0  0
 63145  1  0  0  0
 64146  1  0  0  0
 65147  1  0  0  0
 68 85  1  0  0  0
 71 73  2  0  0  0
 71 74  1  0  0  0
 71148  1  0  0  0
 72 73  1  0  0  0
 72 75  2  0  0  0
 72149  1  0  0  0
 73 84  1  0  0  0
 74 76  2  0  0  0
 74 82  1  0  0  0
 75 76  1  0  0  0
 75 83  1  0  0  0
 76 87  1  0  0  0
 77 81  1  0  0  0
 77 86  1  0  0  0
 77 88  2  0  0  0
 78 79  1  0  0  0
 78 80  1  0  0  0
 78150  1  0  0  0
 78151  1  0  0  0
 79 81  1  0  0  0
 79152  1  0  0  0
 79153  1  0  0  0
 80 86  1  0  0  0
 80154  1  0  0  0
 80155  1  0  0  0
 81 85  1  0  0  0
 81156  1  0  0  0
 82157  1  0  0  0
 82158  1  0  0  0
 82159  1  0  0  0
 83160  1  0  0  0
 83161  1  0  0  0
 83162  1  0  0  0
 84 86  1  0  0  0
 84163  1  0  0  0
 84164  1  0  0  0
 85165  1  0  0  0
 85166  1  0  0  0
 87167  1  0  0  0
M  ISO  4   1 100  68 101  85 101  87 100
M  END
> <chiral flag>
0

> <version>
0

> <s_m_source_file>
/data/baiqing/PycharmProjects/Reinvent-master-3.2/result/LINK_invent/BTK/process_docking_weight1_custom_product_contain_oxygen_bond_distance_aromatic_linkinvent_7_9_3/rearranged_h_0044.sdf

> <i_m_source_file_index>
47

> <r_mmod_Potential_Energy-OPLS-2005>
66.6513061523438

> <r_mmod_Stretch_Energy-OPLS-2005>
50.0420913696289

> <r_mmod_Bend_Energy-OPLS-2005>
148.668350219727

> <r_mmod_Torsional_Energy-OPLS-2005>
288.244049072266

> <r_mmod_Improper_Torsional_Energy-OPLS-2005>
9.58261871337891

> <r_mmod_Van_der_Waal_Energy-OPLS-2005>
165.952072143555

> <r_mmod_Electrostatic_Energy-OPLS-2005>
-392.389007568359

> <r_mmod_Solvation_Energy-OPLS-2005>
-232.74201965332

> <b_mmod_Minimization_Converged-OPLS-2005>
0

> <r_mmod_RMS_Derivative-OPLS-2005>
6.14524126052856

$$$$
47
                    3D
 Structure written by MMmdl.
182191  0  0  1  0            999 V2000
  -30.6947  -14.4616   20.5363 C   0  0  0  0  0  0
  -30.4192  -12.2873   19.4252 C   0  0  0  0  0  0
  -29.4942  -12.4945   18.2077 C   0  0  0  0  0  0
  -28.0141  -12.3625   18.6184 C   0  0  0  0  0  0
  -27.6614  -13.2045   19.8741 C   0  0  2  0  0  0
  -28.7018  -12.9857   20.9966 C   0  0  0  0  0  0
  -25.2595  -13.8163   20.5673 C   0  0  0  0  0  0
  -24.1845  -13.0443   20.9178 C   0  0  0  0  0  0
  -24.6392  -11.6908   20.8738 C   0  0  0  0  0  0
  -23.9056  -10.4295   21.0411 C   0  0  0  0  0  0
  -24.3611   -9.4209   21.9185 C   0  0  0  0  0  0
  -23.6289   -8.2242   22.0756 C   0  0  0  0  0  0
  -22.4270   -8.0281   21.3545 C   0  0  0  0  0  0
  -21.9907   -9.0254   20.4645 C   0  0  0  0  0  0
  -22.7231  -10.2137   20.3056 C   0  0  0  0  0  0
  -21.6853   -6.0737   22.5276 C   0  0  0  0  0  0
  -21.4015   -6.5641   23.8209 C   0  0  0  0  0  0
  -21.3658   -5.6793   24.9173 C   0  0  0  0  0  0
  -21.6043   -4.3055   24.7225 C   0  0  0  0  0  0
  -21.8821   -3.8149   23.4344 C   0  0  0  0  0  0
  -21.9194   -4.6965   22.3402 C   0  0  0  0  0  0
  -22.7870  -13.5246   21.1844 C   0  0  0  0  0  0
  -22.1660   -4.2153   21.0980 F   0  0  0  0  0  0
  -21.5632   -3.4537   25.7740 F   0  0  0  0  0  0
  -30.0352  -13.2770   20.4430 N   0  0  0  0  0  0
  -26.3022  -12.9323   20.3355 N   0  0  0  0  0  0
  -25.9315  -11.6489   20.5766 N   0  0  0  0  0  0
  -22.0509  -12.8231   22.0395 N   0  0  0  0  0  0
  -25.4335  -15.1877   20.4057 N   0  0  0  0  0  0
  -31.8494  -14.6091   20.1258 O   0  0  0  0  0  0
  -21.6636   -6.8878   21.4238 O   0  0  0  0  0  0
  -22.3554  -14.5553   20.6698 O   0  0  0  0  0  0
  -24.6104  -31.8701   23.2117 C   0  0  0  0  0  0
  -25.9014  -32.4838   23.8405 C   0  0  1  0  0  0
  -27.2420  -27.4584   20.1032 C   0  0  0  0  0  0
  -25.5886  -33.8635   24.2338 N   0  0  0  0  0  0
  -23.3987  -30.4913   21.5506 C   0  0  2  0  0  0
  -24.8502  -28.9596   20.1156 C   0  0  0  0  0  0
  -22.7390  -29.4658   22.4999 C   0  0  0  0  0  0
  -18.0267  -28.1376   22.8485 C   0  0  0  0  0  0
  -24.1485  -36.7320   23.2640 C   0  0  0  0  0  0
  -25.9233  -30.8434   21.3626 C   0  0  0  0  0  0
  -26.0045  -29.4770   20.7170 C   0  0  0  0  0  0
  -27.2040  -28.7334   20.7149 C   0  0  0  0  0  0
  -26.0798  -26.9581   19.4844 C   0  0  0  0  0  0
  -24.8808  -27.6964   19.4975 C   0  0  0  0  0  0
  -23.6083  -29.8209   20.1653 C   0  0  0  0  0  0
  -25.4108  -36.3124   24.0340 C   0  0  1  0  0  0
  -20.5853  -28.3654   23.1335 C   0  0  2  0  0  0
  -20.6749  -26.9385   22.5444 C   0  0  0  0  0  0
  -19.5747  -26.6380   21.5215 C   0  0  0  0  0  0
  -18.1910  -26.7934   22.1590 C   0  0  0  0  0  0
  -19.1514  -28.8830   23.2909 C   0  0  0  0  0  0
  -18.9446  -30.1439   23.8919 C   0  0  0  0  0  0
  -17.6450  -30.6581   24.0566 C   0  0  0  0  0  0
  -25.9033  -34.9487   23.5137 C   0  0  0  0  0  0
  -16.5340  -29.9085   23.6324 C   0  0  0  0  0  0
  -16.7257  -28.6503   23.0341 C   0  0  0  0  0  0
  -26.4453  -31.6608   25.0720 C   0  0  0  0  0  0
  -25.3724  -31.3717   26.1473 C   0  0  0  0  0  0
  -27.0266  -30.3045   24.6084 C   0  0  0  0  0  0
  -27.6039  -32.4321   25.7475 C   0  0  0  0  0  0
  -27.5590  -37.1812   24.8458 C   0  0  0  0  0  0
  -21.4119  -29.3021   22.3735 N   0  0  0  0  0  0
  -26.4300  -37.3804   23.9406 N   0  0  0  0  0  0
  -24.6619  -31.0823   22.1005 N   0  0  0  0  0  0
  -23.4175  -28.8207   23.3035 O   0  0  0  0  0  0
  -28.3748  -26.6792   20.0654 O   0  0  0  0  0  0
  -26.5592  -34.8934   22.4695 O   0  0  0  0  0  0
  -23.5305  -32.1435   23.7528 O   0  0  0  0  0  0
  -31.0457  -18.7524   19.4302 C   0  0  0  0  0  0
  -30.9287  -17.3797   19.6883 C   0  0  0  0  0  0
  -30.3267  -19.6887   20.1923 C   0  0  0  0  0  0
  -29.4713  -19.2445   21.2338 C   0  0  0  0  0  0
  -29.3566  -17.8419   21.5003 C   0  0  0  0  0  0
  -30.1005  -16.8997   20.7308 C   0  0  0  0  0  0
  -29.1502  -22.3710   23.3845 C   0  0  0  0  0  0
  -25.5971  -22.3445   24.4527 C   0  0  0  0  0  0
  -27.9383  -22.7522   23.8516 C   0  0  0  0  0  0
  -26.8164  -21.8783   24.1419 C   0  0  0  0  0  0
  -31.3735  -22.1031   25.3002 C   0  0  0  0  0  0
  -31.5793  -20.8622   24.4238 C   0  0  0  0  0  0
  -31.2069  -23.4145   24.5134 C   0  0  0  0  0  0
  -30.2577  -20.2274   23.9646 C   0  0  0  0  0  0
  -30.3154  -23.3694   23.2479 C   0  0  2  0  0  0
  -30.5071  -21.1637   19.8662 C   0  0  0  0  0  0
  -28.4309  -17.3462   22.6129 C   0  0  0  0  0  0
  -28.6932  -20.2851   22.0592 C   0  0  0  0  0  0
  -29.2974  -24.9822   21.5574 C   0  0  0  0  0  0
  -29.0502  -26.4883   21.3102 C   0  0  0  0  0  0
  -29.4875  -21.0551   23.0316 N   0  0  0  0  0  0
  -29.9478  -15.4939   20.9791 N   0  0  0  0  0  0
  -29.9137  -24.7562   22.8897 N   0  3  0  0  0  0
  -31.4654  -12.3752   19.1256 H   0  0  0  0  0  0
  -30.3090  -11.2779   19.8243 H   0  0  0  0  0  0
  -29.7294  -11.7689   17.4276 H   0  0  0  0  0  0
  -29.6691  -13.4800   17.7732 H   0  0  0  0  0  0
  -27.8199  -11.3073   18.8139 H   0  0  0  0  0  0
  -27.3663  -12.6395   17.7861 H   0  0  0  0  0  0
  -27.7065  -14.2516   19.5743 H   0  0  0  0  0  0
  -28.6710  -11.9525   21.3466 H   0  0  0  0  0  0
  -28.4711  -13.5957   21.8712 H   0  0  0  0  0  0
  -25.2761   -9.5683   22.4758 H   0  0  0  0  0  0
  -24.0003   -7.4636   22.7474 H   0  0  0  0  0  0
  -21.0845   -8.8768   19.8951 H   0  0  0  0  0  0
  -22.3688  -10.9675   19.6164 H   0  0  0  0  0  0
  -21.2001   -7.6148   23.9714 H   0  0  0  0  0  0
  -21.1479   -6.0525   25.9079 H   0  0  0  0  0  0
  -22.0602   -2.7609   23.2847 H   0  0  0  0  0  0
  -22.4130  -11.9880   22.4762 H   0  0  0  0  0  0
  -21.1124  -13.1244   22.2605 H   0  0  0  0  0  0
  -24.6653  -15.8430   20.5008 H   0  0  0  0  0  0
  -26.2820  -15.6192   20.0608 H   0  0  0  0  0  0
  -26.7090  -32.5578   23.1182 H   0  0  0  0  0  0
  -25.0054  -33.9805   25.0494 H   0  0  0  0  0  0
  -22.6856  -31.3063   21.4106 H   0  0  0  0  0  0
  -23.3761  -35.9638   23.3287 H   0  0  0  0  0  0
  -24.3581  -36.8951   22.2058 H   0  0  0  0  0  0
  -23.7220  -37.6509   23.6667 H   0  0  0  0  0  0
  -26.0296  -31.6080   20.5921 H   0  0  0  0  0  0
  -26.8123  -30.9021   21.9778 H   0  0  0  0  0  0
  -28.0933  -29.1430   21.1735 H   0  0  0  0  0  0
  -26.1017  -25.9895   19.0046 H   0  0  0  0  0  0
  -23.9951  -27.2925   19.0270 H   0  0  0  0  0  0
  -23.7112  -30.5943   19.4030 H   0  0  0  0  0  0
  -22.7342  -29.2356   19.8736 H   0  0  0  0  0  0
  -25.1284  -36.1994   25.0833 H   0  0  0  0  0  0
  -20.9942  -28.3226   24.1459 H   0  0  0  0  0  0
  -20.5620  -26.2263   23.3631 H   0  0  0  0  0  0
  -21.6630  -26.7406   22.1277 H   0  0  0  0  0  0
  -19.6909  -25.6293   21.1241 H   0  0  0  0  0  0
  -19.6718  -27.3190   20.6748 H   0  0  0  0  0  0
  -17.4204  -26.6728   21.3958 H   0  0  0  0  0  0
  -18.0255  -26.0055   22.8955 H   0  0  0  0  0  0
  -19.7921  -30.7241   24.2308 H   0  0  0  0  0  0
  -17.5007  -31.6262   24.5165 H   0  0  0  0  0  0
  -15.5343  -30.2992   23.7642 H   0  0  0  0  0  0
  -15.8654  -28.0834   22.7042 H   0  0  0  0  0  0
  -24.5956  -30.6975   25.7848 H   0  0  0  0  0  0
  -24.8839  -32.2867   26.4839 H   0  0  0  0  0  0
  -25.8104  -30.8994   27.0275 H   0  0  0  0  0  0
  -26.2797  -29.6829   24.1133 H   0  0  0  0  0  0
  -27.4014  -29.7266   25.4541 H   0  0  0  0  0  0
  -27.8647  -30.4351   23.9234 H   0  0  0  0  0  0
  -27.2660  -33.3606   26.2090 H   0  0  0  0  0  0
  -28.3826  -32.6903   25.0284 H   0  0  0  0  0  0
  -28.0730  -31.8421   26.5358 H   0  0  0  0  0  0
  -28.2622  -38.0095   24.7497 H   0  0  0  0  0  0
  -28.1069  -36.2630   24.6285 H   0  0  0  0  0  0
  -27.2316  -37.1479   25.8864 H   0  0  0  0  0  0
  -20.9271  -29.8755   21.6971 H   0  0  0  0  0  0
  -26.0196  -38.2882   24.1415 H   0  0  0  0  0  0
  -31.6948  -19.0807   18.6301 H   0  0  0  0  0  0
  -31.4866  -16.7130   19.0490 H   0  0  0  0  0  0
  -24.7849  -21.6669   24.6754 H   0  0  0  0  0  0
  -25.3843  -23.4040   24.4907 H   0  0  0  0  0  0
  -27.8017  -23.7919   24.1112 H   0  0  0  0  0  0
  -26.9543  -20.8084   24.1382 H   0  0  0  0  0  0
  -32.2271  -22.2151   25.9697 H   0  0  0  0  0  0
  -30.5128  -21.9481   25.9530 H   0  0  0  0  0  0
  -32.1120  -20.1150   25.0138 H   0  0  0  0  0  0
  -32.2254  -21.0807   23.5728 H   0  0  0  0  0  0
  -32.1946  -23.7767   24.2247 H   0  0  0  0  0  0
  -30.8183  -24.1558   25.2138 H   0  0  0  0  0  0
  -29.6323  -20.0042   24.8302 H   0  0  0  0  0  0
  -30.5022  -19.2620   23.5247 H   0  0  0  0  0  0
  -30.9473  -23.0104   22.4347 H   0  0  0  0  0  0
  -30.9990  -21.2985   18.9025 H   0  0  0  0  0  0
  -31.1321  -21.6384   20.6205 H   0  0  0  0  0  0
  -29.5568  -21.6937   19.8143 H   0  0  0  0  0  0
  -28.5239  -17.9553   23.5110 H   0  0  0  0  0  0
  -28.6416  -16.3274   22.9339 H   0  0  0  0  0  0
  -27.3927  -17.3824   22.2812 H   0  0  0  0  0  0
  -27.8613  -19.8011   22.5616 H   0  0  0  0  0  0
  -28.2110  -20.9797   21.3718 H   0  0  0  0  0  0
  -29.9458  -24.5833   20.7765 H   0  0  0  0  0  0
  -28.3521  -24.4420   21.4953 H   0  0  0  0  0  0
  -29.9953  -27.0318   21.2804 H   0  0  0  0  0  0
  -28.4792  -26.8929   22.1485 H   0  0  0  0  0  0
  -29.0827  -15.2223   21.4194 H   0  0  0  0  0  0
  -30.7537  -25.3138   22.9301 H   0  0  0  0  0  0
  -29.2987  -25.1048   23.6081 H   0  0  0  0  0  0
  1 25  1  0  0  0
  1 30  2  0  0  0
  1 92  1  0  0  0
  2  3  1  0  0  0
  2 25  1  0  0  0
  2 94  1  0  0  0
  2 95  1  0  0  0
  3  4  1  0  0  0
  3 96  1  0  0  0
  3 97  1  0  0  0
  4  5  1  0  0  0
  4 98  1  0  0  0
  4 99  1  0  0  0
  5  6  1  0  0  0
  5 26  1  0  0  0
  5100  1  0  0  0
  6 25  1  0  0  0
  6101  1  0  0  0
  6102  1  0  0  0
  7  8  2  0  0  0
  7 26  1  0  0  0
  7 29  1  0  0  0
  8  9  1  0  0  0
  8 22  1  0  0  0
  9 10  1  0  0  0
  9 27  2  0  0  0
 10 11  2  0  0  0
 10 15  1  0  0  0
 11 12  1  0  0  0
 11103  1  0  0  0
 12 13  2  0  0  0
 12104  1  0  0  0
 13 14  1  0  0  0
 13 31  1  0  0  0
 14 15  2  0  0  0
 14105  1  0  0  0
 15106  1  0  0  0
 16 17  2  0  0  0
 16 21  1  0  0  0
 16 31  1  0  0  0
 17 18  1  0  0  0
 17107  1  0  0  0
 18 19  2  0  0  0
 18108  1  0  0  0
 19 20  1  0  0  0
 19 24  1  0  0  0
 20 21  2  0  0  0
 20109  1  0  0  0
 21 23  1  0  0  0
 22 28  1  0  0  0
 22 32  2  0  0  0
 26 27  1  0  0  0
 28110  1  0  0  0
 28111  1  0  0  0
 29112  1  0  0  0
 29113  1  0  0  0
 33 34  1  0  0  0
 33 66  1  0  0  0
 33 70  2  0  0  0
 34 36  1  0  0  0
 34 59  1  0  0  0
 34114  1  0  0  0
 35 44  2  0  0  0
 35 45  1  0  0  0
 35 68  1  0  0  0
 36 56  1  0  0  0
 36115  1  0  0  0
 37 39  1  0  0  0
 37 47  1  0  0  0
 37 66  1  0  0  0
 37116  1  0  0  0
 38 43  2  0  0  0
 38 46  1  0  0  0
 38 47  1  0  0  0
 39 64  1  0  0  0
 39 67  2  0  0  0
 40 52  1  0  0  0
 40 53  2  0  0  0
 40 58  1  0  0  0
 41117  1  0  0  0
 41118  1  0  0  0
 41119  1  0  0  0
 41 48  1  0  0  0
 42 43  1  0  0  0
 42 66  1  0  0  0
 42120  1  0  0  0
 42121  1  0  0  0
 43 44  1  0  0  0
 44122  1  0  0  0
 45 46  2  0  0  0
 45123  1  0  0  0
 46124  1  0  0  0
 47125  1  0  0  0
 47126  1  0  0  0
 48 56  1  0  0  0
 48 65  1  0  0  0
 48127  1  0  0  0
 49 50  1  0  0  0
 49 53  1  0  0  0
 49 64  1  0  0  0
 49128  1  0  0  0
 50 51  1  0  0  0
 50129  1  0  0  0
 50130  1  0  0  0
 51 52  1  0  0  0
 51131  1  0  0  0
 51132  1  0  0  0
 52133  1  0  0  0
 52134  1  0  0  0
 53 54  1  0  0  0
 54 55  2  0  0  0
 54135  1  0  0  0
 55 57  1  0  0  0
 55136  1  0  0  0
 56 69  2  0  0  0
 57 58  2  0  0  0
 57137  1  0  0  0
 58138  1  0  0  0
 59 60  1  0  0  0
 59 61  1  0  0  0
 59 62  1  0  0  0
 60139  1  0  0  0
 60140  1  0  0  0
 60141  1  0  0  0
 61142  1  0  0  0
 61143  1  0  0  0
 61144  1  0  0  0
 62145  1  0  0  0
 62146  1  0  0  0
 62147  1  0  0  0
 63 65  1  0  0  0
 63148  1  0  0  0
 63149  1  0  0  0
 63150  1  0  0  0
 64151  1  0  0  0
 65152  1  0  0  0
 68 90  1  0  0  0
 71 72  2  0  0  0
 71 73  1  0  0  0
 71153  1  0  0  0
 72 76  1  0  0  0
 72154  1  0  0  0
 73 74  2  0  0  0
 73 86  1  0  0  0
 74 75  1  0  0  0
 74 88  1  0  0  0
 75 76  2  0  0  0
 75 87  1  0  0  0
 76 92  1  0  0  0
 77 79  2  0  0  0
 77 85  1  0  0  0
 77 91  1  0  0  0
 78 80  2  0  0  0
 78155  1  0  0  0
 78156  1  0  0  0
 79 80  1  0  0  0
 79157  1  0  0  0
 80158  1  0  0  0
 81 82  1  0  0  0
 81 83  1  0  0  0
 81159  1  0  0  0
 81160  1  0  0  0
 82 84  1  0  0  0
 82161  1  0  0  0
 82162  1  0  0  0
 83 85  1  0  0  0
 83163  1  0  0  0
 83164  1  0  0  0
 84 91  1  0  0  0
 84165  1  0  0  0
 84166  1  0  0  0
 85 93  1  0  0  0
 85167  1  0  0  0
 86168  1  0  0  0
 86169  1  0  0  0
 86170  1  0  0  0
 87171  1  0  0  0
 87172  1  0  0  0
 87173  1  0  0  0
 88 91  1  0  0  0
 88174  1  0  0  0
 88175  1  0  0  0
 89 90  1  0  0  0
 89 93  1  0  0  0
 89176  1  0  0  0
 89177  1  0  0  0
 90178  1  0  0  0
 90179  1  0  0  0
 92180  1  0  0  0
 93181  1  0  0  0
 93182  1  0  0  0
M  CHG  1  93   1
M  ISO  4   1 100  68 101  90 101  92 100
M  END
> <chiral flag>
0

> <version>
0

> <s_m_source_file>
/data/baiqing/PycharmProjects/Reinvent-master-3.2/result/LINK_invent/BTK/process_docking_weight1_custom_product_contain_oxygen_bond_distance_aromatic_linkinvent_7_9_3/rearranged_h_0044.sdf

> <i_m_source_file_index>
48

> <r_mmod_Potential_Energy-OPLS-2005>
-95.3291244506836

> <r_mmod_Stretch_Energy-OPLS-2005>
43.8092002868652

> <r_mmod_Bend_Energy-OPLS-2005>
109.497886657715

> <r_mmod_Torsional_Energy-OPLS-2005>
284.6767578125

> <r_mmod_Improper_Torsional_Energy-OPLS-2005>
5.41776418685913

> <r_mmod_Van_der_Waal_Energy-OPLS-2005>
165.656463623047

> <r_mmod_Electrostatic_Energy-OPLS-2005>
-296.080749511719

> <r_mmod_Solvation_Energy-OPLS-2005>
-420.514556884766

> <b_mmod_Minimization_Converged-OPLS-2005>
0

> <r_mmod_RMS_Derivative-OPLS-2005>
0.819472134113312

$$$$
48
                    3D
 Structure written by MMmdl.
158167  0  0  1  0            999 V2000
  -30.6162  -14.7663   20.4295 C   0  0  0  0  0  0
  -30.4300  -12.4743   19.4515 C   0  0  0  0  0  0
  -29.5002  -12.5002   18.2201 C   0  0  0  0  0  0
  -28.0281  -12.3301   18.6424 C   0  0  0  0  0  0
  -27.6347  -13.2378   19.8390 C   0  0  2  0  0  0
  -28.6878  -13.1962   20.9649 C   0  0  0  0  0  0
  -25.2488  -13.8220   20.5710 C   0  0  0  0  0  0
  -24.1788  -13.0447   20.9215 C   0  0  0  0  0  0
  -24.6394  -11.6925   20.8748 C   0  0  0  0  0  0
  -23.9070  -10.4296   21.0405 C   0  0  0  0  0  0
  -24.3617   -9.4212   21.9182 C   0  0  0  0  0  0
  -23.6296   -8.2246   22.0751 C   0  0  0  0  0  0
  -22.4276   -8.0281   21.3547 C   0  0  0  0  0  0
  -21.9915   -9.0253   20.4644 C   0  0  0  0  0  0
  -22.7242  -10.2136   20.3055 C   0  0  0  0  0  0
  -21.6852   -6.0730   22.5276 C   0  0  0  0  0  0
  -21.4018   -6.5636   23.8210 C   0  0  0  0  0  0
  -21.3666   -5.6788   24.9173 C   0  0  0  0  0  0
  -21.6040   -4.3048   24.7219 C   0  0  0  0  0  0
  -21.8824   -3.8143   23.4340 C   0  0  0  0  0  0
  -21.9194   -4.6959   22.3397 C   0  0  0  0  0  0
  -22.7801  -13.5218   21.1870 C   0  0  0  0  0  0
  -22.1659   -4.2147   21.0971 F   0  0  0  0  0  0
  -21.5631   -3.4532   25.7732 F   0  0  0  0  0  0
  -29.9723  -13.5520   20.3554 N   0  0  0  0  0  0
  -26.2914  -12.9437   20.3270 N   0  0  0  0  0  0
  -25.9326  -11.6569   20.5748 N   0  0  0  0  0  0
  -22.0447  -12.8203   22.0420 N   0  0  0  0  0  0
  -25.4161  -15.1947   20.4155 N   0  0  0  0  0  0
  -31.8373  -14.8054   20.2723 O   0  0  0  0  0  0
  -21.6639   -6.8876   21.4241 O   0  0  0  0  0  0
  -22.3476  -14.5509   20.6699 O   0  0  0  0  0  0
  -24.6360  -31.8555   23.1993 C   0  0  0  0  0  0
  -25.9179  -32.4758   23.8338 C   0  0  1  0  0  0
  -27.2020  -27.2326   20.1137 C   0  0  0  0  0  0
  -25.5969  -33.8562   24.2259 N   0  0  0  0  0  0
  -23.4305  -30.4847   21.5454 C   0  0  2  0  0  0
  -24.8701  -28.9354   20.1122 C   0  0  0  0  0  0
  -22.7518  -29.4620   22.4894 C   0  0  0  0  0  0
  -18.0303  -28.1391   22.8473 C   0  0  0  0  0  0
  -24.1493  -36.7284   23.2639 C   0  0  0  0  0  0
  -25.9831  -30.7600   21.3825 C   0  0  0  0  0  0
  -26.0515  -29.3836   20.7177 C   0  0  0  0  0  0
  -27.2210  -28.5483   20.7034 C   0  0  0  0  0  0
  -25.9802  -26.8635   19.4991 C   0  0  0  0  0  0
  -24.8417  -27.6834   19.4936 C   0  0  0  0  0  0
  -23.6480  -29.8302   20.1596 C   0  0  0  0  0  0
  -25.4121  -36.3068   24.0322 C   0  0  1  0  0  0
  -20.5903  -28.3710   23.1243 C   0  0  2  0  0  0
  -20.6799  -26.9420   22.5387 C   0  0  0  0  0  0
  -19.5761  -26.6371   21.5206 C   0  0  0  0  0  0
  -18.1947  -26.7932   22.1618 C   0  0  0  0  0  0
  -19.1553  -28.8863   23.2852 C   0  0  0  0  0  0
  -18.9477  -30.1460   23.8875 C   0  0  0  0  0  0
  -17.6475  -30.6585   24.0553 C   0  0  0  0  0  0
  -25.9066  -34.9441   23.5083 C   0  0  0  0  0  0
  -16.5365  -29.9080   23.6326 C   0  0  0  0  0  0
  -16.7288  -28.6503   23.0342 C   0  0  0  0  0  0
  -26.4525  -31.6583   25.0738 C   0  0  0  0  0  0
  -25.3729  -31.3736   26.1439 C   0  0  0  0  0  0
  -27.0375  -30.2990   24.6258 C   0  0  0  0  0  0
  -27.6063  -32.4326   25.7530 C   0  0  0  0  0  0
  -27.5569  -37.1807   24.8473 C   0  0  0  0  0  0
  -21.4220  -29.3064   22.3637 N   0  0  0  0  0  0
  -26.4299  -37.3764   23.9400 N   0  0  0  0  0  0
  -24.7033  -31.0509   22.0985 N   0  0  0  0  0  0
  -23.4202  -28.8133   23.2984 O   0  0  0  0  0  0
  -28.2821  -26.3024   20.1586 O   0  0  0  0  0  0
  -26.5619  -34.8919   22.4643 O   0  0  0  0  0  0
  -23.5505  -32.1396   23.7277 O   0  0  0  0  0  0
  -28.0922  -18.2881   22.3214 C   0  0  0  0  0  0
  -28.4181  -19.5649   21.8099 C   0  0  0  0  0  0
  -28.6299  -17.1026   21.7738 C   0  0  0  0  0  0
  -29.3085  -19.7134   20.7272 C   0  0  0  0  0  0
  -29.5109  -17.1478   20.6729 C   0  0  0  0  0  0
  -29.8316  -18.4745   20.1586 C   0  0  0  0  0  0
  -28.9275  -23.6746   20.4674 C   0  0  0  0  0  0
  -27.4073  -23.2070   18.0341 C   0  0  0  0  0  0
  -28.0077  -24.5941   18.3048 C   0  0  0  0  0  0
  -28.2279  -22.0646   18.6734 C   0  0  0  0  0  0
  -28.0215  -24.8397   19.8247 C   0  0  1  0  0  0
  -29.8010  -21.1914   20.3597 C   0  0  0  0  0  0
  -28.8881  -22.3636   19.9610 N   0  0  0  0  0  0
  -29.9137  -15.8861   20.0127 N   0  0  0  0  0  0
  -29.6454  -23.9649   21.4296 O   0  0  0  0  0  0
  -30.6658  -18.5558   19.0953 F   0  0  0  0  0  0
  -31.4655  -12.6126   19.1346 H   0  0  0  0  0  0
  -30.3911  -11.5066   19.9538 H   0  0  0  0  0  0
  -29.7817  -11.7163   17.5159 H   0  0  0  0  0  0
  -29.6200  -13.4453   17.6875 H   0  0  0  0  0  0
  -27.8849  -11.2824   18.9093 H   0  0  0  0  0  0
  -27.3679  -12.5196   17.7947 H   0  0  0  0  0  0
  -27.6182  -14.2560   19.4492 H   0  0  0  0  0  0
  -28.7354  -12.2076   21.4235 H   0  0  0  0  0  0
  -28.4320  -13.8980   21.7588 H   0  0  0  0  0  0
  -25.2766   -9.5684   22.4754 H   0  0  0  0  0  0
  -24.0003   -7.4634   22.7472 H   0  0  0  0  0  0
  -21.0848   -8.8770   19.8944 H   0  0  0  0  0  0
  -22.3703  -10.9669   19.6158 H   0  0  0  0  0  0
  -21.2013   -7.6144   23.9715 H   0  0  0  0  0  0
  -21.1484   -6.0514   25.9075 H   0  0  0  0  0  0
  -22.0600   -2.7604   23.2837 H   0  0  0  0  0  0
  -22.4069  -11.9878   22.4831 H   0  0  0  0  0  0
  -21.1053  -13.1208   22.2603 H   0  0  0  0  0  0
  -24.6507  -15.8485   20.5359 H   0  0  0  0  0  0
  -26.2764  -15.6399   20.1203 H   0  0  0  0  0  0
  -26.7242  -32.5384   23.1068 H   0  0  0  0  0  0
  -25.0150  -33.9708   25.0428 H   0  0  0  0  0  0
  -22.7284  -31.3089   21.4049 H   0  0  0  0  0  0
  -23.3759  -35.9616   23.3314 H   0  0  0  0  0  0
  -24.3567  -36.8902   22.2048 H   0  0  0  0  0  0
  -23.7257  -37.6491   23.6666 H   0  0  0  0  0  0
  -26.1293  -31.5225   20.6170 H   0  0  0  0  0  0
  -26.8574  -30.8013   22.0202 H   0  0  0  0  0  0
  -28.1250  -28.8892   21.1885 H   0  0  0  0  0  0
  -25.8359  -25.9057   19.0296 H   0  0  0  0  0  0
  -23.9339  -27.3285   19.0243 H   0  0  0  0  0  0
  -23.7854  -30.6136   19.4128 H   0  0  0  0  0  0
  -22.7604  -29.2786   19.8427 H   0  0  0  0  0  0
  -25.1311  -36.1906   25.0818 H   0  0  0  0  0  0
  -20.9981  -28.3299   24.1369 H   0  0  0  0  0  0
  -21.6658  -26.7439   22.1162 H   0  0  0  0  0  0
  -20.5716  -26.2312   23.3593 H   0  0  0  0  0  0
  -19.6916  -25.6282   21.1244 H   0  0  0  0  0  0
  -19.6696  -27.3171   20.6728 H   0  0  0  0  0  0
  -17.4222  -26.6678   21.4012 H   0  0  0  0  0  0
  -18.0323  -26.0072   22.9016 H   0  0  0  0  0  0
  -19.7954  -30.7272   24.2246 H   0  0  0  0  0  0
  -17.5032  -31.6268   24.5161 H   0  0  0  0  0  0
  -15.5366  -30.2977   23.7667 H   0  0  0  0  0  0
  -15.8688  -28.0817   22.7065 H   0  0  0  0  0  0
  -24.5924  -30.7067   25.7762 H   0  0  0  0  0  0
  -24.8897  -32.2903   26.4827 H   0  0  0  0  0  0
  -25.8030  -30.8936   27.0238 H   0  0  0  0  0  0
  -26.2965  -29.6713   24.1300 H   0  0  0  0  0  0
  -27.4057  -29.7283   25.4793 H   0  0  0  0  0  0
  -27.8847  -30.4250   23.9515 H   0  0  0  0  0  0
  -27.2680  -33.3660   26.2045 H   0  0  0  0  0  0
  -28.3926  -32.6825   25.0395 H   0  0  0  0  0  0
  -28.0676  -31.8481   26.5502 H   0  0  0  0  0  0
  -28.2613  -38.0075   24.7471 H   0  0  0  0  0  0
  -28.1039  -36.2600   24.6373 H   0  0  0  0  0  0
  -27.2273  -37.1543   25.8875 H   0  0  0  0  0  0
  -20.9407  -29.8819   21.6864 H   0  0  0  0  0  0
  -26.0173  -38.2847   24.1366 H   0  0  0  0  0  0
  -27.4135  -18.2153   23.1606 H   0  0  0  0  0  0
  -28.0093  -20.4445   22.2872 H   0  0  0  0  0  0
  -28.3229  -16.1532   22.1881 H   0  0  0  0  0  0
  -27.3194  -23.0373   16.9596 H   0  0  0  0  0  0
  -26.3876  -23.1756   18.4212 H   0  0  0  0  0  0
  -27.4439  -25.3533   17.7674 H   0  0  0  0  0  0
  -29.0211  -24.6522   17.9060 H   0  0  0  0  0  0
  -29.0078  -21.7826   17.9632 H   0  0  0  0  0  0
  -27.5979  -21.1814   18.7855 H   0  0  0  0  0  0
  -27.0411  -24.6015   20.2375 H   0  0  0  0  0  0
  -30.5493  -21.0912   19.5733 H   0  0  0  0  0  0
  -30.3789  -21.5144   21.2262 H   0  0  0  0  0  0
  -30.2900  -16.1240   19.1062 H   0  0  0  0  0  0
  1 25  1  0  0  0
  1 30  2  0  0  0
  1 84  1  0  0  0
  2  3  1  0  0  0
  2 25  1  0  0  0
  2 87  1  0  0  0
  2 88  1  0  0  0
  3  4  1  0  0  0
  3 89  1  0  0  0
  3 90  1  0  0  0
  4  5  1  0  0  0
  4 91  1  0  0  0
  4 92  1  0  0  0
  5  6  1  0  0  0
  5 26  1  0  0  0
  5 93  1  0  0  0
  6 25  1  0  0  0
  6 94  1  0  0  0
  6 95  1  0  0  0
  7  8  2  0  0  0
  7 26  1  0  0  0
  7 29  1  0  0  0
  8  9  1  0  0  0
  8 22  1  0  0  0
  9 10  1  0  0  0
  9 27  2  0  0  0
 10 11  2  0  0  0
 10 15  1  0  0  0
 11 12  1  0  0  0
 11 96  1  0  0  0
 12 13  2  0  0  0
 12 97  1  0  0  0
 13 14  1  0  0  0
 13 31  1  0  0  0
 14 15  2  0  0  0
 14 98  1  0  0  0
 15 99  1  0  0  0
 16 17  2  0  0  0
 16 21  1  0  0  0
 16 31  1  0  0  0
 17 18  1  0  0  0
 17100  1  0  0  0
 18 19  2  0  0  0
 18101  1  0  0  0
 19 20  1  0  0  0
 19 24  1  0  0  0
 20 21  2  0  0  0
 20102  1  0  0  0
 21 23  1  0  0  0
 22 28  1  0  0  0
 22 32  2  0  0  0
 26 27  1  0  0  0
 28103  1  0  0  0
 28104  1  0  0  0
 29105  1  0  0  0
 29106  1  0  0  0
 33 34  1  0  0  0
 33 66  1  0  0  0
 33 70  2  0  0  0
 34 36  1  0  0  0
 34 59  1  0  0  0
 34107  1  0  0  0
 35 44  2  0  0  0
 35 45  1  0  0  0
 35 68  1  0  0  0
 36 56  1  0  0  0
 36108  1  0  0  0
 37 39  1  0  0  0
 37 47  1  0  0  0
 37 66  1  0  0  0
 37109  1  0  0  0
 38 43  2  0  0  0
 38 46  1  0  0  0
 38 47  1  0  0  0
 39 64  1  0  0  0
 39 67  2  0  0  0
 40 52  1  0  0  0
 40 53  2  0  0  0
 40 58  1  0  0  0
 41110  1  0  0  0
 41111  1  0  0  0
 41112  1  0  0  0
 41 48  1  0  0  0
 42 43  1  0  0  0
 42 66  1  0  0  0
 42113  1  0  0  0
 42114  1  0  0  0
 43 44  1  0  0  0
 44115  1  0  0  0
 45 46  2  0  0  0
 45116  1  0  0  0
 46117  1  0  0  0
 47118  1  0  0  0
 47119  1  0  0  0
 48 56  1  0  0  0
 48 65  1  0  0  0
 48120  1  0  0  0
 49 50  1  0  0  0
 49 53  1  0  0  0
 49 64  1  0  0  0
 49121  1  0  0  0
 50 51  1  0  0  0
 50122  1  0  0  0
 50123  1  0  0  0
 51 52  1  0  0  0
 51124  1  0  0  0
 51125  1  0  0  0
 52126  1  0  0  0
 52127  1  0  0  0
 53 54  1  0  0  0
 54 55  2  0  0  0
 54128  1  0  0  0
 55 57  1  0  0  0
 55129  1  0  0  0
 56 69  2  0  0  0
 57 58  2  0  0  0
 57130  1  0  0  0
 58131  1  0  0  0
 59 60  1  0  0  0
 59 61  1  0  0  0
 59 62  1  0  0  0
 60132  1  0  0  0
 60133  1  0  0  0
 60134  1  0  0  0
 61135  1  0  0  0
 61136  1  0  0  0
 61137  1  0  0  0
 62138  1  0  0  0
 62139  1  0  0  0
 62140  1  0  0  0
 63 65  1  0  0  0
 63141  1  0  0  0
 63142  1  0  0  0
 63143  1  0  0  0
 64144  1  0  0  0
 65145  1  0  0  0
 68 81  1  0  0  0
 71 72  2  0  0  0
 71 73  1  0  0  0
 71146  1  0  0  0
 72 74  1  0  0  0
 72147  1  0  0  0
 73 75  2  0  0  0
 73148  1  0  0  0
 74 76  2  0  0  0
 74 82  1  0  0  0
 75 76  1  0  0  0
 75 84  1  0  0  0
 76 86  1  0  0  0
 77 81  1  0  0  0
 77 83  1  0  0  0
 77 85  2  0  0  0
 78 79  1  0  0  0
 78 80  1  0  0  0
 78149  1  0  0  0
 78150  1  0  0  0
 79 81  1  0  0  0
 79151  1  0  0  0
 79152  1  0  0  0
 80 83  1  0  0  0
 80153  1  0  0  0
 80154  1  0  0  0
 81155  1  0  0  0
 82 83  1  0  0  0
 82156  1  0  0  0
 82157  1  0  0  0
 84158  1  0  0  0
M  ISO  4   1 100  68 101  81 101  84 100
M  END
> <chiral flag>
0

> <version>
0

> <s_m_source_file>
/data/baiqing/PycharmProjects/Reinvent-master-3.2/result/LINK_invent/BTK/process_docking_weight1_custom_product_contain_oxygen_bond_distance_aromatic_linkinvent_7_9_3/rearranged_h_0044.sdf

> <i_m_source_file_index>
49

> <r_mmod_Potential_Energy-OPLS-2005>
322.068450927734

> <r_mmod_Stretch_Energy-OPLS-2005>
136.757339477539

> <r_mmod_Bend_Energy-OPLS-2005>
196.321273803711

> <r_mmod_Torsional_Energy-OPLS-2005>
298.096038818359

> <r_mmod_Improper_Torsional_Energy-OPLS-2005>
30.997314453125

> <r_mmod_Van_der_Waal_Energy-OPLS-2005>
143.34033203125

> <r_mmod_Electrostatic_Energy-OPLS-2005>
-366.177459716797

> <r_mmod_Solvation_Energy-OPLS-2005>
-223.200805664062

> <b_mmod_Minimization_Converged-OPLS-2005>
0

> <r_mmod_RMS_Derivative-OPLS-2005>
1.77522754669189

$$$$
49
                    3D
 Structure written by MMmdl.
167176  0  0  1  0            999 V2000
  -30.4968  -14.9561   20.4386 C   0  0  0  0  0  0
  -30.4538  -12.5965   19.4990 C   0  0  0  0  0  0
  -29.5265  -12.5430   18.2598 C   0  0  0  0  0  0
  -28.0594  -12.3184   18.6747 C   0  0  0  0  0  0
  -27.6320  -13.2395   19.8461 C   0  0  2  0  0  0
  -28.6736  -13.2428   20.9857 C   0  0  0  0  0  0
  -25.2383  -13.8096   20.5584 C   0  0  0  0  0  0
  -24.1746  -13.0354   20.9237 C   0  0  0  0  0  0
  -24.6396  -11.6867   20.8794 C   0  0  0  0  0  0
  -23.9073  -10.4256   21.0425 C   0  0  0  0  0  0
  -24.3618   -9.4169   21.9205 C   0  0  0  0  0  0
  -23.6295   -8.2206   22.0762 C   0  0  0  0  0  0
  -22.4275   -8.0260   21.3542 C   0  0  0  0  0  0
  -21.9918   -9.0232   20.4644 C   0  0  0  0  0  0
  -22.7247  -10.2110   20.3071 C   0  0  0  0  0  0
  -21.6848   -6.0729   22.5278 C   0  0  0  0  0  0
  -21.4007   -6.5631   23.8211 C   0  0  0  0  0  0
  -21.3665   -5.6787   24.9179 C   0  0  0  0  0  0
  -21.6039   -4.3047   24.7225 C   0  0  0  0  0  0
  -21.8819   -3.8146   23.4347 C   0  0  0  0  0  0
  -21.9184   -4.6963   22.3400 C   0  0  0  0  0  0
  -22.7771  -13.5151   21.1895 C   0  0  0  0  0  0
  -22.1658   -4.2149   21.0977 F   0  0  0  0  0  0
  -21.5629   -3.4537   25.7738 F   0  0  0  0  0  0
  -29.9534  -13.6716   20.4016 N   0  0  0  0  0  0
  -26.2874  -12.9370   20.3239 N   0  0  0  0  0  0
  -25.9323  -11.6514   20.5779 N   0  0  0  0  0  0
  -22.0414  -12.8180   22.0466 N   0  0  0  0  0  0
  -25.3873  -15.1759   20.3715 N   0  0  0  0  0  0
  -31.6885  -15.0829   20.1341 O   0  0  0  0  0  0
  -21.6618   -6.8868   21.4245 O   0  0  0  0  0  0
  -22.3469  -14.5462   20.6731 O   0  0  0  0  0  0
  -24.6450  -31.8418   23.1849 C   0  0  0  0  0  0
  -25.9212  -32.4668   23.8240 C   0  0  1  0  0  0
  -27.2207  -27.1303   20.1460 C   0  0  0  0  0  0
  -25.5965  -33.8482   24.2153 N   0  0  0  0  0  0
  -23.4493  -30.4606   21.5313 C   0  0  2  0  0  0
  -24.8963  -28.8793   20.1178 C   0  0  0  0  0  0
  -22.7587  -29.4539   22.4839 C   0  0  0  0  0  0
  -18.0318  -28.1420   22.8443 C   0  0  0  0  0  0
  -24.1498  -36.7261   23.2644 C   0  0  0  0  0  0
  -26.0060  -30.7128   21.3836 C   0  0  0  0  0  0
  -26.0758  -29.3206   20.7305 C   0  0  0  0  0  0
  -27.2431  -28.4654   20.7216 C   0  0  0  0  0  0
  -26.0098  -26.7798   19.5161 C   0  0  0  0  0  0
  -24.8743  -27.6198   19.4984 C   0  0  0  0  0  0
  -23.6765  -29.7880   20.1527 C   0  0  0  0  0  0
  -25.4121  -36.3006   24.0309 C   0  0  1  0  0  0
  -20.5930  -28.3751   23.1213 C   0  0  2  0  0  0
  -20.6816  -26.9445   22.5390 C   0  0  0  0  0  0
  -19.5794  -26.6373   21.5207 C   0  0  0  0  0  0
  -18.1965  -26.7944   22.1602 C   0  0  0  0  0  0
  -19.1576  -28.8901   23.2810 C   0  0  0  0  0  0
  -18.9509  -30.1487   23.8847 C   0  0  0  0  0  0
  -17.6516  -30.6600   24.0565 C   0  0  0  0  0  0
  -25.9078  -34.9388   23.5025 C   0  0  0  0  0  0
  -16.5404  -29.9101   23.6332 C   0  0  0  0  0  0
  -16.7310  -28.6534   23.0324 C   0  0  0  0  0  0
  -26.4517  -31.6561   25.0698 C   0  0  0  0  0  0
  -25.3681  -31.3775   26.1383 C   0  0  0  0  0  0
  -27.0445  -30.2990   24.6286 C   0  0  0  0  0  0
  -27.6034  -32.4358   25.7493 C   0  0  0  0  0  0
  -27.5573  -37.1771   24.8458 C   0  0  0  0  0  0
  -21.4279  -29.3072   22.3604 N   0  0  0  0  0  0
  -26.4272  -37.3731   23.9420 N   0  0  0  0  0  0
  -24.7209  -31.0263   22.0883 N   0  0  0  0  0  0
  -23.4231  -28.8068   23.2976 O   0  0  0  0  0  0
  -28.2914  -26.1683   20.0895 O   0  0  0  0  0  0
  -26.5645  -34.8897   22.4599 O   0  0  0  0  0  0
  -23.5564  -32.1295   23.7062 O   0  0  0  0  0  0
  -30.4564  -19.9500   20.1271 C   0  0  0  0  0  0
  -30.6016  -18.5003   20.1620 C   0  0  0  0  0  0
  -28.2401  -19.8032   20.9182 C   0  0  0  0  0  0
  -28.3879  -18.3415   20.9704 C   0  0  0  0  0  0
  -29.2783  -20.7050   20.4897 C   0  0  0  0  0  0
  -29.5763  -17.5970   20.5890 C   0  0  0  0  0  0
  -28.4156  -23.2998   20.0031 C   0  0  0  0  0  0
  -26.7659  -21.6689   17.1135 C   0  0  0  0  0  0
  -27.7074  -23.1133   18.8682 C   0  0  0  0  0  0
  -27.7103  -21.9231   18.0332 C   0  0  0  0  0  0
  -30.4610  -24.0799   21.7405 C   0  0  0  0  0  0
  -29.1600  -24.8648   21.9631 C   0  0  0  0  0  0
  -30.1904  -22.5676   21.6559 C   0  0  0  0  0  0
  -28.2168  -24.7665   20.7524 C   0  0  1  0  0  0
  -26.9349  -20.4274   21.4147 C   0  0  0  0  0  0
  -27.1946  -17.5538   21.4965 C   0  0  0  0  0  0
  -29.2465  -22.2061   20.5914 N   0  0  0  0  0  0
  -29.6202  -16.0557   20.6572 N   0  0  0  0  0  0
  -31.4823  -12.7834   19.1870 H   0  0  0  0  0  0
  -30.4691  -11.6364   20.0180 H   0  0  0  0  0  0
  -29.8479  -11.7528   17.5804 H   0  0  0  0  0  0
  -29.6065  -13.4788   17.7039 H   0  0  0  0  0  0
  -27.9581  -11.2746   18.9732 H   0  0  0  0  0  0
  -27.3951  -12.4581   17.8201 H   0  0  0  0  0  0
  -27.5998  -14.2470   19.4310 H   0  0  0  0  0  0
  -28.7587  -12.2520   21.4359 H   0  0  0  0  0  0
  -28.3682  -13.9137   21.7896 H   0  0  0  0  0  0
  -25.2758   -9.5635   22.4794 H   0  0  0  0  0  0
  -23.9987   -7.4590   22.7486 H   0  0  0  0  0  0
  -21.0843   -8.8768   19.8943 H   0  0  0  0  0  0
  -22.3719  -10.9663   19.6194 H   0  0  0  0  0  0
  -21.2007   -7.6138   23.9724 H   0  0  0  0  0  0
  -21.1487   -6.0513   25.9079 H   0  0  0  0  0  0
  -22.0596   -2.7612   23.2846 H   0  0  0  0  0  0
  -22.4030  -11.9851   22.4871 H   0  0  0  0  0  0
  -21.1037  -13.1230   22.2683 H   0  0  0  0  0  0
  -24.5888  -15.7971   20.4363 H   0  0  0  0  0  0
  -26.1807  -15.5986   19.9112 H   0  0  0  0  0  0
  -26.7282  -32.5264   23.0980 H   0  0  0  0  0  0
  -25.0172  -33.9610   25.0338 H   0  0  0  0  0  0
  -22.7511  -31.2858   21.3729 H   0  0  0  0  0  0
  -23.3756  -35.9592   23.3254 H   0  0  0  0  0  0
  -24.3609  -36.8952   22.2070 H   0  0  0  0  0  0
  -23.7270  -37.6443   23.6745 H   0  0  0  0  0  0
  -26.1552  -31.4637   20.6080 H   0  0  0  0  0  0
  -26.8788  -30.7642   22.0220 H   0  0  0  0  0  0
  -28.1524  -28.8107   21.1929 H   0  0  0  0  0  0
  -25.9261  -25.8173   19.0347 H   0  0  0  0  0  0
  -23.9735  -27.2721   19.0089 H   0  0  0  0  0  0
  -23.8248  -30.5638   19.4002 H   0  0  0  0  0  0
  -22.7878  -29.2391   19.8331 H   0  0  0  0  0  0
  -25.1307  -36.1810   25.0797 H   0  0  0  0  0  0
  -20.9991  -28.3338   24.1347 H   0  0  0  0  0  0
  -20.5772  -26.2352   23.3619 H   0  0  0  0  0  0
  -21.6675  -26.7475   22.1169 H   0  0  0  0  0  0
  -19.6973  -25.6262   21.1310 H   0  0  0  0  0  0
  -19.6752  -27.3119   20.6694 H   0  0  0  0  0  0
  -17.4239  -26.6691   21.3997 H   0  0  0  0  0  0
  -18.0333  -26.0091   22.9006 H   0  0  0  0  0  0
  -19.7991  -30.7305   24.2192 H   0  0  0  0  0  0
  -17.5079  -31.6283   24.5164 H   0  0  0  0  0  0
  -15.5409  -30.3016   23.7686 H   0  0  0  0  0  0
  -15.8705  -28.0886   22.7038 H   0  0  0  0  0  0
  -24.5869  -30.7126   25.7692 H   0  0  0  0  0  0
  -24.8862  -32.2965   26.4725 H   0  0  0  0  0  0
  -25.7902  -30.9000   27.0229 H   0  0  0  0  0  0
  -26.3100  -29.6677   24.1288 H   0  0  0  0  0  0
  -27.4102  -29.7326   25.4858 H   0  0  0  0  0  0
  -27.8944  -30.4307   23.9595 H   0  0  0  0  0  0
  -27.2640  -33.3728   26.1940 H   0  0  0  0  0  0
  -28.3888  -32.6822   25.0332 H   0  0  0  0  0  0
  -28.0650  -31.8578   26.5515 H   0  0  0  0  0  0
  -28.2506  -38.0137   24.7531 H   0  0  0  0  0  0
  -28.1147  -36.2660   24.6238 H   0  0  0  0  0  0
  -27.2302  -37.1340   25.8859 H   0  0  0  0  0  0
  -20.9505  -29.8865   21.6844 H   0  0  0  0  0  0
  -26.0121  -38.2782   24.1467 H   0  0  0  0  0  0
  -31.3215  -20.5108   19.8046 H   0  0  0  0  0  0
  -31.5512  -18.0827   19.8558 H   0  0  0  0  0  0
  -26.8086  -20.7715   16.5123 H   0  0  0  0  0  0
  -25.9347  -22.3390   16.9478 H   0  0  0  0  0  0
  -27.1064  -23.9441   18.5258 H   0  0  0  0  0  0
  -28.5108  -21.2055   18.1301 H   0  0  0  0  0  0
  -31.1514  -24.2754   22.5616 H   0  0  0  0  0  0
  -30.9605  -24.4230   20.8321 H   0  0  0  0  0  0
  -29.3851  -25.9074   22.1849 H   0  0  0  0  0  0
  -28.6573  -24.4694   22.8450 H   0  0  0  0  0  0
  -29.7928  -22.2158   22.6093 H   0  0  0  0  0  0
  -31.1460  -22.0624   21.5158 H   0  0  0  0  0  0
  -27.2017  -24.7074   21.1476 H   0  0  0  0  0  0
  -26.0580  -19.8547   21.1143 H   0  0  0  0  0  0
  -26.7759  -21.4282   21.0234 H   0  0  0  0  0  0
  -26.9482  -20.4923   22.5030 H   0  0  0  0  0  0
  -26.8230  -17.9885   22.4251 H   0  0  0  0  0  0
  -27.4093  -16.5114   21.7218 H   0  0  0  0  0  0
  -26.3903  -17.5893   20.7621 H   0  0  0  0  0  0
  -28.7183  -15.6811   20.9031 H   0  0  0  0  0  0
  1 25  1  0  0  0
  1 30  2  0  0  0
  1 88  1  0  0  0
  2  3  1  0  0  0
  2 25  1  0  0  0
  2 89  1  0  0  0
  2 90  1  0  0  0
  3  4  1  0  0  0
  3 91  1  0  0  0
  3 92  1  0  0  0
  4  5  1  0  0  0
  4 93  1  0  0  0
  4 94  1  0  0  0
  5  6  1  0  0  0
  5 26  1  0  0  0
  5 95  1  0  0  0
  6 25  1  0  0  0
  6 96  1  0  0  0
  6 97  1  0  0  0
  7  8  2  0  0  0
  7 26  1  0  0  0
  7 29  1  0  0  0
  8  9  1  0  0  0
  8 22  1  0  0  0
  9 10  1  0  0  0
  9 27  2  0  0  0
 10 11  2  0  0  0
 10 15  1  0  0  0
 11 12  1  0  0  0
 11 98  1  0  0  0
 12 13  2  0  0  0
 12 99  1  0  0  0
 13 14  1  0  0  0
 13 31  1  0  0  0
 14 15  2  0  0  0
 14100  1  0  0  0
 15101  1  0  0  0
 16 17  2  0  0  0
 16 21  1  0  0  0
 16 31  1  0  0  0
 17 18  1  0  0  0
 17102  1  0  0  0
 18 19  2  0  0  0
 18103  1  0  0  0
 19 20  1  0  0  0
 19 24  1  0  0  0
 20 21  2  0  0  0
 20104  1  0  0  0
 21 23  1  0  0  0
 22 28  1  0  0  0
 22 32  2  0  0  0
 26 27  1  0  0  0
 28105  1  0  0  0
 28106  1  0  0  0
 29107  1  0  0  0
 29108  1  0  0  0
 33 34  1  0  0  0
 33 66  1  0  0  0
 33 70  2  0  0  0
 34 36  1  0  0  0
 34 59  1  0  0  0
 34109  1  0  0  0
 35 44  2  0  0  0
 35 45  1  0  0  0
 35 68  1  0  0  0
 36 56  1  0  0  0
 36110  1  0  0  0
 37 39  1  0  0  0
 37 47  1  0  0  0
 37 66  1  0  0  0
 37111  1  0  0  0
 38 43  2  0  0  0
 38 46  1  0  0  0
 38 47  1  0  0  0
 39 64  1  0  0  0
 39 67  2  0  0  0
 40 52  1  0  0  0
 40 53  2  0  0  0
 40 58  1  0  0  0
 41112  1  0  0  0
 41113  1  0  0  0
 41114  1  0  0  0
 41 48  1  0  0  0
 42 43  1  0  0  0
 42 66  1  0  0  0
 42115  1  0  0  0
 42116  1  0  0  0
 43 44  1  0  0  0
 44117  1  0  0  0
 45 46  2  0  0  0
 45118  1  0  0  0
 46119  1  0  0  0
 47120  1  0  0  0
 47121  1  0  0  0
 48 56  1  0  0  0
 48 65  1  0  0  0
 48122  1  0  0  0
 49 50  1  0  0  0
 49 53  1  0  0  0
 49 64  1  0  0  0
 49123  1  0  0  0
 50 51  1  0  0  0
 50124  1  0  0  0
 50125  1  0  0  0
 51 52  1  0  0  0
 51126  1  0  0  0
 51127  1  0  0  0
 52128  1  0  0  0
 52129  1  0  0  0
 53 54  1  0  0  0
 54 55  2  0  0  0
 54130  1  0  0  0
 55 57  1  0  0  0
 55131  1  0  0  0
 56 69  2  0  0  0
 57 58  2  0  0  0
 57132  1  0  0  0
 58133  1  0  0  0
 59 60  1  0  0  0
 59 61  1  0  0  0
 59 62  1  0  0  0
 60134  1  0  0  0
 60135  1  0  0  0
 60136  1  0  0  0
 61137  1  0  0  0
 61138  1  0  0  0
 61139  1  0  0  0
 62140  1  0  0  0
 62141  1  0  0  0
 62142  1  0  0  0
 63 65  1  0  0  0
 63143  1  0  0  0
 63144  1  0  0  0
 63145  1  0  0  0
 64146  1  0  0  0
 65147  1  0  0  0
 68 84  1  0  0  0
 71 72  2  0  0  0
 71 75  1  0  0  0
 71148  1  0  0  0
 72 76  1  0  0  0
 72149  1  0  0  0
 73 74  1  0  0  0
 73 75  2  0  0  0
 73 85  1  0  0  0
 74 76  2  0  0  0
 74 86  1  0  0  0
 75 87  1  0  0  0
 76 88  1  0  0  0
 77 79  2  0  0  0
 77 84  1  0  0  0
 77 87  1  0  0  0
 78 80  2  0  0  0
 78150  1  0  0  0
 78151  1  0  0  0
 79 80  1  0  0  0
 79152  1  0  0  0
 80153  1  0  0  0
 81 82  1  0  0  0
 81 83  1  0  0  0
 81154  1  0  0  0
 81155  1  0  0  0
 82 84  1  0  0  0
 82156  1  0  0  0
 82157  1  0  0  0
 83 87  1  0  0  0
 83158  1  0  0  0
 83159  1  0  0  0
 84160  1  0  0  0
 85161  1  0  0  0
 85162  1  0  0  0
 85163  1  0  0  0
 86164  1  0  0  0
 86165  1  0  0  0
 86166  1  0  0  0
 88167  1  0  0  0
M  ISO  4   1 100  68 101  84 101  88 100
M  END
> <chiral flag>
0

> <version>
0

> <s_m_source_file>
/data/baiqing/PycharmProjects/Reinvent-master-3.2/result/LINK_invent/BTK/process_docking_weight1_custom_product_contain_oxygen_bond_distance_aromatic_linkinvent_7_9_3/rearranged_h_0044.sdf

> <i_m_source_file_index>
50

> <r_mmod_Potential_Energy-OPLS-2005>
511.95849609375

> <r_mmod_Stretch_Energy-OPLS-2005>
245.294143676758

> <r_mmod_Bend_Energy-OPLS-2005>
265.472808837891

> <r_mmod_Torsional_Energy-OPLS-2005>
277.886444091797

> <r_mmod_Improper_Torsional_Energy-OPLS-2005>
5.90103769302368

> <r_mmod_Van_der_Waal_Energy-OPLS-2005>
144.972793579102

> <r_mmod_Electrostatic_Energy-OPLS-2005>
-421.049102783203

> <r_mmod_Solvation_Energy-OPLS-2005>
-200.459625244141

> <b_mmod_Minimization_Converged-OPLS-2005>
0

> <r_mmod_RMS_Derivative-OPLS-2005>
3.34581732749939

$$$$
50
                    3D
 Structure written by MMmdl.
163172  0  0  1  0            999 V2000
  -30.5090  -14.9391   20.4337 C   0  0  0  0  0  0
  -30.4557  -12.5843   19.4910 C   0  0  0  0  0  0
  -29.5296  -12.5225   18.2523 C   0  0  0  0  0  0
  -28.0613  -12.3067   18.6730 C   0  0  0  0  0  0
  -27.6330  -13.2389   19.8356 C   0  0  2  0  0  0
  -28.6746  -13.2446   20.9744 C   0  0  0  0  0  0
  -25.2479  -13.8190   20.5695 C   0  0  0  0  0  0
  -24.1781  -13.0427   20.9222 C   0  0  0  0  0  0
  -24.6396  -11.6911   20.8747 C   0  0  0  0  0  0
  -23.9071  -10.4287   21.0399 C   0  0  0  0  0  0
  -24.3620   -9.4197   21.9172 C   0  0  0  0  0  0
  -23.6298   -8.2237   22.0746 C   0  0  0  0  0  0
  -22.4284   -8.0279   21.3533 C   0  0  0  0  0  0
  -21.9915   -9.0258   20.4639 C   0  0  0  0  0  0
  -22.7245  -10.2133   20.3046 C   0  0  0  0  0  0
  -21.6857   -6.0737   22.5279 C   0  0  0  0  0  0
  -21.4017   -6.5633   23.8214 C   0  0  0  0  0  0
  -21.3664   -5.6783   24.9171 C   0  0  0  0  0  0
  -21.6051   -4.3050   24.7217 C   0  0  0  0  0  0
  -21.8815   -3.8145   23.4340 C   0  0  0  0  0  0
  -21.9190   -4.6963   22.3400 C   0  0  0  0  0  0
  -22.7799  -13.5211   21.1864 C   0  0  0  0  0  0
  -22.1651   -4.2154   21.0973 F   0  0  0  0  0  0
  -21.5631   -3.4523   25.7725 F   0  0  0  0  0  0
  -29.9521  -13.6645   20.3824 N   0  0  0  0  0  0
  -26.2893  -12.9415   20.3209 N   0  0  0  0  0  0
  -25.9321  -11.6554   20.5710 N   0  0  0  0  0  0
  -22.0434  -12.8232   22.0432 N   0  0  0  0  0  0
  -25.4152  -15.1918   20.4135 N   0  0  0  0  0  0
  -31.7165  -15.0485   20.1872 O   0  0  0  0  0  0
  -21.6649   -6.8878   21.4238 O   0  0  0  0  0  0
  -22.3499  -14.5523   20.6699 O   0  0  0  0  0  0
  -24.6400  -31.8451   23.1876 C   0  0  0  0  0  0
  -25.9170  -32.4707   23.8264 C   0  0  1  0  0  0
  -27.2245  -27.1490   20.1729 C   0  0  0  0  0  0
  -25.5916  -33.8510   24.2179 N   0  0  0  0  0  0
  -23.4443  -30.4608   21.5337 C   0  0  2  0  0  0
  -24.8946  -28.8770   20.1262 C   0  0  0  0  0  0
  -22.7548  -29.4543   22.4879 C   0  0  0  0  0  0
  -18.0294  -28.1393   22.8487 C   0  0  0  0  0  0
  -24.1493  -36.7273   23.2648 C   0  0  0  0  0  0
  -25.9970  -30.7259   21.3817 C   0  0  0  0  0  0
  -26.0715  -29.3317   20.7368 C   0  0  0  0  0  0
  -27.2417  -28.4856   20.7346 C   0  0  0  0  0  0
  -26.0216  -26.7797   19.5409 C   0  0  0  0  0  0
  -24.8804  -27.6127   19.5153 C   0  0  0  0  0  0
  -23.6711  -29.7793   20.1577 C   0  0  0  0  0  0
  -25.4126  -36.3043   24.0316 C   0  0  1  0  0  0
  -20.5907  -28.3710   23.1250 C   0  0  2  0  0  0
  -20.6777  -26.9415   22.5413 C   0  0  0  0  0  0
  -19.5750  -26.6380   21.5221 C   0  0  0  0  0  0
  -18.1932  -26.7931   22.1633 C   0  0  0  0  0  0
  -19.1554  -28.8867   23.2863 C   0  0  0  0  0  0
  -18.9471  -30.1469   23.8887 C   0  0  0  0  0  0
  -17.6472  -30.6596   24.0558 C   0  0  0  0  0  0
  -25.9071  -34.9415   23.5071 C   0  0  0  0  0  0
  -16.5360  -29.9093   23.6331 C   0  0  0  0  0  0
  -16.7282  -28.6504   23.0360 C   0  0  0  0  0  0
  -26.4477  -31.6573   25.0706 C   0  0  0  0  0  0
  -25.3656  -31.3780   26.1404 C   0  0  0  0  0  0
  -27.0334  -30.2969   24.6284 C   0  0  0  0  0  0
  -27.6019  -32.4328   25.7493 C   0  0  0  0  0  0
  -27.5577  -37.1794   24.8459 C   0  0  0  0  0  0
  -21.4243  -29.3045   22.3626 N   0  0  0  0  0  0
  -26.4286  -37.3755   23.9406 N   0  0  0  0  0  0
  -24.7134  -31.0326   22.0897 N   0  0  0  0  0  0
  -23.4194  -28.8110   23.3038 O   0  0  0  0  0  0
  -28.3193  -26.2266   20.0848 O   0  0  0  0  0  0
  -26.5676  -34.8907   22.4665 O   0  0  0  0  0  0
  -23.5518  -32.1319   23.7099 O   0  0  0  0  0  0
  -28.8422  -19.8995   19.7528 C   0  0  0  0  0  0
  -30.3441  -18.3749   21.5162 C   0  0  0  0  0  0
  -28.9197  -18.4388   19.6485 C   0  0  0  0  0  0
  -30.2277  -19.8189   21.6574 C   0  0  0  0  0  0
  -29.5038  -20.7041   20.7439 C   0  0  0  0  0  0
  -29.7063  -17.5885   20.5146 C   0  0  0  0  0  0
  -30.5824  -22.8743   21.3843 C   0  0  0  0  0  0
  -31.8537  -22.6414   21.0074 C   0  0  0  0  0  0
  -30.2295  -23.9498   22.3931 C   0  0  0  0  0  0
  -29.6460  -25.1683   21.6775 C   0  0  0  0  0  0
  -28.6085  -23.2943   20.1341 C   0  0  0  0  0  0
  -28.4231  -24.8545   20.7958 C   0  0  2  0  0  0
  -28.0972  -17.7778   18.5575 C   0  0  0  0  0  0
  -30.8841  -20.3429   22.9288 C   0  0  0  0  0  0
  -29.4868  -22.2109   20.8410 N   0  0  0  0  0  0
  -29.6347  -16.0540   20.5234 N   0  0  0  0  0  0
  -31.4853  -12.7652   19.1785 H   0  0  0  0  0  0
  -30.4673  -11.6309   20.0187 H   0  0  0  0  0  0
  -29.8526  -11.7242   17.5824 H   0  0  0  0  0  0
  -29.6149  -13.4524   17.6872 H   0  0  0  0  0  0
  -27.9610  -11.2660   18.9845 H   0  0  0  0  0  0
  -27.3989  -12.4316   17.8167 H   0  0  0  0  0  0
  -27.6020  -14.2422   19.4090 H   0  0  0  0  0  0
  -28.7594  -12.2590   21.4352 H   0  0  0  0  0  0
  -28.3741  -13.9281   21.7697 H   0  0  0  0  0  0
  -25.2756   -9.5689   22.4749 H   0  0  0  0  0  0
  -24.0003   -7.4637   22.7485 H   0  0  0  0  0  0
  -21.0832   -8.8796   19.8960 H   0  0  0  0  0  0
  -22.3703  -10.9677   19.6168 H   0  0  0  0  0  0
  -21.2013   -7.6145   23.9718 H   0  0  0  0  0  0
  -21.1490   -6.0507   25.9075 H   0  0  0  0  0  0
  -22.0592   -2.7607   23.2831 H   0  0  0  0  0  0
  -22.4037  -11.9928   22.4895 H   0  0  0  0  0  0
  -21.1049  -13.1273   22.2592 H   0  0  0  0  0  0
  -24.6478  -15.8412   20.5422 H   0  0  0  0  0  0
  -26.2486  -15.6349   20.0522 H   0  0  0  0  0  0
  -26.7242  -32.5329   23.1003 H   0  0  0  0  0  0
  -24.9943  -33.9614   25.0239 H   0  0  0  0  0  0
  -22.7473  -31.2859   21.3735 H   0  0  0  0  0  0
  -23.3746  -35.9611   23.3293 H   0  0  0  0  0  0
  -24.3576  -36.8928   22.2066 H   0  0  0  0  0  0
  -23.7245  -37.6469   23.6692 H   0  0  0  0  0  0
  -26.1439  -31.4750   20.6017 H   0  0  0  0  0  0
  -26.8709  -30.7859   22.0193 H   0  0  0  0  0  0
  -28.1522  -28.8421   21.1966 H   0  0  0  0  0  0
  -25.9634  -25.8120   19.0634 H   0  0  0  0  0  0
  -23.9824  -27.2570   19.0301 H   0  0  0  0  0  0
  -23.8084  -30.5462   19.3941 H   0  0  0  0  0  0
  -22.7866  -29.2167   19.8523 H   0  0  0  0  0  0
  -25.1311  -36.1879   25.0804 H   0  0  0  0  0  0
  -21.0000  -28.3304   24.1373 H   0  0  0  0  0  0
  -20.5671  -26.2326   23.3635 H   0  0  0  0  0  0
  -21.6643  -26.7427   22.1214 H   0  0  0  0  0  0
  -19.6908  -25.6291   21.1260 H   0  0  0  0  0  0
  -19.6685  -27.3182   20.6746 H   0  0  0  0  0  0
  -17.4203  -26.6683   21.4035 H   0  0  0  0  0  0
  -18.0325  -26.0080   22.9033 H   0  0  0  0  0  0
  -19.7951  -30.7279   24.2256 H   0  0  0  0  0  0
  -17.5029  -31.6276   24.5164 H   0  0  0  0  0  0
  -15.5360  -30.2991   23.7662 H   0  0  0  0  0  0
  -15.8681  -28.0818   22.7085 H   0  0  0  0  0  0
  -24.5820  -30.7148   25.7715 H   0  0  0  0  0  0
  -24.8849  -32.2974   26.4768 H   0  0  0  0  0  0
  -25.7916  -30.8981   27.0225 H   0  0  0  0  0  0
  -26.2946  -29.6715   24.1260 H   0  0  0  0  0  0
  -27.3903  -29.7250   25.4859 H   0  0  0  0  0  0
  -27.8864  -30.4199   23.9611 H   0  0  0  0  0  0
  -27.2610  -33.3634   26.2043 H   0  0  0  0  0  0
  -28.3835  -32.6891   25.0328 H   0  0  0  0  0  0
  -28.0673  -31.8473   26.5435 H   0  0  0  0  0  0
  -28.2588  -38.0094   24.7497 H   0  0  0  0  0  0
  -28.1072  -36.2627   24.6282 H   0  0  0  0  0  0
  -27.2295  -37.1433   25.8860 H   0  0  0  0  0  0
  -20.9455  -29.8734   21.6785 H   0  0  0  0  0  0
  -26.0157  -38.2829   24.1399 H   0  0  0  0  0  0
  -28.2364  -20.4248   19.0297 H   0  0  0  0  0  0
  -30.9029  -17.8351   22.2679 H   0  0  0  0  0  0
  -32.6806  -23.1949   21.4293 H   0  0  0  0  0  0
  -32.0916  -21.8913   20.2678 H   0  0  0  0  0  0
  -31.1122  -24.2362   22.9702 H   0  0  0  0  0  0
  -29.5083  -23.5551   23.1111 H   0  0  0  0  0  0
  -30.4309  -25.5902   21.0484 H   0  0  0  0  0  0
  -29.3933  -25.9402   22.4059 H   0  0  0  0  0  0
  -29.0303  -23.4162   19.1359 H   0  0  0  0  0  0
  -27.6186  -22.8685   19.9668 H   0  0  0  0  0  0
  -27.5637  -24.7828   21.4636 H   0  0  0  0  0  0
  -27.8622  -18.4774   17.7546 H   0  0  0  0  0  0
  -27.1571  -17.4108   18.9670 H   0  0  0  0  0  0
  -28.6288  -16.9339   18.1165 H   0  0  0  0  0  0
  -30.9009  -19.5794   23.7068 H   0  0  0  0  0  0
  -30.3385  -21.1850   23.3508 H   0  0  0  0  0  0
  -31.9174  -20.6323   22.7407 H   0  0  0  0  0  0
  -28.6831  -15.7229   20.5613 H   0  0  0  0  0  0
  1 25  1  0  0  0
  1 30  2  0  0  0
  1 86  1  0  0  0
  2  3  1  0  0  0
  2 25  1  0  0  0
  2 87  1  0  0  0
  2 88  1  0  0  0
  3  4  1  0  0  0
  3 89  1  0  0  0
  3 90  1  0  0  0
  4  5  1  0  0  0
  4 91  1  0  0  0
  4 92  1  0  0  0
  5  6  1  0  0  0
  5 26  1  0  0  0
  5 93  1  0  0  0
  6 25  1  0  0  0
  6 94  1  0  0  0
  6 95  1  0  0  0
  7  8  2  0  0  0
  7 26  1  0  0  0
  7 29  1  0  0  0
  8  9  1  0  0  0
  8 22  1  0  0  0
  9 10  1  0  0  0
  9 27  2  0  0  0
 10 11  2  0  0  0
 10 15  1  0  0  0
 11 12  1  0  0  0
 11 96  1  0  0  0
 12 13  2  0  0  0
 12 97  1  0  0  0
 13 14  1  0  0  0
 13 31  1  0  0  0
 14 15  2  0  0  0
 14 98  1  0  0  0
 15 99  1  0  0  0
 16 17  2  0  0  0
 16 21  1  0  0  0
 16 31  1  0  0  0
 17 18  1  0  0  0
 17100  1  0  0  0
 18 19  2  0  0  0
 18101  1  0  0  0
 19 20  1  0  0  0
 19 24  1  0  0  0
 20 21  2  0  0  0
 20102  1  0  0  0
 21 23  1  0  0  0
 22 28  1  0  0  0
 22 32  2  0  0  0
 26 27  1  0  0  0
 28103  1  0  0  0
 28104  1  0  0  0
 29105  1  0  0  0
 29106  1  0  0  0
 33 34  1  0  0  0
 33 66  1  0  0  0
 33 70  2  0  0  0
 34 36  1  0  0  0
 34 59  1  0  0  0
 34107  1  0  0  0
 35 44  2  0  0  0
 35 45  1  0  0  0
 35 68  1  0  0  0
 36 56  1  0  0  0
 36108  1  0  0  0
 37 39  1  0  0  0
 37 47  1  0  0  0
 37 66  1  0  0  0
 37109  1  0  0  0
 38 43  2  0  0  0
 38 46  1  0  0  0
 38 47  1  0  0  0
 39 64  1  0  0  0
 39 67  2  0  0  0
 40 52  1  0  0  0
 40 53  2  0  0  0
 40 58  1  0  0  0
 41110  1  0  0  0
 41111  1  0  0  0
 41112  1  0  0  0
 41 48  1  0  0  0
 42 43  1  0  0  0
 42 66  1  0  0  0
 42113  1  0  0  0
 42114  1  0  0  0
 43 44  1  0  0  0
 44115  1  0  0  0
 45 46  2  0  0  0
 45116  1  0  0  0
 46117  1  0  0  0
 47118  1  0  0  0
 47119  1  0  0  0
 48 56  1  0  0  0
 48 65  1  0  0  0
 48120  1  0  0  0
 49 50  1  0  0  0
 49 53  1  0  0  0
 49 64  1  0  0  0
 49121  1  0  0  0
 50 51  1  0  0  0
 50122  1  0  0  0
 50123  1  0  0  0
 51 52  1  0  0  0
 51124  1  0  0  0
 51125  1  0  0  0
 52126  1  0  0  0
 52127  1  0  0  0
 53 54  1  0  0  0
 54 55  2  0  0  0
 54128  1  0  0  0
 55 57  1  0  0  0
 55129  1  0  0  0
 56 69  2  0  0  0
 57 58  2  0  0  0
 57130  1  0  0  0
 58131  1  0  0  0
 59 60  1  0  0  0
 59 61  1  0  0  0
 59 62  1  0  0  0
 60132  1  0  0  0
 60133  1  0  0  0
 60134  1  0  0  0
 61135  1  0  0  0
 61136  1  0  0  0
 61137  1  0  0  0
 62138  1  0  0  0
 62139  1  0  0  0
 62140  1  0  0  0
 63 65  1  0  0  0
 63141  1  0  0  0
 63142  1  0  0  0
 63143  1  0  0  0
 64144  1  0  0  0
 65145  1  0  0  0
 68 82  1  0  0  0
 71 73  2  0  0  0
 71 75  1  0  0  0
 71146  1  0  0  0
 72 74  1  0  0  0
 72 76  2  0  0  0
 72147  1  0  0  0
 73 76  1  0  0  0
 73 83  1  0  0  0
 74 75  2  0  0  0
 74 84  1  0  0  0
 75 85  1  0  0  0
 76 86  1  0  0  0
 77 78  2  0  0  0
 77 79  1  0  0  0
 77 85  1  0  0  0
 78148  1  0  0  0
 78149  1  0  0  0
 79 80  1  0  0  0
 79150  1  0  0  0
 79151  1  0  0  0
 80 82  1  0  0  0
 80152  1  0  0  0
 80153  1  0  0  0
 81 82  1  0  0  0
 81 85  1  0  0  0
 81154  1  0  0  0
 81155  1  0  0  0
 82156  1  0  0  0
 83157  1  0  0  0
 83158  1  0  0  0
 83159  1  0  0  0
 84160  1  0  0  0
 84161  1  0  0  0
 84162  1  0  0  0
 86163  1  0  0  0
M  ISO  4   1 100  68 101  82 101  86 100
M  END
> <chiral flag>
0

> <version>
0

> <s_m_source_file>
/data/baiqing/PycharmProjects/Reinvent-master-3.2/result/LINK_invent/BTK/process_docking_weight1_custom_product_contain_oxygen_bond_distance_aromatic_linkinvent_7_9_3/rearranged_h_0044.sdf

> <i_m_source_file_index>
51

> <r_mmod_Potential_Energy-OPLS-2005>
531.472290039062

> <r_mmod_Stretch_Energy-OPLS-2005>
239.141952514648

> <r_mmod_Bend_Energy-OPLS-2005>
294.091735839844

> <r_mmod_Torsional_Energy-OPLS-2005>
304.529754638672

> <r_mmod_Improper_Torsional_Energy-OPLS-2005>
8.12836360931396

> <r_mmod_Van_der_Waal_Energy-OPLS-2005>
140.288482666016

> <r_mmod_Electrostatic_Energy-OPLS-2005>
-425.390869140625

> <r_mmod_Solvation_Energy-OPLS-2005>
-206.358947753906

> <b_mmod_Minimization_Converged-OPLS-2005>
0

> <r_mmod_RMS_Derivative-OPLS-2005>
2.22202634811401

$$$$
51
                    3D
 Structure written by MMmdl.
160168  0  0  1  0            999 V2000
  -30.6419  -14.7468   20.4714 C   0  0  0  0  0  0
  -30.4111  -12.4656   19.4631 C   0  0  0  0  0  0
  -29.5115  -12.5468   18.2145 C   0  0  0  0  0  0
  -28.0331  -12.3739   18.6123 C   0  0  0  0  0  0
  -27.6341  -13.2495   19.8350 C   0  0  2  0  0  0
  -28.6754  -13.1912   20.9723 C   0  0  0  0  0  0
  -25.2456  -13.8218   20.5652 C   0  0  0  0  0  0
  -24.1786  -13.0446   20.9203 C   0  0  0  0  0  0
  -24.6419  -11.6928   20.8698 C   0  0  0  0  0  0
  -23.9099  -10.4291   21.0361 C   0  0  0  0  0  0
  -24.3651   -9.4246   21.9138 C   0  0  0  0  0  0
  -23.6339   -8.2281   22.0731 C   0  0  0  0  0  0
  -22.4342   -8.0288   21.3498 C   0  0  0  0  0  0
  -21.9944   -9.0270   20.4646 C   0  0  0  0  0  0
  -22.7271  -10.2142   20.3032 C   0  0  0  0  0  0
  -21.6895   -6.0776   22.5288 C   0  0  0  0  0  0
  -21.4067   -6.5667   23.8219 C   0  0  0  0  0  0
  -21.3647   -5.6798   24.9158 C   0  0  0  0  0  0
  -21.6039   -4.3059   24.7197 C   0  0  0  0  0  0
  -21.8804   -3.8172   23.4312 C   0  0  0  0  0  0
  -21.9195   -4.7007   22.3397 C   0  0  0  0  0  0
  -22.7792  -13.5199   21.1837 C   0  0  0  0  0  0
  -22.1651   -4.2221   21.0955 F   0  0  0  0  0  0
  -21.5582   -3.4503   25.7673 F   0  0  0  0  0  0
  -29.9729  -13.5421   20.3858 N   0  0  0  0  0  0
  -26.2898  -12.9475   20.3153 N   0  0  0  0  0  0
  -25.9340  -11.6595   20.5638 N   0  0  0  0  0  0
  -22.0418  -12.8242   22.0412 N   0  0  0  0  0  0
  -25.4021  -15.1953   20.4125 N   0  0  0  0  0  0
  -31.8071  -14.7983   20.0657 O   0  0  0  0  0  0
  -21.6670   -6.8931   21.4248 O   0  0  0  0  0  0
  -22.3484  -14.5475   20.6614 O   0  0  0  0  0  0
  -24.6373  -31.8515   23.1960 C   0  0  0  0  0  0
  -25.9187  -32.4726   23.8364 C   0  0  1  0  0  0
  -27.1986  -27.1955   20.1412 C   0  0  0  0  0  0
  -25.5944  -33.8540   24.2229 N   0  0  0  0  0  0
  -23.4351  -30.4754   21.5401 C   0  0  2  0  0  0
  -24.8766  -28.9040   20.1124 C   0  0  0  0  0  0
  -22.7521  -29.4625   22.4886 C   0  0  0  0  0  0
  -18.0311  -28.1435   22.8461 C   0  0  0  0  0  0
  -24.1469  -36.7266   23.2643 C   0  0  0  0  0  0
  -25.9879  -30.7299   21.3949 C   0  0  0  0  0  0
  -26.0506  -29.3495   20.7347 C   0  0  0  0  0  0
  -27.2147  -28.5072   20.7380 C   0  0  0  0  0  0
  -26.0081  -26.8325   19.4790 C   0  0  0  0  0  0
  -24.8649  -27.6557   19.4703 C   0  0  0  0  0  0
  -23.6559  -29.8065   20.1567 C   0  0  0  0  0  0
  -25.4104  -36.3060   24.0324 C   0  0  1  0  0  0
  -20.5913  -28.3755   23.1199 C   0  0  2  0  0  0
  -20.6788  -26.9464   22.5379 C   0  0  0  0  0  0
  -19.5772  -26.6393   21.5188 C   0  0  0  0  0  0
  -18.1956  -26.7968   22.1610 C   0  0  0  0  0  0
  -19.1576  -28.8914   23.2827 C   0  0  0  0  0  0
  -18.9485  -30.1492   23.8869 C   0  0  0  0  0  0
  -17.6491  -30.6613   24.0566 C   0  0  0  0  0  0
  -25.9053  -34.9435   23.5104 C   0  0  0  0  0  0
  -16.5372  -29.9105   23.6352 C   0  0  0  0  0  0
  -16.7302  -28.6533   23.0356 C   0  0  0  0  0  0
  -26.4493  -31.6622   25.0823 C   0  0  0  0  0  0
  -25.3627  -31.3835   26.1482 C   0  0  0  0  0  0
  -27.0386  -30.3026   24.6454 C   0  0  0  0  0  0
  -27.6046  -32.4376   25.7591 C   0  0  0  0  0  0
  -27.5580  -37.1781   24.8454 C   0  0  0  0  0  0
  -21.4230  -29.3085   22.3588 N   0  0  0  0  0  0
  -26.4273  -37.3762   23.9424 N   0  0  0  0  0  0
  -24.7065  -31.0397   22.0977 N   0  0  0  0  0  0
  -23.4179  -28.8167   23.3014 O   0  0  0  0  0  0
  -28.2717  -26.2615   20.1593 O   0  0  0  0  0  0
  -26.5661  -34.8915   22.4676 O   0  0  0  0  0  0
  -23.5510  -32.1401   23.7178 O   0  0  0  0  0  0
  -32.1664  -19.2434   22.6832 C   0  0  0  0  0  0
  -32.4482  -17.9131   22.9491 C   0  0  0  0  0  0
  -31.0666  -19.5595   21.8867 C   0  0  0  0  0  0
  -31.6549  -16.8840   22.4181 C   0  0  0  0  0  0
  -30.2581  -18.5901   21.2432 C   0  0  0  0  0  0
  -30.5995  -17.1443   21.4586 C   0  0  0  0  0  0
  -28.5554  -21.9775   20.4442 C   0  0  0  0  0  0
  -32.0250  -15.5243   23.0187 C   0  0  0  0  0  0
  -30.2952  -20.9568   18.9842 C   0  0  0  0  0  0
  -29.0807  -19.3409   20.4573 C   0  0  0  0  0  0
  -28.7783  -23.4878   19.8774 C   0  0  0  0  0  0
  -28.0267  -24.7997   20.5440 C   0  0  0  0  0  0
  -29.9911  -15.9164   20.8652 N   0  0  0  0  0  0
  -29.2538  -20.8310   20.0160 N   0  0  0  0  0  0
  -27.6862  -21.8480   21.3103 O   0  0  0  0  0  0
  -31.4628  -12.5474   19.1818 H   0  0  0  0  0  0
  -30.3155  -11.4885   19.9419 H   0  0  0  0  0  0
  -29.8087  -11.7963   17.4784 H   0  0  0  0  0  0
  -29.6494  -13.5167   17.7299 H   0  0  0  0  0  0
  -27.8695  -11.3185   18.8364 H   0  0  0  0  0  0
  -27.3919  -12.6050   17.7603 H   0  0  0  0  0  0
  -27.6259  -14.2766   19.4680 H   0  0  0  0  0  0
  -28.7044  -12.1966   21.4218 H   0  0  0  0  0  0
  -28.4069  -13.8892   21.7666 H   0  0  0  0  0  0
  -25.2789   -9.5749   22.4693 H   0  0  0  0  0  0
  -24.0068   -7.4693   22.7451 H   0  0  0  0  0  0
  -21.0860   -8.8777   19.8975 H   0  0  0  0  0  0
  -22.3706  -10.9653   19.6112 H   0  0  0  0  0  0
  -21.2127   -7.6191   23.9758 H   0  0  0  0  0  0
  -21.1449   -6.0503   25.9053 H   0  0  0  0  0  0
  -22.0599   -2.7656   23.2764 H   0  0  0  0  0  0
  -22.4016  -12.0037   22.5021 H   0  0  0  0  0  0
  -21.0971  -13.1203   22.2432 H   0  0  0  0  0  0
  -24.6153  -15.8275   20.5297 H   0  0  0  0  0  0
  -26.2350  -15.6477   20.0598 H   0  0  0  0  0  0
  -26.7240  -32.5294   23.1080 H   0  0  0  0  0  0
  -25.0057  -33.9663   25.0356 H   0  0  0  0  0  0
  -22.7389  -31.3031   21.3921 H   0  0  0  0  0  0
  -23.3766  -35.9566   23.3266 H   0  0  0  0  0  0
  -24.3553  -36.8940   22.2068 H   0  0  0  0  0  0
  -23.7162  -37.6427   23.6696 H   0  0  0  0  0  0
  -26.1466  -31.4839   20.6240 H   0  0  0  0  0  0
  -26.8570  -30.7667   22.0405 H   0  0  0  0  0  0
  -28.1091  -28.8367   21.2475 H   0  0  0  0  0  0
  -25.9472  -25.8820   18.9678 H   0  0  0  0  0  0
  -23.9722  -27.3126   18.9646 H   0  0  0  0  0  0
  -23.7879  -30.5829   19.4012 H   0  0  0  0  0  0
  -22.7654  -29.2529   19.8502 H   0  0  0  0  0  0
  -25.1265  -36.1933   25.0816 H   0  0  0  0  0  0
  -21.0009  -28.3371   24.1313 H   0  0  0  0  0  0
  -20.5657  -26.2407   23.3620 H   0  0  0  0  0  0
  -21.6664  -26.7463   22.1200 H   0  0  0  0  0  0
  -19.6941  -25.6271   21.1296 H   0  0  0  0  0  0
  -19.6724  -27.3127   20.6657 H   0  0  0  0  0  0
  -17.4220  -26.6686   21.4018 H   0  0  0  0  0  0
  -18.0391  -26.0113   22.9023 H   0  0  0  0  0  0
  -19.7958  -30.7323   24.2206 H   0  0  0  0  0  0
  -17.5048  -31.6286   24.5202 H   0  0  0  0  0  0
  -15.5375  -30.3016   23.7689 H   0  0  0  0  0  0
  -15.8693  -28.0846   22.7082 H   0  0  0  0  0  0
  -24.5785  -30.7233   25.7746 H   0  0  0  0  0  0
  -24.8825  -32.3039   26.4839 H   0  0  0  0  0  0
  -25.7827  -30.9015   27.0320 H   0  0  0  0  0  0
  -26.3067  -29.6742   24.1377 H   0  0  0  0  0  0
  -27.3887  -29.7340   25.5079 H   0  0  0  0  0  0
  -27.9008  -30.4271   23.9893 H   0  0  0  0  0  0
  -27.2688  -33.3687   26.2168 H   0  0  0  0  0  0
  -28.3872  -32.6928   25.0426 H   0  0  0  0  0  0
  -28.0738  -31.8524   26.5507 H   0  0  0  0  0  0
  -28.2558  -38.0116   24.7553 H   0  0  0  0  0  0
  -28.1113  -36.2650   24.6205 H   0  0  0  0  0  0
  -27.2321  -37.1342   25.8858 H   0  0  0  0  0  0
  -20.9460  -29.8815   21.6769 H   0  0  0  0  0  0
  -26.0168  -38.2844   24.1432 H   0  0  0  0  0  0
  -32.7587  -20.0282   23.1306 H   0  0  0  0  0  0
  -33.2726  -17.6751   23.6065 H   0  0  0  0  0  0
  -30.8527  -20.6111   21.7934 H   0  0  0  0  0  0
  -32.9370  -15.1376   22.5575 H   0  0  0  0  0  0
  -31.2528  -14.7636   22.9757 H   0  0  0  0  0  0
  -32.2347  -15.6466   24.0822 H   0  0  0  0  0  0
  -29.9430  -21.5019   18.1107 H   0  0  0  0  0  0
  -30.6218  -19.9824   18.6180 H   0  0  0  0  0  0
  -31.1824  -21.4560   19.3780 H   0  0  0  0  0  0
  -28.2012  -19.2945   21.1047 H   0  0  0  0  0  0
  -28.8224  -18.7445   19.5815 H   0  0  0  0  0  0
  -28.5024  -23.4608   18.8219 H   0  0  0  0  0  0
  -29.8559  -23.6606   19.8935 H   0  0  0  0  0  0
  -28.2687  -24.7570   21.6085 H   0  0  0  0  0  0
  -26.9531  -24.6066   20.5321 H   0  0  0  0  0  0
  -28.9819  -15.8771   20.8615 H   0  0  0  0  0  0
  1 25  1  0  0  0
  1 30  2  0  0  0
  1 83  1  0  0  0
  2  3  1  0  0  0
  2 25  1  0  0  0
  2 86  1  0  0  0
  2 87  1  0  0  0
  3  4  1  0  0  0
  3 88  1  0  0  0
  3 89  1  0  0  0
  4  5  1  0  0  0
  4 90  1  0  0  0
  4 91  1  0  0  0
  5  6  1  0  0  0
  5 26  1  0  0  0
  5 92  1  0  0  0
  6 25  1  0  0  0
  6 93  1  0  0  0
  6 94  1  0  0  0
  7  8  2  0  0  0
  7 26  1  0  0  0
  7 29  1  0  0  0
  8  9  1  0  0  0
  8 22  1  0  0  0
  9 10  1  0  0  0
  9 27  2  0  0  0
 10 11  2  0  0  0
 10 15  1  0  0  0
 11 12  1  0  0  0
 11 95  1  0  0  0
 12 13  2  0  0  0
 12 96  1  0  0  0
 13 14  1  0  0  0
 13 31  1  0  0  0
 14 15  2  0  0  0
 14 97  1  0  0  0
 15 98  1  0  0  0
 16 17  2  0  0  0
 16 21  1  0  0  0
 16 31  1  0  0  0
 17 18  1  0  0  0
 17 99  1  0  0  0
 18 19  2  0  0  0
 18100  1  0  0  0
 19 20  1  0  0  0
 19 24  1  0  0  0
 20 21  2  0  0  0
 20101  1  0  0  0
 21 23  1  0  0  0
 22 28  1  0  0  0
 22 32  2  0  0  0
 26 27  1  0  0  0
 28102  1  0  0  0
 28103  1  0  0  0
 29104  1  0  0  0
 29105  1  0  0  0
 33 34  1  0  0  0
 33 66  1  0  0  0
 33 70  2  0  0  0
 34 36  1  0  0  0
 34 59  1  0  0  0
 34106  1  0  0  0
 35 44  2  0  0  0
 35 45  1  0  0  0
 35 68  1  0  0  0
 36 56  1  0  0  0
 36107  1  0  0  0
 37 39  1  0  0  0
 37 47  1  0  0  0
 37 66  1  0  0  0
 37108  1  0  0  0
 38 43  2  0  0  0
 38 46  1  0  0  0
 38 47  1  0  0  0
 39 64  1  0  0  0
 39 67  2  0  0  0
 40 52  1  0  0  0
 40 53  2  0  0  0
 40 58  1  0  0  0
 41109  1  0  0  0
 41110  1  0  0  0
 41111  1  0  0  0
 41 48  1  0  0  0
 42 43  1  0  0  0
 42 66  1  0  0  0
 42112  1  0  0  0
 42113  1  0  0  0
 43 44  1  0  0  0
 44114  1  0  0  0
 45 46  2  0  0  0
 45115  1  0  0  0
 46116  1  0  0  0
 47117  1  0  0  0
 47118  1  0  0  0
 48 56  1  0  0  0
 48 65  1  0  0  0
 48119  1  0  0  0
 49 50  1  0  0  0
 49 53  1  0  0  0
 49 64  1  0  0  0
 49120  1  0  0  0
 50 51  1  0  0  0
 50121  1  0  0  0
 50122  1  0  0  0
 51 52  1  0  0  0
 51123  1  0  0  0
 51124  1  0  0  0
 52125  1  0  0  0
 52126  1  0  0  0
 53 54  1  0  0  0
 54 55  2  0  0  0
 54127  1  0  0  0
 55 57  1  0  0  0
 55128  1  0  0  0
 56 69  2  0  0  0
 57 58  2  0  0  0
 57129  1  0  0  0
 58130  1  0  0  0
 59 60  1  0  0  0
 59 61  1  0  0  0
 59 62  1  0  0  0
 60131  1  0  0  0
 60132  1  0  0  0
 60133  1  0  0  0
 61134  1  0  0  0
 61135  1  0  0  0
 61136  1  0  0  0
 62137  1  0  0  0
 62138  1  0  0  0
 62139  1  0  0  0
 63 65  1  0  0  0
 63140  1  0  0  0
 63141  1  0  0  0
 63142  1  0  0  0
 64143  1  0  0  0
 65144  1  0  0  0
 68 82  1  0  0  0
 71 72  2  0  0  0
 71 73  1  0  0  0
 71145  1  0  0  0
 72 74  1  0  0  0
 72146  1  0  0  0
 73 75  2  0  0  0
 73147  1  0  0  0
 74 76  2  0  0  0
 74 78  1  0  0  0
 75 76  1  0  0  0
 75 80  1  0  0  0
 76 83  1  0  0  0
 77 81  1  0  0  0
 77 84  1  0  0  0
 77 85  2  0  0  0
 78148  1  0  0  0
 78149  1  0  0  0
 78150  1  0  0  0
 79 84  1  0  0  0
 79151  1  0  0  0
 79152  1  0  0  0
 79153  1  0  0  0
 80 84  1  0  0  0
 80154  1  0  0  0
 80155  1  0  0  0
 81 82  1  0  0  0
 81156  1  0  0  0
 81157  1  0  0  0
 82158  1  0  0  0
 82159  1  0  0  0
 83160  1  0  0  0
M  ISO  4   1 100  68 101  82 101  83 100
M  END
> <chiral flag>
0

> <version>
0

> <s_m_source_file>
/data/baiqing/PycharmProjects/Reinvent-master-3.2/result/LINK_invent/BTK/process_docking_weight1_custom_product_contain_oxygen_bond_distance_aromatic_linkinvent_7_9_3/rearranged_h_0044.sdf

> <i_m_source_file_index>
52

> <r_mmod_Potential_Energy-OPLS-2005>
302.986968994141

> <r_mmod_Stretch_Energy-OPLS-2005>
186.726181030273

> <r_mmod_Bend_Energy-OPLS-2005>
228.974090576172

> <r_mmod_Torsional_Energy-OPLS-2005>
254.480224609375

> <r_mmod_Improper_Torsional_Energy-OPLS-2005>
3.40893912315369

> <r_mmod_Van_der_Waal_Energy-OPLS-2005>
159.555572509766

> <r_mmod_Electrostatic_Energy-OPLS-2005>
-408.227020263672

> <r_mmod_Solvation_Energy-OPLS-2005>
-228.320983886719

> <b_mmod_Minimization_Converged-OPLS-2005>
0

> <r_mmod_RMS_Derivative-OPLS-2005>
6.93274259567261

$$$$
52
                    3D
 Structure written by MMmdl.
153161  0  0  1  0            999 V2000
  -30.6897  -14.5793   20.5863 C   0  0  0  0  0  0
  -30.4368  -12.3796   19.4650 C   0  0  0  0  0  0
  -29.5167  -12.5087   18.2298 C   0  0  0  0  0  0
  -28.0419  -12.3272   18.6369 C   0  0  0  0  0  0
  -27.6577  -13.2054   19.8553 C   0  0  2  0  0  0
  -28.6868  -13.0511   20.9901 C   0  0  0  0  0  0
  -25.2598  -13.8136   20.5639 C   0  0  0  0  0  0
  -24.1826  -13.0438   20.9123 C   0  0  0  0  0  0
  -24.6373  -11.6903   20.8664 C   0  0  0  0  0  0
  -23.9040  -10.4300   21.0377 C   0  0  0  0  0  0
  -24.3607   -9.4224   21.9163 C   0  0  0  0  0  0
  -23.6279   -8.2266   22.0761 C   0  0  0  0  0  0
  -22.4265   -8.0300   21.3548 C   0  0  0  0  0  0
  -21.9884   -9.0267   20.4657 C   0  0  0  0  0  0
  -22.7208  -10.2137   20.3039 C   0  0  0  0  0  0
  -21.6859   -6.0744   22.5293 C   0  0  0  0  0  0
  -21.4022   -6.5640   23.8232 C   0  0  0  0  0  0
  -21.3654   -5.6790   24.9187 C   0  0  0  0  0  0
  -21.6045   -4.3051   24.7238 C   0  0  0  0  0  0
  -21.8810   -3.8144   23.4360 C   0  0  0  0  0  0
  -21.9188   -4.6969   22.3416 C   0  0  0  0  0  0
  -22.7873  -13.5274   21.1796 C   0  0  0  0  0  0
  -22.1643   -4.2158   21.0989 F   0  0  0  0  0  0
  -21.5630   -3.4524   25.7745 F   0  0  0  0  0  0
  -30.0183  -13.3895   20.4610 N   0  0  0  0  0  0
  -26.3002  -12.9295   20.3200 N   0  0  0  0  0  0
  -25.9288  -11.6465   20.5658 N   0  0  0  0  0  0
  -22.0496  -12.8295   22.0379 N   0  0  0  0  0  0
  -25.4343  -15.1851   20.4132 N   0  0  0  0  0  0
  -31.7966  -14.7406   20.0610 O   0  0  0  0  0  0
  -21.6635   -6.8891   21.4260 O   0  0  0  0  0  0
  -22.3589  -14.5614   20.6685 O   0  0  0  0  0  0
  -24.6234  -31.8622   23.2048 C   0  0  0  0  0  0
  -25.9111  -32.4791   23.8365 C   0  0  1  0  0  0
  -27.2355  -27.3712   20.1171 C   0  0  0  0  0  0
  -25.5931  -33.8582   24.2306 N   0  0  0  0  0  0
  -23.4140  -30.4868   21.5443 C   0  0  2  0  0  0
  -24.8632  -28.9438   20.1127 C   0  0  0  0  0  0
  -22.7440  -29.4654   22.4942 C   0  0  0  0  0  0
  -18.0283  -28.1362   22.8506 C   0  0  0  0  0  0
  -24.1482  -36.7286   23.2638 C   0  0  0  0  0  0
  -25.9491  -30.8129   21.3642 C   0  0  0  0  0  0
  -26.0288  -29.4434   20.7084 C   0  0  0  0  0  0
  -27.2211  -28.6701   20.6965 C   0  0  0  0  0  0
  -26.0534  -26.9100   19.4985 C   0  0  0  0  0  0
  -24.8756  -27.6809   19.4959 C   0  0  0  0  0  0
  -23.6263  -29.8150   20.1617 C   0  0  0  0  0  0
  -25.4104  -36.3085   24.0341 C   0  0  1  0  0  0
  -20.5887  -28.3672   23.1266 C   0  0  2  0  0  0
  -20.6761  -26.9393   22.5404 C   0  0  0  0  0  0
  -19.5744  -26.6368   21.5199 C   0  0  0  0  0  0
  -18.1929  -26.7914   22.1625 C   0  0  0  0  0  0
  -19.1542  -28.8830   23.2881 C   0  0  0  0  0  0
  -18.9466  -30.1430   23.8904 C   0  0  0  0  0  0
  -17.6464  -30.6570   24.0559 C   0  0  0  0  0  0
  -25.9044  -34.9457   23.5114 C   0  0  0  0  0  0
  -16.5352  -29.9075   23.6315 C   0  0  0  0  0  0
  -16.7271  -28.6478   23.0368 C   0  0  0  0  0  0
  -26.4510  -31.6577   25.0707 C   0  0  0  0  0  0
  -25.3772  -31.3698   26.1459 C   0  0  0  0  0  0
  -27.0349  -30.3004   24.6131 C   0  0  0  0  0  0
  -27.6068  -32.4314   25.7473 C   0  0  0  0  0  0
  -27.5569  -37.1804   24.8475 C   0  0  0  0  0  0
  -21.4162  -29.3058   22.3692 N   0  0  0  0  0  0
  -26.4281  -37.3774   23.9422 N   0  0  0  0  0  0
  -24.6802  -31.0697   22.0957 N   0  0  0  0  0  0
  -23.4175  -28.8185   23.3002 O   0  0  0  0  0  0
  -28.3727  -26.5686   20.1249 O   0  0  0  0  0  0
  -26.5590  -34.8918   22.4673 O   0  0  0  0  0  0
  -23.5409  -32.1370   23.7425 O   0  0  0  0  0  0
  -29.0550  -16.8503   23.2470 C   0  0  0  0  0  0
  -29.5843  -15.7197   22.5957 C   0  0  0  0  0  0
  -29.0527  -18.1098   22.6244 C   0  0  0  0  0  0
  -30.0931  -17.1091   20.6680 C   0  0  0  0  0  0
  -30.0719  -15.8050   21.2741 C   0  0  0  0  0  0
  -29.5947  -18.2807   21.3297 C   0  0  0  0  0  0
  -29.2760  -22.8091   20.1640 C   0  0  0  0  0  0
  -29.0783  -24.1384   19.8878 C   0  0  0  0  0  0
  -28.6600  -22.0805   21.2815 C   0  0  0  0  0  0
  -29.6843  -19.7128   20.7072 C   0  0  0  0  0  0
  -28.2150  -25.1973   20.6154 C   0  0  0  0  0  0
  -28.8872  -20.7461   21.4172 N   0  0  0  0  0  0
  -27.9319  -22.6173   22.1151 O   0  0  0  0  0  0
  -31.4813  -12.4922   19.1699 H   0  0  0  0  0  0
  -30.3630  -11.3818   19.8997 H   0  0  0  0  0  0
  -29.7963  -11.7706   17.4775 H   0  0  0  0  0  0
  -29.6497  -13.4863   17.7628 H   0  0  0  0  0  0
  -27.8969  -11.2743   18.8873 H   0  0  0  0  0  0
  -27.3827  -12.5380   17.7960 H   0  0  0  0  0  0
  -27.6854  -14.2419   19.5180 H   0  0  0  0  0  0
  -28.6930  -12.0274   21.3662 H   0  0  0  0  0  0
  -28.3713  -13.6590   21.8295 H   0  0  0  0  0  0
  -25.2756   -9.5720   22.4705 H   0  0  0  0  0  0
  -24.0003   -7.4676   22.7474 H   0  0  0  0  0  0
  -21.0811   -8.8787   19.8961 H   0  0  0  0  0  0
  -22.3665  -10.9680   19.6142 H   0  0  0  0  0  0
  -21.2014   -7.6145   23.9749 H   0  0  0  0  0  0
  -21.1470   -6.0504   25.9095 H   0  0  0  0  0  0
  -22.0580   -2.7609   23.2852 H   0  0  0  0  0  0
  -22.4116  -12.0005   22.4834 H   0  0  0  0  0  0
  -21.1142  -13.1379   22.2570 H   0  0  0  0  0  0
  -24.6795  -15.8454   20.5656 H   0  0  0  0  0  0
  -26.3040  -15.6286   20.1441 H   0  0  0  0  0  0
  -26.7164  -32.5513   23.1100 H   0  0  0  0  0  0
  -25.0151  -33.9720   25.0498 H   0  0  0  0  0  0
  -22.7070  -31.3064   21.3979 H   0  0  0  0  0  0
  -23.3743  -35.9621   23.3321 H   0  0  0  0  0  0
  -24.3560  -36.8879   22.2043 H   0  0  0  0  0  0
  -23.7231  -37.6500   23.6627 H   0  0  0  0  0  0
  -26.0724  -31.5786   20.5982 H   0  0  0  0  0  0
  -26.8318  -30.8647   21.9911 H   0  0  0  0  0  0
  -28.1226  -29.0530   21.1531 H   0  0  0  0  0  0
  -26.0376  -25.9451   19.0112 H   0  0  0  0  0  0
  -23.9856  -27.2912   19.0203 H   0  0  0  0  0  0
  -23.7407  -30.5863   19.3997 H   0  0  0  0  0  0
  -22.7476  -29.2391   19.8650 H   0  0  0  0  0  0
  -25.1280  -36.1937   25.0827 H   0  0  0  0  0  0
  -20.9981  -28.3255   24.1378 H   0  0  0  0  0  0
  -20.5617  -26.2302   23.3619 H   0  0  0  0  0  0
  -21.6636  -26.7392   22.1232 H   0  0  0  0  0  0
  -19.6904  -25.6275   21.1233 H   0  0  0  0  0  0
  -19.6668  -27.3165   20.6720 H   0  0  0  0  0  0
  -17.4190  -26.6658   21.4030 H   0  0  0  0  0  0
  -18.0328  -26.0038   22.9005 H   0  0  0  0  0  0
  -19.7944  -30.7238   24.2295 H   0  0  0  0  0  0
  -17.5024  -31.6264   24.5151 H   0  0  0  0  0  0
  -15.5360  -30.2983   23.7624 H   0  0  0  0  0  0
  -15.8678  -28.0780   22.7105 H   0  0  0  0  0  0
  -24.5920  -30.7074   25.7791 H   0  0  0  0  0  0
  -24.9007  -32.2868   26.4932 H   0  0  0  0  0  0
  -25.8137  -30.8833   27.0199 H   0  0  0  0  0  0
  -26.2908  -29.6745   24.1200 H   0  0  0  0  0  0
  -27.4085  -29.7259   25.4620 H   0  0  0  0  0  0
  -27.8752  -30.4274   23.9304 H   0  0  0  0  0  0
  -27.2669  -33.3585   26.2087 H   0  0  0  0  0  0
  -28.3857  -32.6940   25.0309 H   0  0  0  0  0  0
  -28.0770  -31.8446   26.5366 H   0  0  0  0  0  0
  -28.2623  -38.0067   24.7494 H   0  0  0  0  0  0
  -28.1026  -36.2605   24.6335 H   0  0  0  0  0  0
  -27.2291  -37.1508   25.8879 H   0  0  0  0  0  0
  -20.9332  -29.8842   21.6968 H   0  0  0  0  0  0
  -26.0175  -38.2853   24.1422 H   0  0  0  0  0  0
  -28.6719  -16.7590   24.2539 H   0  0  0  0  0  0
  -29.6238  -14.7819   23.1305 H   0  0  0  0  0  0
  -28.6580  -18.9440   23.1847 H   0  0  0  0  0  0
  -30.5262  -17.2125   19.6826 H   0  0  0  0  0  0
  -29.9289  -22.2597   19.5017 H   0  0  0  0  0  0
  -29.5893  -24.5305   19.0211 H   0  0  0  0  0  0
  -29.3912  -19.6772   19.6585 H   0  0  0  0  0  0
  -30.7327  -20.0150   20.7322 H   0  0  0  0  0  0
  -27.1819  -24.8527   20.5892 H   0  0  0  0  0  0
  -28.4904  -25.2018   21.6725 H   0  0  0  0  0  0
  -28.4137  -20.3690   22.2240 H   0  0  0  0  0  0
  1 25  1  0  0  0
  1 30  2  0  0  0
  1 75  1  0  0  0
  2  3  1  0  0  0
  2 25  1  0  0  0
  2 84  1  0  0  0
  2 85  1  0  0  0
  3  4  1  0  0  0
  3 86  1  0  0  0
  3 87  1  0  0  0
  4  5  1  0  0  0
  4 88  1  0  0  0
  4 89  1  0  0  0
  5  6  1  0  0  0
  5 26  1  0  0  0
  5 90  1  0  0  0
  6 25  1  0  0  0
  6 91  1  0  0  0
  6 92  1  0  0  0
  7  8  2  0  0  0
  7 26  1  0  0  0
  7 29  1  0  0  0
  8  9  1  0  0  0
  8 22  1  0  0  0
  9 10  1  0  0  0
  9 27  2  0  0  0
 10 11  2  0  0  0
 10 15  1  0  0  0
 11 12  1  0  0  0
 11 93  1  0  0  0
 12 13  2  0  0  0
 12 94  1  0  0  0
 13 14  1  0  0  0
 13 31  1  0  0  0
 14 15  2  0  0  0
 14 95  1  0  0  0
 15 96  1  0  0  0
 16 17  2  0  0  0
 16 21  1  0  0  0
 16 31  1  0  0  0
 17 18  1  0  0  0
 17 97  1  0  0  0
 18 19  2  0  0  0
 18 98  1  0  0  0
 19 20  1  0  0  0
 19 24  1  0  0  0
 20 21  2  0  0  0
 20 99  1  0  0  0
 21 23  1  0  0  0
 22 28  1  0  0  0
 22 32  2  0  0  0
 26 27  1  0  0  0
 28100  1  0  0  0
 28101  1  0  0  0
 29102  1  0  0  0
 29103  1  0  0  0
 33 34  1  0  0  0
 33 66  1  0  0  0
 33 70  2  0  0  0
 34 36  1  0  0  0
 34 59  1  0  0  0
 34104  1  0  0  0
 35 44  2  0  0  0
 35 45  1  0  0  0
 35 68  1  0  0  0
 36 56  1  0  0  0
 36105  1  0  0  0
 37 39  1  0  0  0
 37 47  1  0  0  0
 37 66  1  0  0  0
 37106  1  0  0  0
 38 43  2  0  0  0
 38 46  1  0  0  0
 38 47  1  0  0  0
 39 64  1  0  0  0
 39 67  2  0  0  0
 40 52  1  0  0  0
 40 53  2  0  0  0
 40 58  1  0  0  0
 41107  1  0  0  0
 41108  1  0  0  0
 41109  1  0  0  0
 41 48  1  0  0  0
 42 43  1  0  0  0
 42 66  1  0  0  0
 42110  1  0  0  0
 42111  1  0  0  0
 43 44  1  0  0  0
 44112  1  0  0  0
 45 46  2  0  0  0
 45113  1  0  0  0
 46114  1  0  0  0
 47115  1  0  0  0
 47116  1  0  0  0
 48 56  1  0  0  0
 48 65  1  0  0  0
 48117  1  0  0  0
 49 50  1  0  0  0
 49 53  1  0  0  0
 49 64  1  0  0  0
 49118  1  0  0  0
 50 51  1  0  0  0
 50119  1  0  0  0
 50120  1  0  0  0
 51 52  1  0  0  0
 51121  1  0  0  0
 51122  1  0  0  0
 52123  1  0  0  0
 52124  1  0  0  0
 53 54  1  0  0  0
 54 55  2  0  0  0
 54125  1  0  0  0
 55 57  1  0  0  0
 55126  1  0  0  0
 56 69  2  0  0  0
 57 58  2  0  0  0
 57127  1  0  0  0
 58128  1  0  0  0
 59 60  1  0  0  0
 59 61  1  0  0  0
 59 62  1  0  0  0
 60129  1  0  0  0
 60130  1  0  0  0
 60131  1  0  0  0
 61132  1  0  0  0
 61133  1  0  0  0
 61134  1  0  0  0
 62135  1  0  0  0
 62136  1  0  0  0
 62137  1  0  0  0
 63 65  1  0  0  0
 63138  1  0  0  0
 63139  1  0  0  0
 63140  1  0  0  0
 64141  1  0  0  0
 65142  1  0  0  0
 68 81  1  0  0  0
 71 72  2  0  0  0
 71 73  1  0  0  0
 71143  1  0  0  0
 72 75  1  0  0  0
 72144  1  0  0  0
 73 76  2  0  0  0
 73145  1  0  0  0
 74 75  2  0  0  0
 74 76  1  0  0  0
 74146  1  0  0  0
 76 80  1  0  0  0
 77 78  2  0  0  0
 77 79  1  0  0  0
 77147  1  0  0  0
 78 81  1  0  0  0
 78148  1  0  0  0
 79 82  1  0  0  0
 79 83  2  0  0  0
 80 82  1  0  0  0
 80149  1  0  0  0
 80150  1  0  0  0
 81151  1  0  0  0
 81152  1  0  0  0
 82153  1  0  0  0
M  ISO  4   1 100  68 101  75 100  81 101
M  END
> <chiral flag>
0

> <version>
0

> <s_m_source_file>
/data/baiqing/PycharmProjects/Reinvent-master-3.2/result/LINK_invent/BTK/process_docking_weight1_custom_product_contain_oxygen_bond_distance_aromatic_linkinvent_7_9_3/rearranged_h_0044.sdf

> <i_m_source_file_index>
53

> <r_mmod_Potential_Energy-OPLS-2005>
-14.2136430740356

> <r_mmod_Stretch_Energy-OPLS-2005>
60.2622299194336

> <r_mmod_Bend_Energy-OPLS-2005>
136.158981323242

> <r_mmod_Torsional_Energy-OPLS-2005>
214.676239013672

> <r_mmod_Improper_Torsional_Energy-OPLS-2005>
2.93973851203918

> <r_mmod_Van_der_Waal_Energy-OPLS-2005>
149.441268920898

> <r_mmod_Electrostatic_Energy-OPLS-2005>
-395.076965332031

> <r_mmod_Solvation_Energy-OPLS-2005>
-211.562164306641

> <b_mmod_Minimization_Converged-OPLS-2005>
0

> <r_mmod_RMS_Derivative-OPLS-2005>
3.51452732086182

$$$$
53
                    3D
 Structure written by MMmdl.
161170  0  0  1  0            999 V2000
  -30.6130  -14.6647   20.4679 C   0  0  0  0  0  0
  -30.4396  -12.4018   19.4471 C   0  0  0  0  0  0
  -29.5059  -12.5000   18.2196 C   0  0  0  0  0  0
  -28.0300  -12.3321   18.6360 C   0  0  0  0  0  0
  -27.6466  -13.2137   19.8539 C   0  0  2  0  0  0
  -28.6973  -13.0889   20.9809 C   0  0  0  0  0  0
  -25.2507  -13.8103   20.5740 C   0  0  0  0  0  0
  -24.1791  -13.0373   20.9228 C   0  0  0  0  0  0
  -24.6377  -11.6865   20.8717 C   0  0  0  0  0  0
  -23.9060  -10.4260   21.0380 C   0  0  0  0  0  0
  -24.3619   -9.4192   21.9164 C   0  0  0  0  0  0
  -23.6296   -8.2232   22.0744 C   0  0  0  0  0  0
  -22.4274   -8.0265   21.3536 C   0  0  0  0  0  0
  -21.9906   -9.0235   20.4637 C   0  0  0  0  0  0
  -22.7236  -10.2113   20.3034 C   0  0  0  0  0  0
  -21.6848   -6.0738   22.5282 C   0  0  0  0  0  0
  -21.4010   -6.5640   23.8219 C   0  0  0  0  0  0
  -21.3652   -5.6786   24.9176 C   0  0  0  0  0  0
  -21.6042   -4.3048   24.7222 C   0  0  0  0  0  0
  -21.8823   -3.8148   23.4338 C   0  0  0  0  0  0
  -21.9205   -4.6969   22.3397 C   0  0  0  0  0  0
  -22.7821  -13.5185   21.1883 C   0  0  0  0  0  0
  -22.1671   -4.2162   21.0970 F   0  0  0  0  0  0
  -21.5629   -3.4521   25.7729 F   0  0  0  0  0  0
  -30.0093  -13.4337   20.4090 N   0  0  0  0  0  0
  -26.2945  -12.9324   20.3283 N   0  0  0  0  0  0
  -25.9301  -11.6475   20.5716 N   0  0  0  0  0  0
  -22.0460  -12.8174   22.0435 N   0  0  0  0  0  0
  -25.4047  -15.1823   20.4253 N   0  0  0  0  0  0
  -31.7952  -14.8178   20.1493 O   0  0  0  0  0  0
  -21.6631   -6.8875   21.4241 O   0  0  0  0  0  0
  -22.3511  -14.5495   20.6734 O   0  0  0  0  0  0
  -24.6214  -31.8614   23.2011 C   0  0  0  0  0  0
  -25.9066  -32.4784   23.8338 C   0  0  1  0  0  0
  -27.2172  -27.3148   20.1303 C   0  0  0  0  0  0
  -25.5907  -33.8583   24.2278 N   0  0  0  0  0  0
  -23.4158  -30.4845   21.5426 C   0  0  2  0  0  0
  -24.8635  -28.9357   20.1152 C   0  0  0  0  0  0
  -22.7456  -29.4628   22.4909 C   0  0  0  0  0  0
  -18.0301  -28.1390   22.8517 C   0  0  0  0  0  0
  -24.1486  -36.7281   23.2640 C   0  0  0  0  0  0
  -25.9560  -30.7879   21.3761 C   0  0  0  0  0  0
  -26.0286  -29.4106   20.7298 C   0  0  0  0  0  0
  -27.2088  -28.6094   20.7359 C   0  0  0  0  0  0
  -26.0435  -26.9094   19.4600 C   0  0  0  0  0  0
  -24.8698  -27.6881   19.4740 C   0  0  0  0  0  0
  -23.6327  -29.8172   20.1582 C   0  0  0  0  0  0
  -25.4118  -36.3078   24.0332 C   0  0  1  0  0  0
  -20.5901  -28.3683   23.1292 C   0  0  2  0  0  0
  -20.6794  -26.9412   22.5409 C   0  0  0  0  0  0
  -19.5763  -26.6396   21.5214 C   0  0  0  0  0  0
  -18.1942  -26.7940   22.1626 C   0  0  0  0  0  0
  -19.1558  -28.8854   23.2904 C   0  0  0  0  0  0
  -18.9475  -30.1469   23.8899 C   0  0  0  0  0  0
  -17.6476  -30.6597   24.0586 C   0  0  0  0  0  0
  -25.9060  -34.9452   23.5105 C   0  0  0  0  0  0
  -16.5368  -29.9097   23.6342 C   0  0  0  0  0  0
  -16.7291  -28.6512   23.0368 C   0  0  0  0  0  0
  -26.4467  -31.6588   25.0693 C   0  0  0  0  0  0
  -25.3710  -31.3735   26.1429 C   0  0  0  0  0  0
  -27.0300  -30.3013   24.6109 C   0  0  0  0  0  0
  -27.6019  -32.4324   25.7475 C   0  0  0  0  0  0
  -27.5589  -37.1806   24.8474 C   0  0  0  0  0  0
  -21.4178  -29.3034   22.3669 N   0  0  0  0  0  0
  -26.4295  -37.3777   23.9418 N   0  0  0  0  0  0
  -24.6825  -31.0635   22.0957 N   0  0  0  0  0  0
  -23.4194  -28.8181   23.2981 O   0  0  0  0  0  0
  -28.3425  -26.4797   20.1074 O   0  0  0  0  0  0
  -26.5621  -34.8922   22.4668 O   0  0  0  0  0  0
  -23.5379  -32.1400   23.7352 O   0  0  0  0  0  0
  -30.9543  -17.9700   20.9655 C   0  0  0  0  0  0
  -28.8454  -19.2871   19.6815 C   0  0  0  0  0  0
  -30.9680  -19.3976   20.8103 C   0  0  0  0  0  0
  -29.9059  -20.0975   20.1530 C   0  0  0  0  0  0
  -29.8943  -17.1652   20.4704 C   0  0  0  0  0  0
  -28.8440  -17.8712   19.8204 C   0  0  0  0  0  0
  -29.1547  -24.0249   19.9595 C   0  0  0  0  0  0
  -27.0836  -23.1097   21.8091 C   0  0  0  0  0  0
  -26.9643  -24.4890   21.1113 C   0  0  0  0  0  0
  -28.4671  -22.4235   21.6835 C   0  0  0  0  0  0
  -28.3279  -25.1254   20.7407 C   0  0  2  0  0  0
  -32.1760  -20.1563   21.3348 C   0  0  0  0  0  0
  -29.9660  -21.6302   19.7593 C   0  0  0  0  0  0
  -29.1546  -22.7212   20.4208 N   0  0  0  0  0  0
  -29.7679  -15.7197   20.6845 N   0  0  0  0  0  0
  -29.7828  -24.3575   18.9498 O   0  0  0  0  0  0
  -27.5398  -17.0024   19.1039 Cl  0  0  0  0  0  0
  -31.4801  -12.5310   19.1433 H   0  0  0  0  0  0
  -30.3787  -11.4114   19.9006 H   0  0  0  0  0  0
  -29.7733  -11.7427   17.4817 H   0  0  0  0  0  0
  -29.6408  -13.4653   17.7281 H   0  0  0  0  0  0
  -27.8784  -11.2812   18.8845 H   0  0  0  0  0  0
  -27.3708  -12.5416   17.7927 H   0  0  0  0  0  0
  -27.6526  -14.2413   19.4958 H   0  0  0  0  0  0
  -28.7152  -12.0715   21.3732 H   0  0  0  0  0  0
  -28.4456  -13.7313   21.8264 H   0  0  0  0  0  0
  -25.2766   -9.5691   22.4732 H   0  0  0  0  0  0
  -24.0009   -7.4632   22.7465 H   0  0  0  0  0  0
  -21.0840   -8.8755   19.8944 H   0  0  0  0  0  0
  -22.3688  -10.9651   19.6140 H   0  0  0  0  0  0
  -21.1983   -7.6145   23.9730 H   0  0  0  0  0  0
  -21.1467   -6.0503   25.9084 H   0  0  0  0  0  0
  -22.0606   -2.7611   23.2824 H   0  0  0  0  0  0
  -22.4078  -11.9819   22.4792 H   0  0  0  0  0  0
  -21.1080  -13.1196   22.2655 H   0  0  0  0  0  0
  -24.6171  -15.8105   20.5321 H   0  0  0  0  0  0
  -26.2149  -15.6390   20.0209 H   0  0  0  0  0  0
  -26.7128  -32.5468   23.1092 H   0  0  0  0  0  0
  -25.0085  -33.9732   25.0440 H   0  0  0  0  0  0
  -22.7080  -31.3040   21.3994 H   0  0  0  0  0  0
  -23.3754  -35.9606   23.3303 H   0  0  0  0  0  0
  -24.3579  -36.8879   22.2049 H   0  0  0  0  0  0
  -23.7229  -37.6486   23.6648 H   0  0  0  0  0  0
  -26.0873  -31.5437   20.6001 H   0  0  0  0  0  0
  -26.8374  -30.8411   22.0034 H   0  0  0  0  0  0
  -28.1033  -28.9699   21.2262 H   0  0  0  0  0  0
  -26.0243  -25.9814   18.9106 H   0  0  0  0  0  0
  -23.9813  -27.3298   18.9710 H   0  0  0  0  0  0
  -23.7543  -30.5907   19.3978 H   0  0  0  0  0  0
  -22.7526  -29.2453   19.8579 H   0  0  0  0  0  0
  -25.1299  -36.1926   25.0821 H   0  0  0  0  0  0
  -21.0029  -28.3248   24.1395 H   0  0  0  0  0  0
  -20.5701  -26.2282   23.3595 H   0  0  0  0  0  0
  -21.6666  -26.7453   22.1193 H   0  0  0  0  0  0
  -19.6905  -25.6301   21.1242 H   0  0  0  0  0  0
  -19.6703  -27.3216   20.6752 H   0  0  0  0  0  0
  -17.4225  -26.6732   21.4013 H   0  0  0  0  0  0
  -18.0339  -26.0070   22.9008 H   0  0  0  0  0  0
  -19.7947  -30.7322   24.2225 H   0  0  0  0  0  0
  -17.5025  -31.6269   24.5208 H   0  0  0  0  0  0
  -15.5369  -30.3010   23.7646 H   0  0  0  0  0  0
  -15.8703  -28.0839   22.7058 H   0  0  0  0  0  0
  -24.5889  -30.7067   25.7789 H   0  0  0  0  0  0
  -24.8897  -32.2904   26.4831 H   0  0  0  0  0  0
  -25.8049  -30.8953   27.0217 H   0  0  0  0  0  0
  -26.2854  -29.6788   24.1125 H   0  0  0  0  0  0
  -27.4023  -29.7229   25.4575 H   0  0  0  0  0  0
  -27.8715  -30.4325   23.9304 H   0  0  0  0  0  0
  -27.2616  -33.3629   26.2036 H   0  0  0  0  0  0
  -28.3849  -32.6869   25.0322 H   0  0  0  0  0  0
  -28.0655  -31.8451   26.5411 H   0  0  0  0  0  0
  -28.2612  -38.0105   24.7541 H   0  0  0  0  0  0
  -28.1086  -36.2638   24.6283 H   0  0  0  0  0  0
  -27.2317  -37.1436   25.8881 H   0  0  0  0  0  0
  -20.9327  -29.8736   21.6894 H   0  0  0  0  0  0
  -26.0166  -38.2846   24.1426 H   0  0  0  0  0  0
  -31.7746  -17.4851   21.4767 H   0  0  0  0  0  0
  -28.0289  -19.7516   19.1471 H   0  0  0  0  0  0
  -26.3196  -22.4473   21.3967 H   0  0  0  0  0  0
  -26.8404  -23.2086   22.8683 H   0  0  0  0  0  0
  -26.3801  -25.1645   21.7385 H   0  0  0  0  0  0
  -26.3856  -24.3288   20.2041 H   0  0  0  0  0  0
  -28.3493  -21.3512   21.8368 H   0  0  0  0  0  0
  -29.1148  -22.7705   22.4911 H   0  0  0  0  0  0
  -28.8663  -25.2736   21.6791 H   0  0  0  0  0  0
  -32.6950  -19.5867   22.1070 H   0  0  0  0  0  0
  -31.8920  -21.1124   21.7748 H   0  0  0  0  0  0
  -32.8820  -20.3466   20.5257 H   0  0  0  0  0  0
  -29.6942  -21.6588   18.7027 H   0  0  0  0  0  0
  -31.0066  -21.9526   19.7661 H   0  0  0  0  0  0
  -28.8131  -15.4161   20.7958 H   0  0  0  0  0  0
  1 25  1  0  0  0
  1 30  2  0  0  0
  1 85  1  0  0  0
  2  3  1  0  0  0
  2 25  1  0  0  0
  2 88  1  0  0  0
  2 89  1  0  0  0
  3  4  1  0  0  0
  3 90  1  0  0  0
  3 91  1  0  0  0
  4  5  1  0  0  0
  4 92  1  0  0  0
  4 93  1  0  0  0
  5  6  1  0  0  0
  5 26  1  0  0  0
  5 94  1  0  0  0
  6 25  1  0  0  0
  6 95  1  0  0  0
  6 96  1  0  0  0
  7  8  2  0  0  0
  7 26  1  0  0  0
  7 29  1  0  0  0
  8  9  1  0  0  0
  8 22  1  0  0  0
  9 10  1  0  0  0
  9 27  2  0  0  0
 10 11  2  0  0  0
 10 15  1  0  0  0
 11 12  1  0  0  0
 11 97  1  0  0  0
 12 13  2  0  0  0
 12 98  1  0  0  0
 13 14  1  0  0  0
 13 31  1  0  0  0
 14 15  2  0  0  0
 14 99  1  0  0  0
 15100  1  0  0  0
 16 17  2  0  0  0
 16 21  1  0  0  0
 16 31  1  0  0  0
 17 18  1  0  0  0
 17101  1  0  0  0
 18 19  2  0  0  0
 18102  1  0  0  0
 19 20  1  0  0  0
 19 24  1  0  0  0
 20 21  2  0  0  0
 20103  1  0  0  0
 21 23  1  0  0  0
 22 28  1  0  0  0
 22 32  2  0  0  0
 26 27  1  0  0  0
 28104  1  0  0  0
 28105  1  0  0  0
 29106  1  0  0  0
 29107  1  0  0  0
 33 34  1  0  0  0
 33 66  1  0  0  0
 33 70  2  0  0  0
 34 36  1  0  0  0
 34 59  1  0  0  0
 34108  1  0  0  0
 35 44  2  0  0  0
 35 45  1  0  0  0
 35 68  1  0  0  0
 36 56  1  0  0  0
 36109  1  0  0  0
 37 39  1  0  0  0
 37 47  1  0  0  0
 37 66  1  0  0  0
 37110  1  0  0  0
 38 43  2  0  0  0
 38 46  1  0  0  0
 38 47  1  0  0  0
 39 64  1  0  0  0
 39 67  2  0  0  0
 40 52  1  0  0  0
 40 53  2  0  0  0
 40 58  1  0  0  0
 41111  1  0  0  0
 41112  1  0  0  0
 41113  1  0  0  0
 41 48  1  0  0  0
 42 43  1  0  0  0
 42 66  1  0  0  0
 42114  1  0  0  0
 42115  1  0  0  0
 43 44  1  0  0  0
 44116  1  0  0  0
 45 46  2  0  0  0
 45117  1  0  0  0
 46118  1  0  0  0
 47119  1  0  0  0
 47120  1  0  0  0
 48 56  1  0  0  0
 48 65  1  0  0  0
 48121  1  0  0  0
 49 50  1  0  0  0
 49 53  1  0  0  0
 49 64  1  0  0  0
 49122  1  0  0  0
 50 51  1  0  0  0
 50123  1  0  0  0
 50124  1  0  0  0
 51 52  1  0  0  0
 51125  1  0  0  0
 51126  1  0  0  0
 52127  1  0  0  0
 52128  1  0  0  0
 53 54  1  0  0  0
 54 55  2  0  0  0
 54129  1  0  0  0
 55 57  1  0  0  0
 55130  1  0  0  0
 56 69  2  0  0  0
 57 58  2  0  0  0
 57131  1  0  0  0
 58132  1  0  0  0
 59 60  1  0  0  0
 59 61  1  0  0  0
 59 62  1  0  0  0
 60133  1  0  0  0
 60134  1  0  0  0
 60135  1  0  0  0
 61136  1  0  0  0
 61137  1  0  0  0
 61138  1  0  0  0
 62139  1  0  0  0
 62140  1  0  0  0
 62141  1  0  0  0
 63 65  1  0  0  0
 63142  1  0  0  0
 63143  1  0  0  0
 63144  1  0  0  0
 64145  1  0  0  0
 65146  1  0  0  0
 68 81  1  0  0  0
 71 73  2  0  0  0
 71 75  1  0  0  0
 71147  1  0  0  0
 72 74  2  0  0  0
 72 76  1  0  0  0
 72148  1  0  0  0
 73 74  1  0  0  0
 73 82  1  0  0  0
 74 83  1  0  0  0
 75 76  2  0  0  0
 75 85  1  0  0  0
 76 87  1  0  0  0
 77 81  1  0  0  0
 77 84  1  0  0  0
 77 86  2  0  0  0
 78 79  1  0  0  0
 78 80  1  0  0  0
 78149  1  0  0  0
 78150  1  0  0  0
 79 81  1  0  0  0
 79151  1  0  0  0
 79152  1  0  0  0
 80 84  1  0  0  0
 80153  1  0  0  0
 80154  1  0  0  0
 81155  1  0  0  0
 82156  1  0  0  0
 82157  1  0  0  0
 82158  1  0  0  0
 83 84  1  0  0  0
 83159  1  0  0  0
 83160  1  0  0  0
 85161  1  0  0  0
M  ISO  4   1 100  68 101  81 101  85 100
M  END
> <chiral flag>
0

> <version>
0

> <s_m_source_file>
/data/baiqing/PycharmProjects/Reinvent-master-3.2/result/LINK_invent/BTK/process_docking_weight1_custom_product_contain_oxygen_bond_distance_aromatic_linkinvent_7_9_3/rearranged_h_0044.sdf

> <i_m_source_file_index>
54

> <r_mmod_Potential_Energy-OPLS-2005>
149.2333984375

> <r_mmod_Stretch_Energy-OPLS-2005>
87.0115585327148

> <r_mmod_Bend_Energy-OPLS-2005>
153.317169189453

> <r_mmod_Torsional_Energy-OPLS-2005>
289.293395996094

> <r_mmod_Improper_Torsional_Energy-OPLS-2005>
7.53814888000488

> <r_mmod_Van_der_Waal_Energy-OPLS-2005>
151.09375

> <r_mmod_Electrostatic_Energy-OPLS-2005>
-370.557159423828

> <r_mmod_Solvation_Energy-OPLS-2005>
-221.434555053711

> <b_mmod_Minimization_Converged-OPLS-2005>
0

> <r_mmod_RMS_Derivative-OPLS-2005>
2.55570578575134

$$$$
54
                    3D
 Structure written by MMmdl.
154162  0  0  1  0            999 V2000
  -30.6103  -14.7250   20.4635 C   0  0  0  0  0  0
  -30.4412  -12.4402   19.4810 C   0  0  0  0  0  0
  -29.5241  -12.5207   18.2401 C   0  0  0  0  0  0
  -28.0450  -12.3547   18.6362 C   0  0  0  0  0  0
  -27.6508  -13.2333   19.8549 C   0  0  2  0  0  0
  -28.6924  -13.1331   20.9930 C   0  0  0  0  0  0
  -25.2561  -13.8214   20.5714 C   0  0  0  0  0  0
  -24.1820  -13.0478   20.9205 C   0  0  0  0  0  0
  -24.6403  -11.6942   20.8710 C   0  0  0  0  0  0
  -23.9068  -10.4315   21.0386 C   0  0  0  0  0  0
  -24.3610   -9.4234   21.9164 C   0  0  0  0  0  0
  -23.6287   -8.2265   22.0742 C   0  0  0  0  0  0
  -22.4249   -8.0304   21.3551 C   0  0  0  0  0  0
  -21.9889   -9.0281   20.4659 C   0  0  0  0  0  0
  -22.7228  -10.2151   20.3059 C   0  0  0  0  0  0
  -21.6857   -6.0740   22.5280 C   0  0  0  0  0  0
  -21.4017   -6.5643   23.8209 C   0  0  0  0  0  0
  -21.3659   -5.6791   24.9174 C   0  0  0  0  0  0
  -21.6039   -4.3049   24.7218 C   0  0  0  0  0  0
  -21.8819   -3.8155   23.4340 C   0  0  0  0  0  0
  -21.9198   -4.6977   22.3398 C   0  0  0  0  0  0
  -22.7846  -13.5282   21.1859 C   0  0  0  0  0  0
  -22.1663   -4.2170   21.0975 F   0  0  0  0  0  0
  -21.5619   -3.4533   25.7721 F   0  0  0  0  0  0
  -30.0025  -13.4887   20.4321 N   0  0  0  0  0  0
  -26.2977  -12.9415   20.3243 N   0  0  0  0  0  0
  -25.9324  -11.6559   20.5656 N   0  0  0  0  0  0
  -22.0448  -12.8306   22.0409 N   0  0  0  0  0  0
  -25.4337  -15.1939   20.4234 N   0  0  0  0  0  0
  -31.7762  -14.8440   20.0720 O   0  0  0  0  0  0
  -21.6635   -6.8888   21.4238 O   0  0  0  0  0  0
  -22.3547  -14.5598   20.6723 O   0  0  0  0  0  0
  -24.6339  -31.8531   23.1974 C   0  0  0  0  0  0
  -25.9157  -32.4737   23.8330 C   0  0  1  0  0  0
  -27.2228  -27.2483   20.1205 C   0  0  0  0  0  0
  -25.5931  -33.8537   24.2238 N   0  0  0  0  0  0
  -23.4320  -30.4769   21.5400 C   0  0  2  0  0  0
  -24.8804  -28.9257   20.1046 C   0  0  0  0  0  0
  -22.7528  -29.4585   22.4887 C   0  0  0  0  0  0
  -18.0303  -28.1377   22.8494 C   0  0  0  0  0  0
  -24.1481  -36.7303   23.2631 C   0  0  0  0  0  0
  -25.9807  -30.7591   21.3837 C   0  0  0  0  0  0
  -26.0526  -29.3830   20.7198 C   0  0  0  0  0  0
  -27.2260  -28.5579   20.7157 C   0  0  0  0  0  0
  -26.0289  -26.8739   19.4589 C   0  0  0  0  0  0
  -24.8766  -27.6812   19.4600 C   0  0  0  0  0  0
  -23.6517  -29.8130   20.1550 C   0  0  0  0  0  0
  -25.4096  -36.3065   24.0318 C   0  0  1  0  0  0
  -20.5913  -28.3693   23.1241 C   0  0  2  0  0  0
  -20.6778  -26.9406   22.5368 C   0  0  0  0  0  0
  -19.5720  -26.6365   21.5204 C   0  0  0  0  0  0
  -18.1933  -26.7901   22.1674 C   0  0  0  0  0  0
  -19.1566  -28.8859   23.2860 C   0  0  0  0  0  0
  -18.9480  -30.1466   23.8873 C   0  0  0  0  0  0
  -17.6474  -30.6586   24.0545 C   0  0  0  0  0  0
  -25.9048  -34.9428   23.5084 C   0  0  0  0  0  0
  -16.5365  -29.9075   23.6321 C   0  0  0  0  0  0
  -16.7289  -28.6490   23.0354 C   0  0  0  0  0  0
  -26.4493  -31.6576   25.0747 C   0  0  0  0  0  0
  -25.3732  -31.3855   26.1521 C   0  0  0  0  0  0
  -27.0232  -30.2928   24.6295 C   0  0  0  0  0  0
  -27.6095  -32.4281   25.7469 C   0  0  0  0  0  0
  -27.5575  -37.1786   24.8453 C   0  0  0  0  0  0
  -21.4242  -29.3054   22.3646 N   0  0  0  0  0  0
  -26.4276  -37.3762   23.9424 N   0  0  0  0  0  0
  -24.7005  -31.0480   22.0961 N   0  0  0  0  0  0
  -23.4224  -28.8115   23.2979 O   0  0  0  0  0  0
  -28.3051  -26.3308   20.1989 O   0  0  0  0  0  0
  -26.5627  -34.8909   22.4663 O   0  0  0  0  0  0
  -23.5486  -32.1352   23.7266 O   0  0  0  0  0  0
  -29.4879  -19.6660   18.7359 C   0  0  0  0  0  0
  -29.7540  -17.2164   18.7532 C   0  0  0  0  0  0
  -29.6848  -18.4577   20.8419 C   0  0  0  0  0  0
  -29.6048  -18.4344   18.0510 C   0  0  0  0  0  0
  -29.5290  -19.7307   20.1446 C   0  0  0  0  0  0
  -29.8097  -17.1731   20.1653 C   0  0  0  0  0  0
  -29.0346  -23.7392   20.4692 C   0  0  0  0  0  0
  -29.5836  -18.4219   16.5341 C   0  0  0  0  0  0
  -29.4909  -21.1635   20.8510 C   0  0  0  0  0  0
  -28.0503  -24.8695   19.8921 C   0  0  0  0  0  0
  -29.8631  -15.8381   20.8120 N   0  0  0  0  0  0
  -28.8190  -22.3870   20.2207 N   0  0  0  0  0  0
  -29.9832  -24.0919   21.1723 O   0  0  0  0  0  0
  -31.4834  -12.5628   19.1814 H   0  0  0  0  0  0
  -30.3807  -11.4553   19.9464 H   0  0  0  0  0  0
  -29.8049  -11.7616   17.5096 H   0  0  0  0  0  0
  -29.6647  -13.4856   17.7480 H   0  0  0  0  0  0
  -27.8759  -11.3016   18.8634 H   0  0  0  0  0  0
  -27.4088  -12.5886   17.7826 H   0  0  0  0  0  0
  -27.6565  -14.2609   19.4937 H   0  0  0  0  0  0
  -28.7164  -12.1188   21.3939 H   0  0  0  0  0  0
  -28.4271  -13.7847   21.8270 H   0  0  0  0  0  0
  -25.2752   -9.5711   22.4750 H   0  0  0  0  0  0
  -24.0010   -7.4639   22.7440 H   0  0  0  0  0  0
  -21.0820   -8.8821   19.8955 H   0  0  0  0  0  0
  -22.3692  -10.9699   19.6180 H   0  0  0  0  0  0
  -21.2004   -7.6142   23.9730 H   0  0  0  0  0  0
  -21.1476   -6.0505   25.9072 H   0  0  0  0  0  0
  -22.0598   -2.7622   23.2838 H   0  0  0  0  0  0
  -22.4017  -12.0011   22.4926 H   0  0  0  0  0  0
  -21.1068  -13.1373   22.2536 H   0  0  0  0  0  0
  -24.6978  -15.8684   20.5974 H   0  0  0  0  0  0
  -26.2986  -15.6254   20.1233 H   0  0  0  0  0  0
  -26.7226  -32.5364   23.1065 H   0  0  0  0  0  0
  -25.0016  -33.9642   25.0349 H   0  0  0  0  0  0
  -22.7280  -31.2992   21.3945 H   0  0  0  0  0  0
  -23.3750  -35.9627   23.3217 H   0  0  0  0  0  0
  -24.3599  -36.9017   22.2068 H   0  0  0  0  0  0
  -23.7209  -37.6466   23.6714 H   0  0  0  0  0  0
  -26.1301  -31.5251   20.6216 H   0  0  0  0  0  0
  -26.8541  -30.7989   22.0230 H   0  0  0  0  0  0
  -28.1215  -28.9033   21.2131 H   0  0  0  0  0  0
  -25.9511  -25.9306   18.9390 H   0  0  0  0  0  0
  -23.9845  -27.3326   18.9575 H   0  0  0  0  0  0
  -23.7775  -30.5901   19.3997 H   0  0  0  0  0  0
  -22.7691  -29.2483   19.8501 H   0  0  0  0  0  0
  -25.1268  -36.1893   25.0803 H   0  0  0  0  0  0
  -21.0010  -28.3255   24.1359 H   0  0  0  0  0  0
  -20.5686  -26.2301   23.3578 H   0  0  0  0  0  0
  -21.6632  -26.7409   22.1146 H   0  0  0  0  0  0
  -19.6860  -25.6271   21.1242 H   0  0  0  0  0  0
  -19.6603  -27.3165   20.6723 H   0  0  0  0  0  0
  -17.4149  -26.6596   21.4138 H   0  0  0  0  0  0
  -18.0398  -26.0073   22.9120 H   0  0  0  0  0  0
  -19.7956  -30.7301   24.2213 H   0  0  0  0  0  0
  -17.5025  -31.6271   24.5134 H   0  0  0  0  0  0
  -15.5364  -30.2967   23.7648 H   0  0  0  0  0  0
  -15.8695  -28.0797   22.7069 H   0  0  0  0  0  0
  -24.5607  -30.7581   25.7843 H   0  0  0  0  0  0
  -24.9331  -32.3120   26.5225 H   0  0  0  0  0  0
  -25.7992  -30.8691   27.0134 H   0  0  0  0  0  0
  -26.2762  -29.6723   24.1324 H   0  0  0  0  0  0
  -27.3799  -29.7187   25.4861 H   0  0  0  0  0  0
  -27.8742  -30.4079   23.9579 H   0  0  0  0  0  0
  -27.2773  -33.3655   26.1939 H   0  0  0  0  0  0
  -28.3951  -32.6694   25.0300 H   0  0  0  0  0  0
  -28.0673  -31.8437   26.5459 H   0  0  0  0  0  0
  -28.2562  -38.0113   24.7541 H   0  0  0  0  0  0
  -28.1099  -36.2648   24.6210 H   0  0  0  0  0  0
  -27.2315  -37.1360   25.8859 H   0  0  0  0  0  0
  -20.9429  -29.8821   21.6892 H   0  0  0  0  0  0
  -26.0149  -38.2835   24.1440 H   0  0  0  0  0  0
  -29.3918  -20.5812   18.1674 H   0  0  0  0  0  0
  -29.8050  -16.2957   18.1897 H   0  0  0  0  0  0
  -29.7229  -18.4730   21.9232 H   0  0  0  0  0  0
  -30.1786  -19.2478   16.1433 H   0  0  0  0  0  0
  -28.5675  -18.5228   16.1521 H   0  0  0  0  0  0
  -30.0024  -17.4983   16.1341 H   0  0  0  0  0  0
  -30.5323  -21.4303   21.0395 H   0  0  0  0  0  0
  -29.0522  -21.0290   21.8406 H   0  0  0  0  0  0
  -27.0690  -24.5883   20.2740 H   0  0  0  0  0  0
  -28.0186  -24.7523   18.8085 H   0  0  0  0  0  0
  -29.0489  -15.6152   21.3641 H   0  0  0  0  0  0
  -28.0243  -22.1769   19.6324 H   0  0  0  0  0  0
  1 25  1  0  0  0
  1 30  2  0  0  0
  1 81  1  0  0  0
  2  3  1  0  0  0
  2 25  1  0  0  0
  2 84  1  0  0  0
  2 85  1  0  0  0
  3  4  1  0  0  0
  3 86  1  0  0  0
  3 87  1  0  0  0
  4  5  1  0  0  0
  4 88  1  0  0  0
  4 89  1  0  0  0
  5  6  1  0  0  0
  5 26  1  0  0  0
  5 90  1  0  0  0
  6 25  1  0  0  0
  6 91  1  0  0  0
  6 92  1  0  0  0
  7  8  2  0  0  0
  7 26  1  0  0  0
  7 29  1  0  0  0
  8  9  1  0  0  0
  8 22  1  0  0  0
  9 10  1  0  0  0
  9 27  2  0  0  0
 10 11  2  0  0  0
 10 15  1  0  0  0
 11 12  1  0  0  0
 11 93  1  0  0  0
 12 13  2  0  0  0
 12 94  1  0  0  0
 13 14  1  0  0  0
 13 31  1  0  0  0
 14 15  2  0  0  0
 14 95  1  0  0  0
 15 96  1  0  0  0
 16 17  2  0  0  0
 16 21  1  0  0  0
 16 31  1  0  0  0
 17 18  1  0  0  0
 17 97  1  0  0  0
 18 19  2  0  0  0
 18 98  1  0  0  0
 19 20  1  0  0  0
 19 24  1  0  0  0
 20 21  2  0  0  0
 20 99  1  0  0  0
 21 23  1  0  0  0
 22 28  1  0  0  0
 22 32  2  0  0  0
 26 27  1  0  0  0
 28100  1  0  0  0
 28101  1  0  0  0
 29102  1  0  0  0
 29103  1  0  0  0
 33 34  1  0  0  0
 33 66  1  0  0  0
 33 70  2  0  0  0
 34 36  1  0  0  0
 34 59  1  0  0  0
 34104  1  0  0  0
 35 44  2  0  0  0
 35 45  1  0  0  0
 35 68  1  0  0  0
 36 56  1  0  0  0
 36105  1  0  0  0
 37 39  1  0  0  0
 37 47  1  0  0  0
 37 66  1  0  0  0
 37106  1  0  0  0
 38 43  2  0  0  0
 38 46  1  0  0  0
 38 47  1  0  0  0
 39 64  1  0  0  0
 39 67  2  0  0  0
 40 52  1  0  0  0
 40 53  2  0  0  0
 40 58  1  0  0  0
 41107  1  0  0  0
 41108  1  0  0  0
 41109  1  0  0  0
 41 48  1  0  0  0
 42 43  1  0  0  0
 42 66  1  0  0  0
 42110  1  0  0  0
 42111  1  0  0  0
 43 44  1  0  0  0
 44112  1  0  0  0
 45 46  2  0  0  0
 45113  1  0  0  0
 46114  1  0  0  0
 47115  1  0  0  0
 47116  1  0  0  0
 48 56  1  0  0  0
 48 65  1  0  0  0
 48117  1  0  0  0
 49 50  1  0  0  0
 49 53  1  0  0  0
 49 64  1  0  0  0
 49118  1  0  0  0
 50 51  1  0  0  0
 50119  1  0  0  0
 50120  1  0  0  0
 51 52  1  0  0  0
 51121  1  0  0  0
 51122  1  0  0  0
 52123  1  0  0  0
 52124  1  0  0  0
 53 54  1  0  0  0
 54 55  2  0  0  0
 54125  1  0  0  0
 55 57  1  0  0  0
 55126  1  0  0  0
 56 69  2  0  0  0
 57 58  2  0  0  0
 57127  1  0  0  0
 58128  1  0  0  0
 59 60  1  0  0  0
 59 61  1  0  0  0
 59 62  1  0  0  0
 60129  1  0  0  0
 60130  1  0  0  0
 60131  1  0  0  0
 61132  1  0  0  0
 61133  1  0  0  0
 61134  1  0  0  0
 62135  1  0  0  0
 62136  1  0  0  0
 62137  1  0  0  0
 63 65  1  0  0  0
 63138  1  0  0  0
 63139  1  0  0  0
 63140  1  0  0  0
 64141  1  0  0  0
 65142  1  0  0  0
 68 80  1  0  0  0
 71 74  2  0  0  0
 71 75  1  0  0  0
 71143  1  0  0  0
 72 74  1  0  0  0
 72 76  2  0  0  0
 72144  1  0  0  0
 73 75  2  0  0  0
 73 76  1  0  0  0
 73145  1  0  0  0
 74 78  1  0  0  0
 75 79  1  0  0  0
 76 81  1  0  0  0
 77 80  1  0  0  0
 77 82  1  0  0  0
 77 83  2  0  0  0
 78146  1  0  0  0
 78147  1  0  0  0
 78148  1  0  0  0
 79 82  1  0  0  0
 79149  1  0  0  0
 79150  1  0  0  0
 80151  1  0  0  0
 80152  1  0  0  0
 81153  1  0  0  0
 82154  1  0  0  0
M  ISO  4   1 100  68 101  80 101  81 100
M  END
> <chiral flag>
0

> <version>
0

> <s_m_source_file>
/data/baiqing/PycharmProjects/Reinvent-master-3.2/result/LINK_invent/BTK/process_docking_weight1_custom_product_contain_oxygen_bond_distance_aromatic_linkinvent_7_9_3/rearranged_h_0044.sdf

> <i_m_source_file_index>
55

> <r_mmod_Potential_Energy-OPLS-2005>
89.6972579956055

> <r_mmod_Stretch_Energy-OPLS-2005>
125.847244262695

> <r_mmod_Bend_Energy-OPLS-2005>
154.720596313477

> <r_mmod_Torsional_Energy-OPLS-2005>
236.148162841797

> <r_mmod_Improper_Torsional_Energy-OPLS-2005>
5.02334308624268

> <r_mmod_Van_der_Waal_Energy-OPLS-2005>
136.185699462891

> <r_mmod_Electrostatic_Energy-OPLS-2005>
-400.258850097656

> <r_mmod_Solvation_Energy-OPLS-2005>
-253.241622924805

> <b_mmod_Minimization_Converged-OPLS-2005>
0

> <r_mmod_RMS_Derivative-OPLS-2005>
2.93589973449707

$$$$
55
                    3D
 Structure written by MMmdl.
168177  0  0  1  0            999 V2000
  -30.6109  -14.5792   20.5249 C   0  0  0  0  0  0
  -30.4466  -12.3612   19.4231 C   0  0  0  0  0  0
  -29.5048  -12.5024   18.2066 C   0  0  0  0  0  0
  -28.0254  -12.3427   18.6217 C   0  0  0  0  0  0
  -27.6554  -13.1976   19.8622 C   0  0  2  0  0  0
  -28.7030  -13.0099   20.9837 C   0  0  0  0  0  0
  -25.2588  -13.8122   20.5660 C   0  0  0  0  0  0
  -24.1838  -13.0417   20.9186 C   0  0  0  0  0  0
  -24.6379  -11.6880   20.8743 C   0  0  0  0  0  0
  -23.9038  -10.4281   21.0414 C   0  0  0  0  0  0
  -24.3598   -9.4201   21.9192 C   0  0  0  0  0  0
  -23.6285   -8.2230   22.0754 C   0  0  0  0  0  0
  -22.4268   -8.0268   21.3545 C   0  0  0  0  0  0
  -21.9896   -9.0237   20.4647 C   0  0  0  0  0  0
  -22.7213  -10.2123   20.3058 C   0  0  0  0  0  0
  -21.6847   -6.0730   22.5285 C   0  0  0  0  0  0
  -21.4009   -6.5639   23.8215 C   0  0  0  0  0  0
  -21.3658   -5.6792   24.9178 C   0  0  0  0  0  0
  -21.6043   -4.3053   24.7228 C   0  0  0  0  0  0
  -21.8821   -3.8143   23.4350 C   0  0  0  0  0  0
  -21.9191   -4.6960   22.3407 C   0  0  0  0  0  0
  -22.7870  -13.5231   21.1851 C   0  0  0  0  0  0
  -22.1663   -4.2143   21.0985 F   0  0  0  0  0  0
  -21.5630   -3.4537   25.7741 F   0  0  0  0  0  0
  -30.0199  -13.3537   20.4203 N   0  0  0  0  0  0
  -26.2993  -12.9264   20.3301 N   0  0  0  0  0  0
  -25.9296  -11.6440   20.5747 N   0  0  0  0  0  0
  -22.0496  -12.8239   22.0406 N   0  0  0  0  0  0
  -25.4309  -15.1843   20.4063 N   0  0  0  0  0  0
  -31.7831  -14.7877   20.1961 O   0  0  0  0  0  0
  -21.6630   -6.8870   21.4242 O   0  0  0  0  0  0
  -22.3574  -14.5546   20.6696 O   0  0  0  0  0  0
  -24.6191  -31.8642   23.2061 C   0  0  0  0  0  0
  -25.9065  -32.4802   23.8369 C   0  0  1  0  0  0
  -27.2351  -27.3840   20.1150 C   0  0  0  0  0  0
  -25.5906  -33.8604   24.2300 N   0  0  0  0  0  0
  -23.4099  -30.4846   21.5484 C   0  0  2  0  0  0
  -24.8576  -28.9358   20.1233 C   0  0  0  0  0  0
  -22.7430  -29.4638   22.4990 C   0  0  0  0  0  0
  -18.0268  -28.1380   22.8487 C   0  0  0  0  0  0
  -24.1486  -36.7308   23.2640 C   0  0  0  0  0  0
  -25.9422  -30.8134   21.3659 C   0  0  0  0  0  0
  -26.0204  -29.4401   20.7206 C   0  0  0  0  0  0
  -27.2149  -28.6739   20.7088 C   0  0  0  0  0  0
  -26.0537  -26.9004   19.5177 C   0  0  0  0  0  0
  -24.8705  -27.6664   19.5185 C   0  0  0  0  0  0
  -23.6223  -29.8109   20.1661 C   0  0  0  0  0  0
  -25.4108  -36.3100   24.0335 C   0  0  1  0  0  0
  -20.5861  -28.3668   23.1318 C   0  0  2  0  0  0
  -20.6756  -26.9402   22.5421 C   0  0  0  0  0  0
  -19.5738  -26.6384   21.5217 C   0  0  0  0  0  0
  -18.1917  -26.7923   22.1625 C   0  0  0  0  0  0
  -19.1520  -28.8841   23.2894 C   0  0  0  0  0  0
  -18.9446  -30.1446   23.8903 C   0  0  0  0  0  0
  -17.6449  -30.6585   24.0563 C   0  0  0  0  0  0
  -25.9041  -34.9466   23.5116 C   0  0  0  0  0  0
  -16.5338  -29.9085   23.6331 C   0  0  0  0  0  0
  -16.7258  -28.6504   23.0347 C   0  0  0  0  0  0
  -26.4475  -31.6594   25.0716 C   0  0  0  0  0  0
  -25.3731  -31.3710   26.1462 C   0  0  0  0  0  0
  -27.0309  -30.3030   24.6119 C   0  0  0  0  0  0
  -27.6046  -32.4322   25.7483 C   0  0  0  0  0  0
  -27.5582  -37.1802   24.8461 C   0  0  0  0  0  0
  -21.4152  -29.3033   22.3728 N   0  0  0  0  0  0
  -26.4288  -37.3790   23.9415 N   0  0  0  0  0  0
  -24.6754  -31.0697   22.0984 N   0  0  0  0  0  0
  -23.4179  -28.8189   23.3056 O   0  0  0  0  0  0
  -28.3928  -26.6292   20.0306 O   0  0  0  0  0  0
  -26.5607  -34.8927   22.4683 O   0  0  0  0  0  0
  -23.5374  -32.1419   23.7429 O   0  0  0  0  0  0
  -30.0787  -18.0863   20.5845 C   0  0  0  0  0  0
  -29.4594  -16.9925   22.6633 C   0  0  0  0  0  0
  -30.0068  -19.3800   21.2055 C   0  0  0  0  0  0
  -29.6852  -19.4384   22.5935 C   0  0  0  0  0  0
  -29.8329  -16.8825   21.3128 C   0  0  0  0  0  0
  -29.3859  -18.2446   23.2981 C   0  0  0  0  0  0
  -28.8786  -24.2346   20.0497 C   0  0  0  0  0  0
  -28.1830  -21.2590   19.2787 C   0  0  0  0  0  0
  -27.2187  -20.5118   19.8430 C   0  0  0  0  0  0
  -28.4628  -25.3873   20.6519 C   0  0  0  0  0  0
  -29.1325  -24.1778   18.5440 C   0  0  0  0  0  0
  -29.1987  -22.9355   20.8456 C   0  0  0  0  0  0
  -28.2115  -21.8101   17.8627 C   0  0  0  0  0  0
  -28.0688  -23.3478   17.7859 C   0  0  0  0  0  0
  -29.6639  -20.7589   23.3574 C   0  0  0  0  0  0
  -30.4104  -20.6632   20.4096 C   0  0  0  0  0  0
  -29.7121  -15.5802   20.7159 N   0  0  0  0  0  0
  -29.3968  -21.7105   19.9957 N   0  3  2  0  0  0
  -28.9027  -18.2735   24.9589 Cl  0  0  0  0  0  0
  -31.4842  -12.5078   19.1181 H   0  0  0  0  0  0
  -30.3929  -11.3552   19.8423 H   0  0  0  0  0  0
  -29.7606  -11.7650   17.4447 H   0  0  0  0  0  0
  -29.6510  -13.4800   17.7445 H   0  0  0  0  0  0
  -27.8550  -11.2879   18.8403 H   0  0  0  0  0  0
  -27.3699  -12.5891   17.7851 H   0  0  0  0  0  0
  -27.6803  -14.2357   19.5339 H   0  0  0  0  0  0
  -28.7068  -11.9771   21.3357 H   0  0  0  0  0  0
  -28.4600  -13.6169   21.8580 H   0  0  0  0  0  0
  -25.2743   -9.5680   22.4765 H   0  0  0  0  0  0
  -23.9996   -7.4619   22.7470 H   0  0  0  0  0  0
  -21.0824   -8.8744   19.8961 H   0  0  0  0  0  0
  -22.3664  -10.9655   19.6164 H   0  0  0  0  0  0
  -21.1999   -7.6148   23.9719 H   0  0  0  0  0  0
  -21.1482   -6.0522   25.9082 H   0  0  0  0  0  0
  -22.0602   -2.7605   23.2848 H   0  0  0  0  0  0
  -22.4088  -11.9896   22.4806 H   0  0  0  0  0  0
  -21.1115  -13.1283   22.2588 H   0  0  0  0  0  0
  -24.6576  -15.8326   20.5094 H   0  0  0  0  0  0
  -26.2679  -15.6269   20.0494 H   0  0  0  0  0  0
  -26.7135  -32.5498   23.1129 H   0  0  0  0  0  0
  -25.0037  -33.9754   25.0433 H   0  0  0  0  0  0
  -22.7008  -31.3025   21.4053 H   0  0  0  0  0  0
  -23.3748  -35.9639   23.3296 H   0  0  0  0  0  0
  -24.3579  -36.8933   22.2055 H   0  0  0  0  0  0
  -23.7236  -37.6512   23.6657 H   0  0  0  0  0  0
  -26.0579  -31.5731   20.5917 H   0  0  0  0  0  0
  -26.8294  -30.8714   21.9845 H   0  0  0  0  0  0
  -28.1183  -29.0656   21.1548 H   0  0  0  0  0  0
  -26.0562  -25.9306   19.0405 H   0  0  0  0  0  0
  -23.9778  -27.2728   19.0518 H   0  0  0  0  0  0
  -23.7366  -30.5837   19.4050 H   0  0  0  0  0  0
  -22.7440  -29.2348   19.8688 H   0  0  0  0  0  0
  -25.1284  -36.1956   25.0827 H   0  0  0  0  0  0
  -20.9945  -28.3230   24.1443 H   0  0  0  0  0  0
  -20.5665  -26.2273   23.3606 H   0  0  0  0  0  0
  -21.6624  -26.7447   22.1212 H   0  0  0  0  0  0
  -19.6900  -25.6300   21.1238 H   0  0  0  0  0  0
  -19.6684  -27.3200   20.6754 H   0  0  0  0  0  0
  -17.4190  -26.6670   21.4025 H   0  0  0  0  0  0
  -18.0318  -26.0066   22.9023 H   0  0  0  0  0  0
  -19.7923  -30.7255   24.2281 H   0  0  0  0  0  0
  -17.5007  -31.6270   24.5155 H   0  0  0  0  0  0
  -15.5340  -30.2988   23.7656 H   0  0  0  0  0  0
  -15.8653  -28.0830   22.7055 H   0  0  0  0  0  0
  -24.5894  -30.7072   25.7793 H   0  0  0  0  0  0
  -24.8933  -32.2869   26.4922 H   0  0  0  0  0  0
  -25.8075  -30.8864   27.0214 H   0  0  0  0  0  0
  -26.2860  -29.6793   24.1166 H   0  0  0  0  0  0
  -27.4056  -29.7269   25.4589 H   0  0  0  0  0  0
  -27.8704  -30.4334   23.9288 H   0  0  0  0  0  0
  -27.2659  -33.3616   26.2074 H   0  0  0  0  0  0
  -28.3846  -32.6898   25.0305 H   0  0  0  0  0  0
  -28.0725  -31.8442   26.5389 H   0  0  0  0  0  0
  -28.2586  -38.0113   24.7530 H   0  0  0  0  0  0
  -28.1090  -36.2647   24.6252 H   0  0  0  0  0  0
  -27.2304  -37.1409   25.8863 H   0  0  0  0  0  0
  -20.9323  -29.8751   21.6939 H   0  0  0  0  0  0
  -26.0175  -38.2866   24.1427 H   0  0  0  0  0  0
  -30.3241  -18.0121   19.5339 H   0  0  0  0  0  0
  -29.2028  -16.1078   23.2292 H   0  0  0  0  0  0
  -26.3413  -20.2201   19.2839 H   0  0  0  0  0  0
  -27.2830  -20.1804   20.8693 H   0  0  0  0  0  0
  -28.2861  -25.4674   21.7159 H   0  0  0  0  0  0
  -30.1435  -23.8257   18.3350 H   0  0  0  0  0  0
  -29.1021  -25.1938   18.1482 H   0  0  0  0  0  0
  -28.4204  -22.7605   21.5881 H   0  0  0  0  0  0
  -30.1187  -23.1368   21.3937 H   0  0  0  0  0  0
  -27.4042  -21.3475   17.2934 H   0  0  0  0  0  0
  -29.1315  -21.4927   17.3691 H   0  0  0  0  0  0
  -28.1094  -23.6303   16.7326 H   0  0  0  0  0  0
  -27.0724  -23.6406   18.1217 H   0  0  0  0  0  0
  -30.3708  -21.4842   22.9654 H   0  0  0  0  0  0
  -29.9519  -20.6254   24.3995 H   0  0  0  0  0  0
  -28.6637  -21.1914   23.3470 H   0  0  0  0  0  0
  -30.8508  -20.3161   19.4741 H   0  0  0  0  0  0
  -31.2462  -21.1436   20.9174 H   0  0  0  0  0  0
  -28.7858  -15.1910   20.8019 H   0  0  0  0  0  0
  -29.9444  -22.1447   19.2676 H   0  0  0  0  0  0
  1 25  1  0  0  0
  1 30  2  0  0  0
  1 87  1  0  0  0
  2  3  1  0  0  0
  2 25  1  0  0  0
  2 90  1  0  0  0
  2 91  1  0  0  0
  3  4  1  0  0  0
  3 92  1  0  0  0
  3 93  1  0  0  0
  4  5  1  0  0  0
  4 94  1  0  0  0
  4 95  1  0  0  0
  5  6  1  0  0  0
  5 26  1  0  0  0
  5 96  1  0  0  0
  6 25  1  0  0  0
  6 97  1  0  0  0
  6 98  1  0  0  0
  7  8  2  0  0  0
  7 26  1  0  0  0
  7 29  1  0  0  0
  8  9  1  0  0  0
  8 22  1  0  0  0
  9 10  1  0  0  0
  9 27  2  0  0  0
 10 11  2  0  0  0
 10 15  1  0  0  0
 11 12  1  0  0  0
 11 99  1  0  0  0
 12 13  2  0  0  0
 12100  1  0  0  0
 13 14  1  0  0  0
 13 31  1  0  0  0
 14 15  2  0  0  0
 14101  1  0  0  0
 15102  1  0  0  0
 16 17  2  0  0  0
 16 21  1  0  0  0
 16 31  1  0  0  0
 17 18  1  0  0  0
 17103  1  0  0  0
 18 19  2  0  0  0
 18104  1  0  0  0
 19 20  1  0  0  0
 19 24  1  0  0  0
 20 21  2  0  0  0
 20105  1  0  0  0
 21 23  1  0  0  0
 22 28  1  0  0  0
 22 32  2  0  0  0
 26 27  1  0  0  0
 28106  1  0  0  0
 28107  1  0  0  0
 29108  1  0  0  0
 29109  1  0  0  0
 33 34  1  0  0  0
 33 66  1  0  0  0
 33 70  2  0  0  0
 34 36  1  0  0  0
 34 59  1  0  0  0
 34110  1  0  0  0
 35 44  2  0  0  0
 35 45  1  0  0  0
 35 68  1  0  0  0
 36 56  1  0  0  0
 36111  1  0  0  0
 37 39  1  0  0  0
 37 47  1  0  0  0
 37 66  1  0  0  0
 37112  1  0  0  0
 38 43  2  0  0  0
 38 46  1  0  0  0
 38 47  1  0  0  0
 39 64  1  0  0  0
 39 67  2  0  0  0
 40 52  1  0  0  0
 40 53  2  0  0  0
 40 58  1  0  0  0
 41113  1  0  0  0
 41114  1  0  0  0
 41115  1  0  0  0
 41 48  1  0  0  0
 42 43  1  0  0  0
 42 66  1  0  0  0
 42116  1  0  0  0
 42117  1  0  0  0
 43 44  1  0  0  0
 44118  1  0  0  0
 45 46  2  0  0  0
 45119  1  0  0  0
 46120  1  0  0  0
 47121  1  0  0  0
 47122  1  0  0  0
 48 56  1  0  0  0
 48 65  1  0  0  0
 48123  1  0  0  0
 49 50  1  0  0  0
 49 53  1  0  0  0
 49 64  1  0  0  0
 49124  1  0  0  0
 50 51  1  0  0  0
 50125  1  0  0  0
 50126  1  0  0  0
 51 52  1  0  0  0
 51127  1  0  0  0
 51128  1  0  0  0
 52129  1  0  0  0
 52130  1  0  0  0
 53 54  1  0  0  0
 54 55  2  0  0  0
 54131  1  0  0  0
 55 57  1  0  0  0
 55132  1  0  0  0
 56 69  2  0  0  0
 57 58  2  0  0  0
 57133  1  0  0  0
 58134  1  0  0  0
 59 60  1  0  0  0
 59 61  1  0  0  0
 59 62  1  0  0  0
 60135  1  0  0  0
 60136  1  0  0  0
 60137  1  0  0  0
 61138  1  0  0  0
 61139  1  0  0  0
 61140  1  0  0  0
 62141  1  0  0  0
 62142  1  0  0  0
 62143  1  0  0  0
 63 65  1  0  0  0
 63144  1  0  0  0
 63145  1  0  0  0
 63146  1  0  0  0
 64147  1  0  0  0
 65148  1  0  0  0
 68 80  1  0  0  0
 71 73  2  0  0  0
 71 75  1  0  0  0
 71149  1  0  0  0
 72 75  2  0  0  0
 72 76  1  0  0  0
 72150  1  0  0  0
 73 74  1  0  0  0
 73 86  1  0  0  0
 74 76  2  0  0  0
 74 85  1  0  0  0
 75 87  1  0  0  0
 76 89  1  0  0  0
 77 80  2  0  0  0
 77 81  1  0  0  0
 77 82  1  0  0  0
 78 79  2  0  0  0
 78 83  1  0  0  0
 78 88  1  0  0  0
 79151  1  0  0  0
 79152  1  0  0  0
 80153  1  0  0  0
 81 84  1  0  0  0
 81154  1  0  0  0
 81155  1  0  0  0
 82 88  1  0  0  0
 82156  1  0  0  0
 82157  1  0  0  0
 83 84  1  0  0  0
 83158  1  0  0  0
 83159  1  0  0  0
 84160  1  0  0  0
 84161  1  0  0  0
 85162  1  0  0  0
 85163  1  0  0  0
 85164  1  0  0  0
 86165  1  0  0  0
 86166  1  0  0  0
 86 88  1  0  0  0
 87167  1  0  0  0
 88168  1  0  0  0
M  CHG  1  88   1
M  ISO  4   1 100  68 101  80 101  87 100
M  END
> <chiral flag>
0

> <version>
0

> <s_m_source_file>
/data/baiqing/PycharmProjects/Reinvent-master-3.2/result/LINK_invent/BTK/process_docking_weight1_custom_product_contain_oxygen_bond_distance_aromatic_linkinvent_7_9_3/rearranged_h_0044.sdf

> <i_m_source_file_index>
56

> <r_mmod_Potential_Energy-OPLS-2005>
-25.5308361053467

> <r_mmod_Stretch_Energy-OPLS-2005>
57.05810546875

> <r_mmod_Bend_Energy-OPLS-2005>
151.659774780273

> <r_mmod_Torsional_Energy-OPLS-2005>
276.757232666016

> <r_mmod_Improper_Torsional_Energy-OPLS-2005>
11.6301746368408

> <r_mmod_Van_der_Waal_Energy-OPLS-2005>
137.149673461914

> <r_mmod_Electrostatic_Energy-OPLS-2005>
-254.504180908203

> <r_mmod_Solvation_Energy-OPLS-2005>
-433.423187255859

> <b_mmod_Minimization_Converged-OPLS-2005>
0

> <r_mmod_RMS_Derivative-OPLS-2005>
0.953079223632812

$$$$
56
                    3D
 Structure written by MMmdl.
167176  0  0  1  0            999 V2000
  -30.5820  -14.7541   20.4198 C   0  0  0  0  0  0
  -30.4447  -12.4361   19.4941 C   0  0  0  0  0  0
  -29.5285  -12.4207   18.2492 C   0  0  0  0  0  0
  -28.0408  -12.3124   18.6471 C   0  0  0  0  0  0
  -27.6434  -13.2265   19.8395 C   0  0  2  0  0  0
  -28.6809  -13.1575   20.9784 C   0  0  0  0  0  0
  -25.2531  -13.8191   20.5667 C   0  0  0  0  0  0
  -24.1807  -13.0445   20.9180 C   0  0  0  0  0  0
  -24.6384  -11.6919   20.8724 C   0  0  0  0  0  0
  -23.9058  -10.4297   21.0405 C   0  0  0  0  0  0
  -24.3614   -9.4210   21.9176 C   0  0  0  0  0  0
  -23.6290   -8.2242   22.0748 C   0  0  0  0  0  0
  -22.4271   -8.0274   21.3537 C   0  0  0  0  0  0
  -21.9902   -9.0251   20.4647 C   0  0  0  0  0  0
  -22.7234  -10.2127   20.3056 C   0  0  0  0  0  0
  -21.6846   -6.0741   22.5282 C   0  0  0  0  0  0
  -21.4011   -6.5641   23.8217 C   0  0  0  0  0  0
  -21.3658   -5.6787   24.9175 C   0  0  0  0  0  0
  -21.6042   -4.3049   24.7222 C   0  0  0  0  0  0
  -21.8819   -3.8148   23.4342 C   0  0  0  0  0  0
  -21.9186   -4.6970   22.3401 C   0  0  0  0  0  0
  -22.7824  -13.5234   21.1847 C   0  0  0  0  0  0
  -22.1659   -4.2160   21.0974 F   0  0  0  0  0  0
  -21.5631   -3.4529   25.7732 F   0  0  0  0  0  0
  -29.9846  -13.5121   20.4049 N   0  0  0  0  0  0
  -26.2942  -12.9388   20.3200 N   0  0  0  0  0  0
  -25.9307  -11.6541   20.5704 N   0  0  0  0  0  0
  -22.0455  -12.8240   22.0408 N   0  0  0  0  0  0
  -25.4245  -15.1916   20.4117 N   0  0  0  0  0  0
  -31.7697  -14.8617   20.0996 O   0  0  0  0  0  0
  -21.6629   -6.8879   21.4240 O   0  0  0  0  0  0
  -22.3512  -14.5534   20.6674 O   0  0  0  0  0  0
  -24.6309  -31.8546   23.1947 C   0  0  0  0  0  0
  -25.9150  -32.4750   23.8288 C   0  0  1  0  0  0
  -27.2398  -27.2802   20.1250 C   0  0  0  0  0  0
  -25.5957  -33.8545   24.2242 N   0  0  0  0  0  0
  -23.4266  -30.4735   21.5353 C   0  0  2  0  0  0
  -24.8760  -28.9130   20.1066 C   0  0  0  0  0  0
  -22.7511  -29.4593   22.4888 C   0  0  0  0  0  0
  -18.0295  -28.1391   22.8468 C   0  0  0  0  0  0
  -24.1489  -36.7259   23.2642 C   0  0  0  0  0  0
  -25.9682  -30.7714   21.3708 C   0  0  0  0  0  0
  -26.0411  -29.3934   20.7151 C   0  0  0  0  0  0
  -27.2171  -28.5871   20.7148 C   0  0  0  0  0  0
  -26.0499  -26.8474   19.5005 C   0  0  0  0  0  0
  -24.8845  -27.6464   19.4927 C   0  0  0  0  0  0
  -23.6453  -29.7989   20.1520 C   0  0  0  0  0  0
  -25.4120  -36.3069   24.0335 C   0  0  1  0  0  0
  -20.5903  -28.3700   23.1262 C   0  0  2  0  0  0
  -20.6777  -26.9417   22.5408 C   0  0  0  0  0  0
  -19.5753  -26.6388   21.5205 C   0  0  0  0  0  0
  -18.1933  -26.7932   22.1617 C   0  0  0  0  0  0
  -19.1554  -28.8857   23.2858 C   0  0  0  0  0  0
  -18.9483  -30.1457   23.8885 C   0  0  0  0  0  0
  -17.6485  -30.6589   24.0555 C   0  0  0  0  0  0
  -25.9071  -34.9438   23.5094 C   0  0  0  0  0  0
  -16.5369  -29.9092   23.6327 C   0  0  0  0  0  0
  -16.7288  -28.6506   23.0350 C   0  0  0  0  0  0
  -26.4510  -31.6594   25.0690 C   0  0  0  0  0  0
  -25.3722  -31.3772   26.1412 C   0  0  0  0  0  0
  -27.0371  -30.3020   24.6171 C   0  0  0  0  0  0
  -27.6073  -32.4333   25.7459 C   0  0  0  0  0  0
  -27.5580  -37.1790   24.8469 C   0  0  0  0  0  0
  -21.4220  -29.3040   22.3648 N   0  0  0  0  0  0
  -26.4292  -37.3779   23.9417 N   0  0  0  0  0  0
  -24.6938  -31.0520   22.0903 N   0  0  0  0  0  0
  -23.4225  -28.8150   23.2991 O   0  0  0  0  0  0
  -28.3832  -26.4638   20.2264 O   0  0  0  0  0  0
  -26.5632  -34.8926   22.4660 O   0  0  0  0  0  0
  -23.5470  -32.1342   23.7271 O   0  0  0  0  0  0
  -29.4285  -18.4306   17.8114 C   0  0  0  0  0  0
  -29.4272  -18.4738   20.5747 C   0  0  0  0  0  0
  -29.1091  -19.6400   18.4551 C   0  0  0  0  0  0
  -29.6988  -17.2354   18.5029 C   0  0  0  0  0  0
  -29.1461  -19.7302   19.8745 C   0  0  0  0  0  0
  -29.7002  -17.1918   19.9250 C   0  0  0  0  0  0
  -28.3425  -23.8153   20.5048 C   0  0  0  0  0  0
  -27.6769  -23.8365   21.6730 C   0  0  0  0  0  0
  -30.6419  -23.8504   18.6774 C   0  0  0  0  0  0
  -30.0662  -25.1817   19.1832 C   0  0  0  0  0  0
  -30.4595  -22.7197   19.7067 C   0  0  0  0  0  0
  -28.5834  -25.1129   19.6150 C   0  0  2  0  0  0
  -28.6759  -20.7792   17.5415 C   0  0  0  0  0  0
  -29.8548  -15.9989   17.6416 C   0  0  0  0  0  0
  -28.7708  -21.1073   20.6198 C   0  0  0  0  0  0
  -29.7844  -15.8776   20.6356 N   0  0  0  0  0  0
  -29.0211  -22.4912   19.9704 N   0  3  1  0  0  0
  -31.4861  -12.5649   19.1928 H   0  0  0  0  0  0
  -30.4016  -11.4715   20.0034 H   0  0  0  0  0  0
  -29.7927  -11.5756   17.6119 H   0  0  0  0  0  0
  -29.7041  -13.2948   17.6312 H   0  0  0  0  0  0
  -27.8649  -11.2709   18.9172 H   0  0  0  0  0  0
  -27.4001  -12.5077   17.7864 H   0  0  0  0  0  0
  -27.6377  -14.2465   19.4534 H   0  0  0  0  0  0
  -28.7096  -12.1548   21.4079 H   0  0  0  0  0  0
  -28.4102  -13.8322   21.7916 H   0  0  0  0  0  0
  -25.2773   -9.5689   22.4735 H   0  0  0  0  0  0
  -24.0007   -7.4638   22.7466 H   0  0  0  0  0  0
  -21.0830   -8.8764   19.8960 H   0  0  0  0  0  0
  -22.3695  -10.9651   19.6154 H   0  0  0  0  0  0
  -21.2011   -7.6150   23.9730 H   0  0  0  0  0  0
  -21.1479   -6.0512   25.9079 H   0  0  0  0  0  0
  -22.0603   -2.7611   23.2829 H   0  0  0  0  0  0
  -22.4048  -11.9929   22.4856 H   0  0  0  0  0  0
  -21.1073  -13.1279   22.2572 H   0  0  0  0  0  0
  -24.6585  -15.8457   20.5275 H   0  0  0  0  0  0
  -26.2775  -15.6320   20.0892 H   0  0  0  0  0  0
  -26.7225  -32.5395   23.1032 H   0  0  0  0  0  0
  -25.0141  -33.9649   25.0412 H   0  0  0  0  0  0
  -22.7212  -31.2936   21.3859 H   0  0  0  0  0  0
  -23.3775  -35.9572   23.3305 H   0  0  0  0  0  0
  -24.3560  -36.8874   22.2055 H   0  0  0  0  0  0
  -23.7222  -37.6455   23.6649 H   0  0  0  0  0  0
  -26.1097  -31.5331   20.6029 H   0  0  0  0  0  0
  -26.8462  -30.8178   22.0043 H   0  0  0  0  0  0
  -28.1100  -28.9513   21.2036 H   0  0  0  0  0  0
  -25.9926  -25.8700   19.0452 H   0  0  0  0  0  0
  -23.9890  -27.2653   19.0228 H   0  0  0  0  0  0
  -23.7708  -30.5708   19.3908 H   0  0  0  0  0  0
  -22.7630  -29.2313   19.8494 H   0  0  0  0  0  0
  -25.1311  -36.1911   25.0833 H   0  0  0  0  0  0
  -20.9985  -28.3288   24.1386 H   0  0  0  0  0  0
  -20.5661  -26.2317   23.3620 H   0  0  0  0  0  0
  -21.6650  -26.7416   22.1220 H   0  0  0  0  0  0
  -19.6909  -25.6295   21.1246 H   0  0  0  0  0  0
  -19.6699  -27.3186   20.6723 H   0  0  0  0  0  0
  -17.4206  -26.6676   21.4020 H   0  0  0  0  0  0
  -18.0321  -26.0085   22.9022 H   0  0  0  0  0  0
  -19.7967  -30.7259   24.2269 H   0  0  0  0  0  0
  -17.5049  -31.6273   24.5162 H   0  0  0  0  0  0
  -15.5375  -30.3000   23.7647 H   0  0  0  0  0  0
  -15.8683  -28.0822   22.7082 H   0  0  0  0  0  0
  -24.5868  -30.7157   25.7731 H   0  0  0  0  0  0
  -24.8942  -32.2965   26.4817 H   0  0  0  0  0  0
  -25.8014  -30.8947   27.0201 H   0  0  0  0  0  0
  -26.2962  -29.6749   24.1202 H   0  0  0  0  0  0
  -27.4094  -29.7296   25.4675 H   0  0  0  0  0  0
  -27.8807  -30.4315   23.9388 H   0  0  0  0  0  0
  -27.2701  -33.3647   26.2013 H   0  0  0  0  0  0
  -28.3896  -32.6877   25.0295 H   0  0  0  0  0  0
  -28.0727  -31.8475   26.5395 H   0  0  0  0  0  0
  -28.2625  -38.0063   24.7535 H   0  0  0  0  0  0
  -28.1062  -36.2609   24.6299 H   0  0  0  0  0  0
  -27.2292  -37.1451   25.8869 H   0  0  0  0  0  0
  -20.9416  -29.8773   21.6854 H   0  0  0  0  0  0
  -26.0174  -38.2860   24.1421 H   0  0  0  0  0  0
  -29.3978  -18.4029   16.7300 H   0  0  0  0  0  0
  -29.3889  -18.4863   21.6551 H   0  0  0  0  0  0
  -27.2492  -24.7603   22.0369 H   0  0  0  0  0  0
  -27.5465  -22.9596   22.2882 H   0  0  0  0  0  0
  -31.7043  -23.9763   18.4649 H   0  0  0  0  0  0
  -30.1757  -23.5879   17.7277 H   0  0  0  0  0  0
  -30.1890  -25.9457   18.4139 H   0  0  0  0  0  0
  -30.6710  -25.5131   20.0304 H   0  0  0  0  0  0
  -30.9655  -22.9682   20.6414 H   0  0  0  0  0  0
  -30.9289  -21.8085   19.3351 H   0  0  0  0  0  0
  -27.9792  -25.0138   18.7126 H   0  0  0  0  0  0
  -28.3286  -20.3912   16.5823 H   0  0  0  0  0  0
  -29.5093  -21.4429   17.3194 H   0  0  0  0  0  0
  -27.8373  -21.3423   17.9481 H   0  0  0  0  0  0
  -29.7271  -16.2165   16.5816 H   0  0  0  0  0  0
  -29.0772  -15.2910   17.9141 H   0  0  0  0  0  0
  -30.8386  -15.5471   17.7566 H   0  0  0  0  0  0
  -29.2573  -21.1044   21.5957 H   0  0  0  0  0  0
  -27.7032  -21.0416   20.8288 H   0  0  0  0  0  0
  -28.9551  -15.6637   21.1699 H   0  0  0  0  0  0
  -28.6289  -22.3399   19.0534 H   0  0  0  0  0  0
  1 25  1  0  0  0
  1 30  2  0  0  0
  1 86  1  0  0  0
  2  3  1  0  0  0
  2 25  1  0  0  0
  2 88  1  0  0  0
  2 89  1  0  0  0
  3  4  1  0  0  0
  3 90  1  0  0  0
  3 91  1  0  0  0
  4  5  1  0  0  0
  4 92  1  0  0  0
  4 93  1  0  0  0
  5  6  1  0  0  0
  5 26  1  0  0  0
  5 94  1  0  0  0
  6 25  1  0  0  0
  6 95  1  0  0  0
  6 96  1  0  0  0
  7  8  2  0  0  0
  7 26  1  0  0  0
  7 29  1  0  0  0
  8  9  1  0  0  0
  8 22  1  0  0  0
  9 10  1  0  0  0
  9 27  2  0  0  0
 10 11  2  0  0  0
 10 15  1  0  0  0
 11 12  1  0  0  0
 11 97  1  0  0  0
 12 13  2  0  0  0
 12 98  1  0  0  0
 13 14  1  0  0  0
 13 31  1  0  0  0
 14 15  2  0  0  0
 14 99  1  0  0  0
 15100  1  0  0  0
 16 17  2  0  0  0
 16 21  1  0  0  0
 16 31  1  0  0  0
 17 18  1  0  0  0
 17101  1  0  0  0
 18 19  2  0  0  0
 18102  1  0  0  0
 19 20  1  0  0  0
 19 24  1  0  0  0
 20 21  2  0  0  0
 20103  1  0  0  0
 21 23  1  0  0  0
 22 28  1  0  0  0
 22 32  2  0  0  0
 26 27  1  0  0  0
 28104  1  0  0  0
 28105  1  0  0  0
 29106  1  0  0  0
 29107  1  0  0  0
 33 34  1  0  0  0
 33 66  1  0  0  0
 33 70  2  0  0  0
 34 36  1  0  0  0
 34 59  1  0  0  0
 34108  1  0  0  0
 35 44  2  0  0  0
 35 45  1  0  0  0
 35 68  1  0  0  0
 36 56  1  0  0  0
 36109  1  0  0  0
 37 39  1  0  0  0
 37 47  1  0  0  0
 37 66  1  0  0  0
 37110  1  0  0  0
 38 43  2  0  0  0
 38 46  1  0  0  0
 38 47  1  0  0  0
 39 64  1  0  0  0
 39 67  2  0  0  0
 40 52  1  0  0  0
 40 53  2  0  0  0
 40 58  1  0  0  0
 41111  1  0  0  0
 41112  1  0  0  0
 41113  1  0  0  0
 41 48  1  0  0  0
 42 43  1  0  0  0
 42 66  1  0  0  0
 42114  1  0  0  0
 42115  1  0  0  0
 43 44  1  0  0  0
 44116  1  0  0  0
 45 46  2  0  0  0
 45117  1  0  0  0
 46118  1  0  0  0
 47119  1  0  0  0
 47120  1  0  0  0
 48 56  1  0  0  0
 48 65  1  0  0  0
 48121  1  0  0  0
 49 50  1  0  0  0
 49 53  1  0  0  0
 49 64  1  0  0  0
 49122  1  0  0  0
 50 51  1  0  0  0
 50123  1  0  0  0
 50124  1  0  0  0
 51 52  1  0  0  0
 51125  1  0  0  0
 51126  1  0  0  0
 52127  1  0  0  0
 52128  1  0  0  0
 53 54  1  0  0  0
 54 55  2  0  0  0
 54129  1  0  0  0
 55 57  1  0  0  0
 55130  1  0  0  0
 56 69  2  0  0  0
 57 58  2  0  0  0
 57131  1  0  0  0
 58132  1  0  0  0
 59 60  1  0  0  0
 59 61  1  0  0  0
 59 62  1  0  0  0
 60133  1  0  0  0
 60134  1  0  0  0
 60135  1  0  0  0
 61136  1  0  0  0
 61137  1  0  0  0
 61138  1  0  0  0
 62139  1  0  0  0
 62140  1  0  0  0
 62141  1  0  0  0
 63 65  1  0  0  0
 63142  1  0  0  0
 63143  1  0  0  0
 63144  1  0  0  0
 64145  1  0  0  0
 65146  1  0  0  0
 68 82  1  0  0  0
 71 73  2  0  0  0
 71 74  1  0  0  0
 71147  1  0  0  0
 72 75  2  0  0  0
 72 76  1  0  0  0
 72148  1  0  0  0
 73 75  1  0  0  0
 73 83  1  0  0  0
 74 76  2  0  0  0
 74 84  1  0  0  0
 75 85  1  0  0  0
 76 86  1  0  0  0
 77 78  2  0  0  0
 77 82  1  0  0  0
 77 87  1  0  0  0
 78149  1  0  0  0
 78150  1  0  0  0
 79 80  1  0  0  0
 79 81  1  0  0  0
 79151  1  0  0  0
 79152  1  0  0  0
 80 82  1  0  0  0
 80153  1  0  0  0
 80154  1  0  0  0
 81 87  1  0  0  0
 81155  1  0  0  0
 81156  1  0  0  0
 82157  1  0  0  0
 83158  1  0  0  0
 83159  1  0  0  0
 83160  1  0  0  0
 84161  1  0  0  0
 84162  1  0  0  0
 84163  1  0  0  0
 85164  1  0  0  0
 85165  1  0  0  0
 85 87  1  0  0  0
 86166  1  0  0  0
 87167  1  0  0  0
M  CHG  1  87   1
M  ISO  4   1 100  68 101  82 101  86 100
M  END
> <chiral flag>
0

> <version>
0

> <s_m_source_file>
/data/baiqing/PycharmProjects/Reinvent-master-3.2/result/LINK_invent/BTK/process_docking_weight1_custom_product_contain_oxygen_bond_distance_aromatic_linkinvent_7_9_3/rearranged_h_0044.sdf

> <i_m_source_file_index>
57

> <r_mmod_Potential_Energy-OPLS-2005>
81.3329315185547

> <r_mmod_Stretch_Energy-OPLS-2005>
136.274475097656

> <r_mmod_Bend_Energy-OPLS-2005>
190.745758056641

> <r_mmod_Torsional_Energy-OPLS-2005>
253.301879882812

> <r_mmod_Improper_Torsional_Energy-OPLS-2005>
6.29471111297607

> <r_mmod_Van_der_Waal_Energy-OPLS-2005>
142.233459472656

> <r_mmod_Electrostatic_Energy-OPLS-2005>
-297.098052978516

> <r_mmod_Solvation_Energy-OPLS-2005>
-433.665649414062

> <b_mmod_Minimization_Converged-OPLS-2005>
0

> <r_mmod_RMS_Derivative-OPLS-2005>
2.06674289703369

$$$$
57
                    3D
 Structure written by MMmdl.
166175  0  0  1  0            999 V2000
  -29.3064  -18.1764   20.5250 C   0  0  0  0  0  0
  -30.0263  -14.9962   19.6735 C   0  0  0  0  0  0
  -29.5690  -13.7459   18.6502 C   0  0  0  0  0  0
  -28.4367  -12.8305   19.1355 C   0  0  0  0  0  0
  -27.5756  -13.8028   19.9434 C   0  0  2  0  0  0
  -28.3071  -14.9800   20.9064 C   0  0  0  0  0  0
  -25.1728  -13.9245   20.6234 C   0  0  0  0  0  0
  -24.1605  -13.0705   20.9386 C   0  0  0  0  0  0
  -24.6975  -11.7483   20.8626 C   0  0  0  0  0  0
  -23.9773  -10.4510   21.0161 C   0  0  0  0  0  0
  -24.4071   -9.4392   21.9082 C   0  0  0  0  0  0
  -23.6566   -8.2492   22.0741 C   0  0  0  0  0  0
  -22.4541   -8.0504   21.3547 C   0  0  0  0  0  0
  -22.0327   -9.0510   20.4628 C   0  0  0  0  0  0
  -22.7819  -10.2303   20.2933 C   0  0  0  0  0  0
  -21.6981   -6.0875   22.5256 C   0  0  0  0  0  0
  -21.4110   -6.5728   23.8203 C   0  0  0  0  0  0
  -21.3680   -5.6851   24.9144 C   0  0  0  0  0  0
  -21.6050   -4.3108   24.7185 C   0  0  0  0  0  0
  -21.8807   -3.8227   23.4287 C   0  0  0  0  0  0
  -21.9231   -4.7075   22.3363 C   0  0  0  0  0  0
  -22.7446  -13.4909   21.1895 C   0  0  0  0  0  0
  -22.1676   -4.2250   21.0942 F   0  0  0  0  0  0
  -21.5602   -3.4558   25.7682 F   0  0  0  0  0  0
  -29.0719  -16.3390   20.2912 N   0  0  0  0  0  0
  -26.3072  -13.1780   20.4293 N   0  0  0  0  0  0
  -26.0195  -11.8290   20.5841 N   0  0  0  0  0  0
  -22.0307  -12.7762   22.0484 N   0  0  0  0  0  0
  -25.2136  -15.3040   20.4409 N   0  0  0  0  0  0
  -30.5424  -17.7008   20.4493 O   0  0  0  0  0  0
  -21.6821   -6.9110   21.4246 O   0  0  0  0  0  0
  -22.2884  -14.5124   20.6759 O   0  0  0  0  0  0
  -25.0246  -31.6852   23.1581 C   0  0  0  0  0  0
  -26.1231  -32.4421   23.8559 C   0  0  1  0  0  0
  -27.9544  -25.5513   18.9558 C   0  0  0  0  0  0
  -25.6585  -33.8107   24.1890 N   0  0  0  0  0  0
  -23.7923  -29.7575   21.9280 C   0  0  2  0  0  0
  -25.2006  -27.1029   20.4427 C   0  0  0  0  0  0
  -22.7675  -29.4739   22.9572 C   0  0  0  0  0  0
  -18.0229  -28.0418   22.9592 C   0  0  0  0  0  0
  -24.1538  -36.7134   23.2539 C   0  0  0  0  0  0
  -27.1307  -30.0184   21.7987 C   0  0  0  0  0  0
  -27.3976  -28.1823   20.7864 C   0  0  0  0  0  0
  -28.6178  -27.1224   19.9603 C   0  0  0  0  0  0
  -26.2912  -25.2313   18.6957 C   0  0  0  0  0  0
  -25.0210  -25.9736   19.4209 C   0  0  0  0  0  0
  -23.6625  -28.0760   21.0115 C   0  0  0  0  0  0
  -25.4150  -36.2751   24.0148 C   0  0  1  0  0  0
  -20.5741  -28.3047   23.0805 C   0  0  2  0  0  0
  -20.7069  -27.0470   22.1320 C   0  0  0  0  0  0
  -19.4272  -26.2846   21.6771 C   0  0  0  0  0  0
  -18.1398  -26.5996   22.4842 C   0  0  0  0  0  0
  -19.1604  -28.8675   23.2199 C   0  0  0  0  0  0
  -18.9414  -30.1562   23.7023 C   0  0  0  0  0  0
  -17.6398  -30.6590   23.9229 C   0  0  0  0  0  0
  -25.9298  -34.9198   23.4766 C   0  0  0  0  0  0
  -16.5290  -29.8501   23.6589 C   0  0  0  0  0  0
  -16.7203  -28.5490   23.1583 C   0  0  0  0  0  0
  -26.5282  -31.6703   25.1572 C   0  0  0  0  0  0
  -25.3784  -31.4353   26.1561 C   0  0  0  0  0  0
  -27.1648  -30.2883   24.8996 C   0  0  0  0  0  0
  -27.5928  -32.5045   25.8723 C   0  0  0  0  0  0
  -27.5505  -37.1677   24.8414 C   0  0  0  0  0  0
  -21.4952  -29.3306   22.5577 N   0  0  0  0  0  0
  -26.4211  -37.3608   23.9376 N   0  0  0  0  0  0
  -25.3408  -30.5652   22.3823 N   0  0  0  0  0  0
  -23.1828  -29.1770   24.0477 O   0  0  0  0  0  0
  -27.1066  -24.2746   19.4367 O   0  0  0  0  0  0
  -26.5994  -34.8891   22.4409 O   0  0  0  0  0  0
  -23.8637  -32.0842   23.4113 O   0  0  0  0  0  0
  -26.7109  -27.4756   18.8450 C   0  0  0  0  0  0
  -25.9815  -28.8280   18.9291 C   0  0  0  0  0  0
  -26.6865  -26.6635   22.3636 C   0  0  0  0  0  0
  -27.0995  -25.7702   21.0004 C   0  0  0  0  0  0
  -25.7455  -28.1304   22.3450 C   0  0  0  0  0  0
  -25.5002  -29.3188   20.3352 C   0  0  0  0  0  0
  -24.0581  -23.7726   20.8495 C   0  0  0  0  0  0
  -23.1775  -23.7181   22.3266 C   0  0  0  0  0  0
  -25.7492  -24.1723   22.3703 C   0  0  0  0  0  0
  -25.7593  -23.7645   20.7087 C   0  0  2  0  0  0
  -23.7518  -24.5532   23.5353 C   0  0  2  0  0  0
  -22.8966  -25.2494   24.6688 C   0  0  0  0  0  0
  -28.1873  -22.9706   21.0174 C   0  0  0  0  0  0
  -25.0026  -26.9425   23.2967 C   0  0  0  0  0  0
  -28.5592  -20.2623   20.6907 N   0  0  0  0  0  0
  -24.7330  -25.3594   22.8115 N   0  3  1  0  0  0
  -24.9481  -30.9228   19.7294 Cl  0  0  0  0  0  0
  -30.7801  -15.5229   19.0797 H   0  0  0  0  0  0
  -30.6402  -14.5839   20.4871 H   0  0  0  0  0  0
  -30.4470  -13.1482   18.4035 H   0  0  0  0  0  0
  -29.2488  -14.2185   17.7210 H   0  0  0  0  0  0
  -28.8321  -12.0454   19.7923 H   0  0  0  0  0  0
  -27.8864  -12.3747   18.3039 H   0  0  0  0  0  0
  -27.2021  -14.4436   19.1398 H   0  0  0  0  0  0
  -28.8903  -14.5053   21.7056 H   0  0  0  0  0  0
  -27.5129  -15.4284   21.5049 H   0  0  0  0  0  0
  -25.3180   -9.5820   22.4735 H   0  0  0  0  0  0
  -24.0211   -7.4911   22.7527 H   0  0  0  0  0  0
  -21.1264   -8.9133   19.8909 H   0  0  0  0  0  0
  -22.4316  -10.9838   19.6024 H   0  0  0  0  0  0
  -21.2146   -7.6231   23.9747 H   0  0  0  0  0  0
  -21.1496   -6.0554   25.9057 H   0  0  0  0  0  0
  -22.0548   -2.7679   23.2761 H   0  0  0  0  0  0
  -22.4144  -11.9546   22.4900 H   0  0  0  0  0  0
  -21.0814  -13.0484   22.2611 H   0  0  0  0  0  0
  -24.3828  -15.8864   20.5054 H   0  0  0  0  0  0
  -26.0440  -15.8115   20.1570 H   0  0  0  0  0  0
  -26.9609  -32.4759   23.1623 H   0  0  0  0  0  0
  -25.0062  -33.8815   24.9589 H   0  0  0  0  0  0
  -23.2099  -30.4720   21.3458 H   0  0  0  0  0  0
  -23.3698  -35.9580   23.3036 H   0  0  0  0  0  0
  -24.3577  -36.9029   22.1988 H   0  0  0  0  0  0
  -23.7299  -37.6281   23.6661 H   0  0  0  0  0  0
  -27.4293  -30.7798   21.0862 H   0  0  0  0  0  0
  -27.9124  -30.1908   22.5193 H   0  0  0  0  0  0
  -29.6026  -27.4996   19.7536 H   0  0  0  0  0  0
  -26.0216  -24.7626   17.7646 H   0  0  0  0  0  0
  -24.0226  -25.8624   19.0232 H   0  0  0  0  0  0
  -22.9303  -28.0712   20.2348 H   0  0  0  0  0  0
  -23.2270  -27.4216   21.7559 H   0  0  0  0  0  0
  -25.1235  -36.1426   25.0602 H   0  0  0  0  0  0
  -20.8123  -28.0455   24.1205 H   0  0  0  0  0  0
  -21.5455  -26.4119   22.4411 H   0  0  0  0  0  0
  -20.9918  -27.3760   21.1157 H   0  0  0  0  0  0
  -19.5368  -25.1773   21.7015 H   0  0  0  0  0  0
  -19.2465  -26.5389   20.6248 H   0  0  0  0  0  0
  -17.2585  -26.1514   22.0337 H   0  0  0  0  0  0
  -18.2012  -26.0986   23.4492 H   0  0  0  0  0  0
  -19.7710  -30.7883   23.9694 H   0  0  0  0  0  0
  -17.5447  -31.6646   24.2520 H   0  0  0  0  0  0
  -15.5153  -30.2212   23.7029 H   0  0  0  0  0  0
  -15.8891  -27.9819   22.8492 H   0  0  0  0  0  0
  -24.6511  -30.7058   25.7936 H   0  0  0  0  0  0
  -24.8357  -32.3558   26.3670 H   0  0  0  0  0  0
  -25.7434  -31.0412   27.1076 H   0  0  0  0  0  0
  -26.5330  -29.5948   24.3513 H   0  0  0  0  0  0
  -27.3597  -29.7960   25.8504 H   0  0  0  0  0  0
  -28.1638  -30.3267   24.4742 H   0  0  0  0  0  0
  -27.1577  -33.4289   26.2424 H   0  0  0  0  0  0
  -28.4223  -32.7668   25.2137 H   0  0  0  0  0  0
  -27.9824  -31.9974   26.7568 H   0  0  0  0  0  0
  -28.2394  -38.0112   24.7575 H   0  0  0  0  0  0
  -28.1156  -36.2602   24.6110 H   0  0  0  0  0  0
  -27.2186  -37.1111   25.8819 H   0  0  0  0  0  0
  -21.2639  -29.7513   21.6727 H   0  0  0  0  0  0
  -26.0003  -38.2621   24.1440 H   0  0  0  0  0  0
  -26.9372  -27.3412   17.7733 H   0  0  0  0  0  0
  -25.8212  -29.4099   18.0235 H   0  0  0  0  0  0
  -27.2303  -26.3143   23.2431 H   0  0  0  0  0  0
  -23.5639  -24.6818   20.5323 H   0  0  0  0  0  0
  -23.7067  -23.0040   20.1339 H   0  0  0  0  0  0
  -22.7633  -22.7463   22.6441 H   0  0  0  0  0  0
  -22.2368  -24.2487   22.2627 H   0  0  0  0  0  0
  -26.7473  -24.2737   22.8207 H   0  0  0  0  0  0
  -25.5972  -23.2227   22.9159 H   0  0  0  0  0  0
  -25.8933  -22.6753   20.6391 H   0  0  0  0  0  0
  -24.3451  -23.8985   24.1987 H   0  0  0  0  0  0
  -23.4135  -25.9550   25.3742 H   0  0  0  0  0  0
  -22.5484  -24.4788   25.3751 H   0  0  0  0  0  0
  -22.0438  -25.8096   24.3163 H   0  0  0  0  0  0
  -27.9644  -22.8051   22.0577 H   0  0  0  0  0  0
  -29.2506  -23.2394   20.9656 H   0  0  0  0  0  0
  -24.2744  -27.3187   23.9924 H   0  0  0  0  0  0
  -25.6134  -26.8499   24.2120 H   0  0  0  0  0  0
  -27.5887  -20.0131   20.5125 H   0  0  0  0  0  0
  -24.2733  -25.5820   21.9473 H   0  0  0  0  0  0
  1 25  1  0  0  0
  1 30  2  0  0  0
  1 85  1  0  0  0
  2  3  1  0  0  0
  2 25  1  0  0  0
  2 88  1  0  0  0
  2 89  1  0  0  0
  3  4  1  0  0  0
  3 90  1  0  0  0
  3 91  1  0  0  0
  4  5  1  0  0  0
  4 92  1  0  0  0
  4 93  1  0  0  0
  5  6  1  0  0  0
  5 26  1  0  0  0
  5 94  1  0  0  0
  6 25  1  0  0  0
  6 95  1  0  0  0
  6 96  1  0  0  0
  7  8  2  0  0  0
  7 26  1  0  0  0
  7 29  1  0  0  0
  8  9  1  0  0  0
  8 22  1  0  0  0
  9 10  1  0  0  0
  9 27  2  0  0  0
 10 11  2  0  0  0
 10 15  1  0  0  0
 11 12  1  0  0  0
 11 97  1  0  0  0
 12 13  2  0  0  0
 12 98  1  0  0  0
 13 14  1  0  0  0
 13 31  1  0  0  0
 14 15  2  0  0  0
 14 99  1  0  0  0
 15100  1  0  0  0
 16 17  2  0  0  0
 16 21  1  0  0  0
 16 31  1  0  0  0
 17 18  1  0  0  0
 17101  1  0  0  0
 18 19  2  0  0  0
 18102  1  0  0  0
 19 20  1  0  0  0
 19 24  1  0  0  0
 20 21  2  0  0  0
 20103  1  0  0  0
 21 23  1  0  0  0
 22 28  1  0  0  0
 22 32  2  0  0  0
 26 27  1  0  0  0
 28104  1  0  0  0
 28105  1  0  0  0
 29106  1  0  0  0
 29107  1  0  0  0
 33 34  1  0  0  0
 33 66  1  0  0  0
 33 70  2  0  0  0
 34 36  1  0  0  0
 34 59  1  0  0  0
 34108  1  0  0  0
 35 44  2  0  0  0
 35 45  1  0  0  0
 35 68  1  0  0  0
 36 56  1  0  0  0
 36109  1  0  0  0
 37 39  1  0  0  0
 37 47  1  0  0  0
 37 66  1  0  0  0
 37110  1  0  0  0
 38 43  2  0  0  0
 38 46  1  0  0  0
 38 47  1  0  0  0
 39 64  1  0  0  0
 39 67  2  0  0  0
 40 52  1  0  0  0
 40 53  2  0  0  0
 40 58  1  0  0  0
 41111  1  0  0  0
 41112  1  0  0  0
 41113  1  0  0  0
 41 48  1  0  0  0
 42 43  1  0  0  0
 42 66  1  0  0  0
 42114  1  0  0  0
 42115  1  0  0  0
 43 44  1  0  0  0
 44116  1  0  0  0
 45 46  2  0  0  0
 45117  1  0  0  0
 46118  1  0  0  0
 47119  1  0  0  0
 47120  1  0  0  0
 48 56  1  0  0  0
 48 65  1  0  0  0
 48121  1  0  0  0
 49 50  1  0  0  0
 49 53  1  0  0  0
 49 64  1  0  0  0
 49122  1  0  0  0
 50 51  1  0  0  0
 50123  1  0  0  0
 50124  1  0  0  0
 51 52  1  0  0  0
 51125  1  0  0  0
 51126  1  0  0  0
 52127  1  0  0  0
 52128  1  0  0  0
 53 54  1  0  0  0
 54 55  2  0  0  0
 54129  1  0  0  0
 55 57  1  0  0  0
 55130  1  0  0  0
 56 69  2  0  0  0
 57 58  2  0  0  0
 57131  1  0  0  0
 58132  1  0  0  0
 59 60  1  0  0  0
 59 61  1  0  0  0
 59 62  1  0  0  0
 60133  1  0  0  0
 60134  1  0  0  0
 60135  1  0  0  0
 61136  1  0  0  0
 61137  1  0  0  0
 61138  1  0  0  0
 62139  1  0  0  0
 62140  1  0  0  0
 62141  1  0  0  0
 63 65  1  0  0  0
 63142  1  0  0  0
 63143  1  0  0  0
 63144  1  0  0  0
 64145  1  0  0  0
 65146  1  0  0  0
 68 80  1  0  0  0
 71 72  2  0  0  0
 71 74  1  0  0  0
 71147  1  0  0  0
 72 76  1  0  0  0
 72148  1  0  0  0
 73 74  2  0  0  0
 73 75  1  0  0  0
 73149  1  0  0  0
 74 83  1  0  0  0
 75 76  2  0  0  0
 75 84  1  0  0  0
 76 87  1  0  0  0
 77 78  1  0  0  0
 77 80  1  0  0  0
 77150  1  0  0  0
 77151  1  0  0  0
 78 81  1  0  0  0
 78152  1  0  0  0
 78153  1  0  0  0
 79 80  1  0  0  0
 79 86  1  0  0  0
 79154  1  0  0  0
 79155  1  0  0  0
 80156  1  0  0  0
 81 82  1  0  0  0
 81 86  1  0  0  0
 81157  1  0  0  0
 82158  1  0  0  0
 82159  1  0  0  0
 82160  1  0  0  0
 83 85  1  0  0  0
 83161  1  0  0  0
 83162  1  0  0  0
 84163  1  0  0  0
 84164  1  0  0  0
 84 86  1  0  0  0
 85165  1  0  0  0
 86166  1  0  0  0
M  CHG  1  86   1
M  ISO  4   1 100  68 101  80 101  85 100
M  END
> <chiral flag>
0

> <version>
0

> <s_m_source_file>
/data/baiqing/PycharmProjects/Reinvent-master-3.2/result/LINK_invent/BTK/process_docking_weight1_custom_product_contain_oxygen_bond_distance_aromatic_linkinvent_7_9_3/rearranged_h_0044.sdf

> <i_m_source_file_index>
58

> <r_mmod_Potential_Energy-OPLS-2005>
37751.265625

> <r_mmod_Stretch_Energy-OPLS-2005>
19578.58203125

> <r_mmod_Bend_Energy-OPLS-2005>
2798.53100585938

> <r_mmod_Torsional_Energy-OPLS-2005>
625.311706542969

> <r_mmod_Improper_Torsional_Energy-OPLS-2005>
80.8680267333984

> <r_mmod_Van_der_Waal_Energy-OPLS-2005>
5717.07470703125

> <r_mmod_Electrostatic_Energy-OPLS-2005>
-261.178833007812

> <r_mmod_Solvation_Energy-OPLS-2005>
-454.148681640625

> <b_mmod_Minimization_Converged-OPLS-2005>
0

> <r_mmod_RMS_Derivative-OPLS-2005>
79.6138916015625

$$$$
58
                    3D
 Structure written by MMmdl.
167176  0  0  1  0            999 V2000
  -30.5765  -14.7413   20.4715 C   0  0  0  0  0  0
  -30.4455  -12.4582   19.4495 C   0  0  0  0  0  0
  -29.5096  -12.5041   18.2208 C   0  0  0  0  0  0
  -28.0352  -12.3232   18.6399 C   0  0  0  0  0  0
  -27.6406  -13.2190   19.8436 C   0  0  2  0  0  0
  -28.6894  -13.1350   20.9716 C   0  0  0  0  0  0
  -25.2522  -13.8160   20.5685 C   0  0  0  0  0  0
  -24.1806  -13.0422   20.9211 C   0  0  0  0  0  0
  -24.6381  -11.6895   20.8746 C   0  0  0  0  0  0
  -23.9051  -10.4282   21.0409 C   0  0  0  0  0  0
  -24.3606   -9.4201   21.9186 C   0  0  0  0  0  0
  -23.6285   -8.2235   22.0753 C   0  0  0  0  0  0
  -22.4268   -8.0271   21.3541 C   0  0  0  0  0  0
  -21.9900   -9.0245   20.4646 C   0  0  0  0  0  0
  -22.7224  -10.2127   20.3056 C   0  0  0  0  0  0
  -21.6852   -6.0729   22.5278 C   0  0  0  0  0  0
  -21.4013   -6.5636   23.8212 C   0  0  0  0  0  0
  -21.3659   -5.6788   24.9174 C   0  0  0  0  0  0
  -21.6045   -4.3050   24.7224 C   0  0  0  0  0  0
  -21.8820   -3.8142   23.4346 C   0  0  0  0  0  0
  -21.9193   -4.6959   22.3402 C   0  0  0  0  0  0
  -22.7832  -13.5220   21.1873 C   0  0  0  0  0  0
  -22.1663   -4.2145   21.0980 F   0  0  0  0  0  0
  -21.5630   -3.4535   25.7738 F   0  0  0  0  0  0
  -29.9841  -13.5043   20.3842 N   0  0  0  0  0  0
  -26.2930  -12.9340   20.3245 N   0  0  0  0  0  0
  -25.9303  -11.6497   20.5727 N   0  0  0  0  0  0
  -22.0469  -12.8215   22.0427 N   0  0  0  0  0  0
  -25.4196  -15.1888   20.4106 N   0  0  0  0  0  0
  -31.7819  -14.8762   20.2400 O   0  0  0  0  0  0
  -21.6634   -6.8870   21.4239 O   0  0  0  0  0  0
  -22.3525  -14.5529   20.6720 O   0  0  0  0  0  0
  -24.6300  -31.8553   23.1968 C   0  0  0  0  0  0
  -25.9128  -32.4754   23.8317 C   0  0  1  0  0  0
  -27.2284  -27.2729   20.1396 C   0  0  0  0  0  0
  -25.5925  -33.8555   24.2246 N   0  0  0  0  0  0
  -23.4263  -30.4747   21.5409 C   0  0  2  0  0  0
  -24.8737  -28.9088   20.1242 C   0  0  0  0  0  0
  -22.7489  -29.4605   22.4934 C   0  0  0  0  0  0
  -18.0288  -28.1388   22.8486 C   0  0  0  0  0  0
  -24.1489  -36.7284   23.2641 C   0  0  0  0  0  0
  -25.9694  -30.7722   21.3720 C   0  0  0  0  0  0
  -26.0444  -29.3904   20.7244 C   0  0  0  0  0  0
  -27.2276  -28.5873   20.7127 C   0  0  0  0  0  0
  -26.0323  -26.8388   19.5349 C   0  0  0  0  0  0
  -24.8705  -27.6393   19.5213 C   0  0  0  0  0  0
  -23.6452  -29.7982   20.1614 C   0  0  0  0  0  0
  -25.4116  -36.3069   24.0326 C   0  0  1  0  0  0
  -20.5889  -28.3694   23.1281 C   0  0  2  0  0  0
  -20.6776  -26.9415   22.5412 C   0  0  0  0  0  0
  -19.5753  -26.6386   21.5214 C   0  0  0  0  0  0
  -18.1932  -26.7931   22.1626 C   0  0  0  0  0  0
  -19.1541  -28.8859   23.2877 C   0  0  0  0  0  0
  -18.9463  -30.1461   23.8894 C   0  0  0  0  0  0
  -17.6462  -30.6589   24.0563 C   0  0  0  0  0  0
  -25.9056  -34.9440   23.5090 C   0  0  0  0  0  0
  -16.5354  -29.9087   23.6331 C   0  0  0  0  0  0
  -16.7275  -28.6505   23.0352 C   0  0  0  0  0  0
  -26.4499  -31.6578   25.0705 C   0  0  0  0  0  0
  -25.3722  -31.3728   26.1426 C   0  0  0  0  0  0
  -27.0346  -30.2997   24.6182 C   0  0  0  0  0  0
  -27.6049  -32.4321   25.7484 C   0  0  0  0  0  0
  -27.5578  -37.1798   24.8466 C   0  0  0  0  0  0
  -21.4199  -29.3043   22.3672 N   0  0  0  0  0  0
  -26.4291  -37.3768   23.9408 N   0  0  0  0  0  0
  -24.6944  -31.0525   22.0935 N   0  0  0  0  0  0
  -23.4191  -28.8155   23.3039 O   0  0  0  0  0  0
  -28.3651  -26.4481   20.0568 O   0  0  0  0  0  0
  -26.5633  -34.8919   22.4662 O   0  0  0  0  0  0
  -23.5454  -32.1367   23.7273 O   0  0  0  0  0  0
  -29.4891  -18.4172   20.3028 C   0  0  0  0  0  0
  -29.5288  -18.5704   23.0656 C   0  0  0  0  0  0
  -29.2277  -19.7216   20.9090 C   0  0  0  0  0  0
  -29.8184  -17.3291   22.4596 C   0  0  0  0  0  0
  -29.7641  -17.1938   21.0496 C   0  0  0  0  0  0
  -29.1857  -19.7209   22.3275 C   0  0  0  0  0  0
  -28.4591  -23.7820   19.8447 C   0  0  0  0  0  0
  -28.1475  -23.8209   18.5302 C   0  0  0  0  0  0
  -30.3211  -23.9462   22.1105 C   0  0  0  0  0  0
  -29.8025  -25.2436   21.4709 C   0  0  0  0  0  0
  -30.3736  -22.7822   21.1022 C   0  0  0  0  0  0
  -28.4548  -25.1109   20.7277 C   0  0  1  0  0  0
  -30.0854  -16.1399   23.3701 C   0  0  0  0  0  0
  -28.1881  -22.7115   17.4983 C   0  0  0  0  0  0
  -28.8764  -21.0430   20.0575 C   0  0  0  0  0  0
  -29.7125  -15.8273   20.4781 N   0  0  0  0  0  0
  -29.0104  -22.4937   20.6005 N   0  3  1  0  0  0
  -28.6377  -21.0867   23.2338 Cl  0  0  0  0  0  0
  -31.4805  -12.6156   19.1413 H   0  0  0  0  0  0
  -30.4154  -11.4778   19.9274 H   0  0  0  0  0  0
  -29.7922  -11.7324   17.5034 H   0  0  0  0  0  0
  -29.6290  -13.4583   17.7047 H   0  0  0  0  0  0
  -27.8952  -11.2740   18.9025 H   0  0  0  0  0  0
  -27.3747  -12.5137   17.7931 H   0  0  0  0  0  0
  -27.6342  -14.2407   19.4655 H   0  0  0  0  0  0
  -28.7313  -12.1288   21.3916 H   0  0  0  0  0  0
  -28.4225  -13.7992   21.7941 H   0  0  0  0  0  0
  -25.2751   -9.5685   22.4759 H   0  0  0  0  0  0
  -23.9999   -7.4625   22.7470 H   0  0  0  0  0  0
  -21.0832   -8.8757   19.8952 H   0  0  0  0  0  0
  -22.3677  -10.9663   19.6165 H   0  0  0  0  0  0
  -21.2002   -7.6143   23.9714 H   0  0  0  0  0  0
  -21.1484   -6.0517   25.9078 H   0  0  0  0  0  0
  -22.0600   -2.7604   23.2844 H   0  0  0  0  0  0
  -22.4077  -11.9877   22.4821 H   0  0  0  0  0  0
  -21.1087  -13.1249   22.2624 H   0  0  0  0  0  0
  -24.6463  -15.8349   20.5258 H   0  0  0  0  0  0
  -26.2569  -15.6379   20.0651 H   0  0  0  0  0  0
  -26.7195  -32.5411   23.1062 H   0  0  0  0  0  0
  -25.0056  -33.9687   25.0381 H   0  0  0  0  0  0
  -22.7227  -31.2960   21.3900 H   0  0  0  0  0  0
  -23.3751  -35.9617   23.3304 H   0  0  0  0  0  0
  -24.3576  -36.8907   22.2055 H   0  0  0  0  0  0
  -23.7244  -37.6486   23.6667 H   0  0  0  0  0  0
  -26.1015  -31.5284   20.5969 H   0  0  0  0  0  0
  -26.8494  -30.8279   22.0012 H   0  0  0  0  0  0
  -28.1359  -28.9639   21.1623 H   0  0  0  0  0  0
  -25.9942  -25.8681   19.0627 H   0  0  0  0  0  0
  -23.9726  -27.2634   19.0504 H   0  0  0  0  0  0
  -23.7724  -30.5682   19.3997 H   0  0  0  0  0  0
  -22.7638  -29.2299   19.8589 H   0  0  0  0  0  0
  -25.1301  -36.1913   25.0819 H   0  0  0  0  0  0
  -20.9981  -28.3271   24.1402 H   0  0  0  0  0  0
  -20.5678  -26.2305   23.3614 H   0  0  0  0  0  0
  -21.6645  -26.7444   22.1206 H   0  0  0  0  0  0
  -19.6915  -25.6296   21.1246 H   0  0  0  0  0  0
  -19.6691  -27.3195   20.6743 H   0  0  0  0  0  0
  -17.4204  -26.6678   21.4027 H   0  0  0  0  0  0
  -18.0333  -26.0073   22.9023 H   0  0  0  0  0  0
  -19.7939  -30.7277   24.2262 H   0  0  0  0  0  0
  -17.5017  -31.6270   24.5166 H   0  0  0  0  0  0
  -15.5354  -30.2988   23.7660 H   0  0  0  0  0  0
  -15.8675  -28.0824   22.7068 H   0  0  0  0  0  0
  -24.5899  -30.7076   25.7753 H   0  0  0  0  0  0
  -24.8911  -32.2898   26.4838 H   0  0  0  0  0  0
  -25.8038  -30.8913   27.0209 H   0  0  0  0  0  0
  -26.2925  -29.6742   24.1206 H   0  0  0  0  0  0
  -27.4033  -29.7262   25.4696 H   0  0  0  0  0  0
  -27.8799  -30.4274   23.9415 H   0  0  0  0  0  0
  -27.2651  -33.3623   26.2049 H   0  0  0  0  0  0
  -28.3868  -32.6877   25.0320 H   0  0  0  0  0  0
  -28.0709  -31.8454   26.5410 H   0  0  0  0  0  0
  -28.2597  -38.0093   24.7509 H   0  0  0  0  0  0
  -28.1071  -36.2624   24.6297 H   0  0  0  0  0  0
  -27.2295  -37.1456   25.8869 H   0  0  0  0  0  0
  -20.9388  -29.8750   21.6861 H   0  0  0  0  0  0
  -26.0169  -38.2843   24.1404 H   0  0  0  0  0  0
  -29.4200  -18.3440   19.2263 H   0  0  0  0  0  0
  -29.5044  -18.6363   24.1441 H   0  0  0  0  0  0
  -27.8496  -24.7773   18.1236 H   0  0  0  0  0  0
  -29.6979  -23.6868   22.9664 H   0  0  0  0  0  0
  -31.3199  -24.1194   22.5128 H   0  0  0  0  0  0
  -30.5554  -25.5916   20.7619 H   0  0  0  0  0  0
  -29.7267  -26.0238   22.2295 H   0  0  0  0  0  0
  -30.8113  -21.9093   21.5855 H   0  0  0  0  0  0
  -31.0282  -23.0232   20.2633 H   0  0  0  0  0  0
  -27.6474  -25.0200   21.4557 H   0  0  0  0  0  0
  -30.1114  -16.4345   24.4194 H   0  0  0  0  0  0
  -31.0482  -15.6843   23.1402 H   0  0  0  0  0  0
  -29.3044  -15.3882   23.2631 H   0  0  0  0  0  0
  -29.1963  -22.3149   17.3794 H   0  0  0  0  0  0
  -27.8880  -23.1120   16.5294 H   0  0  0  0  0  0
  -27.4942  -21.9069   17.7383 H   0  0  0  0  0  0
  -27.8407  -20.9157   19.7454 H   0  0  0  0  0  0
  -29.4814  -20.9756   19.1553 H   0  0  0  0  0  0
  -28.7684  -15.5260   20.2975 H   0  0  0  0  0  0
  -28.4671  -22.4188   21.4500 H   0  0  0  0  0  0
  1 25  1  0  0  0
  1 30  2  0  0  0
  1 86  1  0  0  0
  2  3  1  0  0  0
  2 25  1  0  0  0
  2 89  1  0  0  0
  2 90  1  0  0  0
  3  4  1  0  0  0
  3 91  1  0  0  0
  3 92  1  0  0  0
  4  5  1  0  0  0
  4 93  1  0  0  0
  4 94  1  0  0  0
  5  6  1  0  0  0
  5 26  1  0  0  0
  5 95  1  0  0  0
  6 25  1  0  0  0
  6 96  1  0  0  0
  6 97  1  0  0  0
  7  8  2  0  0  0
  7 26  1  0  0  0
  7 29  1  0  0  0
  8  9  1  0  0  0
  8 22  1  0  0  0
  9 10  1  0  0  0
  9 27  2  0  0  0
 10 11  2  0  0  0
 10 15  1  0  0  0
 11 12  1  0  0  0
 11 98  1  0  0  0
 12 13  2  0  0  0
 12 99  1  0  0  0
 13 14  1  0  0  0
 13 31  1  0  0  0
 14 15  2  0  0  0
 14100  1  0  0  0
 15101  1  0  0  0
 16 17  2  0  0  0
 16 21  1  0  0  0
 16 31  1  0  0  0
 17 18  1  0  0  0
 17102  1  0  0  0
 18 19  2  0  0  0
 18103  1  0  0  0
 19 20  1  0  0  0
 19 24  1  0  0  0
 20 21  2  0  0  0
 20104  1  0  0  0
 21 23  1  0  0  0
 22 28  1  0  0  0
 22 32  2  0  0  0
 26 27  1  0  0  0
 28105  1  0  0  0
 28106  1  0  0  0
 29107  1  0  0  0
 29108  1  0  0  0
 33 34  1  0  0  0
 33 66  1  0  0  0
 33 70  2  0  0  0
 34 36  1  0  0  0
 34 59  1  0  0  0
 34109  1  0  0  0
 35 44  2  0  0  0
 35 45  1  0  0  0
 35 68  1  0  0  0
 36 56  1  0  0  0
 36110  1  0  0  0
 37 39  1  0  0  0
 37 47  1  0  0  0
 37 66  1  0  0  0
 37111  1  0  0  0
 38 43  2  0  0  0
 38 46  1  0  0  0
 38 47  1  0  0  0
 39 64  1  0  0  0
 39 67  2  0  0  0
 40 52  1  0  0  0
 40 53  2  0  0  0
 40 58  1  0  0  0
 41112  1  0  0  0
 41113  1  0  0  0
 41114  1  0  0  0
 41 48  1  0  0  0
 42 43  1  0  0  0
 42 66  1  0  0  0
 42115  1  0  0  0
 42116  1  0  0  0
 43 44  1  0  0  0
 44117  1  0  0  0
 45 46  2  0  0  0
 45118  1  0  0  0
 46119  1  0  0  0
 47120  1  0  0  0
 47121  1  0  0  0
 48 56  1  0  0  0
 48 65  1  0  0  0
 48122  1  0  0  0
 49 50  1  0  0  0
 49 53  1  0  0  0
 49 64  1  0  0  0
 49123  1  0  0  0
 50 51  1  0  0  0
 50124  1  0  0  0
 50125  1  0  0  0
 51 52  1  0  0  0
 51126  1  0  0  0
 51127  1  0  0  0
 52128  1  0  0  0
 52129  1  0  0  0
 53 54  1  0  0  0
 54 55  2  0  0  0
 54130  1  0  0  0
 55 57  1  0  0  0
 55131  1  0  0  0
 56 69  2  0  0  0
 57 58  2  0  0  0
 57132  1  0  0  0
 58133  1  0  0  0
 59 60  1  0  0  0
 59 61  1  0  0  0
 59 62  1  0  0  0
 60134  1  0  0  0
 60135  1  0  0  0
 60136  1  0  0  0
 61137  1  0  0  0
 61138  1  0  0  0
 61139  1  0  0  0
 62140  1  0  0  0
 62141  1  0  0  0
 62142  1  0  0  0
 63 65  1  0  0  0
 63143  1  0  0  0
 63144  1  0  0  0
 63145  1  0  0  0
 64146  1  0  0  0
 65147  1  0  0  0
 68 82  1  0  0  0
 71 73  2  0  0  0
 71 75  1  0  0  0
 71148  1  0  0  0
 72 74  1  0  0  0
 72 76  2  0  0  0
 72149  1  0  0  0
 73 76  1  0  0  0
 73 85  1  0  0  0
 74 75  2  0  0  0
 74 83  1  0  0  0
 75 86  1  0  0  0
 76 88  1  0  0  0
 77 78  2  0  0  0
 77 82  1  0  0  0
 77 87  1  0  0  0
 78 84  1  0  0  0
 78150  1  0  0  0
 79 80  1  0  0  0
 79 81  1  0  0  0
 79151  1  0  0  0
 79152  1  0  0  0
 80 82  1  0  0  0
 80153  1  0  0  0
 80154  1  0  0  0
 81 87  1  0  0  0
 81155  1  0  0  0
 81156  1  0  0  0
 82157  1  0  0  0
 83158  1  0  0  0
 83159  1  0  0  0
 83160  1  0  0  0
 84161  1  0  0  0
 84162  1  0  0  0
 84163  1  0  0  0
 85164  1  0  0  0
 85165  1  0  0  0
 85 87  1  0  0  0
 86166  1  0  0  0
 87167  1  0  0  0
M  CHG  1  87   1
M  ISO  4   1 100  68 101  82 101  86 100
M  END
> <chiral flag>
0

> <version>
0

> <s_m_source_file>
/data/baiqing/PycharmProjects/Reinvent-master-3.2/result/LINK_invent/BTK/process_docking_weight1_custom_product_contain_oxygen_bond_distance_aromatic_linkinvent_7_9_3/rearranged_h_0044.sdf

> <i_m_source_file_index>
59

> <r_mmod_Potential_Energy-OPLS-2005>
94.5864105224609

> <r_mmod_Stretch_Energy-OPLS-2005>
133.160751342773

> <r_mmod_Bend_Energy-OPLS-2005>
193.849746704102

> <r_mmod_Torsional_Energy-OPLS-2005>
297.22802734375

> <r_mmod_Improper_Torsional_Energy-OPLS-2005>
12.732458114624

> <r_mmod_Van_der_Waal_Energy-OPLS-2005>
137.049194335938

> <r_mmod_Electrostatic_Energy-OPLS-2005>
-339.745422363281

> <r_mmod_Solvation_Energy-OPLS-2005>
-418.144653320312

> <b_mmod_Minimization_Converged-OPLS-2005>
0

> <r_mmod_RMS_Derivative-OPLS-2005>
0.437582582235336

$$$$
59
                    3D
 Structure written by MMmdl.
160168  0  0  1  0            999 V2000
  -30.6870  -14.4860   20.5060 C   0  0  0  0  0  0
  -30.4185  -12.2919   19.4417 C   0  0  0  0  0  0
  -29.5005  -12.4894   18.2173 C   0  0  0  0  0  0
  -28.0193  -12.3550   18.6229 C   0  0  0  0  0  0
  -27.6589  -13.2066   19.8705 C   0  0  2  0  0  0
  -28.6993  -13.0134   20.9999 C   0  0  0  0  0  0
  -25.2592  -13.8159   20.5676 C   0  0  0  0  0  0
  -24.1843  -13.0443   20.9189 C   0  0  0  0  0  0
  -24.6387  -11.6906   20.8730 C   0  0  0  0  0  0
  -23.9056  -10.4294   21.0397 C   0  0  0  0  0  0
  -24.3615   -9.4214   21.9174 C   0  0  0  0  0  0
  -23.6294   -8.2247   22.0748 C   0  0  0  0  0  0
  -22.4275   -8.0283   21.3542 C   0  0  0  0  0  0
  -21.9905   -9.0253   20.4642 C   0  0  0  0  0  0
  -22.7227  -10.2133   20.3047 C   0  0  0  0  0  0
  -21.6857   -6.0737   22.5277 C   0  0  0  0  0  0
  -21.4013   -6.5640   23.8213 C   0  0  0  0  0  0
  -21.3667   -5.6790   24.9174 C   0  0  0  0  0  0
  -21.6053   -4.3056   24.7224 C   0  0  0  0  0  0
  -21.8822   -3.8149   23.4345 C   0  0  0  0  0  0
  -21.9195   -4.6965   22.3400 C   0  0  0  0  0  0
  -22.7872  -13.5250   21.1856 C   0  0  0  0  0  0
  -22.1665   -4.2153   21.0974 F   0  0  0  0  0  0
  -21.5628   -3.4535   25.7738 F   0  0  0  0  0  0
  -30.0331  -13.2954   20.4460 N   0  0  0  0  0  0
  -26.3014  -12.9328   20.3338 N   0  0  0  0  0  0
  -25.9316  -11.6490   20.5755 N   0  0  0  0  0  0
  -22.0510  -12.8233   22.0402 N   0  0  0  0  0  0
  -25.4316  -15.1879   20.4079 N   0  0  0  0  0  0
  -31.8403  -14.6357   20.0965 O   0  0  0  0  0  0
  -21.6650   -6.8873   21.4237 O   0  0  0  0  0  0
  -22.3561  -14.5554   20.6705 O   0  0  0  0  0  0
  -24.6139  -31.8683   23.2107 C   0  0  0  0  0  0
  -25.9036  -32.4822   23.8398 C   0  0  1  0  0  0
  -27.2293  -27.4379   20.1037 C   0  0  0  0  0  0
  -25.5898  -33.8622   24.2330 N   0  0  0  0  0  0
  -23.4011  -30.4927   21.5501 C   0  0  2  0  0  0
  -24.8493  -28.9618   20.1108 C   0  0  0  0  0  0
  -22.7404  -29.4661   22.4983 C   0  0  0  0  0  0
  -18.0271  -28.1374   22.8489 C   0  0  0  0  0  0
  -24.1489  -36.7317   23.2634 C   0  0  0  0  0  0
  -25.9297  -30.8369   21.3624 C   0  0  0  0  0  0
  -26.0088  -29.4724   20.7084 C   0  0  0  0  0  0
  -27.2055  -28.7193   20.6989 C   0  0  0  0  0  0
  -26.0584  -26.9452   19.4890 C   0  0  0  0  0  0
  -24.8694  -27.6982   19.4942 C   0  0  0  0  0  0
  -23.6094  -29.8263   20.1633 C   0  0  0  0  0  0
  -25.4104  -36.3112   24.0338 C   0  0  1  0  0  0
  -20.5864  -28.3660   23.1319 C   0  0  2  0  0  0
  -20.6765  -26.9396   22.5418 C   0  0  0  0  0  0
  -19.5744  -26.6381   21.5213 C   0  0  0  0  0  0
  -18.1921  -26.7920   22.1621 C   0  0  0  0  0  0
  -19.1522  -28.8832   23.2904 C   0  0  0  0  0  0
  -18.9449  -30.1437   23.8917 C   0  0  0  0  0  0
  -17.6452  -30.6580   24.0567 C   0  0  0  0  0  0
  -25.9031  -34.9479   23.5132 C   0  0  0  0  0  0
  -16.5343  -29.9084   23.6325 C   0  0  0  0  0  0
  -16.7259  -28.6501   23.0343 C   0  0  0  0  0  0
  -26.4472  -31.6592   25.0717 C   0  0  0  0  0  0
  -25.3743  -31.3704   26.1471 C   0  0  0  0  0  0
  -27.0290  -30.3031   24.6082 C   0  0  0  0  0  0
  -27.6059  -32.4301   25.7475 C   0  0  0  0  0  0
  -27.5587  -37.1801   24.8453 C   0  0  0  0  0  0
  -21.4133  -29.3032   22.3728 N   0  0  0  0  0  0
  -26.4288  -37.3799   23.9421 N   0  0  0  0  0  0
  -24.6664  -31.0795   22.0997 N   0  0  0  0  0  0
  -23.4183  -28.8198   23.3017 O   0  0  0  0  0  0
  -28.3734  -26.6716   20.1223 O   0  0  0  0  0  0
  -26.5591  -34.8929   22.4694 O   0  0  0  0  0  0
  -23.5336  -32.1438   23.7507 O   0  0  0  0  0  0
  -29.6430  -19.3083   20.0998 C   0  0  0  0  0  0
  -31.1290  -19.6500   22.4281 C   0  0  0  0  0  0
  -30.1837  -18.1602   20.7346 C   0  0  0  0  0  0
  -29.8494  -20.6233   20.5870 C   0  0  0  0  0  0
  -30.9399  -18.3440   21.9222 C   0  0  0  0  0  0
  -30.6176  -20.7836   21.7660 C   0  0  0  0  0  0
  -28.9163  -24.2467   20.0444 C   0  0  0  0  0  0
  -31.6139  -17.1935   22.6502 C   0  0  0  0  0  0
  -27.7134  -22.6244   21.4818 C   0  0  0  0  0  0
  -30.0164  -16.8153   20.0017 C   0  0  0  0  0  0
  -29.3197  -21.8066   19.7502 C   0  0  0  0  0  0
  -28.2319  -25.4074   20.8080 C   0  0  0  0  0  0
  -29.9023  -15.5523   20.7552 N   0  0  0  0  0  0
  -28.6940  -22.9602   20.4409 N   0  0  0  0  0  0
  -29.6564  -24.5242   19.0932 O   0  0  0  0  0  0
  -31.0147  -22.3409   22.4048 Cl  0  0  0  0  0  0
  -31.4662  -12.3747   19.1467 H   0  0  0  0  0  0
  -30.3015  -11.2879   19.8522 H   0  0  0  0  0  0
  -29.7428  -11.7579   17.4452 H   0  0  0  0  0  0
  -29.6767  -13.4702   17.7738 H   0  0  0  0  0  0
  -27.8284  -11.2998   18.8263 H   0  0  0  0  0  0
  -27.3750  -12.6208   17.7846 H   0  0  0  0  0  0
  -27.6918  -14.2495   19.5546 H   0  0  0  0  0  0
  -28.6683  -11.9893   21.3757 H   0  0  0  0  0  0
  -28.4721  -13.6519   21.8552 H   0  0  0  0  0  0
  -25.2756   -9.5705   22.4755 H   0  0  0  0  0  0
  -24.0018   -7.4643   22.7460 H   0  0  0  0  0  0
  -21.0843   -8.8760   19.8944 H   0  0  0  0  0  0
  -22.3675  -10.9675   19.6163 H   0  0  0  0  0  0
  -21.1995   -7.6149   23.9718 H   0  0  0  0  0  0
  -21.1490   -6.0518   25.9077 H   0  0  0  0  0  0
  -22.0594   -2.7611   23.2844 H   0  0  0  0  0  0
  -22.4117  -11.9899   22.4801 H   0  0  0  0  0  0
  -21.1121  -13.1258   22.2586 H   0  0  0  0  0  0
  -24.6650  -15.8431   20.5163 H   0  0  0  0  0  0
  -26.2824  -15.6278   20.0829 H   0  0  0  0  0  0
  -26.7107  -32.5540   23.1164 H   0  0  0  0  0  0
  -25.0069  -33.9787   25.0489 H   0  0  0  0  0  0
  -22.6894  -31.3096   21.4128 H   0  0  0  0  0  0
  -23.3754  -35.9642   23.3275 H   0  0  0  0  0  0
  -24.3598  -36.8954   22.2052 H   0  0  0  0  0  0
  -23.7228  -37.6512   23.6661 H   0  0  0  0  0  0
  -26.0404  -31.6043   20.5949 H   0  0  0  0  0  0
  -26.8181  -30.8912   21.9798 H   0  0  0  0  0  0
  -28.0997  -29.1068   21.1674 H   0  0  0  0  0  0
  -26.0634  -25.9761   19.0105 H   0  0  0  0  0  0
  -23.9807  -27.3032   19.0220 H   0  0  0  0  0  0
  -23.7131  -30.6029   19.4047 H   0  0  0  0  0  0
  -22.7340  -29.2446   19.8686 H   0  0  0  0  0  0
  -25.1279  -36.1975   25.0828 H   0  0  0  0  0  0
  -20.9955  -28.3222   24.1439 H   0  0  0  0  0  0
  -20.5669  -26.2264   23.3603 H   0  0  0  0  0  0
  -21.6636  -26.7441   22.1209 H   0  0  0  0  0  0
  -19.6905  -25.6295   21.1233 H   0  0  0  0  0  0
  -19.6687  -27.3204   20.6754 H   0  0  0  0  0  0
  -17.4194  -26.6671   21.4020 H   0  0  0  0  0  0
  -18.0314  -26.0056   22.9010 H   0  0  0  0  0  0
  -19.7928  -30.7248   24.2292 H   0  0  0  0  0  0
  -17.5009  -31.6264   24.5160 H   0  0  0  0  0  0
  -15.5345  -30.2993   23.7639 H   0  0  0  0  0  0
  -15.8657  -28.0829   22.7044 H   0  0  0  0  0  0
  -24.5909  -30.7055   25.7817 H   0  0  0  0  0  0
  -24.8940  -32.2860   26.4930 H   0  0  0  0  0  0
  -25.8097  -30.8868   27.0221 H   0  0  0  0  0  0
  -26.2823  -29.6795   24.1147 H   0  0  0  0  0  0
  -27.4075  -29.7267   25.4534 H   0  0  0  0  0  0
  -27.8657  -30.4352   23.9217 H   0  0  0  0  0  0
  -27.2689  -33.3592   26.2088 H   0  0  0  0  0  0
  -28.3850  -32.6868   25.0284 H   0  0  0  0  0  0
  -28.0740  -31.8393   26.5360 H   0  0  0  0  0  0
  -28.2578  -38.0128   24.7554 H   0  0  0  0  0  0
  -28.1116  -36.2665   24.6207 H   0  0  0  0  0  0
  -27.2321  -37.1360   25.8858 H   0  0  0  0  0  0
  -20.9281  -29.8761   21.6969 H   0  0  0  0  0  0
  -26.0177  -38.2872   24.1453 H   0  0  0  0  0  0
  -29.0925  -19.1795   19.1778 H   0  0  0  0  0  0
  -31.7207  -19.8002   23.3205 H   0  0  0  0  0  0
  -32.2616  -17.5510   23.4505 H   0  0  0  0  0  0
  -32.2395  -16.6180   21.9684 H   0  0  0  0  0  0
  -30.8712  -16.5324   23.0966 H   0  0  0  0  0  0
  -26.7114  -22.9303   21.1803 H   0  0  0  0  0  0
  -27.9572  -23.1190   22.4225 H   0  0  0  0  0  0
  -27.6635  -21.5545   21.6843 H   0  0  0  0  0  0
  -30.8215  -16.7610   19.2658 H   0  0  0  0  0  0
  -29.1056  -16.8736   19.4025 H   0  0  0  0  0  0
  -28.5829  -21.4339   19.0384 H   0  0  0  0  0  0
  -30.1667  -22.1291   19.1432 H   0  0  0  0  0  0
  -28.7018  -25.4976   21.7877 H   0  0  0  0  0  0
  -27.1871  -25.1574   20.9920 H   0  0  0  0  0  0
  -28.9881  -15.3429   21.1250 H   0  0  0  0  0  0
  1 25  1  0  0  0
  1 30  2  0  0  0
  1 83  1  0  0  0
  2  3  1  0  0  0
  2 25  1  0  0  0
  2 87  1  0  0  0
  2 88  1  0  0  0
  3  4  1  0  0  0
  3 89  1  0  0  0
  3 90  1  0  0  0
  4  5  1  0  0  0
  4 91  1  0  0  0
  4 92  1  0  0  0
  5  6  1  0  0  0
  5 26  1  0  0  0
  5 93  1  0  0  0
  6 25  1  0  0  0
  6 94  1  0  0  0
  6 95  1  0  0  0
  7  8  2  0  0  0
  7 26  1  0  0  0
  7 29  1  0  0  0
  8  9  1  0  0  0
  8 22  1  0  0  0
  9 10  1  0  0  0
  9 27  2  0  0  0
 10 11  2  0  0  0
 10 15  1  0  0  0
 11 12  1  0  0  0
 11 96  1  0  0  0
 12 13  2  0  0  0
 12 97  1  0  0  0
 13 14  1  0  0  0
 13 31  1  0  0  0
 14 15  2  0  0  0
 14 98  1  0  0  0
 15 99  1  0  0  0
 16 17  2  0  0  0
 16 21  1  0  0  0
 16 31  1  0  0  0
 17 18  1  0  0  0
 17100  1  0  0  0
 18 19  2  0  0  0
 18101  1  0  0  0
 19 20  1  0  0  0
 19 24  1  0  0  0
 20 21  2  0  0  0
 20102  1  0  0  0
 21 23  1  0  0  0
 22 28  1  0  0  0
 22 32  2  0  0  0
 26 27  1  0  0  0
 28103  1  0  0  0
 28104  1  0  0  0
 29105  1  0  0  0
 29106  1  0  0  0
 33 34  1  0  0  0
 33 66  1  0  0  0
 33 70  2  0  0  0
 34 36  1  0  0  0
 34 59  1  0  0  0
 34107  1  0  0  0
 35 44  2  0  0  0
 35 45  1  0  0  0
 35 68  1  0  0  0
 36 56  1  0  0  0
 36108  1  0  0  0
 37 39  1  0  0  0
 37 47  1  0  0  0
 37 66  1  0  0  0
 37109  1  0  0  0
 38 43  2  0  0  0
 38 46  1  0  0  0
 38 47  1  0  0  0
 39 64  1  0  0  0
 39 67  2  0  0  0
 40 52  1  0  0  0
 40 53  2  0  0  0
 40 58  1  0  0  0
 41110  1  0  0  0
 41111  1  0  0  0
 41112  1  0  0  0
 41 48  1  0  0  0
 42 43  1  0  0  0
 42 66  1  0  0  0
 42113  1  0  0  0
 42114  1  0  0  0
 43 44  1  0  0  0
 44115  1  0  0  0
 45 46  2  0  0  0
 45116  1  0  0  0
 46117  1  0  0  0
 47118  1  0  0  0
 47119  1  0  0  0
 48 56  1  0  0  0
 48 65  1  0  0  0
 48120  1  0  0  0
 49 50  1  0  0  0
 49 53  1  0  0  0
 49 64  1  0  0  0
 49121  1  0  0  0
 50 51  1  0  0  0
 50122  1  0  0  0
 50123  1  0  0  0
 51 52  1  0  0  0
 51124  1  0  0  0
 51125  1  0  0  0
 52126  1  0  0  0
 52127  1  0  0  0
 53 54  1  0  0  0
 54 55  2  0  0  0
 54128  1  0  0  0
 55 57  1  0  0  0
 55129  1  0  0  0
 56 69  2  0  0  0
 57 58  2  0  0  0
 57130  1  0  0  0
 58131  1  0  0  0
 59 60  1  0  0  0
 59 61  1  0  0  0
 59 62  1  0  0  0
 60132  1  0  0  0
 60133  1  0  0  0
 60134  1  0  0  0
 61135  1  0  0  0
 61136  1  0  0  0
 61137  1  0  0  0
 62138  1  0  0  0
 62139  1  0  0  0
 62140  1  0  0  0
 63 65  1  0  0  0
 63141  1  0  0  0
 63142  1  0  0  0
 63143  1  0  0  0
 64144  1  0  0  0
 65145  1  0  0  0
 68 82  1  0  0  0
 71 73  2  0  0  0
 71 74  1  0  0  0
 71146  1  0  0  0
 72 75  2  0  0  0
 72 76  1  0  0  0
 72147  1  0  0  0
 73 75  1  0  0  0
 73 80  1  0  0  0
 74 76  2  0  0  0
 74 81  1  0  0  0
 75 78  1  0  0  0
 76 86  1  0  0  0
 77 82  1  0  0  0
 77 84  1  0  0  0
 77 85  2  0  0  0
 78148  1  0  0  0
 78149  1  0  0  0
 78150  1  0  0  0
 79 84  1  0  0  0
 79151  1  0  0  0
 79152  1  0  0  0
 79153  1  0  0  0
 80 83  1  0  0  0
 80154  1  0  0  0
 80155  1  0  0  0
 81 84  1  0  0  0
 81156  1  0  0  0
 81157  1  0  0  0
 82158  1  0  0  0
 82159  1  0  0  0
 83160  1  0  0  0
M  ISO  4   1 100  68 101  82 101  83 100
M  END
> <chiral flag>
0

> <version>
0

> <s_m_source_file>
/data/baiqing/PycharmProjects/Reinvent-master-3.2/result/LINK_invent/BTK/process_docking_weight1_custom_product_contain_oxygen_bond_distance_aromatic_linkinvent_7_9_3/rearranged_h_0044.sdf

> <i_m_source_file_index>
60

> <r_mmod_Potential_Energy-OPLS-2005>
-25.4396724700928

> <r_mmod_Stretch_Energy-OPLS-2005>
43.1704521179199

> <r_mmod_Bend_Energy-OPLS-2005>
106.499671936035

> <r_mmod_Torsional_Energy-OPLS-2005>
247.102401733398

> <r_mmod_Improper_Torsional_Energy-OPLS-2005>
10.27623462677

> <r_mmod_Van_der_Waal_Energy-OPLS-2005>
164.126647949219

> <r_mmod_Electrostatic_Energy-OPLS-2005>
-378.602905273438

> <r_mmod_Solvation_Energy-OPLS-2005>
-233.998443603516

> <b_mmod_Minimization_Converged-OPLS-2005>
0

> <r_mmod_RMS_Derivative-OPLS-2005>
1.39746201038361

$$$$
60
                    3D
 Structure written by MMmdl.
164173  0  0  1  0            999 V2000
  -30.6773  -14.5454   20.5427 C   0  0  0  0  0  0
  -30.4274  -12.3487   19.4345 C   0  0  0  0  0  0
  -29.4996  -12.4912   18.2105 C   0  0  0  0  0  0
  -28.0222  -12.3388   18.6253 C   0  0  0  0  0  0
  -27.6524  -13.2092   19.8568 C   0  0  2  0  0  0
  -28.6936  -13.0492   20.9855 C   0  0  0  0  0  0
  -25.2566  -13.8166   20.5642 C   0  0  0  0  0  0
  -24.1822  -13.0449   20.9163 C   0  0  0  0  0  0
  -24.6378  -11.6912   20.8730 C   0  0  0  0  0  0
  -23.9047  -10.4295   21.0404 C   0  0  0  0  0  0
  -24.3610   -9.4210   21.9176 C   0  0  0  0  0  0
  -23.6287   -8.2244   22.0749 C   0  0  0  0  0  0
  -22.4266   -8.0285   21.3540 C   0  0  0  0  0  0
  -21.9900   -9.0254   20.4644 C   0  0  0  0  0  0
  -22.7226  -10.2130   20.3050 C   0  0  0  0  0  0
  -21.6855   -6.0735   22.5267 C   0  0  0  0  0  0
  -21.4018   -6.5635   23.8204 C   0  0  0  0  0  0
  -21.3657   -5.6783   24.9161 C   0  0  0  0  0  0
  -21.6038   -4.3046   24.7214 C   0  0  0  0  0  0
  -21.8820   -3.8145   23.4333 C   0  0  0  0  0  0
  -21.9193   -4.6963   22.3394 C   0  0  0  0  0  0
  -22.7848  -13.5253   21.1821 C   0  0  0  0  0  0
  -22.1661   -4.2150   21.0970 F   0  0  0  0  0  0
  -21.5628   -3.4531   25.7726 F   0  0  0  0  0  0
  -30.0122  -13.3643   20.4160 N   0  0  0  0  0  0
  -26.2976  -12.9327   20.3275 N   0  0  0  0  0  0
  -25.9305  -11.6494   20.5743 N   0  0  0  0  0  0
  -22.0479  -12.8261   22.0380 N   0  0  0  0  0  0
  -25.4310  -15.1879   20.4026 N   0  0  0  0  0  0
  -31.8550  -14.6681   20.2011 O   0  0  0  0  0  0
  -21.6635   -6.8884   21.4234 O   0  0  0  0  0  0
  -22.3536  -14.5564   20.6677 O   0  0  0  0  0  0
  -24.6158  -31.8660   23.2070 C   0  0  0  0  0  0
  -25.9041  -32.4805   23.8379 C   0  0  1  0  0  0
  -27.2334  -27.3913   20.1204 C   0  0  0  0  0  0
  -25.5898  -33.8607   24.2319 N   0  0  0  0  0  0
  -23.4070  -30.4854   21.5490 C   0  0  2  0  0  0
  -24.8540  -28.9382   20.1289 C   0  0  0  0  0  0
  -22.7411  -29.4647   22.4997 C   0  0  0  0  0  0
  -18.0281  -28.1361   22.8503 C   0  0  0  0  0  0
  -24.1491  -36.7292   23.2645 C   0  0  0  0  0  0
  -25.9390  -30.8157   21.3712 C   0  0  0  0  0  0
  -26.0150  -29.4433   20.7269 C   0  0  0  0  0  0
  -27.2087  -28.6789   20.7163 C   0  0  0  0  0  0
  -26.0543  -26.9079   19.5200 C   0  0  0  0  0  0
  -24.8697  -27.6696   19.5241 C   0  0  0  0  0  0
  -23.6177  -29.8092   20.1683 C   0  0  0  0  0  0
  -25.4114  -36.3098   24.0344 C   0  0  1  0  0  0
  -20.5870  -28.3665   23.1309 C   0  0  2  0  0  0
  -20.6770  -26.9403   22.5409 C   0  0  0  0  0  0
  -19.5752  -26.6382   21.5202 C   0  0  0  0  0  0
  -18.1928  -26.7917   22.1613 C   0  0  0  0  0  0
  -19.1526  -28.8824   23.2908 C   0  0  0  0  0  0
  -18.9452  -30.1428   23.8927 C   0  0  0  0  0  0
  -17.6454  -30.6578   24.0557 C   0  0  0  0  0  0
  -25.9037  -34.9466   23.5127 C   0  0  0  0  0  0
  -16.5348  -29.9076   23.6330 C   0  0  0  0  0  0
  -16.7268  -28.6476   23.0384 C   0  0  0  0  0  0
  -26.4482  -31.6596   25.0715 C   0  0  0  0  0  0
  -25.3741  -31.3722   26.1461 C   0  0  0  0  0  0
  -27.0344  -30.3035   24.6131 C   0  0  0  0  0  0
  -27.6061  -32.4340   25.7456 C   0  0  0  0  0  0
  -27.5592  -37.1798   24.8467 C   0  0  0  0  0  0
  -21.4137  -29.3027   22.3708 N   0  0  0  0  0  0
  -26.4304  -37.3775   23.9411 N   0  0  0  0  0  0
  -24.6718  -31.0723   22.0997 N   0  0  0  0  0  0
  -23.4159  -28.8204   23.3069 O   0  0  0  0  0  0
  -28.4164  -26.6836   19.9960 O   0  0  0  0  0  0
  -26.5596  -34.8923   22.4691 O   0  0  0  0  0  0
  -23.5341  -32.1437   23.7435 O   0  0  0  0  0  0
  -29.3166  -19.3026   20.8799 C   0  0  0  0  0  0
  -30.4862  -19.5123   18.3596 C   0  0  0  0  0  0
  -30.0971  -18.2038   20.3935 C   0  0  0  0  0  0
  -29.1137  -20.5043   20.1261 C   0  0  0  0  0  0
  -30.6818  -18.3342   19.1074 C   0  0  0  0  0  0
  -29.7190  -20.5834   18.8494 C   0  0  0  0  0  0
  -28.2767  -24.1211   20.1795 C   0  0  0  0  0  0
  -28.7338  -24.2845   23.0445 C   0  0  0  0  0  0
  -28.3167  -25.5672   22.2785 C   0  0  0  0  0  0
  -29.3718  -23.1851   22.1494 C   0  0  0  0  0  0
  -28.7021  -25.4969   20.7891 C   0  0  2  0  0  0
  -31.5574  -17.2535   18.5020 C   0  0  0  0  0  0
  -28.1443  -21.6175   20.6206 C   0  0  0  0  0  0
  -30.4044  -16.9740   21.2991 C   0  0  0  0  0  0
  -28.6440  -23.0026   20.8820 N   0  0  0  0  0  0
  -29.9320  -15.6183   20.9102 N   0  0  0  0  0  0
  -27.6222  -24.0767   19.1351 O   0  0  0  0  0  0
  -29.5179  -21.9504   17.8153 Cl  0  0  0  0  0  0
  -31.4699  -12.4630   19.1334 H   0  0  0  0  0  0
  -30.3505  -11.3507   19.8678 H   0  0  0  0  0  0
  -29.7561  -11.7445   17.4572 H   0  0  0  0  0  0
  -29.6512  -13.4661   17.7432 H   0  0  0  0  0  0
  -27.8505  -11.2860   18.8533 H   0  0  0  0  0  0
  -27.3679  -12.5756   17.7850 H   0  0  0  0  0  0
  -27.6811  -14.2459   19.5212 H   0  0  0  0  0  0
  -28.6877  -12.0294   21.3723 H   0  0  0  0  0  0
  -28.4510  -13.6903   21.8352 H   0  0  0  0  0  0
  -25.2762   -9.5689   22.4745 H   0  0  0  0  0  0
  -23.9992   -7.4643   22.7483 H   0  0  0  0  0  0
  -21.0823   -8.8774   19.8960 H   0  0  0  0  0  0
  -22.3686  -10.9666   19.6156 H   0  0  0  0  0  0
  -21.2016   -7.6144   23.9709 H   0  0  0  0  0  0
  -21.1477   -6.0510   25.9065 H   0  0  0  0  0  0
  -22.0610   -2.7614   23.2824 H   0  0  0  0  0  0
  -22.4097  -11.9933   22.4778 H   0  0  0  0  0  0
  -21.1111  -13.1307   22.2601 H   0  0  0  0  0  0
  -24.6641  -15.8443   20.4987 H   0  0  0  0  0  0
  -26.2768  -15.6193   20.0501 H   0  0  0  0  0  0
  -26.7107  -32.5501   23.1135 H   0  0  0  0  0  0
  -25.0083  -33.9771   25.0488 H   0  0  0  0  0  0
  -22.6976  -31.3024   21.4036 H   0  0  0  0  0  0
  -23.3758  -35.9619   23.3310 H   0  0  0  0  0  0
  -24.3583  -36.8894   22.2058 H   0  0  0  0  0  0
  -23.7241  -37.6501   23.6649 H   0  0  0  0  0  0
  -26.0643  -31.5800   20.6024 H   0  0  0  0  0  0
  -26.8209  -30.8631   21.9986 H   0  0  0  0  0  0
  -28.1116  -29.0780   21.1573 H   0  0  0  0  0  0
  -26.0469  -25.9535   19.0177 H   0  0  0  0  0  0
  -23.9810  -27.2749   19.0529 H   0  0  0  0  0  0
  -23.7248  -30.5765   19.4007 H   0  0  0  0  0  0
  -22.7420  -29.2251   19.8790 H   0  0  0  0  0  0
  -25.1293  -36.1966   25.0837 H   0  0  0  0  0  0
  -20.9971  -28.3226   24.1426 H   0  0  0  0  0  0
  -20.5670  -26.2269   23.3592 H   0  0  0  0  0  0
  -21.6641  -26.7445   22.1200 H   0  0  0  0  0  0
  -19.6916  -25.6294   21.1228 H   0  0  0  0  0  0
  -19.6690  -27.3191   20.6731 H   0  0  0  0  0  0
  -17.4201  -26.6685   21.4009 H   0  0  0  0  0  0
  -18.0330  -26.0043   22.8993 H   0  0  0  0  0  0
  -19.7925  -30.7230   24.2320 H   0  0  0  0  0  0
  -17.5013  -31.6271   24.5136 H   0  0  0  0  0  0
  -15.5349  -30.2987   23.7629 H   0  0  0  0  0  0
  -15.8670  -28.0774   22.7144 H   0  0  0  0  0  0
  -24.5848  -30.7166   25.7766 H   0  0  0  0  0  0
  -24.9020  -32.2902   26.4976 H   0  0  0  0  0  0
  -25.8059  -30.8799   27.0183 H   0  0  0  0  0  0
  -26.2910  -29.6755   24.1211 H   0  0  0  0  0  0
  -27.4144  -29.7310   25.4604 H   0  0  0  0  0  0
  -27.8723  -30.4353   23.9278 H   0  0  0  0  0  0
  -27.2674  -33.3624   26.2068 H   0  0  0  0  0  0
  -28.3821  -32.6944   25.0244 H   0  0  0  0  0  0
  -28.0790  -31.8465   26.5335 H   0  0  0  0  0  0
  -28.2608  -38.0098   24.7521 H   0  0  0  0  0  0
  -28.1094  -36.2633   24.6282 H   0  0  0  0  0  0
  -27.2311  -37.1425   25.8870 H   0  0  0  0  0  0
  -20.9303  -29.8715   21.6895 H   0  0  0  0  0  0
  -26.0197  -38.2858   24.1397 H   0  0  0  0  0  0
  -28.8617  -19.2212   21.8575 H   0  0  0  0  0  0
  -30.9344  -19.6071   17.3809 H   0  0  0  0  0  0
  -27.8564  -23.8715   23.5439 H   0  0  0  0  0  0
  -29.4290  -24.5454   23.8441 H   0  0  0  0  0  0
  -28.7859  -26.4385   22.7367 H   0  0  0  0  0  0
  -27.2405  -25.7175   22.3784 H   0  0  0  0  0  0
  -29.4350  -22.2482   22.7043 H   0  0  0  0  0  0
  -30.4034  -23.4556   21.9168 H   0  0  0  0  0  0
  -29.7921  -25.4727   20.7638 H   0  0  0  0  0  0
  -32.0136  -17.5818   17.5678 H   0  0  0  0  0  0
  -30.9649  -16.3658   18.2774 H   0  0  0  0  0  0
  -32.3712  -16.9891   19.1763 H   0  0  0  0  0  0
  -27.6674  -21.2653   21.5359 H   0  0  0  0  0  0
  -27.3248  -21.6607   19.9020 H   0  0  0  0  0  0
  -29.9907  -17.1709   22.2884 H   0  0  0  0  0  0
  -31.4831  -16.9459   21.4577 H   0  0  0  0  0  0
  -28.9587  -15.4267   21.0892 H   0  0  0  0  0  0
  1 25  1  0  0  0
  1 30  2  0  0  0
  1 86  1  0  0  0
  2  3  1  0  0  0
  2 25  1  0  0  0
  2 89  1  0  0  0
  2 90  1  0  0  0
  3  4  1  0  0  0
  3 91  1  0  0  0
  3 92  1  0  0  0
  4  5  1  0  0  0
  4 93  1  0  0  0
  4 94  1  0  0  0
  5  6  1  0  0  0
  5 26  1  0  0  0
  5 95  1  0  0  0
  6 25  1  0  0  0
  6 96  1  0  0  0
  6 97  1  0  0  0
  7  8  2  0  0  0
  7 26  1  0  0  0
  7 29  1  0  0  0
  8  9  1  0  0  0
  8 22  1  0  0  0
  9 10  1  0  0  0
  9 27  2  0  0  0
 10 11  2  0  0  0
 10 15  1  0  0  0
 11 12  1  0  0  0
 11 98  1  0  0  0
 12 13  2  0  0  0
 12 99  1  0  0  0
 13 14  1  0  0  0
 13 31  1  0  0  0
 14 15  2  0  0  0
 14100  1  0  0  0
 15101  1  0  0  0
 16 17  2  0  0  0
 16 21  1  0  0  0
 16 31  1  0  0  0
 17 18  1  0  0  0
 17102  1  0  0  0
 18 19  2  0  0  0
 18103  1  0  0  0
 19 20  1  0  0  0
 19 24  1  0  0  0
 20 21  2  0  0  0
 20104  1  0  0  0
 21 23  1  0  0  0
 22 28  1  0  0  0
 22 32  2  0  0  0
 26 27  1  0  0  0
 28105  1  0  0  0
 28106  1  0  0  0
 29107  1  0  0  0
 29108  1  0  0  0
 33 34  1  0  0  0
 33 66  1  0  0  0
 33 70  2  0  0  0
 34 36  1  0  0  0
 34 59  1  0  0  0
 34109  1  0  0  0
 35 44  2  0  0  0
 35 45  1  0  0  0
 35 68  1  0  0  0
 36 56  1  0  0  0
 36110  1  0  0  0
 37 39  1  0  0  0
 37 47  1  0  0  0
 37 66  1  0  0  0
 37111  1  0  0  0
 38 43  2  0  0  0
 38 46  1  0  0  0
 38 47  1  0  0  0
 39 64  1  0  0  0
 39 67  2  0  0  0
 40 52  1  0  0  0
 40 53  2  0  0  0
 40 58  1  0  0  0
 41112  1  0  0  0
 41113  1  0  0  0
 41114  1  0  0  0
 41 48  1  0  0  0
 42 43  1  0  0  0
 42 66  1  0  0  0
 42115  1  0  0  0
 42116  1  0  0  0
 43 44  1  0  0  0
 44117  1  0  0  0
 45 46  2  0  0  0
 45118  1  0  0  0
 46119  1  0  0  0
 47120  1  0  0  0
 47121  1  0  0  0
 48 56  1  0  0  0
 48 65  1  0  0  0
 48122  1  0  0  0
 49 50  1  0  0  0
 49 53  1  0  0  0
 49 64  1  0  0  0
 49123  1  0  0  0
 50 51  1  0  0  0
 50124  1  0  0  0
 50125  1  0  0  0
 51 52  1  0  0  0
 51126  1  0  0  0
 51127  1  0  0  0
 52128  1  0  0  0
 52129  1  0  0  0
 53 54  1  0  0  0
 54 55  2  0  0  0
 54130  1  0  0  0
 55 57  1  0  0  0
 55131  1  0  0  0
 56 69  2  0  0  0
 57 58  2  0  0  0
 57132  1  0  0  0
 58133  1  0  0  0
 59 60  1  0  0  0
 59 61  1  0  0  0
 59 62  1  0  0  0
 60134  1  0  0  0
 60135  1  0  0  0
 60136  1  0  0  0
 61137  1  0  0  0
 61138  1  0  0  0
 61139  1  0  0  0
 62140  1  0  0  0
 62141  1  0  0  0
 62142  1  0  0  0
 63 65  1  0  0  0
 63143  1  0  0  0
 63144  1  0  0  0
 63145  1  0  0  0
 64146  1  0  0  0
 65147  1  0  0  0
 68 81  1  0  0  0
 71 73  2  0  0  0
 71 74  1  0  0  0
 71148  1  0  0  0
 72 75  2  0  0  0
 72 76  1  0  0  0
 72149  1  0  0  0
 73 75  1  0  0  0
 73 84  1  0  0  0
 74 76  2  0  0  0
 74 83  1  0  0  0
 75 82  1  0  0  0
 76 88  1  0  0  0
 77 81  1  0  0  0
 77 85  1  0  0  0
 77 87  2  0  0  0
 78 79  1  0  0  0
 78 80  1  0  0  0
 78150  1  0  0  0
 78151  1  0  0  0
 79 81  1  0  0  0
 79152  1  0  0  0
 79153  1  0  0  0
 80 85  1  0  0  0
 80154  1  0  0  0
 80155  1  0  0  0
 81156  1  0  0  0
 82157  1  0  0  0
 82158  1  0  0  0
 82159  1  0  0  0
 83 85  1  0  0  0
 83160  1  0  0  0
 83161  1  0  0  0
 84 86  1  0  0  0
 84162  1  0  0  0
 84163  1  0  0  0
 86164  1  0  0  0
M  ISO  4   1 100  68 101  81 101  86 100
M  END
> <chiral flag>
0

> <version>
0

> <s_m_source_file>
/data/baiqing/PycharmProjects/Reinvent-master-3.2/result/LINK_invent/BTK/process_docking_weight1_custom_product_contain_oxygen_bond_distance_aromatic_linkinvent_7_9_3/rearranged_h_0044.sdf

> <i_m_source_file_index>
61

> <r_mmod_Potential_Energy-OPLS-2005>
46.4674835205078

> <r_mmod_Stretch_Energy-OPLS-2005>
58.176700592041

> <r_mmod_Bend_Energy-OPLS-2005>
134.887725830078

> <r_mmod_Torsional_Energy-OPLS-2005>
261.342224121094

> <r_mmod_Improper_Torsional_Energy-OPLS-2005>
5.55187749862671

> <r_mmod_Van_der_Waal_Energy-OPLS-2005>
152.765029907227

> <r_mmod_Electrostatic_Energy-OPLS-2005>
-366.503631591797

> <r_mmod_Solvation_Energy-OPLS-2005>
-223.116180419922

> <b_mmod_Minimization_Converged-OPLS-2005>
0

> <r_mmod_RMS_Derivative-OPLS-2005>
1.85844552516937

$$$$
61
                    3D
 Structure written by MMmdl.
164173  0  0  1  0            999 V2000
  -30.5999  -14.6618   20.5173 C   0  0  0  0  0  0
  -30.4430  -12.4116   19.4510 C   0  0  0  0  0  0
  -29.5093  -12.5202   18.2242 C   0  0  0  0  0  0
  -28.0321  -12.3502   18.6345 C   0  0  0  0  0  0
  -27.6533  -13.2148   19.8660 C   0  0  2  0  0  0
  -28.6980  -13.0647   20.9952 C   0  0  0  0  0  0
  -25.2560  -13.8153   20.5687 C   0  0  0  0  0  0
  -24.1831  -13.0427   20.9192 C   0  0  0  0  0  0
  -24.6392  -11.6894   20.8737 C   0  0  0  0  0  0
  -23.9055  -10.4284   21.0403 C   0  0  0  0  0  0
  -24.3610   -9.4203   21.9182 C   0  0  0  0  0  0
  -23.6290   -8.2236   22.0748 C   0  0  0  0  0  0
  -22.4273   -8.0272   21.3536 C   0  0  0  0  0  0
  -21.9902   -9.0242   20.4637 C   0  0  0  0  0  0
  -22.7225  -10.2126   20.3052 C   0  0  0  0  0  0
  -21.6854   -6.0731   22.5273 C   0  0  0  0  0  0
  -21.4013   -6.5637   23.8207 C   0  0  0  0  0  0
  -21.3662   -5.6791   24.9171 C   0  0  0  0  0  0
  -21.6047   -4.3052   24.7222 C   0  0  0  0  0  0
  -21.8820   -3.8142   23.4346 C   0  0  0  0  0  0
  -21.9192   -4.6959   22.3401 C   0  0  0  0  0  0
  -22.7853  -13.5222   21.1858 C   0  0  0  0  0  0
  -22.1662   -4.2142   21.0979 F   0  0  0  0  0  0
  -21.5631   -3.4538   25.7737 F   0  0  0  0  0  0
  -30.0099  -13.4252   20.4344 N   0  0  0  0  0  0
  -26.2987  -12.9332   20.3323 N   0  0  0  0  0  0
  -25.9319  -11.6490   20.5754 N   0  0  0  0  0  0
  -22.0496  -12.8209   22.0414 N   0  0  0  0  0  0
  -25.4275  -15.1871   20.4089 N   0  0  0  0  0  0
  -31.7589  -14.8414   20.1314 O   0  0  0  0  0  0
  -21.6637   -6.8870   21.4235 O   0  0  0  0  0  0
  -22.3539  -14.5538   20.6715 O   0  0  0  0  0  0
  -24.6263  -31.8597   23.2030 C   0  0  0  0  0  0
  -25.9114  -32.4774   23.8358 C   0  0  1  0  0  0
  -27.2224  -27.3043   20.1356 C   0  0  0  0  0  0
  -25.5932  -33.8579   24.2283 N   0  0  0  0  0  0
  -23.4215  -30.4825   21.5449 C   0  0  2  0  0  0
  -24.8715  -28.9355   20.1143 C   0  0  0  0  0  0
  -22.7481  -29.4624   22.4927 C   0  0  0  0  0  0
  -18.0292  -28.1392   22.8488 C   0  0  0  0  0  0
  -24.1491  -36.7292   23.2639 C   0  0  0  0  0  0
  -25.9630  -30.7833   21.3805 C   0  0  0  0  0  0
  -26.0378  -29.4070   20.7319 C   0  0  0  0  0  0
  -27.2173  -28.6010   20.7393 C   0  0  0  0  0  0
  -26.0503  -26.9116   19.4582 C   0  0  0  0  0  0
  -24.8787  -27.6901   19.4698 C   0  0  0  0  0  0
  -23.6388  -29.8162   20.1607 C   0  0  0  0  0  0
  -25.4116  -36.3076   24.0326 C   0  0  1  0  0  0
  -20.5889  -28.3699   23.1276 C   0  0  2  0  0  0
  -20.6778  -26.9420   22.5412 C   0  0  0  0  0  0
  -19.5752  -26.6388   21.5215 C   0  0  0  0  0  0
  -18.1934  -26.7936   22.1629 C   0  0  0  0  0  0
  -19.1544  -28.8862   23.2878 C   0  0  0  0  0  0
  -18.9466  -30.1462   23.8894 C   0  0  0  0  0  0
  -17.6467  -30.6591   24.0567 C   0  0  0  0  0  0
  -25.9056  -34.9448   23.5105 C   0  0  0  0  0  0
  -16.5357  -29.9088   23.6336 C   0  0  0  0  0  0
  -16.7280  -28.6508   23.0353 C   0  0  0  0  0  0
  -26.4503  -31.6587   25.0729 C   0  0  0  0  0  0
  -25.3741  -31.3734   26.1458 C   0  0  0  0  0  0
  -27.0351  -30.3008   24.6190 C   0  0  0  0  0  0
  -27.6052  -32.4331   25.7501 C   0  0  0  0  0  0
  -27.5577  -37.1805   24.8465 C   0  0  0  0  0  0
  -21.4194  -29.3051   22.3668 N   0  0  0  0  0  0
  -26.4289  -37.3772   23.9406 N   0  0  0  0  0  0
  -24.6887  -31.0595   22.0992 N   0  0  0  0  0  0
  -23.4197  -28.8167   23.3015 O   0  0  0  0  0  0
  -28.3282  -26.4380   20.1168 O   0  0  0  0  0  0
  -26.5621  -34.8913   22.4669 O   0  0  0  0  0  0
  -23.5425  -32.1406   23.7352 O   0  0  0  0  0  0
  -28.4821  -19.2355   20.3279 C   0  0  0  0  0  0
  -28.6497  -17.8191   20.2740 C   0  0  0  0  0  0
  -30.6310  -19.4287   21.3710 C   0  0  0  0  0  0
  -29.4608  -20.0913   20.8965 C   0  0  0  0  0  0
  -30.7952  -18.0025   21.3464 C   0  0  0  0  0  0
  -29.7950  -17.1505   20.7887 C   0  0  0  0  0  0
  -29.5088  -24.1740   20.5954 C   0  0  0  0  0  0
  -30.7890  -24.5538   20.7458 C   0  0  0  0  0  0
  -26.7887  -23.2952   19.7078 C   0  0  0  0  0  0
  -26.9728  -24.3000   20.8664 C   0  0  0  0  0  0
  -28.0983  -22.6624   19.1852 C   0  0  0  0  0  0
  -28.2825  -25.1283   20.8368 C   0  0  2  0  0  0
  -32.0175  -17.4087   22.0231 C   0  0  0  0  0  0
  -29.1767  -21.6193   21.2231 C   0  0  0  0  0  0
  -29.7567  -15.6840   20.8850 N   0  0  0  0  0  0
  -29.2102  -22.7126   20.1624 N   0  3  2  0  0  0
  -31.4829  -12.5496   19.1492 H   0  0  0  0  0  0
  -30.3876  -11.4138   19.8878 H   0  0  0  0  0  0
  -29.7773  -11.7705   17.4785 H   0  0  0  0  0  0
  -29.6466  -13.4911   17.7452 H   0  0  0  0  0  0
  -27.8706  -11.2956   18.8608 H   0  0  0  0  0  0
  -27.3765  -12.5825   17.7939 H   0  0  0  0  0  0
  -27.6710  -14.2512   19.5288 H   0  0  0  0  0  0
  -28.7182  -12.0389   21.3668 H   0  0  0  0  0  0
  -28.4375  -13.6833   21.8560 H   0  0  0  0  0  0
  -25.2758   -9.5685   22.4751 H   0  0  0  0  0  0
  -23.9999   -7.4633   22.7474 H   0  0  0  0  0  0
  -21.0830   -8.8757   19.8950 H   0  0  0  0  0  0
  -22.3679  -10.9662   19.6160 H   0  0  0  0  0  0
  -21.2002   -7.6142   23.9707 H   0  0  0  0  0  0
  -21.1487   -6.0522   25.9074 H   0  0  0  0  0  0
  -22.0599   -2.7603   23.2847 H   0  0  0  0  0  0
  -22.4106  -11.9857   22.4785 H   0  0  0  0  0  0
  -21.1114  -13.1226   22.2634 H   0  0  0  0  0  0
  -24.6577  -15.8399   20.5113 H   0  0  0  0  0  0
  -26.2664  -15.6193   20.0472 H   0  0  0  0  0  0
  -26.7179  -32.5438   23.1104 H   0  0  0  0  0  0
  -25.0062  -33.9729   25.0413 H   0  0  0  0  0  0
  -22.7157  -31.3033   21.4011 H   0  0  0  0  0  0
  -23.3748  -35.9630   23.3298 H   0  0  0  0  0  0
  -24.3583  -36.8918   22.2055 H   0  0  0  0  0  0
  -23.7254  -37.6496   23.6668 H   0  0  0  0  0  0
  -26.0953  -31.5401   20.6059 H   0  0  0  0  0  0
  -26.8436  -30.8369   22.0090 H   0  0  0  0  0  0
  -28.1119  -28.9581   21.2301 H   0  0  0  0  0  0
  -26.0311  -25.9760   18.9222 H   0  0  0  0  0  0
  -23.9923  -27.3295   18.9659 H   0  0  0  0  0  0
  -23.7586  -30.5926   19.4040 H   0  0  0  0  0  0
  -22.7592  -29.2444   19.8580 H   0  0  0  0  0  0
  -25.1296  -36.1923   25.0817 H   0  0  0  0  0  0
  -20.9987  -28.3281   24.1395 H   0  0  0  0  0  0
  -20.5678  -26.2313   23.3617 H   0  0  0  0  0  0
  -21.6646  -26.7445   22.1207 H   0  0  0  0  0  0
  -19.6915  -25.6297   21.1248 H   0  0  0  0  0  0
  -19.6691  -27.3196   20.6740 H   0  0  0  0  0  0
  -17.4204  -26.6683   21.4032 H   0  0  0  0  0  0
  -18.0337  -26.0077   22.9024 H   0  0  0  0  0  0
  -19.7939  -30.7281   24.2260 H   0  0  0  0  0  0
  -17.5020  -31.6270   24.5171 H   0  0  0  0  0  0
  -15.5357  -30.2990   23.7659 H   0  0  0  0  0  0
  -15.8681  -28.0826   22.7067 H   0  0  0  0  0  0
  -24.5892  -30.7110   25.7790 H   0  0  0  0  0  0
  -24.8962  -32.2909   26.4900 H   0  0  0  0  0  0
  -25.8061  -30.8895   27.0224 H   0  0  0  0  0  0
  -26.2932  -29.6754   24.1205 H   0  0  0  0  0  0
  -27.4040  -29.7262   25.4695 H   0  0  0  0  0  0
  -27.8806  -30.4293   23.9428 H   0  0  0  0  0  0
  -27.2642  -33.3606   26.2112 H   0  0  0  0  0  0
  -28.3845  -32.6938   25.0330 H   0  0  0  0  0  0
  -28.0747  -31.8448   26.5394 H   0  0  0  0  0  0
  -28.2592  -38.0101   24.7491 H   0  0  0  0  0  0
  -28.1073  -36.2627   24.6310 H   0  0  0  0  0  0
  -27.2296  -37.1477   25.8869 H   0  0  0  0  0  0
  -20.9373  -29.8776   21.6878 H   0  0  0  0  0  0
  -26.0166  -38.2845   24.1396 H   0  0  0  0  0  0
  -27.5450  -19.6504   19.9830 H   0  0  0  0  0  0
  -27.8392  -17.2310   19.8674 H   0  0  0  0  0  0
  -31.3956  -20.0227   21.8530 H   0  0  0  0  0  0
  -31.0355  -25.5629   21.0440 H   0  0  0  0  0  0
  -31.6122  -23.8747   20.5759 H   0  0  0  0  0  0
  -26.2759  -23.7663   18.8700 H   0  0  0  0  0  0
  -26.1179  -22.5045   20.0465 H   0  0  0  0  0  0
  -27.0155  -23.7088   21.7816 H   0  0  0  0  0  0
  -26.0818  -24.9052   21.0205 H   0  0  0  0  0  0
  -28.4254  -23.2272   18.3108 H   0  0  0  0  0  0
  -27.9307  -21.6478   18.8257 H   0  0  0  0  0  0
  -28.4178  -25.4475   21.8714 H   0  0  0  0  0  0
  -32.7432  -17.0803   21.2800 H   0  0  0  0  0  0
  -32.5071  -18.1345   22.6730 H   0  0  0  0  0  0
  -31.7413  -16.5531   22.6407 H   0  0  0  0  0  0
  -29.9015  -21.9082   21.9843 H   0  0  0  0  0  0
  -28.2152  -21.6664   21.7332 H   0  0  0  0  0  0
  -28.8383  -15.3211   21.0878 H   0  0  0  0  0  0
  -30.0051  -22.4280   19.6108 H   0  0  0  0  0  0
  1 25  1  0  0  0
  1 30  2  0  0  0
  1 85  1  0  0  0
  2  3  1  0  0  0
  2 25  1  0  0  0
  2 87  1  0  0  0
  2 88  1  0  0  0
  3  4  1  0  0  0
  3 89  1  0  0  0
  3 90  1  0  0  0
  4  5  1  0  0  0
  4 91  1  0  0  0
  4 92  1  0  0  0
  5  6  1  0  0  0
  5 26  1  0  0  0
  5 93  1  0  0  0
  6 25  1  0  0  0
  6 94  1  0  0  0
  6 95  1  0  0  0
  7  8  2  0  0  0
  7 26  1  0  0  0
  7 29  1  0  0  0
  8  9  1  0  0  0
  8 22  1  0  0  0
  9 10  1  0  0  0
  9 27  2  0  0  0
 10 11  2  0  0  0
 10 15  1  0  0  0
 11 12  1  0  0  0
 11 96  1  0  0  0
 12 13  2  0  0  0
 12 97  1  0  0  0
 13 14  1  0  0  0
 13 31  1  0  0  0
 14 15  2  0  0  0
 14 98  1  0  0  0
 15 99  1  0  0  0
 16 17  2  0  0  0
 16 21  1  0  0  0
 16 31  1  0  0  0
 17 18  1  0  0  0
 17100  1  0  0  0
 18 19  2  0  0  0
 18101  1  0  0  0
 19 20  1  0  0  0
 19 24  1  0  0  0
 20 21  2  0  0  0
 20102  1  0  0  0
 21 23  1  0  0  0
 22 28  1  0  0  0
 22 32  2  0  0  0
 26 27  1  0  0  0
 28103  1  0  0  0
 28104  1  0  0  0
 29105  1  0  0  0
 29106  1  0  0  0
 33 34  1  0  0  0
 33 66  1  0  0  0
 33 70  2  0  0  0
 34 36  1  0  0  0
 34 59  1  0  0  0
 34107  1  0  0  0
 35 44  2  0  0  0
 35 45  1  0  0  0
 35 68  1  0  0  0
 36 56  1  0  0  0
 36108  1  0  0  0
 37 39  1  0  0  0
 37 47  1  0  0  0
 37 66  1  0  0  0
 37109  1  0  0  0
 38 43  2  0  0  0
 38 46  1  0  0  0
 38 47  1  0  0  0
 39 64  1  0  0  0
 39 67  2  0  0  0
 40 52  1  0  0  0
 40 53  2  0  0  0
 40 58  1  0  0  0
 41110  1  0  0  0
 41111  1  0  0  0
 41112  1  0  0  0
 41 48  1  0  0  0
 42 43  1  0  0  0
 42 66  1  0  0  0
 42113  1  0  0  0
 42114  1  0  0  0
 43 44  1  0  0  0
 44115  1  0  0  0
 45 46  2  0  0  0
 45116  1  0  0  0
 46117  1  0  0  0
 47118  1  0  0  0
 47119  1  0  0  0
 48 56  1  0  0  0
 48 65  1  0  0  0
 48120  1  0  0  0
 49 50  1  0  0  0
 49 53  1  0  0  0
 49 64  1  0  0  0
 49121  1  0  0  0
 50 51  1  0  0  0
 50122  1  0  0  0
 50123  1  0  0  0
 51 52  1  0  0  0
 51124  1  0  0  0
 51125  1  0  0  0
 52126  1  0  0  0
 52127  1  0  0  0
 53 54  1  0  0  0
 54 55  2  0  0  0
 54128  1  0  0  0
 55 57  1  0  0  0
 55129  1  0  0  0
 56 69  2  0  0  0
 57 58  2  0  0  0
 57130  1  0  0  0
 58131  1  0  0  0
 59 60  1  0  0  0
 59 61  1  0  0  0
 59 62  1  0  0  0
 60132  1  0  0  0
 60133  1  0  0  0
 60134  1  0  0  0
 61135  1  0  0  0
 61136  1  0  0  0
 61137  1  0  0  0
 62138  1  0  0  0
 62139  1  0  0  0
 62140  1  0  0  0
 63 65  1  0  0  0
 63141  1  0  0  0
 63142  1  0  0  0
 63143  1  0  0  0
 64144  1  0  0  0
 65145  1  0  0  0
 68 82  1  0  0  0
 71 72  2  0  0  0
 71 74  1  0  0  0
 71146  1  0  0  0
 72 76  1  0  0  0
 72147  1  0  0  0
 73 74  2  0  0  0
 73 75  1  0  0  0
 73148  1  0  0  0
 74 84  1  0  0  0
 75 76  2  0  0  0
 75 83  1  0  0  0
 76 85  1  0  0  0
 77 78  2  0  0  0
 77 82  1  0  0  0
 77 86  1  0  0  0
 78149  1  0  0  0
 78150  1  0  0  0
 79 80  1  0  0  0
 79 81  1  0  0  0
 79151  1  0  0  0
 79152  1  0  0  0
 80 82  1  0  0  0
 80153  1  0  0  0
 80154  1  0  0  0
 81 86  1  0  0  0
 81155  1  0  0  0
 81156  1  0  0  0
 82157  1  0  0  0
 83158  1  0  0  0
 83159  1  0  0  0
 83160  1  0  0  0
 84161  1  0  0  0
 84162  1  0  0  0
 84 86  1  0  0  0
 85163  1  0  0  0
 86164  1  0  0  0
M  CHG  1  86   1
M  ISO  4   1 100  68 101  82 101  85 100
M  END
> <chiral flag>
0

> <version>
0

> <s_m_source_file>
/data/baiqing/PycharmProjects/Reinvent-master-3.2/result/LINK_invent/BTK/process_docking_weight1_custom_product_contain_oxygen_bond_distance_aromatic_linkinvent_7_9_3/rearranged_h_0044.sdf

> <i_m_source_file_index>
62

> <r_mmod_Potential_Energy-OPLS-2005>
24.6708850860596

> <r_mmod_Stretch_Energy-OPLS-2005>
92.3168869018555

> <r_mmod_Bend_Energy-OPLS-2005>
180.997940063477

> <r_mmod_Torsional_Energy-OPLS-2005>
277.78076171875

> <r_mmod_Improper_Torsional_Energy-OPLS-2005>
7.34560203552246

> <r_mmod_Van_der_Waal_Energy-OPLS-2005>
140.495803833008

> <r_mmod_Electrostatic_Energy-OPLS-2005>
-292.340728759766

> <r_mmod_Solvation_Energy-OPLS-2005>
-436.458312988281

> <b_mmod_Minimization_Converged-OPLS-2005>
0

> <r_mmod_RMS_Derivative-OPLS-2005>
1.18603885173798

$$$$
62
                    3D
 Structure written by MMmdl.
174183  0  0  1  0            999 V2000
  -30.6953  -14.4672   20.5808 C   0  0  0  0  0  0
  -30.4279  -12.3052   19.4163 C   0  0  0  0  0  0
  -29.4975  -12.5110   18.2031 C   0  0  0  0  0  0
  -28.0198  -12.3701   18.6177 C   0  0  0  0  0  0
  -27.6674  -13.2009   19.8816 C   0  0  2  0  0  0
  -28.7108  -12.9609   20.9974 C   0  0  0  0  0  0
  -25.2616  -13.8134   20.5679 C   0  0  0  0  0  0
  -24.1861  -13.0411   20.9150 C   0  0  0  0  0  0
  -24.6416  -11.6883   20.8706 C   0  0  0  0  0  0
  -23.9060  -10.4286   21.0393 C   0  0  0  0  0  0
  -24.3617   -9.4214   21.9171 C   0  0  0  0  0  0
  -23.6296   -8.2250   22.0758 C   0  0  0  0  0  0
  -22.4270   -8.0285   21.3555 C   0  0  0  0  0  0
  -21.9905   -9.0252   20.4640 C   0  0  0  0  0  0
  -22.7237  -10.2133   20.3044 C   0  0  0  0  0  0
  -21.6844   -6.0748   22.5290 C   0  0  0  0  0  0
  -21.4016   -6.5653   23.8222 C   0  0  0  0  0  0
  -21.3662   -5.6797   24.9180 C   0  0  0  0  0  0
  -21.6035   -4.3055   24.7215 C   0  0  0  0  0  0
  -21.8830   -3.8160   23.4335 C   0  0  0  0  0  0
  -21.9190   -4.6980   22.3397 C   0  0  0  0  0  0
  -22.7900  -13.5214   21.1821 C   0  0  0  0  0  0
  -22.1658   -4.2167   21.0974 F   0  0  0  0  0  0
  -21.5632   -3.4533   25.7731 F   0  0  0  0  0  0
  -30.0416  -13.2786   20.4510 N   0  0  0  0  0  0
  -26.3063  -12.9299   20.3384 N   0  0  0  0  0  0
  -25.9336  -11.6457   20.5748 N   0  0  0  0  0  0
  -22.0540  -12.8205   22.0394 N   0  0  0  0  0  0
  -25.4300  -15.1858   20.4185 N   0  0  0  0  0  0
  -31.8009  -14.6747   20.0716 O   0  0  0  0  0  0
  -21.6633   -6.8892   21.4261 O   0  0  0  0  0  0
  -22.3594  -14.5527   20.6675 O   0  0  0  0  0  0
  -24.6160  -31.8629   23.2061 C   0  0  0  0  0  0
  -25.9045  -32.4786   23.8368 C   0  0  1  0  0  0
  -27.2409  -27.4107   20.1078 C   0  0  0  0  0  0
  -25.5902  -33.8585   24.2301 N   0  0  0  0  0  0
  -23.4069  -30.4837   21.5451 C   0  0  2  0  0  0
  -24.8576  -28.9427   20.1181 C   0  0  0  0  0  0
  -22.7415  -29.4618   22.4966 C   0  0  0  0  0  0
  -18.0268  -28.1382   22.8507 C   0  0  0  0  0  0
  -24.1493  -36.7296   23.2642 C   0  0  0  0  0  0
  -25.9386  -30.8235   21.3624 C   0  0  0  0  0  0
  -26.0181  -29.4553   20.7109 C   0  0  0  0  0  0
  -27.2146  -28.6984   20.6977 C   0  0  0  0  0  0
  -26.0601  -26.9131   19.5164 C   0  0  0  0  0  0
  -24.8740  -27.6722   19.5157 C   0  0  0  0  0  0
  -23.6164  -29.8069   20.1643 C   0  0  0  0  0  0
  -25.4118  -36.3090   24.0338 C   0  0  1  0  0  0
  -20.5862  -28.3652   23.1332 C   0  0  2  0  0  0
  -20.6752  -26.9390   22.5433 C   0  0  0  0  0  0
  -19.5725  -26.6384   21.5220 C   0  0  0  0  0  0
  -18.1906  -26.7933   22.1631 C   0  0  0  0  0  0
  -19.1525  -28.8841   23.2912 C   0  0  0  0  0  0
  -18.9445  -30.1456   23.8910 C   0  0  0  0  0  0
  -17.6443  -30.6596   24.0566 C   0  0  0  0  0  0
  -25.9050  -34.9449   23.5120 C   0  0  0  0  0  0
  -16.5338  -29.9091   23.6332 C   0  0  0  0  0  0
  -16.7256  -28.6499   23.0361 C   0  0  0  0  0  0
  -26.4483  -31.6576   25.0701 C   0  0  0  0  0  0
  -25.3766  -31.3648   26.1449 C   0  0  0  0  0  0
  -27.0330  -30.3020   24.6092 C   0  0  0  0  0  0
  -27.6055  -32.4288   25.7492 C   0  0  0  0  0  0
  -27.5586  -37.1803   24.8464 C   0  0  0  0  0  0
  -21.4134  -29.3028   22.3740 N   0  0  0  0  0  0
  -26.4299  -37.3778   23.9418 N   0  0  0  0  0  0
  -24.6725  -31.0705   22.0959 N   0  0  0  0  0  0
  -23.4173  -28.8151   23.3017 O   0  0  0  0  0  0
  -28.4060  -26.6656   20.0908 O   0  0  0  0  0  0
  -26.5604  -34.8908   22.4675 O   0  0  0  0  0  0
  -23.5341  -32.1389   23.7449 O   0  0  0  0  0  0
  -28.6621  -18.6692   19.9753 C   0  0  0  0  0  0
  -28.7853  -17.3188   20.3552 C   0  0  0  0  0  0
  -29.7469  -19.5670   20.0869 C   0  0  0  0  0  0
  -30.9784  -19.0730   20.6198 C   0  0  0  0  0  0
  -31.0739  -17.7189   21.0746 C   0  0  0  0  0  0
  -29.9899  -16.8165   20.8792 C   0  0  0  0  0  0
  -27.9171  -22.8601   20.2218 C   0  0  0  0  0  0
  -25.0464  -20.9968   21.6206 C   0  0  0  0  0  0
  -26.6526  -22.4984   20.5209 C   0  0  0  0  0  0
  -26.2961  -21.2775   21.2263 C   0  0  0  0  0  0
  -28.3395  -24.1969   19.5945 C   0  0  0  0  0  0
  -29.7138  -23.8199   22.2855 C   0  0  0  0  0  0
  -29.5570  -25.1959   21.5943 C   0  0  0  0  0  0
  -30.1693  -22.6596   21.3605 C   0  0  0  0  0  0
  -28.3446  -25.3345   20.6516 C   0  0  1  0  0  0
  -32.2186  -19.9655   20.6977 C   0  0  0  0  0  0
  -32.3288  -17.2579   21.8098 C   0  0  0  0  0  0
  -29.5279  -21.0159   19.5813 C   0  0  0  0  0  0
  -30.0150  -15.4300   21.2372 N   0  0  0  0  0  0
  -29.0670  -21.9791   20.6271 N   0  3  1  0  0  0
  -31.4709  -12.4082   19.1114 H   0  0  0  0  0  0
  -30.3296  -11.2902   19.8027 H   0  0  0  0  0  0
  -29.7315  -11.7899   17.4184 H   0  0  0  0  0  0
  -29.6678  -13.4986   17.7726 H   0  0  0  0  0  0
  -27.8287  -11.3130   18.8058 H   0  0  0  0  0  0
  -27.3700  -12.6500   17.7877 H   0  0  0  0  0  0
  -27.7170  -14.2509   19.5960 H   0  0  0  0  0  0
  -28.6886  -11.9158   21.3119 H   0  0  0  0  0  0
  -28.4725  -13.5335   21.8939 H   0  0  0  0  0  0
  -25.2786   -9.5680   22.4699 H   0  0  0  0  0  0
  -24.0004   -7.4645   22.7488 H   0  0  0  0  0  0
  -21.0840   -8.8775   19.8933 H   0  0  0  0  0  0
  -22.3716  -10.9667   19.6127 H   0  0  0  0  0  0
  -21.2019   -7.6159   23.9735 H   0  0  0  0  0  0
  -21.1468   -6.0524   25.9087 H   0  0  0  0  0  0
  -22.0601   -2.7621   23.2833 H   0  0  0  0  0  0
  -22.4153  -11.9827   22.4723 H   0  0  0  0  0  0
  -21.1177  -13.1258   22.2629 H   0  0  0  0  0  0
  -24.6581  -15.8337   20.5313 H   0  0  0  0  0  0
  -26.2819  -15.6351   20.1123 H   0  0  0  0  0  0
  -26.7122  -32.5499   23.1134 H   0  0  0  0  0  0
  -25.0070  -33.9764   25.0461 H   0  0  0  0  0  0
  -22.6967  -31.3007   21.3999 H   0  0  0  0  0  0
  -23.3761  -35.9616   23.3289 H   0  0  0  0  0  0
  -24.3578  -36.8925   22.2060 H   0  0  0  0  0  0
  -23.7247  -37.6495   23.6666 H   0  0  0  0  0  0
  -26.0535  -31.5890   20.5940 H   0  0  0  0  0  0
  -26.8254  -30.8775   21.9819 H   0  0  0  0  0  0
  -28.1139  -29.0880   21.1542 H   0  0  0  0  0  0
  -26.0503  -25.9393   19.0517 H   0  0  0  0  0  0
  -23.9815  -27.2744   19.0528 H   0  0  0  0  0  0
  -23.7176  -30.5738   19.3967 H   0  0  0  0  0  0
  -22.7442  -29.2157   19.8752 H   0  0  0  0  0  0
  -25.1286  -36.1941   25.0829 H   0  0  0  0  0  0
  -20.9959  -28.3224   24.1444 H   0  0  0  0  0  0
  -20.5655  -26.2246   23.3604 H   0  0  0  0  0  0
  -21.6612  -26.7416   22.1233 H   0  0  0  0  0  0
  -19.6879  -25.6297   21.1230 H   0  0  0  0  0  0
  -19.6671  -27.3211   20.6767 H   0  0  0  0  0  0
  -17.4168  -26.6698   21.4032 H   0  0  0  0  0  0
  -18.0290  -26.0080   22.9028 H   0  0  0  0  0  0
  -19.7914  -30.7286   24.2270 H   0  0  0  0  0  0
  -17.4987  -31.6276   24.5156 H   0  0  0  0  0  0
  -15.5333  -30.2989   23.7658 H   0  0  0  0  0  0
  -15.8655  -28.0827   22.7067 H   0  0  0  0  0  0
  -24.5964  -30.6960   25.7789 H   0  0  0  0  0  0
  -24.8935  -32.2788   26.4907 H   0  0  0  0  0  0
  -25.8158  -30.8821   27.0200 H   0  0  0  0  0  0
  -26.2883  -29.6754   24.1163 H   0  0  0  0  0  0
  -27.4131  -29.7248   25.4546 H   0  0  0  0  0  0
  -27.8693  -30.4331   23.9218 H   0  0  0  0  0  0
  -27.2672  -33.3581   26.2075 H   0  0  0  0  0  0
  -28.3886  -32.6844   25.0348 H   0  0  0  0  0  0
  -28.0691  -31.8395   26.5417 H   0  0  0  0  0  0
  -28.2580  -38.0126   24.7541 H   0  0  0  0  0  0
  -28.1119  -36.2655   24.6265 H   0  0  0  0  0  0
  -27.2291  -37.1415   25.8863 H   0  0  0  0  0  0
  -20.9286  -29.8773   21.6992 H   0  0  0  0  0  0
  -26.0173  -38.2841   24.1452 H   0  0  0  0  0  0
  -27.7198  -19.0030   19.5618 H   0  0  0  0  0  0
  -27.9358  -16.6653   20.2275 H   0  0  0  0  0  0
  -24.8302  -20.0779   22.1502 H   0  0  0  0  0  0
  -24.2215  -21.6699   21.4326 H   0  0  0  0  0  0
  -25.8579  -23.1791   20.2482 H   0  0  0  0  0  0
  -27.0518  -20.5425   21.4617 H   0  0  0  0  0  0
  -27.6423  -24.4242   18.7897 H   0  0  0  0  0  0
  -29.3155  -24.1112   19.1140 H   0  0  0  0  0  0
  -28.8082  -23.5567   22.8337 H   0  0  0  0  0  0
  -30.4807  -23.9348   23.0533 H   0  0  0  0  0  0
  -30.4745  -25.4366   21.0537 H   0  0  0  0  0  0
  -29.4697  -25.9580   22.3689 H   0  0  0  0  0  0
  -30.6355  -21.9032   21.9885 H   0  0  0  0  0  0
  -30.9397  -23.0048   20.6687 H   0  0  0  0  0  0
  -27.4421  -25.2465   21.2613 H   0  0  0  0  0  0
  -32.2204  -20.7623   19.9584 H   0  0  0  0  0  0
  -33.1290  -19.4000   20.5027 H   0  0  0  0  0  0
  -32.3224  -20.4108   21.6864 H   0  0  0  0  0  0
  -32.5900  -17.9700   22.5936 H   0  0  0  0  0  0
  -33.1720  -17.1710   21.1259 H   0  0  0  0  0  0
  -32.2000  -16.2963   22.3041 H   0  0  0  0  0  0
  -28.7515  -20.9574   18.8150 H   0  0  0  0  0  0
  -30.3879  -21.4026   19.0382 H   0  0  0  0  0  0
  -29.1621  -15.0814   21.6471 H   0  0  0  0  0  0
  -28.6783  -21.3621   21.3239 H   0  0  0  0  0  0
  1 25  1  0  0  0
  1 30  2  0  0  0
  1 89  1  0  0  0
  2  3  1  0  0  0
  2 25  1  0  0  0
  2 91  1  0  0  0
  2 92  1  0  0  0
  3  4  1  0  0  0
  3 93  1  0  0  0
  3 94  1  0  0  0
  4  5  1  0  0  0
  4 95  1  0  0  0
  4 96  1  0  0  0
  5  6  1  0  0  0
  5 26  1  0  0  0
  5 97  1  0  0  0
  6 25  1  0  0  0
  6 98  1  0  0  0
  6 99  1  0  0  0
  7  8  2  0  0  0
  7 26  1  0  0  0
  7 29  1  0  0  0
  8  9  1  0  0  0
  8 22  1  0  0  0
  9 10  1  0  0  0
  9 27  2  0  0  0
 10 11  2  0  0  0
 10 15  1  0  0  0
 11 12  1  0  0  0
 11100  1  0  0  0
 12 13  2  0  0  0
 12101  1  0  0  0
 13 14  1  0  0  0
 13 31  1  0  0  0
 14 15  2  0  0  0
 14102  1  0  0  0
 15103  1  0  0  0
 16 17  2  0  0  0
 16 21  1  0  0  0
 16 31  1  0  0  0
 17 18  1  0  0  0
 17104  1  0  0  0
 18 19  2  0  0  0
 18105  1  0  0  0
 19 20  1  0  0  0
 19 24  1  0  0  0
 20 21  2  0  0  0
 20106  1  0  0  0
 21 23  1  0  0  0
 22 28  1  0  0  0
 22 32  2  0  0  0
 26 27  1  0  0  0
 28107  1  0  0  0
 28108  1  0  0  0
 29109  1  0  0  0
 29110  1  0  0  0
 33 34  1  0  0  0
 33 66  1  0  0  0
 33 70  2  0  0  0
 34 36  1  0  0  0
 34 59  1  0  0  0
 34111  1  0  0  0
 35 44  2  0  0  0
 35 45  1  0  0  0
 35 68  1  0  0  0
 36 56  1  0  0  0
 36112  1  0  0  0
 37 39  1  0  0  0
 37 47  1  0  0  0
 37 66  1  0  0  0
 37113  1  0  0  0
 38 43  2  0  0  0
 38 46  1  0  0  0
 38 47  1  0  0  0
 39 64  1  0  0  0
 39 67  2  0  0  0
 40 52  1  0  0  0
 40 53  2  0  0  0
 40 58  1  0  0  0
 41114  1  0  0  0
 41115  1  0  0  0
 41116  1  0  0  0
 41 48  1  0  0  0
 42 43  1  0  0  0
 42 66  1  0  0  0
 42117  1  0  0  0
 42118  1  0  0  0
 43 44  1  0  0  0
 44119  1  0  0  0
 45 46  2  0  0  0
 45120  1  0  0  0
 46121  1  0  0  0
 47122  1  0  0  0
 47123  1  0  0  0
 48 56  1  0  0  0
 48 65  1  0  0  0
 48124  1  0  0  0
 49 50  1  0  0  0
 49 53  1  0  0  0
 49 64  1  0  0  0
 49125  1  0  0  0
 50 51  1  0  0  0
 50126  1  0  0  0
 50127  1  0  0  0
 51 52  1  0  0  0
 51128  1  0  0  0
 51129  1  0  0  0
 52130  1  0  0  0
 52131  1  0  0  0
 53 54  1  0  0  0
 54 55  2  0  0  0
 54132  1  0  0  0
 55 57  1  0  0  0
 55133  1  0  0  0
 56 69  2  0  0  0
 57 58  2  0  0  0
 57134  1  0  0  0
 58135  1  0  0  0
 59 60  1  0  0  0
 59 61  1  0  0  0
 59 62  1  0  0  0
 60136  1  0  0  0
 60137  1  0  0  0
 60138  1  0  0  0
 61139  1  0  0  0
 61140  1  0  0  0
 61141  1  0  0  0
 62142  1  0  0  0
 62143  1  0  0  0
 62144  1  0  0  0
 63 65  1  0  0  0
 63145  1  0  0  0
 63146  1  0  0  0
 63147  1  0  0  0
 64148  1  0  0  0
 65149  1  0  0  0
 68 85  1  0  0  0
 71 72  2  0  0  0
 71 73  1  0  0  0
 71150  1  0  0  0
 72 76  1  0  0  0
 72151  1  0  0  0
 73 74  2  0  0  0
 73 88  1  0  0  0
 74 75  1  0  0  0
 74 86  1  0  0  0
 75 76  2  0  0  0
 75 87  1  0  0  0
 76 89  1  0  0  0
 77 79  2  0  0  0
 77 81  1  0  0  0
 77 90  1  0  0  0
 78 80  2  0  0  0
 78152  1  0  0  0
 78153  1  0  0  0
 79 80  1  0  0  0
 79154  1  0  0  0
 80155  1  0  0  0
 81 85  1  0  0  0
 81156  1  0  0  0
 81157  1  0  0  0
 82 83  1  0  0  0
 82 84  1  0  0  0
 82158  1  0  0  0
 82159  1  0  0  0
 83 85  1  0  0  0
 83160  1  0  0  0
 83161  1  0  0  0
 84 90  1  0  0  0
 84162  1  0  0  0
 84163  1  0  0  0
 85164  1  0  0  0
 86165  1  0  0  0
 86166  1  0  0  0
 86167  1  0  0  0
 87168  1  0  0  0
 87169  1  0  0  0
 87170  1  0  0  0
 88171  1  0  0  0
 88172  1  0  0  0
 88 90  1  0  0  0
 89173  1  0  0  0
 90174  1  0  0  0
M  CHG  1  90   1
M  ISO  4   1 100  68 101  85 101  89 100
M  END
> <chiral flag>
0

> <version>
0

> <s_m_source_file>
/data/baiqing/PycharmProjects/Reinvent-master-3.2/result/LINK_invent/BTK/process_docking_weight1_custom_product_contain_oxygen_bond_distance_aromatic_linkinvent_7_9_3/rearranged_h_0044.sdf

> <i_m_source_file_index>
63

> <r_mmod_Potential_Energy-OPLS-2005>
-113.370452880859

> <r_mmod_Stretch_Energy-OPLS-2005>
48.2997245788574

> <r_mmod_Bend_Energy-OPLS-2005>
118.723258972168

> <r_mmod_Torsional_Energy-OPLS-2005>
266.626281738281

> <r_mmod_Improper_Torsional_Energy-OPLS-2005>
4.98314619064331

> <r_mmod_Van_der_Waal_Energy-OPLS-2005>
148.731216430664

> <r_mmod_Electrostatic_Energy-OPLS-2005>
-286.721160888672

> <r_mmod_Solvation_Energy-OPLS-2005>
-426.554290771484

> <b_mmod_Minimization_Converged-OPLS-2005>
0

> <r_mmod_RMS_Derivative-OPLS-2005>
2.97762084007263

$$$$
63
                    3D
 Structure written by MMmdl.
174183  0  0  1  0            999 V2000
  -30.6090  -14.7412   20.4667 C   0  0  0  0  0  0
  -30.4299  -12.4464   19.4891 C   0  0  0  0  0  0
  -29.5155  -12.5256   18.2462 C   0  0  0  0  0  0
  -28.0380  -12.3554   18.6490 C   0  0  0  0  0  0
  -27.6467  -13.2334   19.8673 C   0  0  2  0  0  0
  -28.6892  -13.1517   21.0060 C   0  0  0  0  0  0
  -25.2536  -13.8218   20.5721 C   0  0  0  0  0  0
  -24.1818  -13.0451   20.9191 C   0  0  0  0  0  0
  -24.6404  -11.6929   20.8726 C   0  0  0  0  0  0
  -23.9080  -10.4299   21.0389 C   0  0  0  0  0  0
  -24.3627   -9.4219   21.9175 C   0  0  0  0  0  0
  -23.6303   -8.2256   22.0765 C   0  0  0  0  0  0
  -22.4282   -8.0293   21.3563 C   0  0  0  0  0  0
  -21.9916   -9.0258   20.4658 C   0  0  0  0  0  0
  -22.7248  -10.2133   20.3050 C   0  0  0  0  0  0
  -21.6865   -6.0740   22.5282 C   0  0  0  0  0  0
  -21.4015   -6.5643   23.8217 C   0  0  0  0  0  0
  -21.3665   -5.6799   24.9178 C   0  0  0  0  0  0
  -21.6046   -4.3058   24.7231 C   0  0  0  0  0  0
  -21.8819   -3.8155   23.4350 C   0  0  0  0  0  0
  -21.9193   -4.6968   22.3408 C   0  0  0  0  0  0
  -22.7839  -13.5229   21.1845 C   0  0  0  0  0  0
  -22.1667   -4.2153   21.0985 F   0  0  0  0  0  0
  -21.5626   -3.4544   25.7742 F   0  0  0  0  0  0
  -29.9992  -13.5027   20.4402 N   0  0  0  0  0  0
  -26.2966  -12.9415   20.3357 N   0  0  0  0  0  0
  -25.9340  -11.6552   20.5770 N   0  0  0  0  0  0
  -22.0489  -12.8207   22.0395 N   0  0  0  0  0  0
  -25.4241  -15.1949   20.4185 N   0  0  0  0  0  0
  -31.7552  -14.8678   20.0255 O   0  0  0  0  0  0
  -21.6662   -6.8878   21.4244 O   0  0  0  0  0  0
  -22.3517  -14.5532   20.6688 O   0  0  0  0  0  0
  -24.6318  -31.8534   23.1952 C   0  0  0  0  0  0
  -25.9141  -32.4739   23.8311 C   0  0  1  0  0  0
  -27.2275  -27.2487   20.1243 C   0  0  0  0  0  0
  -25.5936  -33.8542   24.2227 N   0  0  0  0  0  0
  -23.4296  -30.4739   21.5373 C   0  0  2  0  0  0
  -24.8783  -28.9182   20.1052 C   0  0  0  0  0  0
  -22.7513  -29.4588   22.4884 C   0  0  0  0  0  0
  -18.0295  -28.1382   22.8477 C   0  0  0  0  0  0
  -24.1496  -36.7278   23.2638 C   0  0  0  0  0  0
  -25.9759  -30.7596   21.3789 C   0  0  0  0  0  0
  -26.0471  -29.3812   20.7207 C   0  0  0  0  0  0
  -27.2169  -28.5561   20.7247 C   0  0  0  0  0  0
  -26.0349  -26.8588   19.4729 C   0  0  0  0  0  0
  -24.8786  -27.6652   19.4730 C   0  0  0  0  0  0
  -23.6485  -29.8049   20.1538 C   0  0  0  0  0  0
  -25.4123  -36.3048   24.0313 C   0  0  1  0  0  0
  -20.5906  -28.3698   23.1252 C   0  0  2  0  0  0
  -20.6778  -26.9410   22.5399 C   0  0  0  0  0  0
  -19.5753  -26.6376   21.5201 C   0  0  0  0  0  0
  -18.1934  -26.7923   22.1618 C   0  0  0  0  0  0
  -19.1554  -28.8854   23.2859 C   0  0  0  0  0  0
  -18.9476  -30.1450   23.8882 C   0  0  0  0  0  0
  -17.6476  -30.6579   24.0555 C   0  0  0  0  0  0
  -25.9068  -34.9425   23.5074 C   0  0  0  0  0  0
  -16.5364  -29.9076   23.6330 C   0  0  0  0  0  0
  -16.7284  -28.6497   23.0347 C   0  0  0  0  0  0
  -26.4502  -31.6586   25.0721 C   0  0  0  0  0  0
  -25.3710  -31.3745   26.1432 C   0  0  0  0  0  0
  -27.0363  -30.2999   24.6244 C   0  0  0  0  0  0
  -27.6049  -32.4341   25.7496 C   0  0  0  0  0  0
  -27.5573  -37.1792   24.8460 C   0  0  0  0  0  0
  -21.4218  -29.3038   22.3641 N   0  0  0  0  0  0
  -26.4285  -37.3755   23.9403 N   0  0  0  0  0  0
  -24.6979  -31.0487   22.0929 N   0  0  0  0  0  0
  -23.4204  -28.8127   23.2996 O   0  0  0  0  0  0
  -28.3348  -26.3694   20.2460 O   0  0  0  0  0  0
  -26.5644  -34.8903   22.4647 O   0  0  0  0  0  0
  -23.5467  -32.1369   23.7231 O   0  0  0  0  0  0
  -29.4983  -18.4567   20.6628 C   0  0  0  0  0  0
  -28.8305  -16.8621   18.9598 C   0  0  0  0  0  0
  -28.7954  -19.5654   20.0083 C   0  0  0  0  0  0
  -28.0661  -17.8686   18.3403 C   0  0  0  0  0  0
  -27.9739  -19.1743   18.9003 C   0  0  0  0  0  0
  -29.4898  -17.0764   20.1798 C   0  0  0  0  0  0
  -29.0954  -23.8230   20.4750 C   0  0  0  0  0  0
  -30.6787  -23.5965   23.8298 C   0  0  0  0  0  0
  -29.5923  -24.1131   21.6986 C   0  0  0  0  0  0
  -30.3738  -23.2521   22.5694 C   0  0  0  0  0  0
  -29.5057  -24.4954   17.2377 C   0  0  0  0  0  0
  -30.1258  -23.1456   17.5910 C   0  0  0  0  0  0
  -29.3977  -25.4384   18.4335 C   0  0  0  0  0  0
  -29.1595  -22.2525   18.3800 C   0  0  0  0  0  0
  -28.4655  -25.0126   19.5907 C   0  0  2  0  0  0
  -26.8967  -20.0946   18.3234 C   0  0  0  0  0  0
  -28.7279  -21.0839   20.5872 C   0  0  0  0  0  0
  -27.2642  -17.4770   17.1015 C   0  0  0  0  0  0
  -29.9003  -15.8490   20.9138 N   0  0  0  0  0  0
  -29.2850  -22.3495   19.8566 N   0  3  1  0  0  0
  -27.8258  -16.4622   16.4407 F   0  0  0  0  0  0
  -31.4752  -12.5535   19.1944 H   0  0  0  0  0  0
  -30.3552  -11.4622   19.9554 H   0  0  0  0  0  0
  -29.7967  -11.7629   17.5183 H   0  0  0  0  0  0
  -29.6553  -13.4886   17.7502 H   0  0  0  0  0  0
  -27.8779  -11.3029   18.8851 H   0  0  0  0  0  0
  -27.3883  -12.5780   17.8015 H   0  0  0  0  0  0
  -27.6397  -14.2601   19.5091 H   0  0  0  0  0  0
  -28.7168  -12.1493   21.4345 H   0  0  0  0  0  0
  -28.4187  -13.8227   21.8220 H   0  0  0  0  0  0
  -25.2768   -9.5707   22.4751 H   0  0  0  0  0  0
  -24.0026   -7.4652   22.7484 H   0  0  0  0  0  0
  -21.0856   -8.8766   19.8958 H   0  0  0  0  0  0
  -22.3704  -10.9668   19.6162 H   0  0  0  0  0  0
  -21.2003   -7.6152   23.9718 H   0  0  0  0  0  0
  -21.1496   -6.0532   25.9081 H   0  0  0  0  0  0
  -22.0587   -2.7616   23.2859 H   0  0  0  0  0  0
  -22.4110  -11.9852   22.4749 H   0  0  0  0  0  0
  -21.1108  -13.1224   22.2615 H   0  0  0  0  0  0
  -24.6556  -15.8460   20.5387 H   0  0  0  0  0  0
  -26.2823  -15.6430   20.1232 H   0  0  0  0  0  0
  -26.7217  -32.5376   23.1057 H   0  0  0  0  0  0
  -25.0065  -33.9696   25.0358 H   0  0  0  0  0  0
  -22.7260  -31.2954   21.3880 H   0  0  0  0  0  0
  -23.3753  -35.9614   23.3284 H   0  0  0  0  0  0
  -24.3582  -36.8932   22.2057 H   0  0  0  0  0  0
  -23.7270  -37.6474   23.6692 H   0  0  0  0  0  0
  -26.1211  -31.5185   20.6086 H   0  0  0  0  0  0
  -26.8516  -30.8073   22.0151 H   0  0  0  0  0  0
  -28.1075  -28.9007   21.2307 H   0  0  0  0  0  0
  -25.9420  -25.9047   18.9815 H   0  0  0  0  0  0
  -23.9840  -27.3029   18.9851 H   0  0  0  0  0  0
  -23.7697  -30.5797   19.3958 H   0  0  0  0  0  0
  -22.7682  -29.2353   19.8507 H   0  0  0  0  0  0
  -25.1313  -36.1873   25.0805 H   0  0  0  0  0  0
  -20.9999  -28.3279   24.1375 H   0  0  0  0  0  0
  -20.5665  -26.2315   23.3613 H   0  0  0  0  0  0
  -21.6645  -26.7415   22.1204 H   0  0  0  0  0  0
  -19.6915  -25.6282   21.1242 H   0  0  0  0  0  0
  -19.6691  -27.3176   20.6722 H   0  0  0  0  0  0
  -17.4205  -26.6663   21.4015 H   0  0  0  0  0  0
  -18.0336  -26.0060   22.9016 H   0  0  0  0  0  0
  -19.7952  -30.7261   24.2254 H   0  0  0  0  0  0
  -17.5031  -31.6261   24.5153 H   0  0  0  0  0  0
  -15.5365  -30.2972   23.7657 H   0  0  0  0  0  0
  -15.8686  -28.0809   22.7065 H   0  0  0  0  0  0
  -24.5884  -30.7107   25.7742 H   0  0  0  0  0  0
  -24.8901  -32.2920   26.4836 H   0  0  0  0  0  0
  -25.8003  -30.8925   27.0225 H   0  0  0  0  0  0
  -26.2964  -29.6734   24.1254 H   0  0  0  0  0  0
  -27.4019  -29.7283   25.4785 H   0  0  0  0  0  0
  -27.8847  -30.4268   23.9514 H   0  0  0  0  0  0
  -27.2659  -33.3661   26.2031 H   0  0  0  0  0  0
  -28.3873  -32.6880   25.0332 H   0  0  0  0  0  0
  -28.0703  -31.8499   26.5448 H   0  0  0  0  0  0
  -28.2573  -38.0102   24.7507 H   0  0  0  0  0  0
  -28.1087  -36.2633   24.6283 H   0  0  0  0  0  0
  -27.2291  -37.1432   25.8861 H   0  0  0  0  0  0
  -20.9405  -29.8785   21.6865 H   0  0  0  0  0  0
  -26.0151  -38.2820   24.1409 H   0  0  0  0  0  0
  -30.0063  -18.6609   21.5955 H   0  0  0  0  0  0
  -28.8137  -15.8710   18.5332 H   0  0  0  0  0  0
  -31.2733  -22.9479   24.4586 H   0  0  0  0  0  0
  -30.3456  -24.5307   24.2602 H   0  0  0  0  0  0
  -29.4700  -25.1340   22.0334 H   0  0  0  0  0  0
  -30.7649  -22.3103   22.2162 H   0  0  0  0  0  0
  -28.5286  -24.3622   16.7710 H   0  0  0  0  0  0
  -30.1285  -24.9763   16.4813 H   0  0  0  0  0  0
  -31.0857  -23.2628   18.0963 H   0  0  0  0  0  0
  -30.3512  -22.6420   16.6492 H   0  0  0  0  0  0
  -29.0440  -26.3903   18.0333 H   0  0  0  0  0  0
  -30.3931  -25.6463   18.8309 H   0  0  0  0  0  0
  -29.4013  -21.2358   18.0761 H   0  0  0  0  0  0
  -28.1327  -22.4477   18.0738 H   0  0  0  0  0  0
  -27.5219  -24.6428   19.1998 H   0  0  0  0  0  0
  -26.6593  -20.9532   18.9444 H   0  0  0  0  0  0
  -25.9559  -19.5523   18.2225 H   0  0  0  0  0  0
  -27.1729  -20.4476   17.3301 H   0  0  0  0  0  0
  -29.1853  -21.0329   21.5709 H   0  0  0  0  0  0
  -27.6844  -21.2944   20.8194 H   0  0  0  0  0  0
  -27.1793  -18.2954   16.3872 H   0  0  0  0  0  0
  -26.2588  -17.1650   17.3863 H   0  0  0  0  0  0
  -29.2093  -15.5744   21.5973 H   0  0  0  0  0  0
  -30.2726  -22.1730   19.9548 H   0  0  0  0  0  0
  1 25  1  0  0  0
  1 30  2  0  0  0
  1 89  1  0  0  0
  2  3  1  0  0  0
  2 25  1  0  0  0
  2 92  1  0  0  0
  2 93  1  0  0  0
  3  4  1  0  0  0
  3 94  1  0  0  0
  3 95  1  0  0  0
  4  5  1  0  0  0
  4 96  1  0  0  0
  4 97  1  0  0  0
  5  6  1  0  0  0
  5 26  1  0  0  0
  5 98  1  0  0  0
  6 25  1  0  0  0
  6 99  1  0  0  0
  6100  1  0  0  0
  7  8  2  0  0  0
  7 26  1  0  0  0
  7 29  1  0  0  0
  8  9  1  0  0  0
  8 22  1  0  0  0
  9 10  1  0  0  0
  9 27  2  0  0  0
 10 11  2  0  0  0
 10 15  1  0  0  0
 11 12  1  0  0  0
 11101  1  0  0  0
 12 13  2  0  0  0
 12102  1  0  0  0
 13 14  1  0  0  0
 13 31  1  0  0  0
 14 15  2  0  0  0
 14103  1  0  0  0
 15104  1  0  0  0
 16 17  2  0  0  0
 16 21  1  0  0  0
 16 31  1  0  0  0
 17 18  1  0  0  0
 17105  1  0  0  0
 18 19  2  0  0  0
 18106  1  0  0  0
 19 20  1  0  0  0
 19 24  1  0  0  0
 20 21  2  0  0  0
 20107  1  0  0  0
 21 23  1  0  0  0
 22 28  1  0  0  0
 22 32  2  0  0  0
 26 27  1  0  0  0
 28108  1  0  0  0
 28109  1  0  0  0
 29110  1  0  0  0
 29111  1  0  0  0
 33 34  1  0  0  0
 33 66  1  0  0  0
 33 70  2  0  0  0
 34 36  1  0  0  0
 34 59  1  0  0  0
 34112  1  0  0  0
 35 44  2  0  0  0
 35 45  1  0  0  0
 35 68  1  0  0  0
 36 56  1  0  0  0
 36113  1  0  0  0
 37 39  1  0  0  0
 37 47  1  0  0  0
 37 66  1  0  0  0
 37114  1  0  0  0
 38 43  2  0  0  0
 38 46  1  0  0  0
 38 47  1  0  0  0
 39 64  1  0  0  0
 39 67  2  0  0  0
 40 52  1  0  0  0
 40 53  2  0  0  0
 40 58  1  0  0  0
 41115  1  0  0  0
 41116  1  0  0  0
 41117  1  0  0  0
 41 48  1  0  0  0
 42 43  1  0  0  0
 42 66  1  0  0  0
 42118  1  0  0  0
 42119  1  0  0  0
 43 44  1  0  0  0
 44120  1  0  0  0
 45 46  2  0  0  0
 45121  1  0  0  0
 46122  1  0  0  0
 47123  1  0  0  0
 47124  1  0  0  0
 48 56  1  0  0  0
 48 65  1  0  0  0
 48125  1  0  0  0
 49 50  1  0  0  0
 49 53  1  0  0  0
 49 64  1  0  0  0
 49126  1  0  0  0
 50 51  1  0  0  0
 50127  1  0  0  0
 50128  1  0  0  0
 51 52  1  0  0  0
 51129  1  0  0  0
 51130  1  0  0  0
 52131  1  0  0  0
 52132  1  0  0  0
 53 54  1  0  0  0
 54 55  2  0  0  0
 54133  1  0  0  0
 55 57  1  0  0  0
 55134  1  0  0  0
 56 69  2  0  0  0
 57 58  2  0  0  0
 57135  1  0  0  0
 58136  1  0  0  0
 59 60  1  0  0  0
 59 61  1  0  0  0
 59 62  1  0  0  0
 60137  1  0  0  0
 60138  1  0  0  0
 60139  1  0  0  0
 61140  1  0  0  0
 61141  1  0  0  0
 61142  1  0  0  0
 62143  1  0  0  0
 62144  1  0  0  0
 62145  1  0  0  0
 63 65  1  0  0  0
 63146  1  0  0  0
 63147  1  0  0  0
 63148  1  0  0  0
 64149  1  0  0  0
 65150  1  0  0  0
 68 85  1  0  0  0
 71 73  2  0  0  0
 71 76  1  0  0  0
 71151  1  0  0  0
 72 74  1  0  0  0
 72 76  2  0  0  0
 72152  1  0  0  0
 73 75  1  0  0  0
 73 87  1  0  0  0
 74 75  2  0  0  0
 74 88  1  0  0  0
 75 86  1  0  0  0
 76 89  1  0  0  0
 77 79  2  0  0  0
 77 85  1  0  0  0
 77 90  1  0  0  0
 78 80  2  0  0  0
 78153  1  0  0  0
 78154  1  0  0  0
 79 80  1  0  0  0
 79155  1  0  0  0
 80156  1  0  0  0
 81 82  1  0  0  0
 81 83  1  0  0  0
 81157  1  0  0  0
 81158  1  0  0  0
 82 84  1  0  0  0
 82159  1  0  0  0
 82160  1  0  0  0
 83 85  1  0  0  0
 83161  1  0  0  0
 83162  1  0  0  0
 84 90  1  0  0  0
 84163  1  0  0  0
 84164  1  0  0  0
 85165  1  0  0  0
 86166  1  0  0  0
 86167  1  0  0  0
 86168  1  0  0  0
 87169  1  0  0  0
 87170  1  0  0  0
 87 90  1  0  0  0
 88 91  1  0  0  0
 88171  1  0  0  0
 88172  1  0  0  0
 89173  1  0  0  0
 90174  1  0  0  0
M  CHG  1  90   1
M  ISO  4   1 100  68 101  85 101  89 100
M  END
> <chiral flag>
0

> <version>
0

> <s_m_source_file>
/data/baiqing/PycharmProjects/Reinvent-master-3.2/result/LINK_invent/BTK/process_docking_weight1_custom_product_contain_oxygen_bond_distance_aromatic_linkinvent_7_9_3/rearranged_h_0044.sdf

> <i_m_source_file_index>
64

> <r_mmod_Potential_Energy-OPLS-2005>
216.766937255859

> <r_mmod_Stretch_Energy-OPLS-2005>
164.299194335938

> <r_mmod_Bend_Energy-OPLS-2005>
227.330963134766

> <r_mmod_Torsional_Energy-OPLS-2005>
277.501129150391

> <r_mmod_Improper_Torsional_Energy-OPLS-2005>
8.13270092010498

> <r_mmod_Van_der_Waal_Energy-OPLS-2005>
146.15869140625

> <r_mmod_Electrostatic_Energy-OPLS-2005>
-256.811309814453

> <r_mmod_Solvation_Energy-OPLS-2005>
-437.016296386719

> <b_mmod_Minimization_Converged-OPLS-2005>
0

> <r_mmod_RMS_Derivative-OPLS-2005>
1.49255979061127

$$$$
64
                    3D
 Structure written by MMmdl.
164173  0  0  1  0            999 V2000
  -30.6134  -14.6679   20.4877 C   0  0  0  0  0  0
  -30.4486  -12.4095   19.4374 C   0  0  0  0  0  0
  -29.5064  -12.5139   18.2161 C   0  0  0  0  0  0
  -28.0300  -12.3529   18.6339 C   0  0  0  0  0  0
  -27.6550  -13.2227   19.8631 C   0  0  2  0  0  0
  -28.7090  -13.0827   20.9853 C   0  0  0  0  0  0
  -25.2562  -13.8203   20.5719 C   0  0  0  0  0  0
  -24.1859  -13.0442   20.9237 C   0  0  0  0  0  0
  -24.6450  -11.6914   20.8799 C   0  0  0  0  0  0
  -23.9116  -10.4291   21.0459 C   0  0  0  0  0  0
  -24.3646   -9.4178   21.9216 C   0  0  0  0  0  0
  -23.6318   -8.2218   22.0779 C   0  0  0  0  0  0
  -22.4298   -8.0282   21.3554 C   0  0  0  0  0  0
  -21.9952   -9.0265   20.4648 C   0  0  0  0  0  0
  -22.7291  -10.2140   20.3092 C   0  0  0  0  0  0
  -21.6835   -6.0755   22.5311 C   0  0  0  0  0  0
  -21.3986   -6.5667   23.8232 C   0  0  0  0  0  0
  -21.3664   -5.6827   24.9197 C   0  0  0  0  0  0
  -21.6057   -4.3096   24.7236 C   0  0  0  0  0  0
  -21.8810   -3.8164   23.4364 C   0  0  0  0  0  0
  -21.9184   -4.6986   22.3414 C   0  0  0  0  0  0
  -22.7851  -13.5197   21.1878 C   0  0  0  0  0  0
  -22.1653   -4.2167   21.0990 F   0  0  0  0  0  0
  -21.5627   -3.4574   25.7745 F   0  0  0  0  0  0
  -30.0206  -13.4330   20.4125 N   0  0  0  0  0  0
  -26.3021  -12.9401   20.3383 N   0  0  0  0  0  0
  -25.9375  -11.6544   20.5796 N   0  0  0  0  0  0
  -22.0523  -12.8149   22.0433 N   0  0  0  0  0  0
  -25.4200  -15.1941   20.4093 N   0  0  0  0  0  0
  -31.7971  -14.8384   20.1800 O   0  0  0  0  0  0
  -21.6633   -6.8910   21.4273 O   0  0  0  0  0  0
  -22.3516  -14.5503   20.6742 O   0  0  0  0  0  0
  -24.6251  -31.8588   23.1999 C   0  0  0  0  0  0
  -25.9095  -32.4777   23.8349 C   0  0  1  0  0  0
  -27.2322  -27.3118   20.1309 C   0  0  0  0  0  0
  -25.5929  -33.8582   24.2284 N   0  0  0  0  0  0
  -23.4191  -30.4849   21.5389 C   0  0  2  0  0  0
  -24.8649  -28.9325   20.1129 C   0  0  0  0  0  0
  -22.7481  -29.4643   22.4886 C   0  0  0  0  0  0
  -18.0314  -28.1384   22.8509 C   0  0  0  0  0  0
  -24.1466  -36.7291   23.2631 C   0  0  0  0  0  0
  -25.9604  -30.7896   21.3707 C   0  0  0  0  0  0
  -26.0330  -29.4162   20.7144 C   0  0  0  0  0  0
  -27.2138  -28.6186   20.7114 C   0  0  0  0  0  0
  -26.0324  -26.8739   19.5200 C   0  0  0  0  0  0
  -24.8671  -27.6657   19.5084 C   0  0  0  0  0  0
  -23.6351  -29.8152   20.1555 C   0  0  0  0  0  0
  -25.4100  -36.3070   24.0323 C   0  0  1  0  0  0
  -20.5921  -28.3694   23.1261 C   0  0  2  0  0  0
  -20.6772  -26.9411   22.5408 C   0  0  0  0  0  0
  -19.5752  -26.6390   21.5207 C   0  0  0  0  0  0
  -18.1946  -26.7941   22.1637 C   0  0  0  0  0  0
  -19.1576  -28.8857   23.2890 C   0  0  0  0  0  0
  -18.9495  -30.1466   23.8889 C   0  0  0  0  0  0
  -17.6487  -30.6579   24.0577 C   0  0  0  0  0  0
  -25.9063  -34.9453   23.5114 C   0  0  0  0  0  0
  -16.5381  -29.9086   23.6309 C   0  0  0  0  0  0
  -16.7302  -28.6500   23.0348 C   0  0  0  0  0  0
  -26.4474  -31.6610   25.0747 C   0  0  0  0  0  0
  -25.3719  -31.3721   26.1488 C   0  0  0  0  0  0
  -27.0354  -30.3045   24.6218 C   0  0  0  0  0  0
  -27.6022  -32.4353   25.7516 C   0  0  0  0  0  0
  -27.5586  -37.1770   24.8456 C   0  0  0  0  0  0
  -21.4203  -29.3030   22.3625 N   0  0  0  0  0  0
  -26.4271  -37.3784   23.9441 N   0  0  0  0  0  0
  -24.6866  -31.0606   22.0934 N   0  0  0  0  0  0
  -23.4200  -28.8194   23.2982 O   0  0  0  0  0  0
  -28.3800  -26.5037   20.2275 O   0  0  0  0  0  0
  -26.5624  -34.8926   22.4671 O   0  0  0  0  0  0
  -23.5409  -32.1409   23.7320 O   0  0  0  0  0  0
  -30.6187  -19.3632   21.5001 C   0  0  0  0  0  0
  -30.8029  -17.9532   21.3192 C   0  0  0  0  0  0
  -29.4936  -20.0758   20.9817 C   0  0  0  0  0  0
  -28.6037  -19.3023   20.1772 C   0  0  0  0  0  0
  -29.8348  -17.1664   20.6410 C   0  0  0  0  0  0
  -28.7612  -17.8858   20.0450 C   0  0  0  0  0  0
  -28.2254  -23.9265   20.6992 C   0  0  0  0  0  0
  -27.0680  -23.8492   21.3898 C   0  0  0  0  0  0
  -30.9348  -24.2954   19.6496 C   0  0  0  0  0  0
  -29.8240  -25.0508   18.9253 C   0  0  0  0  0  0
  -30.4781  -22.8620   19.9390 C   0  0  0  0  0  0
  -28.4917  -25.1214   19.6941 C   0  0  2  0  0  0
  -27.4054  -19.9462   19.4924 C   0  0  0  0  0  0
  -29.0964  -21.5022   21.5575 C   0  0  0  0  0  0
  -29.7435  -15.7061   20.6775 N   0  0  0  0  0  0
  -29.3673  -22.8666   20.9116 N   0  3  1  0  0  0
  -27.8097  -17.1821   19.3821 F   0  0  0  0  0  0
  -31.4852  -12.5522   19.1217 H   0  0  0  0  0  0
  -30.3984  -11.4146   19.8836 H   0  0  0  0  0  0
  -29.7642  -11.7629   17.4682 H   0  0  0  0  0  0
  -29.6429  -13.4824   17.7340 H   0  0  0  0  0  0
  -27.8552  -11.3006   18.8600 H   0  0  0  0  0  0
  -27.3738  -12.5915   17.7949 H   0  0  0  0  0  0
  -27.6655  -14.2564   19.5200 H   0  0  0  0  0  0
  -28.7274  -12.0591   21.3602 H   0  0  0  0  0  0
  -28.4621  -13.7081   21.8439 H   0  0  0  0  0  0
  -25.2802   -9.5626   22.4768 H   0  0  0  0  0  0
  -24.0020   -7.4592   22.7491 H   0  0  0  0  0  0
  -21.0893   -8.8816   19.8927 H   0  0  0  0  0  0
  -22.3797  -10.9696   19.6204 H   0  0  0  0  0  0
  -21.1990   -7.6179   23.9747 H   0  0  0  0  0  0
  -21.1486   -6.0552   25.9108 H   0  0  0  0  0  0
  -22.0588   -2.7625   23.2865 H   0  0  0  0  0  0
  -22.4152  -11.9797   22.4777 H   0  0  0  0  0  0
  -21.1154  -13.1153   22.2677 H   0  0  0  0  0  0
  -24.6410  -15.8356   20.5117 H   0  0  0  0  0  0
  -26.2468  -15.6448   20.0361 H   0  0  0  0  0  0
  -26.7190  -32.5443   23.1115 H   0  0  0  0  0  0
  -24.9985  -33.9739   25.0366 H   0  0  0  0  0  0
  -22.7159  -31.3083   21.3907 H   0  0  0  0  0  0
  -23.3752  -35.9597   23.3256 H   0  0  0  0  0  0
  -24.3521  -36.8985   22.2053 H   0  0  0  0  0  0
  -23.7209  -37.6475   23.6694 H   0  0  0  0  0  0
  -26.1002  -31.5518   20.6026 H   0  0  0  0  0  0
  -26.8378  -30.8353   22.0046 H   0  0  0  0  0  0
  -28.1106  -28.9869   21.1907 H   0  0  0  0  0  0
  -25.9429  -25.8963   19.0769 H   0  0  0  0  0  0
  -23.9675  -27.2770   19.0509 H   0  0  0  0  0  0
  -23.7679  -30.5912   19.4015 H   0  0  0  0  0  0
  -22.7539  -29.2498   19.8448 H   0  0  0  0  0  0
  -25.1263  -36.1891   25.0818 H   0  0  0  0  0  0
  -21.0060  -28.3278   24.1364 H   0  0  0  0  0  0
  -20.5618  -26.2329   23.3617 H   0  0  0  0  0  0
  -21.6638  -26.7371   22.1243 H   0  0  0  0  0  0
  -19.6873  -25.6298   21.1249 H   0  0  0  0  0  0
  -19.6670  -27.3175   20.6722 H   0  0  0  0  0  0
  -17.4201  -26.6735   21.4048 H   0  0  0  0  0  0
  -18.0313  -26.0074   22.9025 H   0  0  0  0  0  0
  -19.7967  -30.7298   24.2267 H   0  0  0  0  0  0
  -17.5035  -31.6254   24.5198 H   0  0  0  0  0  0
  -15.5386  -30.2977   23.7611 H   0  0  0  0  0  0
  -15.8724  -28.0803   22.7028 H   0  0  0  0  0  0
  -24.5876  -30.7084   25.7824 H   0  0  0  0  0  0
  -24.8903  -32.2870   26.4936 H   0  0  0  0  0  0
  -25.8057  -30.8893   27.0255 H   0  0  0  0  0  0
  -26.2955  -29.6770   24.1225 H   0  0  0  0  0  0
  -27.4065  -29.7308   25.4723 H   0  0  0  0  0  0
  -27.8809  -30.4364   23.9465 H   0  0  0  0  0  0
  -27.2629  -33.3655   26.2078 H   0  0  0  0  0  0
  -28.3830  -32.6917   25.0346 H   0  0  0  0  0  0
  -28.0702  -31.8501   26.5451 H   0  0  0  0  0  0
  -28.2527  -38.0136   24.7602 H   0  0  0  0  0  0
  -28.1174  -36.2675   24.6160 H   0  0  0  0  0  0
  -27.2326  -37.1298   25.8861 H   0  0  0  0  0  0
  -20.9356  -29.8836   21.6932 H   0  0  0  0  0  0
  -26.0150  -38.2846   24.1510 H   0  0  0  0  0  0
  -31.3199  -19.8837   22.1394 H   0  0  0  0  0  0
  -31.6443  -17.4674   21.7966 H   0  0  0  0  0  0
  -26.2977  -24.5919   21.2423 H   0  0  0  0  0  0
  -26.8448  -23.0882   22.1205 H   0  0  0  0  0  0
  -31.2166  -24.8159   20.5666 H   0  0  0  0  0  0
  -31.8270  -24.2794   19.0227 H   0  0  0  0  0  0
  -29.6479  -24.5508   17.9730 H   0  0  0  0  0  0
  -30.1548  -26.0587   18.6703 H   0  0  0  0  0  0
  -31.3193  -22.3063   20.3598 H   0  0  0  0  0  0
  -30.1744  -22.3490   19.0255 H   0  0  0  0  0  0
  -27.7561  -24.9901   18.9077 H   0  0  0  0  0  0
  -27.3024  -21.0107   19.7033 H   0  0  0  0  0  0
  -26.4766  -19.4531   19.7913 H   0  0  0  0  0  0
  -27.5081  -19.8474   18.4114 H   0  0  0  0  0  0
  -29.6108  -21.5708   22.5163 H   0  0  0  0  0  0
  -28.0542  -21.4195   21.8512 H   0  0  0  0  0  0
  -28.7920  -15.3762   20.7092 H   0  0  0  0  0  0
  -29.8594  -23.2669   21.6961 H   0  0  0  0  0  0
  1 25  1  0  0  0
  1 30  2  0  0  0
  1 85  1  0  0  0
  2  3  1  0  0  0
  2 25  1  0  0  0
  2 88  1  0  0  0
  2 89  1  0  0  0
  3  4  1  0  0  0
  3 90  1  0  0  0
  3 91  1  0  0  0
  4  5  1  0  0  0
  4 92  1  0  0  0
  4 93  1  0  0  0
  5  6  1  0  0  0
  5 26  1  0  0  0
  5 94  1  0  0  0
  6 25  1  0  0  0
  6 95  1  0  0  0
  6 96  1  0  0  0
  7  8  2  0  0  0
  7 26  1  0  0  0
  7 29  1  0  0  0
  8  9  1  0  0  0
  8 22  1  0  0  0
  9 10  1  0  0  0
  9 27  2  0  0  0
 10 11  2  0  0  0
 10 15  1  0  0  0
 11 12  1  0  0  0
 11 97  1  0  0  0
 12 13  2  0  0  0
 12 98  1  0  0  0
 13 14  1  0  0  0
 13 31  1  0  0  0
 14 15  2  0  0  0
 14 99  1  0  0  0
 15100  1  0  0  0
 16 17  2  0  0  0
 16 21  1  0  0  0
 16 31  1  0  0  0
 17 18  1  0  0  0
 17101  1  0  0  0
 18 19  2  0  0  0
 18102  1  0  0  0
 19 20  1  0  0  0
 19 24  1  0  0  0
 20 21  2  0  0  0
 20103  1  0  0  0
 21 23  1  0  0  0
 22 28  1  0  0  0
 22 32  2  0  0  0
 26 27  1  0  0  0
 28104  1  0  0  0
 28105  1  0  0  0
 29106  1  0  0  0
 29107  1  0  0  0
 33 34  1  0  0  0
 33 66  1  0  0  0
 33 70  2  0  0  0
 34 36  1  0  0  0
 34 59  1  0  0  0
 34108  1  0  0  0
 35 44  2  0  0  0
 35 45  1  0  0  0
 35 68  1  0  0  0
 36 56  1  0  0  0
 36109  1  0  0  0
 37 39  1  0  0  0
 37 47  1  0  0  0
 37 66  1  0  0  0
 37110  1  0  0  0
 38 43  2  0  0  0
 38 46  1  0  0  0
 38 47  1  0  0  0
 39 64  1  0  0  0
 39 67  2  0  0  0
 40 52  1  0  0  0
 40 53  2  0  0  0
 40 58  1  0  0  0
 41111  1  0  0  0
 41112  1  0  0  0
 41113  1  0  0  0
 41 48  1  0  0  0
 42 43  1  0  0  0
 42 66  1  0  0  0
 42114  1  0  0  0
 42115  1  0  0  0
 43 44  1  0  0  0
 44116  1  0  0  0
 45 46  2  0  0  0
 45117  1  0  0  0
 46118  1  0  0  0
 47119  1  0  0  0
 47120  1  0  0  0
 48 56  1  0  0  0
 48 65  1  0  0  0
 48121  1  0  0  0
 49 50  1  0  0  0
 49 53  1  0  0  0
 49 64  1  0  0  0
 49122  1  0  0  0
 50 51  1  0  0  0
 50123  1  0  0  0
 50124  1  0  0  0
 51 52  1  0  0  0
 51125  1  0  0  0
 51126  1  0  0  0
 52127  1  0  0  0
 52128  1  0  0  0
 53 54  1  0  0  0
 54 55  2  0  0  0
 54129  1  0  0  0
 55 57  1  0  0  0
 55130  1  0  0  0
 56 69  2  0  0  0
 57 58  2  0  0  0
 57131  1  0  0  0
 58132  1  0  0  0
 59 60  1  0  0  0
 59 61  1  0  0  0
 59 62  1  0  0  0
 60133  1  0  0  0
 60134  1  0  0  0
 60135  1  0  0  0
 61136  1  0  0  0
 61137  1  0  0  0
 61138  1  0  0  0
 62139  1  0  0  0
 62140  1  0  0  0
 62141  1  0  0  0
 63 65  1  0  0  0
 63142  1  0  0  0
 63143  1  0  0  0
 63144  1  0  0  0
 64145  1  0  0  0
 65146  1  0  0  0
 68 82  1  0  0  0
 71 72  2  0  0  0
 71 73  1  0  0  0
 71147  1  0  0  0
 72 75  1  0  0  0
 72148  1  0  0  0
 73 74  2  0  0  0
 73 84  1  0  0  0
 74 76  1  0  0  0
 74 83  1  0  0  0
 75 76  2  0  0  0
 75 85  1  0  0  0
 76 87  1  0  0  0
 77 78  2  0  0  0
 77 82  1  0  0  0
 77 86  1  0  0  0
 78149  1  0  0  0
 78150  1  0  0  0
 79 80  1  0  0  0
 79 81  1  0  0  0
 79151  1  0  0  0
 79152  1  0  0  0
 80 82  1  0  0  0
 80153  1  0  0  0
 80154  1  0  0  0
 81 86  1  0  0  0
 81155  1  0  0  0
 81156  1  0  0  0
 82157  1  0  0  0
 83158  1  0  0  0
 83159  1  0  0  0
 83160  1  0  0  0
 84161  1  0  0  0
 84162  1  0  0  0
 84 86  1  0  0  0
 85163  1  0  0  0
 86164  1  0  0  0
M  CHG  1  86   1
M  ISO  4   1 100  68 101  82 101  85 100
M  END
> <chiral flag>
0

> <version>
0

> <s_m_source_file>
/data/baiqing/PycharmProjects/Reinvent-master-3.2/result/LINK_invent/BTK/process_docking_weight1_custom_product_contain_oxygen_bond_distance_aromatic_linkinvent_7_9_3/rearranged_h_0044.sdf

> <i_m_source_file_index>
65

> <r_mmod_Potential_Energy-OPLS-2005>
29.5273380279541

> <r_mmod_Stretch_Energy-OPLS-2005>
97.1230926513672

> <r_mmod_Bend_Energy-OPLS-2005>
208.811157226562

> <r_mmod_Torsional_Energy-OPLS-2005>
255.789169311523

> <r_mmod_Improper_Torsional_Energy-OPLS-2005>
10.1581802368164

> <r_mmod_Van_der_Waal_Energy-OPLS-2005>
141.219696044922

> <r_mmod_Electrostatic_Energy-OPLS-2005>
-303.364532470703

> <r_mmod_Solvation_Energy-OPLS-2005>
-436.040069580078

> <b_mmod_Minimization_Converged-OPLS-2005>
0

> <r_mmod_RMS_Derivative-OPLS-2005>
4.41610097885132

$$$$
65
                    3D
 Structure written by MMmdl.
158167  0  0  1  0            999 V2000
  -30.6374  -14.6472   20.6196 C   0  0  0  0  0  0
  -30.4382  -12.4202   19.4893 C   0  0  0  0  0  0
  -29.5187  -12.5465   18.2534 C   0  0  0  0  0  0
  -28.0420  -12.3733   18.6538 C   0  0  0  0  0  0
  -27.6609  -13.2312   19.8889 C   0  0  2  0  0  0
  -28.6922  -13.0729   21.0306 C   0  0  0  0  0  0
  -25.2520  -13.8189   20.5659 C   0  0  0  0  0  0
  -24.1792  -13.0419   20.9156 C   0  0  0  0  0  0
  -24.6412  -11.6908   20.8744 C   0  0  0  0  0  0
  -23.9085  -10.4279   21.0437 C   0  0  0  0  0  0
  -24.3622   -9.4189   21.9203 C   0  0  0  0  0  0
  -23.6286   -8.2226   22.0762 C   0  0  0  0  0  0
  -22.4278   -8.0271   21.3547 C   0  0  0  0  0  0
  -21.9914   -9.0256   20.4644 C   0  0  0  0  0  0
  -22.7251  -10.2130   20.3071 C   0  0  0  0  0  0
  -21.6836   -6.0726   22.5276 C   0  0  0  0  0  0
  -21.4033   -6.5636   23.8213 C   0  0  0  0  0  0
  -21.3669   -5.6786   24.9186 C   0  0  0  0  0  0
  -21.6025   -4.3045   24.7232 C   0  0  0  0  0  0
  -21.8821   -3.8146   23.4358 C   0  0  0  0  0  0
  -21.9193   -4.6960   22.3405 C   0  0  0  0  0  0
  -22.7822  -13.5208   21.1835 C   0  0  0  0  0  0
  -22.1643   -4.2149   21.0971 F   0  0  0  0  0  0
  -21.5638   -3.4523   25.7743 F   0  0  0  0  0  0
  -30.0231  -13.4199   20.5036 N   0  0  0  0  0  0
  -26.3015  -12.9422   20.3421 N   0  0  0  0  0  0
  -25.9370  -11.6556   20.5828 N   0  0  0  0  0  0
  -22.0457  -12.8204   22.0400 N   0  0  0  0  0  0
  -25.4172  -15.1915   20.4032 N   0  0  0  0  0  0
  -31.7141  -14.8610   20.0479 O   0  0  0  0  0  0
  -21.6629   -6.8884   21.4237 O   0  0  0  0  0  0
  -22.3495  -14.5505   20.6703 O   0  0  0  0  0  0
  -24.6224  -31.8629   23.1989 C   0  0  0  0  0  0
  -25.9068  -32.4761   23.8359 C   0  0  1  0  0  0
  -27.1992  -27.2891   20.1689 C   0  0  0  0  0  0
  -25.5915  -33.8571   24.2304 N   0  0  0  0  0  0
  -23.4178  -30.4830   21.5391 C   0  0  2  0  0  0
  -24.8700  -28.9333   20.1118 C   0  0  0  0  0  0
  -22.7439  -29.4620   22.4855 C   0  0  0  0  0  0
  -18.0299  -28.1345   22.8445 C   0  0  0  0  0  0
  -24.1513  -36.7290   23.2639 C   0  0  0  0  0  0
  -25.9621  -30.7802   21.3796 C   0  0  0  0  0  0
  -26.0341  -29.4079   20.7258 C   0  0  0  0  0  0
  -27.2083  -28.5946   20.7445 C   0  0  0  0  0  0
  -26.0245  -26.8749   19.5111 C   0  0  0  0  0  0
  -24.8684  -27.6765   19.4891 C   0  0  0  0  0  0
  -23.6382  -29.8150   20.1569 C   0  0  0  0  0  0
  -25.4128  -36.3084   24.0333 C   0  0  1  0  0  0
  -20.5882  -28.3684   23.1214 C   0  0  2  0  0  0
  -20.6764  -26.9391   22.5388 C   0  0  0  0  0  0
  -19.5772  -26.6348   21.5160 C   0  0  0  0  0  0
  -18.1951  -26.7895   22.1556 C   0  0  0  0  0  0
  -19.1545  -28.8824   23.2833 C   0  0  0  0  0  0
  -18.9486  -30.1405   23.8890 C   0  0  0  0  0  0
  -17.6492  -30.6567   24.0548 C   0  0  0  0  0  0
  -25.9051  -34.9436   23.5127 C   0  0  0  0  0  0
  -16.5377  -29.9068   23.6315 C   0  0  0  0  0  0
  -16.7283  -28.6456   23.0364 C   0  0  0  0  0  0
  -26.4501  -31.6565   25.0717 C   0  0  0  0  0  0
  -25.3773  -31.3727   26.1452 C   0  0  0  0  0  0
  -27.0375  -30.3004   24.6179 C   0  0  0  0  0  0
  -27.6096  -32.4302   25.7468 C   0  0  0  0  0  0
  -27.5604  -37.1769   24.8443 C   0  0  0  0  0  0
  -21.4156  -29.3064   22.3607 N   0  0  0  0  0  0
  -26.4312  -37.3772   23.9410 N   0  0  0  0  0  0
  -24.6854  -31.0597   22.0974 N   0  0  0  0  0  0
  -23.4131  -28.8144   23.2952 O   0  0  0  0  0  0
  -28.2770  -26.3965   20.2210 O   0  0  0  0  0  0
  -26.5609  -34.8877   22.4688 O   0  0  0  0  0  0
  -23.5375  -32.1446   23.7302 O   0  0  0  0  0  0
  -29.3486  -18.9683   19.6658 C   0  0  0  0  0  0
  -29.7783  -17.6256   19.8958 C   0  0  0  0  0  0
  -29.2552  -17.8884   22.2268 C   0  0  0  0  0  0
  -28.8631  -19.8310   20.6920 C   0  0  0  0  0  0
  -29.7317  -17.0290   21.1803 C   0  0  0  0  0  0
  -28.8279  -19.2432   21.9960 C   0  0  0  0  0  0
  -27.9254  -23.7688   20.4082 C   0  0  0  0  0  0
  -29.6071  -23.8155   22.7440 C   0  0  0  0  0  0
  -29.3791  -25.1748   22.0525 C   0  0  0  0  0  0
  -29.7466  -22.6914   21.7064 C   0  0  0  0  0  0
  -28.1609  -25.1929   21.1041 C   0  0  1  0  0  0
  -28.2182  -21.2336   20.2885 C   0  0  0  0  0  0
  -28.5785  -22.6105   20.8267 N   0  0  0  0  0  0
  -30.0438  -15.6023   21.4141 N   0  0  0  0  0  0
  -27.0561  -23.7053   19.5354 O   0  0  0  0  0  0
  -28.3390  -19.9650   23.0375 F   0  0  0  0  0  0
  -31.4828  -12.5330   19.1953 H   0  0  0  0  0  0
  -30.3622  -11.4158   19.9068 H   0  0  0  0  0  0
  -29.7925  -11.8080   17.4964 H   0  0  0  0  0  0
  -29.6600  -13.5269   17.7917 H   0  0  0  0  0  0
  -27.8844  -11.3179   18.8757 H   0  0  0  0  0  0
  -27.3897  -12.6113   17.8138 H   0  0  0  0  0  0
  -27.6864  -14.2745   19.5684 H   0  0  0  0  0  0
  -28.6967  -12.0481   21.4085 H   0  0  0  0  0  0
  -28.4135  -13.6976   21.8821 H   0  0  0  0  0  0
  -25.2796   -9.5640   22.4745 H   0  0  0  0  0  0
  -23.9988   -7.4628   22.7495 H   0  0  0  0  0  0
  -21.0842   -8.8797   19.8949 H   0  0  0  0  0  0
  -22.3751  -10.9673   19.6153 H   0  0  0  0  0  0
  -21.2029   -7.6135   23.9731 H   0  0  0  0  0  0
  -21.1482   -6.0513   25.9085 H   0  0  0  0  0  0
  -22.0594   -2.7610   23.2867 H   0  0  0  0  0  0
  -22.4079  -11.9879   22.4804 H   0  0  0  0  0  0
  -21.1084  -13.1266   22.2631 H   0  0  0  0  0  0
  -24.6410  -15.8402   20.4783 H   0  0  0  0  0  0
  -26.2766  -15.6353   20.1016 H   0  0  0  0  0  0
  -26.7103  -32.5447   23.1071 H   0  0  0  0  0  0
  -25.0173  -33.9821   25.0499 H   0  0  0  0  0  0
  -22.7158  -31.3047   21.3848 H   0  0  0  0  0  0
  -23.3796  -35.9591   23.3258 H   0  0  0  0  0  0
  -24.3598  -36.8972   22.2063 H   0  0  0  0  0  0
  -23.7219  -37.6452   23.6691 H   0  0  0  0  0  0
  -26.1027  -31.5337   20.6062 H   0  0  0  0  0  0
  -26.8385  -30.8289   22.0138 H   0  0  0  0  0  0
  -28.0977  -28.9432   21.2455 H   0  0  0  0  0  0
  -25.9851  -25.9095   19.0281 H   0  0  0  0  0  0
  -23.9733  -27.3131   19.0064 H   0  0  0  0  0  0
  -23.7623  -30.5878   19.4011 H   0  0  0  0  0  0
  -22.7642  -29.2405   19.8496 H   0  0  0  0  0  0
  -25.1279  -36.1982   25.0820 H   0  0  0  0  0  0
  -21.0005  -28.3299   24.1313 H   0  0  0  0  0  0
  -20.5644  -26.2317   23.3593 H   0  0  0  0  0  0
  -21.6648  -26.7399   22.1212 H   0  0  0  0  0  0
  -19.6990  -25.6257   21.1212 H   0  0  0  0  0  0
  -19.6754  -27.3131   20.6664 H   0  0  0  0  0  0
  -17.4230  -26.6634   21.3957 H   0  0  0  0  0  0
  -18.0365  -26.0011   22.8938 H   0  0  0  0  0  0
  -19.7994  -30.7176   24.2291 H   0  0  0  0  0  0
  -17.5080  -31.6256   24.5138 H   0  0  0  0  0  0
  -15.5394  -30.2979   23.7642 H   0  0  0  0  0  0
  -15.8657  -28.0753   22.7150 H   0  0  0  0  0  0
  -24.5860  -30.7198   25.7760 H   0  0  0  0  0  0
  -24.9074  -32.2936   26.4940 H   0  0  0  0  0  0
  -25.8088  -30.8828   27.0202 H   0  0  0  0  0  0
  -26.2976  -29.6660   24.1311 H   0  0  0  0  0  0
  -27.4215  -29.7330   25.4675 H   0  0  0  0  0  0
  -27.8760  -30.4280   23.9324 H   0  0  0  0  0  0
  -27.2726  -33.3623   26.1994 H   0  0  0  0  0  0
  -28.3882  -32.6832   25.0271 H   0  0  0  0  0  0
  -28.0728  -31.8459   26.5407 H   0  0  0  0  0  0
  -28.2543  -38.0154   24.7543 H   0  0  0  0  0  0
  -28.1208  -36.2669   24.6211 H   0  0  0  0  0  0
  -27.2323  -37.1292   25.8850 H   0  0  0  0  0  0
  -20.9310  -29.8837   21.6871 H   0  0  0  0  0  0
  -26.0221  -38.2851   24.1484 H   0  0  0  0  0  0
  -29.3516  -19.3210   18.6422 H   0  0  0  0  0  0
  -30.1140  -17.0322   19.0543 H   0  0  0  0  0  0
  -29.1764  -17.5059   23.2381 H   0  0  0  0  0  0
  -28.7827  -23.5867   23.4236 H   0  0  0  0  0  0
  -30.5143  -23.8526   23.3514 H   0  0  0  0  0  0
  -30.2676  -25.4329   21.4784 H   0  0  0  0  0  0
  -29.2619  -25.9534   22.8083 H   0  0  0  0  0  0
  -29.9094  -21.7482   22.2225 H   0  0  0  0  0  0
  -30.6344  -22.8537   21.0895 H   0  0  0  0  0  0
  -27.2844  -25.3360   21.7414 H   0  0  0  0  0  0
  -27.1463  -21.1114   20.4551 H   0  0  0  0  0  0
  -28.3323  -21.3171   19.2052 H   0  0  0  0  0  0
  -29.5901  -15.2027   22.2237 H   0  0  0  0  0  0
  1 25  1  0  0  0
  1 30  2  0  0  0
  1 84  1  0  0  0
  2  3  1  0  0  0
  2 25  1  0  0  0
  2 87  1  0  0  0
  2 88  1  0  0  0
  3  4  1  0  0  0
  3 89  1  0  0  0
  3 90  1  0  0  0
  4  5  1  0  0  0
  4 91  1  0  0  0
  4 92  1  0  0  0
  5  6  1  0  0  0
  5 26  1  0  0  0
  5 93  1  0  0  0
  6 25  1  0  0  0
  6 94  1  0  0  0
  6 95  1  0  0  0
  7  8  2  0  0  0
  7 26  1  0  0  0
  7 29  1  0  0  0
  8  9  1  0  0  0
  8 22  1  0  0  0
  9 10  1  0  0  0
  9 27  2  0  0  0
 10 11  2  0  0  0
 10 15  1  0  0  0
 11 12  1  0  0  0
 11 96  1  0  0  0
 12 13  2  0  0  0
 12 97  1  0  0  0
 13 14  1  0  0  0
 13 31  1  0  0  0
 14 15  2  0  0  0
 14 98  1  0  0  0
 15 99  1  0  0  0
 16 17  2  0  0  0
 16 21  1  0  0  0
 16 31  1  0  0  0
 17 18  1  0  0  0
 17100  1  0  0  0
 18 19  2  0  0  0
 18101  1  0  0  0
 19 20  1  0  0  0
 19 24  1  0  0  0
 20 21  2  0  0  0
 20102  1  0  0  0
 21 23  1  0  0  0
 22 28  1  0  0  0
 22 32  2  0  0  0
 26 27  1  0  0  0
 28103  1  0  0  0
 28104  1  0  0  0
 29105  1  0  0  0
 29106  1  0  0  0
 33 34  1  0  0  0
 33 66  1  0  0  0
 33 70  2  0  0  0
 34 36  1  0  0  0
 34 59  1  0  0  0
 34107  1  0  0  0
 35 44  2  0  0  0
 35 45  1  0  0  0
 35 68  1  0  0  0
 36 56  1  0  0  0
 36108  1  0  0  0
 37 39  1  0  0  0
 37 47  1  0  0  0
 37 66  1  0  0  0
 37109  1  0  0  0
 38 43  2  0  0  0
 38 46  1  0  0  0
 38 47  1  0  0  0
 39 64  1  0  0  0
 39 67  2  0  0  0
 40 52  1  0  0  0
 40 53  2  0  0  0
 40 58  1  0  0  0
 41110  1  0  0  0
 41111  1  0  0  0
 41112  1  0  0  0
 41 48  1  0  0  0
 42 43  1  0  0  0
 42 66  1  0  0  0
 42113  1  0  0  0
 42114  1  0  0  0
 43 44  1  0  0  0
 44115  1  0  0  0
 45 46  2  0  0  0
 45116  1  0  0  0
 46117  1  0  0  0
 47118  1  0  0  0
 47119  1  0  0  0
 48 56  1  0  0  0
 48 65  1  0  0  0
 48120  1  0  0  0
 49 50  1  0  0  0
 49 53  1  0  0  0
 49 64  1  0  0  0
 49121  1  0  0  0
 50 51  1  0  0  0
 50122  1  0  0  0
 50123  1  0  0  0
 51 52  1  0  0  0
 51124  1  0  0  0
 51125  1  0  0  0
 52126  1  0  0  0
 52127  1  0  0  0
 53 54  1  0  0  0
 54 55  2  0  0  0
 54128  1  0  0  0
 55 57  1  0  0  0
 55129  1  0  0  0
 56 69  2  0  0  0
 57 58  2  0  0  0
 57130  1  0  0  0
 58131  1  0  0  0
 59 60  1  0  0  0
 59 61  1  0  0  0
 59 62  1  0  0  0
 60132  1  0  0  0
 60133  1  0  0  0
 60134  1  0  0  0
 61135  1  0  0  0
 61136  1  0  0  0
 61137  1  0  0  0
 62138  1  0  0  0
 62139  1  0  0  0
 62140  1  0  0  0
 63 65  1  0  0  0
 63141  1  0  0  0
 63142  1  0  0  0
 63143  1  0  0  0
 64144  1  0  0  0
 65145  1  0  0  0
 68 81  1  0  0  0
 71 72  2  0  0  0
 71 74  1  0  0  0
 71146  1  0  0  0
 72 75  1  0  0  0
 72147  1  0  0  0
 73 75  2  0  0  0
 73 76  1  0  0  0
 73148  1  0  0  0
 74 76  2  0  0  0
 74 82  1  0  0  0
 75 84  1  0  0  0
 76 86  1  0  0  0
 77 81  1  0  0  0
 77 83  1  0  0  0
 77 85  2  0  0  0
 78 79  1  0  0  0
 78 80  1  0  0  0
 78149  1  0  0  0
 78150  1  0  0  0
 79 81  1  0  0  0
 79151  1  0  0  0
 79152  1  0  0  0
 80 83  1  0  0  0
 80153  1  0  0  0
 80154  1  0  0  0
 81155  1  0  0  0
 82 83  1  0  0  0
 82156  1  0  0  0
 82157  1  0  0  0
 84158  1  0  0  0
M  ISO  4   1 100  68 101  81 101  84 100
M  END
> <chiral flag>
0

> <version>
0

> <s_m_source_file>
/data/baiqing/PycharmProjects/Reinvent-master-3.2/result/LINK_invent/BTK/process_docking_weight1_custom_product_contain_oxygen_bond_distance_aromatic_linkinvent_7_9_3/rearranged_h_0044.sdf

> <i_m_source_file_index>
66

> <r_mmod_Potential_Energy-OPLS-2005>
202.933334350586

> <r_mmod_Stretch_Energy-OPLS-2005>
106.001037597656

> <r_mmod_Bend_Energy-OPLS-2005>
159.222366333008

> <r_mmod_Torsional_Energy-OPLS-2005>
281.824401855469

> <r_mmod_Improper_Torsional_Energy-OPLS-2005>
4.84484529495239

> <r_mmod_Van_der_Waal_Energy-OPLS-2005>
141.881103515625

> <r_mmod_Electrostatic_Energy-OPLS-2005>
-328.339813232422

> <r_mmod_Solvation_Energy-OPLS-2005>
-223.76985168457

> <b_mmod_Minimization_Converged-OPLS-2005>
0

> <r_mmod_RMS_Derivative-OPLS-2005>
6.76123380661011

$$$$
66
                    3D
 Structure written by MMmdl.
151159  0  0  1  0            999 V2000
  -30.6084  -14.6551   20.5124 C   0  0  0  0  0  0
  -30.4381  -12.4059   19.4552 C   0  0  0  0  0  0
  -29.5130  -12.5297   18.2233 C   0  0  0  0  0  0
  -28.0343  -12.3554   18.6287 C   0  0  0  0  0  0
  -27.6527  -13.2157   19.8622 C   0  0  2  0  0  0
  -28.6938  -13.0704   20.9947 C   0  0  0  0  0  0
  -25.2575  -13.8162   20.5668 C   0  0  0  0  0  0
  -24.1836  -13.0433   20.9185 C   0  0  0  0  0  0
  -24.6398  -11.6888   20.8719 C   0  0  0  0  0  0
  -23.9067  -10.4277   21.0386 C   0  0  0  0  0  0
  -24.3624   -9.4201   21.9169 C   0  0  0  0  0  0
  -23.6296   -8.2250   22.0754 C   0  0  0  0  0  0
  -22.4291   -8.0282   21.3533 C   0  0  0  0  0  0
  -21.9909   -9.0259   20.4638 C   0  0  0  0  0  0
  -22.7243  -10.2130   20.3029 C   0  0  0  0  0  0
  -21.6865   -6.0736   22.5276 C   0  0  0  0  0  0
  -21.4021   -6.5636   23.8215 C   0  0  0  0  0  0
  -21.3672   -5.6778   24.9173 C   0  0  0  0  0  0
  -21.6053   -4.3046   24.7221 C   0  0  0  0  0  0
  -21.8831   -3.8138   23.4344 C   0  0  0  0  0  0
  -21.9197   -4.6959   22.3393 C   0  0  0  0  0  0
  -22.7859  -13.5238   21.1846 C   0  0  0  0  0  0
  -22.1664   -4.2138   21.0975 F   0  0  0  0  0  0
  -21.5633   -3.4538   25.7738 F   0  0  0  0  0  0
  -30.0079  -13.4241   20.4358 N   0  0  0  0  0  0
  -26.2991  -12.9329   20.3283 N   0  0  0  0  0  0
  -25.9322  -11.6483   20.5695 N   0  0  0  0  0  0
  -22.0510  -12.8211   22.0389 N   0  0  0  0  0  0
  -25.4303  -15.1893   20.4092 N   0  0  0  0  0  0
  -31.7733  -14.8155   20.1370 O   0  0  0  0  0  0
  -21.6656   -6.8877   21.4238 O   0  0  0  0  0  0
  -22.3530  -14.5548   20.6691 O   0  0  0  0  0  0
  -24.6264  -31.8606   23.2054 C   0  0  0  0  0  0
  -25.9111  -32.4778   23.8372 C   0  0  1  0  0  0
  -27.2181  -27.3157   20.1303 C   0  0  0  0  0  0
  -25.5934  -33.8577   24.2301 N   0  0  0  0  0  0
  -23.4190  -30.4872   21.5478 C   0  0  2  0  0  0
  -24.8643  -28.9437   20.1110 C   0  0  0  0  0  0
  -22.7472  -29.4634   22.4935 C   0  0  0  0  0  0
  -18.0289  -28.1386   22.8493 C   0  0  0  0  0  0
  -24.1492  -36.7296   23.2639 C   0  0  0  0  0  0
  -25.9610  -30.7906   21.3779 C   0  0  0  0  0  0
  -26.0332  -29.4182   20.7205 C   0  0  0  0  0  0
  -27.2140  -28.6167   20.7202 C   0  0  0  0  0  0
  -26.0319  -26.9040   19.4816 C   0  0  0  0  0  0
  -24.8669  -27.6917   19.4796 C   0  0  0  0  0  0
  -23.6330  -29.8252   20.1610 C   0  0  0  0  0  0
  -25.4118  -36.3085   24.0334 C   0  0  1  0  0  0
  -20.5888  -28.3687   23.1281 C   0  0  2  0  0  0
  -20.6778  -26.9414   22.5403 C   0  0  0  0  0  0
  -19.5754  -26.6385   21.5210 C   0  0  0  0  0  0
  -18.1932  -26.7930   22.1619 C   0  0  0  0  0  0
  -19.1540  -28.8858   23.2880 C   0  0  0  0  0  0
  -18.9463  -30.1456   23.8894 C   0  0  0  0  0  0
  -17.6462  -30.6588   24.0568 C   0  0  0  0  0  0
  -25.9058  -34.9449   23.5116 C   0  0  0  0  0  0
  -16.5351  -29.9076   23.6332 C   0  0  0  0  0  0
  -16.7279  -28.6493   23.0357 C   0  0  0  0  0  0
  -26.4498  -31.6569   25.0731 C   0  0  0  0  0  0
  -25.3736  -31.3703   26.1460 C   0  0  0  0  0  0
  -27.0330  -30.2987   24.6187 C   0  0  0  0  0  0
  -27.6067  -32.4290   25.7497 C   0  0  0  0  0  0
  -27.5588  -37.1805   24.8466 C   0  0  0  0  0  0
  -21.4187  -29.3051   22.3669 N   0  0  0  0  0  0
  -26.4298  -37.3778   23.9408 N   0  0  0  0  0  0
  -24.6869  -31.0636   22.0997 N   0  0  0  0  0  0
  -23.4185  -28.8180   23.3021 O   0  0  0  0  0  0
  -28.3216  -26.4501   20.1840 O   0  0  0  0  0  0
  -26.5613  -34.8913   22.4677 O   0  0  0  0  0  0
  -23.5428  -32.1402   23.7384 O   0  0  0  0  0  0
  -28.8029  -19.4159   20.9558 C   0  0  0  0  0  0
  -31.1491  -19.2837   20.4615 C   0  0  0  0  0  0
  -28.7574  -17.9844   21.0011 C   0  0  0  0  0  0
  -31.1029  -17.8604   20.4995 C   0  0  0  0  0  0
  -30.0104  -20.1086   20.6831 C   0  0  0  0  0  0
  -29.9019  -17.1611   20.7731 C   0  0  0  0  0  0
  -29.2568  -24.0291   20.4332 C   0  0  0  0  0  0
  -30.2057  -21.6742   20.6531 C   0  0  0  0  0  0
  -28.0307  -25.0194   20.4774 C   0  0  0  0  0  0
  -29.7788  -15.6994   20.8483 N   0  0  0  0  0  0
  -29.0878  -22.6762   20.6170 N   0  0  0  0  0  0
  -30.3813  -24.4984   20.2346 O   0  0  0  0  0  0
  -31.4811  -12.5359   19.1599 H   0  0  0  0  0  0
  -30.3697  -11.4064   19.8862 H   0  0  0  0  0  0
  -29.7842  -11.7944   17.4662 H   0  0  0  0  0  0
  -29.6542  -13.5087   17.7600 H   0  0  0  0  0  0
  -27.8717  -11.2983   18.8418 H   0  0  0  0  0  0
  -27.3848  -12.5965   17.7861 H   0  0  0  0  0  0
  -27.6682  -14.2536   19.5267 H   0  0  0  0  0  0
  -28.7090  -12.0470   21.3741 H   0  0  0  0  0  0
  -28.4291  -13.6974   21.8482 H   0  0  0  0  0  0
  -25.2772   -9.5698   22.4733 H   0  0  0  0  0  0
  -24.0023   -7.4645   22.7463 H   0  0  0  0  0  0
  -21.0863   -8.8765   19.8933 H   0  0  0  0  0  0
  -22.3701  -10.9670   19.6138 H   0  0  0  0  0  0
  -21.2005   -7.6144   23.9711 H   0  0  0  0  0  0
  -21.1489   -6.0514   25.9080 H   0  0  0  0  0  0
  -22.0591   -2.7593   23.2853 H   0  0  0  0  0  0
  -22.4134  -11.9892   22.4803 H   0  0  0  0  0  0
  -21.1123  -13.1206   22.2571 H   0  0  0  0  0  0
  -24.6598  -15.8416   20.5084 H   0  0  0  0  0  0
  -26.2706  -15.6270   20.0538 H   0  0  0  0  0  0
  -26.7185  -32.5448   23.1122 H   0  0  0  0  0  0
  -25.0105  -33.9722   25.0456 H   0  0  0  0  0  0
  -22.7136  -31.3084   21.4075 H   0  0  0  0  0  0
  -23.3749  -35.9631   23.3306 H   0  0  0  0  0  0
  -24.3588  -36.8905   22.2051 H   0  0  0  0  0  0
  -23.7244  -37.6503   23.6651 H   0  0  0  0  0  0
  -26.0963  -31.5539   20.6098 H   0  0  0  0  0  0
  -26.8393  -30.8363   22.0094 H   0  0  0  0  0  0
  -28.1073  -28.9749   21.2114 H   0  0  0  0  0  0
  -25.9751  -25.9603   18.9630 H   0  0  0  0  0  0
  -23.9764  -27.3278   18.9853 H   0  0  0  0  0  0
  -23.7520  -30.6050   19.4079 H   0  0  0  0  0  0
  -22.7513  -29.2581   19.8570 H   0  0  0  0  0  0
  -25.1300  -36.1950   25.0827 H   0  0  0  0  0  0
  -20.9991  -28.3267   24.1393 H   0  0  0  0  0  0
  -20.5695  -26.2301   23.3606 H   0  0  0  0  0  0
  -21.6647  -26.7452   22.1186 H   0  0  0  0  0  0
  -19.6916  -25.6293   21.1245 H   0  0  0  0  0  0
  -19.6691  -27.3196   20.6744 H   0  0  0  0  0  0
  -17.4203  -26.6685   21.4020 H   0  0  0  0  0  0
  -18.0331  -26.0066   22.9017 H   0  0  0  0  0  0
  -19.7934  -30.7283   24.2259 H   0  0  0  0  0  0
  -17.5007  -31.6269   24.5162 H   0  0  0  0  0  0
  -15.5347  -30.2978   23.7666 H   0  0  0  0  0  0
  -15.8677  -28.0818   22.7071 H   0  0  0  0  0  0
  -24.5902  -30.7066   25.7783 H   0  0  0  0  0  0
  -24.8931  -32.2864   26.4919 H   0  0  0  0  0  0
  -25.8053  -30.8848   27.0221 H   0  0  0  0  0  0
  -26.2888  -29.6742   24.1228 H   0  0  0  0  0  0
  -27.4034  -29.7254   25.4700 H   0  0  0  0  0  0
  -27.8771  -30.4276   23.9402 H   0  0  0  0  0  0
  -27.2706  -33.3593   26.2091 H   0  0  0  0  0  0
  -28.3872  -32.6840   25.0316 H   0  0  0  0  0  0
  -28.0744  -31.8398   26.5396 H   0  0  0  0  0  0
  -28.2604  -38.0107   24.7514 H   0  0  0  0  0  0
  -28.1083  -36.2630   24.6288 H   0  0  0  0  0  0
  -27.2302  -37.1459   25.8870 H   0  0  0  0  0  0
  -20.9360  -29.8749   21.6861 H   0  0  0  0  0  0
  -26.0183  -38.2858   24.1387 H   0  0  0  0  0  0
  -27.8995  -19.9747   21.1522 H   0  0  0  0  0  0
  -32.1007  -19.7563   20.2633 H   0  0  0  0  0  0
  -27.8059  -17.5194   21.2190 H   0  0  0  0  0  0
  -32.0166  -17.3128   20.3192 H   0  0  0  0  0  0
  -30.8422  -21.8794   19.7905 H   0  0  0  0  0  0
  -30.8194  -21.9233   21.5215 H   0  0  0  0  0  0
  -27.6035  -24.9659   21.4799 H   0  0  0  0  0  0
  -27.2893  -24.5971   19.8032 H   0  0  0  0  0  0
  -28.8583  -15.3756   21.1041 H   0  0  0  0  0  0
  -28.1516  -22.3333   20.7904 H   0  0  0  0  0  0
  1 25  1  0  0  0
  1 30  2  0  0  0
  1 80  1  0  0  0
  2  3  1  0  0  0
  2 25  1  0  0  0
  2 83  1  0  0  0
  2 84  1  0  0  0
  3  4  1  0  0  0
  3 85  1  0  0  0
  3 86  1  0  0  0
  4  5  1  0  0  0
  4 87  1  0  0  0
  4 88  1  0  0  0
  5  6  1  0  0  0
  5 26  1  0  0  0
  5 89  1  0  0  0
  6 25  1  0  0  0
  6 90  1  0  0  0
  6 91  1  0  0  0
  7  8  2  0  0  0
  7 26  1  0  0  0
  7 29  1  0  0  0
  8  9  1  0  0  0
  8 22  1  0  0  0
  9 10  1  0  0  0
  9 27  2  0  0  0
 10 11  2  0  0  0
 10 15  1  0  0  0
 11 12  1  0  0  0
 11 92  1  0  0  0
 12 13  2  0  0  0
 12 93  1  0  0  0
 13 14  1  0  0  0
 13 31  1  0  0  0
 14 15  2  0  0  0
 14 94  1  0  0  0
 15 95  1  0  0  0
 16 17  2  0  0  0
 16 21  1  0  0  0
 16 31  1  0  0  0
 17 18  1  0  0  0
 17 96  1  0  0  0
 18 19  2  0  0  0
 18 97  1  0  0  0
 19 20  1  0  0  0
 19 24  1  0  0  0
 20 21  2  0  0  0
 20 98  1  0  0  0
 21 23  1  0  0  0
 22 28  1  0  0  0
 22 32  2  0  0  0
 26 27  1  0  0  0
 28 99  1  0  0  0
 28100  1  0  0  0
 29101  1  0  0  0
 29102  1  0  0  0
 33 34  1  0  0  0
 33 66  1  0  0  0
 33 70  2  0  0  0
 34 36  1  0  0  0
 34 59  1  0  0  0
 34103  1  0  0  0
 35 44  2  0  0  0
 35 45  1  0  0  0
 35 68  1  0  0  0
 36 56  1  0  0  0
 36104  1  0  0  0
 37 39  1  0  0  0
 37 47  1  0  0  0
 37 66  1  0  0  0
 37105  1  0  0  0
 38 43  2  0  0  0
 38 46  1  0  0  0
 38 47  1  0  0  0
 39 64  1  0  0  0
 39 67  2  0  0  0
 40 52  1  0  0  0
 40 53  2  0  0  0
 40 58  1  0  0  0
 41106  1  0  0  0
 41107  1  0  0  0
 41108  1  0  0  0
 41 48  1  0  0  0
 42 43  1  0  0  0
 42 66  1  0  0  0
 42109  1  0  0  0
 42110  1  0  0  0
 43 44  1  0  0  0
 44111  1  0  0  0
 45 46  2  0  0  0
 45112  1  0  0  0
 46113  1  0  0  0
 47114  1  0  0  0
 47115  1  0  0  0
 48 56  1  0  0  0
 48 65  1  0  0  0
 48116  1  0  0  0
 49 50  1  0  0  0
 49 53  1  0  0  0
 49 64  1  0  0  0
 49117  1  0  0  0
 50 51  1  0  0  0
 50118  1  0  0  0
 50119  1  0  0  0
 51 52  1  0  0  0
 51120  1  0  0  0
 51121  1  0  0  0
 52122  1  0  0  0
 52123  1  0  0  0
 53 54  1  0  0  0
 54 55  2  0  0  0
 54124  1  0  0  0
 55 57  1  0  0  0
 55125  1  0  0  0
 56 69  2  0  0  0
 57 58  2  0  0  0
 57126  1  0  0  0
 58127  1  0  0  0
 59 60  1  0  0  0
 59 61  1  0  0  0
 59 62  1  0  0  0
 60128  1  0  0  0
 60129  1  0  0  0
 60130  1  0  0  0
 61131  1  0  0  0
 61132  1  0  0  0
 61133  1  0  0  0
 62134  1  0  0  0
 62135  1  0  0  0
 62136  1  0  0  0
 63 65  1  0  0  0
 63137  1  0  0  0
 63138  1  0  0  0
 63139  1  0  0  0
 64140  1  0  0  0
 65141  1  0  0  0
 68 79  1  0  0  0
 71 73  2  0  0  0
 71 75  1  0  0  0
 71142  1  0  0  0
 72 74  1  0  0  0
 72 75  2  0  0  0
 72143  1  0  0  0
 73 76  1  0  0  0
 73144  1  0  0  0
 74 76  2  0  0  0
 74145  1  0  0  0
 75 78  1  0  0  0
 76 80  1  0  0  0
 77 79  1  0  0  0
 77 81  1  0  0  0
 77 82  2  0  0  0
 78 81  1  0  0  0
 78146  1  0  0  0
 78147  1  0  0  0
 79148  1  0  0  0
 79149  1  0  0  0
 80150  1  0  0  0
 81151  1  0  0  0
M  ISO  4   1 100  68 101  79 101  80 100
M  END
> <chiral flag>
0

> <version>
0

> <s_m_source_file>
/data/baiqing/PycharmProjects/Reinvent-master-3.2/result/LINK_invent/BTK/process_docking_weight1_custom_product_contain_oxygen_bond_distance_aromatic_linkinvent_7_9_3/rearranged_h_0044.sdf

> <i_m_source_file_index>
67

> <r_mmod_Potential_Energy-OPLS-2005>
-10.758228302002

> <r_mmod_Stretch_Energy-OPLS-2005>
80.0377807617188

> <r_mmod_Bend_Energy-OPLS-2005>
141.744247436523

> <r_mmod_Torsional_Energy-OPLS-2005>
213.916030883789

> <r_mmod_Improper_Torsional_Energy-OPLS-2005>
4.45218467712402

> <r_mmod_Van_der_Waal_Energy-OPLS-2005>
144.756072998047

> <r_mmod_Electrostatic_Energy-OPLS-2005>
-400.868408203125

> <r_mmod_Solvation_Energy-OPLS-2005>
-247.765075683594

> <b_mmod_Minimization_Converged-OPLS-2005>
0

> <r_mmod_RMS_Derivative-OPLS-2005>
2.93701672554016

$$$$
67
                    3D
 Structure written by MMmdl.
151159  0  0  1  0            999 V2000
  -30.6029  -14.7534   20.4637 C   0  0  0  0  0  0
  -30.4350  -12.4623   19.4698 C   0  0  0  0  0  0
  -29.5089  -12.4978   18.2349 C   0  0  0  0  0  0
  -28.0369  -12.3169   18.6533 C   0  0  0  0  0  0
  -27.6394  -13.2271   19.8458 C   0  0  2  0  0  0
  -28.6841  -13.1691   20.9807 C   0  0  0  0  0  0
  -25.2507  -13.8183   20.5679 C   0  0  0  0  0  0
  -24.1801  -13.0435   20.9215 C   0  0  0  0  0  0
  -24.6390  -11.6914   20.8761 C   0  0  0  0  0  0
  -23.9065  -10.4292   21.0418 C   0  0  0  0  0  0
  -24.3618   -9.4205   21.9189 C   0  0  0  0  0  0
  -23.6293   -8.2238   22.0751 C   0  0  0  0  0  0
  -22.4274   -8.0280   21.3537 C   0  0  0  0  0  0
  -21.9909   -9.0255   20.4639 C   0  0  0  0  0  0
  -22.7240  -10.2135   20.3059 C   0  0  0  0  0  0
  -21.6851   -6.0738   22.5283 C   0  0  0  0  0  0
  -21.4013   -6.5640   23.8217 C   0  0  0  0  0  0
  -21.3658   -5.6791   24.9177 C   0  0  0  0  0  0
  -21.6045   -4.3054   24.7225 C   0  0  0  0  0  0
  -21.8820   -3.8148   23.4346 C   0  0  0  0  0  0
  -21.9191   -4.6966   22.3404 C   0  0  0  0  0  0
  -22.7824  -13.5225   21.1872 C   0  0  0  0  0  0
  -22.1661   -4.2150   21.0980 F   0  0  0  0  0  0
  -21.5627   -3.4538   25.7737 F   0  0  0  0  0  0
  -29.9807  -13.5269   20.3931 N   0  0  0  0  0  0
  -26.2924  -12.9380   20.3260 N   0  0  0  0  0  0
  -25.9313  -11.6532   20.5750 N   0  0  0  0  0  0
  -22.0468  -12.8211   22.0428 N   0  0  0  0  0  0
  -25.4186  -15.1908   20.4073 N   0  0  0  0  0  0
  -31.8006  -14.8411   20.1776 O   0  0  0  0  0  0
  -21.6637   -6.8878   21.4241 O   0  0  0  0  0  0
  -22.3509  -14.5528   20.6718 O   0  0  0  0  0  0
  -24.6302  -31.8536   23.1962 C   0  0  0  0  0  0
  -25.9124  -32.4746   23.8316 C   0  0  1  0  0  0
  -27.2261  -27.2623   20.1417 C   0  0  0  0  0  0
  -25.5920  -33.8549   24.2246 N   0  0  0  0  0  0
  -23.4286  -30.4734   21.5391 C   0  0  2  0  0  0
  -24.8775  -28.9105   20.1178 C   0  0  0  0  0  0
  -22.7500  -29.4588   22.4911 C   0  0  0  0  0  0
  -18.0289  -28.1371   22.8462 C   0  0  0  0  0  0
  -24.1486  -36.7286   23.2642 C   0  0  0  0  0  0
  -25.9723  -30.7688   21.3731 C   0  0  0  0  0  0
  -26.0483  -29.3876   20.7217 C   0  0  0  0  0  0
  -27.2292  -28.5775   20.7172 C   0  0  0  0  0  0
  -26.0343  -26.8438   19.5177 C   0  0  0  0  0  0
  -24.8741  -27.6464   19.5046 C   0  0  0  0  0  0
  -23.6478  -29.7988   20.1586 C   0  0  0  0  0  0
  -25.4117  -36.3065   24.0322 C   0  0  1  0  0  0
  -20.5892  -28.3683   23.1254 C   0  0  2  0  0  0
  -20.6767  -26.9397   22.5400 C   0  0  0  0  0  0
  -19.5756  -26.6364   21.5190 C   0  0  0  0  0  0
  -18.1935  -26.7908   22.1601 C   0  0  0  0  0  0
  -19.1544  -28.8844   23.2847 C   0  0  0  0  0  0
  -18.9474  -30.1443   23.8868 C   0  0  0  0  0  0
  -17.6476  -30.6572   24.0553 C   0  0  0  0  0  0
  -25.9047  -34.9431   23.5087 C   0  0  0  0  0  0
  -16.5363  -29.9073   23.6324 C   0  0  0  0  0  0
  -16.7276  -28.6491   23.0338 C   0  0  0  0  0  0
  -26.4495  -31.6582   25.0710 C   0  0  0  0  0  0
  -25.3715  -31.3740   26.1428 C   0  0  0  0  0  0
  -27.0354  -30.3004   24.6193 C   0  0  0  0  0  0
  -27.6042  -32.4333   25.7484 C   0  0  0  0  0  0
  -27.5576  -37.1800   24.8467 C   0  0  0  0  0  0
  -21.4210  -29.3042   22.3656 N   0  0  0  0  0  0
  -26.4294  -37.3763   23.9402 N   0  0  0  0  0  0
  -24.6960  -31.0503   22.0928 N   0  0  0  0  0  0
  -23.4196  -28.8133   23.3015 O   0  0  0  0  0  0
  -28.3301  -26.3851   20.1290 O   0  0  0  0  0  0
  -26.5629  -34.8905   22.4657 O   0  0  0  0  0  0
  -23.5450  -32.1359   23.7252 O   0  0  0  0  0  0
  -29.2621  -18.4394   20.3511 C   0  0  0  0  0  0
  -30.8710  -20.1253   21.0490 C   0  0  0  0  0  0
  -31.3955  -17.7238   21.2553 C   0  0  0  0  0  0
  -29.6019  -19.8517   20.5016 C   0  0  0  0  0  0
  -30.1486  -17.3377   20.7114 C   0  0  0  0  0  0
  -31.7474  -19.0825   21.4207 C   0  0  0  0  0  0
  -28.4376  -23.6981   19.9684 C   0  0  0  0  0  0
  -28.6878  -21.0681   20.0138 C   0  0  0  0  0  0
  -28.2235  -25.0490   20.8133 C   0  0  0  0  0  0
  -29.8062  -15.8886   20.6007 N   0  0  0  0  0  0
  -28.7972  -22.4944   20.5685 N   0  0  0  0  0  0
  -28.2090  -23.7331   18.7575 O   0  0  0  0  0  0
  -33.2896  -19.4754   22.0894 Cl  0  0  0  0  0  0
  -31.4740  -12.5945   19.1635 H   0  0  0  0  0  0
  -30.3892  -11.4890   19.9605 H   0  0  0  0  0  0
  -29.7944  -11.7194   17.5260 H   0  0  0  0  0  0
  -29.6289  -13.4480   17.7131 H   0  0  0  0  0  0
  -27.9031  -11.2707   18.9307 H   0  0  0  0  0  0
  -27.3756  -12.4914   17.8038 H   0  0  0  0  0  0
  -27.6305  -14.2445   19.4554 H   0  0  0  0  0  0
  -28.7240  -12.1728   21.4241 H   0  0  0  0  0  0
  -28.4176  -13.8531   21.7885 H   0  0  0  0  0  0
  -25.2763   -9.5679   22.4766 H   0  0  0  0  0  0
  -24.0002   -7.4626   22.7471 H   0  0  0  0  0  0
  -21.0839   -8.8777   19.8941 H   0  0  0  0  0  0
  -22.3705  -10.9674   19.6167 H   0  0  0  0  0  0
  -21.2007   -7.6147   23.9720 H   0  0  0  0  0  0
  -21.1476   -6.0520   25.9079 H   0  0  0  0  0  0
  -22.0600   -2.7609   23.2848 H   0  0  0  0  0  0
  -22.4084  -11.9872   22.4816 H   0  0  0  0  0  0
  -21.1082  -13.1225   22.2635 H   0  0  0  0  0  0
  -24.6464  -15.8395   20.5135 H   0  0  0  0  0  0
  -26.2536  -15.6297   20.0422 H   0  0  0  0  0  0
  -26.7195  -32.5400   23.1064 H   0  0  0  0  0  0
  -25.0074  -33.9680   25.0397 H   0  0  0  0  0  0
  -22.7255  -31.2957   21.3896 H   0  0  0  0  0  0
  -23.3740  -35.9625   23.3312 H   0  0  0  0  0  0
  -24.3587  -36.8901   22.2057 H   0  0  0  0  0  0
  -23.7244  -37.6490   23.6667 H   0  0  0  0  0  0
  -26.1075  -31.5265   20.5996 H   0  0  0  0  0  0
  -26.8511  -30.8235   22.0038 H   0  0  0  0  0  0
  -28.1319  -28.9426   21.1871 H   0  0  0  0  0  0
  -25.9975  -25.8723   19.0436 H   0  0  0  0  0  0
  -23.9784  -27.2750   19.0265 H   0  0  0  0  0  0
  -23.7759  -30.5706   19.3987 H   0  0  0  0  0  0
  -22.7663  -29.2303   19.8550 H   0  0  0  0  0  0
  -25.1302  -36.1911   25.0816 H   0  0  0  0  0  0
  -20.9983  -28.3252   24.1378 H   0  0  0  0  0  0
  -20.5641  -26.2292   23.3609 H   0  0  0  0  0  0
  -21.6640  -26.7412   22.1215 H   0  0  0  0  0  0
  -19.6921  -25.6272   21.1225 H   0  0  0  0  0  0
  -19.6688  -27.3165   20.6713 H   0  0  0  0  0  0
  -17.4198  -26.6636   21.4005 H   0  0  0  0  0  0
  -18.0359  -26.0052   22.9005 H   0  0  0  0  0  0
  -19.7952  -30.7255   24.2234 H   0  0  0  0  0  0
  -17.5034  -31.6254   24.5155 H   0  0  0  0  0  0
  -15.5362  -30.2970   23.7668 H   0  0  0  0  0  0
  -15.8670  -28.0811   22.7068 H   0  0  0  0  0  0
  -24.5885  -30.7088   25.7769 H   0  0  0  0  0  0
  -24.8903  -32.2909   26.4837 H   0  0  0  0  0  0
  -25.8012  -30.8931   27.0220 H   0  0  0  0  0  0
  -26.2946  -29.6736   24.1206 H   0  0  0  0  0  0
  -27.4047  -29.7276   25.4710 H   0  0  0  0  0  0
  -27.8809  -30.4309   23.9432 H   0  0  0  0  0  0
  -27.2659  -33.3648   26.2041 H   0  0  0  0  0  0
  -28.3858  -32.6876   25.0311 H   0  0  0  0  0  0
  -28.0705  -31.8473   26.5411 H   0  0  0  0  0  0
  -28.2600  -38.0092   24.7507 H   0  0  0  0  0  0
  -28.1063  -36.2616   24.6304 H   0  0  0  0  0  0
  -27.2294  -37.1478   25.8872 H   0  0  0  0  0  0
  -20.9394  -29.8787   21.6882 H   0  0  0  0  0  0
  -26.0159  -38.2830   24.1400 H   0  0  0  0  0  0
  -28.2956  -18.2010   19.9289 H   0  0  0  0  0  0
  -31.1913  -21.1503   21.1691 H   0  0  0  0  0  0
  -32.1075  -16.9765   21.5717 H   0  0  0  0  0  0
  -27.6517  -20.7554   20.1510 H   0  0  0  0  0  0
  -28.8217  -21.1241   18.9333 H   0  0  0  0  0  0
  -27.2572  -24.9740   21.3145 H   0  0  0  0  0  0
  -28.9662  -25.0459   21.6112 H   0  0  0  0  0  0
  -28.8195  -15.6825   20.6164 H   0  0  0  0  0  0
  -29.0008  -22.5530   21.5578 H   0  0  0  0  0  0
  1 25  1  0  0  0
  1 30  2  0  0  0
  1 80  1  0  0  0
  2  3  1  0  0  0
  2 25  1  0  0  0
  2 84  1  0  0  0
  2 85  1  0  0  0
  3  4  1  0  0  0
  3 86  1  0  0  0
  3 87  1  0  0  0
  4  5  1  0  0  0
  4 88  1  0  0  0
  4 89  1  0  0  0
  5  6  1  0  0  0
  5 26  1  0  0  0
  5 90  1  0  0  0
  6 25  1  0  0  0
  6 91  1  0  0  0
  6 92  1  0  0  0
  7  8  2  0  0  0
  7 26  1  0  0  0
  7 29  1  0  0  0
  8  9  1  0  0  0
  8 22  1  0  0  0
  9 10  1  0  0  0
  9 27  2  0  0  0
 10 11  2  0  0  0
 10 15  1  0  0  0
 11 12  1  0  0  0
 11 93  1  0  0  0
 12 13  2  0  0  0
 12 94  1  0  0  0
 13 14  1  0  0  0
 13 31  1  0  0  0
 14 15  2  0  0  0
 14 95  1  0  0  0
 15 96  1  0  0  0
 16 17  2  0  0  0
 16 21  1  0  0  0
 16 31  1  0  0  0
 17 18  1  0  0  0
 17 97  1  0  0  0
 18 19  2  0  0  0
 18 98  1  0  0  0
 19 20  1  0  0  0
 19 24  1  0  0  0
 20 21  2  0  0  0
 20 99  1  0  0  0
 21 23  1  0  0  0
 22 28  1  0  0  0
 22 32  2  0  0  0
 26 27  1  0  0  0
 28100  1  0  0  0
 28101  1  0  0  0
 29102  1  0  0  0
 29103  1  0  0  0
 33 34  1  0  0  0
 33 66  1  0  0  0
 33 70  2  0  0  0
 34 36  1  0  0  0
 34 59  1  0  0  0
 34104  1  0  0  0
 35 44  2  0  0  0
 35 45  1  0  0  0
 35 68  1  0  0  0
 36 56  1  0  0  0
 36105  1  0  0  0
 37 39  1  0  0  0
 37 47  1  0  0  0
 37 66  1  0  0  0
 37106  1  0  0  0
 38 43  2  0  0  0
 38 46  1  0  0  0
 38 47  1  0  0  0
 39 64  1  0  0  0
 39 67  2  0  0  0
 40 52  1  0  0  0
 40 53  2  0  0  0
 40 58  1  0  0  0
 41107  1  0  0  0
 41108  1  0  0  0
 41109  1  0  0  0
 41 48  1  0  0  0
 42 43  1  0  0  0
 42 66  1  0  0  0
 42110  1  0  0  0
 42111  1  0  0  0
 43 44  1  0  0  0
 44112  1  0  0  0
 45 46  2  0  0  0
 45113  1  0  0  0
 46114  1  0  0  0
 47115  1  0  0  0
 47116  1  0  0  0
 48 56  1  0  0  0
 48 65  1  0  0  0
 48117  1  0  0  0
 49 50  1  0  0  0
 49 53  1  0  0  0
 49 64  1  0  0  0
 49118  1  0  0  0
 50 51  1  0  0  0
 50119  1  0  0  0
 50120  1  0  0  0
 51 52  1  0  0  0
 51121  1  0  0  0
 51122  1  0  0  0
 52123  1  0  0  0
 52124  1  0  0  0
 53 54  1  0  0  0
 54 55  2  0  0  0
 54125  1  0  0  0
 55 57  1  0  0  0
 55126  1  0  0  0
 56 69  2  0  0  0
 57 58  2  0  0  0
 57127  1  0  0  0
 58128  1  0  0  0
 59 60  1  0  0  0
 59 61  1  0  0  0
 59 62  1  0  0  0
 60129  1  0  0  0
 60130  1  0  0  0
 60131  1  0  0  0
 61132  1  0  0  0
 61133  1  0  0  0
 61134  1  0  0  0
 62135  1  0  0  0
 62136  1  0  0  0
 62137  1  0  0  0
 63 65  1  0  0  0
 63138  1  0  0  0
 63139  1  0  0  0
 63140  1  0  0  0
 64141  1  0  0  0
 65142  1  0  0  0
 68 79  1  0  0  0
 71 74  2  0  0  0
 71 75  1  0  0  0
 71143  1  0  0  0
 72 74  1  0  0  0
 72 76  2  0  0  0
 72144  1  0  0  0
 73 75  2  0  0  0
 73 76  1  0  0  0
 73145  1  0  0  0
 74 78  1  0  0  0
 75 80  1  0  0  0
 76 83  1  0  0  0
 77 79  1  0  0  0
 77 81  1  0  0  0
 77 82  2  0  0  0
 78 81  1  0  0  0
 78146  1  0  0  0
 78147  1  0  0  0
 79148  1  0  0  0
 79149  1  0  0  0
 80150  1  0  0  0
 81151  1  0  0  0
M  ISO  4   1 100  68 101  79 101  80 100
M  END
> <chiral flag>
0

> <version>
0

> <s_m_source_file>
/data/baiqing/PycharmProjects/Reinvent-master-3.2/result/LINK_invent/BTK/process_docking_weight1_custom_product_contain_oxygen_bond_distance_aromatic_linkinvent_7_9_3/rearranged_h_0044.sdf

> <i_m_source_file_index>
68

> <r_mmod_Potential_Energy-OPLS-2005>
92.5576934814453

> <r_mmod_Stretch_Energy-OPLS-2005>
124.946868896484

> <r_mmod_Bend_Energy-OPLS-2005>
155.599044799805

> <r_mmod_Torsional_Energy-OPLS-2005>
236.898681640625

> <r_mmod_Improper_Torsional_Energy-OPLS-2005>
6.92039632797241

> <r_mmod_Van_der_Waal_Energy-OPLS-2005>
130.107131958008

> <r_mmod_Electrostatic_Energy-OPLS-2005>
-399.01806640625

> <r_mmod_Solvation_Energy-OPLS-2005>
-248.43359375

> <b_mmod_Minimization_Converged-OPLS-2005>
0

> <r_mmod_RMS_Derivative-OPLS-2005>
1.3744478225708

$$$$
68
                    3D
 Structure written by MMmdl.
161170  0  0  1  0            999 V2000
  -30.6152  -14.6316   20.5252 C   0  0  0  0  0  0
  -30.4437  -12.3935   19.4526 C   0  0  0  0  0  0
  -29.5097  -12.4954   18.2265 C   0  0  0  0  0  0
  -28.0340  -12.3314   18.6427 C   0  0  0  0  0  0
  -27.6544  -13.2080   19.8653 C   0  0  2  0  0  0
  -28.6964  -13.0530   20.9957 C   0  0  0  0  0  0
  -25.2569  -13.8150   20.5680 C   0  0  0  0  0  0
  -24.1822  -13.0431   20.9193 C   0  0  0  0  0  0
  -24.6382  -11.6900   20.8759 C   0  0  0  0  0  0
  -23.9049  -10.4287   21.0425 C   0  0  0  0  0  0
  -24.3603   -9.4205   21.9201 C   0  0  0  0  0  0
  -23.6277   -8.2242   22.0764 C   0  0  0  0  0  0
  -22.4264   -8.0281   21.3545 C   0  0  0  0  0  0
  -21.9892   -9.0263   20.4660 C   0  0  0  0  0  0
  -22.7220  -10.2143   20.3077 C   0  0  0  0  0  0
  -21.6857   -6.0734   22.5280 C   0  0  0  0  0  0
  -21.4010   -6.5636   23.8212 C   0  0  0  0  0  0
  -21.3654   -5.6789   24.9173 C   0  0  0  0  0  0
  -21.6045   -4.3053   24.7227 C   0  0  0  0  0  0
  -21.8814   -3.8143   23.4349 C   0  0  0  0  0  0
  -21.9185   -4.6959   22.3402 C   0  0  0  0  0  0
  -22.7851  -13.5247   21.1842 C   0  0  0  0  0  0
  -22.1657   -4.2147   21.0984 F   0  0  0  0  0  0
  -21.5627   -3.4536   25.7737 F   0  0  0  0  0  0
  -30.0112  -13.4061   20.4359 N   0  0  0  0  0  0
  -26.2983  -12.9311   20.3310 N   0  0  0  0  0  0
  -25.9308  -11.6483   20.5770 N   0  0  0  0  0  0
  -22.0480  -12.8275   22.0417 N   0  0  0  0  0  0
  -25.4296  -15.1866   20.4080 N   0  0  0  0  0  0
  -31.7659  -14.8015   20.1140 O   0  0  0  0  0  0
  -21.6633   -6.8880   21.4244 O   0  0  0  0  0  0
  -22.3547  -14.5551   20.6674 O   0  0  0  0  0  0
  -24.6257  -31.8601   23.2044 C   0  0  0  0  0  0
  -25.9105  -32.4783   23.8364 C   0  0  1  0  0  0
  -27.2209  -27.3135   20.1227 C   0  0  0  0  0  0
  -25.5915  -33.8583   24.2285 N   0  0  0  0  0  0
  -23.4196  -30.4859   21.5457 C   0  0  2  0  0  0
  -24.8659  -28.9457   20.1098 C   0  0  0  0  0  0
  -22.7471  -29.4627   22.4923 C   0  0  0  0  0  0
  -18.0281  -28.1403   22.8485 C   0  0  0  0  0  0
  -24.1485  -36.7289   23.2639 C   0  0  0  0  0  0
  -25.9614  -30.7898   21.3773 C   0  0  0  0  0  0
  -26.0338  -29.4173   20.7204 C   0  0  0  0  0  0
  -27.2119  -28.6113   20.7224 C   0  0  0  0  0  0
  -26.0329  -26.9116   19.4631 C   0  0  0  0  0  0
  -24.8674  -27.6972   19.4724 C   0  0  0  0  0  0
  -23.6349  -29.8253   20.1590 C   0  0  0  0  0  0
  -25.4110  -36.3086   24.0328 C   0  0  1  0  0  0
  -20.5886  -28.3698   23.1281 C   0  0  2  0  0  0
  -20.6762  -26.9418   22.5418 C   0  0  0  0  0  0
  -19.5742  -26.6391   21.5217 C   0  0  0  0  0  0
  -18.1922  -26.7945   22.1626 C   0  0  0  0  0  0
  -19.1538  -28.8867   23.2876 C   0  0  0  0  0  0
  -18.9463  -30.1466   23.8901 C   0  0  0  0  0  0
  -17.6463  -30.6601   24.0571 C   0  0  0  0  0  0
  -25.9042  -34.9456   23.5108 C   0  0  0  0  0  0
  -16.5352  -29.9102   23.6339 C   0  0  0  0  0  0
  -16.7269  -28.6521   23.0356 C   0  0  0  0  0  0
  -26.4489  -31.6600   25.0738 C   0  0  0  0  0  0
  -25.3718  -31.3759   26.1462 C   0  0  0  0  0  0
  -27.0313  -30.3011   24.6204 C   0  0  0  0  0  0
  -27.6043  -32.4336   25.7516 C   0  0  0  0  0  0
  -27.5568  -37.1808   24.8469 C   0  0  0  0  0  0
  -21.4186  -29.3049   22.3666 N   0  0  0  0  0  0
  -26.4289  -37.3775   23.9399 N   0  0  0  0  0  0
  -24.6877  -31.0624   22.0980 N   0  0  0  0  0  0
  -23.4191  -28.8146   23.2982 O   0  0  0  0  0  0
  -28.3331  -26.4550   20.2170 O   0  0  0  0  0  0
  -26.5615  -34.8921   22.4676 O   0  0  0  0  0  0
  -23.5421  -32.1397   23.7367 O   0  0  0  0  0  0
  -28.6869  -19.2913   20.5569 C   0  0  0  0  0  0
  -28.7544  -17.8657   20.4915 C   0  0  0  0  0  0
  -30.9207  -19.3204   21.4311 C   0  0  0  0  0  0
  -29.7758  -20.0660   21.0315 C   0  0  0  0  0  0
  -30.9927  -17.8932   21.3825 C   0  0  0  0  0  0
  -29.8989  -17.1205   20.8937 C   0  0  0  0  0  0
  -28.9305  -23.9753   20.8208 C   0  0  0  0  0  0
  -28.2931  -23.2916   18.0687 C   0  0  0  0  0  0
  -28.5503  -24.7601   18.4268 C   0  0  0  0  0  0
  -29.0923  -22.3203   18.9639 C   0  0  0  0  0  0
  -28.1777  -25.0100   19.8919 C   0  0  2  0  0  0
  -32.2335  -17.2215   21.9435 C   0  0  0  0  0  0
  -29.7200  -21.6223   21.3147 C   0  0  0  0  0  0
  -29.1291  -22.6686   20.3962 N   0  0  0  0  0  0
  -29.7996  -15.6586   20.9315 N   0  0  0  0  0  0
  -29.2648  -24.3422   21.9527 O   0  0  0  0  0  0
  -31.4823  -12.5309   19.1462 H   0  0  0  0  0  0
  -30.3929  -11.3975   19.8949 H   0  0  0  0  0  0
  -29.7762  -11.7327   17.4927 H   0  0  0  0  0  0
  -29.6497  -13.4583   17.7318 H   0  0  0  0  0  0
  -27.8812  -11.2799   18.8889 H   0  0  0  0  0  0
  -27.3750  -12.5429   17.7999 H   0  0  0  0  0  0
  -27.6786  -14.2426   19.5227 H   0  0  0  0  0  0
  -28.7116  -12.0262   21.3650 H   0  0  0  0  0  0
  -28.4371  -13.6723   21.8555 H   0  0  0  0  0  0
  -25.2755   -9.5682   22.4763 H   0  0  0  0  0  0
  -23.9990   -7.4634   22.7481 H   0  0  0  0  0  0
  -21.0813   -8.8786   19.8977 H   0  0  0  0  0  0
  -22.3679  -10.9684   19.6180 H   0  0  0  0  0  0
  -21.2013   -7.6146   23.9716 H   0  0  0  0  0  0
  -21.1478   -6.0522   25.9075 H   0  0  0  0  0  0
  -22.0597   -2.7608   23.2852 H   0  0  0  0  0  0
  -22.4067  -11.9951   22.4843 H   0  0  0  0  0  0
  -21.1110  -13.1342   22.2624 H   0  0  0  0  0  0
  -24.6605  -15.8387   20.5126 H   0  0  0  0  0  0
  -26.2668  -15.6196   20.0426 H   0  0  0  0  0  0
  -26.7171  -32.5453   23.1108 H   0  0  0  0  0  0
  -25.0062  -33.9735   25.0431 H   0  0  0  0  0  0
  -22.7127  -31.3055   21.4041 H   0  0  0  0  0  0
  -23.3737  -35.9637   23.3347 H   0  0  0  0  0  0
  -24.3562  -36.8855   22.2041 H   0  0  0  0  0  0
  -23.7259  -37.6508   23.6642 H   0  0  0  0  0  0
  -26.0971  -31.5514   20.6077 H   0  0  0  0  0  0
  -26.8401  -30.8370   22.0086 H   0  0  0  0  0  0
  -28.1038  -28.9644   21.2222 H   0  0  0  0  0  0
  -25.9606  -25.9739   18.9349 H   0  0  0  0  0  0
  -23.9747  -27.3363   18.9793 H   0  0  0  0  0  0
  -23.7543  -30.6038   19.4036 H   0  0  0  0  0  0
  -22.7559  -29.2544   19.8551 H   0  0  0  0  0  0
  -25.1301  -36.1936   25.0823 H   0  0  0  0  0  0
  -20.9983  -28.3280   24.1398 H   0  0  0  0  0  0
  -20.5657  -26.2309   23.3618 H   0  0  0  0  0  0
  -21.6629  -26.7435   22.1222 H   0  0  0  0  0  0
  -19.6897  -25.6299   21.1250 H   0  0  0  0  0  0
  -19.6693  -27.3197   20.6744 H   0  0  0  0  0  0
  -17.4189  -26.6693   21.4031 H   0  0  0  0  0  0
  -18.0327  -26.0101   22.9039 H   0  0  0  0  0  0
  -19.7936  -30.7281   24.2278 H   0  0  0  0  0  0
  -17.5020  -31.6285   24.5164 H   0  0  0  0  0  0
  -15.5355  -30.3005   23.7674 H   0  0  0  0  0  0
  -15.8665  -28.0842   22.7074 H   0  0  0  0  0  0
  -24.5925  -30.7056   25.7821 H   0  0  0  0  0  0
  -24.8872  -32.2928   26.4826 H   0  0  0  0  0  0
  -25.8037  -30.9010   27.0278 H   0  0  0  0  0  0
  -26.2891  -29.6787   24.1188 H   0  0  0  0  0  0
  -27.3941  -29.7246   25.4725 H   0  0  0  0  0  0
  -27.8809  -30.4278   23.9488 H   0  0  0  0  0  0
  -27.2650  -33.3646   26.2077 H   0  0  0  0  0  0
  -28.3877  -32.6862   25.0361 H   0  0  0  0  0  0
  -28.0694  -31.8470   26.5449 H   0  0  0  0  0  0
  -28.2617  -38.0068   24.7456 H   0  0  0  0  0  0
  -28.1025  -36.2591   24.6381 H   0  0  0  0  0  0
  -27.2282  -37.1570   25.8872 H   0  0  0  0  0  0
  -20.9361  -29.8764   21.6879 H   0  0  0  0  0  0
  -26.0169  -38.2856   24.1367 H   0  0  0  0  0  0
  -27.7646  -19.7837   20.2796 H   0  0  0  0  0  0
  -27.8799  -17.3337   20.1481 H   0  0  0  0  0  0
  -31.7591  -19.8613   21.8483 H   0  0  0  0  0  0
  -28.5420  -23.1155   17.0217 H   0  0  0  0  0  0
  -27.2265  -23.0802   18.1622 H   0  0  0  0  0  0
  -27.9719  -25.4089   17.7699 H   0  0  0  0  0  0
  -29.5988  -25.0140   18.2605 H   0  0  0  0  0  0
  -30.1248  -22.2777   18.6168 H   0  0  0  0  0  0
  -28.6836  -21.3221   18.8235 H   0  0  0  0  0  0
  -27.1461  -24.7039   20.0543 H   0  0  0  0  0  0
  -31.9679  -16.3959   22.6036 H   0  0  0  0  0  0
  -32.8446  -17.9200   22.5166 H   0  0  0  0  0  0
  -32.8495  -16.8366   21.1316 H   0  0  0  0  0  0
  -30.7427  -21.9460   21.5144 H   0  0  0  0  0  0
  -29.2111  -21.7197   22.2753 H   0  0  0  0  0  0
  -28.8735  -15.3217   21.1442 H   0  0  0  0  0  0
  1 25  1  0  0  0
  1 30  2  0  0  0
  1 85  1  0  0  0
  2  3  1  0  0  0
  2 25  1  0  0  0
  2 87  1  0  0  0
  2 88  1  0  0  0
  3  4  1  0  0  0
  3 89  1  0  0  0
  3 90  1  0  0  0
  4  5  1  0  0  0
  4 91  1  0  0  0
  4 92  1  0  0  0
  5  6  1  0  0  0
  5 26  1  0  0  0
  5 93  1  0  0  0
  6 25  1  0  0  0
  6 94  1  0  0  0
  6 95  1  0  0  0
  7  8  2  0  0  0
  7 26  1  0  0  0
  7 29  1  0  0  0
  8  9  1  0  0  0
  8 22  1  0  0  0
  9 10  1  0  0  0
  9 27  2  0  0  0
 10 11  2  0  0  0
 10 15  1  0  0  0
 11 12  1  0  0  0
 11 96  1  0  0  0
 12 13  2  0  0  0
 12 97  1  0  0  0
 13 14  1  0  0  0
 13 31  1  0  0  0
 14 15  2  0  0  0
 14 98  1  0  0  0
 15 99  1  0  0  0
 16 17  2  0  0  0
 16 21  1  0  0  0
 16 31  1  0  0  0
 17 18  1  0  0  0
 17100  1  0  0  0
 18 19  2  0  0  0
 18101  1  0  0  0
 19 20  1  0  0  0
 19 24  1  0  0  0
 20 21  2  0  0  0
 20102  1  0  0  0
 21 23  1  0  0  0
 22 28  1  0  0  0
 22 32  2  0  0  0
 26 27  1  0  0  0
 28103  1  0  0  0
 28104  1  0  0  0
 29105  1  0  0  0
 29106  1  0  0  0
 33 34  1  0  0  0
 33 66  1  0  0  0
 33 70  2  0  0  0
 34 36  1  0  0  0
 34 59  1  0  0  0
 34107  1  0  0  0
 35 44  2  0  0  0
 35 45  1  0  0  0
 35 68  1  0  0  0
 36 56  1  0  0  0
 36108  1  0  0  0
 37 39  1  0  0  0
 37 47  1  0  0  0
 37 66  1  0  0  0
 37109  1  0  0  0
 38 43  2  0  0  0
 38 46  1  0  0  0
 38 47  1  0  0  0
 39 64  1  0  0  0
 39 67  2  0  0  0
 40 52  1  0  0  0
 40 53  2  0  0  0
 40 58  1  0  0  0
 41110  1  0  0  0
 41111  1  0  0  0
 41112  1  0  0  0
 41 48  1  0  0  0
 42 43  1  0  0  0
 42 66  1  0  0  0
 42113  1  0  0  0
 42114  1  0  0  0
 43 44  1  0  0  0
 44115  1  0  0  0
 45 46  2  0  0  0
 45116  1  0  0  0
 46117  1  0  0  0
 47118  1  0  0  0
 47119  1  0  0  0
 48 56  1  0  0  0
 48 65  1  0  0  0
 48120  1  0  0  0
 49 50  1  0  0  0
 49 53  1  0  0  0
 49 64  1  0  0  0
 49121  1  0  0  0
 50 51  1  0  0  0
 50122  1  0  0  0
 50123  1  0  0  0
 51 52  1  0  0  0
 51124  1  0  0  0
 51125  1  0  0  0
 52126  1  0  0  0
 52127  1  0  0  0
 53 54  1  0  0  0
 54 55  2  0  0  0
 54128  1  0  0  0
 55 57  1  0  0  0
 55129  1  0  0  0
 56 69  2  0  0  0
 57 58  2  0  0  0
 57130  1  0  0  0
 58131  1  0  0  0
 59 60  1  0  0  0
 59 61  1  0  0  0
 59 62  1  0  0  0
 60132  1  0  0  0
 60133  1  0  0  0
 60134  1  0  0  0
 61135  1  0  0  0
 61136  1  0  0  0
 61137  1  0  0  0
 62138  1  0  0  0
 62139  1  0  0  0
 62140  1  0  0  0
 63 65  1  0  0  0
 63141  1  0  0  0
 63142  1  0  0  0
 63143  1  0  0  0
 64144  1  0  0  0
 65145  1  0  0  0
 68 81  1  0  0  0
 71 72  2  0  0  0
 71 74  1  0  0  0
 71146  1  0  0  0
 72 76  1  0  0  0
 72147  1  0  0  0
 73 74  2  0  0  0
 73 75  1  0  0  0
 73148  1  0  0  0
 74 83  1  0  0  0
 75 76  2  0  0  0
 75 82  1  0  0  0
 76 85  1  0  0  0
 77 81  1  0  0  0
 77 84  1  0  0  0
 77 86  2  0  0  0
 78 79  1  0  0  0
 78 80  1  0  0  0
 78149  1  0  0  0
 78150  1  0  0  0
 79 81  1  0  0  0
 79151  1  0  0  0
 79152  1  0  0  0
 80 84  1  0  0  0
 80153  1  0  0  0
 80154  1  0  0  0
 81155  1  0  0  0
 82156  1  0  0  0
 82157  1  0  0  0
 82158  1  0  0  0
 83 84  1  0  0  0
 83159  1  0  0  0
 83160  1  0  0  0
 85161  1  0  0  0
M  ISO  4   1 100  68 101  81 101  85 100
M  END
> <chiral flag>
0

> <version>
0

> <s_m_source_file>
/data/baiqing/PycharmProjects/Reinvent-master-3.2/result/LINK_invent/BTK/process_docking_weight1_custom_product_contain_oxygen_bond_distance_aromatic_linkinvent_7_9_3/rearranged_h_0044.sdf

> <i_m_source_file_index>
69

> <r_mmod_Potential_Energy-OPLS-2005>
117.557327270508

> <r_mmod_Stretch_Energy-OPLS-2005>
86.92041015625

> <r_mmod_Bend_Energy-OPLS-2005>
156.34733581543

> <r_mmod_Torsional_Energy-OPLS-2005>
244.77294921875

> <r_mmod_Improper_Torsional_Energy-OPLS-2005>
7.10629320144653

> <r_mmod_Van_der_Waal_Energy-OPLS-2005>
157.878189086914

> <r_mmod_Electrostatic_Energy-OPLS-2005>
-351.009368896484

> <r_mmod_Solvation_Energy-OPLS-2005>
-235.037734985352

> <b_mmod_Minimization_Converged-OPLS-2005>
0

> <r_mmod_RMS_Derivative-OPLS-2005>
2.23557615280151

$$$$
69
                    3D
 Structure written by MMmdl.
171180  0  0  1  0            999 V2000
  -30.5773  -14.7398   20.4769 C   0  0  0  0  0  0
  -30.4443  -12.4571   19.4519 C   0  0  0  0  0  0
  -29.5099  -12.5015   18.2223 C   0  0  0  0  0  0
  -28.0356  -12.3192   18.6395 C   0  0  0  0  0  0
  -27.6391  -13.2179   19.8409 C   0  0  2  0  0  0
  -28.6861  -13.1360   20.9695 C   0  0  0  0  0  0
  -25.2515  -13.8159   20.5664 C   0  0  0  0  0  0
  -24.1802  -13.0424   20.9197 C   0  0  0  0  0  0
  -24.6377  -11.6896   20.8740 C   0  0  0  0  0  0
  -23.9057  -10.4283   21.0409 C   0  0  0  0  0  0
  -24.3612   -9.4203   21.9186 C   0  0  0  0  0  0
  -23.6285   -8.2241   22.0758 C   0  0  0  0  0  0
  -22.4267   -8.0282   21.3547 C   0  0  0  0  0  0
  -21.9903   -9.0253   20.4649 C   0  0  0  0  0  0
  -22.7229  -10.2133   20.3056 C   0  0  0  0  0  0
  -21.6850   -6.0735   22.5277 C   0  0  0  0  0  0
  -21.4015   -6.5640   23.8216 C   0  0  0  0  0  0
  -21.3657   -5.6791   24.9174 C   0  0  0  0  0  0
  -21.6043   -4.3055   24.7223 C   0  0  0  0  0  0
  -21.8819   -3.8147   23.4341 C   0  0  0  0  0  0
  -21.9191   -4.6964   22.3400 C   0  0  0  0  0  0
  -22.7828  -13.5229   21.1859 C   0  0  0  0  0  0
  -22.1660   -4.2152   21.0975 F   0  0  0  0  0  0
  -21.5623   -3.4535   25.7732 F   0  0  0  0  0  0
  -29.9819  -13.5042   20.3846 N   0  0  0  0  0  0
  -26.2919  -12.9335   20.3226 N   0  0  0  0  0  0
  -25.9299  -11.6496   20.5728 N   0  0  0  0  0  0
  -22.0468  -12.8232   22.0420 N   0  0  0  0  0  0
  -25.4181  -15.1889   20.4084 N   0  0  0  0  0  0
  -31.7830  -14.8727   20.2477 O   0  0  0  0  0  0
  -21.6636   -6.8879   21.4242 O   0  0  0  0  0  0
  -22.3522  -14.5533   20.6699 O   0  0  0  0  0  0
  -24.6304  -31.8549   23.1962 C   0  0  0  0  0  0
  -25.9130  -32.4752   23.8313 C   0  0  1  0  0  0
  -27.2305  -27.2722   20.1425 C   0  0  0  0  0  0
  -25.5923  -33.8553   24.2242 N   0  0  0  0  0  0
  -23.4272  -30.4738   21.5402 C   0  0  2  0  0  0
  -24.8756  -28.9090   20.1242 C   0  0  0  0  0  0
  -22.7495  -29.4601   22.4929 C   0  0  0  0  0  0
  -18.0289  -28.1388   22.8485 C   0  0  0  0  0  0
  -24.1490  -36.7282   23.2639 C   0  0  0  0  0  0
  -25.9702  -30.7733   21.3710 C   0  0  0  0  0  0
  -26.0463  -29.3913   20.7237 C   0  0  0  0  0  0
  -27.2301  -28.5884   20.7122 C   0  0  0  0  0  0
  -26.0340  -26.8381   19.5379 C   0  0  0  0  0  0
  -24.8729  -27.6393   19.5218 C   0  0  0  0  0  0
  -23.6463  -29.7970   20.1610 C   0  0  0  0  0  0
  -25.4116  -36.3066   24.0323 C   0  0  1  0  0  0
  -20.5892  -28.3697   23.1276 C   0  0  2  0  0  0
  -20.6776  -26.9416   22.5408 C   0  0  0  0  0  0
  -19.5749  -26.6385   21.5213 C   0  0  0  0  0  0
  -18.1932  -26.7929   22.1629 C   0  0  0  0  0  0
  -19.1542  -28.8860   23.2874 C   0  0  0  0  0  0
  -18.9463  -30.1461   23.8892 C   0  0  0  0  0  0
  -17.6462  -30.6588   24.0565 C   0  0  0  0  0  0
  -25.9057  -34.9438   23.5088 C   0  0  0  0  0  0
  -16.5354  -29.9086   23.6332 C   0  0  0  0  0  0
  -16.7276  -28.6504   23.0351 C   0  0  0  0  0  0
  -26.4501  -31.6576   25.0700 C   0  0  0  0  0  0
  -25.3725  -31.3733   26.1424 C   0  0  0  0  0  0
  -27.0345  -30.2993   24.6174 C   0  0  0  0  0  0
  -27.6053  -32.4320   25.7477 C   0  0  0  0  0  0
  -27.5581  -37.1791   24.8462 C   0  0  0  0  0  0
  -21.4204  -29.3043   22.3669 N   0  0  0  0  0  0
  -26.4288  -37.3768   23.9412 N   0  0  0  0  0  0
  -24.6951  -31.0523   22.0928 N   0  0  0  0  0  0
  -23.4197  -28.8150   23.3035 O   0  0  0  0  0  0
  -28.3678  -26.4467   20.0626 O   0  0  0  0  0  0
  -26.5636  -34.8918   22.4662 O   0  0  0  0  0  0
  -23.5456  -32.1361   23.7267 O   0  0  0  0  0  0
  -29.5622  -18.5330   23.1126 C   0  0  0  0  0  0
  -29.4785  -18.4178   20.3540 C   0  0  0  0  0  0
  -29.2048  -19.7004   22.4016 C   0  0  0  0  0  0
  -29.8340  -17.2994   22.4873 C   0  0  0  0  0  0
  -29.2247  -19.7169   20.9753 C   0  0  0  0  0  0
  -29.7636  -17.1840   21.0776 C   0  0  0  0  0  0
  -28.4512  -23.7760   19.8527 C   0  0  0  0  0  0
  -27.6953  -23.0586   16.2649 C   0  0  0  0  0  0
  -28.0994  -23.8349   18.5458 C   0  0  0  0  0  0
  -28.0578  -22.7960   17.5302 C   0  0  0  0  0  0
  -30.3171  -23.9451   22.1260 C   0  0  0  0  0  0
  -29.8084  -25.2405   21.4758 C   0  0  0  0  0  0
  -30.3654  -22.7781   21.1234 C   0  0  0  0  0  0
  -28.4600  -25.1084   20.7342 C   0  0  1  0  0  0
  -28.7522  -20.8714   23.2605 C   0  0  0  0  0  0
  -30.0945  -16.0968   23.3819 C   0  0  0  0  0  0
  -28.8811  -21.0317   20.1043 C   0  0  0  0  0  0
  -29.7169  -15.8282   20.4808 N   0  0  0  0  0  0
  -29.0031  -22.4901   20.6210 N   0  3  2  0  0  0
  -31.4797  -12.6147   19.1447 H   0  0  0  0  0  0
  -30.4139  -11.4774   19.9312 H   0  0  0  0  0  0
  -29.7934  -11.7306   17.5045 H   0  0  0  0  0  0
  -29.6276  -13.4567   17.7080 H   0  0  0  0  0  0
  -27.8968  -11.2698   18.9022 H   0  0  0  0  0  0
  -27.3775  -12.5094   17.7909 H   0  0  0  0  0  0
  -27.6314  -14.2388   19.4601 H   0  0  0  0  0  0
  -28.7268  -12.1313   21.3916 H   0  0  0  0  0  0
  -28.4163  -13.8016   21.7900 H   0  0  0  0  0  0
  -25.2762   -9.5674   22.4761 H   0  0  0  0  0  0
  -23.9986   -7.4636   22.7481 H   0  0  0  0  0  0
  -21.0833   -8.8780   19.8959 H   0  0  0  0  0  0
  -22.3693  -10.9675   19.6167 H   0  0  0  0  0  0
  -21.2017   -7.6150   23.9719 H   0  0  0  0  0  0
  -21.1473   -6.0522   25.9079 H   0  0  0  0  0  0
  -22.0599   -2.7608   23.2843 H   0  0  0  0  0  0
  -22.4075  -11.9891   22.4808 H   0  0  0  0  0  0
  -21.1090  -13.1273   22.2626 H   0  0  0  0  0  0
  -24.6435  -15.8336   20.5238 H   0  0  0  0  0  0
  -26.2565  -15.6412   20.0699 H   0  0  0  0  0  0
  -26.7202  -32.5416   23.1061 H   0  0  0  0  0  0
  -25.0056  -33.9684   25.0378 H   0  0  0  0  0  0
  -22.7235  -31.2949   21.3890 H   0  0  0  0  0  0
  -23.3752  -35.9614   23.3291 H   0  0  0  0  0  0
  -24.3581  -36.8916   22.2056 H   0  0  0  0  0  0
  -23.7243  -37.6479   23.6673 H   0  0  0  0  0  0
  -26.1019  -31.5304   20.5967 H   0  0  0  0  0  0
  -26.8504  -30.8294   22.0000 H   0  0  0  0  0  0
  -28.1390  -28.9671   21.1589 H   0  0  0  0  0  0
  -25.9928  -25.8667   19.0677 H   0  0  0  0  0  0
  -23.9756  -27.2634   19.0496 H   0  0  0  0  0  0
  -23.7720  -30.5670   19.3990 H   0  0  0  0  0  0
  -22.7656  -29.2275   19.8590 H   0  0  0  0  0  0
  -25.1297  -36.1906   25.0814 H   0  0  0  0  0  0
  -20.9978  -28.3272   24.1399 H   0  0  0  0  0  0
  -20.5676  -26.2305   23.3609 H   0  0  0  0  0  0
  -21.6643  -26.7438   22.1202 H   0  0  0  0  0  0
  -19.6909  -25.6296   21.1241 H   0  0  0  0  0  0
  -19.6683  -27.3197   20.6744 H   0  0  0  0  0  0
  -17.4195  -26.6668   21.4039 H   0  0  0  0  0  0
  -18.0339  -26.0075   22.9031 H   0  0  0  0  0  0
  -19.7937  -30.7280   24.2258 H   0  0  0  0  0  0
  -17.5014  -31.6267   24.5168 H   0  0  0  0  0  0
  -15.5354  -30.2986   23.7657 H   0  0  0  0  0  0
  -15.8676  -28.0824   22.7065 H   0  0  0  0  0  0
  -24.5880  -30.7108   25.7748 H   0  0  0  0  0  0
  -24.8945  -32.2911   26.4859 H   0  0  0  0  0  0
  -25.8035  -30.8891   27.0194 H   0  0  0  0  0  0
  -26.2921  -29.6737   24.1203 H   0  0  0  0  0  0
  -27.4040  -29.7260   25.4686 H   0  0  0  0  0  0
  -27.8792  -30.4272   23.9400 H   0  0  0  0  0  0
  -27.2658  -33.3633   26.2025 H   0  0  0  0  0  0
  -28.3878  -32.6858   25.0313 H   0  0  0  0  0  0
  -28.0698  -31.8461   26.5417 H   0  0  0  0  0  0
  -28.2582  -38.0105   24.7529 H   0  0  0  0  0  0
  -28.1093  -36.2636   24.6259 H   0  0  0  0  0  0
  -27.2299  -37.1401   25.8864 H   0  0  0  0  0  0
  -20.9394  -29.8758   21.6865 H   0  0  0  0  0  0
  -26.0162  -38.2836   24.1427 H   0  0  0  0  0  0
  -29.5634  -18.5703   24.1942 H   0  0  0  0  0  0
  -29.3991  -18.3562   19.2774 H   0  0  0  0  0  0
  -27.6671  -22.2755   15.5195 H   0  0  0  0  0  0
  -27.4199  -24.0548   15.9463 H   0  0  0  0  0  0
  -27.8103  -24.8167   18.1990 H   0  0  0  0  0  0
  -28.3091  -21.7733   17.7384 H   0  0  0  0  0  0
  -29.6892  -23.6970   22.9816 H   0  0  0  0  0  0
  -31.3169  -24.1136   22.5280 H   0  0  0  0  0  0
  -30.5637  -25.5808   20.7653 H   0  0  0  0  0  0
  -29.7365  -26.0243   22.2306 H   0  0  0  0  0  0
  -30.8060  -21.9052   21.6042 H   0  0  0  0  0  0
  -31.0194  -23.0156   20.2830 H   0  0  0  0  0  0
  -27.6542  -25.0208   21.4650 H   0  0  0  0  0  0
  -28.2843  -20.5032   24.1750 H   0  0  0  0  0  0
  -27.9972  -21.4882   22.7781 H   0  0  0  0  0  0
  -29.6011  -21.4789   23.5715 H   0  0  0  0  0  0
  -30.1174  -16.3751   24.4357 H   0  0  0  0  0  0
  -31.0551  -15.6389   23.1481 H   0  0  0  0  0  0
  -29.3088  -15.3515   23.2650 H   0  0  0  0  0  0
  -27.8587  -20.8974   19.7506 H   0  0  0  0  0  0
  -29.5311  -20.9581   19.2334 H   0  0  0  0  0  0
  -28.7772  -15.5402   20.2617 H   0  0  0  0  0  0
  -28.4480  -22.4277   21.4601 H   0  0  0  0  0  0
  1 25  1  0  0  0
  1 30  2  0  0  0
  1 88  1  0  0  0
  2  3  1  0  0  0
  2 25  1  0  0  0
  2 90  1  0  0  0
  2 91  1  0  0  0
  3  4  1  0  0  0
  3 92  1  0  0  0
  3 93  1  0  0  0
  4  5  1  0  0  0
  4 94  1  0  0  0
  4 95  1  0  0  0
  5  6  1  0  0  0
  5 26  1  0  0  0
  5 96  1  0  0  0
  6 25  1  0  0  0
  6 97  1  0  0  0
  6 98  1  0  0  0
  7  8  2  0  0  0
  7 26  1  0  0  0
  7 29  1  0  0  0
  8  9  1  0  0  0
  8 22  1  0  0  0
  9 10  1  0  0  0
  9 27  2  0  0  0
 10 11  2  0  0  0
 10 15  1  0  0  0
 11 12  1  0  0  0
 11 99  1  0  0  0
 12 13  2  0  0  0
 12100  1  0  0  0
 13 14  1  0  0  0
 13 31  1  0  0  0
 14 15  2  0  0  0
 14101  1  0  0  0
 15102  1  0  0  0
 16 17  2  0  0  0
 16 21  1  0  0  0
 16 31  1  0  0  0
 17 18  1  0  0  0
 17103  1  0  0  0
 18 19  2  0  0  0
 18104  1  0  0  0
 19 20  1  0  0  0
 19 24  1  0  0  0
 20 21  2  0  0  0
 20105  1  0  0  0
 21 23  1  0  0  0
 22 28  1  0  0  0
 22 32  2  0  0  0
 26 27  1  0  0  0
 28106  1  0  0  0
 28107  1  0  0  0
 29108  1  0  0  0
 29109  1  0  0  0
 33 34  1  0  0  0
 33 66  1  0  0  0
 33 70  2  0  0  0
 34 36  1  0  0  0
 34 59  1  0  0  0
 34110  1  0  0  0
 35 44  2  0  0  0
 35 45  1  0  0  0
 35 68  1  0  0  0
 36 56  1  0  0  0
 36111  1  0  0  0
 37 39  1  0  0  0
 37 47  1  0  0  0
 37 66  1  0  0  0
 37112  1  0  0  0
 38 43  2  0  0  0
 38 46  1  0  0  0
 38 47  1  0  0  0
 39 64  1  0  0  0
 39 67  2  0  0  0
 40 52  1  0  0  0
 40 53  2  0  0  0
 40 58  1  0  0  0
 41113  1  0  0  0
 41114  1  0  0  0
 41115  1  0  0  0
 41 48  1  0  0  0
 42 43  1  0  0  0
 42 66  1  0  0  0
 42116  1  0  0  0
 42117  1  0  0  0
 43 44  1  0  0  0
 44118  1  0  0  0
 45 46  2  0  0  0
 45119  1  0  0  0
 46120  1  0  0  0
 47121  1  0  0  0
 47122  1  0  0  0
 48 56  1  0  0  0
 48 65  1  0  0  0
 48123  1  0  0  0
 49 50  1  0  0  0
 49 53  1  0  0  0
 49 64  1  0  0  0
 49124  1  0  0  0
 50 51  1  0  0  0
 50125  1  0  0  0
 50126  1  0  0  0
 51 52  1  0  0  0
 51127  1  0  0  0
 51128  1  0  0  0
 52129  1  0  0  0
 52130  1  0  0  0
 53 54  1  0  0  0
 54 55  2  0  0  0
 54131  1  0  0  0
 55 57  1  0  0  0
 55132  1  0  0  0
 56 69  2  0  0  0
 57 58  2  0  0  0
 57133  1  0  0  0
 58134  1  0  0  0
 59 60  1  0  0  0
 59 61  1  0  0  0
 59 62  1  0  0  0
 60135  1  0  0  0
 60136  1  0  0  0
 60137  1  0  0  0
 61138  1  0  0  0
 61139  1  0  0  0
 61140  1  0  0  0
 62141  1  0  0  0
 62142  1  0  0  0
 62143  1  0  0  0
 63 65  1  0  0  0
 63144  1  0  0  0
 63145  1  0  0  0
 63146  1  0  0  0
 64147  1  0  0  0
 65148  1  0  0  0
 68 84  1  0  0  0
 71 73  2  0  0  0
 71 74  1  0  0  0
 71149  1  0  0  0
 72 75  2  0  0  0
 72 76  1  0  0  0
 72150  1  0  0  0
 73 75  1  0  0  0
 73 85  1  0  0  0
 74 76  2  0  0  0
 74 86  1  0  0  0
 75 87  1  0  0  0
 76 88  1  0  0  0
 77 79  2  0  0  0
 77 84  1  0  0  0
 77 89  1  0  0  0
 78 80  2  0  0  0
 78151  1  0  0  0
 78152  1  0  0  0
 79 80  1  0  0  0
 79153  1  0  0  0
 80154  1  0  0  0
 81 82  1  0  0  0
 81 83  1  0  0  0
 81155  1  0  0  0
 81156  1  0  0  0
 82 84  1  0  0  0
 82157  1  0  0  0
 82158  1  0  0  0
 83 89  1  0  0  0
 83159  1  0  0  0
 83160  1  0  0  0
 84161  1  0  0  0
 85162  1  0  0  0
 85163  1  0  0  0
 85164  1  0  0  0
 86165  1  0  0  0
 86166  1  0  0  0
 86167  1  0  0  0
 87168  1  0  0  0
 87169  1  0  0  0
 87 89  1  0  0  0
 88170  1  0  0  0
 89171  1  0  0  0
M  CHG  1  89   1
M  ISO  4   1 100  68 101  84 101  88 100
M  END
> <chiral flag>
0

> <version>
0

> <s_m_source_file>
/data/baiqing/PycharmProjects/Reinvent-master-3.2/result/LINK_invent/BTK/process_docking_weight1_custom_product_contain_oxygen_bond_distance_aromatic_linkinvent_7_9_3/rearranged_h_0044.sdf

> <i_m_source_file_index>
70

> <r_mmod_Potential_Energy-OPLS-2005>
133.877075195312

> <r_mmod_Stretch_Energy-OPLS-2005>
136.470153808594

> <r_mmod_Bend_Energy-OPLS-2005>
207.143844604492

> <r_mmod_Torsional_Energy-OPLS-2005>
285.176177978516

> <r_mmod_Improper_Torsional_Energy-OPLS-2005>
12.5226716995239

> <r_mmod_Van_der_Waal_Energy-OPLS-2005>
137.851196289062

> <r_mmod_Electrostatic_Energy-OPLS-2005>
-298.415100097656

> <r_mmod_Solvation_Energy-OPLS-2005>
-425.480163574219

> <b_mmod_Minimization_Converged-OPLS-2005>
0

> <r_mmod_RMS_Derivative-OPLS-2005>
0.878248274326324

$$$$
70
                    3D
 Structure written by MMmdl.
157165  0  0  1  0            999 V2000
  -30.5906  -14.7988   20.4345 C   0  0  0  0  0  0
  -30.4417  -12.4936   19.4666 C   0  0  0  0  0  0
  -29.5200  -12.5396   18.2278 C   0  0  0  0  0  0
  -28.0394  -12.3716   18.6269 C   0  0  0  0  0  0
  -27.6425  -13.2473   19.8450 C   0  0  2  0  0  0
  -28.6897  -13.1913   20.9800 C   0  0  0  0  0  0
  -25.2500  -13.8214   20.5667 C   0  0  0  0  0  0
  -24.1814  -13.0464   20.9200 C   0  0  0  0  0  0
  -24.6437  -11.6944   20.8717 C   0  0  0  0  0  0
  -23.9108  -10.4320   21.0346 C   0  0  0  0  0  0
  -24.3643   -9.4206   21.9117 C   0  0  0  0  0  0
  -23.6311   -8.2247   22.0717 C   0  0  0  0  0  0
  -22.4284   -8.0293   21.3529 C   0  0  0  0  0  0
  -21.9927   -9.0257   20.4598 C   0  0  0  0  0  0
  -22.7267  -10.2141   20.2982 C   0  0  0  0  0  0
  -21.6873   -6.0723   22.5250 C   0  0  0  0  0  0
  -21.4035   -6.5625   23.8184 C   0  0  0  0  0  0
  -21.3666   -5.6764   24.9141 C   0  0  0  0  0  0
  -21.6053   -4.3031   24.7177 C   0  0  0  0  0  0
  -21.8836   -3.8136   23.4298 C   0  0  0  0  0  0
  -21.9219   -4.6958   22.3367 C   0  0  0  0  0  0
  -22.7818  -13.5211   21.1866 C   0  0  0  0  0  0
  -22.1670   -4.2156   21.0940 F   0  0  0  0  0  0
  -21.5636   -3.4498   25.7691 F   0  0  0  0  0  0
  -29.9889  -13.5547   20.3992 N   0  0  0  0  0  0
  -26.2961  -12.9473   20.3217 N   0  0  0  0  0  0
  -25.9372  -11.6609   20.5690 N   0  0  0  0  0  0
  -22.0512  -12.8176   22.0416 N   0  0  0  0  0  0
  -25.4173  -15.1942   20.4059 N   0  0  0  0  0  0
  -31.7780  -14.9061   20.1154 O   0  0  0  0  0  0
  -21.6664   -6.8880   21.4224 O   0  0  0  0  0  0
  -22.3472  -14.5499   20.6677 O   0  0  0  0  0  0
  -24.6373  -31.8493   23.1920 C   0  0  0  0  0  0
  -25.9184  -32.4718   23.8273 C   0  0  1  0  0  0
  -27.2315  -27.2435   20.1365 C   0  0  0  0  0  0
  -25.5958  -33.8506   24.2165 N   0  0  0  0  0  0
  -23.4379  -30.4697   21.5338 C   0  0  2  0  0  0
  -24.8884  -28.9113   20.1090 C   0  0  0  0  0  0
  -22.7538  -29.4541   22.4812 C   0  0  0  0  0  0
  -18.0321  -28.1435   22.8457 C   0  0  0  0  0  0
  -24.1514  -36.7275   23.2637 C   0  0  0  0  0  0
  -25.9889  -30.7627   21.3720 C   0  0  0  0  0  0
  -26.0633  -29.3827   20.7126 C   0  0  0  0  0  0
  -27.2444  -28.5701   20.6930 C   0  0  0  0  0  0
  -26.0314  -26.8335   19.5222 C   0  0  0  0  0  0
  -24.8789  -27.6483   19.4965 C   0  0  0  0  0  0
  -23.6586  -29.7987   20.1536 C   0  0  0  0  0  0
  -25.4138  -36.3010   24.0290 C   0  0  1  0  0  0
  -20.5937  -28.3726   23.1260 C   0  0  2  0  0  0
  -20.6803  -26.9420   22.5420 C   0  0  0  0  0  0
  -19.5779  -26.6384   21.5224 C   0  0  0  0  0  0
  -18.1955  -26.7974   22.1617 C   0  0  0  0  0  0
  -19.1575  -28.8893   23.2853 C   0  0  0  0  0  0
  -18.9491  -30.1502   23.8865 C   0  0  0  0  0  0
  -17.6478  -30.6609   24.0585 C   0  0  0  0  0  0
  -25.9079  -34.9389   23.5012 C   0  0  0  0  0  0
  -16.5371  -29.9103   23.6354 C   0  0  0  0  0  0
  -16.7306  -28.6547   23.0330 C   0  0  0  0  0  0
  -26.4530  -31.6587   25.0705 C   0  0  0  0  0  0
  -25.3722  -31.3788   26.1412 C   0  0  0  0  0  0
  -27.0435  -30.2996   24.6265 C   0  0  0  0  0  0
  -27.6061  -32.4363   25.7499 C   0  0  0  0  0  0
  -27.5570  -37.1775   24.8432 C   0  0  0  0  0  0
  -21.4226  -29.3056   22.3606 N   0  0  0  0  0  0
  -26.4294  -37.3726   23.9380 N   0  0  0  0  0  0
  -24.7068  -31.0445   22.0881 N   0  0  0  0  0  0
  -23.4206  -28.8082   23.2930 O   0  0  0  0  0  0
  -28.3313  -26.3538   20.0919 O   0  0  0  0  0  0
  -26.5655  -34.8875   22.4584 O   0  0  0  0  0  0
  -23.5530  -32.1294   23.7224 O   0  0  0  0  0  0
  -29.3111  -20.5152   22.8327 C   0  0  0  0  0  0
  -29.6252  -19.8392   24.0211 C   0  0  0  0  0  0
  -30.1553  -17.8801   22.7284 C   0  0  0  0  0  0
  -29.4518  -19.9485   21.5364 C   0  0  0  0  0  0
  -29.8221  -18.4988   21.4969 C   0  0  0  0  0  0
  -30.0841  -18.5264   23.9648 C   0  0  0  0  0  0
  -28.4161  -23.6115   20.2286 C   0  0  0  0  0  0
  -30.5056  -22.9607   21.3295 C   0  0  0  0  0  0
  -29.1547  -21.0364   20.3856 C   0  0  0  0  0  0
  -29.9839  -17.4365   20.3172 C   0  0  0  0  0  0
  -28.3378  -25.0867   20.9156 C   0  0  0  0  0  0
  -29.7868  -15.9235   20.6067 N   0  0  0  0  0  0
  -29.2472  -22.5694   20.6818 N   0  0  0  0  0  0
  -27.6164  -23.3871   19.3152 O   0  0  0  0  0  0
  -30.5610  -17.6982   25.4022 Cl  0  0  0  0  0  0
  -31.4798  -12.6333   19.1592 H   0  0  0  0  0  0
  -30.4004  -11.5158   19.9468 H   0  0  0  0  0  0
  -29.8034  -11.7700   17.5075 H   0  0  0  0  0  0
  -29.6483  -13.4996   17.7244 H   0  0  0  0  0  0
  -27.8665  -11.3164   18.8433 H   0  0  0  0  0  0
  -27.4041  -12.6131   17.7712 H   0  0  0  0  0  0
  -27.6278  -14.2720   19.4758 H   0  0  0  0  0  0
  -28.7399  -12.1984   21.4272 H   0  0  0  0  0  0
  -28.4116  -13.8822   21.7785 H   0  0  0  0  0  0
  -25.2798   -9.5701   22.4673 H   0  0  0  0  0  0
  -24.0048   -7.4633   22.7411 H   0  0  0  0  0  0
  -21.0887   -8.8762   19.8863 H   0  0  0  0  0  0
  -22.3727  -10.9670   19.6085 H   0  0  0  0  0  0
  -21.2015   -7.6130   23.9703 H   0  0  0  0  0  0
  -21.1479   -6.0464   25.9047 H   0  0  0  0  0  0
  -22.0623   -2.7603   23.2776 H   0  0  0  0  0  0
  -22.4187  -11.9900   22.4852 H   0  0  0  0  0  0
  -21.1077  -13.1087   22.2549 H   0  0  0  0  0  0
  -24.6501  -15.8478   20.5024 H   0  0  0  0  0  0
  -26.2524  -15.6324   20.0414 H   0  0  0  0  0  0
  -26.7261  -32.5339   23.1025 H   0  0  0  0  0  0
  -25.0135  -33.9637   25.0337 H   0  0  0  0  0  0
  -22.7380  -31.2933   21.3791 H   0  0  0  0  0  0
  -23.3752  -35.9633   23.3270 H   0  0  0  0  0  0
  -24.3609  -36.8955   22.2058 H   0  0  0  0  0  0
  -23.7322  -37.6469   23.6735 H   0  0  0  0  0  0
  -26.1412  -31.5286   20.6092 H   0  0  0  0  0  0
  -26.8640  -30.8003   22.0102 H   0  0  0  0  0  0
  -28.1618  -28.9498   21.1228 H   0  0  0  0  0  0
  -25.9861  -25.8573   19.0612 H   0  0  0  0  0  0
  -23.9827  -27.2847   19.0123 H   0  0  0  0  0  0
  -23.7814  -30.5758   19.3975 H   0  0  0  0  0  0
  -22.7813  -29.2260   19.8470 H   0  0  0  0  0  0
  -25.1336  -36.1804   25.0793 H   0  0  0  0  0  0
  -21.0042  -28.3327   24.1376 H   0  0  0  0  0  0
  -20.5728  -26.2290   23.3618 H   0  0  0  0  0  0
  -21.6660  -26.7434   22.1181 H   0  0  0  0  0  0
  -19.6920  -25.6272   21.1297 H   0  0  0  0  0  0
  -19.6792  -27.3157   20.6737 H   0  0  0  0  0  0
  -17.4221  -26.6733   21.4024 H   0  0  0  0  0  0
  -18.0345  -26.0150   22.9048 H   0  0  0  0  0  0
  -19.7961  -30.7363   24.2167 H   0  0  0  0  0  0
  -17.5035  -31.6286   24.5214 H   0  0  0  0  0  0
  -15.5374  -30.3008   23.7714 H   0  0  0  0  0  0
  -15.8704  -28.0905   22.7001 H   0  0  0  0  0  0
  -24.5866  -30.7186   25.7707 H   0  0  0  0  0  0
  -24.8982  -32.3004   26.4782 H   0  0  0  0  0  0
  -25.7990  -30.8957   27.0206 H   0  0  0  0  0  0
  -26.3069  -29.6686   24.1283 H   0  0  0  0  0  0
  -27.4097  -29.7303   25.4811 H   0  0  0  0  0  0
  -27.8924  -30.4238   23.9546 H   0  0  0  0  0  0
  -27.2624  -33.3643   26.2063 H   0  0  0  0  0  0
  -28.3896  -32.6957   25.0367 H   0  0  0  0  0  0
  -28.0730  -31.8521   26.5434 H   0  0  0  0  0  0
  -28.2522  -38.0128   24.7500 H   0  0  0  0  0  0
  -28.1123  -36.2633   24.6233 H   0  0  0  0  0  0
  -27.2270  -37.1380   25.8831 H   0  0  0  0  0  0
  -20.9384  -29.8737   21.6794 H   0  0  0  0  0  0
  -26.0120  -38.2768   24.1447 H   0  0  0  0  0  0
  -28.9709  -21.5304   22.9604 H   0  0  0  0  0  0
  -29.5317  -20.3348   24.9766 H   0  0  0  0  0  0
  -30.5070  -16.8631   22.7568 H   0  0  0  0  0  0
  -30.9611  -23.8219   20.8385 H   0  0  0  0  0  0
  -31.2459  -22.1588   21.3104 H   0  0  0  0  0  0
  -30.3397  -23.2314   22.3719 H   0  0  0  0  0  0
  -28.1452  -20.8306   20.0284 H   0  0  0  0  0  0
  -29.8195  -20.8236   19.5462 H   0  0  0  0  0  0
  -29.2936  -17.7153   19.5211 H   0  0  0  0  0  0
  -30.9850  -17.5687   19.8988 H   0  0  0  0  0  0
  -29.1601  -25.2021   21.6193 H   0  0  0  0  0  0
  -27.4465  -25.0955   21.5436 H   0  0  0  0  0  0
  -28.8354  -15.6932   20.8442 H   0  0  0  0  0  0
  1 25  1  0  0  0
  1 30  2  0  0  0
  1 82  1  0  0  0
  2  3  1  0  0  0
  2 25  1  0  0  0
  2 86  1  0  0  0
  2 87  1  0  0  0
  3  4  1  0  0  0
  3 88  1  0  0  0
  3 89  1  0  0  0
  4  5  1  0  0  0
  4 90  1  0  0  0
  4 91  1  0  0  0
  5  6  1  0  0  0
  5 26  1  0  0  0
  5 92  1  0  0  0
  6 25  1  0  0  0
  6 93  1  0  0  0
  6 94  1  0  0  0
  7  8  2  0  0  0
  7 26  1  0  0  0
  7 29  1  0  0  0
  8  9  1  0  0  0
  8 22  1  0  0  0
  9 10  1  0  0  0
  9 27  2  0  0  0
 10 11  2  0  0  0
 10 15  1  0  0  0
 11 12  1  0  0  0
 11 95  1  0  0  0
 12 13  2  0  0  0
 12 96  1  0  0  0
 13 14  1  0  0  0
 13 31  1  0  0  0
 14 15  2  0  0  0
 14 97  1  0  0  0
 15 98  1  0  0  0
 16 17  2  0  0  0
 16 21  1  0  0  0
 16 31  1  0  0  0
 17 18  1  0  0  0
 17 99  1  0  0  0
 18 19  2  0  0  0
 18100  1  0  0  0
 19 20  1  0  0  0
 19 24  1  0  0  0
 20 21  2  0  0  0
 20101  1  0  0  0
 21 23  1  0  0  0
 22 28  1  0  0  0
 22 32  2  0  0  0
 26 27  1  0  0  0
 28102  1  0  0  0
 28103  1  0  0  0
 29104  1  0  0  0
 29105  1  0  0  0
 33 34  1  0  0  0
 33 66  1  0  0  0
 33 70  2  0  0  0
 34 36  1  0  0  0
 34 59  1  0  0  0
 34106  1  0  0  0
 35 44  2  0  0  0
 35 45  1  0  0  0
 35 68  1  0  0  0
 36 56  1  0  0  0
 36107  1  0  0  0
 37 39  1  0  0  0
 37 47  1  0  0  0
 37 66  1  0  0  0
 37108  1  0  0  0
 38 43  2  0  0  0
 38 46  1  0  0  0
 38 47  1  0  0  0
 39 64  1  0  0  0
 39 67  2  0  0  0
 40 52  1  0  0  0
 40 53  2  0  0  0
 40 58  1  0  0  0
 41109  1  0  0  0
 41110  1  0  0  0
 41111  1  0  0  0
 41 48  1  0  0  0
 42 43  1  0  0  0
 42 66  1  0  0  0
 42112  1  0  0  0
 42113  1  0  0  0
 43 44  1  0  0  0
 44114  1  0  0  0
 45 46  2  0  0  0
 45115  1  0  0  0
 46116  1  0  0  0
 47117  1  0  0  0
 47118  1  0  0  0
 48 56  1  0  0  0
 48 65  1  0  0  0
 48119  1  0  0  0
 49 50  1  0  0  0
 49 53  1  0  0  0
 49 64  1  0  0  0
 49120  1  0  0  0
 50 51  1  0  0  0
 50121  1  0  0  0
 50122  1  0  0  0
 51 52  1  0  0  0
 51123  1  0  0  0
 51124  1  0  0  0
 52125  1  0  0  0
 52126  1  0  0  0
 53 54  1  0  0  0
 54 55  2  0  0  0
 54127  1  0  0  0
 55 57  1  0  0  0
 55128  1  0  0  0
 56 69  2  0  0  0
 57 58  2  0  0  0
 57129  1  0  0  0
 58130  1  0  0  0
 59 60  1  0  0  0
 59 61  1  0  0  0
 59 62  1  0  0  0
 60131  1  0  0  0
 60132  1  0  0  0
 60133  1  0  0  0
 61134  1  0  0  0
 61135  1  0  0  0
 61136  1  0  0  0
 62137  1  0  0  0
 62138  1  0  0  0
 62139  1  0  0  0
 63 65  1  0  0  0
 63140  1  0  0  0
 63141  1  0  0  0
 63142  1  0  0  0
 64143  1  0  0  0
 65144  1  0  0  0
 68 81  1  0  0  0
 71 72  2  0  0  0
 71 74  1  0  0  0
 71145  1  0  0  0
 72 76  1  0  0  0
 72146  1  0  0  0
 73 75  1  0  0  0
 73 76  2  0  0  0
 73147  1  0  0  0
 74 75  2  0  0  0
 74 79  1  0  0  0
 75 80  1  0  0  0
 76 85  1  0  0  0
 77 81  1  0  0  0
 77 83  1  0  0  0
 77 84  2  0  0  0
 78 83  1  0  0  0
 78148  1  0  0  0
 78149  1  0  0  0
 78150  1  0  0  0
 79 83  1  0  0  0
 79151  1  0  0  0
 79152  1  0  0  0
 80 82  1  0  0  0
 80153  1  0  0  0
 80154  1  0  0  0
 81155  1  0  0  0
 81156  1  0  0  0
 82157  1  0  0  0
M  ISO  4   1 100  68 101  81 101  82 100
M  END
> <chiral flag>
0

> <version>
0

> <s_m_source_file>
/data/baiqing/PycharmProjects/Reinvent-master-3.2/result/LINK_invent/BTK/process_docking_weight1_custom_product_contain_oxygen_bond_distance_aromatic_linkinvent_7_9_3/rearranged_h_0044.sdf

> <i_m_source_file_index>
71

> <r_mmod_Potential_Energy-OPLS-2005>
257.021820068359

> <r_mmod_Stretch_Energy-OPLS-2005>
170.65299987793

> <r_mmod_Bend_Energy-OPLS-2005>
219.048202514648

> <r_mmod_Torsional_Energy-OPLS-2005>
249.242599487305

> <r_mmod_Improper_Torsional_Energy-OPLS-2005>
6.79881811141968

> <r_mmod_Van_der_Waal_Energy-OPLS-2005>
139.864471435547

> <r_mmod_Electrostatic_Energy-OPLS-2005>
-393.102020263672

> <r_mmod_Solvation_Energy-OPLS-2005>
-236.456939697266

> <b_mmod_Minimization_Converged-OPLS-2005>
0

> <r_mmod_RMS_Derivative-OPLS-2005>
5.2352352142334

$$$$
71
                    3D
 Structure written by MMmdl.
154162  0  0  1  0            999 V2000
  -30.6885  -14.5313   20.4802 C   0  0  0  0  0  0
  -30.4193  -12.3241   19.4238 C   0  0  0  0  0  0
  -29.4815  -12.4930   18.2029 C   0  0  0  0  0  0
  -28.0068  -12.3662   18.6212 C   0  0  0  0  0  0
  -27.6459  -13.2296   19.8540 C   0  0  2  0  0  0
  -28.6999  -13.0784   20.9757 C   0  0  0  0  0  0
  -25.2512  -13.8194   20.5595 C   0  0  0  0  0  0
  -24.1794  -13.0496   20.9102 C   0  0  0  0  0  0
  -24.6398  -11.6955   20.8662 C   0  0  0  0  0  0
  -23.9136  -10.4299   21.0364 C   0  0  0  0  0  0
  -24.3705   -9.4209   21.9123 C   0  0  0  0  0  0
  -23.6356   -8.2220   22.0664 C   0  0  0  0  0  0
  -22.4323   -8.0282   21.3430 C   0  0  0  0  0  0
  -21.9962   -9.0327   20.4551 C   0  0  0  0  0  0
  -22.7333  -10.2223   20.2989 C   0  0  0  0  0  0
  -21.6858   -6.0774   22.5214 C   0  0  0  0  0  0
  -21.4096   -6.5634   23.8161 C   0  0  0  0  0  0
  -21.3700   -5.6771   24.9100 C   0  0  0  0  0  0
  -21.6121   -4.3024   24.7151 C   0  0  0  0  0  0
  -21.8865   -3.8133   23.4254 C   0  0  0  0  0  0
  -21.9201   -4.6984   22.3307 C   0  0  0  0  0  0
  -22.7834  -13.5214   21.1886 C   0  0  0  0  0  0
  -22.1672   -4.2230   21.0877 F   0  0  0  0  0  0
  -21.5631   -3.4474   25.7634 F   0  0  0  0  0  0
  -30.0224  -13.3475   20.3958 N   0  0  0  0  0  0
  -26.3004  -12.9456   20.3351 N   0  0  0  0  0  0
  -25.9319  -11.6607   20.5701 N   0  0  0  0  0  0
  -22.0622  -12.8149   22.0465 N   0  0  0  0  0  0
  -25.4144  -15.1925   20.3944 N   0  0  0  0  0  0
  -31.8628  -14.6675   20.1373 O   0  0  0  0  0  0
  -21.6566   -6.8938   21.4181 O   0  0  0  0  0  0
  -22.3389  -14.5469   20.6761 O   0  0  0  0  0  0
  -24.6251  -31.8643   23.2016 C   0  0  0  0  0  0
  -25.9110  -32.4793   23.8341 C   0  0  1  0  0  0
  -27.2403  -27.3687   20.1227 C   0  0  0  0  0  0
  -25.5925  -33.8575   24.2275 N   0  0  0  0  0  0
  -23.4179  -30.4785   21.5387 C   0  0  2  0  0  0
  -24.8707  -28.9362   20.1177 C   0  0  0  0  0  0
  -22.7453  -29.4643   22.4930 C   0  0  0  0  0  0
  -18.0279  -28.1400   22.8466 C   0  0  0  0  0  0
  -24.1493  -36.7315   23.2638 C   0  0  0  0  0  0
  -25.9534  -30.8051   21.3685 C   0  0  0  0  0  0
  -26.0350  -29.4354   20.7190 C   0  0  0  0  0  0
  -27.2253  -28.6601   20.7137 C   0  0  0  0  0  0
  -26.0594  -26.9014   19.5076 C   0  0  0  0  0  0
  -24.8857  -27.6731   19.4996 C   0  0  0  0  0  0
  -23.6356  -29.8107   20.1552 C   0  0  0  0  0  0
  -25.4114  -36.3103   24.0339 C   0  0  1  0  0  0
  -20.5873  -28.3720   23.1285 C   0  0  2  0  0  0
  -20.6761  -26.9437   22.5414 C   0  0  0  0  0  0
  -19.5753  -26.6388   21.5198 C   0  0  0  0  0  0
  -18.1936  -26.7932   22.1596 C   0  0  0  0  0  0
  -19.1528  -28.8873   23.2870 C   0  0  0  0  0  0
  -18.9449  -30.1463   23.8900 C   0  0  0  0  0  0
  -17.6453  -30.6599   24.0566 C   0  0  0  0  0  0
  -25.9052  -34.9471   23.5121 C   0  0  0  0  0  0
  -16.5347  -29.9106   23.6326 C   0  0  0  0  0  0
  -16.7259  -28.6526   23.0339 C   0  0  0  0  0  0
  -26.4500  -31.6580   25.0692 C   0  0  0  0  0  0
  -25.3684  -31.3748   26.1364 C   0  0  0  0  0  0
  -27.0380  -30.3003   24.6186 C   0  0  0  0  0  0
  -27.6082  -32.4295   25.7467 C   0  0  0  0  0  0
  -27.5578  -37.1819   24.8455 C   0  0  0  0  0  0
  -21.4176  -29.3063   22.3650 N   0  0  0  0  0  0
  -26.4286  -37.3786   23.9407 N   0  0  0  0  0  0
  -24.6831  -31.0653   22.0958 N   0  0  0  0  0  0
  -23.4184  -28.8167   23.2987 O   0  0  0  0  0  0
  -28.3710  -26.5596   20.1383 O   0  0  0  0  0  0
  -26.5613  -34.8942   22.4678 O   0  0  0  0  0  0
  -23.5410  -32.1421   23.7330 O   0  0  0  0  0  0
  -27.7392  -20.3004   21.7319 C   0  0  0  0  0  0
  -27.2864  -19.1375   22.3844 C   0  0  0  0  0  0
  -29.6812  -19.0541   20.9329 C   0  0  0  0  0  0
  -28.9340  -20.2754   20.9751 C   0  0  0  0  0  0
  -29.2393  -17.8736   21.6135 C   0  0  0  0  0  0
  -28.0113  -17.9283   22.3207 C   0  0  0  0  0  0
  -28.8855  -24.0500   20.0529 C   0  0  0  0  0  0
  -29.3877  -21.5420   20.1980 C   0  0  0  0  0  0
  -30.1196  -16.6036   21.6624 C   0  0  0  0  0  0
  -28.1909  -25.2551   20.7714 C   0  0  0  0  0  0
  -28.8546  -22.8428   20.6766 N   0  0  0  0  0  0
  -29.9102  -15.6227   20.5892 N   0  0  0  0  0  0
  -29.4168  -24.1991   18.9530 O   0  0  0  0  0  0
  -27.3581  -16.5373   23.1161 Cl  0  0  0  0  0  0
  -31.4725  -12.4006   19.1444 H   0  0  0  0  0  0
  -30.2948  -11.3468   19.8781 H   0  0  0  0  0  0
  -29.7087  -11.7523   17.4347 H   0  0  0  0  0  0
  -29.6559  -13.4651   17.7411 H   0  0  0  0  0  0
  -27.8087  -11.3149   18.8381 H   0  0  0  0  0  0
  -27.3624  -12.6388   17.7874 H   0  0  0  0  0  0
  -27.6499  -14.2636   19.5111 H   0  0  0  0  0  0
  -28.6794  -12.0766   21.4000 H   0  0  0  0  0  0
  -28.4798  -13.7667   21.7978 H   0  0  0  0  0  0
  -25.2861   -9.5821   22.4703 H   0  0  0  0  0  0
  -24.0073   -7.4532   22.7308 H   0  0  0  0  0  0
  -21.0965   -8.8885   19.8753 H   0  0  0  0  0  0
  -22.3845  -10.9899   19.6174 H   0  0  0  0  0  0
  -21.2132   -7.6131   23.9752 H   0  0  0  0  0  0
  -21.1453   -6.0404   25.9025 H   0  0  0  0  0  0
  -22.0596   -2.7575   23.2688 H   0  0  0  0  0  0
  -22.4410  -11.9955   22.4978 H   0  0  0  0  0  0
  -21.1146  -13.1016   22.2579 H   0  0  0  0  0  0
  -24.6590  -15.8700   20.4675 H   0  0  0  0  0  0
  -26.2996  -15.6116   20.1544 H   0  0  0  0  0  0
  -26.7174  -32.5493   23.1079 H   0  0  0  0  0  0
  -25.0058  -33.9716   25.0405 H   0  0  0  0  0  0
  -22.7153  -31.3007   21.3934 H   0  0  0  0  0  0
  -23.3752  -35.9647   23.3318 H   0  0  0  0  0  0
  -24.3565  -36.8909   22.2048 H   0  0  0  0  0  0
  -23.7266  -37.6534   23.6634 H   0  0  0  0  0  0
  -26.0786  -31.5611   20.5947 H   0  0  0  0  0  0
  -26.8344  -30.8577   21.9935 H   0  0  0  0  0  0
  -28.1164  -29.0384   21.1928 H   0  0  0  0  0  0
  -26.0474  -25.9257   19.0429 H   0  0  0  0  0  0
  -23.9972  -27.2872   19.0210 H   0  0  0  0  0  0
  -23.7587  -30.5865   19.3985 H   0  0  0  0  0  0
  -22.7590  -29.2358   19.8527 H   0  0  0  0  0  0
  -25.1299  -36.1962   25.0830 H   0  0  0  0  0  0
  -20.9950  -28.3296   24.1406 H   0  0  0  0  0  0
  -20.5675  -26.2330   23.3612 H   0  0  0  0  0  0
  -21.6647  -26.7472   22.1218 H   0  0  0  0  0  0
  -19.6940  -25.6302   21.1253 H   0  0  0  0  0  0
  -19.6706  -27.3179   20.6728 H   0  0  0  0  0  0
  -17.4205  -26.6660   21.4006 H   0  0  0  0  0  0
  -18.0342  -26.0083   22.9016 H   0  0  0  0  0  0
  -19.7940  -30.7258   24.2269 H   0  0  0  0  0  0
  -17.5034  -31.6273   24.5191 H   0  0  0  0  0  0
  -15.5367  -30.3024   23.7657 H   0  0  0  0  0  0
  -15.8645  -28.0859   22.7052 H   0  0  0  0  0  0
  -24.5874  -30.7101   25.7635 H   0  0  0  0  0  0
  -24.8838  -32.2934   26.4697 H   0  0  0  0  0  0
  -25.7917  -30.8950   27.0188 H   0  0  0  0  0  0
  -26.2993  -29.6703   24.1208 H   0  0  0  0  0  0
  -27.4075  -29.7313   25.4736 H   0  0  0  0  0  0
  -27.8853  -30.4294   23.9440 H   0  0  0  0  0  0
  -27.2732  -33.3610   26.2030 H   0  0  0  0  0  0
  -28.3898  -32.6796   25.0285 H   0  0  0  0  0  0
  -28.0720  -31.8394   26.5374 H   0  0  0  0  0  0
  -28.2609  -38.0109   24.7500 H   0  0  0  0  0  0
  -28.1080  -36.2647   24.6295 H   0  0  0  0  0  0
  -27.2292  -37.1477   25.8855 H   0  0  0  0  0  0
  -20.9339  -29.8808   21.6875 H   0  0  0  0  0  0
  -26.0200  -38.2874   24.1361 H   0  0  0  0  0  0
  -27.1528  -21.2066   21.8231 H   0  0  0  0  0  0
  -26.3633  -19.1592   22.9464 H   0  0  0  0  0  0
  -30.6281  -19.0359   20.3967 H   0  0  0  0  0  0
  -29.1219  -21.3986   19.1497 H   0  0  0  0  0  0
  -30.4742  -21.5846   20.2213 H   0  0  0  0  0  0
  -29.9776  -16.1022   22.6188 H   0  0  0  0  0  0
  -31.1627  -16.9264   21.6613 H   0  0  0  0  0  0
  -28.5897  -25.3195   21.7863 H   0  0  0  0  0  0
  -27.1399  -24.9917   20.8978 H   0  0  0  0  0  0
  -28.4449  -22.8516   21.5982 H   0  0  0  0  0  0
  -29.8908  -16.0975   19.6962 H   0  0  0  0  0  0
  1 25  1  0  0  0
  1 30  2  0  0  0
  1 82  1  0  0  0
  2  3  1  0  0  0
  2 25  1  0  0  0
  2 85  1  0  0  0
  2 86  1  0  0  0
  3  4  1  0  0  0
  3 87  1  0  0  0
  3 88  1  0  0  0
  4  5  1  0  0  0
  4 89  1  0  0  0
  4 90  1  0  0  0
  5  6  1  0  0  0
  5 26  1  0  0  0
  5 91  1  0  0  0
  6 25  1  0  0  0
  6 92  1  0  0  0
  6 93  1  0  0  0
  7  8  2  0  0  0
  7 26  1  0  0  0
  7 29  1  0  0  0
  8  9  1  0  0  0
  8 22  1  0  0  0
  9 10  1  0  0  0
  9 27  2  0  0  0
 10 11  2  0  0  0
 10 15  1  0  0  0
 11 12  1  0  0  0
 11 94  1  0  0  0
 12 13  2  0  0  0
 12 95  1  0  0  0
 13 14  1  0  0  0
 13 31  1  0  0  0
 14 15  2  0  0  0
 14 96  1  0  0  0
 15 97  1  0  0  0
 16 17  2  0  0  0
 16 21  1  0  0  0
 16 31  1  0  0  0
 17 18  1  0  0  0
 17 98  1  0  0  0
 18 19  2  0  0  0
 18 99  1  0  0  0
 19 20  1  0  0  0
 19 24  1  0  0  0
 20 21  2  0  0  0
 20100  1  0  0  0
 21 23  1  0  0  0
 22 28  1  0  0  0
 22 32  2  0  0  0
 26 27  1  0  0  0
 28101  1  0  0  0
 28102  1  0  0  0
 29103  1  0  0  0
 29104  1  0  0  0
 33 34  1  0  0  0
 33 66  1  0  0  0
 33 70  2  0  0  0
 34 36  1  0  0  0
 34 59  1  0  0  0
 34105  1  0  0  0
 35 44  2  0  0  0
 35 45  1  0  0  0
 35 68  1  0  0  0
 36 56  1  0  0  0
 36106  1  0  0  0
 37 39  1  0  0  0
 37 47  1  0  0  0
 37 66  1  0  0  0
 37107  1  0  0  0
 38 43  2  0  0  0
 38 46  1  0  0  0
 38 47  1  0  0  0
 39 64  1  0  0  0
 39 67  2  0  0  0
 40 52  1  0  0  0
 40 53  2  0  0  0
 40 58  1  0  0  0
 41108  1  0  0  0
 41109  1  0  0  0
 41110  1  0  0  0
 41 48  1  0  0  0
 42 43  1  0  0  0
 42 66  1  0  0  0
 42111  1  0  0  0
 42112  1  0  0  0
 43 44  1  0  0  0
 44113  1  0  0  0
 45 46  2  0  0  0
 45114  1  0  0  0
 46115  1  0  0  0
 47116  1  0  0  0
 47117  1  0  0  0
 48 56  1  0  0  0
 48 65  1  0  0  0
 48118  1  0  0  0
 49 50  1  0  0  0
 49 53  1  0  0  0
 49 64  1  0  0  0
 49119  1  0  0  0
 50 51  1  0  0  0
 50120  1  0  0  0
 50121  1  0  0  0
 51 52  1  0  0  0
 51122  1  0  0  0
 51123  1  0  0  0
 52124  1  0  0  0
 52125  1  0  0  0
 53 54  1  0  0  0
 54 55  2  0  0  0
 54126  1  0  0  0
 55 57  1  0  0  0
 55127  1  0  0  0
 56 69  2  0  0  0
 57 58  2  0  0  0
 57128  1  0  0  0
 58129  1  0  0  0
 59 60  1  0  0  0
 59 61  1  0  0  0
 59 62  1  0  0  0
 60130  1  0  0  0
 60131  1  0  0  0
 60132  1  0  0  0
 61133  1  0  0  0
 61134  1  0  0  0
 61135  1  0  0  0
 62136  1  0  0  0
 62137  1  0  0  0
 62138  1  0  0  0
 63 65  1  0  0  0
 63139  1  0  0  0
 63140  1  0  0  0
 63141  1  0  0  0
 64142  1  0  0  0
 65143  1  0  0  0
 68 80  1  0  0  0
 71 72  2  0  0  0
 71 74  1  0  0  0
 71144  1  0  0  0
 72 76  1  0  0  0
 72145  1  0  0  0
 73 74  2  0  0  0
 73 75  1  0  0  0
 73146  1  0  0  0
 74 78  1  0  0  0
 75 76  2  0  0  0
 75 79  1  0  0  0
 76 84  1  0  0  0
 77 80  1  0  0  0
 77 81  1  0  0  0
 77 83  2  0  0  0
 78 81  1  0  0  0
 78147  1  0  0  0
 78148  1  0  0  0
 79 82  1  0  0  0
 79149  1  0  0  0
 79150  1  0  0  0
 80151  1  0  0  0
 80152  1  0  0  0
 81153  1  0  0  0
 82154  1  0  0  0
M  ISO  4   1 100  68 101  80 101  82 100
M  END
> <chiral flag>
0

> <version>
0

> <s_m_source_file>
/data/baiqing/PycharmProjects/Reinvent-master-3.2/result/LINK_invent/BTK/process_docking_weight1_custom_product_contain_oxygen_bond_distance_aromatic_linkinvent_7_9_3/rearranged_h_0044.sdf

> <i_m_source_file_index>
72

> <r_mmod_Potential_Energy-OPLS-2005>
-42.1426162719727

> <r_mmod_Stretch_Energy-OPLS-2005>
52.3514289855957

> <r_mmod_Bend_Energy-OPLS-2005>
106.488388061523

> <r_mmod_Torsional_Energy-OPLS-2005>
291.782867431641

> <r_mmod_Improper_Torsional_Energy-OPLS-2005>
15.2074031829834

> <r_mmod_Van_der_Waal_Energy-OPLS-2005>
137.412612915039

> <r_mmod_Electrostatic_Energy-OPLS-2005>
-438.147186279297

> <r_mmod_Solvation_Energy-OPLS-2005>
-237.012496948242

> <b_mmod_Minimization_Converged-OPLS-2005>
0

> <r_mmod_RMS_Derivative-OPLS-2005>
11.544056892395

$$$$
72
                    3D
 Structure written by MMmdl.
161170  0  0  1  0            999 V2000
  -30.6867  -14.4970   20.5042 C   0  0  0  0  0  0
  -30.4230  -12.2965   19.4461 C   0  0  0  0  0  0
  -29.5054  -12.4806   18.2211 C   0  0  0  0  0  0
  -28.0209  -12.3620   18.6210 C   0  0  0  0  0  0
  -27.6595  -13.2121   19.8690 C   0  0  2  0  0  0
  -28.7005  -13.0242   20.9980 C   0  0  0  0  0  0
  -25.2582  -13.8208   20.5665 C   0  0  0  0  0  0
  -24.1851  -13.0463   20.9176 C   0  0  0  0  0  0
  -24.6416  -11.6940   20.8735 C   0  0  0  0  0  0
  -23.9077  -10.4322   21.0383 C   0  0  0  0  0  0
  -24.3636   -9.4231   21.9156 C   0  0  0  0  0  0
  -23.6310   -8.2258   22.0724 C   0  0  0  0  0  0
  -22.4291   -8.0286   21.3517 C   0  0  0  0  0  0
  -21.9926   -9.0273   20.4630 C   0  0  0  0  0  0
  -22.7251  -10.2154   20.3034 C   0  0  0  0  0  0
  -21.6880   -6.0739   22.5279 C   0  0  0  0  0  0
  -21.4028   -6.5642   23.8209 C   0  0  0  0  0  0
  -21.3662   -5.6782   24.9163 C   0  0  0  0  0  0
  -21.6046   -4.3044   24.7215 C   0  0  0  0  0  0
  -21.8820   -3.8151   23.4326 C   0  0  0  0  0  0
  -21.9205   -4.6971   22.3390 C   0  0  0  0  0  0
  -22.7873  -13.5240   21.1849 C   0  0  0  0  0  0
  -22.1659   -4.2160   21.0964 F   0  0  0  0  0  0
  -21.5623   -3.4510   25.7712 F   0  0  0  0  0  0
  -30.0331  -13.3055   20.4427 N   0  0  0  0  0  0
  -26.3013  -12.9377   20.3321 N   0  0  0  0  0  0
  -25.9334  -11.6535   20.5765 N   0  0  0  0  0  0
  -22.0510  -12.8236   22.0413 N   0  0  0  0  0  0
  -25.4298  -15.1935   20.4057 N   0  0  0  0  0  0
  -31.8450  -14.6451   20.1071 O   0  0  0  0  0  0
  -21.6640   -6.8888   21.4239 O   0  0  0  0  0  0
  -22.3556  -14.5522   20.6661 O   0  0  0  0  0  0
  -24.6137  -31.8693   23.2101 C   0  0  0  0  0  0
  -25.9035  -32.4829   23.8394 C   0  0  1  0  0  0
  -27.2353  -27.4292   20.1087 C   0  0  0  0  0  0
  -25.5892  -33.8633   24.2313 N   0  0  0  0  0  0
  -23.4026  -30.4905   21.5493 C   0  0  2  0  0  0
  -24.8528  -28.9529   20.1156 C   0  0  0  0  0  0
  -22.7404  -29.4661   22.4990 C   0  0  0  0  0  0
  -18.0271  -28.1367   22.8496 C   0  0  0  0  0  0
  -24.1477  -36.7321   23.2634 C   0  0  0  0  0  0
  -25.9319  -30.8293   21.3668 C   0  0  0  0  0  0
  -26.0101  -29.4613   20.7201 C   0  0  0  0  0  0
  -27.2051  -28.7035   20.7230 C   0  0  0  0  0  0
  -26.0695  -26.9437   19.4846 C   0  0  0  0  0  0
  -24.8769  -27.6917   19.4949 C   0  0  0  0  0  0
  -23.6127  -29.8184   20.1651 C   0  0  0  0  0  0
  -25.4099  -36.3114   24.0337 C   0  0  1  0  0  0
  -20.5863  -28.3660   23.1319 C   0  0  2  0  0  0
  -20.6762  -26.9399   22.5419 C   0  0  0  0  0  0
  -19.5740  -26.6374   21.5219 C   0  0  0  0  0  0
  -18.1923  -26.7907   22.1635 C   0  0  0  0  0  0
  -19.1521  -28.8829   23.2903 C   0  0  0  0  0  0
  -18.9449  -30.1431   23.8911 C   0  0  0  0  0  0
  -17.6456  -30.6587   24.0552 C   0  0  0  0  0  0
  -25.9033  -34.9481   23.5124 C   0  0  0  0  0  0
  -16.5346  -29.9090   23.6315 C   0  0  0  0  0  0
  -16.7264  -28.6498   23.0358 C   0  0  0  0  0  0
  -26.4463  -31.6616   25.0726 C   0  0  0  0  0  0
  -25.3734  -31.3757   26.1490 C   0  0  0  0  0  0
  -27.0283  -30.3040   24.6122 C   0  0  0  0  0  0
  -27.6038  -32.4345   25.7483 C   0  0  0  0  0  0
  -27.5585  -37.1794   24.8455 C   0  0  0  0  0  0
  -21.4134  -29.3023   22.3719 N   0  0  0  0  0  0
  -26.4277  -37.3805   23.9430 N   0  0  0  0  0  0
  -24.6672  -31.0791   22.0992 N   0  0  0  0  0  0
  -23.4179  -28.8205   23.3034 O   0  0  0  0  0  0
  -28.3617  -26.6342   20.0906 O   0  0  0  0  0  0
  -26.5603  -34.8943   22.4687 O   0  0  0  0  0  0
  -23.5332  -32.1445   23.7496 O   0  0  0  0  0  0
  -30.4326  -18.1622   22.2484 C   0  0  0  0  0  0
  -30.4326  -19.3769   22.9645 C   0  0  0  0  0  0
  -29.5377  -19.3485   20.3297 C   0  0  0  0  0  0
  -29.9866  -18.1394   20.9141 C   0  0  0  0  0  0
  -29.5173  -20.5825   21.0329 C   0  0  0  0  0  0
  -29.9895  -20.5830   22.3769 C   0  0  0  0  0  0
  -27.7919  -23.6176   21.4233 C   0  0  0  0  0  0
  -27.7274  -25.0638   21.9543 C   0  0  0  0  0  0
  -30.1062  -25.3711   21.2348 C   0  0  0  0  0  0
  -30.0197  -24.0615   20.4245 C   0  0  0  0  0  0
  -28.7453  -26.0695   21.3572 C   0  0  1  0  0  0
  -28.9933  -21.8015   20.2310 C   0  0  0  0  0  0
  -30.0459  -16.8635   20.0627 C   0  0  0  0  0  0
  -28.9189  -23.1637   20.8166 N   0  0  0  0  0  0
  -29.8970  -15.5630   20.7450 N   0  0  0  0  0  0
  -26.8094  -22.8947   21.6090 O   0  0  0  0  0  0
  -30.0879  -22.0046   23.3551 Cl  0  0  0  0  0  0
  -31.4700  -12.3845   19.1525 H   0  0  0  0  0  0
  -30.3130  -11.2935   19.8628 H   0  0  0  0  0  0
  -29.7418  -11.7349   17.4596 H   0  0  0  0  0  0
  -29.6964  -13.4557   17.7671 H   0  0  0  0  0  0
  -27.8158  -11.3090   18.8163 H   0  0  0  0  0  0
  -27.3874  -12.6386   17.7780 H   0  0  0  0  0  0
  -27.6922  -14.2538   19.5535 H   0  0  0  0  0  0
  -28.6700  -12.0028   21.3779 H   0  0  0  0  0  0
  -28.4701  -13.6631   21.8520 H   0  0  0  0  0  0
  -25.2781   -9.5709   22.4731 H   0  0  0  0  0  0
  -24.0018   -7.4661   22.7439 H   0  0  0  0  0  0
  -21.0847   -8.8806   19.8963 H   0  0  0  0  0  0
  -22.3696  -10.9688   19.6145 H   0  0  0  0  0  0
  -21.2018   -7.6148   23.9714 H   0  0  0  0  0  0
  -21.1483   -6.0499   25.9060 H   0  0  0  0  0  0
  -22.0605   -2.7616   23.2816 H   0  0  0  0  0  0
  -22.4112  -11.9903   22.4817 H   0  0  0  0  0  0
  -21.1119  -13.1257   22.2604 H   0  0  0  0  0  0
  -24.6603  -15.8462   20.5098 H   0  0  0  0  0  0
  -26.2759  -15.6353   20.0685 H   0  0  0  0  0  0
  -26.7100  -32.5541   23.1165 H   0  0  0  0  0  0
  -25.0013  -33.9794   25.0434 H   0  0  0  0  0  0
  -22.6911  -31.3070   21.4082 H   0  0  0  0  0  0
  -23.3752  -35.9637   23.3261 H   0  0  0  0  0  0
  -24.3574  -36.8982   22.2056 H   0  0  0  0  0  0
  -23.7213  -37.6509   23.6674 H   0  0  0  0  0  0
  -26.0467  -31.5906   20.5940 H   0  0  0  0  0  0
  -26.8198  -30.8863   21.9846 H   0  0  0  0  0  0
  -28.0984  -29.0895   21.1929 H   0  0  0  0  0  0
  -26.0813  -25.9740   19.0077 H   0  0  0  0  0  0
  -23.9881  -27.2952   19.0237 H   0  0  0  0  0  0
  -23.7183  -30.5920   19.4040 H   0  0  0  0  0  0
  -22.7376  -29.2362   19.8694 H   0  0  0  0  0  0
  -25.1267  -36.1961   25.0827 H   0  0  0  0  0  0
  -20.9962  -28.3223   24.1436 H   0  0  0  0  0  0
  -20.5676  -26.2267   23.3605 H   0  0  0  0  0  0
  -21.6632  -26.7443   22.1205 H   0  0  0  0  0  0
  -19.6908  -25.6285   21.1246 H   0  0  0  0  0  0
  -19.6683  -27.3181   20.6744 H   0  0  0  0  0  0
  -17.4193  -26.6645   21.4043 H   0  0  0  0  0  0
  -18.0337  -26.0051   22.9035 H   0  0  0  0  0  0
  -19.7937  -30.7226   24.2306 H   0  0  0  0  0  0
  -17.5024  -31.6276   24.5145 H   0  0  0  0  0  0
  -15.5347  -30.3002   23.7632 H   0  0  0  0  0  0
  -15.8660  -28.0814   22.7081 H   0  0  0  0  0  0
  -24.5857  -30.7161   25.7840 H   0  0  0  0  0  0
  -24.8991  -32.2936   26.4969 H   0  0  0  0  0  0
  -25.8085  -30.8892   27.0228 H   0  0  0  0  0  0
  -26.2817  -29.6816   24.1175 H   0  0  0  0  0  0
  -27.4023  -29.7281   25.4598 H   0  0  0  0  0  0
  -27.8672  -30.4340   23.9284 H   0  0  0  0  0  0
  -27.2659  -33.3670   26.2021 H   0  0  0  0  0  0
  -28.3863  -32.6874   25.0315 H   0  0  0  0  0  0
  -28.0675  -31.8491   26.5434 H   0  0  0  0  0  0
  -28.2566  -38.0123   24.7560 H   0  0  0  0  0  0
  -28.1111  -36.2667   24.6189 H   0  0  0  0  0  0
  -27.2319  -37.1338   25.8855 H   0  0  0  0  0  0
  -20.9299  -29.8736   21.6928 H   0  0  0  0  0  0
  -26.0164  -38.2873   24.1474 H   0  0  0  0  0  0
  -30.8035  -17.2604   22.7140 H   0  0  0  0  0  0
  -30.7948  -19.3872   23.9825 H   0  0  0  0  0  0
  -29.2119  -19.3358   19.2975 H   0  0  0  0  0  0
  -27.9104  -24.9959   23.0257 H   0  0  0  0  0  0
  -26.7059  -25.4320   21.8625 H   0  0  0  0  0  0
  -30.8436  -26.0430   20.7940 H   0  0  0  0  0  0
  -30.4727  -25.1420   22.2379 H   0  0  0  0  0  0
  -30.9642  -23.5238   20.5059 H   0  0  0  0  0  0
  -29.8887  -24.3072   19.3692 H   0  0  0  0  0  0
  -28.8625  -26.8942   22.0625 H   0  0  0  0  0  0
  -28.0074  -21.5301   19.8511 H   0  0  0  0  0  0
  -29.6098  -21.8604   19.3332 H   0  0  0  0  0  0
  -30.9758  -16.9009   19.4915 H   0  0  0  0  0  0
  -29.2485  -16.9217   19.3194 H   0  0  0  0  0  0
  -28.9718  -15.3471   21.0815 H   0  0  0  0  0  0
  1 25  1  0  0  0
  1 30  2  0  0  0
  1 85  1  0  0  0
  2  3  1  0  0  0
  2 25  1  0  0  0
  2 88  1  0  0  0
  2 89  1  0  0  0
  3  4  1  0  0  0
  3 90  1  0  0  0
  3 91  1  0  0  0
  4  5  1  0  0  0
  4 92  1  0  0  0
  4 93  1  0  0  0
  5  6  1  0  0  0
  5 26  1  0  0  0
  5 94  1  0  0  0
  6 25  1  0  0  0
  6 95  1  0  0  0
  6 96  1  0  0  0
  7  8  2  0  0  0
  7 26  1  0  0  0
  7 29  1  0  0  0
  8  9  1  0  0  0
  8 22  1  0  0  0
  9 10  1  0  0  0
  9 27  2  0  0  0
 10 11  2  0  0  0
 10 15  1  0  0  0
 11 12  1  0  0  0
 11 97  1  0  0  0
 12 13  2  0  0  0
 12 98  1  0  0  0
 13 14  1  0  0  0
 13 31  1  0  0  0
 14 15  2  0  0  0
 14 99  1  0  0  0
 15100  1  0  0  0
 16 17  2  0  0  0
 16 21  1  0  0  0
 16 31  1  0  0  0
 17 18  1  0  0  0
 17101  1  0  0  0
 18 19  2  0  0  0
 18102  1  0  0  0
 19 20  1  0  0  0
 19 24  1  0  0  0
 20 21  2  0  0  0
 20103  1  0  0  0
 21 23  1  0  0  0
 22 28  1  0  0  0
 22 32  2  0  0  0
 26 27  1  0  0  0
 28104  1  0  0  0
 28105  1  0  0  0
 29106  1  0  0  0
 29107  1  0  0  0
 33 34  1  0  0  0
 33 66  1  0  0  0
 33 70  2  0  0  0
 34 36  1  0  0  0
 34 59  1  0  0  0
 34108  1  0  0  0
 35 44  2  0  0  0
 35 45  1  0  0  0
 35 68  1  0  0  0
 36 56  1  0  0  0
 36109  1  0  0  0
 37 39  1  0  0  0
 37 47  1  0  0  0
 37 66  1  0  0  0
 37110  1  0  0  0
 38 43  2  0  0  0
 38 46  1  0  0  0
 38 47  1  0  0  0
 39 64  1  0  0  0
 39 67  2  0  0  0
 40 52  1  0  0  0
 40 53  2  0  0  0
 40 58  1  0  0  0
 41111  1  0  0  0
 41112  1  0  0  0
 41113  1  0  0  0
 41 48  1  0  0  0
 42 43  1  0  0  0
 42 66  1  0  0  0
 42114  1  0  0  0
 42115  1  0  0  0
 43 44  1  0  0  0
 44116  1  0  0  0
 45 46  2  0  0  0
 45117  1  0  0  0
 46118  1  0  0  0
 47119  1  0  0  0
 47120  1  0  0  0
 48 56  1  0  0  0
 48 65  1  0  0  0
 48121  1  0  0  0
 49 50  1  0  0  0
 49 53  1  0  0  0
 49 64  1  0  0  0
 49122  1  0  0  0
 50 51  1  0  0  0
 50123  1  0  0  0
 50124  1  0  0  0
 51 52  1  0  0  0
 51125  1  0  0  0
 51126  1  0  0  0
 52127  1  0  0  0
 52128  1  0  0  0
 53 54  1  0  0  0
 54 55  2  0  0  0
 54129  1  0  0  0
 55 57  1  0  0  0
 55130  1  0  0  0
 56 69  2  0  0  0
 57 58  2  0  0  0
 57131  1  0  0  0
 58132  1  0  0  0
 59 60  1  0  0  0
 59 61  1  0  0  0
 59 62  1  0  0  0
 60133  1  0  0  0
 60134  1  0  0  0
 60135  1  0  0  0
 61136  1  0  0  0
 61137  1  0  0  0
 61138  1  0  0  0
 62139  1  0  0  0
 62140  1  0  0  0
 62141  1  0  0  0
 63 65  1  0  0  0
 63142  1  0  0  0
 63143  1  0  0  0
 63144  1  0  0  0
 64145  1  0  0  0
 65146  1  0  0  0
 68 81  1  0  0  0
 71 72  2  0  0  0
 71 74  1  0  0  0
 71147  1  0  0  0
 72 76  1  0  0  0
 72148  1  0  0  0
 73 74  2  0  0  0
 73 75  1  0  0  0
 73149  1  0  0  0
 74 83  1  0  0  0
 75 76  2  0  0  0
 75 82  1  0  0  0
 76 87  1  0  0  0
 77 78  1  0  0  0
 77 84  1  0  0  0
 77 86  2  0  0  0
 78 81  1  0  0  0
 78150  1  0  0  0
 78151  1  0  0  0
 79 80  1  0  0  0
 79 81  1  0  0  0
 79152  1  0  0  0
 79153  1  0  0  0
 80 84  1  0  0  0
 80154  1  0  0  0
 80155  1  0  0  0
 81156  1  0  0  0
 82 84  1  0  0  0
 82157  1  0  0  0
 82158  1  0  0  0
 83 85  1  0  0  0
 83159  1  0  0  0
 83160  1  0  0  0
 85161  1  0  0  0
M  ISO  4   1 100  68 101  81 101  85 100
M  END
> <chiral flag>
0

> <version>
0

> <s_m_source_file>
/data/baiqing/PycharmProjects/Reinvent-master-3.2/result/LINK_invent/BTK/process_docking_weight1_custom_product_contain_oxygen_bond_distance_aromatic_linkinvent_7_9_3/rearranged_h_0044.sdf

> <i_m_source_file_index>
73

> <r_mmod_Potential_Energy-OPLS-2005>
-67.7758407592773

> <r_mmod_Stretch_Energy-OPLS-2005>
43.4072380065918

> <r_mmod_Bend_Energy-OPLS-2005>
119.691688537598

> <r_mmod_Torsional_Energy-OPLS-2005>
239.763656616211

> <r_mmod_Improper_Torsional_Energy-OPLS-2005>
9.72174835205078

> <r_mmod_Van_der_Waal_Energy-OPLS-2005>
154.839263916016

> <r_mmod_Electrostatic_Energy-OPLS-2005>
-427.276580810547

> <r_mmod_Solvation_Energy-OPLS-2005>
-225.227233886719

> <b_mmod_Minimization_Converged-OPLS-2005>
0

> <r_mmod_RMS_Derivative-OPLS-2005>
3.21888637542725

$$$$
73
                    3D
 Structure written by MMmdl.
157165  0  0  1  0            999 V2000
  -30.7495  -14.5039   20.5473 C   0  0  0  0  0  0
  -30.4096  -12.3092   19.4750 C   0  0  0  0  0  0
  -29.5104  -12.4829   18.2336 C   0  0  0  0  0  0
  -28.0320  -12.3494   18.6431 C   0  0  0  0  0  0
  -27.6616  -13.2233   19.8748 C   0  0  2  0  0  0
  -28.7013  -13.0788   21.0138 C   0  0  0  0  0  0
  -25.2596  -13.8222   20.5767 C   0  0  0  0  0  0
  -24.1846  -13.0511   20.9249 C   0  0  0  0  0  0
  -24.6382  -11.6959   20.8749 C   0  0  0  0  0  0
  -23.9047  -10.4338   21.0385 C   0  0  0  0  0  0
  -24.3593   -9.4248   21.9168 C   0  0  0  0  0  0
  -23.6272   -8.2279   22.0728 C   0  0  0  0  0  0
  -22.4256   -8.0301   21.3527 C   0  0  0  0  0  0
  -21.9904   -9.0273   20.4615 C   0  0  0  0  0  0
  -22.7228  -10.2158   20.3025 C   0  0  0  0  0  0
  -21.6862   -6.0739   22.5278 C   0  0  0  0  0  0
  -21.4019   -6.5631   23.8223 C   0  0  0  0  0  0
  -21.3663   -5.6784   24.9187 C   0  0  0  0  0  0
  -21.6032   -4.3046   24.7237 C   0  0  0  0  0  0
  -21.8815   -3.8137   23.4360 C   0  0  0  0  0  0
  -21.9191   -4.6958   22.3412 C   0  0  0  0  0  0
  -22.7844  -13.5288   21.1881 C   0  0  0  0  0  0
  -22.1661   -4.2127   21.0992 F   0  0  0  0  0  0
  -21.5632   -3.4519   25.7755 F   0  0  0  0  0  0
  -30.0327  -13.3476   20.4537 N   0  0  0  0  0  0
  -26.3024  -12.9411   20.3386 N   0  0  0  0  0  0
  -25.9323  -11.6550   20.5801 N   0  0  0  0  0  0
  -22.0460  -12.8257   22.0389 N   0  0  0  0  0  0
  -25.4326  -15.1955   20.4177 N   0  0  0  0  0  0
  -31.8814  -14.5996   20.0680 O   0  0  0  0  0  0
  -21.6657   -6.8868   21.4226 O   0  0  0  0  0  0
  -22.3550  -14.5613   20.6719 O   0  0  0  0  0  0
  -24.6234  -31.8630   23.1988 C   0  0  0  0  0  0
  -25.9131  -32.4764   23.8308 C   0  0  1  0  0  0
  -27.2359  -27.3657   20.1018 C   0  0  0  0  0  0
  -25.5956  -33.8559   24.2254 N   0  0  0  0  0  0
  -23.4123  -30.4844   21.5394 C   0  0  2  0  0  0
  -24.8609  -28.9355   20.1119 C   0  0  0  0  0  0
  -22.7422  -29.4636   22.4891 C   0  0  0  0  0  0
  -18.0287  -28.1392   22.8457 C   0  0  0  0  0  0
  -24.1509  -36.7295   23.2634 C   0  0  0  0  0  0
  -25.9489  -30.8034   21.3655 C   0  0  0  0  0  0
  -26.0225  -29.4331   20.7115 C   0  0  0  0  0  0
  -27.2087  -28.6538   20.7048 C   0  0  0  0  0  0
  -26.0501  -26.9004   19.4901 C   0  0  0  0  0  0
  -24.8709  -27.6699   19.5015 C   0  0  0  0  0  0
  -23.6273  -29.8098   20.1581 C   0  0  0  0  0  0
  -25.4130  -36.3060   24.0322 C   0  0  1  0  0  0
  -20.5880  -28.3649   23.1242 C   0  0  2  0  0  0
  -20.6804  -26.9418   22.5315 C   0  0  0  0  0  0
  -19.5762  -26.6403   21.5114 C   0  0  0  0  0  0
  -18.1918  -26.7965   22.1521 C   0  0  0  0  0  0
  -19.1542  -28.8816   23.2877 C   0  0  0  0  0  0
  -18.9489  -30.1382   23.8952 C   0  0  0  0  0  0
  -17.6503  -30.6552   24.0619 C   0  0  0  0  0  0
  -25.9073  -34.9422   23.5083 C   0  0  0  0  0  0
  -16.5385  -29.9110   23.6347 C   0  0  0  0  0  0
  -16.7290  -28.6549   23.0304 C   0  0  0  0  0  0
  -26.4526  -31.6567   25.0661 C   0  0  0  0  0  0
  -25.3746  -31.3713   26.1361 C   0  0  0  0  0  0
  -27.0389  -30.2991   24.6110 C   0  0  0  0  0  0
  -27.6064  -32.4270   25.7487 C   0  0  0  0  0  0
  -27.5570  -37.1804   24.8459 C   0  0  0  0  0  0
  -21.4148  -29.3035   22.3637 N   0  0  0  0  0  0
  -26.4296  -37.3756   23.9396 N   0  0  0  0  0  0
  -24.6784  -31.0663   22.0930 N   0  0  0  0  0  0
  -23.4178  -28.8226   23.2966 O   0  0  0  0  0  0
  -28.4011  -26.6032   20.1628 O   0  0  0  0  0  0
  -26.5603  -34.8907   22.4628 O   0  0  0  0  0  0
  -23.5416  -32.1388   23.7360 O   0  0  0  0  0  0
  -29.3439  -20.7576   22.4614 C   0  0  0  0  0  0
  -30.3515  -18.5591   22.7692 C   0  0  0  0  0  0
  -29.0625  -20.4680   21.1107 C   0  0  0  0  0  0
  -30.1350  -18.2322   21.4145 C   0  0  0  0  0  0
  -29.4429  -19.1814   20.5890 C   0  0  0  0  0  0
  -29.9542  -19.8026   23.2915 C   0  0  0  0  0  0
  -28.1186  -24.0569   20.3058 C   0  0  0  0  0  0
  -29.1089  -18.8271   19.1461 C   0  0  0  0  0  0
  -28.2499  -21.5267   20.3187 C   0  0  0  0  0  0
  -30.8113  -16.9426   20.8886 C   0  0  0  0  0  0
  -28.5409  -25.3173   19.4786 C   0  0  0  0  0  0
  -28.8098  -22.8958   20.1453 N   0  0  0  0  0  0
  -30.1520  -15.6181   21.0360 N   0  0  0  0  0  0
  -27.1111  -24.1075   21.0151 O   0  0  0  0  0  0
  -30.2408  -20.1600   24.9531 Cl  0  0  0  0  0  0
  -31.4633  -12.3481   19.1959 H   0  0  0  0  0  0
  -30.2639  -11.3207   19.9142 H   0  0  0  0  0  0
  -29.7645  -11.7356   17.4827 H   0  0  0  0  0  0
  -29.6860  -13.4531   17.7660 H   0  0  0  0  0  0
  -27.8538  -11.3005   18.8764 H   0  0  0  0  0  0
  -27.3850  -12.5873   17.7999 H   0  0  0  0  0  0
  -27.6871  -14.2600   19.5394 H   0  0  0  0  0  0
  -28.6725  -12.0694   21.4254 H   0  0  0  0  0  0
  -28.4697  -13.7461   21.8454 H   0  0  0  0  0  0
  -25.2739   -9.5769   22.4740 H   0  0  0  0  0  0
  -23.9983   -7.4681   22.7452 H   0  0  0  0  0  0
  -21.0835   -8.8800   19.8911 H   0  0  0  0  0  0
  -22.3679  -10.9684   19.6118 H   0  0  0  0  0  0
  -21.2021   -7.6127   23.9745 H   0  0  0  0  0  0
  -21.1481   -6.0485   25.9094 H   0  0  0  0  0  0
  -22.0585   -2.7586   23.2867 H   0  0  0  0  0  0
  -22.4014  -11.9871   22.4744 H   0  0  0  0  0  0
  -21.1049  -13.1205   22.2553 H   0  0  0  0  0  0
  -24.6764  -15.8582   20.5457 H   0  0  0  0  0  0
  -26.2899  -15.6318   20.1022 H   0  0  0  0  0  0
  -26.7168  -32.5440   23.1037 H   0  0  0  0  0  0
  -25.0158  -33.9705   25.0429 H   0  0  0  0  0  0
  -22.7060  -31.3038   21.3910 H   0  0  0  0  0  0
  -23.3743  -35.9651   23.3298 H   0  0  0  0  0  0
  -24.3615  -36.8913   22.2043 H   0  0  0  0  0  0
  -23.7298  -37.6515   23.6668 H   0  0  0  0  0  0
  -26.0750  -31.5672   20.5963 H   0  0  0  0  0  0
  -26.8327  -30.8537   21.9901 H   0  0  0  0  0  0
  -28.1025  -29.0335   21.1812 H   0  0  0  0  0  0
  -26.0025  -25.9279   19.0207 H   0  0  0  0  0  0
  -23.9735  -27.2753   19.0450 H   0  0  0  0  0  0
  -23.7463  -30.5804   19.3976 H   0  0  0  0  0  0
  -22.7511  -29.2334   19.8589 H   0  0  0  0  0  0
  -25.1314  -36.1891   25.0811 H   0  0  0  0  0  0
  -21.0052  -28.3147   24.1326 H   0  0  0  0  0  0
  -21.6696  -26.7567   22.1124 H   0  0  0  0  0  0
  -20.5766  -26.2263   23.3506 H   0  0  0  0  0  0
  -19.6843  -25.6318   21.1129 H   0  0  0  0  0  0
  -19.6727  -27.3114   20.6574 H   0  0  0  0  0  0
  -17.4221  -26.6864   21.3847 H   0  0  0  0  0  0
  -18.0241  -25.9996   22.8801 H   0  0  0  0  0  0
  -19.7961  -30.7126   24.2420 H   0  0  0  0  0  0
  -17.5109  -31.6218   24.5304 H   0  0  0  0  0  0
  -15.5419  -30.3081   23.7649 H   0  0  0  0  0  0
  -15.8675  -28.0933   22.6957 H   0  0  0  0  0  0
  -24.5914  -30.7081   25.7674 H   0  0  0  0  0  0
  -24.8960  -32.2900   26.4752 H   0  0  0  0  0  0
  -25.8044  -30.8887   27.0147 H   0  0  0  0  0  0
  -26.2998  -29.6712   24.1106 H   0  0  0  0  0  0
  -27.4089  -29.7240   25.4619 H   0  0  0  0  0  0
  -27.8853  -30.4278   23.9347 H   0  0  0  0  0  0
  -27.2673  -33.3555   26.2082 H   0  0  0  0  0  0
  -28.3931  -32.6833   25.0384 H   0  0  0  0  0  0
  -28.0680  -31.8359   26.5408 H   0  0  0  0  0  0
  -28.2579  -38.0101   24.7479 H   0  0  0  0  0  0
  -28.1068  -36.2624   24.6325 H   0  0  0  0  0  0
  -27.2275  -37.1487   25.8857 H   0  0  0  0  0  0
  -20.9239  -29.8702   21.6885 H   0  0  0  0  0  0
  -26.0155  -38.2821   24.1393 H   0  0  0  0  0  0
  -29.0394  -21.7104   22.8732 H   0  0  0  0  0  0
  -30.8560  -17.8556   23.4135 H   0  0  0  0  0  0
  -29.6526  -19.4835   18.4672 H   0  0  0  0  0  0
  -28.0420  -18.9234   18.9544 H   0  0  0  0  0  0
  -29.3546  -17.8012   18.8829 H   0  0  0  0  0  0
  -27.2906  -21.5868   20.8386 H   0  0  0  0  0  0
  -27.9985  -21.1673   19.3216 H   0  0  0  0  0  0
  -31.7678  -16.8719   21.4102 H   0  0  0  0  0  0
  -31.1086  -17.0826   19.8495 H   0  0  0  0  0  0
  -28.0176  -25.3077   18.5233 H   0  0  0  0  0  0
  -29.5916  -25.2100   19.2143 H   0  0  0  0  0  0
  -29.6631  -22.9484   19.6038 H   0  0  0  0  0  0
  -29.2343  -15.5608   21.4576 H   0  0  0  0  0  0
  1 25  1  0  0  0
  1 30  2  0  0  0
  1 83  1  0  0  0
  2  3  1  0  0  0
  2 25  1  0  0  0
  2 86  1  0  0  0
  2 87  1  0  0  0
  3  4  1  0  0  0
  3 88  1  0  0  0
  3 89  1  0  0  0
  4  5  1  0  0  0
  4 90  1  0  0  0
  4 91  1  0  0  0
  5  6  1  0  0  0
  5 26  1  0  0  0
  5 92  1  0  0  0
  6 25  1  0  0  0
  6 93  1  0  0  0
  6 94  1  0  0  0
  7  8  2  0  0  0
  7 26  1  0  0  0
  7 29  1  0  0  0
  8  9  1  0  0  0
  8 22  1  0  0  0
  9 10  1  0  0  0
  9 27  2  0  0  0
 10 11  2  0  0  0
 10 15  1  0  0  0
 11 12  1  0  0  0
 11 95  1  0  0  0
 12 13  2  0  0  0
 12 96  1  0  0  0
 13 14  1  0  0  0
 13 31  1  0  0  0
 14 15  2  0  0  0
 14 97  1  0  0  0
 15 98  1  0  0  0
 16 17  2  0  0  0
 16 21  1  0  0  0
 16 31  1  0  0  0
 17 18  1  0  0  0
 17 99  1  0  0  0
 18 19  2  0  0  0
 18100  1  0  0  0
 19 20  1  0  0  0
 19 24  1  0  0  0
 20 21  2  0  0  0
 20101  1  0  0  0
 21 23  1  0  0  0
 22 28  1  0  0  0
 22 32  2  0  0  0
 26 27  1  0  0  0
 28102  1  0  0  0
 28103  1  0  0  0
 29104  1  0  0  0
 29105  1  0  0  0
 33 34  1  0  0  0
 33 66  1  0  0  0
 33 70  2  0  0  0
 34 36  1  0  0  0
 34 59  1  0  0  0
 34106  1  0  0  0
 35 44  2  0  0  0
 35 45  1  0  0  0
 35 68  1  0  0  0
 36 56  1  0  0  0
 36107  1  0  0  0
 37 39  1  0  0  0
 37 47  1  0  0  0
 37 66  1  0  0  0
 37108  1  0  0  0
 38 43  2  0  0  0
 38 46  1  0  0  0
 38 47  1  0  0  0
 39 64  1  0  0  0
 39 67  2  0  0  0
 40 52  1  0  0  0
 40 53  2  0  0  0
 40 58  1  0  0  0
 41109  1  0  0  0
 41110  1  0  0  0
 41111  1  0  0  0
 41 48  1  0  0  0
 42 43  1  0  0  0
 42 66  1  0  0  0
 42112  1  0  0  0
 42113  1  0  0  0
 43 44  1  0  0  0
 44114  1  0  0  0
 45 46  2  0  0  0
 45115  1  0  0  0
 46116  1  0  0  0
 47117  1  0  0  0
 47118  1  0  0  0
 48 56  1  0  0  0
 48 65  1  0  0  0
 48119  1  0  0  0
 49 50  1  0  0  0
 49 53  1  0  0  0
 49 64  1  0  0  0
 49120  1  0  0  0
 50 51  1  0  0  0
 50121  1  0  0  0
 50122  1  0  0  0
 51 52  1  0  0  0
 51123  1  0  0  0
 51124  1  0  0  0
 52125  1  0  0  0
 52126  1  0  0  0
 53 54  1  0  0  0
 54 55  2  0  0  0
 54127  1  0  0  0
 55 57  1  0  0  0
 55128  1  0  0  0
 56 69  2  0  0  0
 57 58  2  0  0  0
 57129  1  0  0  0
 58130  1  0  0  0
 59 60  1  0  0  0
 59 61  1  0  0  0
 59 62  1  0  0  0
 60131  1  0  0  0
 60132  1  0  0  0
 60133  1  0  0  0
 61134  1  0  0  0
 61135  1  0  0  0
 61136  1  0  0  0
 62137  1  0  0  0
 62138  1  0  0  0
 62139  1  0  0  0
 63 65  1  0  0  0
 63140  1  0  0  0
 63141  1  0  0  0
 63142  1  0  0  0
 64143  1  0  0  0
 65144  1  0  0  0
 68 81  1  0  0  0
 71 73  2  0  0  0
 71 76  1  0  0  0
 71145  1  0  0  0
 72 74  1  0  0  0
 72 76  2  0  0  0
 72146  1  0  0  0
 73 75  1  0  0  0
 73 79  1  0  0  0
 74 75  2  0  0  0
 74 80  1  0  0  0
 75 78  1  0  0  0
 76 85  1  0  0  0
 77 81  1  0  0  0
 77 82  1  0  0  0
 77 84  2  0  0  0
 78147  1  0  0  0
 78148  1  0  0  0
 78149  1  0  0  0
 79 82  1  0  0  0
 79150  1  0  0  0
 79151  1  0  0  0
 80 83  1  0  0  0
 80152  1  0  0  0
 80153  1  0  0  0
 81154  1  0  0  0
 81155  1  0  0  0
 82156  1  0  0  0
 83157  1  0  0  0
M  ISO  4   1 100  68 101  81 101  83 100
M  END
> <chiral flag>
0

> <version>
0

> <s_m_source_file>
/data/baiqing/PycharmProjects/Reinvent-master-3.2/result/LINK_invent/BTK/process_docking_weight1_custom_product_contain_oxygen_bond_distance_aromatic_linkinvent_7_9_3/rearranged_h_0044.sdf

> <i_m_source_file_index>
74

> <r_mmod_Potential_Energy-OPLS-2005>
-122.594627380371

> <r_mmod_Stretch_Energy-OPLS-2005>
57.1148643493652

> <r_mmod_Bend_Energy-OPLS-2005>
132.615921020508

> <r_mmod_Torsional_Energy-OPLS-2005>
208.572448730469

> <r_mmod_Improper_Torsional_Energy-OPLS-2005>
5.8908429145813

> <r_mmod_Van_der_Waal_Energy-OPLS-2005>
152.186798095703

> <r_mmod_Electrostatic_Energy-OPLS-2005>
-460.876373291016

> <r_mmod_Solvation_Energy-OPLS-2005>
-244.388031005859

> <b_mmod_Minimization_Converged-OPLS-2005>
0

> <r_mmod_RMS_Derivative-OPLS-2005>
5.50729179382324

$$$$
74
                    3D
 Structure written by MMmdl.
152160  0  0  1  0            999 V2000
  -30.6582  -14.5446   20.5255 C   0  0  0  0  0  0
  -30.4394  -12.3399   19.4376 C   0  0  0  0  0  0
  -29.5108  -12.5092   18.2157 C   0  0  0  0  0  0
  -28.0325  -12.3582   18.6281 C   0  0  0  0  0  0
  -27.6667  -13.2099   19.8734 C   0  0  2  0  0  0
  -28.7094  -13.0093   20.9989 C   0  0  0  0  0  0
  -25.2628  -13.8156   20.5711 C   0  0  0  0  0  0
  -24.1866  -13.0432   20.9181 C   0  0  0  0  0  0
  -24.6409  -11.6896   20.8713 C   0  0  0  0  0  0
  -23.9076  -10.4285   21.0377 C   0  0  0  0  0  0
  -24.3607   -9.4200   21.9167 C   0  0  0  0  0  0
  -23.6265   -8.2241   22.0760 C   0  0  0  0  0  0
  -22.4244   -8.0276   21.3574 C   0  0  0  0  0  0
  -21.9893   -9.0261   20.4683 C   0  0  0  0  0  0
  -22.7240  -10.2123   20.3053 C   0  0  0  0  0  0
  -21.6858   -6.0694   22.5277 C   0  0  0  0  0  0
  -21.4021   -6.5594   23.8212 C   0  0  0  0  0  0
  -21.3670   -5.6754   24.9182 C   0  0  0  0  0  0
  -21.6054   -4.3017   24.7244 C   0  0  0  0  0  0
  -21.8821   -3.8107   23.4364 C   0  0  0  0  0  0
  -21.9201   -4.6921   22.3413 C   0  0  0  0  0  0
  -22.7892  -13.5240   21.1803 C   0  0  0  0  0  0
  -22.1666   -4.2098   21.1002 F   0  0  0  0  0  0
  -21.5633   -3.4515   25.7762 F   0  0  0  0  0  0
  -30.0368  -13.3321   20.4488 N   0  0  0  0  0  0
  -26.3059  -12.9333   20.3348 N   0  0  0  0  0  0
  -25.9334  -11.6485   20.5699 N   0  0  0  0  0  0
  -22.0488  -12.8286   22.0367 N   0  0  0  0  0  0
  -25.4327  -15.1882   20.4205 N   0  0  0  0  0  0
  -31.7882  -14.7376   20.0671 O   0  0  0  0  0  0
  -21.6639   -6.8848   21.4246 O   0  0  0  0  0  0
  -22.3613  -14.5554   20.6639 O   0  0  0  0  0  0
  -24.6173  -31.8635   23.2081 C   0  0  0  0  0  0
  -25.9053  -32.4818   23.8393 C   0  0  1  0  0  0
  -27.2393  -27.4091   20.1082 C   0  0  0  0  0  0
  -25.5886  -33.8608   24.2343 N   0  0  0  0  0  0
  -23.4127  -30.4862   21.5464 C   0  0  2  0  0  0
  -24.8647  -28.9508   20.1134 C   0  0  0  0  0  0
  -22.7464  -29.4643   22.4959 C   0  0  0  0  0  0
  -18.0286  -28.1398   22.8510 C   0  0  0  0  0  0
  -24.1483  -36.7311   23.2636 C   0  0  0  0  0  0
  -25.9428  -30.8232   21.3668 C   0  0  0  0  0  0
  -26.0249  -29.4548   20.7162 C   0  0  0  0  0  0
  -27.2183  -28.6910   20.7128 C   0  0  0  0  0  0
  -26.0658  -26.9243   19.4990 C   0  0  0  0  0  0
  -24.8833  -27.6872   19.4968 C   0  0  0  0  0  0
  -23.6251  -29.8162   20.1632 C   0  0  0  0  0  0
  -25.4094  -36.3115   24.0359 C   0  0  1  0  0  0
  -20.5889  -28.3686   23.1299 C   0  0  2  0  0  0
  -20.6766  -26.9408   22.5430 C   0  0  0  0  0  0
  -19.5740  -26.6404   21.5224 C   0  0  0  0  0  0
  -18.1920  -26.7946   22.1631 C   0  0  0  0  0  0
  -19.1539  -28.8856   23.2898 C   0  0  0  0  0  0
  -18.9456  -30.1459   23.8907 C   0  0  0  0  0  0
  -17.6456  -30.6582   24.0598 C   0  0  0  0  0  0
  -25.9025  -34.9479   23.5153 C   0  0  0  0  0  0
  -16.5346  -29.9100   23.6328 C   0  0  0  0  0  0
  -16.7275  -28.6522   23.0338 C   0  0  0  0  0  0
  -26.4465  -31.6601   25.0729 C   0  0  0  0  0  0
  -25.3731  -31.3731   26.1496 C   0  0  0  0  0  0
  -27.0279  -30.3030   24.6118 C   0  0  0  0  0  0
  -27.6066  -32.4306   25.7456 C   0  0  0  0  0  0
  -27.5601  -37.1791   24.8451 C   0  0  0  0  0  0
  -21.4181  -29.3037   22.3694 N   0  0  0  0  0  0
  -26.4283  -37.3803   23.9438 N   0  0  0  0  0  0
  -24.6758  -31.0731   22.0989 N   0  0  0  0  0  0
  -23.4207  -28.8170   23.3013 O   0  0  0  0  0  0
  -28.3505  -26.5933   20.1104 O   0  0  0  0  0  0
  -26.5595  -34.8930   22.4725 O   0  0  0  0  0  0
  -23.5353  -32.1372   23.7459 O   0  0  0  0  0  0
  -30.0886  -18.7840   19.0473 C   0  0  0  0  0  0
  -30.3209  -17.4420   19.4350 C   0  0  0  0  0  0
  -28.8976  -19.1915   21.1144 C   0  0  0  0  0  0
  -29.3596  -19.6789   19.8668 C   0  0  0  0  0  0
  -29.8319  -16.9392   20.6650 C   0  0  0  0  0  0
  -29.1288  -17.8446   21.5061 C   0  0  0  0  0  0
  -28.6558  -24.3680   21.1481 C   0  0  0  0  0  0
  -28.4153  -25.7075   21.1674 C   0  0  0  0  0  0
  -28.9006  -23.5214   19.9819 C   0  0  0  0  0  0
  -29.0247  -21.0915   19.3257 C   0  0  0  0  0  0
  -29.9125  -15.5487   21.0456 N   0  0  0  0  0  0
  -28.9003  -22.2029   20.2894 N   0  0  0  0  0  0
  -29.0877  -23.9272   18.8313 O   0  0  0  0  0  0
  -28.5018  -17.2947   23.0211 Cl  0  0  0  0  0  0
  -31.4841  -12.4490   19.1389 H   0  0  0  0  0  0
  -30.3597  -11.3328   19.8475 H   0  0  0  0  0  0
  -29.7637  -11.7782   17.4477 H   0  0  0  0  0  0
  -29.6697  -13.4898   17.7619 H   0  0  0  0  0  0
  -27.8534  -11.3017   18.8393 H   0  0  0  0  0  0
  -27.3829  -12.6179   17.7919 H   0  0  0  0  0  0
  -27.7065  -14.2541   19.5589 H   0  0  0  0  0  0
  -28.7014  -11.9726   21.3400 H   0  0  0  0  0  0
  -28.4662  -13.6099   21.8759 H   0  0  0  0  0  0
  -25.2732   -9.5656   22.4754 H   0  0  0  0  0  0
  -23.9962   -7.4640   22.7481 H   0  0  0  0  0  0
  -21.0810   -8.8799   19.9011 H   0  0  0  0  0  0
  -22.3694  -10.9660   19.6161 H   0  0  0  0  0  0
  -21.2012   -7.6086   23.9697 H   0  0  0  0  0  0
  -21.1490   -6.0484   25.9084 H   0  0  0  0  0  0
  -22.0595   -2.7556   23.2895 H   0  0  0  0  0  0
  -22.4053  -11.9966   22.4833 H   0  0  0  0  0  0
  -21.1138  -13.1420   22.2540 H   0  0  0  0  0  0
  -24.6644  -15.8356   20.5539 H   0  0  0  0  0  0
  -26.2864  -15.6427   20.1237 H   0  0  0  0  0  0
  -26.7139  -32.5544   23.1169 H   0  0  0  0  0  0
  -25.0066  -33.9747   25.0512 H   0  0  0  0  0  0
  -22.7052  -31.3047   21.4055 H   0  0  0  0  0  0
  -23.3761  -35.9623   23.3250 H   0  0  0  0  0  0
  -24.3598  -36.8956   22.2061 H   0  0  0  0  0  0
  -23.7193  -37.6491   23.6664 H   0  0  0  0  0  0
  -26.0612  -31.5820   20.5927 H   0  0  0  0  0  0
  -26.8295  -30.8783   21.9869 H   0  0  0  0  0  0
  -28.1135  -29.0725   21.1841 H   0  0  0  0  0  0
  -26.0715  -25.9446   19.0412 H   0  0  0  0  0  0
  -23.9970  -27.2933   19.0198 H   0  0  0  0  0  0
  -23.7349  -30.5851   19.3989 H   0  0  0  0  0  0
  -22.7501  -29.2333   19.8708 H   0  0  0  0  0  0
  -25.1247  -36.1987   25.0846 H   0  0  0  0  0  0
  -20.9991  -28.3258   24.1415 H   0  0  0  0  0  0
  -20.5670  -26.2285   23.3626 H   0  0  0  0  0  0
  -21.6636  -26.7443   22.1223 H   0  0  0  0  0  0
  -19.6884  -25.6318   21.1237 H   0  0  0  0  0  0
  -19.6665  -27.3221   20.6760 H   0  0  0  0  0  0
  -17.4201  -26.6722   21.4018 H   0  0  0  0  0  0
  -18.0292  -26.0067   22.9002 H   0  0  0  0  0  0
  -19.7909  -30.7304   24.2263 H   0  0  0  0  0  0
  -17.4990  -31.6250   24.5220 H   0  0  0  0  0  0
  -15.5345  -30.3019   23.7613 H   0  0  0  0  0  0
  -15.8672  -28.0859   22.7026 H   0  0  0  0  0  0
  -24.5892  -30.7071   25.7855 H   0  0  0  0  0  0
  -24.8938  -32.2899   26.4939 H   0  0  0  0  0  0
  -25.8093  -30.8924   27.0262 H   0  0  0  0  0  0
  -26.2810  -29.6800   24.1181 H   0  0  0  0  0  0
  -27.4021  -29.7257   25.4581 H   0  0  0  0  0  0
  -27.8663  -30.4316   23.9268 H   0  0  0  0  0  0
  -27.2718  -33.3601   26.2060 H   0  0  0  0  0  0
  -28.3841  -32.6866   25.0252 H   0  0  0  0  0  0
  -28.0775  -31.8417   26.5334 H   0  0  0  0  0  0
  -28.2591  -38.0123   24.7602 H   0  0  0  0  0  0
  -28.1138  -36.2675   24.6146 H   0  0  0  0  0  0
  -27.2367  -37.1299   25.8862 H   0  0  0  0  0  0
  -20.9345  -29.8806   21.6941 H   0  0  0  0  0  0
  -26.0179  -38.2877   24.1474 H   0  0  0  0  0  0
  -30.4523  -19.1178   18.0848 H   0  0  0  0  0  0
  -30.8382  -16.7956   18.7426 H   0  0  0  0  0  0
  -28.3213  -19.8318   21.7657 H   0  0  0  0  0  0
  -28.6641  -23.8809   22.1151 H   0  0  0  0  0  0
  -28.2402  -26.2195   22.1043 H   0  0  0  0  0  0
  -28.0749  -21.0174   18.7912 H   0  0  0  0  0  0
  -29.7624  -21.3575   18.5672 H   0  0  0  0  0  0
  -29.1438  -15.2395   21.6204 H   0  0  0  0  0  0
  -28.7126  -21.9572   21.2493 H   0  0  0  0  0  0
  1 25  1  0  0  0
  1 30  2  0  0  0
  1 81  1  0  0  0
  2  3  1  0  0  0
  2 25  1  0  0  0
  2 85  1  0  0  0
  2 86  1  0  0  0
  3  4  1  0  0  0
  3 87  1  0  0  0
  3 88  1  0  0  0
  4  5  1  0  0  0
  4 89  1  0  0  0
  4 90  1  0  0  0
  5  6  1  0  0  0
  5 26  1  0  0  0
  5 91  1  0  0  0
  6 25  1  0  0  0
  6 92  1  0  0  0
  6 93  1  0  0  0
  7  8  2  0  0  0
  7 26  1  0  0  0
  7 29  1  0  0  0
  8  9  1  0  0  0
  8 22  1  0  0  0
  9 10  1  0  0  0
  9 27  2  0  0  0
 10 11  2  0  0  0
 10 15  1  0  0  0
 11 12  1  0  0  0
 11 94  1  0  0  0
 12 13  2  0  0  0
 12 95  1  0  0  0
 13 14  1  0  0  0
 13 31  1  0  0  0
 14 15  2  0  0  0
 14 96  1  0  0  0
 15 97  1  0  0  0
 16 17  2  0  0  0
 16 21  1  0  0  0
 16 31  1  0  0  0
 17 18  1  0  0  0
 17 98  1  0  0  0
 18 19  2  0  0  0
 18 99  1  0  0  0
 19 20  1  0  0  0
 19 24  1  0  0  0
 20 21  2  0  0  0
 20100  1  0  0  0
 21 23  1  0  0  0
 22 28  1  0  0  0
 22 32  2  0  0  0
 26 27  1  0  0  0
 28101  1  0  0  0
 28102  1  0  0  0
 29103  1  0  0  0
 29104  1  0  0  0
 33 34  1  0  0  0
 33 66  1  0  0  0
 33 70  2  0  0  0
 34 36  1  0  0  0
 34 59  1  0  0  0
 34105  1  0  0  0
 35 44  2  0  0  0
 35 45  1  0  0  0
 35 68  1  0  0  0
 36 56  1  0  0  0
 36106  1  0  0  0
 37 39  1  0  0  0
 37 47  1  0  0  0
 37 66  1  0  0  0
 37107  1  0  0  0
 38 43  2  0  0  0
 38 46  1  0  0  0
 38 47  1  0  0  0
 39 64  1  0  0  0
 39 67  2  0  0  0
 40 52  1  0  0  0
 40 53  2  0  0  0
 40 58  1  0  0  0
 41108  1  0  0  0
 41109  1  0  0  0
 41110  1  0  0  0
 41 48  1  0  0  0
 42 43  1  0  0  0
 42 66  1  0  0  0
 42111  1  0  0  0
 42112  1  0  0  0
 43 44  1  0  0  0
 44113  1  0  0  0
 45 46  2  0  0  0
 45114  1  0  0  0
 46115  1  0  0  0
 47116  1  0  0  0
 47117  1  0  0  0
 48 56  1  0  0  0
 48 65  1  0  0  0
 48118  1  0  0  0
 49 50  1  0  0  0
 49 53  1  0  0  0
 49 64  1  0  0  0
 49119  1  0  0  0
 50 51  1  0  0  0
 50120  1  0  0  0
 50121  1  0  0  0
 51 52  1  0  0  0
 51122  1  0  0  0
 51123  1  0  0  0
 52124  1  0  0  0
 52125  1  0  0  0
 53 54  1  0  0  0
 54 55  2  0  0  0
 54126  1  0  0  0
 55 57  1  0  0  0
 55127  1  0  0  0
 56 69  2  0  0  0
 57 58  2  0  0  0
 57128  1  0  0  0
 58129  1  0  0  0
 59 60  1  0  0  0
 59 61  1  0  0  0
 59 62  1  0  0  0
 60130  1  0  0  0
 60131  1  0  0  0
 60132  1  0  0  0
 61133  1  0  0  0
 61134  1  0  0  0
 61135  1  0  0  0
 62136  1  0  0  0
 62137  1  0  0  0
 62138  1  0  0  0
 63 65  1  0  0  0
 63139  1  0  0  0
 63140  1  0  0  0
 63141  1  0  0  0
 64142  1  0  0  0
 65143  1  0  0  0
 68 78  1  0  0  0
 71 72  2  0  0  0
 71 74  1  0  0  0
 71144  1  0  0  0
 72 75  1  0  0  0
 72145  1  0  0  0
 73 74  2  0  0  0
 73 76  1  0  0  0
 73146  1  0  0  0
 74 80  1  0  0  0
 75 76  2  0  0  0
 75 81  1  0  0  0
 76 84  1  0  0  0
 77 78  2  0  0  0
 77 79  1  0  0  0
 77147  1  0  0  0
 78148  1  0  0  0
 79 82  1  0  0  0
 79 83  2  0  0  0
 80 82  1  0  0  0
 80149  1  0  0  0
 80150  1  0  0  0
 81151  1  0  0  0
 82152  1  0  0  0
M  ISO  4   1 100  68 101  78 101  81 100
M  END
> <chiral flag>
0

> <version>
0

> <s_m_source_file>
/data/baiqing/PycharmProjects/Reinvent-master-3.2/result/LINK_invent/BTK/process_docking_weight1_custom_product_contain_oxygen_bond_distance_aromatic_linkinvent_7_9_3/rearranged_h_0044.sdf

> <i_m_source_file_index>
75

> <r_mmod_Potential_Energy-OPLS-2005>
-135.144515991211

> <r_mmod_Stretch_Energy-OPLS-2005>
44.1744422912598

> <r_mmod_Bend_Energy-OPLS-2005>
113.562805175781

> <r_mmod_Torsional_Energy-OPLS-2005>
235.34765625

> <r_mmod_Improper_Torsional_Energy-OPLS-2005>
4.21426391601562

> <r_mmod_Van_der_Waal_Energy-OPLS-2005>
141.469421386719

> <r_mmod_Electrostatic_Energy-OPLS-2005>
-460.499572753906

> <r_mmod_Solvation_Energy-OPLS-2005>
-235.421844482422

> <b_mmod_Minimization_Converged-OPLS-2005>
0

> <r_mmod_RMS_Derivative-OPLS-2005>
3.94262623786926

$$$$
75
                    3D
 Structure written by MMmdl.
161170  0  0  1  0            999 V2000
  -30.6084  -14.7287   20.4946 C   0  0  0  0  0  0
  -30.4418  -12.4483   19.4881 C   0  0  0  0  0  0
  -29.5228  -12.5260   18.2471 C   0  0  0  0  0  0
  -28.0476  -12.3507   18.6516 C   0  0  0  0  0  0
  -27.6546  -13.2309   19.8672 C   0  0  2  0  0  0
  -28.6942  -13.1321   21.0072 C   0  0  0  0  0  0
  -25.2572  -13.8197   20.5699 C   0  0  0  0  0  0
  -24.1847  -13.0446   20.9180 C   0  0  0  0  0  0
  -24.6426  -11.6918   20.8735 C   0  0  0  0  0  0
  -23.9097  -10.4305   21.0404 C   0  0  0  0  0  0
  -24.3636   -9.4215   21.9185 C   0  0  0  0  0  0
  -23.6298   -8.2261   22.0767 C   0  0  0  0  0  0
  -22.4281   -8.0307   21.3550 C   0  0  0  0  0  0
  -21.9915   -9.0290   20.4661 C   0  0  0  0  0  0
  -22.7255  -10.2164   20.3062 C   0  0  0  0  0  0
  -21.6867   -6.0743   22.5275 C   0  0  0  0  0  0
  -21.4016   -6.5641   23.8204 C   0  0  0  0  0  0
  -21.3654   -5.6797   24.9166 C   0  0  0  0  0  0
  -21.6043   -4.3064   24.7213 C   0  0  0  0  0  0
  -21.8821   -3.8145   23.4336 C   0  0  0  0  0  0
  -21.9191   -4.6969   22.3389 C   0  0  0  0  0  0
  -22.7863  -13.5241   21.1822 C   0  0  0  0  0  0
  -22.1661   -4.2150   21.0964 F   0  0  0  0  0  0
  -21.5625   -3.4532   25.7726 F   0  0  0  0  0  0
  -30.0038  -13.4914   20.4476 N   0  0  0  0  0  0
  -26.3013  -12.9407   20.3338 N   0  0  0  0  0  0
  -25.9372  -11.6545   20.5764 N   0  0  0  0  0  0
  -22.0500  -12.8246   22.0384 N   0  0  0  0  0  0
  -25.4294  -15.1921   20.4134 N   0  0  0  0  0  0
  -31.7539  -14.8689   20.0594 O   0  0  0  0  0  0
  -21.6655   -6.8895   21.4244 O   0  0  0  0  0  0
  -22.3551  -14.5535   20.6659 O   0  0  0  0  0  0
  -24.6321  -31.8536   23.2009 C   0  0  0  0  0  0
  -25.9150  -32.4749   23.8341 C   0  0  1  0  0  0
  -27.2021  -27.2436   20.1425 C   0  0  0  0  0  0
  -25.5941  -33.8553   24.2262 N   0  0  0  0  0  0
  -23.4306  -30.4791   21.5416 C   0  0  2  0  0  0
  -24.8801  -28.9415   20.0963 C   0  0  0  0  0  0
  -22.7509  -29.4582   22.4866 C   0  0  0  0  0  0
  -18.0293  -28.1401   22.8465 C   0  0  0  0  0  0
  -24.1493  -36.7285   23.2640 C   0  0  0  0  0  0
  -25.9788  -30.7610   21.3903 C   0  0  0  0  0  0
  -26.0491  -29.3865   20.7279 C   0  0  0  0  0  0
  -27.2129  -28.5477   20.7475 C   0  0  0  0  0  0
  -26.0314  -26.9078   19.4220 C   0  0  0  0  0  0
  -24.8806  -27.7140   19.4245 C   0  0  0  0  0  0
  -23.6506  -29.8265   20.1519 C   0  0  0  0  0  0
  -25.4120  -36.3061   24.0318 C   0  0  1  0  0  0
  -20.5899  -28.3704   23.1253 C   0  0  2  0  0  0
  -20.6784  -26.9416   22.5394 C   0  0  0  0  0  0
  -19.5767  -26.6376   21.5198 C   0  0  0  0  0  0
  -18.1944  -26.7932   22.1609 C   0  0  0  0  0  0
  -19.1546  -28.8873   23.2853 C   0  0  0  0  0  0
  -18.9465  -30.1466   23.8886 C   0  0  0  0  0  0
  -17.6468  -30.6594   24.0567 C   0  0  0  0  0  0
  -25.9054  -34.9432   23.5092 C   0  0  0  0  0  0
  -16.5363  -29.9092   23.6344 C   0  0  0  0  0  0
  -16.7273  -28.6516   23.0348 C   0  0  0  0  0  0
  -26.4511  -31.6579   25.0740 C   0  0  0  0  0  0
  -25.3727  -31.3758   26.1459 C   0  0  0  0  0  0
  -27.0367  -30.2981   24.6274 C   0  0  0  0  0  0
  -27.6060  -32.4324   25.7518 C   0  0  0  0  0  0
  -27.5573  -37.1805   24.8460 C   0  0  0  0  0  0
  -21.4205  -29.3048   22.3621 N   0  0  0  0  0  0
  -26.4293  -37.3758   23.9386 N   0  0  0  0  0  0
  -24.6987  -31.0489   22.1008 N   0  0  0  0  0  0
  -23.4187  -28.8100   23.2957 O   0  0  0  0  0  0
  -28.2358  -26.2780   20.2832 O   0  0  0  0  0  0
  -26.5621  -34.8907   22.4656 O   0  0  0  0  0  0
  -23.5462  -32.1372   23.7287 O   0  0  0  0  0  0
  -29.0087  -18.3651   18.3018 C   0  0  0  0  0  0
  -29.3358  -17.1659   18.9582 C   0  0  0  0  0  0
  -29.0555  -19.6187   18.9501 C   0  0  0  0  0  0
  -29.4281  -19.7138   20.3184 C   0  0  0  0  0  0
  -29.7014  -17.1492   20.3186 C   0  0  0  0  0  0
  -29.7269  -18.4445   20.9919 C   0  0  0  0  0  0
  -28.9916  -23.6739   20.4382 C   0  0  0  0  0  0
  -26.2271  -23.0316   21.0041 C   0  0  0  0  0  0
  -26.7225  -24.4580   21.2702 C   0  0  0  0  0  0
  -27.3305  -22.0072   21.3024 C   0  0  0  0  0  0
  -27.8530  -24.8034   20.2705 C   0  0  1  0  0  0
  -28.7202  -20.8472   18.1204 C   0  0  0  0  0  0
  -29.6225  -21.1669   20.9754 C   0  0  0  0  0  0
  -28.6628  -22.3492   20.7725 N   0  0  0  0  0  0
  -29.8824  -15.8177   20.9472 N   0  0  0  0  0  0
  -30.1623  -23.9969   20.2144 O   0  0  0  0  0  0
  -30.1450  -18.4602   22.6691 Cl  0  0  0  0  0  0
  -31.4852  -12.5722   19.1923 H   0  0  0  0  0  0
  -30.3830  -11.4622   19.9515 H   0  0  0  0  0  0
  -29.8064  -11.7643   17.5208 H   0  0  0  0  0  0
  -29.6562  -13.4894   17.7498 H   0  0  0  0  0  0
  -27.8983  -11.2970   18.8942 H   0  0  0  0  0  0
  -27.3957  -12.5622   17.8032 H   0  0  0  0  0  0
  -27.6609  -14.2614   19.5095 H   0  0  0  0  0  0
  -28.7206  -12.1205   21.4142 H   0  0  0  0  0  0
  -28.4261  -13.7870   21.8371 H   0  0  0  0  0  0
  -25.2788   -9.5691   22.4762 H   0  0  0  0  0  0
  -23.9996   -7.4650   22.7502 H   0  0  0  0  0  0
  -21.0835   -8.8830   19.8981 H   0  0  0  0  0  0
  -22.3719  -10.9709   19.6180 H   0  0  0  0  0  0
  -21.2024   -7.6149   23.9706 H   0  0  0  0  0  0
  -21.1469   -6.0528   25.9071 H   0  0  0  0  0  0
  -22.0607   -2.7602   23.2842 H   0  0  0  0  0  0
  -22.4076  -11.9887   22.4762 H   0  0  0  0  0  0
  -21.1146  -13.1348   22.2622 H   0  0  0  0  0  0
  -24.6658  -15.8501   20.5282 H   0  0  0  0  0  0
  -26.2831  -15.6303   20.0929 H   0  0  0  0  0  0
  -26.7217  -32.5388   23.1077 H   0  0  0  0  0  0
  -25.0097  -33.9686   25.0412 H   0  0  0  0  0  0
  -22.7300  -31.3038   21.4008 H   0  0  0  0  0  0
  -23.3730  -35.9644   23.3328 H   0  0  0  0  0  0
  -24.3575  -36.8877   22.2047 H   0  0  0  0  0  0
  -23.7275  -37.6507   23.6651 H   0  0  0  0  0  0
  -26.1267  -31.5243   20.6251 H   0  0  0  0  0  0
  -26.8537  -30.8036   22.0267 H   0  0  0  0  0  0
  -28.0926  -28.8661   21.2898 H   0  0  0  0  0  0
  -25.9526  -25.9784   18.8824 H   0  0  0  0  0  0
  -23.9985  -27.3840   18.8939 H   0  0  0  0  0  0
  -23.7732  -30.6110   19.4036 H   0  0  0  0  0  0
  -22.7698  -29.2608   19.8424 H   0  0  0  0  0  0
  -25.1302  -36.1921   25.0810 H   0  0  0  0  0  0
  -20.9998  -28.3302   24.1377 H   0  0  0  0  0  0
  -20.5685  -26.2311   23.3597 H   0  0  0  0  0  0
  -21.6653  -26.7430   22.1206 H   0  0  0  0  0  0
  -19.6928  -25.6282   21.1239 H   0  0  0  0  0  0
  -19.6719  -27.3174   20.6725 H   0  0  0  0  0  0
  -17.4204  -26.6661   21.4026 H   0  0  0  0  0  0
  -18.0351  -26.0088   22.9022 H   0  0  0  0  0  0
  -19.7943  -30.7276   24.2249 H   0  0  0  0  0  0
  -17.5027  -31.6278   24.5157 H   0  0  0  0  0  0
  -15.5366  -30.2996   23.7673 H   0  0  0  0  0  0
  -15.8666  -28.0831   22.7075 H   0  0  0  0  0  0
  -24.5889  -30.7125   25.7784 H   0  0  0  0  0  0
  -24.8948  -32.2952   26.4857 H   0  0  0  0  0  0
  -25.8033  -30.8941   27.0249 H   0  0  0  0  0  0
  -26.2980  -29.6719   24.1268 H   0  0  0  0  0  0
  -27.3980  -29.7262   25.4829 H   0  0  0  0  0  0
  -27.8881  -30.4223   23.9583 H   0  0  0  0  0  0
  -27.2657  -33.3613   26.2109 H   0  0  0  0  0  0
  -28.3877  -32.6904   25.0359 H   0  0  0  0  0  0
  -28.0733  -31.8447   26.5432 H   0  0  0  0  0  0
  -28.2606  -38.0085   24.7465 H   0  0  0  0  0  0
  -28.1051  -36.2611   24.6340 H   0  0  0  0  0  0
  -27.2280  -37.1520   25.8863 H   0  0  0  0  0  0
  -20.9376  -29.8798   21.6860 H   0  0  0  0  0  0
  -26.0169  -38.2830   24.1380 H   0  0  0  0  0  0
  -28.7180  -18.3148   17.2615 H   0  0  0  0  0  0
  -29.2654  -16.2433   18.4008 H   0  0  0  0  0  0
  -25.9084  -22.9348   19.9642 H   0  0  0  0  0  0
  -25.3467  -22.8140   21.6109 H   0  0  0  0  0  0
  -27.0816  -24.5485   22.2960 H   0  0  0  0  0  0
  -25.8709  -25.1300   21.1997 H   0  0  0  0  0  0
  -27.0209  -21.0282   20.9342 H   0  0  0  0  0  0
  -27.4208  -21.9058   22.3854 H   0  0  0  0  0  0
  -27.4943  -24.6083   19.2610 H   0  0  0  0  0  0
  -28.5942  -20.6014   17.0661 H   0  0  0  0  0  0
  -29.5134  -21.5914   18.1834 H   0  0  0  0  0  0
  -27.7862  -21.2967   18.4563 H   0  0  0  0  0  0
  -30.6205  -21.4865   20.6766 H   0  0  0  0  0  0
  -29.7051  -21.0379   22.0541 H   0  0  0  0  0  0
  -29.1301  -15.5630   21.5703 H   0  0  0  0  0  0
  1 25  1  0  0  0
  1 30  2  0  0  0
  1 85  1  0  0  0
  2  3  1  0  0  0
  2 25  1  0  0  0
  2 88  1  0  0  0
  2 89  1  0  0  0
  3  4  1  0  0  0
  3 90  1  0  0  0
  3 91  1  0  0  0
  4  5  1  0  0  0
  4 92  1  0  0  0
  4 93  1  0  0  0
  5  6  1  0  0  0
  5 26  1  0  0  0
  5 94  1  0  0  0
  6 25  1  0  0  0
  6 95  1  0  0  0
  6 96  1  0  0  0
  7  8  2  0  0  0
  7 26  1  0  0  0
  7 29  1  0  0  0
  8  9  1  0  0  0
  8 22  1  0  0  0
  9 10  1  0  0  0
  9 27  2  0  0  0
 10 11  2  0  0  0
 10 15  1  0  0  0
 11 12  1  0  0  0
 11 97  1  0  0  0
 12 13  2  0  0  0
 12 98  1  0  0  0
 13 14  1  0  0  0
 13 31  1  0  0  0
 14 15  2  0  0  0
 14 99  1  0  0  0
 15100  1  0  0  0
 16 17  2  0  0  0
 16 21  1  0  0  0
 16 31  1  0  0  0
 17 18  1  0  0  0
 17101  1  0  0  0
 18 19  2  0  0  0
 18102  1  0  0  0
 19 20  1  0  0  0
 19 24  1  0  0  0
 20 21  2  0  0  0
 20103  1  0  0  0
 21 23  1  0  0  0
 22 28  1  0  0  0
 22 32  2  0  0  0
 26 27  1  0  0  0
 28104  1  0  0  0
 28105  1  0  0  0
 29106  1  0  0  0
 29107  1  0  0  0
 33 34  1  0  0  0
 33 66  1  0  0  0
 33 70  2  0  0  0
 34 36  1  0  0  0
 34 59  1  0  0  0
 34108  1  0  0  0
 35 44  2  0  0  0
 35 45  1  0  0  0
 35 68  1  0  0  0
 36 56  1  0  0  0
 36109  1  0  0  0
 37 39  1  0  0  0
 37 47  1  0  0  0
 37 66  1  0  0  0
 37110  1  0  0  0
 38 43  2  0  0  0
 38 46  1  0  0  0
 38 47  1  0  0  0
 39 64  1  0  0  0
 39 67  2  0  0  0
 40 52  1  0  0  0
 40 53  2  0  0  0
 40 58  1  0  0  0
 41111  1  0  0  0
 41112  1  0  0  0
 41113  1  0  0  0
 41 48  1  0  0  0
 42 43  1  0  0  0
 42 66  1  0  0  0
 42114  1  0  0  0
 42115  1  0  0  0
 43 44  1  0  0  0
 44116  1  0  0  0
 45 46  2  0  0  0
 45117  1  0  0  0
 46118  1  0  0  0
 47119  1  0  0  0
 47120  1  0  0  0
 48 56  1  0  0  0
 48 65  1  0  0  0
 48121  1  0  0  0
 49 50  1  0  0  0
 49 53  1  0  0  0
 49 64  1  0  0  0
 49122  1  0  0  0
 50 51  1  0  0  0
 50123  1  0  0  0
 50124  1  0  0  0
 51 52  1  0  0  0
 51125  1  0  0  0
 51126  1  0  0  0
 52127  1  0  0  0
 52128  1  0  0  0
 53 54  1  0  0  0
 54 55  2  0  0  0
 54129  1  0  0  0
 55 57  1  0  0  0
 55130  1  0  0  0
 56 69  2  0  0  0
 57 58  2  0  0  0
 57131  1  0  0  0
 58132  1  0  0  0
 59 60  1  0  0  0
 59 61  1  0  0  0
 59 62  1  0  0  0
 60133  1  0  0  0
 60134  1  0  0  0
 60135  1  0  0  0
 61136  1  0  0  0
 61137  1  0  0  0
 61138  1  0  0  0
 62139  1  0  0  0
 62140  1  0  0  0
 62141  1  0  0  0
 63 65  1  0  0  0
 63142  1  0  0  0
 63143  1  0  0  0
 63144  1  0  0  0
 64145  1  0  0  0
 65146  1  0  0  0
 68 81  1  0  0  0
 71 72  2  0  0  0
 71 73  1  0  0  0
 71147  1  0  0  0
 72 75  1  0  0  0
 72148  1  0  0  0
 73 74  2  0  0  0
 73 82  1  0  0  0
 74 76  1  0  0  0
 74 83  1  0  0  0
 75 76  2  0  0  0
 75 85  1  0  0  0
 76 87  1  0  0  0
 77 81  1  0  0  0
 77 84  1  0  0  0
 77 86  2  0  0  0
 78 79  1  0  0  0
 78 80  1  0  0  0
 78149  1  0  0  0
 78150  1  0  0  0
 79 81  1  0  0  0
 79151  1  0  0  0
 79152  1  0  0  0
 80 84  1  0  0  0
 80153  1  0  0  0
 80154  1  0  0  0
 81155  1  0  0  0
 82156  1  0  0  0
 82157  1  0  0  0
 82158  1  0  0  0
 83 84  1  0  0  0
 83159  1  0  0  0
 83160  1  0  0  0
 85161  1  0  0  0
M  ISO  4   1 100  68 101  81 101  85 100
M  END
> <chiral flag>
0

> <version>
0

> <s_m_source_file>
/data/baiqing/PycharmProjects/Reinvent-master-3.2/result/LINK_invent/BTK/process_docking_weight1_custom_product_contain_oxygen_bond_distance_aromatic_linkinvent_7_9_3/rearranged_h_0044.sdf

> <i_m_source_file_index>
76

> <r_mmod_Potential_Energy-OPLS-2005>
254.194869995117

> <r_mmod_Stretch_Energy-OPLS-2005>
140.074996948242

> <r_mmod_Bend_Energy-OPLS-2005>
168.230331420898

> <r_mmod_Torsional_Energy-OPLS-2005>
271.230133056641

> <r_mmod_Improper_Torsional_Energy-OPLS-2005>
5.844801902771

> <r_mmod_Van_der_Waal_Energy-OPLS-2005>
150.192474365234

> <r_mmod_Electrostatic_Energy-OPLS-2005>
-346.175567626953

> <r_mmod_Solvation_Energy-OPLS-2005>
-232.103546142578

> <b_mmod_Minimization_Converged-OPLS-2005>
0

> <r_mmod_RMS_Derivative-OPLS-2005>
2.98550605773926

$$$$
76
                    3D
 Structure written by MMmdl.
149157  0  0  1  0            999 V2000
  -30.3818  -15.4277   20.3511 C   0  0  0  0  0  0
  -30.4338  -12.9233   19.5378 C   0  0  0  0  0  0
  -29.5433  -12.6119   18.3045 C   0  0  0  0  0  0
  -28.1026  -12.2985   18.7384 C   0  0  0  0  0  0
  -27.6056  -13.2902   19.8172 C   0  0  2  0  0  0
  -28.6284  -13.5380   20.9487 C   0  0  0  0  0  0
  -25.2363  -13.8266   20.5732 C   0  0  0  0  0  0
  -24.1738  -13.0434   20.9256 C   0  0  0  0  0  0
  -24.6420  -11.6940   20.8757 C   0  0  0  0  0  0
  -23.9120  -10.4295   21.0400 C   0  0  0  0  0  0
  -24.3657   -9.4209   21.9179 C   0  0  0  0  0  0
  -23.6332   -8.2248   22.0749 C   0  0  0  0  0  0
  -22.4305   -8.0297   21.3543 C   0  0  0  0  0  0
  -21.9952   -9.0267   20.4632 C   0  0  0  0  0  0
  -22.7290  -10.2140   20.3048 C   0  0  0  0  0  0
  -21.6862   -6.0757   22.5285 C   0  0  0  0  0  0
  -21.4011   -6.5652   23.8218 C   0  0  0  0  0  0
  -21.3658   -5.6791   24.9178 C   0  0  0  0  0  0
  -21.6048   -4.3057   24.7212 C   0  0  0  0  0  0
  -21.8824   -3.8160   23.4332 C   0  0  0  0  0  0
  -21.9197   -4.6990   22.3399 C   0  0  0  0  0  0
  -22.7752  -13.5169   21.1928 C   0  0  0  0  0  0
  -22.1665   -4.2185   21.0979 F   0  0  0  0  0  0
  -21.5636   -3.4538   25.7721 F   0  0  0  0  0  0
  -29.8425  -14.0899   20.3151 N   0  0  0  0  0  0
  -26.2800  -12.9565   20.3190 N   0  0  0  0  0  0
  -25.9353  -11.6658   20.5689 N   0  0  0  0  0  0
  -22.0429  -12.8124   22.0479 N   0  0  0  0  0  0
  -25.3978  -15.2009   20.4157 N   0  0  0  0  0  0
  -31.6068  -15.4022   20.1382 O   0  0  0  0  0  0
  -21.6656   -6.8903   21.4243 O   0  0  0  0  0  0
  -22.3419  -14.5476   20.6797 O   0  0  0  0  0  0
  -24.6752  -31.8125   23.1622 C   0  0  0  0  0  0
  -25.9383  -32.4537   23.8126 C   0  0  1  0  0  0
  -27.2185  -26.8124   20.2055 C   0  0  0  0  0  0
  -25.5997  -33.8357   24.2008 N   0  0  0  0  0  0
  -23.4952  -30.4220   21.5151 C   0  0  2  0  0  0
  -24.9502  -28.7846   20.1214 C   0  0  0  0  0  0
  -22.7725  -29.4405   22.4761 C   0  0  0  0  0  0
  -18.0321  -28.1438   22.8484 C   0  0  0  0  0  0
  -24.1472  -36.7172   23.2644 C   0  0  0  0  0  0
  -26.0707  -30.5791   21.4134 C   0  0  0  0  0  0
  -26.1361  -29.1542   20.7680 C   0  0  0  0  0  0
  -27.2612  -28.1914   20.7858 C   0  0  0  0  0  0
  -26.0084  -26.6349   19.4918 C   0  0  0  0  0  0
  -24.9187  -27.5482   19.4591 C   0  0  0  0  0  0
  -23.7437  -29.7283   20.1464 C   0  0  0  0  0  0
  -25.4125  -36.2946   24.0286 C   0  0  1  0  0  0
  -20.5952  -28.3810   23.1153 C   0  0  2  0  0  0
  -20.6783  -26.9480   22.5406 C   0  0  0  0  0  0
  -19.5759  -26.6398   21.5220 C   0  0  0  0  0  0
  -18.1950  -26.7965   22.1636 C   0  0  0  0  0  0
  -19.1591  -28.8941   23.2804 C   0  0  0  0  0  0
  -18.9495  -30.1531   23.8861 C   0  0  0  0  0  0
  -17.6485  -30.6626   24.0571 C   0  0  0  0  0  0
  -25.9115  -34.9334   23.4973 C   0  0  0  0  0  0
  -16.5374  -29.9118   23.6354 C   0  0  0  0  0  0
  -16.7306  -28.6529   23.0388 C   0  0  0  0  0  0
  -26.4591  -31.6530   25.0704 C   0  0  0  0  0  0
  -25.3687  -31.3843   26.1352 C   0  0  0  0  0  0
  -27.0480  -30.2866   24.6522 C   0  0  0  0  0  0
  -27.6071  -32.4338   25.7526 C   0  0  0  0  0  0
  -27.5559  -37.1737   24.8474 C   0  0  0  0  0  0
  -21.4379  -29.3068   22.3486 N   0  0  0  0  0  0
  -26.4261  -37.3695   23.9423 N   0  0  0  0  0  0
  -24.7699  -30.9671   22.0827 N   0  0  0  0  0  0
  -23.4206  -28.7984   23.3062 O   0  0  0  0  0  0
  -28.1782  -25.6255   20.2436 O   0  0  0  0  0  0
  -26.5740  -34.8903   22.4586 O   0  0  0  0  0  0
  -23.5798  -32.1162   23.6624 O   0  0  0  0  0  0
  -30.4992  -21.3366   19.9811 C   0  0  0  0  0  0
  -31.0813  -18.8637   19.9931 C   0  0  0  0  0  0
  -29.1272  -21.1861   20.2889 C   0  0  0  0  0  0
  -28.8441  -19.6396   20.4421 C   0  0  0  0  0  0
  -29.7877  -18.3846   20.3113 C   0  0  0  0  0  0
  -31.4117  -20.2456   19.8407 C   0  0  0  0  0  0
  -26.5654  -18.7707   19.9802 C   0  0  0  0  0  0
  -28.1465  -22.6307   20.4003 C   0  0  0  0  0  0
  -27.4639  -19.3177   20.8181 C   0  0  0  0  0  0
  -27.7919  -24.1142   20.3852 C   0  0  0  0  0  0
  -29.6051  -16.7312   20.4478 N   0  0  0  0  0  0
  -33.0525  -20.6274   19.4535 Cl  0  0  0  0  0  0
  -31.4449  -13.1461   19.1947 H   0  0  0  0  0  0
  -30.5326  -12.0409   20.1723 H   0  0  0  0  0  0
  -29.9536  -11.7772   17.7334 H   0  0  0  0  0  0
  -29.5430  -13.4727   17.6338 H   0  0  0  0  0  0
  -28.0912  -11.2838   19.1401 H   0  0  0  0  0  0
  -27.4328  -12.2958   17.8776 H   0  0  0  0  0  0
  -27.4974  -14.2373   19.2878 H   0  0  0  0  0  0
  -28.8294  -12.6285   21.5164 H   0  0  0  0  0  0
  -28.2301  -14.2657   21.6574 H   0  0  0  0  0  0
  -25.2797   -9.5696   22.4754 H   0  0  0  0  0  0
  -24.0048   -7.4634   22.7457 H   0  0  0  0  0  0
  -21.0895   -8.8786   19.8918 H   0  0  0  0  0  0
  -22.3753  -10.9687   19.6163 H   0  0  0  0  0  0
  -21.1988   -7.6158   23.9739 H   0  0  0  0  0  0
  -21.1476   -6.0514   25.9085 H   0  0  0  0  0  0
  -22.0604   -2.7630   23.2819 H   0  0  0  0  0  0
  -22.4079  -11.9782   22.4823 H   0  0  0  0  0  0
  -21.1049  -13.1121   22.2722 H   0  0  0  0  0  0
  -24.6217  -15.8447   20.5194 H   0  0  0  0  0  0
  -26.2346  -15.6446   20.0607 H   0  0  0  0  0  0
  -26.7459  -32.5058   23.0846 H   0  0  0  0  0  0
  -25.0114  -33.9391   25.0135 H   0  0  0  0  0  0
  -22.8169  -31.2582   21.3337 H   0  0  0  0  0  0
  -23.3764  -35.9474   23.3290 H   0  0  0  0  0  0
  -24.3521  -36.8838   22.2058 H   0  0  0  0  0  0
  -23.7203  -37.6340   23.6717 H   0  0  0  0  0  0
  -26.2614  -31.3025   20.6195 H   0  0  0  0  0  0
  -26.9259  -30.6425   22.0741 H   0  0  0  0  0  0
  -28.1585  -28.4769   21.3153 H   0  0  0  0  0  0
  -25.8679  -25.7004   18.9684 H   0  0  0  0  0  0
  -24.0286  -27.2636   18.9154 H   0  0  0  0  0  0
  -23.9155  -30.4908   19.3867 H   0  0  0  0  0  0
  -22.8497  -29.1930   19.8245 H   0  0  0  0  0  0
  -25.1313  -36.1733   25.0771 H   0  0  0  0  0  0
  -21.0049  -28.3448   24.1267 H   0  0  0  0  0  0
  -20.5642  -26.2457   23.3681 H   0  0  0  0  0  0
  -21.6645  -26.7438   22.1226 H   0  0  0  0  0  0
  -19.6927  -25.6288   21.1300 H   0  0  0  0  0  0
  -19.6660  -27.3159   20.6707 H   0  0  0  0  0  0
  -17.4206  -26.6724   21.4051 H   0  0  0  0  0  0
  -18.0360  -26.0098   22.9024 H   0  0  0  0  0  0
  -19.7978  -30.7368   24.2203 H   0  0  0  0  0  0
  -17.5041  -31.6303   24.5195 H   0  0  0  0  0  0
  -15.5384  -30.3016   23.7694 H   0  0  0  0  0  0
  -15.8705  -28.0836   22.7138 H   0  0  0  0  0  0
  -24.5908  -30.7135   25.7699 H   0  0  0  0  0  0
  -24.8852  -32.3071   26.4566 H   0  0  0  0  0  0
  -25.7896  -30.9192   27.0274 H   0  0  0  0  0  0
  -26.3181  -29.6544   24.1460 H   0  0  0  0  0  0
  -27.3892  -29.7235   25.5212 H   0  0  0  0  0  0
  -27.9171  -30.3991   24.0037 H   0  0  0  0  0  0
  -27.2648  -33.3728   26.1886 H   0  0  0  0  0  0
  -28.4014  -32.6721   25.0438 H   0  0  0  0  0  0
  -28.0584  -31.8598   26.5625 H   0  0  0  0  0  0
  -28.2561  -38.0046   24.7521 H   0  0  0  0  0  0
  -28.1053  -36.2564   24.6290 H   0  0  0  0  0  0
  -27.2267  -37.1395   25.8875 H   0  0  0  0  0  0
  -20.9692  -29.8729   21.6551 H   0  0  0  0  0  0
  -26.0104  -38.2752   24.1442 H   0  0  0  0  0  0
  -30.8837  -22.3362   19.8410 H   0  0  0  0  0  0
  -31.8758  -18.1449   19.8543 H   0  0  0  0  0  0
  -25.5607  -18.5393   20.3118 H   0  0  0  0  0  0
  -26.8074  -18.5489   18.9485 H   0  0  0  0  0  0
  -27.1863  -22.1784   20.6085 H   0  0  0  0  0  0
  -27.1849  -19.5288   21.8429 H   0  0  0  0  0  0
  -26.7315  -24.1835   20.5887 H   0  0  0  0  0  0
  -28.6410  -16.5027   20.6426 H   0  0  0  0  0  0
  1 25  1  0  0  0
  1 30  2  0  0  0
  1 81  1  0  0  0
  2  3  1  0  0  0
  2 25  1  0  0  0
  2 83  1  0  0  0
  2 84  1  0  0  0
  3  4  1  0  0  0
  3 85  1  0  0  0
  3 86  1  0  0  0
  4  5  1  0  0  0
  4 87  1  0  0  0
  4 88  1  0  0  0
  5  6  1  0  0  0
  5 26  1  0  0  0
  5 89  1  0  0  0
  6 25  1  0  0  0
  6 90  1  0  0  0
  6 91  1  0  0  0
  7  8  2  0  0  0
  7 26  1  0  0  0
  7 29  1  0  0  0
  8  9  1  0  0  0
  8 22  1  0  0  0
  9 10  1  0  0  0
  9 27  2  0  0  0
 10 11  2  0  0  0
 10 15  1  0  0  0
 11 12  1  0  0  0
 11 92  1  0  0  0
 12 13  2  0  0  0
 12 93  1  0  0  0
 13 14  1  0  0  0
 13 31  1  0  0  0
 14 15  2  0  0  0
 14 94  1  0  0  0
 15 95  1  0  0  0
 16 17  2  0  0  0
 16 21  1  0  0  0
 16 31  1  0  0  0
 17 18  1  0  0  0
 17 96  1  0  0  0
 18 19  2  0  0  0
 18 97  1  0  0  0
 19 20  1  0  0  0
 19 24  1  0  0  0
 20 21  2  0  0  0
 20 98  1  0  0  0
 21 23  1  0  0  0
 22 28  1  0  0  0
 22 32  2  0  0  0
 26 27  1  0  0  0
 28 99  1  0  0  0
 28100  1  0  0  0
 29101  1  0  0  0
 29102  1  0  0  0
 33 34  1  0  0  0
 33 66  1  0  0  0
 33 70  2  0  0  0
 34 36  1  0  0  0
 34 59  1  0  0  0
 34103  1  0  0  0
 35 44  2  0  0  0
 35 45  1  0  0  0
 35 68  1  0  0  0
 36 56  1  0  0  0
 36104  1  0  0  0
 37 39  1  0  0  0
 37 47  1  0  0  0
 37 66  1  0  0  0
 37105  1  0  0  0
 38 43  2  0  0  0
 38 46  1  0  0  0
 38 47  1  0  0  0
 39 64  1  0  0  0
 39 67  2  0  0  0
 40 52  1  0  0  0
 40 53  2  0  0  0
 40 58  1  0  0  0
 41106  1  0  0  0
 41107  1  0  0  0
 41108  1  0  0  0
 41 48  1  0  0  0
 42 43  1  0  0  0
 42 66  1  0  0  0
 42109  1  0  0  0
 42110  1  0  0  0
 43 44  1  0  0  0
 44111  1  0  0  0
 45 46  2  0  0  0
 45112  1  0  0  0
 46113  1  0  0  0
 47114  1  0  0  0
 47115  1  0  0  0
 48 56  1  0  0  0
 48 65  1  0  0  0
 48116  1  0  0  0
 49 50  1  0  0  0
 49 53  1  0  0  0
 49 64  1  0  0  0
 49117  1  0  0  0
 50 51  1  0  0  0
 50118  1  0  0  0
 50119  1  0  0  0
 51 52  1  0  0  0
 51120  1  0  0  0
 51121  1  0  0  0
 52122  1  0  0  0
 52123  1  0  0  0
 53 54  1  0  0  0
 54 55  2  0  0  0
 54124  1  0  0  0
 55 57  1  0  0  0
 55125  1  0  0  0
 56 69  2  0  0  0
 57 58  2  0  0  0
 57126  1  0  0  0
 58127  1  0  0  0
 59 60  1  0  0  0
 59 61  1  0  0  0
 59 62  1  0  0  0
 60128  1  0  0  0
 60129  1  0  0  0
 60130  1  0  0  0
 61131  1  0  0  0
 61132  1  0  0  0
 61133  1  0  0  0
 62134  1  0  0  0
 62135  1  0  0  0
 62136  1  0  0  0
 63 65  1  0  0  0
 63137  1  0  0  0
 63138  1  0  0  0
 63139  1  0  0  0
 64140  1  0  0  0
 65141  1  0  0  0
 68 80  1  0  0  0
 71 73  2  0  0  0
 71 76  1  0  0  0
 71142  1  0  0  0
 72 75  1  0  0  0
 72 76  2  0  0  0
 72143  1  0  0  0
 73 74  1  0  0  0
 73 78  1  0  0  0
 74 75  2  0  0  0
 74 79  1  0  0  0
 75 81  1  0  0  0
 76 82  1  0  0  0
 77 79  2  0  0  0
 77144  1  0  0  0
 77145  1  0  0  0
 78 80  2  0  0  0
 78146  1  0  0  0
 79147  1  0  0  0
 80148  1  0  0  0
 81149  1  0  0  0
M  ISO  4   1 100  68 101  80 101  81 100
M  END
> <chiral flag>
0

> <version>
0

> <s_m_source_file>
/data/baiqing/PycharmProjects/Reinvent-master-3.2/result/LINK_invent/BTK/process_docking_weight1_custom_product_contain_oxygen_bond_distance_aromatic_linkinvent_7_9_3/rearranged_h_0044.sdf

> <i_m_source_file_index>
77

> <r_mmod_Potential_Energy-OPLS-2005>
1755.16064453125

> <r_mmod_Stretch_Energy-OPLS-2005>
726.785705566406

> <r_mmod_Bend_Energy-OPLS-2005>
572.191955566406

> <r_mmod_Torsional_Energy-OPLS-2005>
241.812911987305

> <r_mmod_Improper_Torsional_Energy-OPLS-2005>
3.40467143058777

> <r_mmod_Van_der_Waal_Energy-OPLS-2005>
119.189498901367

> <r_mmod_Electrostatic_Energy-OPLS-2005>
-351.622131347656

> <r_mmod_Solvation_Energy-OPLS-2005>
-205.62712097168

> <b_mmod_Minimization_Converged-OPLS-2005>
0

> <r_mmod_RMS_Derivative-OPLS-2005>
2.62576055526733

$$$$
77
                    3D
 Structure written by MMmdl.
164173  0  0  1  0            999 V2000
  -30.6795  -14.5116   20.5592 C   0  0  0  0  0  0
  -30.4253  -12.3250   19.4372 C   0  0  0  0  0  0
  -29.5005  -12.5032   18.2159 C   0  0  0  0  0  0
  -28.0216  -12.3554   18.6262 C   0  0  0  0  0  0
  -27.6579  -13.2081   19.8702 C   0  0  2  0  0  0
  -28.6965  -13.0145   20.9970 C   0  0  0  0  0  0
  -25.2566  -13.8172   20.5674 C   0  0  0  0  0  0
  -24.1825  -13.0418   20.9191 C   0  0  0  0  0  0
  -24.6403  -11.6909   20.8738 C   0  0  0  0  0  0
  -23.9063  -10.4295   21.0393 C   0  0  0  0  0  0
  -24.3622   -9.4230   21.9173 C   0  0  0  0  0  0
  -23.6302   -8.2271   22.0748 C   0  0  0  0  0  0
  -22.4279   -8.0306   21.3551 C   0  0  0  0  0  0
  -21.9903   -9.0269   20.4639 C   0  0  0  0  0  0
  -22.7231  -10.2151   20.3038 C   0  0  0  0  0  0
  -21.6855   -6.0748   22.5283 C   0  0  0  0  0  0
  -21.4018   -6.5636   23.8223 C   0  0  0  0  0  0
  -21.3668   -5.6796   24.9182 C   0  0  0  0  0  0
  -21.6035   -4.3059   24.7231 C   0  0  0  0  0  0
  -21.8828   -3.8162   23.4351 C   0  0  0  0  0  0
  -21.9192   -4.6978   22.3402 C   0  0  0  0  0  0
  -22.7855  -13.5213   21.1854 C   0  0  0  0  0  0
  -22.1647   -4.2176   21.0981 F   0  0  0  0  0  0
  -21.5629   -3.4522   25.7731 F   0  0  0  0  0  0
  -30.0239  -13.3225   20.4434 N   0  0  0  0  0  0
  -26.2992  -12.9332   20.3318 N   0  0  0  0  0  0
  -25.9323  -11.6491   20.5759 N   0  0  0  0  0  0
  -22.0495  -12.8197   22.0420 N   0  0  0  0  0  0
  -25.4221  -15.1889   20.4088 N   0  0  0  0  0  0
  -31.8139  -14.6863   20.1092 O   0  0  0  0  0  0
  -21.6652   -6.8899   21.4246 O   0  0  0  0  0  0
  -22.3537  -14.5521   20.6727 O   0  0  0  0  0  0
  -24.6254  -31.8584   23.1965 C   0  0  0  0  0  0
  -25.9101  -32.4784   23.8327 C   0  0  1  0  0  0
  -27.2616  -27.3726   20.0614 C   0  0  0  0  0  0
  -25.5903  -33.8574   24.2249 N   0  0  0  0  0  0
  -23.4204  -30.4719   21.5426 C   0  0  2  0  0  0
  -24.8684  -28.9150   20.1239 C   0  0  0  0  0  0
  -22.7488  -29.4616   22.4986 C   0  0  0  0  0  0
  -18.0294  -28.1386   22.8496 C   0  0  0  0  0  0
  -24.1488  -36.7308   23.2641 C   0  0  0  0  0  0
  -25.9570  -30.7934   21.3613 C   0  0  0  0  0  0
  -26.0370  -29.4209   20.7109 C   0  0  0  0  0  0
  -27.2379  -28.6598   20.6692 C   0  0  0  0  0  0
  -26.0641  -26.8851   19.4949 C   0  0  0  0  0  0
  -24.8799  -27.6501   19.5123 C   0  0  0  0  0  0
  -23.6334  -29.7865   20.1663 C   0  0  0  0  0  0
  -25.4112  -36.3083   24.0327 C   0  0  1  0  0  0
  -20.5892  -28.3693   23.1306 C   0  0  2  0  0  0
  -20.6792  -26.9403   22.5447 C   0  0  0  0  0  0
  -19.5759  -26.6333   21.5274 C   0  0  0  0  0  0
  -18.1940  -26.7924   22.1672 C   0  0  0  0  0  0
  -19.1546  -28.8857   23.2895 C   0  0  0  0  0  0
  -18.9469  -30.1474   23.8888 C   0  0  0  0  0  0
  -17.6451  -30.6587   24.0561 C   0  0  0  0  0  0
  -25.9041  -34.9446   23.5076 C   0  0  0  0  0  0
  -16.5354  -29.9086   23.6332 C   0  0  0  0  0  0
  -16.7281  -28.6504   23.0342 C   0  0  0  0  0  0
  -26.4479  -31.6593   25.0701 C   0  0  0  0  0  0
  -25.3728  -31.3730   26.1442 C   0  0  0  0  0  0
  -27.0314  -30.3026   24.6130 C   0  0  0  0  0  0
  -27.6029  -32.4333   25.7477 C   0  0  0  0  0  0
  -27.5572  -37.1813   24.8463 C   0  0  0  0  0  0
  -21.4199  -29.3018   22.3694 N   0  0  0  0  0  0
  -26.4287  -37.3777   23.9392 N   0  0  0  0  0  0
  -24.6880  -31.0592   22.0920 N   0  0  0  0  0  0
  -23.4205  -28.8177   23.3094 O   0  0  0  0  0  0
  -28.4335  -26.6318   19.9154 O   0  0  0  0  0  0
  -26.5629  -34.8910   22.4652 O   0  0  0  0  0  0
  -23.5425  -32.1351   23.7296 O   0  0  0  0  0  0
  -28.4209  -17.8045   19.8742 C   0  0  0  0  0  0
  -27.7322  -18.8370   19.2065 C   0  0  0  0  0  0
  -30.2129  -19.3656   20.3848 C   0  0  0  0  0  0
  -29.6742  -18.0478   20.4734 C   0  0  0  0  0  0
  -29.5268  -20.4188   19.7038 C   0  0  0  0  0  0
  -28.2787  -20.1297   19.1087 C   0  0  0  0  0  0
  -28.9917  -24.1374   19.7291 C   0  0  0  0  0  0
  -29.8622  -24.6201   22.7698 C   0  0  0  0  0  0
  -28.7953  -23.5150   22.7941 C   0  0  0  0  0  0
  -29.7381  -25.6128   21.5983 C   0  0  0  0  0  0
  -28.8837  -22.4797   21.6531 C   0  0  0  0  0  0
  -28.5684  -25.3622   20.6238 C   0  0  1  0  0  0
  -30.1005  -21.8537   19.6179 C   0  0  0  0  0  0
  -30.4147  -16.9338   21.2552 C   0  0  0  0  0  0
  -29.3209  -22.9318   20.3129 N   0  0  0  0  0  0
  -29.9601  -15.5339   21.0770 N   0  0  0  0  0  0
  -29.1266  -24.3241   18.5156 O   0  0  0  0  0  0
  -27.3852  -21.3455   18.2638 Cl  0  0  0  0  0  0
  -31.4690  -12.4322   19.1337 H   0  0  0  0  0  0
  -30.3374  -11.3157   19.8427 H   0  0  0  0  0  0
  -29.7529  -11.7735   17.4448 H   0  0  0  0  0  0
  -29.6691  -13.4884   17.7769 H   0  0  0  0  0  0
  -27.8453  -11.2995   18.8349 H   0  0  0  0  0  0
  -27.3691  -12.6119   17.7904 H   0  0  0  0  0  0
  -27.6922  -14.2526   19.5637 H   0  0  0  0  0  0
  -28.6804  -11.9872   21.3668 H   0  0  0  0  0  0
  -28.4519  -13.6346   21.8584 H   0  0  0  0  0  0
  -25.2754   -9.5719   22.4755 H   0  0  0  0  0  0
  -24.0036   -7.4647   22.7436 H   0  0  0  0  0  0
  -21.0860   -8.8748   19.8935 H   0  0  0  0  0  0
  -22.3658  -10.9676   19.6169 H   0  0  0  0  0  0
  -21.2006   -7.6143   23.9715 H   0  0  0  0  0  0
  -21.1463   -6.0533   25.9076 H   0  0  0  0  0  0
  -22.0602   -2.7618   23.2836 H   0  0  0  0  0  0
  -22.4095  -11.9867   22.4834 H   0  0  0  0  0  0
  -21.1110  -13.1227   22.2595 H   0  0  0  0  0  0
  -24.6491  -15.8386   20.5117 H   0  0  0  0  0  0
  -26.2576  -15.6233   20.0422 H   0  0  0  0  0  0
  -26.7172  -32.5444   23.1075 H   0  0  0  0  0  0
  -25.0024  -33.9707   25.0386 H   0  0  0  0  0  0
  -22.7149  -31.2908   21.3864 H   0  0  0  0  0  0
  -23.3715  -35.9679   23.3348 H   0  0  0  0  0  0
  -24.3572  -36.8899   22.2047 H   0  0  0  0  0  0
  -23.7282  -37.6542   23.6637 H   0  0  0  0  0  0
  -26.0760  -31.5445   20.5794 H   0  0  0  0  0  0
  -26.8437  -30.8559   21.9823 H   0  0  0  0  0  0
  -28.1509  -29.0557   21.0910 H   0  0  0  0  0  0
  -26.0542  -25.9196   19.0078 H   0  0  0  0  0  0
  -23.9827  -27.2573   19.0530 H   0  0  0  0  0  0
  -23.7455  -30.5441   19.3921 H   0  0  0  0  0  0
  -22.7588  -29.1994   19.8806 H   0  0  0  0  0  0
  -25.1293  -36.1929   25.0830 H   0  0  0  0  0  0
  -20.9980  -28.3265   24.1439 H   0  0  0  0  0  0
  -20.5741  -26.2292   23.3664 H   0  0  0  0  0  0
  -21.6655  -26.7447   22.1213 H   0  0  0  0  0  0
  -19.6917  -25.6217   21.1384 H   0  0  0  0  0  0
  -19.6709  -27.3083   20.6765 H   0  0  0  0  0  0
  -17.4210  -26.6653   21.4073 H   0  0  0  0  0  0
  -18.0319  -26.0094   22.9102 H   0  0  0  0  0  0
  -19.7930  -30.7317   24.2242 H   0  0  0  0  0  0
  -17.4998  -31.6280   24.5159 H   0  0  0  0  0  0
  -15.5346  -30.2976   23.7670 H   0  0  0  0  0  0
  -15.8700  -28.0830   22.7029 H   0  0  0  0  0  0
  -24.5844  -30.7157   25.7757 H   0  0  0  0  0  0
  -24.8989  -32.2910   26.4928 H   0  0  0  0  0  0
  -25.8051  -30.8834   27.0180 H   0  0  0  0  0  0
  -26.2867  -29.6780   24.1176 H   0  0  0  0  0  0
  -27.4059  -29.7271   25.4607 H   0  0  0  0  0  0
  -27.8716  -30.4330   23.9303 H   0  0  0  0  0  0
  -27.2615  -33.3587   26.2107 H   0  0  0  0  0  0
  -28.3805  -32.6979   25.0310 H   0  0  0  0  0  0
  -28.0743  -31.8457   26.5356 H   0  0  0  0  0  0
  -28.2607  -38.0091   24.7466 H   0  0  0  0  0  0
  -28.1052  -36.2615   24.6333 H   0  0  0  0  0  0
  -27.2296  -37.1532   25.8874 H   0  0  0  0  0  0
  -20.9394  -29.8691   21.6859 H   0  0  0  0  0  0
  -26.0170  -38.2863   24.1364 H   0  0  0  0  0  0
  -27.9603  -16.8313   19.9355 H   0  0  0  0  0  0
  -26.7624  -18.6432   18.7703 H   0  0  0  0  0  0
  -31.1595  -19.5773   20.8621 H   0  0  0  0  0  0
  -30.8545  -24.1649   22.7755 H   0  0  0  0  0  0
  -29.8025  -25.1885   23.6999 H   0  0  0  0  0  0
  -27.7976  -23.9451   22.8271 H   0  0  0  0  0  0
  -28.8741  -22.9834   23.7448 H   0  0  0  0  0  0
  -30.6665  -25.5580   21.0232 H   0  0  0  0  0  0
  -29.7088  -26.6352   21.9732 H   0  0  0  0  0  0
  -27.9142  -21.9882   21.5397 H   0  0  0  0  0  0
  -29.5556  -21.6910   21.9949 H   0  0  0  0  0  0
  -27.6207  -25.1559   21.1211 H   0  0  0  0  0  0
  -30.2342  -22.0756   18.5587 H   0  0  0  0  0  0
  -31.1191  -21.8516   20.0179 H   0  0  0  0  0  0
  -30.3285  -17.1654   22.3190 H   0  0  0  0  0  0
  -31.4759  -17.0132   21.0243 H   0  0  0  0  0  0
  -29.0453  -15.2943   21.4310 H   0  0  0  0  0  0
  1 25  1  0  0  0
  1 30  2  0  0  0
  1 86  1  0  0  0
  2  3  1  0  0  0
  2 25  1  0  0  0
  2 89  1  0  0  0
  2 90  1  0  0  0
  3  4  1  0  0  0
  3 91  1  0  0  0
  3 92  1  0  0  0
  4  5  1  0  0  0
  4 93  1  0  0  0
  4 94  1  0  0  0
  5  6  1  0  0  0
  5 26  1  0  0  0
  5 95  1  0  0  0
  6 25  1  0  0  0
  6 96  1  0  0  0
  6 97  1  0  0  0
  7  8  2  0  0  0
  7 26  1  0  0  0
  7 29  1  0  0  0
  8  9  1  0  0  0
  8 22  1  0  0  0
  9 10  1  0  0  0
  9 27  2  0  0  0
 10 11  2  0  0  0
 10 15  1  0  0  0
 11 12  1  0  0  0
 11 98  1  0  0  0
 12 13  2  0  0  0
 12 99  1  0  0  0
 13 14  1  0  0  0
 13 31  1  0  0  0
 14 15  2  0  0  0
 14100  1  0  0  0
 15101  1  0  0  0
 16 17  2  0  0  0
 16 21  1  0  0  0
 16 31  1  0  0  0
 17 18  1  0  0  0
 17102  1  0  0  0
 18 19  2  0  0  0
 18103  1  0  0  0
 19 20  1  0  0  0
 19 24  1  0  0  0
 20 21  2  0  0  0
 20104  1  0  0  0
 21 23  1  0  0  0
 22 28  1  0  0  0
 22 32  2  0  0  0
 26 27  1  0  0  0
 28105  1  0  0  0
 28106  1  0  0  0
 29107  1  0  0  0
 29108  1  0  0  0
 33 34  1  0  0  0
 33 66  1  0  0  0
 33 70  2  0  0  0
 34 36  1  0  0  0
 34 59  1  0  0  0
 34109  1  0  0  0
 35 44  2  0  0  0
 35 45  1  0  0  0
 35 68  1  0  0  0
 36 56  1  0  0  0
 36110  1  0  0  0
 37 39  1  0  0  0
 37 47  1  0  0  0
 37 66  1  0  0  0
 37111  1  0  0  0
 38 43  2  0  0  0
 38 46  1  0  0  0
 38 47  1  0  0  0
 39 64  1  0  0  0
 39 67  2  0  0  0
 40 52  1  0  0  0
 40 53  2  0  0  0
 40 58  1  0  0  0
 41112  1  0  0  0
 41113  1  0  0  0
 41114  1  0  0  0
 41 48  1  0  0  0
 42 43  1  0  0  0
 42 66  1  0  0  0
 42115  1  0  0  0
 42116  1  0  0  0
 43 44  1  0  0  0
 44117  1  0  0  0
 45 46  2  0  0  0
 45118  1  0  0  0
 46119  1  0  0  0
 47120  1  0  0  0
 47121  1  0  0  0
 48 56  1  0  0  0
 48 65  1  0  0  0
 48122  1  0  0  0
 49 50  1  0  0  0
 49 53  1  0  0  0
 49 64  1  0  0  0
 49123  1  0  0  0
 50 51  1  0  0  0
 50124  1  0  0  0
 50125  1  0  0  0
 51 52  1  0  0  0
 51126  1  0  0  0
 51127  1  0  0  0
 52128  1  0  0  0
 52129  1  0  0  0
 53 54  1  0  0  0
 54 55  2  0  0  0
 54130  1  0  0  0
 55 57  1  0  0  0
 55131  1  0  0  0
 56 69  2  0  0  0
 57 58  2  0  0  0
 57132  1  0  0  0
 58133  1  0  0  0
 59 60  1  0  0  0
 59 61  1  0  0  0
 59 62  1  0  0  0
 60134  1  0  0  0
 60135  1  0  0  0
 60136  1  0  0  0
 61137  1  0  0  0
 61138  1  0  0  0
 61139  1  0  0  0
 62140  1  0  0  0
 62141  1  0  0  0
 62142  1  0  0  0
 63 65  1  0  0  0
 63143  1  0  0  0
 63144  1  0  0  0
 63145  1  0  0  0
 64146  1  0  0  0
 65147  1  0  0  0
 68 82  1  0  0  0
 71 72  2  0  0  0
 71 74  1  0  0  0
 71148  1  0  0  0
 72 76  1  0  0  0
 72149  1  0  0  0
 73 74  2  0  0  0
 73 75  1  0  0  0
 73150  1  0  0  0
 74 84  1  0  0  0
 75 76  2  0  0  0
 75 83  1  0  0  0
 76 88  1  0  0  0
 77 82  1  0  0  0
 77 85  1  0  0  0
 77 87  2  0  0  0
 78 79  1  0  0  0
 78 80  1  0  0  0
 78151  1  0  0  0
 78152  1  0  0  0
 79 81  1  0  0  0
 79153  1  0  0  0
 79154  1  0  0  0
 80 82  1  0  0  0
 80155  1  0  0  0
 80156  1  0  0  0
 81 85  1  0  0  0
 81157  1  0  0  0
 81158  1  0  0  0
 82159  1  0  0  0
 83 85  1  0  0  0
 83160  1  0  0  0
 83161  1  0  0  0
 84 86  1  0  0  0
 84162  1  0  0  0
 84163  1  0  0  0
 86164  1  0  0  0
M  ISO  4   1 100  68 101  82 101  86 100
M  END
> <chiral flag>
0

> <version>
0

> <s_m_source_file>
/data/baiqing/PycharmProjects/Reinvent-master-3.2/result/LINK_invent/BTK/process_docking_weight1_custom_product_contain_oxygen_bond_distance_aromatic_linkinvent_7_9_3/rearranged_h_0044.sdf

> <i_m_source_file_index>
78

> <r_mmod_Potential_Energy-OPLS-2005>
58.1344032287598

> <r_mmod_Stretch_Energy-OPLS-2005>
60.780345916748

> <r_mmod_Bend_Energy-OPLS-2005>
124.803550720215

> <r_mmod_Torsional_Energy-OPLS-2005>
269.607025146484

> <r_mmod_Improper_Torsional_Energy-OPLS-2005>
4.69416999816895

> <r_mmod_Van_der_Waal_Energy-OPLS-2005>
157.024261474609

> <r_mmod_Electrostatic_Energy-OPLS-2005>
-351.298828125

> <r_mmod_Solvation_Energy-OPLS-2005>
-230.021606445312

> <b_mmod_Minimization_Converged-OPLS-2005>
0

> <r_mmod_RMS_Derivative-OPLS-2005>
5.59128379821777

$$$$
78
                    3D
 Structure written by MMmdl.
167176  0  0  1  0            999 V2000
  -30.6766  -14.4381   20.4994 C   0  0  0  0  0  0
  -30.4348  -12.2642   19.3922 C   0  0  0  0  0  0
  -29.4903  -12.4602   18.1863 C   0  0  0  0  0  0
  -28.0114  -12.3294   18.6073 C   0  0  0  0  0  0
  -27.6559  -13.1784   19.8581 C   0  0  2  0  0  0
  -28.7127  -12.9777   20.9714 C   0  0  0  0  0  0
  -25.2595  -13.8042   20.5658 C   0  0  0  0  0  0
  -24.1847  -13.0379   20.9210 C   0  0  0  0  0  0
  -24.6377  -11.6836   20.8814 C   0  0  0  0  0  0
  -23.9034  -10.4251   21.0487 C   0  0  0  0  0  0
  -24.3591   -9.4139   21.9239 C   0  0  0  0  0  0
  -23.6263   -8.2165   22.0785 C   0  0  0  0  0  0
  -22.4254   -8.0236   21.3558 C   0  0  0  0  0  0
  -21.9887   -9.0224   20.4669 C   0  0  0  0  0  0
  -22.7217  -10.2116   20.3132 C   0  0  0  0  0  0
  -21.6823   -6.0687   22.5288 C   0  0  0  0  0  0
  -21.3964   -6.5621   23.8221 C   0  0  0  0  0  0
  -21.3666   -5.6780   24.9192 C   0  0  0  0  0  0
  -21.6063   -4.3046   24.7252 C   0  0  0  0  0  0
  -21.8821   -3.8114   23.4386 C   0  0  0  0  0  0
  -21.9204   -4.6918   22.3422 C   0  0  0  0  0  0
  -22.7887  -13.5230   21.1869 C   0  0  0  0  0  0
  -22.1707   -4.2095   21.1006 F   0  0  0  0  0  0
  -21.5652   -3.4553   25.7784 F   0  0  0  0  0  0
  -30.0431  -13.2487   20.3987 N   0  0  0  0  0  0
  -26.3004  -12.9167   20.3309 N   0  0  0  0  0  0
  -25.9282  -11.6364   20.5778 N   0  0  0  0  0  0
  -22.0485  -12.8306   22.0426 N   0  0  0  0  0  0
  -25.4310  -15.1755   20.4009 N   0  0  0  0  0  0
  -31.8761  -14.6280   20.2905 O   0  0  0  0  0  0
  -21.6592   -6.8826   21.4257 O   0  0  0  0  0  0
  -22.3636  -14.5554   20.6721 O   0  0  0  0  0  0
  -24.6090  -31.8686   23.2128 C   0  0  0  0  0  0
  -25.9007  -32.4820   23.8414 C   0  0  1  0  0  0
  -27.2415  -27.4790   20.1148 C   0  0  0  0  0  0
  -25.5896  -33.8624   24.2350 N   0  0  0  0  0  0
  -23.3948  -30.4871   21.5534 C   0  0  2  0  0  0
  -24.8480  -28.9602   20.1157 C   0  0  0  0  0  0
  -22.7369  -29.4621   22.5040 C   0  0  0  0  0  0
  -18.0259  -28.1361   22.8473 C   0  0  0  0  0  0
  -24.1492  -36.7326   23.2634 C   0  0  0  0  0  0
  -25.9160  -30.8542   21.3554 C   0  0  0  0  0  0
  -26.0002  -29.4901   20.7096 C   0  0  0  0  0  0
  -27.2012  -28.7556   20.7067 C   0  0  0  0  0  0
  -26.0787  -26.9502   19.5144 C   0  0  0  0  0  0
  -24.8792  -27.6880   19.5153 C   0  0  0  0  0  0
  -23.6015  -29.8146   20.1681 C   0  0  0  0  0  0
  -25.4099  -36.3116   24.0341 C   0  0  1  0  0  0
  -20.5829  -28.3617   23.1345 C   0  0  2  0  0  0
  -20.6750  -26.9363   22.5424 C   0  0  0  0  0  0
  -19.5747  -26.6370   21.5202 C   0  0  0  0  0  0
  -18.1919  -26.7908   22.1603 C   0  0  0  0  0  0
  -19.1498  -28.8813   23.2901 C   0  0  0  0  0  0
  -18.9435  -30.1425   23.8895 C   0  0  0  0  0  0
  -17.6436  -30.6565   24.0548 C   0  0  0  0  0  0
  -25.9010  -34.9468   23.5135 C   0  0  0  0  0  0
  -16.5328  -29.9050   23.6336 C   0  0  0  0  0  0
  -16.7247  -28.6481   23.0332 C   0  0  0  0  0  0
  -26.4458  -31.6550   25.0694 C   0  0  0  0  0  0
  -25.3755  -31.3688   26.1489 C   0  0  0  0  0  0
  -27.0216  -30.2967   24.6015 C   0  0  0  0  0  0
  -27.6103  -32.4204   25.7412 C   0  0  0  0  0  0
  -27.5584  -37.1807   24.8451 C   0  0  0  0  0  0
  -21.4101  -29.2990   22.3776 N   0  0  0  0  0  0
  -26.4291  -37.3787   23.9396 N   0  0  0  0  0  0
  -24.6577  -31.0835   22.1006 N   0  0  0  0  0  0
  -23.4154  -28.8179   23.3072 O   0  0  0  0  0  0
  -28.4158  -26.7715   20.1343 O   0  0  0  0  0  0
  -26.5578  -34.8904   22.4693 O   0  0  0  0  0  0
  -23.5298  -32.1425   23.7553 O   0  0  0  0  0  0
  -28.0467  -23.8976   22.4783 C   0  0  0  0  0  0
  -30.0298  -16.8045   22.3581 C   0  0  0  0  0  0
  -28.7980  -24.4484   19.8369 C   0  0  0  0  0  0
  -28.3039  -17.2263   20.6849 C   0  0  0  0  0  0
  -28.4382  -22.8313   21.6403 C   0  0  0  0  0  0
  -28.3547  -18.5634   22.7307 C   0  0  0  0  0  0
  -28.0579  -25.2314   22.0200 C   0  0  0  0  0  0
  -29.5054  -17.8411   23.1658 C   0  0  0  0  0  0
  -28.8364  -23.1224   20.3077 C   0  0  0  0  0  0
  -29.4220  -16.4944   21.1218 C   0  0  0  0  0  0
  -28.4039  -25.5058   20.6726 C   0  0  0  0  0  0
  -27.7479  -18.2337   21.4878 C   0  0  0  0  0  0
  -28.4278  -21.4423   22.1549 C   0  0  0  0  0  0
  -27.8222  -19.7067   23.5394 C   0  0  0  0  0  0
  -27.7220  -26.3340   23.0071 C   0  0  0  0  0  0
  -30.2117  -18.1646   24.4780 C   0  0  0  0  0  0
  -29.3129  -22.0402   19.3476 C   0  0  0  0  0  0
  -27.8676  -21.0309   23.2288 N   0  0  0  0  0  0
  -29.8091  -15.4312   20.2813 N   0  0  0  0  0  0
  -27.2184  -19.4176   24.6462 N   0  3  0  0  0  0
  -26.3273  -19.0326   20.8929 Cl  0  0  0  0  0  0
  -31.4757  -12.3860   19.0848 H   0  0  0  0  0  0
  -30.3499  -11.2534   19.7936 H   0  0  0  0  0  0
  -29.7183  -11.7231   17.4158 H   0  0  0  0  0  0
  -29.6584  -13.4365   17.7293 H   0  0  0  0  0  0
  -27.8165  -11.2742   18.8012 H   0  0  0  0  0  0
  -27.3668  -12.6018   17.7721 H   0  0  0  0  0  0
  -27.6694  -14.2152   19.5367 H   0  0  0  0  0  0
  -28.6730  -11.9563   21.3525 H   0  0  0  0  0  0
  -28.5094  -13.6327   21.8213 H   0  0  0  0  0  0
  -25.2756   -9.5582   22.4804 H   0  0  0  0  0  0
  -23.9962   -7.4547   22.7531 H   0  0  0  0  0  0
  -21.0816   -8.8805   19.8985 H   0  0  0  0  0  0
  -22.3724  -10.9696   19.6267 H   0  0  0  0  0  0
  -21.1919   -7.6129   23.9722 H   0  0  0  0  0  0
  -21.1497   -6.0503   25.9080 H   0  0  0  0  0  0
  -22.0596   -2.7585   23.2915 H   0  0  0  0  0  0
  -22.4034  -11.9986   22.4912 H   0  0  0  0  0  0
  -21.1123  -13.1473   22.2578 H   0  0  0  0  0  0
  -24.6432  -15.8129   20.4661 H   0  0  0  0  0  0
  -26.2582  -15.6128   20.0291 H   0  0  0  0  0  0
  -26.7078  -32.5557   23.1191 H   0  0  0  0  0  0
  -25.0064  -33.9801   25.0506 H   0  0  0  0  0  0
  -22.6793  -31.3004   21.4144 H   0  0  0  0  0  0
  -23.3738  -35.9674   23.3273 H   0  0  0  0  0  0
  -24.3627  -36.8957   22.2060 H   0  0  0  0  0  0
  -23.7242  -37.6521   23.6654 H   0  0  0  0  0  0
  -26.0106  -31.6167   20.5820 H   0  0  0  0  0  0
  -26.8094  -30.9178   21.9639 H   0  0  0  0  0  0
  -28.0931  -29.1591   21.1654 H   0  0  0  0  0  0
  -26.1031  -25.9693   19.0616 H   0  0  0  0  0  0
  -23.9941  -27.2723   19.0548 H   0  0  0  0  0  0
  -23.6883  -30.5871   19.4027 H   0  0  0  0  0  0
  -22.7313  -29.2195   19.8847 H   0  0  0  0  0  0
  -25.1255  -36.2001   25.0834 H   0  0  0  0  0  0
  -20.9890  -28.3184   24.1475 H   0  0  0  0  0  0
  -20.5662  -26.2211   23.3592 H   0  0  0  0  0  0
  -21.6630  -26.7443   22.1215 H   0  0  0  0  0  0
  -19.6917  -25.6293   21.1204 H   0  0  0  0  0  0
  -19.6700  -27.3207   20.6750 H   0  0  0  0  0  0
  -17.4191  -26.6634   21.4002 H   0  0  0  0  0  0
  -18.0334  -26.0041   22.8991 H   0  0  0  0  0  0
  -19.7916  -30.7244   24.2246 H   0  0  0  0  0  0
  -17.4991  -31.6249   24.5139 H   0  0  0  0  0  0
  -15.5329  -30.2940   23.7678 H   0  0  0  0  0  0
  -15.8651  -28.0811   22.7012 H   0  0  0  0  0  0
  -24.5847  -30.7139   25.7816 H   0  0  0  0  0  0
  -24.9070  -32.2882   26.5009 H   0  0  0  0  0  0
  -25.8121  -30.8755   27.0183 H   0  0  0  0  0  0
  -26.2707  -29.6760   24.1121 H   0  0  0  0  0  0
  -27.4023  -29.7176   25.4432 H   0  0  0  0  0  0
  -27.8535  -30.4245   23.9090 H   0  0  0  0  0  0
  -27.2814  -33.3537   26.1982 H   0  0  0  0  0  0
  -28.3908  -32.6678   25.0203 H   0  0  0  0  0  0
  -28.0744  -31.8288   26.5309 H   0  0  0  0  0  0
  -28.2603  -38.0101   24.7484 H   0  0  0  0  0  0
  -28.1074  -36.2632   24.6273 H   0  0  0  0  0  0
  -27.2324  -37.1450   25.8862 H   0  0  0  0  0  0
  -20.9264  -29.8698   21.6998 H   0  0  0  0  0  0
  -26.0185  -38.2869   24.1380 H   0  0  0  0  0  0
  -27.7530  -23.6892   23.4989 H   0  0  0  0  0  0
  -30.8947  -16.2503   22.6959 H   0  0  0  0  0  0
  -29.0886  -24.6677   18.8198 H   0  0  0  0  0  0
  -27.8492  -17.0110   19.7279 H   0  0  0  0  0  0
  -28.9484  -20.7325   21.5087 H   0  0  0  0  0  0
  -27.8890  -26.0026   24.0343 H   0  0  0  0  0  0
  -26.6760  -26.6303   22.9140 H   0  0  0  0  0  0
  -28.3537  -27.2076   22.8414 H   0  0  0  0  0  0
  -31.0217  -17.4637   24.6847 H   0  0  0  0  0  0
  -29.5231  -18.1114   25.3213 H   0  0  0  0  0  0
  -30.6380  -19.1673   24.4465 H   0  0  0  0  0  0
  -29.5487  -22.4544   18.3675 H   0  0  0  0  0  0
  -28.5471  -21.2758   19.2072 H   0  0  0  0  0  0
  -30.2211  -21.5715   19.7306 H   0  0  0  0  0  0
  -29.0671  -15.1208   19.6759 H   0  0  0  0  0  0
  -27.0920  -18.4645   24.9819 H   0  0  0  0  0  0
  -26.8146  -20.1420   25.2313 H   0  0  0  0  0  0
  1 25  1  0  0  0
  1 30  2  0  0  0
  1 89  1  0  0  0
  2  3  1  0  0  0
  2 25  1  0  0  0
  2 92  1  0  0  0
  2 93  1  0  0  0
  3  4  1  0  0  0
  3 94  1  0  0  0
  3 95  1  0  0  0
  4  5  1  0  0  0
  4 96  1  0  0  0
  4 97  1  0  0  0
  5  6  1  0  0  0
  5 26  1  0  0  0
  5 98  1  0  0  0
  6 25  1  0  0  0
  6 99  1  0  0  0
  6100  1  0  0  0
  7  8  2  0  0  0
  7 26  1  0  0  0
  7 29  1  0  0  0
  8  9  1  0  0  0
  8 22  1  0  0  0
  9 10  1  0  0  0
  9 27  2  0  0  0
 10 11  2  0  0  0
 10 15  1  0  0  0
 11 12  1  0  0  0
 11101  1  0  0  0
 12 13  2  0  0  0
 12102  1  0  0  0
 13 14  1  0  0  0
 13 31  1  0  0  0
 14 15  2  0  0  0
 14103  1  0  0  0
 15104  1  0  0  0
 16 17  2  0  0  0
 16 21  1  0  0  0
 16 31  1  0  0  0
 17 18  1  0  0  0
 17105  1  0  0  0
 18 19  2  0  0  0
 18106  1  0  0  0
 19 20  1  0  0  0
 19 24  1  0  0  0
 20 21  2  0  0  0
 20107  1  0  0  0
 21 23  1  0  0  0
 22 28  1  0  0  0
 22 32  2  0  0  0
 26 27  1  0  0  0
 28108  1  0  0  0
 28109  1  0  0  0
 29110  1  0  0  0
 29111  1  0  0  0
 33 34  1  0  0  0
 33 66  1  0  0  0
 33 70  2  0  0  0
 34 36  1  0  0  0
 34 59  1  0  0  0
 34112  1  0  0  0
 35 44  2  0  0  0
 35 45  1  0  0  0
 35 68  1  0  0  0
 36 56  1  0  0  0
 36113  1  0  0  0
 37 39  1  0  0  0
 37 47  1  0  0  0
 37 66  1  0  0  0
 37114  1  0  0  0
 38 43  2  0  0  0
 38 46  1  0  0  0
 38 47  1  0  0  0
 39 64  1  0  0  0
 39 67  2  0  0  0
 40 52  1  0  0  0
 40 53  2  0  0  0
 40 58  1  0  0  0
 41115  1  0  0  0
 41116  1  0  0  0
 41117  1  0  0  0
 41 48  1  0  0  0
 42 43  1  0  0  0
 42 66  1  0  0  0
 42118  1  0  0  0
 42119  1  0  0  0
 43 44  1  0  0  0
 44120  1  0  0  0
 45 46  2  0  0  0
 45121  1  0  0  0
 46122  1  0  0  0
 47123  1  0  0  0
 47124  1  0  0  0
 48 56  1  0  0  0
 48 65  1  0  0  0
 48125  1  0  0  0
 49 50  1  0  0  0
 49 53  1  0  0  0
 49 64  1  0  0  0
 49126  1  0  0  0
 50 51  1  0  0  0
 50127  1  0  0  0
 50128  1  0  0  0
 51 52  1  0  0  0
 51129  1  0  0  0
 51130  1  0  0  0
 52131  1  0  0  0
 52132  1  0  0  0
 53 54  1  0  0  0
 54 55  2  0  0  0
 54133  1  0  0  0
 55 57  1  0  0  0
 55134  1  0  0  0
 56 69  2  0  0  0
 57 58  2  0  0  0
 57135  1  0  0  0
 58136  1  0  0  0
 59 60  1  0  0  0
 59 61  1  0  0  0
 59 62  1  0  0  0
 60137  1  0  0  0
 60138  1  0  0  0
 60139  1  0  0  0
 61140  1  0  0  0
 61141  1  0  0  0
 61142  1  0  0  0
 62143  1  0  0  0
 62144  1  0  0  0
 62145  1  0  0  0
 63 65  1  0  0  0
 63146  1  0  0  0
 63147  1  0  0  0
 63148  1  0  0  0
 64149  1  0  0  0
 65150  1  0  0  0
 68 81  1  0  0  0
 71 75  2  0  0  0
 71 77  1  0  0  0
 71151  1  0  0  0
 72 78  2  0  0  0
 72 80  1  0  0  0
 72152  1  0  0  0
 73 79  2  0  0  0
 73 81  1  0  0  0
 73153  1  0  0  0
 74 80  2  0  0  0
 74 82  1  0  0  0
 74154  1  0  0  0
 75 79  1  0  0  0
 75 83  1  0  0  0
 76 78  1  0  0  0
 76 82  2  0  0  0
 76 84  1  0  0  0
 77 81  2  0  0  0
 77 85  1  0  0  0
 78 86  1  0  0  0
 79 87  1  0  0  0
 80 89  1  0  0  0
 82 91  1  0  0  0
 83 88  2  0  0  0
 83155  1  0  0  0
 84 88  1  0  0  0
 84 90  2  0  0  0
 85156  1  0  0  0
 85157  1  0  0  0
 85158  1  0  0  0
 86159  1  0  0  0
 86160  1  0  0  0
 86161  1  0  0  0
 87162  1  0  0  0
 87163  1  0  0  0
 87164  1  0  0  0
 89165  1  0  0  0
 90166  1  0  0  0
 90167  1  0  0  0
M  CHG  1  90   1
M  ISO  4   1 100  68 101  81 101  89 100
M  END
> <chiral flag>
0

> <version>
0

> <s_m_source_file>
/data/baiqing/PycharmProjects/Reinvent-master-3.2/result/LINK_invent/BTK/process_docking_weight1_custom_product_contain_oxygen_bond_distance_aromatic_linkinvent_7_9_3/rearranged_h_0044.sdf

> <i_m_source_file_index>
79

> <r_mmod_Potential_Energy-OPLS-2005>
169.682998657227

> <r_mmod_Stretch_Energy-OPLS-2005>
39.0321044921875

> <r_mmod_Bend_Energy-OPLS-2005>
106.83283996582

> <r_mmod_Torsional_Energy-OPLS-2005>
279.805694580078

> <r_mmod_Improper_Torsional_Energy-OPLS-2005>
20.7118091583252

> <r_mmod_Van_der_Waal_Energy-OPLS-2005>
174.738784790039

> <r_mmod_Electrostatic_Energy-OPLS-2005>
-10.5971431732178

> <r_mmod_Solvation_Energy-OPLS-2005>
-460.701995849609

> <b_mmod_Minimization_Converged-OPLS-2005>
0

> <r_mmod_RMS_Derivative-OPLS-2005>
4.56031799316406

$$$$
79
                    3D
 Structure written by MMmdl.
151159  0  0  1  0            999 V2000
  -30.4905  -15.0138   20.4051 C   0  0  0  0  0  0
  -30.4501  -12.6264   19.5096 C   0  0  0  0  0  0
  -29.5329  -12.5410   18.2654 C   0  0  0  0  0  0
  -28.0689  -12.3021   18.6866 C   0  0  0  0  0  0
  -27.6299  -13.2464   19.8365 C   0  0  2  0  0  0
  -28.6706  -13.2913   20.9766 C   0  0  0  0  0  0
  -25.2464  -13.8209   20.5672 C   0  0  0  0  0  0
  -24.1788  -13.0434   20.9221 C   0  0  0  0  0  0
  -24.6385  -11.6914   20.8753 C   0  0  0  0  0  0
  -23.9071  -10.4285   21.0393 C   0  0  0  0  0  0
  -24.3625   -9.4201   21.9170 C   0  0  0  0  0  0
  -23.6292   -8.2253   22.0756 C   0  0  0  0  0  0
  -22.4280   -8.0275   21.3551 C   0  0  0  0  0  0
  -21.9914   -9.0254   20.4651 C   0  0  0  0  0  0
  -22.7248  -10.2121   20.3044 C   0  0  0  0  0  0
  -21.6854   -6.0724   22.5284 C   0  0  0  0  0  0
  -21.4006   -6.5628   23.8209 C   0  0  0  0  0  0
  -21.3663   -5.6788   24.9179 C   0  0  0  0  0  0
  -21.6055   -4.3058   24.7239 C   0  0  0  0  0  0
  -21.8818   -3.8137   23.4365 C   0  0  0  0  0  0
  -21.9186   -4.6950   22.3405 C   0  0  0  0  0  0
  -22.7812  -13.5203   21.1881 C   0  0  0  0  0  0
  -22.1663   -4.2122   21.0991 F   0  0  0  0  0  0
  -21.5630   -3.4539   25.7757 F   0  0  0  0  0  0
  -29.9386  -13.7276   20.3800 N   0  0  0  0  0  0
  -26.2879  -12.9435   20.3221 N   0  0  0  0  0  0
  -25.9310  -11.6569   20.5742 N   0  0  0  0  0  0
  -22.0454  -12.8200   22.0425 N   0  0  0  0  0  0
  -25.4097  -15.1947   20.4069 N   0  0  0  0  0  0
  -31.6935  -15.1036   20.1274 O   0  0  0  0  0  0
  -21.6652   -6.8877   21.4249 O   0  0  0  0  0  0
  -22.3494  -14.5516   20.6712 O   0  0  0  0  0  0
  -24.6494  -31.8376   23.1840 C   0  0  0  0  0  0
  -25.9227  -32.4657   23.8261 C   0  0  1  0  0  0
  -27.1948  -27.0572   20.1705 C   0  0  0  0  0  0
  -25.5956  -33.8475   24.2172 N   0  0  0  0  0  0
  -23.4574  -30.4596   21.5269 C   0  0  2  0  0  0
  -24.9026  -28.8755   20.1049 C   0  0  0  0  0  0
  -22.7578  -29.4526   22.4771 C   0  0  0  0  0  0
  -18.0303  -28.1365   22.8470 C   0  0  0  0  0  0
  -24.1487  -36.7244   23.2638 C   0  0  0  0  0  0
  -26.0169  -30.6899   21.3920 C   0  0  0  0  0  0
  -26.0798  -29.2937   20.7354 C   0  0  0  0  0  0
  -27.2220  -28.3987   20.7540 C   0  0  0  0  0  0
  -25.9915  -26.7629   19.4903 C   0  0  0  0  0  0
  -24.8742  -27.6276   19.4668 C   0  0  0  0  0  0
  -23.6858  -29.7882   20.1462 C   0  0  0  0  0  0
  -25.4119  -36.3015   24.0305 C   0  0  1  0  0  0
  -20.5908  -28.3778   23.1175 C   0  0  2  0  0  0
  -20.6760  -26.9451   22.5415 C   0  0  0  0  0  0
  -19.5777  -26.6416   21.5181 C   0  0  0  0  0  0
  -18.1965  -26.7901   22.1612 C   0  0  0  0  0  0
  -19.1542  -28.8888   23.2825 C   0  0  0  0  0  0
  -18.9418  -30.1472   23.8866 C   0  0  0  0  0  0
  -17.6397  -30.6549   24.0537 C   0  0  0  0  0  0
  -25.9076  -34.9385   23.5055 C   0  0  0  0  0  0
  -16.5301  -29.9012   23.6330 C   0  0  0  0  0  0
  -16.7276  -28.6437   23.0354 C   0  0  0  0  0  0
  -26.4533  -31.6558   25.0725 C   0  0  0  0  0  0
  -25.3711  -31.3755   26.1407 C   0  0  0  0  0  0
  -27.0415  -30.2947   24.6371 C   0  0  0  0  0  0
  -27.6055  -32.4331   25.7514 C   0  0  0  0  0  0
  -27.5579  -37.1779   24.8468 C   0  0  0  0  0  0
  -21.4250  -29.3117   22.3538 N   0  0  0  0  0  0
  -26.4291  -37.3723   23.9409 N   0  0  0  0  0  0
  -24.7289  -31.0175   22.0904 N   0  0  0  0  0  0
  -23.4178  -28.8047   23.2926 O   0  0  0  0  0  0
  -28.2212  -26.0293   20.3077 O   0  0  0  0  0  0
  -26.5672  -34.8898   22.4642 O   0  0  0  0  0  0
  -23.5588  -32.1271   23.7007 O   0  0  0  0  0  0
  -27.4885  -20.7057   22.1934 C   0  0  0  0  0  0
  -27.0782  -19.8913   23.2537 C   0  0  0  0  0  0
  -28.4682  -18.1374   22.3932 C   0  0  0  0  0  0
  -28.4317  -20.3529   21.1786 C   0  0  0  0  0  0
  -28.8837  -18.8671   21.2416 C   0  0  0  0  0  0
  -27.6055  -18.6153   23.3784 C   0  0  0  0  0  0
  -28.6117  -21.7277   20.3188 C   0  0  0  0  0  0
  -28.2977  -23.1093   20.6322 C   0  0  0  0  0  0
  -29.7627  -17.7746   20.3460 C   0  0  0  0  0  0
  -28.1945  -24.5335   19.7690 C   0  0  0  0  0  0
  -29.6554  -16.1729   20.5443 N   0  0  0  0  0  0
  -27.1697  -17.6165   24.7156 Cl  0  0  0  0  0  0
  -31.4826  -12.7952   19.2015 H   0  0  0  0  0  0
  -30.4577  -11.6801   20.0519 H   0  0  0  0  0  0
  -29.8692  -11.7473   17.5966 H   0  0  0  0  0  0
  -29.6021  -13.4704   17.6975 H   0  0  0  0  0  0
  -27.9920  -11.2658   19.0179 H   0  0  0  0  0  0
  -27.4028  -12.4025   17.8283 H   0  0  0  0  0  0
  -27.5884  -14.2417   19.3893 H   0  0  0  0  0  0
  -28.7785  -12.3162   21.4529 H   0  0  0  0  0  0
  -28.3623  -13.9874   21.7574 H   0  0  0  0  0  0
  -25.2764   -9.5679   22.4752 H   0  0  0  0  0  0
  -23.9992   -7.4653   22.7477 H   0  0  0  0  0  0
  -21.0842   -8.8762   19.8974 H   0  0  0  0  0  0
  -22.3694  -10.9654   19.6158 H   0  0  0  0  0  0
  -21.1995   -7.6130   23.9706 H   0  0  0  0  0  0
  -21.1498   -6.0523   25.9079 H   0  0  0  0  0  0
  -22.0596   -2.7589   23.2880 H   0  0  0  0  0  0
  -22.4099  -11.9868   22.4817 H   0  0  0  0  0  0
  -21.1073  -13.1241   22.2637 H   0  0  0  0  0  0
  -24.6288  -15.8353   20.5049 H   0  0  0  0  0  0
  -26.2351  -15.6391   20.0274 H   0  0  0  0  0  0
  -26.7291  -32.5248   23.0985 H   0  0  0  0  0  0
  -25.0086  -33.9597   25.0309 H   0  0  0  0  0  0
  -22.7671  -31.2908   21.3661 H   0  0  0  0  0  0
  -23.3762  -35.9571   23.3273 H   0  0  0  0  0  0
  -24.3579  -36.8910   22.2069 H   0  0  0  0  0  0
  -23.7247  -37.6424   23.6707 H   0  0  0  0  0  0
  -26.1791  -31.4401   20.6158 H   0  0  0  0  0  0
  -26.8844  -30.7409   22.0384 H   0  0  0  0  0  0
  -28.1145  -28.7048   21.2815 H   0  0  0  0  0  0
  -25.8502  -25.8111   19.0053 H   0  0  0  0  0  0
  -23.9706  -27.3009   18.9691 H   0  0  0  0  0  0
  -23.8302  -30.5610   19.3895 H   0  0  0  0  0  0
  -22.7969  -29.2356   19.8350 H   0  0  0  0  0  0
  -25.1315  -36.1834   25.0799 H   0  0  0  0  0  0
  -20.9992  -28.3457   24.1299 H   0  0  0  0  0  0
  -20.5494  -26.2393   23.3650 H   0  0  0  0  0  0
  -21.6656  -26.7370   22.1304 H   0  0  0  0  0  0
  -19.7006  -25.6337   21.1199 H   0  0  0  0  0  0
  -19.6720  -27.3226   20.6707 H   0  0  0  0  0  0
  -17.4240  -26.6674   21.3996 H   0  0  0  0  0  0
  -18.0377  -25.9994   22.8963 H   0  0  0  0  0  0
  -19.7874  -30.7322   24.2250 H   0  0  0  0  0  0
  -17.4870  -31.6208   24.5146 H   0  0  0  0  0  0
  -15.5281  -30.2834   23.7656 H   0  0  0  0  0  0
  -15.8694  -28.0721   22.7087 H   0  0  0  0  0  0
  -24.5923  -30.7049   25.7745 H   0  0  0  0  0  0
  -24.8844  -32.2925   26.4750 H   0  0  0  0  0  0
  -25.7979  -30.9011   27.0255 H   0  0  0  0  0  0
  -26.3062  -29.6637   24.1358 H   0  0  0  0  0  0
  -27.3973  -29.7274   25.4991 H   0  0  0  0  0  0
  -27.8989  -30.4154   23.9737 H   0  0  0  0  0  0
  -27.2662  -33.3670   26.2012 H   0  0  0  0  0  0
  -28.3916  -32.6831   25.0372 H   0  0  0  0  0  0
  -28.0675  -31.8512   26.5505 H   0  0  0  0  0  0
  -28.2570  -38.0094   24.7507 H   0  0  0  0  0  0
  -28.1092  -36.2626   24.6292 H   0  0  0  0  0  0
  -27.2299  -37.1416   25.8867 H   0  0  0  0  0  0
  -20.9448  -29.8962   21.6838 H   0  0  0  0  0  0
  -26.0145  -38.2786   24.1410 H   0  0  0  0  0  0
  -26.9914  -21.6594   22.1983 H   0  0  0  0  0  0
  -26.3678  -20.2592   23.9794 H   0  0  0  0  0  0
  -28.8122  -17.1321   22.5693 H   0  0  0  0  0  0
  -28.9442  -21.5484   19.3073 H   0  0  0  0  0  0
  -27.9912  -23.3137   21.6452 H   0  0  0  0  0  0
  -30.8131  -18.0444   20.4623 H   0  0  0  0  0  0
  -29.5374  -17.9779   19.2991 H   0  0  0  0  0  0
  -27.3117  -24.3908   19.1519 H   0  0  0  0  0  0
  -29.0217  -24.4781   19.0613 H   0  0  0  0  0  0
  -28.7085  -15.8929   20.7448 H   0  0  0  0  0  0
  1 25  1  0  0  0
  1 30  2  0  0  0
  1 81  1  0  0  0
  2  3  1  0  0  0
  2 25  1  0  0  0
  2 83  1  0  0  0
  2 84  1  0  0  0
  3  4  1  0  0  0
  3 85  1  0  0  0
  3 86  1  0  0  0
  4  5  1  0  0  0
  4 87  1  0  0  0
  4 88  1  0  0  0
  5  6  1  0  0  0
  5 26  1  0  0  0
  5 89  1  0  0  0
  6 25  1  0  0  0
  6 90  1  0  0  0
  6 91  1  0  0  0
  7  8  2  0  0  0
  7 26  1  0  0  0
  7 29  1  0  0  0
  8  9  1  0  0  0
  8 22  1  0  0  0
  9 10  1  0  0  0
  9 27  2  0  0  0
 10 11  2  0  0  0
 10 15  1  0  0  0
 11 12  1  0  0  0
 11 92  1  0  0  0
 12 13  2  0  0  0
 12 93  1  0  0  0
 13 14  1  0  0  0
 13 31  1  0  0  0
 14 15  2  0  0  0
 14 94  1  0  0  0
 15 95  1  0  0  0
 16 17  2  0  0  0
 16 21  1  0  0  0
 16 31  1  0  0  0
 17 18  1  0  0  0
 17 96  1  0  0  0
 18 19  2  0  0  0
 18 97  1  0  0  0
 19 20  1  0  0  0
 19 24  1  0  0  0
 20 21  2  0  0  0
 20 98  1  0  0  0
 21 23  1  0  0  0
 22 28  1  0  0  0
 22 32  2  0  0  0
 26 27  1  0  0  0
 28 99  1  0  0  0
 28100  1  0  0  0
 29101  1  0  0  0
 29102  1  0  0  0
 33 34  1  0  0  0
 33 66  1  0  0  0
 33 70  2  0  0  0
 34 36  1  0  0  0
 34 59  1  0  0  0
 34103  1  0  0  0
 35 44  2  0  0  0
 35 45  1  0  0  0
 35 68  1  0  0  0
 36 56  1  0  0  0
 36104  1  0  0  0
 37 39  1  0  0  0
 37 47  1  0  0  0
 37 66  1  0  0  0
 37105  1  0  0  0
 38 43  2  0  0  0
 38 46  1  0  0  0
 38 47  1  0  0  0
 39 64  1  0  0  0
 39 67  2  0  0  0
 40 52  1  0  0  0
 40 53  2  0  0  0
 40 58  1  0  0  0
 41106  1  0  0  0
 41107  1  0  0  0
 41108  1  0  0  0
 41 48  1  0  0  0
 42 43  1  0  0  0
 42 66  1  0  0  0
 42109  1  0  0  0
 42110  1  0  0  0
 43 44  1  0  0  0
 44111  1  0  0  0
 45 46  2  0  0  0
 45112  1  0  0  0
 46113  1  0  0  0
 47114  1  0  0  0
 47115  1  0  0  0
 48 56  1  0  0  0
 48 65  1  0  0  0
 48116  1  0  0  0
 49 50  1  0  0  0
 49 53  1  0  0  0
 49 64  1  0  0  0
 49117  1  0  0  0
 50 51  1  0  0  0
 50118  1  0  0  0
 50119  1  0  0  0
 51 52  1  0  0  0
 51120  1  0  0  0
 51121  1  0  0  0
 52122  1  0  0  0
 52123  1  0  0  0
 53 54  1  0  0  0
 54 55  2  0  0  0
 54124  1  0  0  0
 55 57  1  0  0  0
 55125  1  0  0  0
 56 69  2  0  0  0
 57 58  2  0  0  0
 57126  1  0  0  0
 58127  1  0  0  0
 59 60  1  0  0  0
 59 61  1  0  0  0
 59 62  1  0  0  0
 60128  1  0  0  0
 60129  1  0  0  0
 60130  1  0  0  0
 61131  1  0  0  0
 61132  1  0  0  0
 61133  1  0  0  0
 62134  1  0  0  0
 62135  1  0  0  0
 62136  1  0  0  0
 63 65  1  0  0  0
 63137  1  0  0  0
 63138  1  0  0  0
 63139  1  0  0  0
 64140  1  0  0  0
 65141  1  0  0  0
 68 80  1  0  0  0
 71 72  2  0  0  0
 71 74  1  0  0  0
 71142  1  0  0  0
 72 76  1  0  0  0
 72143  1  0  0  0
 73 75  1  0  0  0
 73 76  2  0  0  0
 73144  1  0  0  0
 74 75  2  0  0  0
 74 77  1  0  0  0
 75 79  1  0  0  0
 76 82  1  0  0  0
 77 78  2  0  0  0
 77145  1  0  0  0
 78 80  1  0  0  0
 78146  1  0  0  0
 79 81  1  0  0  0
 79147  1  0  0  0
 79148  1  0  0  0
 80149  1  0  0  0
 80150  1  0  0  0
 81151  1  0  0  0
M  ISO  4   1 100  68 101  80 101  81 100
M  END
> <chiral flag>
0

> <version>
0

> <s_m_source_file>
/data/baiqing/PycharmProjects/Reinvent-master-3.2/result/LINK_invent/BTK/process_docking_weight1_custom_product_contain_oxygen_bond_distance_aromatic_linkinvent_7_9_3/rearranged_h_0044.sdf

> <i_m_source_file_index>
80

> <r_mmod_Potential_Energy-OPLS-2005>
731.211608886719

> <r_mmod_Stretch_Energy-OPLS-2005>
360.073791503906

> <r_mmod_Bend_Energy-OPLS-2005>
364.045623779297

> <r_mmod_Torsional_Energy-OPLS-2005>
214.047897338867

> <r_mmod_Improper_Torsional_Energy-OPLS-2005>
6.19406604766846

> <r_mmod_Van_der_Waal_Energy-OPLS-2005>
143.904907226562

> <r_mmod_Electrostatic_Energy-OPLS-2005>
-405.037109375

> <r_mmod_Solvation_Energy-OPLS-2005>
-211.67366027832

> <b_mmod_Minimization_Converged-OPLS-2005>
0

> <r_mmod_RMS_Derivative-OPLS-2005>
3.70139646530151

$$$$
80
                    3D
 Structure written by MMmdl.
162170  0  0  1  0            999 V2000
  -30.7317  -14.4349   20.5628 C   0  0  0  0  0  0
  -30.4248  -12.2876   19.4122 C   0  0  0  0  0  0
  -29.4911  -12.4642   18.2000 C   0  0  0  0  0  0
  -28.0089  -12.3552   18.6091 C   0  0  0  0  0  0
  -27.6592  -13.1985   19.8650 C   0  0  2  0  0  0
  -28.7080  -12.9826   20.9822 C   0  0  0  0  0  0
  -25.2617  -13.8167   20.5632 C   0  0  0  0  0  0
  -24.1837  -13.0459   20.9148 C   0  0  0  0  0  0
  -24.6372  -11.6916   20.8759 C   0  0  0  0  0  0
  -23.9022  -10.4317   21.0406 C   0  0  0  0  0  0
  -24.3583   -9.4227   21.9151 C   0  0  0  0  0  0
  -23.6292   -8.2247   22.0734 C   0  0  0  0  0  0
  -22.4269   -8.0274   21.3531 C   0  0  0  0  0  0
  -21.9895   -9.0238   20.4623 C   0  0  0  0  0  0
  -22.7218  -10.2131   20.3024 C   0  0  0  0  0  0
  -21.6843   -6.0736   22.5272 C   0  0  0  0  0  0
  -21.4014   -6.5638   23.8212 C   0  0  0  0  0  0
  -21.3672   -5.6782   24.9182 C   0  0  0  0  0  0
  -21.6064   -4.3046   24.7216 C   0  0  0  0  0  0
  -21.8834   -3.8136   23.4342 C   0  0  0  0  0  0
  -21.9203   -4.6962   22.3403 C   0  0  0  0  0  0
  -22.7870  -13.5269   21.1810 C   0  0  0  0  0  0
  -22.1663   -4.2142   21.0961 F   0  0  0  0  0  0
  -21.5632   -3.4524   25.7735 F   0  0  0  0  0  0
  -30.0393  -13.2761   20.4269 N   0  0  0  0  0  0
  -26.3017  -12.9288   20.3321 N   0  0  0  0  0  0
  -25.9303  -11.6473   20.5796 N   0  0  0  0  0  0
  -22.0495  -12.8295   22.0380 N   0  0  0  0  0  0
  -25.4386  -15.1902   20.3978 N   0  0  0  0  0  0
  -31.8676  -14.5940   20.1090 O   0  0  0  0  0  0
  -21.6656   -6.8873   21.4215 O   0  0  0  0  0  0
  -22.3562  -14.5564   20.6644 O   0  0  0  0  0  0
  -24.6006  -31.8757   23.2135 C   0  0  0  0  0  0
  -25.8954  -32.4855   23.8405 C   0  0  1  0  0  0
  -27.2481  -27.5076   20.1116 C   0  0  0  0  0  0
  -25.5862  -33.8653   24.2341 N   0  0  0  0  0  0
  -23.3804  -30.4993   21.5485 C   0  0  2  0  0  0
  -24.8291  -28.9692   20.1114 C   0  0  0  0  0  0
  -22.7309  -29.4717   22.5007 C   0  0  0  0  0  0
  -18.0247  -28.1361   22.8494 C   0  0  0  0  0  0
  -24.1489  -36.7329   23.2640 C   0  0  0  0  0  0
  -25.8923  -30.8747   21.3428 C   0  0  0  0  0  0
  -25.9750  -29.5075   20.7046 C   0  0  0  0  0  0
  -27.1780  -28.7867   20.7095 C   0  0  0  0  0  0
  -26.0919  -26.9765   19.5029 C   0  0  0  0  0  0
  -24.8787  -27.6975   19.5080 C   0  0  0  0  0  0
  -23.5825  -29.8232   20.1631 C   0  0  0  0  0  0
  -25.4104  -36.3130   24.0345 C   0  0  1  0  0  0
  -20.5823  -28.3631   23.1356 C   0  0  2  0  0  0
  -20.6738  -26.9381   22.5427 C   0  0  0  0  0  0
  -19.5734  -26.6380   21.5212 C   0  0  0  0  0  0
  -18.1906  -26.7919   22.1610 C   0  0  0  0  0  0
  -19.1494  -28.8804   23.2928 C   0  0  0  0  0  0
  -18.9448  -30.1414   23.8928 C   0  0  0  0  0  0
  -17.6458  -30.6576   24.0568 C   0  0  0  0  0  0
  -25.9023  -34.9498   23.5136 C   0  0  0  0  0  0
  -16.5336  -29.9087   23.6320 C   0  0  0  0  0  0
  -16.7244  -28.6501   23.0337 C   0  0  0  0  0  0
  -26.4456  -31.6605   25.0677 C   0  0  0  0  0  0
  -25.3769  -31.3698   26.1449 C   0  0  0  0  0  0
  -27.0266  -30.3056   24.5961 C   0  0  0  0  0  0
  -27.6047  -32.4295   25.7429 C   0  0  0  0  0  0
  -27.5592  -37.1809   24.8465 C   0  0  0  0  0  0
  -21.4054  -29.3018   22.3757 N   0  0  0  0  0  0
  -26.4294  -37.3801   23.9421 N   0  0  0  0  0  0
  -24.6424  -31.0949   22.0969 N   0  0  0  0  0  0
  -23.4136  -28.8277   23.3024 O   0  0  0  0  0  0
  -28.4015  -26.7595   20.1004 O   0  0  0  0  0  0
  -26.5578  -34.8936   22.4693 O   0  0  0  0  0  0
  -23.5237  -32.1469   23.7616 O   0  0  0  0  0  0
  -28.6015  -20.0838   18.9063 C   0  0  0  0  0  0
  -28.5877  -18.7902   18.3606 C   0  0  0  0  0  0
  -29.8050  -19.2303   20.8421 C   0  0  0  0  0  0
  -29.2219  -20.3133   20.1501 C   0  0  0  0  0  0
  -29.7930  -17.9194   20.3142 C   0  0  0  0  0  0
  -29.1829  -17.7097   19.0434 C   0  0  0  0  0  0
  -30.8615  -23.7073   20.3232 C   0  0  0  0  0  0
  -32.1792  -24.1313   19.7447 C   0  0  0  0  0  0
  -30.5350  -16.8464   21.1292 C   0  0  0  0  0  0
  -29.3107  -21.7278   20.7039 C   0  0  0  0  0  0
  -30.4685  -26.0300   21.1367 C   0  0  0  0  0  0
  -29.2590  -26.9519   21.2269 C   0  0  0  0  0  0
  -30.0875  -24.6211   20.9490 N   0  0  0  0  0  0
  -30.0438  -15.4644   21.0829 N   0  0  0  0  0  0
  -30.5005  -22.4158   20.1881 N   0  3  0  0  0  0
  -29.1683  -16.1939   18.2217 Cl  0  0  0  0  0  0
  -31.4599  -12.4034   19.0908 H   0  0  0  0  0  0
  -30.3499  -11.2787   19.8209 H   0  0  0  0  0  0
  -29.7213  -11.7100   17.4452 H   0  0  0  0  0  0
  -29.6745  -13.4311   17.7253 H   0  0  0  0  0  0
  -27.7985  -11.3029   18.8038 H   0  0  0  0  0  0
  -27.3677  -12.6384   17.7753 H   0  0  0  0  0  0
  -27.7018  -14.2421   19.5608 H   0  0  0  0  0  0
  -28.6870  -11.9512   21.3338 H   0  0  0  0  0  0
  -28.4775  -13.5960   21.8550 H   0  0  0  0  0  0
  -25.2721   -9.5761   22.4713 H   0  0  0  0  0  0
  -24.0057   -7.4654   22.7445 H   0  0  0  0  0  0
  -21.0813   -8.8749   19.8953 H   0  0  0  0  0  0
  -22.3620  -10.9671   19.6168 H   0  0  0  0  0  0
  -21.1978   -7.6152   23.9733 H   0  0  0  0  0  0
  -21.1478   -6.0487   25.9086 H   0  0  0  0  0  0
  -22.0599   -2.7593   23.2827 H   0  0  0  0  0  0
  -22.4080  -12.0009   22.4886 H   0  0  0  0  0  0
  -21.1094  -13.1355   22.2497 H   0  0  0  0  0  0
  -24.6700  -15.8461   20.4801 H   0  0  0  0  0  0
  -26.2901  -15.6211   20.0571 H   0  0  0  0  0  0
  -26.7020  -32.5630   23.1189 H   0  0  0  0  0  0
  -25.0034  -33.9831   25.0505 H   0  0  0  0  0  0
  -22.6621  -31.3109   21.4141 H   0  0  0  0  0  0
  -23.3742  -35.9672   23.3320 H   0  0  0  0  0  0
  -24.3588  -36.8916   22.2051 H   0  0  0  0  0  0
  -23.7253  -37.6548   23.6631 H   0  0  0  0  0  0
  -25.9731  -31.6386   20.5670 H   0  0  0  0  0  0
  -26.7895  -30.9480   21.9445 H   0  0  0  0  0  0
  -28.0350  -29.2542   21.1697 H   0  0  0  0  0  0
  -26.1290  -26.0005   19.0403 H   0  0  0  0  0  0
  -23.9959  -27.2729   19.0493 H   0  0  0  0  0  0
  -23.6726  -30.5951   19.3988 H   0  0  0  0  0  0
  -22.7096  -29.2325   19.8788 H   0  0  0  0  0  0
  -25.1284  -36.2003   25.0838 H   0  0  0  0  0  0
  -20.9933  -28.3202   24.1466 H   0  0  0  0  0  0
  -20.5624  -26.2246   23.3607 H   0  0  0  0  0  0
  -21.6622  -26.7429   22.1244 H   0  0  0  0  0  0
  -19.6907  -25.6302   21.1211 H   0  0  0  0  0  0
  -19.6689  -27.3206   20.6752 H   0  0  0  0  0  0
  -17.4190  -26.6662   21.4002 H   0  0  0  0  0  0
  -18.0308  -26.0034   22.8984 H   0  0  0  0  0  0
  -19.7930  -30.7204   24.2317 H   0  0  0  0  0  0
  -17.5028  -31.6261   24.5164 H   0  0  0  0  0  0
  -15.5350  -30.3014   23.7626 H   0  0  0  0  0  0
  -15.8639  -28.0845   22.7029 H   0  0  0  0  0  0
  -24.5899  -30.7086   25.7834 H   0  0  0  0  0  0
  -24.9000  -32.2848   26.4963 H   0  0  0  0  0  0
  -25.8139  -30.8841   27.0171 H   0  0  0  0  0  0
  -26.2760  -29.6808   24.1096 H   0  0  0  0  0  0
  -27.4172  -29.7306   25.4370 H   0  0  0  0  0  0
  -27.8534  -30.4427   23.8987 H   0  0  0  0  0  0
  -27.2672  -33.3572   26.2079 H   0  0  0  0  0  0
  -28.3819  -32.6891   25.0233 H   0  0  0  0  0  0
  -28.0743  -31.8363   26.5286 H   0  0  0  0  0  0
  -28.2614  -38.0107   24.7499 H   0  0  0  0  0  0
  -28.1073  -36.2624   24.6281 H   0  0  0  0  0  0
  -27.2302  -37.1456   25.8868 H   0  0  0  0  0  0
  -20.9162  -29.8755   21.7027 H   0  0  0  0  0  0
  -26.0195  -38.2890   24.1396 H   0  0  0  0  0  0
  -28.1525  -20.9000   18.3561 H   0  0  0  0  0  0
  -28.1404  -18.6222   17.3928 H   0  0  0  0  0  0
  -30.2944  -19.4155   21.7892 H   0  0  0  0  0  0
  -32.7665  -24.6750   20.4870 H   0  0  0  0  0  0
  -32.0233  -24.7750   18.8780 H   0  0  0  0  0  0
  -32.7648  -23.2709   19.4250 H   0  0  0  0  0  0
  -30.5207  -17.1413   22.1794 H   0  0  0  0  0  0
  -31.5852  -16.9046   20.8324 H   0  0  0  0  0  0
  -29.3555  -21.7033   21.7943 H   0  0  0  0  0  0
  -28.4141  -22.2879   20.4358 H   0  0  0  0  0  0
  -31.0720  -26.1211   22.0404 H   0  0  0  0  0  0
  -31.0824  -26.3728   20.3044 H   0  0  0  0  0  0
  -29.6547  -27.9674   21.2502 H   0  0  0  0  0  0
  -28.7117  -26.7836   22.1570 H   0  0  0  0  0  0
  -29.1814  -24.3745   21.3202 H   0  0  0  0  0  0
  -29.1075  -15.2862   21.4100 H   0  0  0  0  0  0
  -31.1237  -21.8111   19.6722 H   0  0  0  0  0  0
  1 25  1  0  0  0
  1 30  2  0  0  0
  1 84  1  0  0  0
  2  3  1  0  0  0
  2 25  1  0  0  0
  2 87  1  0  0  0
  2 88  1  0  0  0
  3  4  1  0  0  0
  3 89  1  0  0  0
  3 90  1  0  0  0
  4  5  1  0  0  0
  4 91  1  0  0  0
  4 92  1  0  0  0
  5  6  1  0  0  0
  5 26  1  0  0  0
  5 93  1  0  0  0
  6 25  1  0  0  0
  6 94  1  0  0  0
  6 95  1  0  0  0
  7  8  2  0  0  0
  7 26  1  0  0  0
  7 29  1  0  0  0
  8  9  1  0  0  0
  8 22  1  0  0  0
  9 10  1  0  0  0
  9 27  2  0  0  0
 10 11  2  0  0  0
 10 15  1  0  0  0
 11 12  1  0  0  0
 11 96  1  0  0  0
 12 13  2  0  0  0
 12 97  1  0  0  0
 13 14  1  0  0  0
 13 31  1  0  0  0
 14 15  2  0  0  0
 14 98  1  0  0  0
 15 99  1  0  0  0
 16 17  2  0  0  0
 16 21  1  0  0  0
 16 31  1  0  0  0
 17 18  1  0  0  0
 17100  1  0  0  0
 18 19  2  0  0  0
 18101  1  0  0  0
 19 20  1  0  0  0
 19 24  1  0  0  0
 20 21  2  0  0  0
 20102  1  0  0  0
 21 23  1  0  0  0
 22 28  1  0  0  0
 22 32  2  0  0  0
 26 27  1  0  0  0
 28103  1  0  0  0
 28104  1  0  0  0
 29105  1  0  0  0
 29106  1  0  0  0
 33 34  1  0  0  0
 33 66  1  0  0  0
 33 70  2  0  0  0
 34 36  1  0  0  0
 34 59  1  0  0  0
 34107  1  0  0  0
 35 44  2  0  0  0
 35 45  1  0  0  0
 35 68  1  0  0  0
 36 56  1  0  0  0
 36108  1  0  0  0
 37 39  1  0  0  0
 37 47  1  0  0  0
 37 66  1  0  0  0
 37109  1  0  0  0
 38 43  2  0  0  0
 38 46  1  0  0  0
 38 47  1  0  0  0
 39 64  1  0  0  0
 39 67  2  0  0  0
 40 52  1  0  0  0
 40 53  2  0  0  0
 40 58  1  0  0  0
 41110  1  0  0  0
 41111  1  0  0  0
 41112  1  0  0  0
 41 48  1  0  0  0
 42 43  1  0  0  0
 42 66  1  0  0  0
 42113  1  0  0  0
 42114  1  0  0  0
 43 44  1  0  0  0
 44115  1  0  0  0
 45 46  2  0  0  0
 45116  1  0  0  0
 46117  1  0  0  0
 47118  1  0  0  0
 47119  1  0  0  0
 48 56  1  0  0  0
 48 65  1  0  0  0
 48120  1  0  0  0
 49 50  1  0  0  0
 49 53  1  0  0  0
 49 64  1  0  0  0
 49121  1  0  0  0
 50 51  1  0  0  0
 50122  1  0  0  0
 50123  1  0  0  0
 51 52  1  0  0  0
 51124  1  0  0  0
 51125  1  0  0  0
 52126  1  0  0  0
 52127  1  0  0  0
 53 54  1  0  0  0
 54 55  2  0  0  0
 54128  1  0  0  0
 55 57  1  0  0  0
 55129  1  0  0  0
 56 69  2  0  0  0
 57 58  2  0  0  0
 57130  1  0  0  0
 58131  1  0  0  0
 59 60  1  0  0  0
 59 61  1  0  0  0
 59 62  1  0  0  0
 60132  1  0  0  0
 60133  1  0  0  0
 60134  1  0  0  0
 61135  1  0  0  0
 61136  1  0  0  0
 61137  1  0  0  0
 62138  1  0  0  0
 62139  1  0  0  0
 62140  1  0  0  0
 63 65  1  0  0  0
 63141  1  0  0  0
 63142  1  0  0  0
 63143  1  0  0  0
 64144  1  0  0  0
 65145  1  0  0  0
 68 82  1  0  0  0
 71 72  2  0  0  0
 71 74  1  0  0  0
 71146  1  0  0  0
 72 76  1  0  0  0
 72147  1  0  0  0
 73 74  2  0  0  0
 73 75  1  0  0  0
 73148  1  0  0  0
 74 80  1  0  0  0
 75 76  2  0  0  0
 75 79  1  0  0  0
 76 86  1  0  0  0
 77 78  1  0  0  0
 77 83  1  0  0  0
 77 85  2  0  0  0
 78149  1  0  0  0
 78150  1  0  0  0
 78151  1  0  0  0
 79 84  1  0  0  0
 79152  1  0  0  0
 79153  1  0  0  0
 80 85  1  0  0  0
 80154  1  0  0  0
 80155  1  0  0  0
 81 82  1  0  0  0
 81 83  1  0  0  0
 81156  1  0  0  0
 81157  1  0  0  0
 82158  1  0  0  0
 82159  1  0  0  0
 83160  1  0  0  0
 84161  1  0  0  0
 85162  1  0  0  0
M  CHG  1  85   1
M  ISO  4   1 100  68 101  82 101  84 100
M  END
> <chiral flag>
0

> <version>
0

> <s_m_source_file>
/data/baiqing/PycharmProjects/Reinvent-master-3.2/result/LINK_invent/BTK/process_docking_weight1_custom_product_contain_oxygen_bond_distance_aromatic_linkinvent_7_9_3/rearranged_h_0044.sdf

> <i_m_source_file_index>
81

> <r_mmod_Potential_Energy-OPLS-2005>
-127.949279785156

> <r_mmod_Stretch_Energy-OPLS-2005>
33.1828384399414

> <r_mmod_Bend_Energy-OPLS-2005>
101.091217041016

> <r_mmod_Torsional_Energy-OPLS-2005>
212.521224975586

> <r_mmod_Improper_Torsional_Energy-OPLS-2005>
3.87206935882568

> <r_mmod_Van_der_Waal_Energy-OPLS-2005>
161.645355224609

> <r_mmod_Electrostatic_Energy-OPLS-2005>
-228.71337890625

> <r_mmod_Solvation_Energy-OPLS-2005>
-422.635375976562

> <b_mmod_Minimization_Converged-OPLS-2005>
0

> <r_mmod_RMS_Derivative-OPLS-2005>
4.90465641021729

$$$$
81
                    3D
 Structure written by MMmdl.
158167  0  0  1  0            999 V2000
  -30.6240  -14.6386   20.5166 C   0  0  0  0  0  0
  -30.4403  -12.3936   19.4545 C   0  0  0  0  0  0
  -29.5097  -12.5084   18.2263 C   0  0  0  0  0  0
  -28.0320  -12.3463   18.6367 C   0  0  0  0  0  0
  -27.6550  -13.2149   19.8663 C   0  0  2  0  0  0
  -28.6993  -13.0640   20.9964 C   0  0  0  0  0  0
  -25.2563  -13.8162   20.5681 C   0  0  0  0  0  0
  -24.1831  -13.0432   20.9196 C   0  0  0  0  0  0
  -24.6397  -11.6903   20.8742 C   0  0  0  0  0  0
  -23.9064  -10.4288   21.0405 C   0  0  0  0  0  0
  -24.3614   -9.4204   21.9184 C   0  0  0  0  0  0
  -23.6288   -8.2242   22.0755 C   0  0  0  0  0  0
  -22.4271   -8.0281   21.3547 C   0  0  0  0  0  0
  -21.9905   -9.0255   20.4652 C   0  0  0  0  0  0
  -22.7234  -10.2132   20.3058 C   0  0  0  0  0  0
  -21.6853   -6.0734   22.5279 C   0  0  0  0  0  0
  -21.4016   -6.5639   23.8212 C   0  0  0  0  0  0
  -21.3657   -5.6792   24.9175 C   0  0  0  0  0  0
  -21.6045   -4.3054   24.7224 C   0  0  0  0  0  0
  -21.8818   -3.8146   23.4345 C   0  0  0  0  0  0
  -21.9192   -4.6962   22.3402 C   0  0  0  0  0  0
  -22.7852  -13.5232   21.1852 C   0  0  0  0  0  0
  -22.1661   -4.2148   21.0977 F   0  0  0  0  0  0
  -21.5627   -3.4536   25.7735 F   0  0  0  0  0  0
  -30.0154  -13.4117   20.4361 N   0  0  0  0  0  0
  -26.2996  -12.9344   20.3326 N   0  0  0  0  0  0
  -25.9326  -11.6502   20.5761 N   0  0  0  0  0  0
  -22.0490  -12.8233   22.0409 N   0  0  0  0  0  0
  -25.4260  -15.1879   20.4064 N   0  0  0  0  0  0
  -31.7741  -14.8052   20.1031 O   0  0  0  0  0  0
  -21.6640   -6.8877   21.4241 O   0  0  0  0  0  0
  -22.3538  -14.5536   20.6689 O   0  0  0  0  0  0
  -24.6262  -31.8611   23.2044 C   0  0  0  0  0  0
  -25.9115  -32.4786   23.8366 C   0  0  1  0  0  0
  -27.2180  -27.3155   20.1106 C   0  0  0  0  0  0
  -25.5932  -33.8586   24.2288 N   0  0  0  0  0  0
  -23.4186  -30.4874   21.5475 C   0  0  2  0  0  0
  -24.8633  -28.9478   20.1091 C   0  0  0  0  0  0
  -22.7472  -29.4633   22.4936 C   0  0  0  0  0  0
  -18.0288  -28.1389   22.8484 C   0  0  0  0  0  0
  -24.1489  -36.7295   23.2637 C   0  0  0  0  0  0
  -25.9613  -30.7895   21.3781 C   0  0  0  0  0  0
  -26.0333  -29.4180   20.7180 C   0  0  0  0  0  0
  -27.2113  -28.6123   20.7133 C   0  0  0  0  0  0
  -26.0239  -26.9114   19.4642 C   0  0  0  0  0  0
  -24.8608  -27.6995   19.4745 C   0  0  0  0  0  0
  -23.6327  -29.8284   20.1609 C   0  0  0  0  0  0
  -25.4114  -36.3086   24.0329 C   0  0  1  0  0  0
  -20.5886  -28.3692   23.1282 C   0  0  2  0  0  0
  -20.6777  -26.9418   22.5409 C   0  0  0  0  0  0
  -19.5753  -26.6387   21.5212 C   0  0  0  0  0  0
  -18.1933  -26.7932   22.1625 C   0  0  0  0  0  0
  -19.1540  -28.8857   23.2878 C   0  0  0  0  0  0
  -18.9463  -30.1457   23.8898 C   0  0  0  0  0  0
  -17.6464  -30.6589   24.0564 C   0  0  0  0  0  0
  -25.9052  -34.9456   23.5107 C   0  0  0  0  0  0
  -16.5353  -29.9088   23.6332 C   0  0  0  0  0  0
  -16.7275  -28.6506   23.0352 C   0  0  0  0  0  0
  -26.4497  -31.6589   25.0733 C   0  0  0  0  0  0
  -25.3732  -31.3731   26.1460 C   0  0  0  0  0  0
  -27.0337  -30.3012   24.6188 C   0  0  0  0  0  0
  -27.6054  -32.4323   25.7508 C   0  0  0  0  0  0
  -27.5577  -37.1807   24.8467 C   0  0  0  0  0  0
  -21.4187  -29.3048   22.3679 N   0  0  0  0  0  0
  -26.4293  -37.3778   23.9404 N   0  0  0  0  0  0
  -24.6874  -31.0624   22.0999 N   0  0  0  0  0  0
  -23.4200  -28.8167   23.3007 O   0  0  0  0  0  0
  -28.3334  -26.4584   20.1829 O   0  0  0  0  0  0
  -26.5615  -34.8919   22.4670 O   0  0  0  0  0  0
  -23.5428  -32.1413   23.7373 O   0  0  0  0  0  0
  -28.7376  -19.3114   20.4607 C   0  0  0  0  0  0
  -28.7895  -17.8845   20.4174 C   0  0  0  0  0  0
  -30.9807  -19.3304   21.3082 C   0  0  0  0  0  0
  -29.8371  -20.0815   20.9171 C   0  0  0  0  0  0
  -29.9275  -17.1326   20.8297 C   0  0  0  0  0  0
  -31.0355  -17.9038   21.2873 C   0  0  0  0  0  0
  -28.9758  -23.9840   20.7413 C   0  0  0  0  0  0
  -28.2118  -23.2805   18.0318 C   0  0  0  0  0  0
  -28.4399  -24.7606   18.3651 C   0  0  0  0  0  0
  -29.1254  -22.3585   18.8638 C   0  0  0  0  0  0
  -28.1682  -25.0149   19.8555 C   0  0  2  0  0  0
  -29.7976  -21.6369   21.1979 C   0  0  0  0  0  0
  -29.1788  -22.6836   20.2998 N   0  0  0  0  0  0
  -29.8114  -15.6721   20.9032 N   0  0  0  0  0  0
  -29.3437  -24.3463   21.8638 O   0  0  0  0  0  0
  -32.4436  -17.1557   21.9545 Cl  0  0  0  0  0  0
  -31.4811  -12.5204   19.1526 H   0  0  0  0  0  0
  -30.3777  -11.3969   19.8936 H   0  0  0  0  0  0
  -29.7747  -11.7564   17.4816 H   0  0  0  0  0  0
  -29.6522  -13.4777   17.7460 H   0  0  0  0  0  0
  -27.8686  -11.2927   18.8668 H   0  0  0  0  0  0
  -27.3781  -12.5777   17.7948 H   0  0  0  0  0  0
  -27.6753  -14.2508   19.5272 H   0  0  0  0  0  0
  -28.7118  -12.0400   21.3730 H   0  0  0  0  0  0
  -28.4424  -13.6884   21.8534 H   0  0  0  0  0  0
  -25.2759   -9.5679   22.4757 H   0  0  0  0  0  0
  -23.9997   -7.4633   22.7471 H   0  0  0  0  0  0
  -21.0838   -8.8777   19.8955 H   0  0  0  0  0  0
  -22.3697  -10.9673   19.6166 H   0  0  0  0  0  0
  -21.2013   -7.6146   23.9716 H   0  0  0  0  0  0
  -21.1479   -6.0521   25.9077 H   0  0  0  0  0  0
  -22.0599   -2.7608   23.2845 H   0  0  0  0  0  0
  -22.4103  -11.9899   22.4810 H   0  0  0  0  0  0
  -21.1110  -13.1264   22.2611 H   0  0  0  0  0  0
  -24.6524  -15.8365   20.5053 H   0  0  0  0  0  0
  -26.2609  -15.6220   20.0366 H   0  0  0  0  0  0
  -26.7178  -32.5453   23.1109 H   0  0  0  0  0  0
  -25.0090  -33.9736   25.0441 H   0  0  0  0  0  0
  -22.7118  -31.3081   21.4078 H   0  0  0  0  0  0
  -23.3749  -35.9631   23.3310 H   0  0  0  0  0  0
  -24.3580  -36.8906   22.2049 H   0  0  0  0  0  0
  -23.7248  -37.6503   23.6653 H   0  0  0  0  0  0
  -26.0952  -31.5539   20.6111 H   0  0  0  0  0  0
  -26.8412  -30.8355   22.0079 H   0  0  0  0  0  0
  -28.1049  -28.9662   21.2080 H   0  0  0  0  0  0
  -25.9421  -25.9698   18.9451 H   0  0  0  0  0  0
  -23.9661  -27.3372   18.9870 H   0  0  0  0  0  0
  -23.7538  -30.6078   19.4076 H   0  0  0  0  0  0
  -22.7517  -29.2605   19.8558 H   0  0  0  0  0  0
  -25.1295  -36.1940   25.0822 H   0  0  0  0  0  0
  -20.9975  -28.3266   24.1403 H   0  0  0  0  0  0
  -20.5683  -26.2302   23.3607 H   0  0  0  0  0  0
  -21.6646  -26.7454   22.1200 H   0  0  0  0  0  0
  -19.6916  -25.6297   21.1243 H   0  0  0  0  0  0
  -19.6690  -27.3196   20.6741 H   0  0  0  0  0  0
  -17.4201  -26.6675   21.4027 H   0  0  0  0  0  0
  -18.0338  -26.0075   22.9025 H   0  0  0  0  0  0
  -19.7938  -30.7270   24.2269 H   0  0  0  0  0  0
  -17.5021  -31.6272   24.5165 H   0  0  0  0  0  0
  -15.5355  -30.2993   23.7659 H   0  0  0  0  0  0
  -15.8673  -28.0828   22.7068 H   0  0  0  0  0  0
  -24.5913  -30.7068   25.7796 H   0  0  0  0  0  0
  -24.8917  -32.2899   26.4873 H   0  0  0  0  0  0
  -25.8061  -30.8926   27.0242 H   0  0  0  0  0  0
  -26.2914  -29.6770   24.1200 H   0  0  0  0  0  0
  -27.4018  -29.7259   25.4692 H   0  0  0  0  0  0
  -27.8791  -30.4295   23.9425 H   0  0  0  0  0  0
  -27.2661  -33.3621   26.2086 H   0  0  0  0  0  0
  -28.3869  -32.6885   25.0343 H   0  0  0  0  0  0
  -28.0715  -31.8449   26.5427 H   0  0  0  0  0  0
  -28.2604  -38.0093   24.7497 H   0  0  0  0  0  0
  -28.1061  -36.2624   24.6315 H   0  0  0  0  0  0
  -27.2294  -37.1485   25.8871 H   0  0  0  0  0  0
  -20.9363  -29.8781   21.6898 H   0  0  0  0  0  0
  -26.0176  -38.2855   24.1393 H   0  0  0  0  0  0
  -27.8172  -19.8079   20.1849 H   0  0  0  0  0  0
  -27.9036  -17.3593   20.0911 H   0  0  0  0  0  0
  -31.8342  -19.8582   21.7084 H   0  0  0  0  0  0
  -28.3823  -23.1053   16.9686 H   0  0  0  0  0  0
  -27.1676  -23.0229   18.2171 H   0  0  0  0  0  0
  -27.7916  -25.3785   17.7449 H   0  0  0  0  0  0
  -29.4628  -25.0491   18.1212 H   0  0  0  0  0  0
  -30.1444  -22.4214   18.4791 H   0  0  0  0  0  0
  -28.8093  -21.3297   18.7068 H   0  0  0  0  0  0
  -27.1484  -24.7104   20.0865 H   0  0  0  0  0  0
  -30.8255  -21.9604   21.3685 H   0  0  0  0  0  0
  -29.3122  -21.7294   22.1710 H   0  0  0  0  0  0
  -28.8839  -15.3476   21.1259 H   0  0  0  0  0  0
  1 25  1  0  0  0
  1 30  2  0  0  0
  1 84  1  0  0  0
  2  3  1  0  0  0
  2 25  1  0  0  0
  2 87  1  0  0  0
  2 88  1  0  0  0
  3  4  1  0  0  0
  3 89  1  0  0  0
  3 90  1  0  0  0
  4  5  1  0  0  0
  4 91  1  0  0  0
  4 92  1  0  0  0
  5  6  1  0  0  0
  5 26  1  0  0  0
  5 93  1  0  0  0
  6 25  1  0  0  0
  6 94  1  0  0  0
  6 95  1  0  0  0
  7  8  2  0  0  0
  7 26  1  0  0  0
  7 29  1  0  0  0
  8  9  1  0  0  0
  8 22  1  0  0  0
  9 10  1  0  0  0
  9 27  2  0  0  0
 10 11  2  0  0  0
 10 15  1  0  0  0
 11 12  1  0  0  0
 11 96  1  0  0  0
 12 13  2  0  0  0
 12 97  1  0  0  0
 13 14  1  0  0  0
 13 31  1  0  0  0
 14 15  2  0  0  0
 14 98  1  0  0  0
 15 99  1  0  0  0
 16 17  2  0  0  0
 16 21  1  0  0  0
 16 31  1  0  0  0
 17 18  1  0  0  0
 17100  1  0  0  0
 18 19  2  0  0  0
 18101  1  0  0  0
 19 20  1  0  0  0
 19 24  1  0  0  0
 20 21  2  0  0  0
 20102  1  0  0  0
 21 23  1  0  0  0
 22 28  1  0  0  0
 22 32  2  0  0  0
 26 27  1  0  0  0
 28103  1  0  0  0
 28104  1  0  0  0
 29105  1  0  0  0
 29106  1  0  0  0
 33 34  1  0  0  0
 33 66  1  0  0  0
 33 70  2  0  0  0
 34 36  1  0  0  0
 34 59  1  0  0  0
 34107  1  0  0  0
 35 44  2  0  0  0
 35 45  1  0  0  0
 35 68  1  0  0  0
 36 56  1  0  0  0
 36108  1  0  0  0
 37 39  1  0  0  0
 37 47  1  0  0  0
 37 66  1  0  0  0
 37109  1  0  0  0
 38 43  2  0  0  0
 38 46  1  0  0  0
 38 47  1  0  0  0
 39 64  1  0  0  0
 39 67  2  0  0  0
 40 52  1  0  0  0
 40 53  2  0  0  0
 40 58  1  0  0  0
 41110  1  0  0  0
 41111  1  0  0  0
 41112  1  0  0  0
 41 48  1  0  0  0
 42 43  1  0  0  0
 42 66  1  0  0  0
 42113  1  0  0  0
 42114  1  0  0  0
 43 44  1  0  0  0
 44115  1  0  0  0
 45 46  2  0  0  0
 45116  1  0  0  0
 46117  1  0  0  0
 47118  1  0  0  0
 47119  1  0  0  0
 48 56  1  0  0  0
 48 65  1  0  0  0
 48120  1  0  0  0
 49 50  1  0  0  0
 49 53  1  0  0  0
 49 64  1  0  0  0
 49121  1  0  0  0
 50 51  1  0  0  0
 50122  1  0  0  0
 50123  1  0  0  0
 51 52  1  0  0  0
 51124  1  0  0  0
 51125  1  0  0  0
 52126  1  0  0  0
 52127  1  0  0  0
 53 54  1  0  0  0
 54 55  2  0  0  0
 54128  1  0  0  0
 55 57  1  0  0  0
 55129  1  0  0  0
 56 69  2  0  0  0
 57 58  2  0  0  0
 57130  1  0  0  0
 58131  1  0  0  0
 59 60  1  0  0  0
 59 61  1  0  0  0
 59 62  1  0  0  0
 60132  1  0  0  0
 60133  1  0  0  0
 60134  1  0  0  0
 61135  1  0  0  0
 61136  1  0  0  0
 61137  1  0  0  0
 62138  1  0  0  0
 62139  1  0  0  0
 62140  1  0  0  0
 63 65  1  0  0  0
 63141  1  0  0  0
 63142  1  0  0  0
 63143  1  0  0  0
 64144  1  0  0  0
 65145  1  0  0  0
 68 81  1  0  0  0
 71 72  2  0  0  0
 71 74  1  0  0  0
 71146  1  0  0  0
 72 75  1  0  0  0
 72147  1  0  0  0
 73 74  2  0  0  0
 73 76  1  0  0  0
 73148  1  0  0  0
 74 82  1  0  0  0
 75 76  2  0  0  0
 75 84  1  0  0  0
 76 86  1  0  0  0
 77 81  1  0  0  0
 77 83  1  0  0  0
 77 85  2  0  0  0
 78 79  1  0  0  0
 78 80  1  0  0  0
 78149  1  0  0  0
 78150  1  0  0  0
 79 81  1  0  0  0
 79151  1  0  0  0
 79152  1  0  0  0
 80 83  1  0  0  0
 80153  1  0  0  0
 80154  1  0  0  0
 81155  1  0  0  0
 82 83  1  0  0  0
 82156  1  0  0  0
 82157  1  0  0  0
 84158  1  0  0  0
M  ISO  4   1 100  68 101  81 101  84 100
M  END
> <chiral flag>
0

> <version>
0

> <s_m_source_file>
/data/baiqing/PycharmProjects/Reinvent-master-3.2/result/LINK_invent/BTK/process_docking_weight1_custom_product_contain_oxygen_bond_distance_aromatic_linkinvent_7_9_3/rearranged_h_0044.sdf

> <i_m_source_file_index>
82

> <r_mmod_Potential_Energy-OPLS-2005>
111.147735595703

> <r_mmod_Stretch_Energy-OPLS-2005>
86.4394226074219

> <r_mmod_Bend_Energy-OPLS-2005>
154.273040771484

> <r_mmod_Torsional_Energy-OPLS-2005>
244.592132568359

> <r_mmod_Improper_Torsional_Energy-OPLS-2005>
7.69251155853271

> <r_mmod_Van_der_Waal_Energy-OPLS-2005>
156.322402954102

> <r_mmod_Electrostatic_Energy-OPLS-2005>
-342.929504394531

> <r_mmod_Solvation_Energy-OPLS-2005>
-244.775863647461

> <b_mmod_Minimization_Converged-OPLS-2005>
0

> <r_mmod_RMS_Derivative-OPLS-2005>
0.531130790710449

$$$$
82
                    3D
 Structure written by MMmdl.
161170  0  0  1  0            999 V2000
  -30.6037  -14.7522   20.4475 C   0  0  0  0  0  0
  -30.4289  -12.4568   19.4713 C   0  0  0  0  0  0
  -29.5049  -12.5016   18.2347 C   0  0  0  0  0  0
  -28.0341  -12.3194   18.6552 C   0  0  0  0  0  0
  -27.6378  -13.2284   19.8493 C   0  0  2  0  0  0
  -28.6828  -13.1724   20.9848 C   0  0  0  0  0  0
  -25.2485  -13.8173   20.5676 C   0  0  0  0  0  0
  -24.1788  -13.0427   20.9224 C   0  0  0  0  0  0
  -24.6381  -11.6908   20.8780 C   0  0  0  0  0  0
  -23.9068  -10.4282   21.0427 C   0  0  0  0  0  0
  -24.3620   -9.4197   21.9202 C   0  0  0  0  0  0
  -23.6292   -8.2235   22.0768 C   0  0  0  0  0  0
  -22.4277   -8.0279   21.3554 C   0  0  0  0  0  0
  -21.9910   -9.0253   20.4652 C   0  0  0  0  0  0
  -22.7245  -10.2129   20.3066 C   0  0  0  0  0  0
  -21.6847   -6.0732   22.5278 C   0  0  0  0  0  0
  -21.4010   -6.5640   23.8211 C   0  0  0  0  0  0
  -21.3658   -5.6798   24.9177 C   0  0  0  0  0  0
  -21.6041   -4.3056   24.7225 C   0  0  0  0  0  0
  -21.8825   -3.8144   23.4346 C   0  0  0  0  0  0
  -21.9191   -4.6960   22.3397 C   0  0  0  0  0  0
  -22.7815  -13.5220   21.1874 C   0  0  0  0  0  0
  -22.1662   -4.2146   21.0975 F   0  0  0  0  0  0
  -21.5625   -3.4539   25.7735 F   0  0  0  0  0  0
  -29.9817  -13.5237   20.3977 N   0  0  0  0  0  0
  -26.2913  -12.9379   20.3281 N   0  0  0  0  0  0
  -25.9311  -11.6525   20.5782 N   0  0  0  0  0  0
  -22.0455  -12.8211   22.0423 N   0  0  0  0  0  0
  -25.4139  -15.1884   20.4010 N   0  0  0  0  0  0
  -31.7976  -14.8302   20.1412 O   0  0  0  0  0  0
  -21.6642   -6.8876   21.4244 O   0  0  0  0  0  0
  -22.3508  -14.5530   20.6721 O   0  0  0  0  0  0
  -24.6310  -31.8535   23.1940 C   0  0  0  0  0  0
  -25.9140  -32.4733   23.8290 C   0  0  1  0  0  0
  -27.2211  -27.2565   20.1238 C   0  0  0  0  0  0
  -25.5925  -33.8545   24.2221 N   0  0  0  0  0  0
  -23.4279  -30.4734   21.5376 C   0  0  2  0  0  0
  -24.8726  -28.9171   20.1056 C   0  0  0  0  0  0
  -22.7499  -29.4590   22.4913 C   0  0  0  0  0  0
  -18.0290  -28.1392   22.8500 C   0  0  0  0  0  0
  -24.1495  -36.7266   23.2642 C   0  0  0  0  0  0
  -25.9737  -30.7631   21.3735 C   0  0  0  0  0  0
  -26.0417  -29.3858   20.7142 C   0  0  0  0  0  0
  -27.2148  -28.5666   20.7137 C   0  0  0  0  0  0
  -26.0241  -26.8462   19.4961 C   0  0  0  0  0  0
  -24.8680  -27.6549   19.4883 C   0  0  0  0  0  0
  -23.6434  -29.8038   20.1532 C   0  0  0  0  0  0
  -25.4128  -36.3058   24.0322 C   0  0  1  0  0  0
  -20.5892  -28.3693   23.1273 C   0  0  2  0  0  0
  -20.6792  -26.9411   22.5410 C   0  0  0  0  0  0
  -19.5766  -26.6387   21.5215 C   0  0  0  0  0  0
  -18.1942  -26.7939   22.1621 C   0  0  0  0  0  0
  -19.1547  -28.8864   23.2879 C   0  0  0  0  0  0
  -18.9468  -30.1474   23.8878 C   0  0  0  0  0  0
  -17.6471  -30.6589   24.0577 C   0  0  0  0  0  0
  -25.9061  -34.9431   23.5079 C   0  0  0  0  0  0
  -16.5357  -29.9095   23.6336 C   0  0  0  0  0  0
  -16.7275  -28.6516   23.0353 C   0  0  0  0  0  0
  -26.4503  -31.6578   25.0698 C   0  0  0  0  0  0
  -25.3711  -31.3735   26.1404 C   0  0  0  0  0  0
  -27.0368  -30.3008   24.6199 C   0  0  0  0  0  0
  -27.6049  -32.4334   25.7466 C   0  0  0  0  0  0
  -27.5582  -37.1797   24.8476 C   0  0  0  0  0  0
  -21.4213  -29.3044   22.3676 N   0  0  0  0  0  0
  -26.4298  -37.3767   23.9407 N   0  0  0  0  0  0
  -24.6966  -31.0506   22.0900 N   0  0  0  0  0  0
  -23.4203  -28.8154   23.3024 O   0  0  0  0  0  0
  -28.3409  -26.3991   20.2272 O   0  0  0  0  0  0
  -26.5662  -34.8912   22.4660 O   0  0  0  0  0  0
  -23.5460  -32.1346   23.7242 O   0  0  0  0  0  0
  -31.7982  -19.1432   20.9037 C   0  0  0  0  0  0
  -30.8387  -20.1592   20.7280 C   0  0  0  0  0  0
  -31.4530  -17.7773   20.8491 C   0  0  0  0  0  0
  -29.4898  -19.8531   20.4626 C   0  0  0  0  0  0
  -29.1519  -18.4269   20.3972 C   0  0  0  0  0  0
  -30.1276  -17.3513   20.5989 C   0  0  0  0  0  0
  -28.3005  -23.7052   20.3776 C   0  0  0  0  0  0
  -30.6080  -23.7518   18.6963 C   0  0  0  0  0  0
  -29.9196  -25.1179   18.9125 C   0  0  0  0  0  0
  -29.6169  -22.5723   18.6624 C   0  0  0  0  0  0
  -28.5038  -25.0688   19.5402 C   0  0  2  0  0  0
  -27.7115  -18.0551   20.0862 C   0  0  0  0  0  0
  -28.4502  -21.0695   20.3316 C   0  0  0  0  0  0
  -28.8258  -22.5005   19.8980 N   0  0  0  0  0  0
  -29.8117  -15.8887   20.6092 N   0  0  0  0  0  0
  -27.6229  -23.7468   21.4087 O   0  0  0  0  0  0
  -31.4691  -12.5798   19.1654 H   0  0  0  0  0  0
  -30.3747  -11.4829   19.9598 H   0  0  0  0  0  0
  -29.7893  -11.7262   17.5226 H   0  0  0  0  0  0
  -29.6241  -13.4543   17.7162 H   0  0  0  0  0  0
  -27.9016  -11.2719   18.9318 H   0  0  0  0  0  0
  -27.3704  -12.4934   17.8070 H   0  0  0  0  0  0
  -27.6291  -14.2463   19.4605 H   0  0  0  0  0  0
  -28.7206  -12.1791   21.4323 H   0  0  0  0  0  0
  -28.4158  -13.8594   21.7895 H   0  0  0  0  0  0
  -25.2758   -9.5667   22.4783 H   0  0  0  0  0  0
  -23.9991   -7.4620   22.7483 H   0  0  0  0  0  0
  -21.0842   -8.8775   19.8945 H   0  0  0  0  0  0
  -22.3715  -10.9673   19.6170 H   0  0  0  0  0  0
  -21.2010   -7.6152   23.9714 H   0  0  0  0  0  0
  -21.1473   -6.0525   25.9078 H   0  0  0  0  0  0
  -22.0604   -2.7605   23.2843 H   0  0  0  0  0  0
  -22.4056  -11.9851   22.4779 H   0  0  0  0  0  0
  -21.1088  -13.1252   22.2657 H   0  0  0  0  0  0
  -24.6355  -15.8324   20.4853 H   0  0  0  0  0  0
  -26.2348  -15.6103   19.9908 H   0  0  0  0  0  0
  -26.7210  -32.5366   23.1027 H   0  0  0  0  0  0
  -25.0090  -33.9697   25.0373 H   0  0  0  0  0  0
  -22.7264  -31.2972   21.3900 H   0  0  0  0  0  0
  -23.3765  -35.9583   23.3298 H   0  0  0  0  0  0
  -24.3588  -36.8897   22.2056 H   0  0  0  0  0  0
  -23.7235  -37.6462   23.6676 H   0  0  0  0  0  0
  -26.1217  -31.5254   20.6066 H   0  0  0  0  0  0
  -26.8485  -30.8062   22.0115 H   0  0  0  0  0  0
  -28.1091  -28.9200   21.2062 H   0  0  0  0  0  0
  -25.9371  -25.8705   19.0455 H   0  0  0  0  0  0
  -23.9653  -27.2885   19.0182 H   0  0  0  0  0  0
  -23.7691  -30.5777   19.3938 H   0  0  0  0  0  0
  -22.7600  -29.2380   19.8501 H   0  0  0  0  0  0
  -25.1315  -36.1890   25.0817 H   0  0  0  0  0  0
  -20.9989  -28.3247   24.1385 H   0  0  0  0  0  0
  -20.5715  -26.2293   23.3611 H   0  0  0  0  0  0
  -21.6658  -26.7462   22.1183 H   0  0  0  0  0  0
  -19.6929  -25.6296   21.1245 H   0  0  0  0  0  0
  -19.6690  -27.3216   20.6755 H   0  0  0  0  0  0
  -17.4224  -26.6697   21.4016 H   0  0  0  0  0  0
  -18.0321  -26.0082   22.9006 H   0  0  0  0  0  0
  -19.7948  -30.7321   24.2207 H   0  0  0  0  0  0
  -17.5016  -31.6256   24.5209 H   0  0  0  0  0  0
  -15.5358  -30.2999   23.7679 H   0  0  0  0  0  0
  -15.8671  -28.0843   22.7052 H   0  0  0  0  0  0
  -24.5885  -30.7095   25.7729 H   0  0  0  0  0  0
  -24.8889  -32.2907   26.4806 H   0  0  0  0  0  0
  -25.7990  -30.8921   27.0199 H   0  0  0  0  0  0
  -26.2959  -29.6747   24.1231 H   0  0  0  0  0  0
  -27.4092  -29.7289   25.4703 H   0  0  0  0  0  0
  -27.8803  -30.4322   23.9416 H   0  0  0  0  0  0
  -27.2664  -33.3673   26.1978 H   0  0  0  0  0  0
  -28.3877  -32.6852   25.0291 H   0  0  0  0  0  0
  -28.0704  -31.8506   26.5429 H   0  0  0  0  0  0
  -28.2612  -38.0093   24.7532 H   0  0  0  0  0  0
  -28.1073  -36.2626   24.6286 H   0  0  0  0  0  0
  -27.2306  -37.1419   25.8886 H   0  0  0  0  0  0
  -20.9406  -29.8725   21.6843 H   0  0  0  0  0  0
  -26.0162  -38.2835   24.1403 H   0  0  0  0  0  0
  -32.8237  -19.4185   21.1025 H   0  0  0  0  0  0
  -31.1529  -21.1904   20.8117 H   0  0  0  0  0  0
  -32.2402  -17.0602   21.0269 H   0  0  0  0  0  0
  -31.3234  -23.5840   19.5039 H   0  0  0  0  0  0
  -31.1996  -23.7740   17.7798 H   0  0  0  0  0  0
  -29.8435  -25.6354   17.9560 H   0  0  0  0  0  0
  -30.5759  -25.7408   19.5217 H   0  0  0  0  0  0
  -30.1626  -21.6436   18.4981 H   0  0  0  0  0  0
  -28.9424  -22.6766   17.8107 H   0  0  0  0  0  0
  -27.8103  -24.9948   18.7042 H   0  0  0  0  0  0
  -27.0378  -18.4714   20.8347 H   0  0  0  0  0  0
  -27.5527  -16.9801   20.0576 H   0  0  0  0  0  0
  -27.4258  -18.4448   19.1082 H   0  0  0  0  0  0
  -27.9309  -21.1312   21.2889 H   0  0  0  0  0  0
  -27.6820  -20.7577   19.6243 H   0  0  0  0  0  0
  -28.8356  -15.6712   20.7319 H   0  0  0  0  0  0
  1 25  1  0  0  0
  1 30  2  0  0  0
  1 85  1  0  0  0
  2  3  1  0  0  0
  2 25  1  0  0  0
  2 87  1  0  0  0
  2 88  1  0  0  0
  3  4  1  0  0  0
  3 89  1  0  0  0
  3 90  1  0  0  0
  4  5  1  0  0  0
  4 91  1  0  0  0
  4 92  1  0  0  0
  5  6  1  0  0  0
  5 26  1  0  0  0
  5 93  1  0  0  0
  6 25  1  0  0  0
  6 94  1  0  0  0
  6 95  1  0  0  0
  7  8  2  0  0  0
  7 26  1  0  0  0
  7 29  1  0  0  0
  8  9  1  0  0  0
  8 22  1  0  0  0
  9 10  1  0  0  0
  9 27  2  0  0  0
 10 11  2  0  0  0
 10 15  1  0  0  0
 11 12  1  0  0  0
 11 96  1  0  0  0
 12 13  2  0  0  0
 12 97  1  0  0  0
 13 14  1  0  0  0
 13 31  1  0  0  0
 14 15  2  0  0  0
 14 98  1  0  0  0
 15 99  1  0  0  0
 16 17  2  0  0  0
 16 21  1  0  0  0
 16 31  1  0  0  0
 17 18  1  0  0  0
 17100  1  0  0  0
 18 19  2  0  0  0
 18101  1  0  0  0
 19 20  1  0  0  0
 19 24  1  0  0  0
 20 21  2  0  0  0
 20102  1  0  0  0
 21 23  1  0  0  0
 22 28  1  0  0  0
 22 32  2  0  0  0
 26 27  1  0  0  0
 28103  1  0  0  0
 28104  1  0  0  0
 29105  1  0  0  0
 29106  1  0  0  0
 33 34  1  0  0  0
 33 66  1  0  0  0
 33 70  2  0  0  0
 34 36  1  0  0  0
 34 59  1  0  0  0
 34107  1  0  0  0
 35 44  2  0  0  0
 35 45  1  0  0  0
 35 68  1  0  0  0
 36 56  1  0  0  0
 36108  1  0  0  0
 37 39  1  0  0  0
 37 47  1  0  0  0
 37 66  1  0  0  0
 37109  1  0  0  0
 38 43  2  0  0  0
 38 46  1  0  0  0
 38 47  1  0  0  0
 39 64  1  0  0  0
 39 67  2  0  0  0
 40 52  1  0  0  0
 40 53  2  0  0  0
 40 58  1  0  0  0
 41110  1  0  0  0
 41111  1  0  0  0
 41112  1  0  0  0
 41 48  1  0  0  0
 42 43  1  0  0  0
 42 66  1  0  0  0
 42113  1  0  0  0
 42114  1  0  0  0
 43 44  1  0  0  0
 44115  1  0  0  0
 45 46  2  0  0  0
 45116  1  0  0  0
 46117  1  0  0  0
 47118  1  0  0  0
 47119  1  0  0  0
 48 56  1  0  0  0
 48 65  1  0  0  0
 48120  1  0  0  0
 49 50  1  0  0  0
 49 53  1  0  0  0
 49 64  1  0  0  0
 49121  1  0  0  0
 50 51  1  0  0  0
 50122  1  0  0  0
 50123  1  0  0  0
 51 52  1  0  0  0
 51124  1  0  0  0
 51125  1  0  0  0
 52126  1  0  0  0
 52127  1  0  0  0
 53 54  1  0  0  0
 54 55  2  0  0  0
 54128  1  0  0  0
 55 57  1  0  0  0
 55129  1  0  0  0
 56 69  2  0  0  0
 57 58  2  0  0  0
 57130  1  0  0  0
 58131  1  0  0  0
 59 60  1  0  0  0
 59 61  1  0  0  0
 59 62  1  0  0  0
 60132  1  0  0  0
 60133  1  0  0  0
 60134  1  0  0  0
 61135  1  0  0  0
 61136  1  0  0  0
 61137  1  0  0  0
 62138  1  0  0  0
 62139  1  0  0  0
 62140  1  0  0  0
 63 65  1  0  0  0
 63141  1  0  0  0
 63142  1  0  0  0
 63143  1  0  0  0
 64144  1  0  0  0
 65145  1  0  0  0
 68 81  1  0  0  0
 71 72  2  0  0  0
 71 73  1  0  0  0
 71146  1  0  0  0
 72 74  1  0  0  0
 72147  1  0  0  0
 73 76  2  0  0  0
 73148  1  0  0  0
 74 75  2  0  0  0
 74 83  1  0  0  0
 75 76  1  0  0  0
 75 82  1  0  0  0
 76 85  1  0  0  0
 77 81  1  0  0  0
 77 84  1  0  0  0
 77 86  2  0  0  0
 78 79  1  0  0  0
 78 80  1  0  0  0
 78149  1  0  0  0
 78150  1  0  0  0
 79 81  1  0  0  0
 79151  1  0  0  0
 79152  1  0  0  0
 80 84  1  0  0  0
 80153  1  0  0  0
 80154  1  0  0  0
 81155  1  0  0  0
 82156  1  0  0  0
 82157  1  0  0  0
 82158  1  0  0  0
 83 84  1  0  0  0
 83159  1  0  0  0
 83160  1  0  0  0
 85161  1  0  0  0
M  ISO  4   1 100  68 101  81 101  85 100
M  END
> <chiral flag>
0

> <version>
0

> <s_m_source_file>
/data/baiqing/PycharmProjects/Reinvent-master-3.2/result/LINK_invent/BTK/process_docking_weight1_custom_product_contain_oxygen_bond_distance_aromatic_linkinvent_7_9_3/rearranged_h_0044.sdf

> <i_m_source_file_index>
83

> <r_mmod_Potential_Energy-OPLS-2005>
220.310195922852

> <r_mmod_Stretch_Energy-OPLS-2005>
139.211883544922

> <r_mmod_Bend_Energy-OPLS-2005>
176.576812744141

> <r_mmod_Torsional_Energy-OPLS-2005>
242.835494995117

> <r_mmod_Improper_Torsional_Energy-OPLS-2005>
6.75346612930298

> <r_mmod_Van_der_Waal_Energy-OPLS-2005>
147.470001220703

> <r_mmod_Electrostatic_Energy-OPLS-2005>
-345.661926269531

> <r_mmod_Solvation_Energy-OPLS-2005>
-234.506744384766

> <b_mmod_Minimization_Converged-OPLS-2005>
0

> <r_mmod_RMS_Derivative-OPLS-2005>
2.37469029426575

$$$$
83
                    3D
 Structure written by MMmdl.
167176  0  0  1  0            999 V2000
  -30.6266  -14.7225   20.4759 C   0  0  0  0  0  0
  -30.4292  -12.4436   19.4671 C   0  0  0  0  0  0
  -29.5065  -12.5067   18.2313 C   0  0  0  0  0  0
  -28.0330  -12.3342   18.6462 C   0  0  0  0  0  0
  -27.6419  -13.2308   19.8513 C   0  0  2  0  0  0
  -28.6877  -13.1579   20.9857 C   0  0  0  0  0  0
  -25.2503  -13.8185   20.5695 C   0  0  0  0  0  0
  -24.1804  -13.0431   20.9223 C   0  0  0  0  0  0
  -24.6400  -11.6914   20.8759 C   0  0  0  0  0  0
  -23.9076  -10.4293   21.0416 C   0  0  0  0  0  0
  -24.3626   -9.4205   21.9190 C   0  0  0  0  0  0
  -23.6302   -8.2238   22.0756 C   0  0  0  0  0  0
  -22.4282   -8.0283   21.3549 C   0  0  0  0  0  0
  -21.9922   -9.0255   20.4649 C   0  0  0  0  0  0
  -22.7251  -10.2134   20.3061 C   0  0  0  0  0  0
  -21.6851   -6.0738   22.5281 C   0  0  0  0  0  0
  -21.4010   -6.5642   23.8214 C   0  0  0  0  0  0
  -21.3661   -5.6796   24.9177 C   0  0  0  0  0  0
  -21.6043   -4.3058   24.7227 C   0  0  0  0  0  0
  -21.8820   -3.8152   23.4349 C   0  0  0  0  0  0
  -21.9193   -4.6966   22.3404 C   0  0  0  0  0  0
  -22.7826  -13.5214   21.1878 C   0  0  0  0  0  0
  -22.1660   -4.2154   21.0980 F   0  0  0  0  0  0
  -21.5632   -3.4542   25.7739 F   0  0  0  0  0  0
  -29.9890  -13.5049   20.4016 N   0  0  0  0  0  0
  -26.2937  -12.9400   20.3285 N   0  0  0  0  0  0
  -25.9330  -11.6545   20.5761 N   0  0  0  0  0  0
  -22.0470  -12.8200   22.0428 N   0  0  0  0  0  0
  -25.4154  -15.1905   20.4072 N   0  0  0  0  0  0
  -31.8152  -14.8002   20.1515 O   0  0  0  0  0  0
  -21.6640   -6.8884   21.4246 O   0  0  0  0  0  0
  -22.3513  -14.5523   20.6732 O   0  0  0  0  0  0
  -24.6315  -31.8547   23.1977 C   0  0  0  0  0  0
  -25.9145  -32.4740   23.8322 C   0  0  1  0  0  0
  -27.2206  -27.2629   20.1198 C   0  0  0  0  0  0
  -25.5952  -33.8545   24.2252 N   0  0  0  0  0  0
  -23.4262  -30.4778   21.5415 C   0  0  2  0  0  0
  -24.8711  -28.9239   20.1097 C   0  0  0  0  0  0
  -22.7493  -29.4607   22.4916 C   0  0  0  0  0  0
  -18.0288  -28.1371   22.8482 C   0  0  0  0  0  0
  -24.1498  -36.7278   23.2642 C   0  0  0  0  0  0
  -25.9729  -30.7665   21.3779 C   0  0  0  0  0  0
  -26.0426  -29.3906   20.7164 C   0  0  0  0  0  0
  -27.2160  -28.5727   20.7101 C   0  0  0  0  0  0
  -26.0187  -26.8574   19.4946 C   0  0  0  0  0  0
  -24.8649  -27.6653   19.4902 C   0  0  0  0  0  0
  -23.6420  -29.8103   20.1580 C   0  0  0  0  0  0
  -25.4124  -36.3059   24.0324 C   0  0  1  0  0  0
  -20.5892  -28.3693   23.1270 C   0  0  2  0  0  0
  -20.6782  -26.9413   22.5410 C   0  0  0  0  0  0
  -19.5755  -26.6373   21.5218 C   0  0  0  0  0  0
  -18.1931  -26.7913   22.1621 C   0  0  0  0  0  0
  -19.1541  -28.8849   23.2866 C   0  0  0  0  0  0
  -18.9464  -30.1452   23.8876 C   0  0  0  0  0  0
  -17.6464  -30.6578   24.0557 C   0  0  0  0  0  0
  -25.9063  -34.9431   23.5084 C   0  0  0  0  0  0
  -16.5354  -29.9069   23.6338 C   0  0  0  0  0  0
  -16.7277  -28.6487   23.0358 C   0  0  0  0  0  0
  -26.4513  -31.6567   25.0715 C   0  0  0  0  0  0
  -25.3735  -31.3718   26.1436 C   0  0  0  0  0  0
  -27.0384  -30.2982   24.6228 C   0  0  0  0  0  0
  -27.6055  -32.4329   25.7482 C   0  0  0  0  0  0
  -27.5578  -37.1793   24.8460 C   0  0  0  0  0  0
  -21.4205  -29.3041   22.3655 N   0  0  0  0  0  0
  -26.4291  -37.3762   23.9402 N   0  0  0  0  0  0
  -24.6957  -31.0515   22.0947 N   0  0  0  0  0  0
  -23.4198  -28.8161   23.3023 O   0  0  0  0  0  0
  -28.3481  -26.4118   20.2004 O   0  0  0  0  0  0
  -26.5632  -34.8906   22.4654 O   0  0  0  0  0  0
  -23.5473  -32.1382   23.7282 O   0  0  0  0  0  0
  -31.9175  -18.9540   21.4635 C   0  0  0  0  0  0
  -31.5282  -17.6253   21.2289 C   0  0  0  0  0  0
  -31.0301  -20.0390   21.3064 C   0  0  0  0  0  0
  -29.6991  -19.8292   20.8494 C   0  0  0  0  0  0
  -29.3172  -18.4325   20.6073 C   0  0  0  0  0  0
  -30.2227  -17.2989   20.8060 C   0  0  0  0  0  0
  -28.3897  -23.7964   20.7035 C   0  0  0  0  0  0
  -27.9000  -23.9290   21.9496 C   0  0  0  0  0  0
  -29.9630  -23.5839   18.1575 C   0  0  0  0  0  0
  -29.7145  -24.9422   18.8511 C   0  0  0  0  0  0
  -29.1909  -22.3880   18.7567 C   0  0  0  0  0  0
  -28.4168  -25.0045   19.6711 C   0  0  2  0  0  0
  -31.5497  -21.4139   21.7031 C   0  0  0  0  0  0
  -27.8935  -18.1475   20.1538 C   0  0  0  0  0  0
  -28.6882  -21.0814   20.8095 C   0  0  0  0  0  0
  -29.8544  -15.8612   20.6797 N   0  0  0  0  0  0
  -29.0969  -22.4572   20.2328 N   0  3  2  0  0  0
  -31.4707  -12.5624   19.1630 H   0  0  0  0  0  0
  -30.3668  -11.4654   19.9461 H   0  0  0  0  0  0
  -29.7845  -11.7366   17.5101 H   0  0  0  0  0  0
  -29.6363  -13.4636   17.7228 H   0  0  0  0  0  0
  -27.8879  -11.2849   18.9050 H   0  0  0  0  0  0
  -27.3753  -12.5311   17.7988 H   0  0  0  0  0  0
  -27.6374  -14.2535   19.4743 H   0  0  0  0  0  0
  -28.7192  -12.1587   21.4218 H   0  0  0  0  0  0
  -28.4276  -13.8386   21.7982 H   0  0  0  0  0  0
  -25.2768   -9.5673   22.4772 H   0  0  0  0  0  0
  -24.0006   -7.4625   22.7476 H   0  0  0  0  0  0
  -21.0853   -8.8781   19.8953 H   0  0  0  0  0  0
  -22.3716  -10.9678   19.6175 H   0  0  0  0  0  0
  -21.1999   -7.6149   23.9719 H   0  0  0  0  0  0
  -21.1482   -6.0526   25.9080 H   0  0  0  0  0  0
  -22.0597   -2.7615   23.2849 H   0  0  0  0  0  0
  -22.4089  -11.9855   22.4803 H   0  0  0  0  0  0
  -21.1087  -13.1221   22.2637 H   0  0  0  0  0  0
  -24.6379  -15.8344   20.5035 H   0  0  0  0  0  0
  -26.2413  -15.6228   20.0183 H   0  0  0  0  0  0
  -26.7209  -32.5380   23.1058 H   0  0  0  0  0  0
  -25.0122  -33.9684   25.0412 H   0  0  0  0  0  0
  -22.7231  -31.3003   21.3952 H   0  0  0  0  0  0
  -23.3762  -35.9606   23.3292 H   0  0  0  0  0  0
  -24.3590  -36.8920   22.2059 H   0  0  0  0  0  0
  -23.7256  -37.6474   23.6683 H   0  0  0  0  0  0
  -26.1182  -31.5298   20.6121 H   0  0  0  0  0  0
  -26.8476  -30.8084   22.0151 H   0  0  0  0  0  0
  -28.1140  -28.9269   21.1967 H   0  0  0  0  0  0
  -25.9124  -25.8953   19.0222 H   0  0  0  0  0  0
  -23.9643  -27.2987   19.0174 H   0  0  0  0  0  0
  -23.7634  -30.5851   19.4003 H   0  0  0  0  0  0
  -22.7599  -29.2426   19.8567 H   0  0  0  0  0  0
  -25.1310  -36.1898   25.0817 H   0  0  0  0  0  0
  -20.9985  -28.3273   24.1390 H   0  0  0  0  0  0
  -20.5700  -26.2300   23.3613 H   0  0  0  0  0  0
  -21.6648  -26.7436   22.1195 H   0  0  0  0  0  0
  -19.6923  -25.6282   21.1245 H   0  0  0  0  0  0
  -19.6689  -27.3184   20.6748 H   0  0  0  0  0  0
  -17.4210  -26.6679   21.4009 H   0  0  0  0  0  0
  -18.0309  -26.0040   22.8998 H   0  0  0  0  0  0
  -19.7943  -30.7276   24.2229 H   0  0  0  0  0  0
  -17.5017  -31.6255   24.5162 H   0  0  0  0  0  0
  -15.5354  -30.2966   23.7667 H   0  0  0  0  0  0
  -15.8677  -28.0804   22.7082 H   0  0  0  0  0  0
  -24.5920  -30.7050   25.7769 H   0  0  0  0  0  0
  -24.8914  -32.2885   26.4841 H   0  0  0  0  0  0
  -25.8058  -30.8915   27.0224 H   0  0  0  0  0  0
  -26.2986  -29.6688   24.1267 H   0  0  0  0  0  0
  -27.4075  -29.7285   25.4767 H   0  0  0  0  0  0
  -27.8850  -30.4251   23.9478 H   0  0  0  0  0  0
  -27.2657  -33.3650   26.2012 H   0  0  0  0  0  0
  -28.3879  -32.6862   25.0311 H   0  0  0  0  0  0
  -28.0707  -31.8487   26.5436 H   0  0  0  0  0  0
  -28.2585  -38.0099   24.7522 H   0  0  0  0  0  0
  -28.1090  -36.2631   24.6278 H   0  0  0  0  0  0
  -27.2293  -37.1427   25.8861 H   0  0  0  0  0  0
  -20.9393  -29.8752   21.6847 H   0  0  0  0  0  0
  -26.0166  -38.2833   24.1400 H   0  0  0  0  0  0
  -32.9246  -19.1314   21.8165 H   0  0  0  0  0  0
  -32.2596  -16.8550   21.4249 H   0  0  0  0  0  0
  -27.4640  -24.8684   22.2600 H   0  0  0  0  0  0
  -27.9195  -23.1406   22.6852 H   0  0  0  0  0  0
  -31.0336  -23.3746   18.1726 H   0  0  0  0  0  0
  -29.6986  -23.6615   17.1019 H   0  0  0  0  0  0
  -29.7205  -25.7348   18.1015 H   0  0  0  0  0  0
  -30.5505  -25.1624   19.5164 H   0  0  0  0  0  0
  -29.6739  -21.4595   18.4473 H   0  0  0  0  0  0
  -28.1791  -22.3545   18.3495 H   0  0  0  0  0  0
  -27.6156  -24.8134   18.9634 H   0  0  0  0  0  0
  -32.5030  -21.3371   22.2279 H   0  0  0  0  0  0
  -30.8646  -21.9166   22.3869 H   0  0  0  0  0  0
  -31.7223  -22.0398   20.8279 H   0  0  0  0  0  0
  -27.6810  -18.6698   19.2205 H   0  0  0  0  0  0
  -27.1789  -18.4788   20.9075 H   0  0  0  0  0  0
  -27.7122  -17.0902   19.9724 H   0  0  0  0  0  0
  -28.4182  -21.2214   21.8538 H   0  0  0  0  0  0
  -27.7564  -20.7922   20.3260 H   0  0  0  0  0  0
  -28.8693  -15.6659   20.7600 H   0  0  0  0  0  0
  -30.0563  -22.5324   20.5357 H   0  0  0  0  0  0
  1 25  1  0  0  0
  1 30  2  0  0  0
  1 86  1  0  0  0
  2  3  1  0  0  0
  2 25  1  0  0  0
  2 88  1  0  0  0
  2 89  1  0  0  0
  3  4  1  0  0  0
  3 90  1  0  0  0
  3 91  1  0  0  0
  4  5  1  0  0  0
  4 92  1  0  0  0
  4 93  1  0  0  0
  5  6  1  0  0  0
  5 26  1  0  0  0
  5 94  1  0  0  0
  6 25  1  0  0  0
  6 95  1  0  0  0
  6 96  1  0  0  0
  7  8  2  0  0  0
  7 26  1  0  0  0
  7 29  1  0  0  0
  8  9  1  0  0  0
  8 22  1  0  0  0
  9 10  1  0  0  0
  9 27  2  0  0  0
 10 11  2  0  0  0
 10 15  1  0  0  0
 11 12  1  0  0  0
 11 97  1  0  0  0
 12 13  2  0  0  0
 12 98  1  0  0  0
 13 14  1  0  0  0
 13 31  1  0  0  0
 14 15  2  0  0  0
 14 99  1  0  0  0
 15100  1  0  0  0
 16 17  2  0  0  0
 16 21  1  0  0  0
 16 31  1  0  0  0
 17 18  1  0  0  0
 17101  1  0  0  0
 18 19  2  0  0  0
 18102  1  0  0  0
 19 20  1  0  0  0
 19 24  1  0  0  0
 20 21  2  0  0  0
 20103  1  0  0  0
 21 23  1  0  0  0
 22 28  1  0  0  0
 22 32  2  0  0  0
 26 27  1  0  0  0
 28104  1  0  0  0
 28105  1  0  0  0
 29106  1  0  0  0
 29107  1  0  0  0
 33 34  1  0  0  0
 33 66  1  0  0  0
 33 70  2  0  0  0
 34 36  1  0  0  0
 34 59  1  0  0  0
 34108  1  0  0  0
 35 44  2  0  0  0
 35 45  1  0  0  0
 35 68  1  0  0  0
 36 56  1  0  0  0
 36109  1  0  0  0
 37 39  1  0  0  0
 37 47  1  0  0  0
 37 66  1  0  0  0
 37110  1  0  0  0
 38 43  2  0  0  0
 38 46  1  0  0  0
 38 47  1  0  0  0
 39 64  1  0  0  0
 39 67  2  0  0  0
 40 52  1  0  0  0
 40 53  2  0  0  0
 40 58  1  0  0  0
 41111  1  0  0  0
 41112  1  0  0  0
 41113  1  0  0  0
 41 48  1  0  0  0
 42 43  1  0  0  0
 42 66  1  0  0  0
 42114  1  0  0  0
 42115  1  0  0  0
 43 44  1  0  0  0
 44116  1  0  0  0
 45 46  2  0  0  0
 45117  1  0  0  0
 46118  1  0  0  0
 47119  1  0  0  0
 47120  1  0  0  0
 48 56  1  0  0  0
 48 65  1  0  0  0
 48121  1  0  0  0
 49 50  1  0  0  0
 49 53  1  0  0  0
 49 64  1  0  0  0
 49122  1  0  0  0
 50 51  1  0  0  0
 50123  1  0  0  0
 50124  1  0  0  0
 51 52  1  0  0  0
 51125  1  0  0  0
 51126  1  0  0  0
 52127  1  0  0  0
 52128  1  0  0  0
 53 54  1  0  0  0
 54 55  2  0  0  0
 54129  1  0  0  0
 55 57  1  0  0  0
 55130  1  0  0  0
 56 69  2  0  0  0
 57 58  2  0  0  0
 57131  1  0  0  0
 58132  1  0  0  0
 59 60  1  0  0  0
 59 61  1  0  0  0
 59 62  1  0  0  0
 60133  1  0  0  0
 60134  1  0  0  0
 60135  1  0  0  0
 61136  1  0  0  0
 61137  1  0  0  0
 61138  1  0  0  0
 62139  1  0  0  0
 62140  1  0  0  0
 62141  1  0  0  0
 63 65  1  0  0  0
 63142  1  0  0  0
 63143  1  0  0  0
 63144  1  0  0  0
 64145  1  0  0  0
 65146  1  0  0  0
 68 82  1  0  0  0
 71 72  2  0  0  0
 71 73  1  0  0  0
 71147  1  0  0  0
 72 76  1  0  0  0
 72148  1  0  0  0
 73 74  2  0  0  0
 73 83  1  0  0  0
 74 75  1  0  0  0
 74 85  1  0  0  0
 75 76  2  0  0  0
 75 84  1  0  0  0
 76 86  1  0  0  0
 77 78  2  0  0  0
 77 82  1  0  0  0
 77 87  1  0  0  0
 78149  1  0  0  0
 78150  1  0  0  0
 79 80  1  0  0  0
 79 81  1  0  0  0
 79151  1  0  0  0
 79152  1  0  0  0
 80 82  1  0  0  0
 80153  1  0  0  0
 80154  1  0  0  0
 81 87  1  0  0  0
 81155  1  0  0  0
 81156  1  0  0  0
 82157  1  0  0  0
 83158  1  0  0  0
 83159  1  0  0  0
 83160  1  0  0  0
 84161  1  0  0  0
 84162  1  0  0  0
 84163  1  0  0  0
 85164  1  0  0  0
 85165  1  0  0  0
 85 87  1  0  0  0
 86166  1  0  0  0
 87167  1  0  0  0
M  CHG  1  87   1
M  ISO  4   1 100  68 101  82 101  86 100
M  END
> <chiral flag>
0

> <version>
0

> <s_m_source_file>
/data/baiqing/PycharmProjects/Reinvent-master-3.2/result/LINK_invent/BTK/process_docking_weight1_custom_product_contain_oxygen_bond_distance_aromatic_linkinvent_7_9_3/rearranged_h_0044.sdf

> <i_m_source_file_index>
84

> <r_mmod_Potential_Energy-OPLS-2005>
64.0362243652344

> <r_mmod_Stretch_Energy-OPLS-2005>
137.16618347168

> <r_mmod_Bend_Energy-OPLS-2005>
179.188522338867

> <r_mmod_Torsional_Energy-OPLS-2005>
234.627151489258

> <r_mmod_Improper_Torsional_Energy-OPLS-2005>
6.62844324111938

> <r_mmod_Van_der_Waal_Energy-OPLS-2005>
148.297149658203

> <r_mmod_Electrostatic_Energy-OPLS-2005>
-288.520874023438

> <r_mmod_Solvation_Energy-OPLS-2005>
-430.1962890625

> <b_mmod_Minimization_Converged-OPLS-2005>
0

> <r_mmod_RMS_Derivative-OPLS-2005>
0.978791773319244

$$$$
84
                    3D
 Structure written by MMmdl.
163171  0  0  1  0            999 V2000
  -30.7317  -14.4509   20.5642 C   0  0  0  0  0  0
  -30.4121  -12.2966   19.4212 C   0  0  0  0  0  0
  -29.4887  -12.4940   18.2030 C   0  0  0  0  0  0
  -28.0108  -12.3592   18.6181 C   0  0  0  0  0  0
  -27.6565  -13.2103   19.8677 C   0  0  2  0  0  0
  -28.6994  -13.0155   20.9909 C   0  0  0  0  0  0
  -25.2566  -13.8170   20.5678 C   0  0  0  0  0  0
  -24.1828  -13.0438   20.9181 C   0  0  0  0  0  0
  -24.6384  -11.6911   20.8733 C   0  0  0  0  0  0
  -23.9056  -10.4294   21.0407 C   0  0  0  0  0  0
  -24.3609   -9.4209   21.9183 C   0  0  0  0  0  0
  -23.6288   -8.2244   22.0750 C   0  0  0  0  0  0
  -22.4271   -8.0278   21.3543 C   0  0  0  0  0  0
  -21.9905   -9.0250   20.4644 C   0  0  0  0  0  0
  -22.7229  -10.2133   20.3056 C   0  0  0  0  0  0
  -21.6856   -6.0732   22.5278 C   0  0  0  0  0  0
  -21.4012   -6.5638   23.8211 C   0  0  0  0  0  0
  -21.3657   -5.6794   24.9175 C   0  0  0  0  0  0
  -21.6044   -4.3054   24.7229 C   0  0  0  0  0  0
  -21.8820   -3.8146   23.4351 C   0  0  0  0  0  0
  -21.9191   -4.6960   22.3405 C   0  0  0  0  0  0
  -22.7851  -13.5235   21.1849 C   0  0  0  0  0  0
  -22.1663   -4.2144   21.0983 F   0  0  0  0  0  0
  -21.5628   -3.4540   25.7742 F   0  0  0  0  0  0
  -30.0276  -13.2977   20.4271 N   0  0  0  0  0  0
  -26.2998  -12.9346   20.3345 N   0  0  0  0  0  0
  -25.9311  -11.6505   20.5764 N   0  0  0  0  0  0
  -22.0495  -12.8224   22.0405 N   0  0  0  0  0  0
  -25.4291  -15.1885   20.4089 N   0  0  0  0  0  0
  -31.8929  -14.5600   20.1750 O   0  0  0  0  0  0
  -21.6639   -6.8875   21.4242 O   0  0  0  0  0  0
  -22.3539  -14.5546   20.6701 O   0  0  0  0  0  0
  -24.6127  -31.8707   23.2107 C   0  0  0  0  0  0
  -25.9034  -32.4835   23.8400 C   0  0  1  0  0  0
  -27.2328  -27.4479   20.1043 C   0  0  0  0  0  0
  -25.5901  -33.8627   24.2334 N   0  0  0  0  0  0
  -23.4001  -30.4931   21.5512 C   0  0  2  0  0  0
  -24.8477  -28.9567   20.1181 C   0  0  0  0  0  0
  -22.7404  -29.4675   22.5006 C   0  0  0  0  0  0
  -18.0268  -28.1358   22.8499 C   0  0  0  0  0  0
  -24.1488  -36.7316   23.2644 C   0  0  0  0  0  0
  -25.9268  -30.8396   21.3621 C   0  0  0  0  0  0
  -26.0050  -29.4721   20.7162 C   0  0  0  0  0  0
  -27.2027  -28.7226   20.7104 C   0  0  0  0  0  0
  -26.0662  -26.9430   19.4966 C   0  0  0  0  0  0
  -24.8713  -27.6892   19.5085 C   0  0  0  0  0  0
  -23.6078  -29.8227   20.1661 C   0  0  0  0  0  0
  -25.4106  -36.3121   24.0344 C   0  0  1  0  0  0
  -20.5861  -28.3647   23.1324 C   0  0  2  0  0  0
  -20.6760  -26.9388   22.5416 C   0  0  0  0  0  0
  -19.5736  -26.6377   21.5213 C   0  0  0  0  0  0
  -18.1911  -26.7903   22.1623 C   0  0  0  0  0  0
  -19.1519  -28.8816   23.2907 C   0  0  0  0  0  0
  -18.9449  -30.1425   23.8915 C   0  0  0  0  0  0
  -17.6455  -30.6575   24.0565 C   0  0  0  0  0  0
  -25.9031  -34.9484   23.5137 C   0  0  0  0  0  0
  -16.5344  -29.9079   23.6327 C   0  0  0  0  0  0
  -16.7261  -28.6489   23.0358 C   0  0  0  0  0  0
  -26.4467  -31.6600   25.0719 C   0  0  0  0  0  0
  -25.3736  -31.3681   26.1471 C   0  0  0  0  0  0
  -27.0304  -30.3056   24.6069 C   0  0  0  0  0  0
  -27.6056  -32.4312   25.7473 C   0  0  0  0  0  0
  -27.5578  -37.1818   24.8472 C   0  0  0  0  0  0
  -21.4134  -29.3028   22.3739 N   0  0  0  0  0  0
  -26.4301  -37.3797   23.9403 N   0  0  0  0  0  0
  -24.6649  -31.0820   22.1002 N   0  0  0  0  0  0
  -23.4187  -28.8230   23.3050 O   0  0  0  0  0  0
  -28.3915  -26.7105   20.0614 O   0  0  0  0  0  0
  -26.5600  -34.8939   22.4700 O   0  0  0  0  0  0
  -23.5323  -32.1461   23.7509 O   0  0  0  0  0  0
  -31.6751  -17.3719   18.9496 C   0  0  0  0  0  0
  -30.8949  -18.9770   17.3183 C   0  0  0  0  0  0
  -30.6370  -17.7139   19.8476 C   0  0  0  0  0  0
  -29.7626  -18.7962   19.4997 C   0  0  0  0  0  0
  -31.8072  -17.9872   17.6977 C   0  0  0  0  0  0
  -29.8872  -19.3843   18.2078 C   0  0  0  0  0  0
  -28.4085  -21.8535   20.7963 C   0  0  0  0  0  0
  -30.3721  -20.7118   21.7854 C   0  0  0  0  0  0
  -30.5610  -16.8955   21.1515 C   0  0  0  0  0  0
  -28.7283  -19.3919   20.4730 C   0  0  0  0  0  0
  -28.9388  -23.2137   21.2815 C   0  0  0  0  0  0
  -28.5567  -25.7753   21.0984 C   0  0  0  0  0  0
  -30.0432  -15.5220   21.0002 N   0  0  0  0  0  0
  -29.1247  -20.7157   21.0125 N   0  0  0  0  0  0
  -28.3864  -24.3183   20.4622 N   0  3  0  0  0  0
  -27.3191  -21.8532   20.2163 O   0  0  0  0  0  0
  -33.0801  -17.5193   16.6304 Cl  0  0  0  0  0  0
  -28.8180  -20.6230   17.6523 Cl  0  0  0  0  0  0
  -31.4576  -12.3791   19.1180 H   0  0  0  0  0  0
  -30.3001  -11.2920   19.8312 H   0  0  0  0  0  0
  -29.7266  -11.7645   17.4275 H   0  0  0  0  0  0
  -29.6599  -13.4776   17.7620 H   0  0  0  0  0  0
  -27.8220  -11.3049   18.8230 H   0  0  0  0  0  0
  -27.3600  -12.6262   17.7849 H   0  0  0  0  0  0
  -27.6948  -14.2544   19.5559 H   0  0  0  0  0  0
  -28.6716  -11.9907   21.3635 H   0  0  0  0  0  0
  -28.4723  -13.6487   21.8497 H   0  0  0  0  0  0
  -25.2755   -9.5690   22.4756 H   0  0  0  0  0  0
  -23.9999   -7.4639   22.7473 H   0  0  0  0  0  0
  -21.0837   -8.8768   19.8954 H   0  0  0  0  0  0
  -22.3684  -10.9671   19.6165 H   0  0  0  0  0  0
  -21.2005   -7.6146   23.9713 H   0  0  0  0  0  0
  -21.1478   -6.0524   25.9076 H   0  0  0  0  0  0
  -22.0601   -2.7607   23.2855 H   0  0  0  0  0  0
  -22.4110  -11.9880   22.4786 H   0  0  0  0  0  0
  -21.1115  -13.1249   22.2619 H   0  0  0  0  0  0
  -24.6611  -15.8431   20.5103 H   0  0  0  0  0  0
  -26.2795  -15.6255   20.0773 H   0  0  0  0  0  0
  -26.7121  -32.5574   23.1178 H   0  0  0  0  0  0
  -25.0051  -33.9778   25.0485 H   0  0  0  0  0  0
  -22.6886  -31.3100   21.4120 H   0  0  0  0  0  0
  -23.3742  -35.9661   23.3329 H   0  0  0  0  0  0
  -24.3578  -36.8900   22.2054 H   0  0  0  0  0  0
  -23.7253  -37.6536   23.6633 H   0  0  0  0  0  0
  -26.0347  -31.6032   20.5895 H   0  0  0  0  0  0
  -26.8154  -30.8962   21.9785 H   0  0  0  0  0  0
  -28.0985  -29.1179   21.1676 H   0  0  0  0  0  0
  -26.0795  -25.9813   19.0052 H   0  0  0  0  0  0
  -23.9831  -27.2868   19.0408 H   0  0  0  0  0  0
  -23.7144  -30.5972   19.4055 H   0  0  0  0  0  0
  -22.7317  -29.2408   19.8741 H   0  0  0  0  0  0
  -25.1283  -36.1996   25.0840 H   0  0  0  0  0  0
  -20.9946  -28.3214   24.1450 H   0  0  0  0  0  0
  -20.5660  -26.2264   23.3609 H   0  0  0  0  0  0
  -21.6635  -26.7444   22.1211 H   0  0  0  0  0  0
  -19.6908  -25.6298   21.1225 H   0  0  0  0  0  0
  -19.6663  -27.3211   20.6758 H   0  0  0  0  0  0
  -17.4188  -26.6668   21.4018 H   0  0  0  0  0  0
  -18.0297  -26.0034   22.9005 H   0  0  0  0  0  0
  -19.7931  -30.7222   24.2303 H   0  0  0  0  0  0
  -17.5019  -31.6263   24.5150 H   0  0  0  0  0  0
  -15.5345  -30.2988   23.7632 H   0  0  0  0  0  0
  -15.8662  -28.0810   22.7068 H   0  0  0  0  0  0
  -24.5917  -30.7023   25.7800 H   0  0  0  0  0  0
  -24.8913  -32.2821   26.4954 H   0  0  0  0  0  0
  -25.8096  -30.8836   27.0215 H   0  0  0  0  0  0
  -26.2837  -29.6802   24.1159 H   0  0  0  0  0  0
  -27.4138  -29.7311   25.4509 H   0  0  0  0  0  0
  -27.8642  -30.4395   23.9166 H   0  0  0  0  0  0
  -27.2693  -33.3606   26.2077 H   0  0  0  0  0  0
  -28.3843  -32.6869   25.0276 H   0  0  0  0  0  0
  -28.0740  -31.8411   26.5361 H   0  0  0  0  0  0
  -28.2625  -38.0090   24.7502 H   0  0  0  0  0  0
  -28.1045  -36.2624   24.6320 H   0  0  0  0  0  0
  -27.2293  -37.1501   25.8878 H   0  0  0  0  0  0
  -20.9294  -29.8758   21.6971 H   0  0  0  0  0  0
  -26.0197  -38.2887   24.1373 H   0  0  0  0  0  0
  -32.4058  -16.6256   19.2121 H   0  0  0  0  0  0
  -30.9790  -19.4415   16.3473 H   0  0  0  0  0  0
  -30.2891  -21.3082   22.6951 H   0  0  0  0  0  0
  -31.1962  -21.1048   21.1884 H   0  0  0  0  0  0
  -30.6504  -19.7070   22.1019 H   0  0  0  0  0  0
  -29.9819  -17.3929   21.9239 H   0  0  0  0  0  0
  -31.5678  -16.8435   21.5701 H   0  0  0  0  0  0
  -28.5094  -18.7284   21.3048 H   0  0  0  0  0  0
  -27.7760  -19.4443   19.9431 H   0  0  0  0  0  0
  -30.0266  -23.2617   21.2378 H   0  0  0  0  0  0
  -28.6413  -23.3426   22.3220 H   0  0  0  0  0  0
  -29.5701  -25.8782   21.4879 H   0  0  0  0  0  0
  -27.8528  -25.9102   21.9222 H   0  0  0  0  0  0
  -29.0838  -15.3630   21.2674 H   0  0  0  0  0  0
  -27.4137  -24.0991   20.3116 H   0  0  0  0  0  0
  -28.8307  -24.2842   19.5605 H   0  0  0  0  0  0
  1 25  1  0  0  0
  1 30  2  0  0  0
  1 83  1  0  0  0
  2  3  1  0  0  0
  2 25  1  0  0  0
  2 89  1  0  0  0
  2 90  1  0  0  0
  3  4  1  0  0  0
  3 91  1  0  0  0
  3 92  1  0  0  0
  4  5  1  0  0  0
  4 93  1  0  0  0
  4 94  1  0  0  0
  5  6  1  0  0  0
  5 26  1  0  0  0
  5 95  1  0  0  0
  6 25  1  0  0  0
  6 96  1  0  0  0
  6 97  1  0  0  0
  7  8  2  0  0  0
  7 26  1  0  0  0
  7 29  1  0  0  0
  8  9  1  0  0  0
  8 22  1  0  0  0
  9 10  1  0  0  0
  9 27  2  0  0  0
 10 11  2  0  0  0
 10 15  1  0  0  0
 11 12  1  0  0  0
 11 98  1  0  0  0
 12 13  2  0  0  0
 12 99  1  0  0  0
 13 14  1  0  0  0
 13 31  1  0  0  0
 14 15  2  0  0  0
 14100  1  0  0  0
 15101  1  0  0  0
 16 17  2  0  0  0
 16 21  1  0  0  0
 16 31  1  0  0  0
 17 18  1  0  0  0
 17102  1  0  0  0
 18 19  2  0  0  0
 18103  1  0  0  0
 19 20  1  0  0  0
 19 24  1  0  0  0
 20 21  2  0  0  0
 20104  1  0  0  0
 21 23  1  0  0  0
 22 28  1  0  0  0
 22 32  2  0  0  0
 26 27  1  0  0  0
 28105  1  0  0  0
 28106  1  0  0  0
 29107  1  0  0  0
 29108  1  0  0  0
 33 34  1  0  0  0
 33 66  1  0  0  0
 33 70  2  0  0  0
 34 36  1  0  0  0
 34 59  1  0  0  0
 34109  1  0  0  0
 35 44  2  0  0  0
 35 45  1  0  0  0
 35 68  1  0  0  0
 36 56  1  0  0  0
 36110  1  0  0  0
 37 39  1  0  0  0
 37 47  1  0  0  0
 37 66  1  0  0  0
 37111  1  0  0  0
 38 43  2  0  0  0
 38 46  1  0  0  0
 38 47  1  0  0  0
 39 64  1  0  0  0
 39 67  2  0  0  0
 40 52  1  0  0  0
 40 53  2  0  0  0
 40 58  1  0  0  0
 41112  1  0  0  0
 41113  1  0  0  0
 41114  1  0  0  0
 41 48  1  0  0  0
 42 43  1  0  0  0
 42 66  1  0  0  0
 42115  1  0  0  0
 42116  1  0  0  0
 43 44  1  0  0  0
 44117  1  0  0  0
 45 46  2  0  0  0
 45118  1  0  0  0
 46119  1  0  0  0
 47120  1  0  0  0
 47121  1  0  0  0
 48 56  1  0  0  0
 48 65  1  0  0  0
 48122  1  0  0  0
 49 50  1  0  0  0
 49 53  1  0  0  0
 49 64  1  0  0  0
 49123  1  0  0  0
 50 51  1  0  0  0
 50124  1  0  0  0
 50125  1  0  0  0
 51 52  1  0  0  0
 51126  1  0  0  0
 51127  1  0  0  0
 52128  1  0  0  0
 52129  1  0  0  0
 53 54  1  0  0  0
 54 55  2  0  0  0
 54130  1  0  0  0
 55 57  1  0  0  0
 55131  1  0  0  0
 56 69  2  0  0  0
 57 58  2  0  0  0
 57132  1  0  0  0
 58133  1  0  0  0
 59 60  1  0  0  0
 59 61  1  0  0  0
 59 62  1  0  0  0
 60134  1  0  0  0
 60135  1  0  0  0
 60136  1  0  0  0
 61137  1  0  0  0
 61138  1  0  0  0
 61139  1  0  0  0
 62140  1  0  0  0
 62141  1  0  0  0
 62142  1  0  0  0
 63 65  1  0  0  0
 63143  1  0  0  0
 63144  1  0  0  0
 63145  1  0  0  0
 64146  1  0  0  0
 65147  1  0  0  0
 68 82  1  0  0  0
 71 73  2  0  0  0
 71 75  1  0  0  0
 71148  1  0  0  0
 72 75  2  0  0  0
 72 76  1  0  0  0
 72149  1  0  0  0
 73 74  1  0  0  0
 73 79  1  0  0  0
 74 76  2  0  0  0
 74 80  1  0  0  0
 75 87  1  0  0  0
 76 88  1  0  0  0
 77 81  1  0  0  0
 77 84  1  0  0  0
 77 86  2  0  0  0
 78 84  1  0  0  0
 78150  1  0  0  0
 78151  1  0  0  0
 78152  1  0  0  0
 79 83  1  0  0  0
 79153  1  0  0  0
 79154  1  0  0  0
 80 84  1  0  0  0
 80155  1  0  0  0
 80156  1  0  0  0
 81 85  1  0  0  0
 81157  1  0  0  0
 81158  1  0  0  0
 82 85  1  0  0  0
 82159  1  0  0  0
 82160  1  0  0  0
 83161  1  0  0  0
 85162  1  0  0  0
 85163  1  0  0  0
M  CHG  1  85   1
M  ISO  4   1 100  68 101  82 101  83 100
M  END
> <chiral flag>
0

> <version>
0

> <s_m_source_file>
/data/baiqing/PycharmProjects/Reinvent-master-3.2/result/LINK_invent/BTK/process_docking_weight1_custom_product_contain_oxygen_bond_distance_aromatic_linkinvent_7_9_3/rearranged_h_0044.sdf

> <i_m_source_file_index>
85

> <r_mmod_Potential_Energy-OPLS-2005>
-454.969085693359

> <r_mmod_Stretch_Energy-OPLS-2005>
41.8010444641113

> <r_mmod_Bend_Energy-OPLS-2005>
99.3267669677734

> <r_mmod_Torsional_Energy-OPLS-2005>
243.125686645508

> <r_mmod_Improper_Torsional_Energy-OPLS-2005>
3.47380828857422

> <r_mmod_Van_der_Waal_Energy-OPLS-2005>
157.758148193359

> <r_mmod_Electrostatic_Energy-OPLS-2005>
-529.456176757812

> <r_mmod_Solvation_Energy-OPLS-2005>
-485.302276611328

> <b_mmod_Minimization_Converged-OPLS-2005>
0

> <r_mmod_RMS_Derivative-OPLS-2005>
1.26749098300934

$$$$
85
                    3D
 Structure written by MMmdl.
161170  0  0  1  0            999 V2000
  -30.7054  -14.5724   20.4984 C   0  0  0  0  0  0
  -30.4370  -12.3609   19.4483 C   0  0  0  0  0  0
  -29.5225  -12.4899   18.2148 C   0  0  0  0  0  0
  -28.0386  -12.3512   18.6076 C   0  0  0  0  0  0
  -27.6528  -13.2221   19.8382 C   0  0  2  0  0  0
  -28.6956  -13.1034   20.9739 C   0  0  0  0  0  0
  -25.2564  -13.8185   20.5508 C   0  0  0  0  0  0
  -24.1857  -13.0440   20.9119 C   0  0  0  0  0  0
  -24.6430  -11.6913   20.8678 C   0  0  0  0  0  0
  -23.9088  -10.4296   21.0378 C   0  0  0  0  0  0
  -24.3649   -9.4190   21.9135 C   0  0  0  0  0  0
  -23.6288   -8.2238   22.0735 C   0  0  0  0  0  0
  -22.4275   -8.0279   21.3513 C   0  0  0  0  0  0
  -21.9912   -9.0260   20.4624 C   0  0  0  0  0  0
  -22.7264  -10.2115   20.3014 C   0  0  0  0  0  0
  -21.6868   -6.0720   22.5273 C   0  0  0  0  0  0
  -21.4032   -6.5611   23.8206 C   0  0  0  0  0  0
  -21.3660   -5.6745   24.9161 C   0  0  0  0  0  0
  -21.6042   -4.3009   24.7175 C   0  0  0  0  0  0
  -21.8846   -3.8107   23.4303 C   0  0  0  0  0  0
  -21.9202   -4.6955   22.3373 C   0  0  0  0  0  0
  -22.7883  -13.5270   21.1785 C   0  0  0  0  0  0
  -22.1649   -4.2144   21.0919 F   0  0  0  0  0  0
  -21.5625   -3.4493   25.7673 F   0  0  0  0  0  0
  -30.0225  -13.3937   20.4128 N   0  0  0  0  0  0
  -26.3014  -12.9366   20.3131 N   0  0  0  0  0  0
  -25.9342  -11.6526   20.5628 N   0  0  0  0  0  0
  -22.0510  -12.8278   22.0345 N   0  0  0  0  0  0
  -25.4159  -15.1903   20.3745 N   0  0  0  0  0  0
  -31.8992  -14.6508   20.2214 O   0  0  0  0  0  0
  -21.6637   -6.8881   21.4234 O   0  0  0  0  0  0
  -22.3572  -14.5573   20.6622 O   0  0  0  0  0  0
  -24.6184  -31.8637   23.2225 C   0  0  0  0  0  0
  -25.9095  -32.4788   23.8474 C   0  0  1  0  0  0
  -27.2560  -27.4232   20.1318 C   0  0  0  0  0  0
  -25.5996  -33.8610   24.2418 N   0  0  0  0  0  0
  -23.4127  -30.4895   21.5506 C   0  0  2  0  0  0
  -24.8704  -28.9659   20.1127 C   0  0  0  0  0  0
  -22.7442  -29.4624   22.4949 C   0  0  0  0  0  0
  -18.0273  -28.1419   22.8484 C   0  0  0  0  0  0
  -24.1492  -36.7295   23.2642 C   0  0  0  0  0  0
  -25.9397  -30.8332   21.3806 C   0  0  0  0  0  0
  -26.0241  -29.4664   20.7279 C   0  0  0  0  0  0
  -27.2155  -28.7006   20.7416 C   0  0  0  0  0  0
  -26.0858  -26.9559   19.4848 C   0  0  0  0  0  0
  -24.8998  -27.7129   19.4766 C   0  0  0  0  0  0
  -23.6390  -29.8423   20.1556 C   0  0  0  0  0  0
  -25.4111  -36.3086   24.0345 C   0  0  1  0  0  0
  -20.5863  -28.3727   23.1356 C   0  0  2  0  0  0
  -20.6823  -26.9457   22.5489 C   0  0  0  0  0  0
  -19.5786  -26.6414   21.5312 C   0  0  0  0  0  0
  -18.1919  -26.7964   22.1638 C   0  0  0  0  0  0
  -19.1508  -28.8883   23.2897 C   0  0  0  0  0  0
  -18.9422  -30.1492   23.8888 C   0  0  0  0  0  0
  -17.6415  -30.6595   24.0601 C   0  0  0  0  0  0
  -25.9026  -34.9454   23.5143 C   0  0  0  0  0  0
  -16.5312  -29.9095   23.6351 C   0  0  0  0  0  0
  -16.7262  -28.6558   23.0290 C   0  0  0  0  0  0
  -26.4582  -31.6532   25.0758 C   0  0  0  0  0  0
  -25.3990  -31.3569   26.1611 C   0  0  0  0  0  0
  -27.0442  -30.2964   24.6160 C   0  0  0  0  0  0
  -27.6117  -32.4281   25.7510 C   0  0  0  0  0  0
  -27.5575  -37.1789   24.8449 C   0  0  0  0  0  0
  -21.4164  -29.3046   22.3717 N   0  0  0  0  0  0
  -26.4261  -37.3793   23.9427 N   0  0  0  0  0  0
  -24.6737  -31.0706   22.1149 N   0  0  0  0  0  0
  -23.4162  -28.8168   23.3031 O   0  0  0  0  0  0
  -28.4093  -26.6522   20.1981 O   0  0  0  0  0  0
  -26.5494  -34.8889   22.4641 O   0  0  0  0  0  0
  -23.5365  -32.1408   23.7605 O   0  0  0  0  0  0
  -30.5848  -19.8359   19.7030 C   0  0  0  0  0  0
  -31.0928  -18.8328   18.8646 C   0  0  0  0  0  0
  -29.7220  -18.1076   21.1902 C   0  0  0  0  0  0
  -29.8710  -19.4873   20.8640 C   0  0  0  0  0  0
  -30.2411  -17.0674   20.3624 C   0  0  0  0  0  0
  -30.9069  -17.4661   19.1605 C   0  0  0  0  0  0
  -29.0997  -22.8358   20.6938 C   0  0  0  0  0  0
  -30.9067  -23.8803   22.7609 C   0  0  0  0  0  0
  -29.6826  -24.6826   22.2928 C   0  0  0  0  0  0
  -30.7859  -22.3656   22.4853 C   0  0  0  0  0  0
  -29.3838  -24.3629   20.8136 C   0  0  2  0  0  0
  -29.2134  -20.5753   21.7290 C   0  0  0  0  0  0
  -28.2124  -25.2185   20.2273 C   0  0  0  0  0  0
  -29.6923  -21.9735   21.5697 N   0  0  0  0  0  0
  -29.9586  -15.6879   20.7226 N   0  0  0  0  0  0
  -28.3054  -22.4396   19.8352 O   0  0  0  0  0  0
  -31.4118  -16.3693   17.9245 Cl  0  0  0  0  0  0
  -31.4891  -12.4541   19.1544 H   0  0  0  0  0  0
  -30.3387  -11.3756   19.9016 H   0  0  0  0  0  0
  -29.7838  -11.7203   17.4901 H   0  0  0  0  0  0
  -29.6929  -13.4417   17.7104 H   0  0  0  0  0  0
  -27.8611  -11.2979   18.8228 H   0  0  0  0  0  0
  -27.4116  -12.5938   17.7478 H   0  0  0  0  0  0
  -27.6587  -14.2562   19.4904 H   0  0  0  0  0  0
  -28.6939  -12.0965   21.3899 H   0  0  0  0  0  0
  -28.4389  -13.7855   21.7886 H   0  0  0  0  0  0
  -25.2845   -9.5635   22.4662 H   0  0  0  0  0  0
  -23.9994   -7.4620   22.7472 H   0  0  0  0  0  0
  -21.0834   -8.8761   19.8949 H   0  0  0  0  0  0
  -22.3733  -10.9618   19.6076 H   0  0  0  0  0  0
  -21.2025   -7.6120   23.9705 H   0  0  0  0  0  0
  -21.1477   -6.0456   25.9057 H   0  0  0  0  0  0
  -22.0637   -2.7582   23.2783 H   0  0  0  0  0  0
  -22.4128  -11.9976   22.4829 H   0  0  0  0  0  0
  -21.1116  -13.1288   22.2457 H   0  0  0  0  0  0
  -24.6144  -15.8129   20.3773 H   0  0  0  0  0  0
  -26.2159  -15.5978   19.9046 H   0  0  0  0  0  0
  -26.7160  -32.5517   23.1222 H   0  0  0  0  0  0
  -25.0459  -33.9795   25.0767 H   0  0  0  0  0  0
  -22.7077  -31.3114   21.4156 H   0  0  0  0  0  0
  -23.3780  -35.9590   23.3226 H   0  0  0  0  0  0
  -24.3667  -36.8992   22.2085 H   0  0  0  0  0  0
  -23.7186  -37.6456   23.6705 H   0  0  0  0  0  0
  -26.0439  -31.6084   20.6194 H   0  0  0  0  0  0
  -26.8342  -30.8896   21.9917 H   0  0  0  0  0  0
  -28.0915  -29.0770   21.2541 H   0  0  0  0  0  0
  -26.0836  -26.0038   18.9772 H   0  0  0  0  0  0
  -24.0274  -27.3334   18.9637 H   0  0  0  0  0  0
  -23.7865  -30.6447   19.4301 H   0  0  0  0  0  0
  -22.7683  -29.2860   19.8091 H   0  0  0  0  0  0
  -25.1267  -36.1937   25.0828 H   0  0  0  0  0  0
  -20.9891  -28.3309   24.1510 H   0  0  0  0  0  0
  -20.5919  -26.2274   23.3663 H   0  0  0  0  0  0
  -21.6663  -26.7625   22.1145 H   0  0  0  0  0  0
  -19.6967  -25.6336   21.1318 H   0  0  0  0  0  0
  -19.6752  -27.3280   20.6893 H   0  0  0  0  0  0
  -17.4257  -26.6794   21.3954 H   0  0  0  0  0  0
  -18.0180  -26.0080   22.8990 H   0  0  0  0  0  0
  -19.7890  -30.7362   24.2179 H   0  0  0  0  0  0
  -17.4959  -31.6268   24.5239 H   0  0  0  0  0  0
  -15.5300  -30.2983   23.7735 H   0  0  0  0  0  0
  -15.8658  -28.0973   22.6865 H   0  0  0  0  0  0
  -24.6076  -30.6983   25.8028 H   0  0  0  0  0  0
  -24.9367  -32.2721   26.5317 H   0  0  0  0  0  0
  -25.8542  -30.8591   27.0193 H   0  0  0  0  0  0
  -26.2962  -29.6558   24.1486 H   0  0  0  0  0  0
  -27.4486  -29.7332   25.4584 H   0  0  0  0  0  0
  -27.8666  -30.4245   23.9119 H   0  0  0  0  0  0
  -27.2669  -33.3548   26.2110 H   0  0  0  0  0  0
  -28.3910  -32.6904   25.0338 H   0  0  0  0  0  0
  -28.0809  -31.8436   26.5437 H   0  0  0  0  0  0
  -28.2498  -38.0172   24.7574 H   0  0  0  0  0  0
  -28.1128  -36.2696   24.6113 H   0  0  0  0  0  0
  -27.2319  -37.1244   25.8853 H   0  0  0  0  0  0
  -20.9338  -29.8644   21.6842 H   0  0  0  0  0  0
  -26.0117  -38.2821   24.1571 H   0  0  0  0  0  0
  -30.7108  -20.8653   19.4055 H   0  0  0  0  0  0
  -31.5860  -19.1213   17.9467 H   0  0  0  0  0  0
  -29.1725  -17.8411   22.0811 H   0  0  0  0  0  0
  -31.0861  -24.0525   23.8239 H   0  0  0  0  0  0
  -31.7954  -24.2577   22.2530 H   0  0  0  0  0  0
  -29.8582  -25.7484   22.4334 H   0  0  0  0  0  0
  -28.8219  -24.4314   22.9174 H   0  0  0  0  0  0
  -30.6788  -21.8541   23.4434 H   0  0  0  0  0  0
  -31.7256  -21.9966   22.0681 H   0  0  0  0  0  0
  -30.2814  -24.5542   20.2233 H   0  0  0  0  0  0
  -29.3175  -20.2833   22.7728 H   0  0  0  0  0  0
  -28.1367  -20.5491   21.5437 H   0  0  0  0  0  0
  -27.3133  -24.9832   20.8044 H   0  0  0  0  0  0
  -28.0344  -24.9064   19.1945 H   0  0  0  0  0  0
  -29.0361  -15.5162   21.0906 H   0  0  0  0  0  0
  1 25  1  0  0  0
  1 30  2  0  0  0
  1 85  1  0  0  0
  2  3  1  0  0  0
  2 25  1  0  0  0
  2 88  1  0  0  0
  2 89  1  0  0  0
  3  4  1  0  0  0
  3 90  1  0  0  0
  3 91  1  0  0  0
  4  5  1  0  0  0
  4 92  1  0  0  0
  4 93  1  0  0  0
  5  6  1  0  0  0
  5 26  1  0  0  0
  5 94  1  0  0  0
  6 25  1  0  0  0
  6 95  1  0  0  0
  6 96  1  0  0  0
  7  8  2  0  0  0
  7 26  1  0  0  0
  7 29  1  0  0  0
  8  9  1  0  0  0
  8 22  1  0  0  0
  9 10  1  0  0  0
  9 27  2  0  0  0
 10 11  2  0  0  0
 10 15  1  0  0  0
 11 12  1  0  0  0
 11 97  1  0  0  0
 12 13  2  0  0  0
 12 98  1  0  0  0
 13 14  1  0  0  0
 13 31  1  0  0  0
 14 15  2  0  0  0
 14 99  1  0  0  0
 15100  1  0  0  0
 16 17  2  0  0  0
 16 21  1  0  0  0
 16 31  1  0  0  0
 17 18  1  0  0  0
 17101  1  0  0  0
 18 19  2  0  0  0
 18102  1  0  0  0
 19 20  1  0  0  0
 19 24  1  0  0  0
 20 21  2  0  0  0
 20103  1  0  0  0
 21 23  1  0  0  0
 22 28  1  0  0  0
 22 32  2  0  0  0
 26 27  1  0  0  0
 28104  1  0  0  0
 28105  1  0  0  0
 29106  1  0  0  0
 29107  1  0  0  0
 33 34  1  0  0  0
 33 66  1  0  0  0
 33 70  2  0  0  0
 34 36  1  0  0  0
 34 59  1  0  0  0
 34108  1  0  0  0
 35 44  2  0  0  0
 35 45  1  0  0  0
 35 68  1  0  0  0
 36 56  1  0  0  0
 36109  1  0  0  0
 37 39  1  0  0  0
 37 47  1  0  0  0
 37 66  1  0  0  0
 37110  1  0  0  0
 38 43  2  0  0  0
 38 46  1  0  0  0
 38 47  1  0  0  0
 39 64  1  0  0  0
 39 67  2  0  0  0
 40 52  1  0  0  0
 40 53  2  0  0  0
 40 58  1  0  0  0
 41111  1  0  0  0
 41112  1  0  0  0
 41113  1  0  0  0
 41 48  1  0  0  0
 42 43  1  0  0  0
 42 66  1  0  0  0
 42114  1  0  0  0
 42115  1  0  0  0
 43 44  1  0  0  0
 44116  1  0  0  0
 45 46  2  0  0  0
 45117  1  0  0  0
 46118  1  0  0  0
 47119  1  0  0  0
 47120  1  0  0  0
 48 56  1  0  0  0
 48 65  1  0  0  0
 48121  1  0  0  0
 49 50  1  0  0  0
 49 53  1  0  0  0
 49 64  1  0  0  0
 49122  1  0  0  0
 50 51  1  0  0  0
 50123  1  0  0  0
 50124  1  0  0  0
 51 52  1  0  0  0
 51125  1  0  0  0
 51126  1  0  0  0
 52127  1  0  0  0
 52128  1  0  0  0
 53 54  1  0  0  0
 54 55  2  0  0  0
 54129  1  0  0  0
 55 57  1  0  0  0
 55130  1  0  0  0
 56 69  2  0  0  0
 57 58  2  0  0  0
 57131  1  0  0  0
 58132  1  0  0  0
 59 60  1  0  0  0
 59 61  1  0  0  0
 59 62  1  0  0  0
 60133  1  0  0  0
 60134  1  0  0  0
 60135  1  0  0  0
 61136  1  0  0  0
 61137  1  0  0  0
 61138  1  0  0  0
 62139  1  0  0  0
 62140  1  0  0  0
 62141  1  0  0  0
 63 65  1  0  0  0
 63142  1  0  0  0
 63143  1  0  0  0
 63144  1  0  0  0
 64145  1  0  0  0
 65146  1  0  0  0
 68 83  1  0  0  0
 71 72  2  0  0  0
 71 74  1  0  0  0
 71147  1  0  0  0
 72 76  1  0  0  0
 72148  1  0  0  0
 73 74  2  0  0  0
 73 75  1  0  0  0
 73149  1  0  0  0
 74 82  1  0  0  0
 75 76  2  0  0  0
 75 85  1  0  0  0
 76 87  1  0  0  0
 77 81  1  0  0  0
 77 84  1  0  0  0
 77 86  2  0  0  0
 78 79  1  0  0  0
 78 80  1  0  0  0
 78150  1  0  0  0
 78151  1  0  0  0
 79 81  1  0  0  0
 79152  1  0  0  0
 79153  1  0  0  0
 80 84  1  0  0  0
 80154  1  0  0  0
 80155  1  0  0  0
 81 83  1  0  0  0
 81156  1  0  0  0
 82 84  1  0  0  0
 82157  1  0  0  0
 82158  1  0  0  0
 83159  1  0  0  0
 83160  1  0  0  0
 85161  1  0  0  0
M  ISO  4   1 100  68 101  83 101  85 100
M  END
> <chiral flag>
0

> <version>
0

> <s_m_source_file>
/data/baiqing/PycharmProjects/Reinvent-master-3.2/result/LINK_invent/BTK/process_docking_weight1_custom_product_contain_oxygen_bond_distance_aromatic_linkinvent_7_9_3/rearranged_h_0044.sdf

> <i_m_source_file_index>
86

> <r_mmod_Potential_Energy-OPLS-2005>
31.5114555358887

> <r_mmod_Stretch_Energy-OPLS-2005>
53.594898223877

> <r_mmod_Bend_Energy-OPLS-2005>
109.667861938477

> <r_mmod_Torsional_Energy-OPLS-2005>
265.558715820312

> <r_mmod_Improper_Torsional_Energy-OPLS-2005>
6.29849767684937

> <r_mmod_Van_der_Waal_Energy-OPLS-2005>
170.985595703125

> <r_mmod_Electrostatic_Energy-OPLS-2005>
-382.381713867188

> <r_mmod_Solvation_Energy-OPLS-2005>
-225.133209228516

> <b_mmod_Minimization_Converged-OPLS-2005>
0

> <r_mmod_RMS_Derivative-OPLS-2005>
7.29236507415771

$$$$
86
                    3D
 Structure written by MMmdl.
161169  0  0  1  0            999 V2000
  -30.7701  -14.3307   20.7131 C   0  0  0  0  0  0
  -30.4295  -12.2884   19.3726 C   0  0  0  0  0  0
  -29.4836  -12.5275   18.1822 C   0  0  0  0  0  0
  -28.0112  -12.3736   18.6099 C   0  0  0  0  0  0
  -27.6733  -13.1946   19.8792 C   0  0  2  0  0  0
  -28.7094  -12.9122   20.9863 C   0  0  0  0  0  0
  -25.2671  -13.8146   20.5740 C   0  0  0  0  0  0
  -24.1863  -13.0451   20.9084 C   0  0  0  0  0  0
  -24.6368  -11.6893   20.8604 C   0  0  0  0  0  0
  -23.9026  -10.4295   21.0311 C   0  0  0  0  0  0
  -24.3570   -9.4238   21.9119 C   0  0  0  0  0  0
  -23.6262   -8.2269   22.0743 C   0  0  0  0  0  0
  -22.4255   -8.0267   21.3536 C   0  0  0  0  0  0
  -21.9861   -9.0242   20.4658 C   0  0  0  0  0  0
  -22.7169  -10.2134   20.3010 C   0  0  0  0  0  0
  -21.6853   -6.0722   22.5265 C   0  0  0  0  0  0
  -21.4036   -6.5616   23.8192 C   0  0  0  0  0  0
  -21.3661   -5.6760   24.9143 C   0  0  0  0  0  0
  -21.6041   -4.3021   24.7210 C   0  0  0  0  0  0
  -21.8825   -3.8122   23.4328 C   0  0  0  0  0  0
  -21.9191   -4.6948   22.3392 C   0  0  0  0  0  0
  -22.7902  -13.5269   21.1764 C   0  0  0  0  0  0
  -22.1655   -4.2118   21.0972 F   0  0  0  0  0  0
  -21.5632   -3.4529   25.7739 F   0  0  0  0  0  0
  -30.0595  -13.2065   20.4555 N   0  0  0  0  0  0
  -26.3097  -12.9310   20.3375 N   0  0  0  0  0  0
  -25.9298  -11.6470   20.5679 N   0  0  0  0  0  0
  -22.0527  -12.8317   22.0355 N   0  0  0  0  0  0
  -25.4502  -15.1888   20.4487 N   0  0  0  0  0  0
  -31.7467  -14.6986   20.0517 O   0  0  0  0  0  0
  -21.6617   -6.8878   21.4231 O   0  0  0  0  0  0
  -22.3582  -14.5572   20.6593 O   0  0  0  0  0  0
  -24.6107  -31.8681   23.2132 C   0  0  0  0  0  0
  -25.9023  -32.4836   23.8384 C   0  0  1  0  0  0
  -27.2240  -27.4567   20.0971 C   0  0  0  0  0  0
  -25.5899  -33.8625   24.2332 N   0  0  0  0  0  0
  -23.3961  -30.4937   21.5547 C   0  0  2  0  0  0
  -24.8422  -28.9661   20.1122 C   0  0  0  0  0  0
  -22.7381  -29.4625   22.5002 C   0  0  0  0  0  0
  -18.0251  -28.1353   22.8506 C   0  0  0  0  0  0
  -24.1479  -36.7323   23.2622 C   0  0  0  0  0  0
  -25.9247  -30.8397   21.3656 C   0  0  0  0  0  0
  -25.9994  -29.4763   20.7142 C   0  0  0  0  0  0
  -27.1950  -28.7272   20.7086 C   0  0  0  0  0  0
  -26.0591  -26.9615   19.4749 C   0  0  0  0  0  0
  -24.8652  -27.7071   19.4870 C   0  0  0  0  0  0
  -23.6047  -29.8312   20.1658 C   0  0  0  0  0  0
  -25.4106  -36.3124   24.0331 C   0  0  1  0  0  0
  -20.5836  -28.3638   23.1320 C   0  0  2  0  0  0
  -20.6753  -26.9392   22.5407 C   0  0  0  0  0  0
  -19.5710  -26.6336   21.5225 C   0  0  0  0  0  0
  -18.1895  -26.7885   22.1648 C   0  0  0  0  0  0
  -19.1503  -28.8815   23.2912 C   0  0  0  0  0  0
  -18.9437  -30.1435   23.8904 C   0  0  0  0  0  0
  -17.6431  -30.6577   24.0536 C   0  0  0  0  0  0
  -25.9032  -34.9488   23.5124 C   0  0  0  0  0  0
  -16.5316  -29.9079   23.6311 C   0  0  0  0  0  0
  -16.7238  -28.6487   23.0353 C   0  0  0  0  0  0
  -26.4464  -31.6608   25.0699 C   0  0  0  0  0  0
  -25.3710  -31.3746   26.1447 C   0  0  0  0  0  0
  -27.0255  -30.3022   24.6097 C   0  0  0  0  0  0
  -27.6047  -32.4307   25.7462 C   0  0  0  0  0  0
  -27.5593  -37.1813   24.8464 C   0  0  0  0  0  0
  -21.4111  -29.2988   22.3736 N   0  0  0  0  0  0
  -26.4304  -37.3808   23.9402 N   0  0  0  0  0  0
  -24.6633  -31.0781   22.1032 N   0  0  0  0  0  0
  -23.4165  -28.8155   23.3025 O   0  0  0  0  0  0
  -28.3748  -26.7091   20.0808 O   0  0  0  0  0  0
  -26.5596  -34.8936   22.4687 O   0  0  0  0  0  0
  -23.5305  -32.1410   23.7553 O   0  0  0  0  0  0
  -28.9082  -18.0265   21.6393 C   0  0  0  0  0  0
  -27.4405  -17.4067   23.9488 C   0  0  0  0  0  0
  -27.6606  -18.6538   21.8541 C   0  0  0  0  0  0
  -29.4188  -17.0829   22.5574 C   0  0  0  0  0  0
  -26.9166  -18.3273   23.0180 C   0  0  0  0  0  0
  -28.6810  -16.7854   23.7276 C   0  0  0  0  0  0
  -28.1554  -23.2290   20.7477 C   0  0  0  0  0  0
  -27.6478  -24.4742   20.8277 C   0  0  0  0  0  0
  -27.2970  -22.0981   20.4437 C   0  0  0  0  0  0
  -25.5530  -18.9348   23.2910 C   0  0  0  0  0  0
  -27.1548  -19.6479   20.8125 C   0  0  0  0  0  0
  -30.6969  -16.3292   22.2272 C   0  0  0  0  0  0
  -28.4555  -25.7313   21.1229 C   0  0  0  0  0  0
  -27.7682  -20.9614   20.9677 N   0  0  0  0  0  0
  -30.3478  -14.9872   21.7921 N   0  0  0  0  0  0
  -26.2641  -22.1470   19.7727 O   0  0  0  0  0  0
  -29.2415  -15.6258   24.8809 Cl  0  0  0  0  0  0
  -31.4657  -12.4190   19.0582 H   0  0  0  0  0  0
  -30.3573  -11.2597   19.7218 H   0  0  0  0  0  0
  -29.7155  -11.8264   17.3764 H   0  0  0  0  0  0
  -29.6442  -13.5291   17.7781 H   0  0  0  0  0  0
  -27.8283  -11.3141   18.7970 H   0  0  0  0  0  0
  -27.3514  -12.6521   17.7908 H   0  0  0  0  0  0
  -27.7406  -14.2496   19.6143 H   0  0  0  0  0  0
  -28.6728  -11.8593   21.2692 H   0  0  0  0  0  0
  -28.4476  -13.4637   21.8900 H   0  0  0  0  0  0
  -25.2683   -9.5745   22.4712 H   0  0  0  0  0  0
  -23.9977   -7.4685   22.7488 H   0  0  0  0  0  0
  -21.0781   -8.8739   19.8980 H   0  0  0  0  0  0
  -22.3563  -10.9675   19.6136 H   0  0  0  0  0  0
  -21.2040   -7.6117   23.9706 H   0  0  0  0  0  0
  -21.1473   -6.0472   25.9055 H   0  0  0  0  0  0
  -22.0610   -2.7586   23.2832 H   0  0  0  0  0  0
  -22.4070  -11.9970   22.4795 H   0  0  0  0  0  0
  -21.1192  -13.1460   22.2566 H   0  0  0  0  0  0
  -24.7239  -15.8456   20.7176 H   0  0  0  0  0  0
  -26.3512  -15.6295   20.3159 H   0  0  0  0  0  0
  -26.7101  -32.5577   23.1147 H   0  0  0  0  0  0
  -25.0089  -33.9801   25.0507 H   0  0  0  0  0  0
  -22.6830  -31.3106   21.4175 H   0  0  0  0  0  0
  -23.3762  -35.9640   23.3301 H   0  0  0  0  0  0
  -24.3570  -36.8914   22.2030 H   0  0  0  0  0  0
  -23.7214  -37.6530   23.6623 H   0  0  0  0  0  0
  -26.0381  -31.6114   20.6039 H   0  0  0  0  0  0
  -26.8137  -30.8889   21.9851 H   0  0  0  0  0  0
  -28.0903  -29.1187   21.1692 H   0  0  0  0  0  0
  -26.0786  -26.0055   18.9699 H   0  0  0  0  0  0
  -23.9790  -27.3195   19.0015 H   0  0  0  0  0  0
  -23.7132  -30.6099   19.4096 H   0  0  0  0  0  0
  -22.7324  -29.2468   19.8702 H   0  0  0  0  0  0
  -25.1281  -36.2000   25.0831 H   0  0  0  0  0  0
  -20.9928  -28.3205   24.1429 H   0  0  0  0  0  0
  -20.5666  -26.2273   23.3604 H   0  0  0  0  0  0
  -21.6625  -26.7433   22.1187 H   0  0  0  0  0  0
  -19.6877  -25.6219   21.1318 H   0  0  0  0  0  0
  -19.6664  -27.3102   20.6725 H   0  0  0  0  0  0
  -17.4158  -26.6582   21.4060 H   0  0  0  0  0  0
  -18.0323  -26.0032   22.9062 H   0  0  0  0  0  0
  -19.7918  -30.7253   24.2250 H   0  0  0  0  0  0
  -17.4987  -31.6259   24.5137 H   0  0  0  0  0  0
  -15.5320  -30.2988   23.7606 H   0  0  0  0  0  0
  -15.8630  -28.0803   22.7082 H   0  0  0  0  0  0
  -24.5894  -30.7080   25.7793 H   0  0  0  0  0  0
  -24.8891  -32.2920   26.4842 H   0  0  0  0  0  0
  -25.8036  -30.8948   27.0232 H   0  0  0  0  0  0
  -26.2794  -29.6834   24.1098 H   0  0  0  0  0  0
  -27.3935  -29.7226   25.4574 H   0  0  0  0  0  0
  -27.8680  -30.4326   23.9301 H   0  0  0  0  0  0
  -27.2693  -33.3610   26.2066 H   0  0  0  0  0  0
  -28.3849  -32.6846   25.0275 H   0  0  0  0  0  0
  -28.0725  -31.8395   26.5356 H   0  0  0  0  0  0
  -28.2618  -38.0100   24.7521 H   0  0  0  0  0  0
  -28.1072  -36.2633   24.6284 H   0  0  0  0  0  0
  -27.2305  -37.1468   25.8863 H   0  0  0  0  0  0
  -20.9266  -29.8709   21.6972 H   0  0  0  0  0  0
  -26.0203  -38.2885   24.1424 H   0  0  0  0  0  0
  -29.4603  -18.2556   20.7400 H   0  0  0  0  0  0
  -26.8858  -17.1543   24.8420 H   0  0  0  0  0  0
  -29.2111  -23.0669   20.8973 H   0  0  0  0  0  0
  -26.5855  -24.6232   20.6962 H   0  0  0  0  0  0
  -25.1655  -18.6227   24.2612 H   0  0  0  0  0  0
  -24.8321  -18.6203   22.5348 H   0  0  0  0  0  0
  -25.6198  -20.0215   23.2942 H   0  0  0  0  0  0
  -26.0667  -19.7231   20.8365 H   0  0  0  0  0  0
  -27.3942  -19.2715   19.8176 H   0  0  0  0  0  0
  -31.3433  -16.2684   23.1048 H   0  0  0  0  0  0
  -31.2634  -16.8618   21.4602 H   0  0  0  0  0  0
  -29.5046  -25.4603   21.2535 H   0  0  0  0  0  0
  -28.1201  -26.1479   22.0747 H   0  0  0  0  0  0
  -28.6052  -21.0096   21.5312 H   0  0  0  0  0  0
  -29.6021  -14.5378   22.3019 H   0  0  0  0  0  0
  1 25  1  0  0  0
  1 30  2  0  0  0
  1 85  1  0  0  0
  2  3  1  0  0  0
  2 25  1  0  0  0
  2 88  1  0  0  0
  2 89  1  0  0  0
  3  4  1  0  0  0
  3 90  1  0  0  0
  3 91  1  0  0  0
  4  5  1  0  0  0
  4 92  1  0  0  0
  4 93  1  0  0  0
  5  6  1  0  0  0
  5 26  1  0  0  0
  5 94  1  0  0  0
  6 25  1  0  0  0
  6 95  1  0  0  0
  6 96  1  0  0  0
  7  8  2  0  0  0
  7 26  1  0  0  0
  7 29  1  0  0  0
  8  9  1  0  0  0
  8 22  1  0  0  0
  9 10  1  0  0  0
  9 27  2  0  0  0
 10 11  2  0  0  0
 10 15  1  0  0  0
 11 12  1  0  0  0
 11 97  1  0  0  0
 12 13  2  0  0  0
 12 98  1  0  0  0
 13 14  1  0  0  0
 13 31  1  0  0  0
 14 15  2  0  0  0
 14 99  1  0  0  0
 15100  1  0  0  0
 16 17  2  0  0  0
 16 21  1  0  0  0
 16 31  1  0  0  0
 17 18  1  0  0  0
 17101  1  0  0  0
 18 19  2  0  0  0
 18102  1  0  0  0
 19 20  1  0  0  0
 19 24  1  0  0  0
 20 21  2  0  0  0
 20103  1  0  0  0
 21 23  1  0  0  0
 22 28  1  0  0  0
 22 32  2  0  0  0
 26 27  1  0  0  0
 28104  1  0  0  0
 28105  1  0  0  0
 29106  1  0  0  0
 29107  1  0  0  0
 33 34  1  0  0  0
 33 66  1  0  0  0
 33 70  2  0  0  0
 34 36  1  0  0  0
 34 59  1  0  0  0
 34108  1  0  0  0
 35 44  2  0  0  0
 35 45  1  0  0  0
 35 68  1  0  0  0
 36 56  1  0  0  0
 36109  1  0  0  0
 37 39  1  0  0  0
 37 47  1  0  0  0
 37 66  1  0  0  0
 37110  1  0  0  0
 38 43  2  0  0  0
 38 46  1  0  0  0
 38 47  1  0  0  0
 39 64  1  0  0  0
 39 67  2  0  0  0
 40 52  1  0  0  0
 40 53  2  0  0  0
 40 58  1  0  0  0
 41111  1  0  0  0
 41112  1  0  0  0
 41113  1  0  0  0
 41 48  1  0  0  0
 42 43  1  0  0  0
 42 66  1  0  0  0
 42114  1  0  0  0
 42115  1  0  0  0
 43 44  1  0  0  0
 44116  1  0  0  0
 45 46  2  0  0  0
 45117  1  0  0  0
 46118  1  0  0  0
 47119  1  0  0  0
 47120  1  0  0  0
 48 56  1  0  0  0
 48 65  1  0  0  0
 48121  1  0  0  0
 49 50  1  0  0  0
 49 53  1  0  0  0
 49 64  1  0  0  0
 49122  1  0  0  0
 50 51  1  0  0  0
 50123  1  0  0  0
 50124  1  0  0  0
 51 52  1  0  0  0
 51125  1  0  0  0
 51126  1  0  0  0
 52127  1  0  0  0
 52128  1  0  0  0
 53 54  1  0  0  0
 54 55  2  0  0  0
 54129  1  0  0  0
 55 57  1  0  0  0
 55130  1  0  0  0
 56 69  2  0  0  0
 57 58  2  0  0  0
 57131  1  0  0  0
 58132  1  0  0  0
 59 60  1  0  0  0
 59 61  1  0  0  0
 59 62  1  0  0  0
 60133  1  0  0  0
 60134  1  0  0  0
 60135  1  0  0  0
 61136  1  0  0  0
 61137  1  0  0  0
 61138  1  0  0  0
 62139  1  0  0  0
 62140  1  0  0  0
 62141  1  0  0  0
 63 65  1  0  0  0
 63142  1  0  0  0
 63143  1  0  0  0
 63144  1  0  0  0
 64145  1  0  0  0
 65146  1  0  0  0
 68 83  1  0  0  0
 71 73  2  0  0  0
 71 74  1  0  0  0
 71147  1  0  0  0
 72 75  2  0  0  0
 72 76  1  0  0  0
 72148  1  0  0  0
 73 75  1  0  0  0
 73 81  1  0  0  0
 74 76  2  0  0  0
 74 82  1  0  0  0
 75 80  1  0  0  0
 76 87  1  0  0  0
 77 78  2  0  0  0
 77 79  1  0  0  0
 77149  1  0  0  0
 78 83  1  0  0  0
 78150  1  0  0  0
 79 84  1  0  0  0
 79 86  2  0  0  0
 80151  1  0  0  0
 80152  1  0  0  0
 80153  1  0  0  0
 81 84  1  0  0  0
 81154  1  0  0  0
 81155  1  0  0  0
 82 85  1  0  0  0
 82156  1  0  0  0
 82157  1  0  0  0
 83158  1  0  0  0
 83159  1  0  0  0
 84160  1  0  0  0
 85161  1  0  0  0
M  ISO  4   1 100  68 101  83 101  85 100
M  END
> <chiral flag>
0

> <version>
0

> <s_m_source_file>
/data/baiqing/PycharmProjects/Reinvent-master-3.2/result/LINK_invent/BTK/process_docking_weight1_custom_product_contain_oxygen_bond_distance_aromatic_linkinvent_7_9_3/rearranged_h_0044.sdf

> <i_m_source_file_index>
87

> <r_mmod_Potential_Energy-OPLS-2005>
-217.216491699219

> <r_mmod_Stretch_Energy-OPLS-2005>
32.1491622924805

> <r_mmod_Bend_Energy-OPLS-2005>
84.5909729003906

> <r_mmod_Torsional_Energy-OPLS-2005>
227.463272094727

> <r_mmod_Improper_Torsional_Energy-OPLS-2005>
2.82310962677002

> <r_mmod_Van_der_Waal_Energy-OPLS-2005>
147.687622070312

> <r_mmod_Electrostatic_Energy-OPLS-2005>
-498.242065429688

> <r_mmod_Solvation_Energy-OPLS-2005>
-222.145446777344

> <b_mmod_Minimization_Converged-OPLS-2005>
0

> <r_mmod_RMS_Derivative-OPLS-2005>
4.36484384536743

$$$$
87
                    3D
 Structure written by MMmdl.
164173  0  0  1  0            999 V2000
  -30.6294  -14.6170   20.5195 C   0  0  0  0  0  0
  -30.4413  -12.3894   19.4391 C   0  0  0  0  0  0
  -29.4993  -12.5020   18.2195 C   0  0  0  0  0  0
  -28.0282  -12.3223   18.6439 C   0  0  0  0  0  0
  -27.6529  -13.2040   19.8629 C   0  0  2  0  0  0
  -28.6977  -13.0555   20.9926 C   0  0  0  0  0  0
  -25.2568  -13.8133   20.5688 C   0  0  0  0  0  0
  -24.1806  -13.0427   20.9175 C   0  0  0  0  0  0
  -24.6356  -11.6893   20.8732 C   0  0  0  0  0  0
  -23.9007  -10.4295   21.0388 C   0  0  0  0  0  0
  -24.3580   -9.4222   21.9178 C   0  0  0  0  0  0
  -23.6274   -8.2240   22.0744 C   0  0  0  0  0  0
  -22.4266   -8.0248   21.3525 C   0  0  0  0  0  0
  -21.9872   -9.0215   20.4638 C   0  0  0  0  0  0
  -22.7165  -10.2115   20.3055 C   0  0  0  0  0  0
  -21.6861   -6.0709   22.5266 C   0  0  0  0  0  0
  -21.4003   -6.5620   23.8192 C   0  0  0  0  0  0
  -21.3662   -5.6783   24.9161 C   0  0  0  0  0  0
  -21.6059   -4.3046   24.7224 C   0  0  0  0  0  0
  -21.8822   -3.8127   23.4346 C   0  0  0  0  0  0
  -21.9187   -4.6936   22.3396 C   0  0  0  0  0  0
  -22.7857  -13.5242   21.1838 C   0  0  0  0  0  0
  -22.1669   -4.2112   21.0981 F   0  0  0  0  0  0
  -21.5629   -3.4543   25.7746 F   0  0  0  0  0  0
  -30.0166  -13.3946   20.4318 N   0  0  0  0  0  0
  -26.2974  -12.9288   20.3307 N   0  0  0  0  0  0
  -25.9266  -11.6469   20.5740 N   0  0  0  0  0  0
  -22.0500  -12.8257   22.0415 N   0  0  0  0  0  0
  -25.4351  -15.1848   20.4098 N   0  0  0  0  0  0
  -31.7854  -14.7903   20.1277 O   0  0  0  0  0  0
  -21.6636   -6.8838   21.4223 O   0  0  0  0  0  0
  -22.3547  -14.5546   20.6656 O   0  0  0  0  0  0
  -24.6222  -31.8606   23.2063 C   0  0  0  0  0  0
  -25.9067  -32.4803   23.8385 C   0  0  1  0  0  0
  -27.2361  -27.3267   20.1396 C   0  0  0  0  0  0
  -25.5887  -33.8609   24.2303 N   0  0  0  0  0  0
  -23.4187  -30.4802   21.5487 C   0  0  2  0  0  0
  -24.8715  -28.9345   20.1200 C   0  0  0  0  0  0
  -22.7482  -29.4604   22.4971 C   0  0  0  0  0  0
  -18.0280  -28.1402   22.8493 C   0  0  0  0  0  0
  -24.1495  -36.7302   23.2647 C   0  0  0  0  0  0
  -25.9591  -30.7878   21.3882 C   0  0  0  0  0  0
  -26.0334  -29.4132   20.7381 C   0  0  0  0  0  0
  -27.2173  -28.6191   20.7462 C   0  0  0  0  0  0
  -26.0690  -26.9218   19.4567 C   0  0  0  0  0  0
  -24.8897  -27.6900   19.4711 C   0  0  0  0  0  0
  -23.6397  -29.8132   20.1650 C   0  0  0  0  0  0
  -25.4120  -36.3114   24.0350 C   0  0  1  0  0  0
  -20.5876  -28.3702   23.1316 C   0  0  2  0  0  0
  -20.6778  -26.9428   22.5443 C   0  0  0  0  0  0
  -19.5761  -26.6411   21.5238 C   0  0  0  0  0  0
  -18.1917  -26.7940   22.1628 C   0  0  0  0  0  0
  -19.1526  -28.8873   23.2889 C   0  0  0  0  0  0
  -18.9448  -30.1471   23.8919 C   0  0  0  0  0  0
  -17.6445  -30.6602   24.0565 C   0  0  0  0  0  0
  -25.9051  -34.9482   23.5128 C   0  0  0  0  0  0
  -16.5342  -29.9100   23.6330 C   0  0  0  0  0  0
  -16.7262  -28.6513   23.0361 C   0  0  0  0  0  0
  -26.4470  -31.6623   25.0750 C   0  0  0  0  0  0
  -25.3711  -31.3768   26.1495 C   0  0  0  0  0  0
  -27.0343  -30.3057   24.6229 C   0  0  0  0  0  0
  -27.6054  -32.4378   25.7469 C   0  0  0  0  0  0
  -27.5585  -37.1829   24.8457 C   0  0  0  0  0  0
  -21.4197  -29.3042   22.3726 N   0  0  0  0  0  0
  -26.4299  -37.3802   23.9405 N   0  0  0  0  0  0
  -24.6834  -31.0609   22.1028 N   0  0  0  0  0  0
  -23.4212  -28.8154   23.3054 O   0  0  0  0  0  0
  -28.3612  -26.4889   20.1380 O   0  0  0  0  0  0
  -26.5652  -34.8918   22.4715 O   0  0  0  0  0  0
  -23.5391  -32.1427   23.7391 O   0  0  0  0  0  0
  -28.8845  -19.1462   19.7775 C   0  0  0  0  0  0
  -28.9117  -17.7331   19.9556 C   0  0  0  0  0  0
  -30.8285  -19.3486   21.1785 C   0  0  0  0  0  0
  -29.8496  -19.9954   20.3740 C   0  0  0  0  0  0
  -30.8740  -17.9288   21.3515 C   0  0  0  0  0  0
  -29.9162  -17.0837   20.7172 C   0  0  0  0  0  0
  -29.2480  -24.0587   20.0941 C   0  0  0  0  0  0
  -30.0800  -24.3473   19.0737 C   0  0  0  0  0  0
  -27.0352  -23.2251   21.8546 C   0  0  0  0  0  0
  -26.9436  -24.5577   21.1139 C   0  0  0  0  0  0
  -27.7787  -22.1831   21.0054 C   0  0  0  0  0  0
  -28.3376  -25.1418   20.7815 C   0  0  2  0  0  0
  -31.9726  -17.3318   22.2180 C   0  0  0  0  0  0
  -29.9452  -21.5175   19.9805 C   0  0  0  0  0  0
  -29.8191  -15.6441   20.9171 N   0  0  0  0  0  0
  -29.1640  -22.6139   20.6931 N   0  3  2  0  0  0
  -31.4780  -12.5251   19.1266 H   0  0  0  0  0  0
  -30.3876  -11.3914   19.8700 H   0  0  0  0  0  0
  -29.7628  -11.7528   17.4737 H   0  0  0  0  0  0
  -29.6262  -13.4736   17.7386 H   0  0  0  0  0  0
  -27.8915  -11.2716   18.8974 H   0  0  0  0  0  0
  -27.3557  -12.5157   17.8071 H   0  0  0  0  0  0
  -27.6733  -14.2369   19.5140 H   0  0  0  0  0  0
  -28.7085  -12.0327   21.3727 H   0  0  0  0  0  0
  -28.4370  -13.6786   21.8497 H   0  0  0  0  0  0
  -25.2723   -9.5711   22.4753 H   0  0  0  0  0  0
  -23.9976   -7.4649   22.7491 H   0  0  0  0  0  0
  -21.0782   -8.8707   19.8985 H   0  0  0  0  0  0
  -22.3576  -10.9641   19.6176 H   0  0  0  0  0  0
  -21.1995   -7.6134   23.9668 H   0  0  0  0  0  0
  -21.1493   -6.0533   25.9057 H   0  0  0  0  0  0
  -22.0604   -2.7583   23.2860 H   0  0  0  0  0  0
  -22.4086  -11.9899   22.4798 H   0  0  0  0  0  0
  -21.1133  -13.1278   22.2629 H   0  0  0  0  0  0
  -24.6727  -15.8463   20.5019 H   0  0  0  0  0  0
  -26.2824  -15.6130   20.0603 H   0  0  0  0  0  0
  -26.7112  -32.5483   23.1117 H   0  0  0  0  0  0
  -24.9957  -33.9762   25.0392 H   0  0  0  0  0  0
  -22.7079  -31.2945   21.4011 H   0  0  0  0  0  0
  -23.3775  -35.9616   23.3319 H   0  0  0  0  0  0
  -24.3559  -36.8917   22.2052 H   0  0  0  0  0  0
  -23.7232  -37.6499   23.6656 H   0  0  0  0  0  0
  -26.1054  -31.5462   20.6182 H   0  0  0  0  0  0
  -26.8356  -30.8332   22.0219 H   0  0  0  0  0  0
  -28.1067  -28.9810   21.2441 H   0  0  0  0  0  0
  -26.0644  -25.9945   18.9032 H   0  0  0  0  0  0
  -24.0104  -27.3289   18.9572 H   0  0  0  0  0  0
  -23.7624  -30.5884   19.4088 H   0  0  0  0  0  0
  -22.7621  -29.2396   19.8601 H   0  0  0  0  0  0
  -25.1294  -36.1972   25.0845 H   0  0  0  0  0  0
  -20.9935  -28.3267   24.1445 H   0  0  0  0  0  0
  -20.5706  -26.2288   23.3637 H   0  0  0  0  0  0
  -21.6638  -26.7468   22.1214 H   0  0  0  0  0  0
  -19.6925  -25.6321   21.1257 H   0  0  0  0  0  0
  -19.6703  -27.3237   20.6776 H   0  0  0  0  0  0
  -17.4196  -26.6707   21.4012 H   0  0  0  0  0  0
  -18.0291  -26.0075   22.9016 H   0  0  0  0  0  0
  -19.7923  -30.7279   24.2304 H   0  0  0  0  0  0
  -17.5004  -31.6277   24.5178 H   0  0  0  0  0  0
  -15.5342  -30.3022   23.7662 H   0  0  0  0  0  0
  -15.8649  -28.0848   22.7097 H   0  0  0  0  0  0
  -24.5867  -30.7120   25.7831 H   0  0  0  0  0  0
  -24.8914  -32.2949   26.4905 H   0  0  0  0  0  0
  -25.8043  -30.8943   27.0268 H   0  0  0  0  0  0
  -26.2919  -29.6784   24.1291 H   0  0  0  0  0  0
  -27.4082  -29.7326   25.4714 H   0  0  0  0  0  0
  -27.8762  -30.4361   23.9449 H   0  0  0  0  0  0
  -27.2683  -33.3686   26.2038 H   0  0  0  0  0  0
  -28.3845  -32.6949   25.0282 H   0  0  0  0  0  0
  -28.0765  -31.8525   26.5386 H   0  0  0  0  0  0
  -28.2607  -38.0121   24.7502 H   0  0  0  0  0  0
  -28.1090  -36.2657   24.6288 H   0  0  0  0  0  0
  -27.2309  -37.1478   25.8862 H   0  0  0  0  0  0
  -20.9402  -29.8712   21.6875 H   0  0  0  0  0  0
  -26.0194  -38.2885   24.1381 H   0  0  0  0  0  0
  -28.1276  -19.5727   19.1327 H   0  0  0  0  0  0
  -28.1496  -17.1444   19.4669 H   0  0  0  0  0  0
  -31.5924  -19.9486   21.6496 H   0  0  0  0  0  0
  -30.1484  -25.3559   18.6926 H   0  0  0  0  0  0
  -30.7224  -23.6147   18.6087 H   0  0  0  0  0  0
  -26.0278  -22.8654   22.0669 H   0  0  0  0  0  0
  -27.5213  -23.3573   22.8230 H   0  0  0  0  0  0
  -26.3722  -25.2663   21.7157 H   0  0  0  0  0  0
  -26.3745  -24.3657   20.2065 H   0  0  0  0  0  0
  -27.2318  -22.0007   20.0788 H   0  0  0  0  0  0
  -27.7954  -21.2366   21.5485 H   0  0  0  0  0  0
  -28.8266  -25.3195   21.7422 H   0  0  0  0  0  0
  -32.7770  -16.9536   21.5895 H   0  0  0  0  0  0
  -32.3888  -18.0743   22.8996 H   0  0  0  0  0  0
  -31.6055  -16.5038   22.8264 H   0  0  0  0  0  0
  -29.6724  -21.5595   18.9260 H   0  0  0  0  0  0
  -30.9997  -21.7913   20.0225 H   0  0  0  0  0  0
  -28.8897  -15.3215   21.1303 H   0  0  0  0  0  0
  -29.6169  -22.6584   21.5941 H   0  0  0  0  0  0
  1 25  1  0  0  0
  1 30  2  0  0  0
  1 85  1  0  0  0
  2  3  1  0  0  0
  2 25  1  0  0  0
  2 87  1  0  0  0
  2 88  1  0  0  0
  3  4  1  0  0  0
  3 89  1  0  0  0
  3 90  1  0  0  0
  4  5  1  0  0  0
  4 91  1  0  0  0
  4 92  1  0  0  0
  5  6  1  0  0  0
  5 26  1  0  0  0
  5 93  1  0  0  0
  6 25  1  0  0  0
  6 94  1  0  0  0
  6 95  1  0  0  0
  7  8  2  0  0  0
  7 26  1  0  0  0
  7 29  1  0  0  0
  8  9  1  0  0  0
  8 22  1  0  0  0
  9 10  1  0  0  0
  9 27  2  0  0  0
 10 11  2  0  0  0
 10 15  1  0  0  0
 11 12  1  0  0  0
 11 96  1  0  0  0
 12 13  2  0  0  0
 12 97  1  0  0  0
 13 14  1  0  0  0
 13 31  1  0  0  0
 14 15  2  0  0  0
 14 98  1  0  0  0
 15 99  1  0  0  0
 16 17  2  0  0  0
 16 21  1  0  0  0
 16 31  1  0  0  0
 17 18  1  0  0  0
 17100  1  0  0  0
 18 19  2  0  0  0
 18101  1  0  0  0
 19 20  1  0  0  0
 19 24  1  0  0  0
 20 21  2  0  0  0
 20102  1  0  0  0
 21 23  1  0  0  0
 22 28  1  0  0  0
 22 32  2  0  0  0
 26 27  1  0  0  0
 28103  1  0  0  0
 28104  1  0  0  0
 29105  1  0  0  0
 29106  1  0  0  0
 33 34  1  0  0  0
 33 66  1  0  0  0
 33 70  2  0  0  0
 34 36  1  0  0  0
 34 59  1  0  0  0
 34107  1  0  0  0
 35 44  2  0  0  0
 35 45  1  0  0  0
 35 68  1  0  0  0
 36 56  1  0  0  0
 36108  1  0  0  0
 37 39  1  0  0  0
 37 47  1  0  0  0
 37 66  1  0  0  0
 37109  1  0  0  0
 38 43  2  0  0  0
 38 46  1  0  0  0
 38 47  1  0  0  0
 39 64  1  0  0  0
 39 67  2  0  0  0
 40 52  1  0  0  0
 40 53  2  0  0  0
 40 58  1  0  0  0
 41110  1  0  0  0
 41111  1  0  0  0
 41112  1  0  0  0
 41 48  1  0  0  0
 42 43  1  0  0  0
 42 66  1  0  0  0
 42113  1  0  0  0
 42114  1  0  0  0
 43 44  1  0  0  0
 44115  1  0  0  0
 45 46  2  0  0  0
 45116  1  0  0  0
 46117  1  0  0  0
 47118  1  0  0  0
 47119  1  0  0  0
 48 56  1  0  0  0
 48 65  1  0  0  0
 48120  1  0  0  0
 49 50  1  0  0  0
 49 53  1  0  0  0
 49 64  1  0  0  0
 49121  1  0  0  0
 50 51  1  0  0  0
 50122  1  0  0  0
 50123  1  0  0  0
 51 52  1  0  0  0
 51124  1  0  0  0
 51125  1  0  0  0
 52126  1  0  0  0
 52127  1  0  0  0
 53 54  1  0  0  0
 54 55  2  0  0  0
 54128  1  0  0  0
 55 57  1  0  0  0
 55129  1  0  0  0
 56 69  2  0  0  0
 57 58  2  0  0  0
 57130  1  0  0  0
 58131  1  0  0  0
 59 60  1  0  0  0
 59 61  1  0  0  0
 59 62  1  0  0  0
 60132  1  0  0  0
 60133  1  0  0  0
 60134  1  0  0  0
 61135  1  0  0  0
 61136  1  0  0  0
 61137  1  0  0  0
 62138  1  0  0  0
 62139  1  0  0  0
 62140  1  0  0  0
 63 65  1  0  0  0
 63141  1  0  0  0
 63142  1  0  0  0
 63143  1  0  0  0
 64144  1  0  0  0
 65145  1  0  0  0
 68 82  1  0  0  0
 71 72  2  0  0  0
 71 74  1  0  0  0
 71146  1  0  0  0
 72 76  1  0  0  0
 72147  1  0  0  0
 73 74  2  0  0  0
 73 75  1  0  0  0
 73148  1  0  0  0
 74 84  1  0  0  0
 75 76  2  0  0  0
 75 83  1  0  0  0
 76 85  1  0  0  0
 77 78  2  0  0  0
 77 82  1  0  0  0
 77 86  1  0  0  0
 78149  1  0  0  0
 78150  1  0  0  0
 79 80  1  0  0  0
 79 81  1  0  0  0
 79151  1  0  0  0
 79152  1  0  0  0
 80 82  1  0  0  0
 80153  1  0  0  0
 80154  1  0  0  0
 81 86  1  0  0  0
 81155  1  0  0  0
 81156  1  0  0  0
 82157  1  0  0  0
 83158  1  0  0  0
 83159  1  0  0  0
 83160  1  0  0  0
 84161  1  0  0  0
 84162  1  0  0  0
 84 86  1  0  0  0
 85163  1  0  0  0
 86164  1  0  0  0
M  CHG  1  86   1
M  ISO  4   1 100  68 101  82 101  85 100
M  END
> <chiral flag>
0

> <version>
0

> <s_m_source_file>
/data/baiqing/PycharmProjects/Reinvent-master-3.2/result/LINK_invent/BTK/process_docking_weight1_custom_product_contain_oxygen_bond_distance_aromatic_linkinvent_7_9_3/rearranged_h_0044.sdf

> <i_m_source_file_index>
88

> <r_mmod_Potential_Energy-OPLS-2005>
-34.104549407959

> <r_mmod_Stretch_Energy-OPLS-2005>
84.4392395019531

> <r_mmod_Bend_Energy-OPLS-2005>
150.550506591797

> <r_mmod_Torsional_Energy-OPLS-2005>
259.150543212891

> <r_mmod_Improper_Torsional_Energy-OPLS-2005>
6.25934934616089

> <r_mmod_Van_der_Waal_Energy-OPLS-2005>
150.474761962891

> <r_mmod_Electrostatic_Energy-OPLS-2005>
-291.071868896484

> <r_mmod_Solvation_Energy-OPLS-2005>
-436.934722900391

> <b_mmod_Minimization_Converged-OPLS-2005>
0

> <r_mmod_RMS_Derivative-OPLS-2005>
4.20329523086548

$$$$
88
                    3D
 Structure written by MMmdl.
165174  0  0  1  0            999 V2000
  -30.0031  -16.2189   19.9240 C   0  0  0  0  0  0
  -30.3600  -13.4970   19.4119 C   0  0  0  0  0  0
  -29.5448  -12.7503   18.3081 C   0  0  0  0  0  0
  -28.1761  -12.2934   18.8280 C   0  0  0  0  0  0
  -27.5643  -13.3587   19.7550 C   0  0  2  0  0  0
  -28.5623  -13.9824   20.7697 C   0  0  0  0  0  0
  -25.2277  -13.8371   20.5884 C   0  0  0  0  0  0
  -24.1717  -13.0454   20.9368 C   0  0  0  0  0  0
  -24.6478  -11.6981   20.8778 C   0  0  0  0  0  0
  -23.9176  -10.4301   21.0385 C   0  0  0  0  0  0
  -24.3674   -9.4210   21.9184 C   0  0  0  0  0  0
  -23.6314   -8.2262   22.0764 C   0  0  0  0  0  0
  -22.4301   -8.0296   21.3545 C   0  0  0  0  0  0
  -21.9964   -9.0280   20.4643 C   0  0  0  0  0  0
  -22.7333  -10.2140   20.3040 C   0  0  0  0  0  0
  -21.6863   -6.0737   22.5280 C   0  0  0  0  0  0
  -21.4019   -6.5638   23.8213 C   0  0  0  0  0  0
  -21.3661   -5.6793   24.9176 C   0  0  0  0  0  0
  -21.6045   -4.3055   24.7231 C   0  0  0  0  0  0
  -21.8819   -3.8145   23.4353 C   0  0  0  0  0  0
  -21.9189   -4.6960   22.3405 C   0  0  0  0  0  0
  -22.7702  -13.5138   21.1966 C   0  0  0  0  0  0
  -22.1656   -4.2139   21.0985 F   0  0  0  0  0  0
  -21.5626   -3.4539   25.7746 F   0  0  0  0  0  0
  -29.5956  -14.7422   19.9774 N   0  0  0  0  0  0
  -26.2763  -12.9800   20.3229 N   0  0  0  0  0  0
  -25.9440  -11.6812   20.5640 N   0  0  0  0  0  0
  -22.0336  -12.8106   22.0484 N   0  0  0  0  0  0
  -25.3814  -15.2115   20.4289 N   0  0  0  0  0  0
  -31.2591  -16.0950   19.9691 O   0  0  0  0  0  0
  -21.6651   -6.8893   21.4245 O   0  0  0  0  0  0
  -22.3378  -14.5441   20.6812 O   0  0  0  0  0  0
  -24.7425  -31.8678   22.8767 C   0  0  0  0  0  0
  -25.9726  -32.4445   23.6881 C   0  0  1  0  0  0
  -27.9732  -26.2964   20.6296 C   0  0  0  0  0  0
  -25.6048  -33.8143   24.1134 N   0  0  0  0  0  0
  -23.4018  -30.2493   21.2996 C   0  0  2  0  0  0
  -24.9388  -27.8157   20.0091 C   0  0  0  0  0  0
  -22.5444  -29.7176   22.5321 C   0  0  0  0  0  0
  -17.9954  -28.1458   22.8486 C   0  0  0  0  0  0
  -24.1469  -36.7123   23.2668 C   0  0  0  0  0  0
  -26.4466  -30.6621   21.0874 C   0  0  0  0  0  0
  -26.7994  -29.0152   20.2271 C   0  0  0  0  0  0
  -28.2441  -28.0677   20.3202 C   0  0  0  0  0  0
  -26.4251  -25.4415   20.4399 C   0  0  0  0  0  0
  -24.9800  -26.2316   20.1087 C   0  0  0  0  0  0
  -23.3820  -28.6672   20.3715 C   0  0  0  0  0  0
  -25.4175  -36.2817   24.0186 C   0  0  1  0  0  0
  -20.5328  -28.4101   23.1238 C   0  0  2  0  0  0
  -20.6390  -26.9630   22.5849 C   0  0  0  0  0  0
  -19.5651  -26.6437   21.5403 C   0  0  0  0  0  0
  -18.1713  -26.8024   22.1584 C   0  0  0  0  0  0
  -19.1077  -28.8999   23.2958 C   0  0  0  0  0  0
  -18.9050  -30.1590   23.8978 C   0  0  0  0  0  0
  -17.6052  -30.6663   24.0647 C   0  0  0  0  0  0
  -25.9252  -34.9355   23.4580 C   0  0  0  0  0  0
  -16.5004  -29.9102   23.6367 C   0  0  0  0  0  0
  -16.6952  -28.6542   23.0344 C   0  0  0  0  0  0
  -26.4455  -31.6623   25.0065 C   0  0  0  0  0  0
  -25.3235  -31.4257   26.0480 C   0  0  0  0  0  0
  -27.0866  -30.2857   24.7239 C   0  0  0  0  0  0
  -27.5635  -32.4758   25.7118 C   0  0  0  0  0  0
  -27.5563  -37.1660   24.8454 C   0  0  0  0  0  0
  -21.2865  -29.3525   22.2909 N   0  0  0  0  0  0
  -26.4204  -37.3688   23.9501 N   0  0  0  0  0  0
  -24.8481  -31.1281   21.6625 N   0  0  0  0  0  0
  -23.0746  -29.3571   23.5914 O   0  0  0  0  0  0
  -27.2727  -26.2210   21.8727 O   0  0  0  0  0  0
  -26.6024  -34.9172   22.4296 O   0  0  0  0  0  0
  -23.6489  -32.1518   23.4082 O   0  0  0  0  0  0
  -29.2390  -22.4729   19.0472 C   0  0  0  0  0  0
  -27.2376  -21.9503   18.8196 C   0  0  0  0  0  0
  -29.6272  -20.9233   19.3064 C   0  0  0  0  0  0
  -27.6194  -20.4093   19.0834 C   0  0  0  0  0  0
  -27.9598  -23.3272   18.7567 C   0  0  0  0  0  0
  -28.8877  -19.5501   19.3774 C   0  0  0  0  0  0
  -25.9543  -28.6671   18.0095 C   0  0  0  0  0  0
  -27.8546  -28.5243   14.9431 C   0  0  0  0  0  0
  -26.2513  -28.9529   16.7323 C   0  0  0  0  0  0
  -26.9927  -28.0635   15.8655 C   0  0  0  0  0  0
  -25.0205  -29.9290   19.2658 C   0  0  0  0  0  0
  -25.2335  -28.7714   21.9812 C   0  0  0  0  0  0
  -26.5179  -27.4082   21.6620 C   0  0  0  0  0  0
  -25.8329  -27.0469   22.4365 C   0  0  2  0  0  0
  -27.4970  -25.3131   18.2228 C   0  0  0  0  0  0
  -29.1626  -17.6711   19.6609 N   0  0  0  0  0  0
  -26.7575  -27.0727   18.8673 N   0  3  2  0  0  0
  -31.2981  -13.8294   18.9651 H   0  0  0  0  0  0
  -30.6679  -12.8053   20.1985 H   0  0  0  0  0  0
  -30.1036  -11.8947   17.9249 H   0  0  0  0  0  0
  -29.4029  -13.4252   17.4630 H   0  0  0  0  0  0
  -28.3165  -11.3702   19.3920 H   0  0  0  0  0  0
  -27.5085  -12.0547   18.0003 H   0  0  0  0  0  0
  -27.3232  -14.1655   19.0611 H   0  0  0  0  0  0
  -28.9753  -13.2424   21.4568 H   0  0  0  0  0  0
  -28.0476  -14.7099   21.3987 H   0  0  0  0  0  0
  -25.2790   -9.5677   22.4800 H   0  0  0  0  0  0
  -23.9984   -7.4662   22.7515 H   0  0  0  0  0  0
  -21.0885   -8.8824   19.8961 H   0  0  0  0  0  0
  -22.3795  -10.9677   19.6153 H   0  0  0  0  0  0
  -21.2024   -7.6147   23.9712 H   0  0  0  0  0  0
  -21.1480   -6.0525   25.9077 H   0  0  0  0  0  0
  -22.0598   -2.7604   23.2865 H   0  0  0  0  0  0
  -22.3917  -11.9757   22.4884 H   0  0  0  0  0  0
  -21.0946  -13.1132   22.2645 H   0  0  0  0  0  0
  -24.6196  -15.8678   20.5574 H   0  0  0  0  0  0
  -26.2342  -15.6485   20.1067 H   0  0  0  0  0  0
  -26.8274  -32.5118   23.0160 H   0  0  0  0  0  0
  -24.9949  -33.8884   24.9142 H   0  0  0  0  0  0
  -22.7608  -30.9589   20.7742 H   0  0  0  0  0  0
  -23.3849  -35.9322   23.3069 H   0  0  0  0  0  0
  -24.3504  -36.9141   22.2137 H   0  0  0  0  0  0
  -23.7090  -37.6117   23.7023 H   0  0  0  0  0  0
  -26.8548  -31.4812   20.4948 H   0  0  0  0  0  0
  -27.1277  -30.6565   21.9301 H   0  0  0  0  0  0
  -29.2118  -28.5145   20.5061 H   0  0  0  0  0  0
  -26.3762  -24.3781   20.6480 H   0  0  0  0  0  0
  -24.0541  -25.6681   20.1138 H   0  0  0  0  0  0
  -22.7786  -28.7564   19.4660 H   0  0  0  0  0  0
  -22.7986  -27.9011   20.8761 H   0  0  0  0  0  0
  -25.1418  -36.1345   25.0653 H   0  0  0  0  0  0
  -20.9439  -28.3999   24.1352 H   0  0  0  0  0  0
  -20.4843  -26.2823   23.4236 H   0  0  0  0  0  0
  -21.6390  -26.7267   22.2276 H   0  0  0  0  0  0
  -19.6905  -25.6298   21.1578 H   0  0  0  0  0  0
  -19.6733  -27.3174   20.6888 H   0  0  0  0  0  0
  -17.4095  -26.6818   21.3873 H   0  0  0  0  0  0
  -17.9973  -26.0166   22.8953 H   0  0  0  0  0  0
  -19.7515  -30.7456   24.2289 H   0  0  0  0  0  0
  -17.4539  -31.6340   24.5246 H   0  0  0  0  0  0
  -15.4983  -30.2963   23.7664 H   0  0  0  0  0  0
  -15.8381  -28.0850   22.7017 H   0  0  0  0  0  0
  -24.4943  -30.8544   25.6311 H   0  0  0  0  0  0
  -24.9137  -32.3663   26.4179 H   0  0  0  0  0  0
  -25.6874  -30.8745   26.9153 H   0  0  0  0  0  0
  -26.3578  -29.4913   24.6204 H   0  0  0  0  0  0
  -27.6657  -29.9567   25.5890 H   0  0  0  0  0  0
  -27.7907  -30.2905   23.8951 H   0  0  0  0  0  0
  -27.2121  -33.4405   26.0798 H   0  0  0  0  0  0
  -28.3942  -32.6725   25.0325 H   0  0  0  0  0  0
  -27.9699  -31.9550   26.5796 H   0  0  0  0  0  0
  -28.2420  -38.0110   24.7737 H   0  0  0  0  0  0
  -28.1207  -36.2660   24.5975 H   0  0  0  0  0  0
  -27.2317  -37.0909   25.8845 H   0  0  0  0  0  0
  -20.8732  -29.6051   21.4042 H   0  0  0  0  0  0
  -25.9963  -38.2651   24.1749 H   0  0  0  0  0  0
  -30.1232  -23.0966   19.0522 H   0  0  0  0  0  0
  -26.1827  -22.0551   18.6054 H   0  0  0  0  0  0
  -30.6905  -20.8028   19.4632 H   0  0  0  0  0  0
  -26.7395  -19.7834   19.0236 H   0  0  0  0  0  0
  -28.3831  -27.8535   14.2803 H   0  0  0  0  0  0
  -28.0543  -29.5820   14.8414 H   0  0  0  0  0  0
  -25.8786  -29.8808   16.3258 H   0  0  0  0  0  0
  -26.8260  -26.9970   15.9340 H   0  0  0  0  0  0
  -24.0640  -30.2133   18.8152 H   0  0  0  0  0  0
  -25.4895  -30.8854   19.0288 H   0  0  0  0  0  0
  -24.3858  -28.2125   22.3394 H   0  0  0  0  0  0
  -25.4640  -29.3479   22.8648 H   0  0  0  0  0  0
  -27.0329  -27.8980   22.6080 H   0  0  0  0  0  0
  -27.2263  -28.1872   22.1651 H   0  0  0  0  0  0
  -25.0419  -26.2965   22.4042 H   0  0  0  0  0  0
  -26.8488  -25.1340   17.3648 H   0  0  0  0  0  0
  -28.4314  -25.6359   17.7661 H   0  0  0  0  0  0
  -28.2288  -17.2883   19.6298 H   0  0  0  0  0  0
  -25.8820  -26.5694   18.9319 H   0  0  0  0  0  0
  1 25  1  0  0  0
  1 30  2  0  0  0
  1 86  1  0  0  0
  2  3  1  0  0  0
  2 25  1  0  0  0
  2 88  1  0  0  0
  2 89  1  0  0  0
  3  4  1  0  0  0
  3 90  1  0  0  0
  3 91  1  0  0  0
  4  5  1  0  0  0
  4 92  1  0  0  0
  4 93  1  0  0  0
  5  6  1  0  0  0
  5 26  1  0  0  0
  5 94  1  0  0  0
  6 25  1  0  0  0
  6 95  1  0  0  0
  6 96  1  0  0  0
  7  8  2  0  0  0
  7 26  1  0  0  0
  7 29  1  0  0  0
  8  9  1  0  0  0
  8 22  1  0  0  0
  9 10  1  0  0  0
  9 27  2  0  0  0
 10 11  2  0  0  0
 10 15  1  0  0  0
 11 12  1  0  0  0
 11 97  1  0  0  0
 12 13  2  0  0  0
 12 98  1  0  0  0
 13 14  1  0  0  0
 13 31  1  0  0  0
 14 15  2  0  0  0
 14 99  1  0  0  0
 15100  1  0  0  0
 16 17  2  0  0  0
 16 21  1  0  0  0
 16 31  1  0  0  0
 17 18  1  0  0  0
 17101  1  0  0  0
 18 19  2  0  0  0
 18102  1  0  0  0
 19 20  1  0  0  0
 19 24  1  0  0  0
 20 21  2  0  0  0
 20103  1  0  0  0
 21 23  1  0  0  0
 22 28  1  0  0  0
 22 32  2  0  0  0
 26 27  1  0  0  0
 28104  1  0  0  0
 28105  1  0  0  0
 29106  1  0  0  0
 29107  1  0  0  0
 33 34  1  0  0  0
 33 66  1  0  0  0
 33 70  2  0  0  0
 34 36  1  0  0  0
 34 59  1  0  0  0
 34108  1  0  0  0
 35 44  2  0  0  0
 35 45  1  0  0  0
 35 68  1  0  0  0
 36 56  1  0  0  0
 36109  1  0  0  0
 37 39  1  0  0  0
 37 47  1  0  0  0
 37 66  1  0  0  0
 37110  1  0  0  0
 38 43  2  0  0  0
 38 46  1  0  0  0
 38 47  1  0  0  0
 39 64  1  0  0  0
 39 67  2  0  0  0
 40 52  1  0  0  0
 40 53  2  0  0  0
 40 58  1  0  0  0
 41111  1  0  0  0
 41112  1  0  0  0
 41113  1  0  0  0
 41 48  1  0  0  0
 42 43  1  0  0  0
 42 66  1  0  0  0
 42114  1  0  0  0
 42115  1  0  0  0
 43 44  1  0  0  0
 44116  1  0  0  0
 45 46  2  0  0  0
 45117  1  0  0  0
 46118  1  0  0  0
 47119  1  0  0  0
 47120  1  0  0  0
 48 56  1  0  0  0
 48 65  1  0  0  0
 48121  1  0  0  0
 49 50  1  0  0  0
 49 53  1  0  0  0
 49 64  1  0  0  0
 49122  1  0  0  0
 50 51  1  0  0  0
 50123  1  0  0  0
 50124  1  0  0  0
 51 52  1  0  0  0
 51125  1  0  0  0
 51126  1  0  0  0
 52127  1  0  0  0
 52128  1  0  0  0
 53 54  1  0  0  0
 54 55  2  0  0  0
 54129  1  0  0  0
 55 57  1  0  0  0
 55130  1  0  0  0
 56 69  2  0  0  0
 57 58  2  0  0  0
 57131  1  0  0  0
 58132  1  0  0  0
 59 60  1  0  0  0
 59 61  1  0  0  0
 59 62  1  0  0  0
 60133  1  0  0  0
 60134  1  0  0  0
 60135  1  0  0  0
 61136  1  0  0  0
 61137  1  0  0  0
 61138  1  0  0  0
 62139  1  0  0  0
 62140  1  0  0  0
 62141  1  0  0  0
 63 65  1  0  0  0
 63142  1  0  0  0
 63143  1  0  0  0
 63144  1  0  0  0
 64145  1  0  0  0
 65146  1  0  0  0
 68 84  1  0  0  0
 71 73  2  0  0  0
 71 75  1  0  0  0
 71147  1  0  0  0
 72 74  1  0  0  0
 72 75  2  0  0  0
 72148  1  0  0  0
 73 76  1  0  0  0
 73149  1  0  0  0
 74 76  2  0  0  0
 74150  1  0  0  0
 75 85  1  0  0  0
 76 86  1  0  0  0
 77 79  2  0  0  0
 77 81  1  0  0  0
 77 87  1  0  0  0
 78 80  2  0  0  0
 78151  1  0  0  0
 78152  1  0  0  0
 79 80  1  0  0  0
 79153  1  0  0  0
 80154  1  0  0  0
 81 82  1  0  0  0
 81155  1  0  0  0
 81156  1  0  0  0
 82 84  1  0  0  0
 82157  1  0  0  0
 82158  1  0  0  0
 83 84  1  0  0  0
 83 87  1  0  0  0
 83159  1  0  0  0
 83160  1  0  0  0
 84161  1  0  0  0
 85162  1  0  0  0
 85163  1  0  0  0
 85 87  1  0  0  0
 86164  1  0  0  0
 87165  1  0  0  0
M  CHG  1  87   1
M  ISO  4   1 100  68 101  84 101  86 100
M  END
> <chiral flag>
0

> <version>
0

> <s_m_source_file>
/data/baiqing/PycharmProjects/Reinvent-master-3.2/result/LINK_invent/BTK/process_docking_weight1_custom_product_contain_oxygen_bond_distance_aromatic_linkinvent_7_9_3/rearranged_h_0044.sdf

> <i_m_source_file_index>
89

> <r_mmod_Potential_Energy-OPLS-2005>
21623.634765625

> <r_mmod_Stretch_Energy-OPLS-2005>
11482.8994140625

> <r_mmod_Bend_Energy-OPLS-2005>
2401.95556640625

> <r_mmod_Torsional_Energy-OPLS-2005>
483.536682128906

> <r_mmod_Improper_Torsional_Energy-OPLS-2005>
55.6343116760254

> <r_mmod_Van_der_Waal_Energy-OPLS-2005>
4639.14501953125

> <r_mmod_Electrostatic_Energy-OPLS-2005>
-355.950408935547

> <r_mmod_Solvation_Energy-OPLS-2005>
-395.467468261719

> <b_mmod_Minimization_Converged-OPLS-2005>
0

> <r_mmod_RMS_Derivative-OPLS-2005>
7.6969895362854

$$$$
89
                    3D
 Structure written by MMmdl.
159167  0  0  1  0            999 V2000
  -30.6860  -14.5238   20.6189 C   0  0  0  0  0  0
  -30.4456  -12.3559   19.4304 C   0  0  0  0  0  0
  -29.5142  -12.5220   18.2109 C   0  0  0  0  0  0
  -28.0337  -12.3576   18.6191 C   0  0  0  0  0  0
  -27.6626  -13.2066   19.8651 C   0  0  2  0  0  0
  -28.7032  -13.0100   20.9907 C   0  0  0  0  0  0
  -25.2613  -13.8138   20.5687 C   0  0  0  0  0  0
  -24.1860  -13.0413   20.9163 C   0  0  0  0  0  0
  -24.6407  -11.6876   20.8655 C   0  0  0  0  0  0
  -23.9082  -10.4261   21.0330 C   0  0  0  0  0  0
  -24.3622   -9.4217   21.9138 C   0  0  0  0  0  0
  -23.6304   -8.2252   22.0742 C   0  0  0  0  0  0
  -22.4299   -8.0269   21.3550 C   0  0  0  0  0  0
  -21.9919   -9.0232   20.4653 C   0  0  0  0  0  0
  -22.7225  -10.2104   20.3011 C   0  0  0  0  0  0
  -21.6874   -6.0736   22.5277 C   0  0  0  0  0  0
  -21.4019   -6.5635   23.8208 C   0  0  0  0  0  0
  -21.3665   -5.6788   24.9178 C   0  0  0  0  0  0
  -21.6048   -4.3058   24.7226 C   0  0  0  0  0  0
  -21.8841   -3.8148   23.4345 C   0  0  0  0  0  0
  -21.9209   -4.6963   22.3402 C   0  0  0  0  0  0
  -22.7892  -13.5227   21.1856 C   0  0  0  0  0  0
  -22.1684   -4.2147   21.0984 F   0  0  0  0  0  0
  -21.5615   -3.4558   25.7747 F   0  0  0  0  0  0
  -30.0333  -13.3370   20.4467 N   0  0  0  0  0  0
  -26.3041  -12.9313   20.3300 N   0  0  0  0  0  0
  -25.9331  -11.6465   20.5665 N   0  0  0  0  0  0
  -22.0550  -12.8189   22.0405 N   0  0  0  0  0  0
  -25.4331  -15.1874   20.4175 N   0  0  0  0  0  0
  -31.8221  -14.7307   20.1823 O   0  0  0  0  0  0
  -21.6661   -6.8874   21.4237 O   0  0  0  0  0  0
  -22.3570  -14.5548   20.6752 O   0  0  0  0  0  0
  -24.6229  -31.8572   23.2143 C   0  0  0  0  0  0
  -25.9129  -32.4751   23.8405 C   0  0  1  0  0  0
  -27.2363  -27.3941   20.0996 C   0  0  0  0  0  0
  -25.5966  -33.8545   24.2360 N   0  0  0  0  0  0
  -23.4070  -30.4912   21.5479 C   0  0  2  0  0  0
  -24.8579  -28.9578   20.1085 C   0  0  0  0  0  0
  -22.7388  -29.4689   22.4949 C   0  0  0  0  0  0
  -18.0278  -28.1394   22.8466 C   0  0  0  0  0  0
  -24.1486  -36.7342   23.2641 C   0  0  0  0  0  0
  -25.9420  -30.8154   21.3719 C   0  0  0  0  0  0
  -26.0183  -29.4468   20.7217 C   0  0  0  0  0  0
  -27.2043  -28.6694   20.7230 C   0  0  0  0  0  0
  -26.0557  -26.9508   19.4519 C   0  0  0  0  0  0
  -24.8759  -27.7112   19.4677 C   0  0  0  0  0  0
  -23.6170  -29.8216   20.1644 C   0  0  0  0  0  0
  -25.4092  -36.3056   24.0333 C   0  0  1  0  0  0
  -20.5858  -28.3699   23.1299 C   0  0  2  0  0  0
  -20.6769  -26.9433   22.5389 C   0  0  0  0  0  0
  -19.5790  -26.6398   21.5160 C   0  0  0  0  0  0
  -18.1956  -26.7950   22.1562 C   0  0  0  0  0  0
  -19.1512  -28.8868   23.2891 C   0  0  0  0  0  0
  -18.9441  -30.1459   23.8943 C   0  0  0  0  0  0
  -17.6434  -30.6599   24.0577 C   0  0  0  0  0  0
  -25.8999  -34.9419   23.5119 C   0  0  0  0  0  0
  -16.5332  -29.9079   23.6354 C   0  0  0  0  0  0
  -16.7258  -28.6493   23.0377 C   0  0  0  0  0  0
  -26.4534  -31.6555   25.0754 C   0  0  0  0  0  0
  -25.3809  -31.3604   26.1514 C   0  0  0  0  0  0
  -27.0421  -30.3008   24.6199 C   0  0  0  0  0  0
  -27.6129  -32.4258   25.7515 C   0  0  0  0  0  0
  -27.5573  -37.1803   24.8458 C   0  0  0  0  0  0
  -21.4116  -29.3083   22.3710 N   0  0  0  0  0  0
  -26.4274  -37.3749   23.9390 N   0  0  0  0  0  0
  -24.6757  -31.0672   22.1035 N   0  0  0  0  0  0
  -23.4116  -28.8207   23.3001 O   0  0  0  0  0  0
  -28.3904  -26.6139   20.1515 O   0  0  0  0  0  0
  -26.5515  -34.8880   22.4643 O   0  0  0  0  0  0
  -23.5428  -32.1310   23.7558 O   0  0  0  0  0  0
  -30.9586  -18.4102   23.2850 C   0  0  0  0  0  0
  -30.8503  -17.0904   22.7991 C   0  0  0  0  0  0
  -29.8355  -17.9549   20.7657 C   0  0  0  0  0  0
  -29.9034  -19.2978   21.2561 C   0  0  0  0  0  0
  -30.4725  -19.5148   22.5474 C   0  0  0  0  0  0
  -30.2737  -16.8460   21.5360 C   0  0  0  0  0  0
  -29.2806  -20.3826   20.4439 C   0  0  0  0  0  0
  -30.5331  -20.8856   23.2218 C   0  0  0  0  0  0
  -29.3326  -24.2212   20.3015 C   0  0  0  0  0  0
  -29.1628  -22.8115   19.6561 C   0  0  0  0  0  0
  -28.2938  -25.2287   19.7321 C   0  0  0  0  0  0
  -28.1997  -20.0914   19.7215 N   0  0  0  0  0  0
  -29.9262  -15.5091   21.1520 N   0  0  0  0  0  0
  -29.7326  -21.6618   20.4218 N   0  3  0  0  0  0
  -31.4872  -12.4847   19.1281 H   0  0  0  0  0  0
  -30.3696  -11.3466   19.8340 H   0  0  0  0  0  0
  -29.7724  -11.7890   17.4463 H   0  0  0  0  0  0
  -29.6759  -13.5029   17.7588 H   0  0  0  0  0  0
  -27.8625  -11.3010   18.8292 H   0  0  0  0  0  0
  -27.3858  -12.6061   17.7793 H   0  0  0  0  0  0
  -27.6958  -14.2503   19.5505 H   0  0  0  0  0  0
  -28.6900  -11.9784   21.3465 H   0  0  0  0  0  0
  -28.4398  -13.6171   21.8567 H   0  0  0  0  0  0
  -25.2765   -9.5732   22.4720 H   0  0  0  0  0  0
  -24.0048   -7.4660   22.7455 H   0  0  0  0  0  0
  -21.0863   -8.8724   19.8961 H   0  0  0  0  0  0
  -22.3661  -10.9638   19.6124 H   0  0  0  0  0  0
  -21.2004   -7.6134   23.9723 H   0  0  0  0  0  0
  -21.1466   -6.0511   25.9086 H   0  0  0  0  0  0
  -22.0614   -2.7608   23.2857 H   0  0  0  0  0  0
  -22.4187  -11.9827   22.4717 H   0  0  0  0  0  0
  -21.1150  -13.1190   22.2591 H   0  0  0  0  0  0
  -24.6628  -15.8371   20.5358 H   0  0  0  0  0  0
  -26.2835  -15.6402   20.1067 H   0  0  0  0  0  0
  -26.7198  -32.5430   23.1173 H   0  0  0  0  0  0
  -25.0189  -33.9649   25.0561 H   0  0  0  0  0  0
  -22.7035  -31.3154   21.4084 H   0  0  0  0  0  0
  -23.3689  -35.9738   23.3267 H   0  0  0  0  0  0
  -24.3631  -36.8979   22.2066 H   0  0  0  0  0  0
  -23.7277  -37.6557   23.6666 H   0  0  0  0  0  0
  -26.0518  -31.5817   20.6018 H   0  0  0  0  0  0
  -26.8297  -30.8695   21.9918 H   0  0  0  0  0  0
  -28.0914  -29.0307   21.2224 H   0  0  0  0  0  0
  -26.0110  -26.0137   18.9189 H   0  0  0  0  0  0
  -23.9934  -27.3348   18.9685 H   0  0  0  0  0  0
  -23.7177  -30.5909   19.3996 H   0  0  0  0  0  0
  -22.7410  -29.2384   19.8734 H   0  0  0  0  0  0
  -25.1259  -36.1910   25.0817 H   0  0  0  0  0  0
  -20.9965  -28.3263   24.1408 H   0  0  0  0  0  0
  -20.5662  -26.2282   23.3542 H   0  0  0  0  0  0
  -21.6645  -26.7480   22.1208 H   0  0  0  0  0  0
  -19.6965  -25.6293   21.1224 H   0  0  0  0  0  0
  -19.6792  -27.3175   20.6665 H   0  0  0  0  0  0
  -17.4204  -26.6687   21.3966 H   0  0  0  0  0  0
  -18.0431  -26.0072   22.8955 H   0  0  0  0  0  0
  -19.7902  -30.7263   24.2342 H   0  0  0  0  0  0
  -17.4979  -31.6283   24.5153 H   0  0  0  0  0  0
  -15.5335  -30.2977   23.7695 H   0  0  0  0  0  0
  -15.8641  -28.0797   22.7136 H   0  0  0  0  0  0
  -24.6074  -30.6838   25.7860 H   0  0  0  0  0  0
  -24.8937  -32.2718   26.4967 H   0  0  0  0  0  0
  -25.8223  -30.8800   27.0260 H   0  0  0  0  0  0
  -26.2994  -29.6648   24.1375 H   0  0  0  0  0  0
  -27.4283  -29.7363   25.4699 H   0  0  0  0  0  0
  -27.8771  -30.4314   23.9324 H   0  0  0  0  0  0
  -27.2813  -33.3570   26.2105 H   0  0  0  0  0  0
  -28.3964  -32.6737   25.0350 H   0  0  0  0  0  0
  -28.0776  -31.8325   26.5408 H   0  0  0  0  0  0
  -28.2543  -38.0139   24.7482 H   0  0  0  0  0  0
  -28.1077  -36.2644   24.6263 H   0  0  0  0  0  0
  -27.2286  -37.1459   25.8860 H   0  0  0  0  0  0
  -20.9251  -29.8816   21.6963 H   0  0  0  0  0  0
  -26.0145  -38.2805   24.1400 H   0  0  0  0  0  0
  -31.3780  -18.5660   24.2703 H   0  0  0  0  0  0
  -31.1610  -16.2727   23.4355 H   0  0  0  0  0  0
  -29.3766  -17.7584   19.8085 H   0  0  0  0  0  0
  -30.7252  -20.7953   24.2921 H   0  0  0  0  0  0
  -29.5911  -21.4277   23.1281 H   0  0  0  0  0  0
  -31.3352  -21.4932   22.8018 H   0  0  0  0  0  0
  -30.3398  -24.5857   20.0964 H   0  0  0  0  0  0
  -29.2259  -24.1550   21.3860 H   0  0  0  0  0  0
  -29.5780  -22.8157   18.6469 H   0  0  0  0  0  0
  -28.0954  -22.6338   19.5343 H   0  0  0  0  0  0
  -27.3293  -24.8153   20.0235 H   0  0  0  0  0  0
  -28.3432  -25.2076   18.6444 H   0  0  0  0  0  0
  -27.8202  -19.1580   19.7714 H   0  0  0  0  0  0
  -27.7086  -20.7725   19.1682 H   0  0  0  0  0  0
  -28.9731  -15.2403   21.3439 H   0  0  0  0  0  0
  -30.6115  -21.8147   20.8983 H   0  0  0  0  0  0
  1 25  1  0  0  0
  1 30  2  0  0  0
  1 83  1  0  0  0
  2  3  1  0  0  0
  2 25  1  0  0  0
  2 85  1  0  0  0
  2 86  1  0  0  0
  3  4  1  0  0  0
  3 87  1  0  0  0
  3 88  1  0  0  0
  4  5  1  0  0  0
  4 89  1  0  0  0
  4 90  1  0  0  0
  5  6  1  0  0  0
  5 26  1  0  0  0
  5 91  1  0  0  0
  6 25  1  0  0  0
  6 92  1  0  0  0
  6 93  1  0  0  0
  7  8  2  0  0  0
  7 26  1  0  0  0
  7 29  1  0  0  0
  8  9  1  0  0  0
  8 22  1  0  0  0
  9 10  1  0  0  0
  9 27  2  0  0  0
 10 11  2  0  0  0
 10 15  1  0  0  0
 11 12  1  0  0  0
 11 94  1  0  0  0
 12 13  2  0  0  0
 12 95  1  0  0  0
 13 14  1  0  0  0
 13 31  1  0  0  0
 14 15  2  0  0  0
 14 96  1  0  0  0
 15 97  1  0  0  0
 16 17  2  0  0  0
 16 21  1  0  0  0
 16 31  1  0  0  0
 17 18  1  0  0  0
 17 98  1  0  0  0
 18 19  2  0  0  0
 18 99  1  0  0  0
 19 20  1  0  0  0
 19 24  1  0  0  0
 20 21  2  0  0  0
 20100  1  0  0  0
 21 23  1  0  0  0
 22 28  1  0  0  0
 22 32  2  0  0  0
 26 27  1  0  0  0
 28101  1  0  0  0
 28102  1  0  0  0
 29103  1  0  0  0
 29104  1  0  0  0
 33 34  1  0  0  0
 33 66  1  0  0  0
 33 70  2  0  0  0
 34 36  1  0  0  0
 34 59  1  0  0  0
 34105  1  0  0  0
 35 44  2  0  0  0
 35 45  1  0  0  0
 35 68  1  0  0  0
 36 56  1  0  0  0
 36106  1  0  0  0
 37 39  1  0  0  0
 37 47  1  0  0  0
 37 66  1  0  0  0
 37107  1  0  0  0
 38 43  2  0  0  0
 38 46  1  0  0  0
 38 47  1  0  0  0
 39 64  1  0  0  0
 39 67  2  0  0  0
 40 52  1  0  0  0
 40 53  2  0  0  0
 40 58  1  0  0  0
 41108  1  0  0  0
 41109  1  0  0  0
 41110  1  0  0  0
 41 48  1  0  0  0
 42 43  1  0  0  0
 42 66  1  0  0  0
 42111  1  0  0  0
 42112  1  0  0  0
 43 44  1  0  0  0
 44113  1  0  0  0
 45 46  2  0  0  0
 45114  1  0  0  0
 46115  1  0  0  0
 47116  1  0  0  0
 47117  1  0  0  0
 48 56  1  0  0  0
 48 65  1  0  0  0
 48118  1  0  0  0
 49 50  1  0  0  0
 49 53  1  0  0  0
 49 64  1  0  0  0
 49119  1  0  0  0
 50 51  1  0  0  0
 50120  1  0  0  0
 50121  1  0  0  0
 51 52  1  0  0  0
 51122  1  0  0  0
 51123  1  0  0  0
 52124  1  0  0  0
 52125  1  0  0  0
 53 54  1  0  0  0
 54 55  2  0  0  0
 54126  1  0  0  0
 55 57  1  0  0  0
 55127  1  0  0  0
 56 69  2  0  0  0
 57 58  2  0  0  0
 57128  1  0  0  0
 58129  1  0  0  0
 59 60  1  0  0  0
 59 61  1  0  0  0
 59 62  1  0  0  0
 60130  1  0  0  0
 60131  1  0  0  0
 60132  1  0  0  0
 61133  1  0  0  0
 61134  1  0  0  0
 61135  1  0  0  0
 62136  1  0  0  0
 62137  1  0  0  0
 62138  1  0  0  0
 63 65  1  0  0  0
 63139  1  0  0  0
 63140  1  0  0  0
 63141  1  0  0  0
 64142  1  0  0  0
 65143  1  0  0  0
 68 81  1  0  0  0
 71 72  2  0  0  0
 71 75  1  0  0  0
 71144  1  0  0  0
 72 76  1  0  0  0
 72145  1  0  0  0
 73 74  1  0  0  0
 73 76  2  0  0  0
 73146  1  0  0  0
 74 75  2  0  0  0
 74 77  1  0  0  0
 75 78  1  0  0  0
 76 83  1  0  0  0
 77 82  1  0  0  0
 77 84  2  0  0  0
 78147  1  0  0  0
 78148  1  0  0  0
 78149  1  0  0  0
 79 80  1  0  0  0
 79 81  1  0  0  0
 79150  1  0  0  0
 79151  1  0  0  0
 80 84  1  0  0  0
 80152  1  0  0  0
 80153  1  0  0  0
 81154  1  0  0  0
 81155  1  0  0  0
 82156  1  0  0  0
 82157  1  0  0  0
 83158  1  0  0  0
 84159  1  0  0  0
M  CHG  1  84   1
M  ISO  4   1 100  68 101  81 101  83 100
M  END
> <chiral flag>
0

> <version>
0

> <s_m_source_file>
/data/baiqing/PycharmProjects/Reinvent-master-3.2/result/LINK_invent/BTK/process_docking_weight1_custom_product_contain_oxygen_bond_distance_aromatic_linkinvent_7_9_3/rearranged_h_0044.sdf

> <i_m_source_file_index>
90

> <r_mmod_Potential_Energy-OPLS-2005>
-199.314025878906

> <r_mmod_Stretch_Energy-OPLS-2005>
48.8166313171387

> <r_mmod_Bend_Energy-OPLS-2005>
110.469284057617

> <r_mmod_Torsional_Energy-OPLS-2005>
233.003997802734

> <r_mmod_Improper_Torsional_Energy-OPLS-2005>
5.40645599365234

> <r_mmod_Van_der_Waal_Energy-OPLS-2005>
164.308883666992

> <r_mmod_Electrostatic_Energy-OPLS-2005>
-358.347869873047

> <r_mmod_Solvation_Energy-OPLS-2005>
-425.434387207031

> <b_mmod_Minimization_Converged-OPLS-2005>
0

> <r_mmod_RMS_Derivative-OPLS-2005>
4.35342788696289

$$$$
90
                    3D
 Structure written by MMmdl.
164173  0  0  1  0            999 V2000
  -29.7963  -14.8644   19.7245 C   0  0  0  0  0  0
  -30.8725  -12.6991   19.2507 C   0  0  0  0  0  0
  -29.8263  -12.1164   18.2791 C   0  0  0  0  0  0
  -28.7934  -11.4951   19.2590 C   0  0  0  0  0  0
  -28.3984  -12.4882   20.4507 C   0  0  2  0  0  0
  -29.5288  -12.9491   21.2471 C   0  0  0  0  0  0
  -25.3143  -13.7760   20.4978 C   0  0  0  0  0  0
  -23.9193  -13.3256   20.8936 C   0  0  0  0  0  0
  -24.0181  -12.1666   20.3236 C   0  0  0  0  0  0
  -23.6581  -10.7035   20.8232 C   0  0  0  0  0  0
  -24.1686   -9.7764   21.8258 C   0  0  0  0  0  0
  -23.5925   -8.4825   22.0499 C   0  0  0  0  0  0
  -22.4320   -8.0988   21.3361 C   0  0  0  0  0  0
  -21.9320   -8.9914   20.3816 C   0  0  0  0  0  0
  -22.5351  -10.2325   20.1314 C   0  0  0  0  0  0
  -21.7438   -6.0974   22.5365 C   0  0  0  0  0  0
  -21.4418   -6.5846   23.8279 C   0  0  0  0  0  0
  -21.3768   -5.6925   24.9191 C   0  0  0  0  0  0
  -21.6009   -4.3161   24.7215 C   0  0  0  0  0  0
  -21.8796   -3.8264   23.4341 C   0  0  0  0  0  0
  -21.9394   -4.7126   22.3444 C   0  0  0  0  0  0
  -22.5727  -13.8568   21.2446 C   0  0  0  0  0  0
  -22.1783   -4.2300   21.1006 F   0  0  0  0  0  0
  -21.5462   -3.4609   25.7692 F   0  0  0  0  0  0
  -30.2078  -13.6400   20.1980 N   0  0  0  0  0  0
  -26.8146  -13.5483   20.8647 N   0  0  0  0  0  0
  -24.9797  -13.2905   20.3810 N   0  0  0  0  0  0
  -21.8723  -13.0814   22.0738 N   0  0  0  0  0  0
  -27.0061  -13.9874   21.1617 N   0  0  0  0  0  0
  -30.8551  -15.5219   19.6827 O   0  0  0  0  0  0
  -21.7469   -6.9030   21.4250 O   0  0  0  0  0  0
  -22.1589  -14.8829   20.7372 O   0  0  0  0  0  0
  -24.6667  -31.8237   23.1765 C   0  0  0  0  0  0
  -25.9362  -32.4569   23.8176 C   0  0  1  0  0  0
  -26.9559  -26.7865   20.2325 C   0  0  0  0  0  0
  -25.6034  -33.8397   24.2069 N   0  0  0  0  0  0
  -23.4686  -30.4550   21.5316 C   0  0  2  0  0  0
  -24.8782  -28.8570   20.0831 C   0  0  0  0  0  0
  -22.7648  -29.4459   22.4776 C   0  0  0  0  0  0
  -18.0315  -28.1412   22.8465 C   0  0  0  0  0  0
  -24.1501  -36.7203   23.2639 C   0  0  0  0  0  0
  -26.0435  -30.5838   21.4248 C   0  0  0  0  0  0
  -26.0629  -29.1721   20.7599 C   0  0  0  0  0  0
  -27.1189  -28.1494   20.8144 C   0  0  0  0  0  0
  -25.8254  -26.6949   19.4138 C   0  0  0  0  0  0
  -24.8002  -27.6562   19.3723 C   0  0  0  0  0  0
  -23.6939  -29.8125   20.1394 C   0  0  0  0  0  0
  -25.4150  -36.2967   24.0287 C   0  0  1  0  0  0
  -20.5937  -28.3752   23.1194 C   0  0  2  0  0  0
  -20.6805  -26.9438   22.5402 C   0  0  0  0  0  0
  -19.5774  -26.6377   21.5224 C   0  0  0  0  0  0
  -18.1951  -26.7946   22.1624 C   0  0  0  0  0  0
  -19.1573  -28.8907   23.2813 C   0  0  0  0  0  0
  -18.9482  -30.1501   23.8845 C   0  0  0  0  0  0
  -17.6474  -30.6601   24.0556 C   0  0  0  0  0  0
  -25.9127  -34.9347   23.4994 C   0  0  0  0  0  0
  -16.5367  -29.9086   23.6347 C   0  0  0  0  0  0
  -16.7297  -28.6510   23.0360 C   0  0  0  0  0  0
  -26.4575  -31.6539   25.0733 C   0  0  0  0  0  0
  -25.3661  -31.3816   26.1358 C   0  0  0  0  0  0
  -27.0470  -30.2889   24.6544 C   0  0  0  0  0  0
  -27.6070  -32.4356   25.7514 C   0  0  0  0  0  0
  -27.5582  -37.1766   24.8465 C   0  0  0  0  0  0
  -21.4322  -29.3044   22.3542 N   0  0  0  0  0  0
  -26.4296  -37.3711   23.9398 N   0  0  0  0  0  0
  -24.7503  -30.9853   22.0941 N   0  0  0  0  0  0
  -23.4223  -28.8000   23.2976 O   0  0  0  0  0  0
  -27.6687  -25.4875   20.4305 O   0  0  0  0  0  0
  -26.5725  -34.8888   22.4584 O   0  0  0  0  0  0
  -23.5745  -32.1275   23.6844 O   0  0  0  0  0  0
  -26.2639  -11.4430   20.7107 C   0  0  0  0  0  0
  -25.6782  -12.5937   22.5522 C   0  0  0  0  0  0
  -26.5465  -12.6913   18.8192 C   0  0  0  0  0  0
  -26.0162  -15.9614   20.6964 C   0  0  0  0  0  0
  -26.7800  -14.8453   19.0034 C   0  0  0  0  0  0
  -25.4417  -14.8130   22.5109 C   0  0  0  0  0  0
  -26.7725  -20.5823   20.2277 C   0  0  0  0  0  0
  -26.6485  -20.7928   23.0140 C   0  0  0  0  0  0
  -26.4103  -22.1320   22.2483 C   0  0  0  0  0  0
  -26.0967  -19.4928   22.3349 C   0  0  0  0  0  0
  -27.1120  -22.2018   20.8739 C   0  0  2  0  0  0
  -26.4374  -12.1226   17.4115 C   0  0  0  0  0  0
  -26.0398  -17.7303   20.3567 C   0  0  0  0  0  0
  -27.0367  -23.9252   20.1817 C   0  0  0  0  0  0
  -26.4628  -19.2862   20.9238 N   0  0  0  0  0  0
  -28.4263  -15.2285   19.0986 N   0  0  0  0  0  0
  -26.8374  -20.5239   18.9987 O   0  0  0  0  0  0
  -24.8627  -15.6485   23.9058 Cl  0  0  0  0  0  0
  -31.6451  -13.2202   18.6792 H   0  0  0  0  0  0
  -31.3971  -11.9086   19.7933 H   0  0  0  0  0  0
  -30.2625  -11.3603   17.6287 H   0  0  0  0  0  0
  -29.4053  -12.8819   17.6271 H   0  0  0  0  0  0
  -29.3478  -10.7137   19.7800 H   0  0  0  0  0  0
  -28.0480  -10.8377   18.8226 H   0  0  0  0  0  0
  -28.4355  -13.0035   19.5701 H   0  0  0  0  0  0
  -30.1120  -12.1232   21.6536 H   0  0  0  0  0  0
  -29.2767  -13.6058   22.0801 H   0  0  0  0  0  0
  -25.0080  -10.0406   22.4476 H   0  0  0  0  0  0
  -24.0232   -7.8192   22.7875 H   0  0  0  0  0  0
  -21.0608   -8.7043   19.8085 H   0  0  0  0  0  0
  -22.0869  -10.8559   19.3695 H   0  0  0  0  0  0
  -21.2600   -7.6392   23.9848 H   0  0  0  0  0  0
  -21.1510   -6.0632   25.9088 H   0  0  0  0  0  0
  -22.0391   -2.7718   23.2753 H   0  0  0  0  0  0
  -22.2823  -12.2424   22.4539 H   0  0  0  0  0  0
  -20.9403  -13.3451   22.3613 H   0  0  0  0  0  0
  -27.0456  -14.9922   21.2867 H   0  0  0  0  0  0
  -26.9978  -13.5338   22.0677 H   0  0  0  0  0  0
  -26.7403  -32.5022   23.0842 H   0  0  0  0  0  0
  -25.0131  -33.9472   25.0186 H   0  0  0  0  0  0
  -22.7829  -31.2927   21.3886 H   0  0  0  0  0  0
  -23.3788  -35.9508   23.3267 H   0  0  0  0  0  0
  -24.3574  -36.8891   22.2061 H   0  0  0  0  0  0
  -23.7232  -37.6369   23.6723 H   0  0  0  0  0  0
  -26.2531  -31.3219   20.6486 H   0  0  0  0  0  0
  -26.9002  -30.6168   22.0848 H   0  0  0  0  0  0
  -27.9988  -28.3504   21.4093 H   0  0  0  0  0  0
  -25.6472  -25.7871   18.8570 H   0  0  0  0  0  0
  -23.9142  -27.4372   18.7919 H   0  0  0  0  0  0
  -23.8689  -30.6001   19.4060 H   0  0  0  0  0  0
  -22.7882  -29.3009   19.8086 H   0  0  0  0  0  0
  -25.1345  -36.1763   25.0780 H   0  0  0  0  0  0
  -21.0018  -28.3362   24.1321 H   0  0  0  0  0  0
  -20.5721  -26.2362   23.3634 H   0  0  0  0  0  0
  -21.6663  -26.7443   22.1183 H   0  0  0  0  0  0
  -19.6929  -25.6274   21.1289 H   0  0  0  0  0  0
  -19.6714  -27.3158   20.6731 H   0  0  0  0  0  0
  -17.4222  -26.6690   21.4028 H   0  0  0  0  0  0
  -18.0337  -26.0107   22.9037 H   0  0  0  0  0  0
  -19.7954  -30.7337   24.2191 H   0  0  0  0  0  0
  -17.5019  -31.6274   24.5166 H   0  0  0  0  0  0
  -15.5362  -30.2963   23.7713 H   0  0  0  0  0  0
  -15.8697  -28.0816   22.7097 H   0  0  0  0  0  0
  -24.5873  -30.7145   25.7645 H   0  0  0  0  0  0
  -24.8807  -32.3021   26.4616 H   0  0  0  0  0  0
  -25.7843  -30.9078   27.0245 H   0  0  0  0  0  0
  -26.3146  -29.6542   24.1547 H   0  0  0  0  0  0
  -27.3940  -29.7296   25.5240 H   0  0  0  0  0  0
  -27.9126  -30.4040   24.0019 H   0  0  0  0  0  0
  -27.2666  -33.3726   26.1933 H   0  0  0  0  0  0
  -28.3947  -32.6805   25.0375 H   0  0  0  0  0  0
  -28.0668  -31.8586   26.5545 H   0  0  0  0  0  0
  -28.2571  -38.0089   24.7529 H   0  0  0  0  0  0
  -28.1106  -36.2614   24.6279 H   0  0  0  0  0  0
  -27.2292  -37.1393   25.8865 H   0  0  0  0  0  0
  -20.9565  -29.8751   21.6693 H   0  0  0  0  0  0
  -26.0139  -38.2771   24.1405 H   0  0  0  0  0  0
  -26.3167  -10.3636   20.6755 H   0  0  0  0  0  0
  -25.4489  -12.0638   23.4642 H   0  0  0  0  0  0
  -26.1914  -20.8774   24.0030 H   0  0  0  0  0  0
  -27.7178  -20.6768   23.2019 H   0  0  0  0  0  0
  -26.7640  -22.9584   22.8664 H   0  0  0  0  0  0
  -25.3403  -22.2931   22.1120 H   0  0  0  0  0  0
  -25.0063  -19.5128   22.3808 H   0  0  0  0  0  0
  -26.3993  -18.6210   22.9157 H   0  0  0  0  0  0
  -28.1777  -22.0994   21.0806 H   0  0  0  0  0  0
  -25.4402  -12.3295   17.0273 H   0  0  0  0  0  0
  -27.1473  -12.6263   16.7544 H   0  0  0  0  0  0
  -26.5866  -11.0460   17.3586 H   0  0  0  0  0  0
  -25.0147  -17.8939   20.0282 H   0  0  0  0  0  0
  -26.6003  -17.7206   19.4234 H   0  0  0  0  0  0
  -25.9630  -24.1010   20.1874 H   0  0  0  0  0  0
  -27.2681  -23.7695   19.1268 H   0  0  0  0  0  0
  -28.5608  -16.1442   18.6938 H   0  0  0  0  0  0
  1 25  1  0  0  0
  1 30  2  0  0  0
  1 86  1  0  0  0
  2  3  1  0  0  0
  2 25  1  0  0  0
  2 89  1  0  0  0
  2 90  1  0  0  0
  3  4  1  0  0  0
  3 91  1  0  0  0
  3 92  1  0  0  0
  4  5  1  0  0  0
  4 93  1  0  0  0
  4 94  1  0  0  0
  5  6  1  0  0  0
  5 26  1  0  0  0
  5 95  1  0  0  0
  6 25  1  0  0  0
  6 96  1  0  0  0
  6 97  1  0  0  0
  7  8  2  0  0  0
  7 26  1  0  0  0
  7 29  1  0  0  0
  8  9  1  0  0  0
  8 22  1  0  0  0
  9 10  1  0  0  0
  9 27  2  0  0  0
 10 11  2  0  0  0
 10 15  1  0  0  0
 11 12  1  0  0  0
 11 98  1  0  0  0
 12 13  2  0  0  0
 12 99  1  0  0  0
 13 14  1  0  0  0
 13 31  1  0  0  0
 14 15  2  0  0  0
 14100  1  0  0  0
 15101  1  0  0  0
 16 17  2  0  0  0
 16 21  1  0  0  0
 16 31  1  0  0  0
 17 18  1  0  0  0
 17102  1  0  0  0
 18 19  2  0  0  0
 18103  1  0  0  0
 19 20  1  0  0  0
 19 24  1  0  0  0
 20 21  2  0  0  0
 20104  1  0  0  0
 21 23  1  0  0  0
 22 28  1  0  0  0
 22 32  2  0  0  0
 26 27  1  0  0  0
 28105  1  0  0  0
 28106  1  0  0  0
 29107  1  0  0  0
 29108  1  0  0  0
 33 34  1  0  0  0
 33 66  1  0  0  0
 33 70  2  0  0  0
 34 36  1  0  0  0
 34 59  1  0  0  0
 34109  1  0  0  0
 35 44  2  0  0  0
 35 45  1  0  0  0
 35 68  1  0  0  0
 36 56  1  0  0  0
 36110  1  0  0  0
 37 39  1  0  0  0
 37 47  1  0  0  0
 37 66  1  0  0  0
 37111  1  0  0  0
 38 43  2  0  0  0
 38 46  1  0  0  0
 38 47  1  0  0  0
 39 64  1  0  0  0
 39 67  2  0  0  0
 40 52  1  0  0  0
 40 53  2  0  0  0
 40 58  1  0  0  0
 41112  1  0  0  0
 41113  1  0  0  0
 41114  1  0  0  0
 41 48  1  0  0  0
 42 43  1  0  0  0
 42 66  1  0  0  0
 42115  1  0  0  0
 42116  1  0  0  0
 43 44  1  0  0  0
 44117  1  0  0  0
 45 46  2  0  0  0
 45118  1  0  0  0
 46119  1  0  0  0
 47120  1  0  0  0
 47121  1  0  0  0
 48 56  1  0  0  0
 48 65  1  0  0  0
 48122  1  0  0  0
 49 50  1  0  0  0
 49 53  1  0  0  0
 49 64  1  0  0  0
 49123  1  0  0  0
 50 51  1  0  0  0
 50124  1  0  0  0
 50125  1  0  0  0
 51 52  1  0  0  0
 51126  1  0  0  0
 51127  1  0  0  0
 52128  1  0  0  0
 52129  1  0  0  0
 53 54  1  0  0  0
 54 55  2  0  0  0
 54130  1  0  0  0
 55 57  1  0  0  0
 55131  1  0  0  0
 56 69  2  0  0  0
 57 58  2  0  0  0
 57132  1  0  0  0
 58133  1  0  0  0
 59 60  1  0  0  0
 59 61  1  0  0  0
 59 62  1  0  0  0
 60134  1  0  0  0
 60135  1  0  0  0
 60136  1  0  0  0
 61137  1  0  0  0
 61138  1  0  0  0
 61139  1  0  0  0
 62140  1  0  0  0
 62141  1  0  0  0
 62142  1  0  0  0
 63 65  1  0  0  0
 63143  1  0  0  0
 63144  1  0  0  0
 63145  1  0  0  0
 64146  1  0  0  0
 65147  1  0  0  0
 68 84  1  0  0  0
 71 72  2  0  0  0
 71 73  1  0  0  0
 71148  1  0  0  0
 72 76  1  0  0  0
 72149  1  0  0  0
 73 75  2  0  0  0
 73 82  1  0  0  0
 74 75  1  0  0  0
 74 76  2  0  0  0
 74 83  1  0  0  0
 75 86  1  0  0  0
 76 88  1  0  0  0
 77 81  1  0  0  0
 77 85  1  0  0  0
 77 87  2  0  0  0
 78 79  1  0  0  0
 78 80  1  0  0  0
 78150  1  0  0  0
 78151  1  0  0  0
 79 81  1  0  0  0
 79152  1  0  0  0
 79153  1  0  0  0
 80 85  1  0  0  0
 80154  1  0  0  0
 80155  1  0  0  0
 81 84  1  0  0  0
 81156  1  0  0  0
 82157  1  0  0  0
 82158  1  0  0  0
 82159  1  0  0  0
 83 85  1  0  0  0
 83160  1  0  0  0
 83161  1  0  0  0
 84162  1  0  0  0
 84163  1  0  0  0
 86164  1  0  0  0
M  ISO  4   1 100  68 101  84 101  86 100
M  END
> <chiral flag>
0

> <version>
0

> <s_m_source_file>
/data/baiqing/PycharmProjects/Reinvent-master-3.2/result/LINK_invent/BTK/process_docking_weight1_custom_product_contain_oxygen_bond_distance_aromatic_linkinvent_7_9_3/rearranged_h_0044.sdf

> <i_m_source_file_index>
91

> <r_mmod_Potential_Energy-OPLS-2005>
20902.794921875

> <r_mmod_Stretch_Energy-OPLS-2005>
10338.2373046875

> <r_mmod_Bend_Energy-OPLS-2005>
3263.79028320312

> <r_mmod_Torsional_Energy-OPLS-2005>
742.464111328125

> <r_mmod_Improper_Torsional_Energy-OPLS-2005>
118.267425537109

> <r_mmod_Van_der_Waal_Energy-OPLS-2005>
4647.27197265625

> <r_mmod_Electrostatic_Energy-OPLS-2005>
-354.595825195312

> <r_mmod_Solvation_Energy-OPLS-2005>
-226.172515869141

> <b_mmod_Minimization_Converged-OPLS-2005>
0

> <r_mmod_RMS_Derivative-OPLS-2005>
6.27240753173828

$$$$
