0
                    3D
 Structure written by MMmdl.
161170  0  0  1  0            999 V2000
  -30.6154  -14.6266   20.5086 C   0  0  0  0  0  0
  -30.4428  -12.3840   19.4523 C   0  0  0  0  0  0
  -29.5128  -12.4985   18.2234 C   0  0  0  0  0  0
  -28.0328  -12.3396   18.6317 C   0  0  0  0  0  0
  -27.6545  -13.2075   19.8626 C   0  0  2  0  0  0
  -28.6964  -13.0492   20.9928 C   0  0  0  0  0  0
  -25.2570  -13.8160   20.5661 C   0  0  0  0  0  0
  -24.1814  -13.0433   20.9135 C   0  0  0  0  0  0
  -24.6360  -11.6903   20.8693 C   0  0  0  0  0  0
  -23.9021  -10.4294   21.0379 C   0  0  0  0  0  0
  -24.3588   -9.4220   21.9166 C   0  0  0  0  0  0
  -23.6261   -8.2257   22.0750 C   0  0  0  0  0  0
  -22.4250   -8.0285   21.3541 C   0  0  0  0  0  0
  -21.9867   -9.0253   20.4645 C   0  0  0  0  0  0
  -22.7178  -10.2139   20.3034 C   0  0  0  0  0  0
  -21.6861   -6.0714   22.5260 C   0  0  0  0  0  0
  -21.4027   -6.5619   23.8193 C   0  0  0  0  0  0
  -21.3648   -5.6772   24.9158 C   0  0  0  0  0  0
  -21.6044   -4.3030   24.7214 C   0  0  0  0  0  0
  -21.8822   -3.8119   23.4334 C   0  0  0  0  0  0
  -21.9196   -4.6938   22.3386 C   0  0  0  0  0  0
  -22.7840  -13.5237   21.1819 C   0  0  0  0  0  0
  -22.1657   -4.2114   21.0968 F   0  0  0  0  0  0
  -21.5621   -3.4520   25.7725 F   0  0  0  0  0  0
  -30.0140  -13.3974   20.4353 N   0  0  0  0  0  0
  -26.2977  -12.9307   20.3275 N   0  0  0  0  0  0
  -25.9289  -11.6474   20.5711 N   0  0  0  0  0  0
  -22.0486  -12.8252   22.0392 N   0  0  0  0  0  0
  -25.4338  -15.1889   20.4158 N   0  0  0  0  0  0
  -31.7666  -14.8046   20.1023 O   0  0  0  0  0  0
  -21.6645   -6.8867   21.4230 O   0  0  0  0  0  0
  -22.3517  -14.5550   20.6676 O   0  0  0  0  0  0
  -24.6259  -31.8599   23.2018 C   0  0  0  0  0  0
  -25.9103  -32.4789   23.8354 C   0  0  1  0  0  0
  -27.2280  -27.3232   20.1185 C   0  0  0  0  0  0
  -25.5909  -33.8584   24.2268 N   0  0  0  0  0  0
  -23.4204  -30.4833   21.5441 C   0  0  2  0  0  0
  -24.8678  -28.9389   20.1123 C   0  0  0  0  0  0
  -22.7469  -29.4635   22.4929 C   0  0  0  0  0  0
  -18.0291  -28.1382   22.8488 C   0  0  0  0  0  0
  -24.1481  -36.7302   23.2638 C   0  0  0  0  0  0
  -25.9608  -30.7946   21.3710 C   0  0  0  0  0  0
  -26.0370  -29.4215   20.7136 C   0  0  0  0  0  0
  -27.2205  -28.6260   20.7050 C   0  0  0  0  0  0
  -26.0326  -26.8928   19.4951 C   0  0  0  0  0  0
  -24.8665  -27.6798   19.4948 C   0  0  0  0  0  0
  -23.6363  -29.8179   20.1599 C   0  0  0  0  0  0
  -25.4104  -36.3092   24.0331 C   0  0  1  0  0  0
  -20.5887  -28.3694   23.1275 C   0  0  2  0  0  0
  -20.6766  -26.9413   22.5410 C   0  0  0  0  0  0
  -19.5752  -26.6383   21.5198 C   0  0  0  0  0  0
  -18.1933  -26.7927   22.1619 C   0  0  0  0  0  0
  -19.1546  -28.8851   23.2881 C   0  0  0  0  0  0
  -18.9468  -30.1445   23.8916 C   0  0  0  0  0  0
  -17.6471  -30.6585   24.0567 C   0  0  0  0  0  0
  -25.9047  -34.9463   23.5102 C   0  0  0  0  0  0
  -16.5359  -29.9090   23.6327 C   0  0  0  0  0  0
  -16.7279  -28.6504   23.0353 C   0  0  0  0  0  0
  -26.4486  -31.6610   25.0729 C   0  0  0  0  0  0
  -25.3732  -31.3771   26.1476 C   0  0  0  0  0  0
  -27.0300  -30.3032   24.6165 C   0  0  0  0  0  0
  -27.6061  -32.4341   25.7477 C   0  0  0  0  0  0
  -27.5585  -37.1793   24.8456 C   0  0  0  0  0  0
  -21.4186  -29.3045   22.3664 N   0  0  0  0  0  0
  -26.4279  -37.3789   23.9425 N   0  0  0  0  0  0
  -24.6879  -31.0610   22.0972 N   0  0  0  0  0  0
  -23.4191  -28.8175   23.3012 O   0  0  0  0  0  0
  -28.3510  -26.4806   20.1678 O   0  0  0  0  0  0
  -26.5622  -34.8933   22.4670 O   0  0  0  0  0  0
  -23.5420  -32.1393   23.7344 O   0  0  0  0  0  0
  -30.8311  -17.8252   20.0135 C   0  0  0  0  0  0
  -28.9816  -19.3106   21.5018 C   0  0  0  0  0  0
  -30.8469  -19.2562   19.9531 C   0  0  0  0  0  0
  -29.9316  -20.0374   20.7372 C   0  0  0  0  0  0
  -29.9085  -17.1068   20.8176 C   0  0  0  0  0  0
  -28.9681  -17.8883   21.5352 C   0  0  0  0  0  0
  -31.0379  -21.9520   21.7121 C   0  0  0  0  0  0
  -31.2566  -23.4612   21.9022 C   0  0  0  0  0  0
  -29.9829  -24.3035   21.7610 C   0  0  0  0  0  0
  -28.9977  -22.4499   20.3713 C   0  0  0  0  0  0
  -29.3203  -24.0154   20.4156 C   0  0  1  0  0  0
  -28.1222  -25.0177   20.1173 C   0  0  0  0  0  0
  -31.8743  -19.9236   19.0350 C   0  0  0  0  0  0
  -30.0483  -21.4960   20.8926 N   0  0  0  0  0  0
  -29.8114  -15.6525   20.9231 N   0  0  0  0  0  0
  -31.8077  -21.1932   22.3107 O   0  0  0  0  0  0
  -28.0412  -17.2552   22.2931 F   0  0  0  0  0  0
  -32.2350  -19.1046   18.0455 F   0  0  0  0  0  0
  -31.3807  -21.0269   18.4723 F   0  0  0  0  0  0
  -32.9694  -20.2422   19.7226 F   0  0  0  0  0  0
  -31.4851  -12.5130   19.1525 H   0  0  0  0  0  0
  -30.3807  -11.3875   19.8938 H   0  0  0  0  0  0
  -29.7778  -11.7435   17.4814 H   0  0  0  0  0  0
  -29.6571  -13.4652   17.7382 H   0  0  0  0  0  0
  -27.8669  -11.2853   18.8580 H   0  0  0  0  0  0
  -27.3841  -12.5717   17.7868 H   0  0  0  0  0  0
  -27.6762  -14.2441   19.5267 H   0  0  0  0  0  0
  -28.7049  -12.0191   21.3548 H   0  0  0  0  0  0
  -28.4391  -13.6639   21.8569 H   0  0  0  0  0  0
  -25.2751   -9.5681   22.4701 H   0  0  0  0  0  0
  -23.9963   -7.4652   22.7469 H   0  0  0  0  0  0
  -21.0783   -8.8750   19.8969 H   0  0  0  0  0  0
  -22.3626  -10.9656   19.6119 H   0  0  0  0  0  0
  -21.2046   -7.6134   23.9682 H   0  0  0  0  0  0
  -21.1459   -6.0514   25.9050 H   0  0  0  0  0  0
  -22.0620   -2.7583   23.2855 H   0  0  0  0  0  0
  -22.4102  -11.9923   22.4802 H   0  0  0  0  0  0
  -21.1112  -13.1296   22.2608 H   0  0  0  0  0  0
  -24.6899  -15.8581   20.5772 H   0  0  0  0  0  0
  -26.3046  -15.6273   20.1429 H   0  0  0  0  0  0
  -26.7176  -32.5469   23.1114 H   0  0  0  0  0  0
  -25.0051  -33.9713   25.0409 H   0  0  0  0  0  0
  -22.7159  -31.3044   21.3977 H   0  0  0  0  0  0
  -23.3746  -35.9632   23.3277 H   0  0  0  0  0  0
  -24.3584  -36.8939   22.2057 H   0  0  0  0  0  0
  -23.7220  -37.6491   23.6675 H   0  0  0  0  0  0
  -26.0838  -31.5598   20.6032 H   0  0  0  0  0  0
  -26.8444  -30.8475   21.9959 H   0  0  0  0  0  0
  -28.1195  -28.9916   21.1821 H   0  0  0  0  0  0
  -25.9666  -25.9333   19.0059 H   0  0  0  0  0  0
  -23.9691  -27.3049   19.0225 H   0  0  0  0  0  0
  -23.7571  -30.5928   19.4018 H   0  0  0  0  0  0
  -22.7573  -29.2467   19.8572 H   0  0  0  0  0  0
  -25.1278  -36.1943   25.0823 H   0  0  0  0  0  0
  -20.9980  -28.3266   24.1395 H   0  0  0  0  0  0
  -20.5607  -26.2316   23.3614 H   0  0  0  0  0  0
  -21.6640  -26.7392   22.1244 H   0  0  0  0  0  0
  -19.6901  -25.6289   21.1233 H   0  0  0  0  0  0
  -19.6685  -27.3182   20.6717 H   0  0  0  0  0  0
  -17.4190  -26.6666   21.4032 H   0  0  0  0  0  0
  -18.0344  -26.0061   22.9013 H   0  0  0  0  0  0
  -19.7947  -30.7237   24.2308 H   0  0  0  0  0  0
  -17.5031  -31.6264   24.5165 H   0  0  0  0  0  0
  -15.5359  -30.2994   23.7626 H   0  0  0  0  0  0
  -15.8689  -28.0810   22.7072 H   0  0  0  0  0  0
  -24.5866  -30.7155   25.7828 H   0  0  0  0  0  0
  -24.8976  -32.2953   26.4937 H   0  0  0  0  0  0
  -25.8066  -30.8925   27.0233 H   0  0  0  0  0  0
  -26.2849  -29.6804   24.1198 H   0  0  0  0  0  0
  -27.4003  -29.7278   25.4657 H   0  0  0  0  0  0
  -27.8727  -30.4319   23.9368 H   0  0  0  0  0  0
  -27.2688  -33.3637   26.2076 H   0  0  0  0  0  0
  -28.3853  -32.6908   25.0289 H   0  0  0  0  0  0
  -28.0754  -31.8458   26.5371 H   0  0  0  0  0  0
  -28.2595  -38.0103   24.7530 H   0  0  0  0  0  0
  -28.1087  -36.2635   24.6229 H   0  0  0  0  0  0
  -27.2323  -37.1383   25.8866 H   0  0  0  0  0  0
  -20.9361  -29.8800   21.6906 H   0  0  0  0  0  0
  -26.0161  -38.2861   24.1453 H   0  0  0  0  0  0
  -31.5468  -17.2759   19.4210 H   0  0  0  0  0  0
  -28.2769  -19.8466   22.1207 H   0  0  0  0  0  0
  -31.9959  -23.7825   21.1667 H   0  0  0  0  0  0
  -31.7043  -23.6346   22.8814 H   0  0  0  0  0  0
  -30.2383  -25.3606   21.8397 H   0  0  0  0  0  0
  -29.2915  -24.0891   22.5776 H   0  0  0  0  0  0
  -28.7601  -22.1657   19.3454 H   0  0  0  0  0  0
  -28.0903  -22.2669   20.9481 H   0  0  0  0  0  0
  -30.0661  -24.2070   19.6430 H   0  0  0  0  0  0
  -27.3104  -24.7770   20.8055 H   0  0  0  0  0  0
  -27.7630  -24.7668   19.1191 H   0  0  0  0  0  0
  -28.9388  -15.3403   21.3213 H   0  0  0  0  0  0
  1 25  1  0  0  0
  1 30  2  0  0  0
  1 85  1  0  0  0
  2  3  1  0  0  0
  2 25  1  0  0  0
  2 91  1  0  0  0
  2 92  1  0  0  0
  3  4  1  0  0  0
  3 93  1  0  0  0
  3 94  1  0  0  0
  4  5  1  0  0  0
  4 95  1  0  0  0
  4 96  1  0  0  0
  5  6  1  0  0  0
  5 26  1  0  0  0
  5 97  1  0  0  0
  6 25  1  0  0  0
  6 98  1  0  0  0
  6 99  1  0  0  0
  7  8  2  0  0  0
  7 26  1  0  0  0
  7 29  1  0  0  0
  8  9  1  0  0  0
  8 22  1  0  0  0
  9 10  1  0  0  0
  9 27  2  0  0  0
 10 11  2  0  0  0
 10 15  1  0  0  0
 11 12  1  0  0  0
 11100  1  0  0  0
 12 13  2  0  0  0
 12101  1  0  0  0
 13 14  1  0  0  0
 13 31  1  0  0  0
 14 15  2  0  0  0
 14102  1  0  0  0
 15103  1  0  0  0
 16 17  2  0  0  0
 16 21  1  0  0  0
 16 31  1  0  0  0
 17 18  1  0  0  0
 17104  1  0  0  0
 18 19  2  0  0  0
 18105  1  0  0  0
 19 20  1  0  0  0
 19 24  1  0  0  0
 20 21  2  0  0  0
 20106  1  0  0  0
 21 23  1  0  0  0
 22 28  1  0  0  0
 22 32  2  0  0  0
 26 27  1  0  0  0
 28107  1  0  0  0
 28108  1  0  0  0
 29109  1  0  0  0
 29110  1  0  0  0
 33 34  1  0  0  0
 33 66  1  0  0  0
 33 70  2  0  0  0
 34 36  1  0  0  0
 34 59  1  0  0  0
 34111  1  0  0  0
 35 44  2  0  0  0
 35 45  1  0  0  0
 35 68  1  0  0  0
 36 56  1  0  0  0
 36112  1  0  0  0
 37 39  1  0  0  0
 37 47  1  0  0  0
 37 66  1  0  0  0
 37113  1  0  0  0
 38 43  2  0  0  0
 38 46  1  0  0  0
 38 47  1  0  0  0
 39 64  1  0  0  0
 39 67  2  0  0  0
 40 52  1  0  0  0
 40 53  2  0  0  0
 40 58  1  0  0  0
 41114  1  0  0  0
 41115  1  0  0  0
 41116  1  0  0  0
 41 48  1  0  0  0
 42 43  1  0  0  0
 42 66  1  0  0  0
 42117  1  0  0  0
 42118  1  0  0  0
 43 44  1  0  0  0
 44119  1  0  0  0
 45 46  2  0  0  0
 45120  1  0  0  0
 46121  1  0  0  0
 47122  1  0  0  0
 47123  1  0  0  0
 48 56  1  0  0  0
 48 65  1  0  0  0
 48124  1  0  0  0
 49 50  1  0  0  0
 49 53  1  0  0  0
 49 64  1  0  0  0
 49125  1  0  0  0
 50 51  1  0  0  0
 50126  1  0  0  0
 50127  1  0  0  0
 51 52  1  0  0  0
 51128  1  0  0  0
 51129  1  0  0  0
 52130  1  0  0  0
 52131  1  0  0  0
 53 54  1  0  0  0
 54 55  2  0  0  0
 54132  1  0  0  0
 55 57  1  0  0  0
 55133  1  0  0  0
 56 69  2  0  0  0
 57 58  2  0  0  0
 57134  1  0  0  0
 58135  1  0  0  0
 59 60  1  0  0  0
 59 61  1  0  0  0
 59 62  1  0  0  0
 60136  1  0  0  0
 60137  1  0  0  0
 60138  1  0  0  0
 61139  1  0  0  0
 61140  1  0  0  0
 61141  1  0  0  0
 62142  1  0  0  0
 62143  1  0  0  0
 62144  1  0  0  0
 63 65  1  0  0  0
 63145  1  0  0  0
 63146  1  0  0  0
 63147  1  0  0  0
 64148  1  0  0  0
 65149  1  0  0  0
 68 82  1  0  0  0
 71 73  2  0  0  0
 71 75  1  0  0  0
 71150  1  0  0  0
 72 74  2  0  0  0
 72 76  1  0  0  0
 72151  1  0  0  0
 73 74  1  0  0  0
 73 83  1  0  0  0
 74 84  1  0  0  0
 75 76  2  0  0  0
 75 85  1  0  0  0
 76 87  1  0  0  0
 77 78  1  0  0  0
 77 84  1  0  0  0
 77 86  2  0  0  0
 78 79  1  0  0  0
 78152  1  0  0  0
 78153  1  0  0  0
 79 81  1  0  0  0
 79154  1  0  0  0
 79155  1  0  0  0
 80 81  1  0  0  0
 80 84  1  0  0  0
 80156  1  0  0  0
 80157  1  0  0  0
 81 82  1  0  0  0
 81158  1  0  0  0
 82159  1  0  0  0
 82160  1  0  0  0
 83 88  1  0  0  0
 83 89  1  0  0  0
 83 90  1  0  0  0
 85161  1  0  0  0
M  ISO  4   1 100  68 101  82 101  85 100
M  END
> <chiral flag>
0

> <version>
0

> <s_m_source_file>
/data/baiqing/PycharmProjects/Reinvent-master-3.2/result/LINK_invent/BTK/process_docking_weight1_custom_product_contain_oxygen_bond_distance_aromatic_linkinvent_7_9_3/rearranged_h_0065.sdf

> <i_m_source_file_index>
1

> <r_mmod_Potential_Energy-OPLS-2005>
112.770172119141

> <r_mmod_Stretch_Energy-OPLS-2005>
83.9814910888672

> <r_mmod_Bend_Energy-OPLS-2005>
137.041213989258

> <r_mmod_Torsional_Energy-OPLS-2005>
288.850036621094

> <r_mmod_Improper_Torsional_Energy-OPLS-2005>
4.19558429718018

> <r_mmod_Van_der_Waal_Energy-OPLS-2005>
154.278427124023

> <r_mmod_Electrostatic_Energy-OPLS-2005>
-388.270965576172

> <r_mmod_Solvation_Energy-OPLS-2005>
-212.995956420898

> <b_mmod_Minimization_Converged-OPLS-2005>
0

> <r_mmod_RMS_Derivative-OPLS-2005>
2.3454794883728

$$$$
1
                    3D
 Structure written by MMmdl.
157166  0  0  1  0            999 V2000
  -30.6142  -14.7665   20.4738 C   0  0  0  0  0  0
  -30.4380  -12.4712   19.4978 C   0  0  0  0  0  0
  -29.5297  -12.5255   18.2458 C   0  0  0  0  0  0
  -28.0528  -12.3442   18.6470 C   0  0  0  0  0  0
  -27.6553  -13.2396   19.8543 C   0  0  2  0  0  0
  -28.6931  -13.1733   21.0007 C   0  0  0  0  0  0
  -25.2595  -13.8213   20.5682 C   0  0  0  0  0  0
  -24.1869  -13.0475   20.9196 C   0  0  0  0  0  0
  -24.6458  -11.6944   20.8731 C   0  0  0  0  0  0
  -23.9093  -10.4330   21.0405 C   0  0  0  0  0  0
  -24.3654   -9.4262   21.9183 C   0  0  0  0  0  0
  -23.6348   -8.2279   22.0754 C   0  0  0  0  0  0
  -22.4341   -8.0301   21.3532 C   0  0  0  0  0  0
  -21.9949   -9.0275   20.4642 C   0  0  0  0  0  0
  -22.7264  -10.2175   20.3051 C   0  0  0  0  0  0
  -21.6855   -6.0782   22.5292 C   0  0  0  0  0  0
  -21.3995   -6.5665   23.8234 C   0  0  0  0  0  0
  -21.3658   -5.6795   24.9175 C   0  0  0  0  0  0
  -21.6060   -4.3061   24.7218 C   0  0  0  0  0  0
  -21.8815   -3.8171   23.4323 C   0  0  0  0  0  0
  -21.9188   -4.7004   22.3398 C   0  0  0  0  0  0
  -22.7882  -13.5279   21.1814 C   0  0  0  0  0  0
  -22.1676   -4.2186   21.0983 F   0  0  0  0  0  0
  -21.5638   -3.4535   25.7726 F   0  0  0  0  0  0
  -29.9986  -13.5329   20.4359 N   0  0  0  0  0  0
  -26.3039  -12.9431   20.3276 N   0  0  0  0  0  0
  -25.9416  -11.6570   20.5741 N   0  0  0  0  0  0
  -22.0480  -12.8294   22.0355 N   0  0  0  0  0  0
  -25.4323  -15.1928   20.4103 N   0  0  0  0  0  0
  -31.7778  -14.8712   20.0678 O   0  0  0  0  0  0
  -21.6674   -6.8932   21.4260 O   0  0  0  0  0  0
  -22.3564  -14.5584   20.6655 O   0  0  0  0  0  0
  -24.6348  -31.8556   23.1986 C   0  0  0  0  0  0
  -25.9178  -32.4748   23.8334 C   0  0  1  0  0  0
  -27.2067  -27.2296   20.1503 C   0  0  0  0  0  0
  -25.5951  -33.8533   24.2255 N   0  0  0  0  0  0
  -23.4322  -30.4829   21.5433 C   0  0  2  0  0  0
  -24.8775  -28.9331   20.1087 C   0  0  0  0  0  0
  -22.7541  -29.4633   22.4911 C   0  0  0  0  0  0
  -18.0305  -28.1387   22.8483 C   0  0  0  0  0  0
  -24.1479  -36.7296   23.2645 C   0  0  0  0  0  0
  -25.9830  -30.7591   21.3861 C   0  0  0  0  0  0
  -26.0507  -29.3798   20.7309 C   0  0  0  0  0  0
  -27.2162  -28.5392   20.7491 C   0  0  0  0  0  0
  -26.0217  -26.8898   19.4545 C   0  0  0  0  0  0
  -24.8724  -27.6977   19.4537 C   0  0  0  0  0  0
  -23.6482  -29.8194   20.1586 C   0  0  0  0  0  0
  -25.4097  -36.3080   24.0345 C   0  0  1  0  0  0
  -20.5911  -28.3712   23.1252 C   0  0  2  0  0  0
  -20.6772  -26.9427   22.5393 C   0  0  0  0  0  0
  -19.5748  -26.6384   21.5201 C   0  0  0  0  0  0
  -18.1936  -26.7925   22.1615 C   0  0  0  0  0  0
  -19.1556  -28.8865   23.2859 C   0  0  0  0  0  0
  -18.9476  -30.1460   23.8887 C   0  0  0  0  0  0
  -17.6475  -30.6582   24.0557 C   0  0  0  0  0  0
  -25.9050  -34.9443   23.5112 C   0  0  0  0  0  0
  -16.5361  -29.9072   23.6324 C   0  0  0  0  0  0
  -16.7294  -28.6483   23.0350 C   0  0  0  0  0  0
  -26.4495  -31.6575   25.0749 C   0  0  0  0  0  0
  -25.3707  -31.3718   26.1469 C   0  0  0  0  0  0
  -27.0347  -30.2991   24.6267 C   0  0  0  0  0  0
  -27.6062  -32.4299   25.7516 C   0  0  0  0  0  0
  -27.5579  -37.1804   24.8470 C   0  0  0  0  0  0
  -21.4246  -29.3073   22.3653 N   0  0  0  0  0  0
  -26.4288  -37.3777   23.9419 N   0  0  0  0  0  0
  -24.7026  -31.0500   22.0981 N   0  0  0  0  0  0
  -23.4239  -28.8175   23.3006 O   0  0  0  0  0  0
  -28.2489  -26.2602   20.2492 O   0  0  0  0  0  0
  -26.5611  -34.8945   22.4678 O   0  0  0  0  0  0
  -23.5482  -32.1394   23.7256 O   0  0  0  0  0  0
  -29.3102  -19.5909   18.6042 C   0  0  0  0  0  0
  -29.6240  -17.1656   18.7609 C   0  0  0  0  0  0
  -29.8598  -23.2422   21.3449 C   0  0  0  0  0  0
  -29.6639  -18.5448   20.7737 C   0  0  0  0  0  0
  -29.4031  -18.3244   17.9941 C   0  0  0  0  0  0
  -28.6848  -23.4936   20.5629 C   0  0  0  0  0  0
  -29.4218  -19.7698   19.9994 C   0  0  0  0  0  0
  -29.7755  -17.2140   20.1637 C   0  0  0  0  0  0
  -30.2092  -21.9043   21.2669 C   0  0  0  0  0  0
  -28.3950  -22.2101   20.0720 C   0  0  0  0  0  0
  -29.2587  -18.1987   16.4898 C   0  0  0  0  0  0
  -27.7885  -24.8216   20.4162 C   0  0  0  0  0  0
  -29.3244  -21.1909   20.4579 N   0  0  0  0  0  0
  -29.8981  -15.9004   20.8577 N   0  0  0  0  0  0
  -31.2751  -21.2812   21.8462 O   0  0  0  0  0  0
  -27.3320  -21.8651   19.2894 O   0  0  0  0  0  0
  -31.4850  -12.5810   19.2149 H   0  0  0  0  0  0
  -30.3690  -11.4933   19.9764 H   0  0  0  0  0  0
  -29.8425  -11.7633   17.5306 H   0  0  0  0  0  0
  -29.6525  -13.4865   17.7360 H   0  0  0  0  0  0
  -27.9073  -11.2969   18.9090 H   0  0  0  0  0  0
  -27.3978  -12.5393   17.7957 H   0  0  0  0  0  0
  -27.6550  -14.2642   19.4813 H   0  0  0  0  0  0
  -28.7211  -12.1793   21.4461 H   0  0  0  0  0  0
  -28.4237  -13.8541   21.8085 H   0  0  0  0  0  0
  -25.2810   -9.5791   22.4724 H   0  0  0  0  0  0
  -24.0097   -7.4688   22.7489 H   0  0  0  0  0  0
  -21.0863   -8.8779   19.8954 H   0  0  0  0  0  0
  -22.3704  -10.9705   19.6137 H   0  0  0  0  0  0
  -21.1981   -7.6179   23.9751 H   0  0  0  0  0  0
  -21.1476   -6.0518   25.9083 H   0  0  0  0  0  0
  -22.0597   -2.7633   23.2800 H   0  0  0  0  0  0
  -22.4071  -11.9997   22.4838 H   0  0  0  0  0  0
  -21.1057  -13.1337   22.2444 H   0  0  0  0  0  0
  -24.6683  -15.8515   20.5197 H   0  0  0  0  0  0
  -26.2983  -15.6259   20.1129 H   0  0  0  0  0  0
  -26.7263  -32.5381   23.1080 H   0  0  0  0  0  0
  -25.0096  -33.9593   25.0406 H   0  0  0  0  0  0
  -22.7353  -31.3094   21.3998 H   0  0  0  0  0  0
  -23.3749  -35.9626   23.3300 H   0  0  0  0  0  0
  -24.3600  -36.8912   22.2070 H   0  0  0  0  0  0
  -23.7222  -37.6501   23.6649 H   0  0  0  0  0  0
  -26.1273  -31.5155   20.6111 H   0  0  0  0  0  0
  -26.8611  -30.8101   22.0181 H   0  0  0  0  0  0
  -28.0991  -28.8689   21.2767 H   0  0  0  0  0  0
  -25.9337  -25.9730   18.8955 H   0  0  0  0  0  0
  -23.9851  -27.3611   18.9348 H   0  0  0  0  0  0
  -23.7690  -30.5932   19.4014 H   0  0  0  0  0  0
  -22.7672  -29.2501   19.8568 H   0  0  0  0  0  0
  -25.1276  -36.1939   25.0838 H   0  0  0  0  0  0
  -21.0010  -28.3293   24.1372 H   0  0  0  0  0  0
  -20.5652  -26.2355   23.3612 H   0  0  0  0  0  0
  -21.6647  -26.7420   22.1224 H   0  0  0  0  0  0
  -19.6902  -25.6284   21.1246 H   0  0  0  0  0  0
  -19.6661  -27.3176   20.6712 H   0  0  0  0  0  0
  -17.4204  -26.6696   21.4004 H   0  0  0  0  0  0
  -18.0332  -26.0053   22.9000 H   0  0  0  0  0  0
  -19.7947  -30.7271   24.2270 H   0  0  0  0  0  0
  -17.5016  -31.6262   24.5160 H   0  0  0  0  0  0
  -15.5353  -30.2962   23.7627 H   0  0  0  0  0  0
  -15.8703  -28.0777   22.7073 H   0  0  0  0  0  0
  -24.5905  -30.7031   25.7810 H   0  0  0  0  0  0
  -24.8842  -32.2865   26.4865 H   0  0  0  0  0  0
  -25.8021  -30.8934   27.0278 H   0  0  0  0  0  0
  -26.2942  -29.6733   24.1273 H   0  0  0  0  0  0
  -27.4008  -29.7257   25.4797 H   0  0  0  0  0  0
  -27.8838  -30.4263   23.9552 H   0  0  0  0  0  0
  -27.2709  -33.3625   26.2062 H   0  0  0  0  0  0
  -28.3888  -32.6804   25.0343 H   0  0  0  0  0  0
  -28.0735  -31.8447   26.5444 H   0  0  0  0  0  0
  -28.2606  -38.0092   24.7518 H   0  0  0  0  0  0
  -28.1064  -36.2629   24.6279 H   0  0  0  0  0  0
  -27.2326  -37.1460   25.8884 H   0  0  0  0  0  0
  -20.9446  -29.8834   21.6876 H   0  0  0  0  0  0
  -26.0183  -38.2883   24.1348 H   0  0  0  0  0  0
  -29.1514  -20.4557   17.9733 H   0  0  0  0  0  0
  -29.6518  -16.2146   18.2467 H   0  0  0  0  0  0
  -30.3920  -23.9809   21.9292 H   0  0  0  0  0  0
  -29.7620  -18.6311   21.8460 H   0  0  0  0  0  0
  -29.1064  -19.1722   16.0212 H   0  0  0  0  0  0
  -28.4005  -17.5726   16.2434 H   0  0  0  0  0  0
  -30.1521  -17.7420   16.0603 H   0  0  0  0  0  0
  -27.1368  -24.8175   21.2920 H   0  0  0  0  0  0
  -27.1563  -24.5457   19.5782 H   0  0  0  0  0  0
  -29.1340  -15.7012   21.4860 H   0  0  0  0  0  0
  -31.7989  -21.9426   22.2916 H   0  0  0  0  0  0
  -26.8245  -22.6490   19.1082 H   0  0  0  0  0  0
  1 25  1  0  0  0
  1 30  2  0  0  0
  1 84  1  0  0  0
  2  3  1  0  0  0
  2 25  1  0  0  0
  2 87  1  0  0  0
  2 88  1  0  0  0
  3  4  1  0  0  0
  3 89  1  0  0  0
  3 90  1  0  0  0
  4  5  1  0  0  0
  4 91  1  0  0  0
  4 92  1  0  0  0
  5  6  1  0  0  0
  5 26  1  0  0  0
  5 93  1  0  0  0
  6 25  1  0  0  0
  6 94  1  0  0  0
  6 95  1  0  0  0
  7  8  2  0  0  0
  7 26  1  0  0  0
  7 29  1  0  0  0
  8  9  1  0  0  0
  8 22  1  0  0  0
  9 10  1  0  0  0
  9 27  2  0  0  0
 10 11  2  0  0  0
 10 15  1  0  0  0
 11 12  1  0  0  0
 11 96  1  0  0  0
 12 13  2  0  0  0
 12 97  1  0  0  0
 13 14  1  0  0  0
 13 31  1  0  0  0
 14 15  2  0  0  0
 14 98  1  0  0  0
 15 99  1  0  0  0
 16 17  2  0  0  0
 16 21  1  0  0  0
 16 31  1  0  0  0
 17 18  1  0  0  0
 17100  1  0  0  0
 18 19  2  0  0  0
 18101  1  0  0  0
 19 20  1  0  0  0
 19 24  1  0  0  0
 20 21  2  0  0  0
 20102  1  0  0  0
 21 23  1  0  0  0
 22 28  1  0  0  0
 22 32  2  0  0  0
 26 27  1  0  0  0
 28103  1  0  0  0
 28104  1  0  0  0
 29105  1  0  0  0
 29106  1  0  0  0
 33 34  1  0  0  0
 33 66  1  0  0  0
 33 70  2  0  0  0
 34 36  1  0  0  0
 34 59  1  0  0  0
 34107  1  0  0  0
 35 44  2  0  0  0
 35 45  1  0  0  0
 35 68  1  0  0  0
 36 56  1  0  0  0
 36108  1  0  0  0
 37 39  1  0  0  0
 37 47  1  0  0  0
 37 66  1  0  0  0
 37109  1  0  0  0
 38 43  2  0  0  0
 38 46  1  0  0  0
 38 47  1  0  0  0
 39 64  1  0  0  0
 39 67  2  0  0  0
 40 52  1  0  0  0
 40 53  2  0  0  0
 40 58  1  0  0  0
 41110  1  0  0  0
 41111  1  0  0  0
 41112  1  0  0  0
 41 48  1  0  0  0
 42 43  1  0  0  0
 42 66  1  0  0  0
 42113  1  0  0  0
 42114  1  0  0  0
 43 44  1  0  0  0
 44115  1  0  0  0
 45 46  2  0  0  0
 45116  1  0  0  0
 46117  1  0  0  0
 47118  1  0  0  0
 47119  1  0  0  0
 48 56  1  0  0  0
 48 65  1  0  0  0
 48120  1  0  0  0
 49 50  1  0  0  0
 49 53  1  0  0  0
 49 64  1  0  0  0
 49121  1  0  0  0
 50 51  1  0  0  0
 50122  1  0  0  0
 50123  1  0  0  0
 51 52  1  0  0  0
 51124  1  0  0  0
 51125  1  0  0  0
 52126  1  0  0  0
 52127  1  0  0  0
 53 54  1  0  0  0
 54 55  2  0  0  0
 54128  1  0  0  0
 55 57  1  0  0  0
 55129  1  0  0  0
 56 69  2  0  0  0
 57 58  2  0  0  0
 57130  1  0  0  0
 58131  1  0  0  0
 59 60  1  0  0  0
 59 61  1  0  0  0
 59 62  1  0  0  0
 60132  1  0  0  0
 60133  1  0  0  0
 60134  1  0  0  0
 61135  1  0  0  0
 61136  1  0  0  0
 61137  1  0  0  0
 62138  1  0  0  0
 62139  1  0  0  0
 62140  1  0  0  0
 63 65  1  0  0  0
 63141  1  0  0  0
 63142  1  0  0  0
 63143  1  0  0  0
 64144  1  0  0  0
 65145  1  0  0  0
 68 82  1  0  0  0
 71 75  2  0  0  0
 71 77  1  0  0  0
 71146  1  0  0  0
 72 75  1  0  0  0
 72 78  2  0  0  0
 72147  1  0  0  0
 73 76  1  0  0  0
 73 79  2  0  0  0
 73148  1  0  0  0
 74 77  2  0  0  0
 74 78  1  0  0  0
 74149  1  0  0  0
 75 81  1  0  0  0
 76 80  2  0  0  0
 76 82  1  0  0  0
 77 83  1  0  0  0
 78 84  1  0  0  0
 79 83  1  0  0  0
 79 85  1  0  0  0
 80 83  1  0  0  0
 80 86  1  0  0  0
 81150  1  0  0  0
 81151  1  0  0  0
 81152  1  0  0  0
 82153  1  0  0  0
 82154  1  0  0  0
 84155  1  0  0  0
 85156  1  0  0  0
 86157  1  0  0  0
M  ISO  4   1 100  68 101  82 101  84 100
M  END
> <chiral flag>
0

> <version>
0

> <s_m_source_file>
/data/baiqing/PycharmProjects/Reinvent-master-3.2/result/LINK_invent/BTK/process_docking_weight1_custom_product_contain_oxygen_bond_distance_aromatic_linkinvent_7_9_3/rearranged_h_0065.sdf

> <i_m_source_file_index>
2

> <r_mmod_Potential_Energy-OPLS-2005>
288.713317871094

> <r_mmod_Stretch_Energy-OPLS-2005>
139.545806884766

> <r_mmod_Bend_Energy-OPLS-2005>
183.423980712891

> <r_mmod_Torsional_Energy-OPLS-2005>
269.808654785156

> <r_mmod_Improper_Torsional_Energy-OPLS-2005>
5.77381992340088

> <r_mmod_Van_der_Waal_Energy-OPLS-2005>
137.101638793945

> <r_mmod_Electrostatic_Energy-OPLS-2005>
-314.6943359375

> <r_mmod_Solvation_Energy-OPLS-2005>
-238.677764892578

> <b_mmod_Minimization_Converged-OPLS-2005>
0

> <r_mmod_RMS_Derivative-OPLS-2005>
4.75653791427612

$$$$
2
                    3D
 Structure written by MMmdl.
151159  0  0  1  0            999 V2000
  -30.5144  -14.9178   20.4216 C   0  0  0  0  0  0
  -30.4560  -12.5635   19.4882 C   0  0  0  0  0  0
  -29.5264  -12.5230   18.2513 C   0  0  0  0  0  0
  -28.0577  -12.3107   18.6687 C   0  0  0  0  0  0
  -27.6385  -13.2351   19.8408 C   0  0  2  0  0  0
  -28.6835  -13.2240   20.9781 C   0  0  0  0  0  0
  -25.2517  -13.8197   20.5688 C   0  0  0  0  0  0
  -24.1817  -13.0447   20.9226 C   0  0  0  0  0  0
  -24.6407  -11.6925   20.8751 C   0  0  0  0  0  0
  -23.9077  -10.4301   21.0411 C   0  0  0  0  0  0
  -24.3626   -9.4211   21.9183 C   0  0  0  0  0  0
  -23.6293   -8.2252   22.0756 C   0  0  0  0  0  0
  -22.4274   -8.0294   21.3548 C   0  0  0  0  0  0
  -21.9910   -9.0271   20.4653 C   0  0  0  0  0  0
  -22.7247  -10.2144   20.3061 C   0  0  0  0  0  0
  -21.6856   -6.0735   22.5278 C   0  0  0  0  0  0
  -21.4013   -6.5638   23.8210 C   0  0  0  0  0  0
  -21.3655   -5.6791   24.9175 C   0  0  0  0  0  0
  -21.6042   -4.3053   24.7227 C   0  0  0  0  0  0
  -21.8819   -3.8147   23.4347 C   0  0  0  0  0  0
  -21.9191   -4.6961   22.3399 C   0  0  0  0  0  0
  -22.7834  -13.5231   21.1879 C   0  0  0  0  0  0
  -22.1661   -4.2145   21.0976 F   0  0  0  0  0  0
  -21.5626   -3.4539   25.7741 F   0  0  0  0  0  0
  -29.9688  -13.6382   20.3941 N   0  0  0  0  0  0
  -26.2930  -12.9401   20.3226 N   0  0  0  0  0  0
  -25.9332  -11.6544   20.5721 N   0  0  0  0  0  0
  -22.0471  -12.8227   22.0434 N   0  0  0  0  0  0
  -25.4206  -15.1921   20.4086 N   0  0  0  0  0  0
  -31.7037  -15.0545   20.1122 O   0  0  0  0  0  0
  -21.6645   -6.8885   21.4243 O   0  0  0  0  0  0
  -22.3518  -14.5535   20.6722 O   0  0  0  0  0  0
  -24.6453  -31.8441   23.1886 C   0  0  0  0  0  0
  -25.9228  -32.4687   23.8285 C   0  0  1  0  0  0
  -27.2215  -27.1380   20.1428 C   0  0  0  0  0  0
  -25.5979  -33.8495   24.2202 N   0  0  0  0  0  0
  -23.4494  -30.4652   21.5334 C   0  0  2  0  0  0
  -24.8997  -28.8955   20.1096 C   0  0  0  0  0  0
  -22.7585  -29.4551   22.4839 C   0  0  0  0  0  0
  -18.0323  -28.1388   22.8471 C   0  0  0  0  0  0
  -24.1499  -36.7250   23.2636 C   0  0  0  0  0  0
  -26.0067  -30.7174   21.3895 C   0  0  0  0  0  0
  -26.0784  -29.3297   20.7290 C   0  0  0  0  0  0
  -27.2403  -28.4676   20.7297 C   0  0  0  0  0  0
  -26.0137  -26.8102   19.4837 C   0  0  0  0  0  0
  -24.8804  -27.6480   19.4724 C   0  0  0  0  0  0
  -23.6771  -29.7977   20.1520 C   0  0  0  0  0  0
  -25.4129  -36.3024   24.0310 C   0  0  1  0  0  0
  -20.5936  -28.3723   23.1217 C   0  0  2  0  0  0
  -20.6803  -26.9423   22.5390 C   0  0  0  0  0  0
  -19.5769  -26.6378   21.5203 C   0  0  0  0  0  0
  -18.1958  -26.7921   22.1627 C   0  0  0  0  0  0
  -19.1578  -28.8874   23.2837 C   0  0  0  0  0  0
  -18.9489  -30.1467   23.8864 C   0  0  0  0  0  0
  -17.6484  -30.6578   24.0561 C   0  0  0  0  0  0
  -25.9084  -34.9398   23.5063 C   0  0  0  0  0  0
  -16.5378  -29.9071   23.6329 C   0  0  0  0  0  0
  -16.7306  -28.6494   23.0344 C   0  0  0  0  0  0
  -26.4542  -31.6547   25.0722 C   0  0  0  0  0  0
  -25.3735  -31.3761   26.1429 C   0  0  0  0  0  0
  -27.0384  -30.2926   24.6319 C   0  0  0  0  0  0
  -27.6082  -32.4303   25.7506 C   0  0  0  0  0  0
  -27.5571  -37.1794   24.8473 C   0  0  0  0  0  0
  -21.4276  -29.3050   22.3584 N   0  0  0  0  0  0
  -26.4295  -37.3731   23.9395 N   0  0  0  0  0  0
  -24.7201  -31.0306   22.0916 N   0  0  0  0  0  0
  -23.4223  -28.8097   23.2992 O   0  0  0  0  0  0
  -28.2633  -26.1376   20.2110 O   0  0  0  0  0  0
  -26.5658  -34.8894   22.4634 O   0  0  0  0  0  0
  -23.5572  -32.1322   23.7099 O   0  0  0  0  0  0
  -30.5010  -18.5328   20.1498 C   0  0  0  0  0  0
  -30.2088  -19.9711   20.0805 C   0  0  0  0  0  0
  -28.2809  -18.1368   20.8248 C   0  0  0  0  0  0
  -27.9796  -19.5497   20.7531 C   0  0  0  0  0  0
  -29.5385  -17.5266   20.5263 C   0  0  0  0  0  0
  -28.9240  -20.5643   20.3727 C   0  0  0  0  0  0
  -28.9212  -23.3481   20.2721 C   0  0  0  0  0  0
  -26.5588  -19.9644   21.1017 C   0  0  0  0  0  0
  -27.9030  -24.6331   20.0204 C   0  0  0  0  0  0
  -28.4403  -22.0162   20.2307 N   0  0  0  0  0  0
  -29.6325  -16.0010   20.6400 N   0  0  0  0  0  0
  -30.1160  -23.5721   20.4861 O   0  0  0  0  0  0
  -31.4858  -12.7382   19.1738 H   0  0  0  0  0  0
  -30.4598  -11.6021   20.0044 H   0  0  0  0  0  0
  -29.8392  -11.7314   17.5690 H   0  0  0  0  0  0
  -29.6159  -13.4575   17.6962 H   0  0  0  0  0  0
  -27.9498  -11.2672   18.9676 H   0  0  0  0  0  0
  -27.3954  -12.4519   17.8138 H   0  0  0  0  0  0
  -27.6115  -14.2425   19.4245 H   0  0  0  0  0  0
  -28.7614  -12.2332   21.4284 H   0  0  0  0  0  0
  -28.3849  -13.9001   21.7808 H   0  0  0  0  0  0
  -25.2769   -9.5681   22.4759 H   0  0  0  0  0  0
  -23.9997   -7.4639   22.7478 H   0  0  0  0  0  0
  -21.0831   -8.8796   19.8962 H   0  0  0  0  0  0
  -22.3704  -10.9687   19.6177 H   0  0  0  0  0  0
  -21.2010   -7.6146   23.9710 H   0  0  0  0  0  0
  -21.1472   -6.0525   25.9072 H   0  0  0  0  0  0
  -22.0599   -2.7611   23.2855 H   0  0  0  0  0  0
  -22.4081  -11.9890   22.4828 H   0  0  0  0  0  0
  -21.1089  -13.1261   22.2637 H   0  0  0  0  0  0
  -24.6472  -15.8400   20.5114 H   0  0  0  0  0  0
  -26.2404  -15.6209   20.0005 H   0  0  0  0  0  0
  -26.7297  -32.5292   23.1019 H   0  0  0  0  0  0
  -25.0120  -33.9613   25.0345 H   0  0  0  0  0  0
  -22.7525  -31.2914   21.3793 H   0  0  0  0  0  0
  -23.3744  -35.9602   23.3325 H   0  0  0  0  0  0
  -24.3579  -36.8847   22.2044 H   0  0  0  0  0  0
  -23.7285  -37.6470   23.6650 H   0  0  0  0  0  0
  -26.1686  -31.4734   20.6200 H   0  0  0  0  0  0
  -26.8745  -30.7635   22.0355 H   0  0  0  0  0  0
  -28.1362  -28.7953   21.2380 H   0  0  0  0  0  0
  -25.9003  -25.8626   18.9816 H   0  0  0  0  0  0
  -23.9828  -27.3108   18.9725 H   0  0  0  0  0  0
  -23.8161  -30.5734   19.3977 H   0  0  0  0  0  0
  -22.7919  -29.2419   19.8383 H   0  0  0  0  0  0
  -25.1318  -36.1855   25.0801 H   0  0  0  0  0  0
  -21.0043  -28.3318   24.1332 H   0  0  0  0  0  0
  -20.5693  -26.2339   23.3614 H   0  0  0  0  0  0
  -21.6668  -26.7416   22.1188 H   0  0  0  0  0  0
  -19.6929  -25.6287   21.1238 H   0  0  0  0  0  0
  -19.6689  -27.3181   20.6725 H   0  0  0  0  0  0
  -17.4218  -26.6651   21.4045 H   0  0  0  0  0  0
  -18.0374  -26.0073   22.9037 H   0  0  0  0  0  0
  -19.7967  -30.7295   24.2214 H   0  0  0  0  0  0
  -17.5035  -31.6252   24.5173 H   0  0  0  0  0  0
  -15.5375  -30.2959   23.7666 H   0  0  0  0  0  0
  -15.8712  -28.0804   22.7059 H   0  0  0  0  0  0
  -24.5883  -30.7142   25.7758 H   0  0  0  0  0  0
  -24.8970  -32.2956   26.4835 H   0  0  0  0  0  0
  -25.8020  -30.8936   27.0222 H   0  0  0  0  0  0
  -26.2991  -29.6660   24.1314 H   0  0  0  0  0  0
  -27.3953  -29.7222   25.4906 H   0  0  0  0  0  0
  -27.8930  -30.4126   23.9657 H   0  0  0  0  0  0
  -27.2674  -33.3600   26.2076 H   0  0  0  0  0  0
  -28.3903  -32.6870   25.0347 H   0  0  0  0  0  0
  -28.0742  -31.8436   26.5435 H   0  0  0  0  0  0
  -28.2618  -38.0057   24.7456 H   0  0  0  0  0  0
  -28.1037  -36.2588   24.6381 H   0  0  0  0  0  0
  -27.2280  -37.1537   25.8875 H   0  0  0  0  0  0
  -20.9488  -29.8769   21.6764 H   0  0  0  0  0  0
  -26.0161  -38.2807   24.1355 H   0  0  0  0  0  0
  -31.4990  -18.2091   19.8898 H   0  0  0  0  0  0
  -31.0046  -20.6281   19.7592 H   0  0  0  0  0  0
  -27.4782  -17.4766   21.1222 H   0  0  0  0  0  0
  -26.0229  -19.1654   21.6150 H   0  0  0  0  0  0
  -26.0022  -20.2111   20.1976 H   0  0  0  0  0  0
  -26.5511  -20.8296   21.7648 H   0  0  0  0  0  0
  -27.0215  -24.4334   20.6310 H   0  0  0  0  0  0
  -27.5869  -24.5146   18.9844 H   0  0  0  0  0  0
  -27.4372  -22.0463   20.1106 H   0  0  0  0  0  0
  -28.7418  -15.6070   20.9001 H   0  0  0  0  0  0
  1 25  1  0  0  0
  1 30  2  0  0  0
  1 81  1  0  0  0
  2  3  1  0  0  0
  2 25  1  0  0  0
  2 83  1  0  0  0
  2 84  1  0  0  0
  3  4  1  0  0  0
  3 85  1  0  0  0
  3 86  1  0  0  0
  4  5  1  0  0  0
  4 87  1  0  0  0
  4 88  1  0  0  0
  5  6  1  0  0  0
  5 26  1  0  0  0
  5 89  1  0  0  0
  6 25  1  0  0  0
  6 90  1  0  0  0
  6 91  1  0  0  0
  7  8  2  0  0  0
  7 26  1  0  0  0
  7 29  1  0  0  0
  8  9  1  0  0  0
  8 22  1  0  0  0
  9 10  1  0  0  0
  9 27  2  0  0  0
 10 11  2  0  0  0
 10 15  1  0  0  0
 11 12  1  0  0  0
 11 92  1  0  0  0
 12 13  2  0  0  0
 12 93  1  0  0  0
 13 14  1  0  0  0
 13 31  1  0  0  0
 14 15  2  0  0  0
 14 94  1  0  0  0
 15 95  1  0  0  0
 16 17  2  0  0  0
 16 21  1  0  0  0
 16 31  1  0  0  0
 17 18  1  0  0  0
 17 96  1  0  0  0
 18 19  2  0  0  0
 18 97  1  0  0  0
 19 20  1  0  0  0
 19 24  1  0  0  0
 20 21  2  0  0  0
 20 98  1  0  0  0
 21 23  1  0  0  0
 22 28  1  0  0  0
 22 32  2  0  0  0
 26 27  1  0  0  0
 28 99  1  0  0  0
 28100  1  0  0  0
 29101  1  0  0  0
 29102  1  0  0  0
 33 34  1  0  0  0
 33 66  1  0  0  0
 33 70  2  0  0  0
 34 36  1  0  0  0
 34 59  1  0  0  0
 34103  1  0  0  0
 35 44  2  0  0  0
 35 45  1  0  0  0
 35 68  1  0  0  0
 36 56  1  0  0  0
 36104  1  0  0  0
 37 39  1  0  0  0
 37 47  1  0  0  0
 37 66  1  0  0  0
 37105  1  0  0  0
 38 43  2  0  0  0
 38 46  1  0  0  0
 38 47  1  0  0  0
 39 64  1  0  0  0
 39 67  2  0  0  0
 40 52  1  0  0  0
 40 53  2  0  0  0
 40 58  1  0  0  0
 41106  1  0  0  0
 41107  1  0  0  0
 41108  1  0  0  0
 41 48  1  0  0  0
 42 43  1  0  0  0
 42 66  1  0  0  0
 42109  1  0  0  0
 42110  1  0  0  0
 43 44  1  0  0  0
 44111  1  0  0  0
 45 46  2  0  0  0
 45112  1  0  0  0
 46113  1  0  0  0
 47114  1  0  0  0
 47115  1  0  0  0
 48 56  1  0  0  0
 48 65  1  0  0  0
 48116  1  0  0  0
 49 50  1  0  0  0
 49 53  1  0  0  0
 49 64  1  0  0  0
 49117  1  0  0  0
 50 51  1  0  0  0
 50118  1  0  0  0
 50119  1  0  0  0
 51 52  1  0  0  0
 51120  1  0  0  0
 51121  1  0  0  0
 52122  1  0  0  0
 52123  1  0  0  0
 53 54  1  0  0  0
 54 55  2  0  0  0
 54124  1  0  0  0
 55 57  1  0  0  0
 55125  1  0  0  0
 56 69  2  0  0  0
 57 58  2  0  0  0
 57126  1  0  0  0
 58127  1  0  0  0
 59 60  1  0  0  0
 59 61  1  0  0  0
 59 62  1  0  0  0
 60128  1  0  0  0
 60129  1  0  0  0
 60130  1  0  0  0
 61131  1  0  0  0
 61132  1  0  0  0
 61133  1  0  0  0
 62134  1  0  0  0
 62135  1  0  0  0
 62136  1  0  0  0
 63 65  1  0  0  0
 63137  1  0  0  0
 63138  1  0  0  0
 63139  1  0  0  0
 64140  1  0  0  0
 65141  1  0  0  0
 68 79  1  0  0  0
 71 72  2  0  0  0
 71 75  1  0  0  0
 71142  1  0  0  0
 72 76  1  0  0  0
 72143  1  0  0  0
 73 74  1  0  0  0
 73 75  2  0  0  0
 73144  1  0  0  0
 74 76  2  0  0  0
 74 78  1  0  0  0
 75 81  1  0  0  0
 76 80  1  0  0  0
 77 79  1  0  0  0
 77 80  1  0  0  0
 77 82  2  0  0  0
 78145  1  0  0  0
 78146  1  0  0  0
 78147  1  0  0  0
 79148  1  0  0  0
 79149  1  0  0  0
 80150  1  0  0  0
 81151  1  0  0  0
M  ISO  4   1 100  68 101  79 101  81 100
M  END
> <chiral flag>
0

> <version>
0

> <s_m_source_file>
/data/baiqing/PycharmProjects/Reinvent-master-3.2/result/LINK_invent/BTK/process_docking_weight1_custom_product_contain_oxygen_bond_distance_aromatic_linkinvent_7_9_3/rearranged_h_0065.sdf

> <i_m_source_file_index>
3

> <r_mmod_Potential_Energy-OPLS-2005>
406.607940673828

> <r_mmod_Stretch_Energy-OPLS-2005>
220.072738647461

> <r_mmod_Bend_Energy-OPLS-2005>
280.334228515625

> <r_mmod_Torsional_Energy-OPLS-2005>
222.647247314453

> <r_mmod_Improper_Torsional_Energy-OPLS-2005>
4.48283672332764

> <r_mmod_Van_der_Waal_Energy-OPLS-2005>
131.61994934082

> <r_mmod_Electrostatic_Energy-OPLS-2005>
-387.265258789062

> <r_mmod_Solvation_Energy-OPLS-2005>
-249.595458984375

> <b_mmod_Minimization_Converged-OPLS-2005>
0

> <r_mmod_RMS_Derivative-OPLS-2005>
1.20512986183167

$$$$
3
                    3D
 Structure written by MMmdl.
161170  0  0  1  0            999 V2000
  -30.6427  -14.6400   20.4645 C   0  0  0  0  0  0
  -30.4409  -12.3813   19.4494 C   0  0  0  0  0  0
  -29.5063  -12.4873   18.2243 C   0  0  0  0  0  0
  -28.0309  -12.3322   18.6441 C   0  0  0  0  0  0
  -27.6561  -13.2174   19.8620 C   0  0  2  0  0  0
  -28.7075  -13.0859   20.9882 C   0  0  0  0  0  0
  -25.2577  -13.8166   20.5693 C   0  0  0  0  0  0
  -24.1845  -13.0437   20.9227 C   0  0  0  0  0  0
  -24.6407  -11.6912   20.8759 C   0  0  0  0  0  0
  -23.9065  -10.4296   21.0419 C   0  0  0  0  0  0
  -24.3610   -9.4209   21.9196 C   0  0  0  0  0  0
  -23.6291   -8.2245   22.0752 C   0  0  0  0  0  0
  -22.4274   -8.0280   21.3546 C   0  0  0  0  0  0
  -21.9913   -9.0252   20.4644 C   0  0  0  0  0  0
  -22.7236  -10.2141   20.3065 C   0  0  0  0  0  0
  -21.6847   -6.0739   22.5281 C   0  0  0  0  0  0
  -21.4008   -6.5643   23.8211 C   0  0  0  0  0  0
  -21.3660   -5.6793   24.9175 C   0  0  0  0  0  0
  -21.6047   -4.3057   24.7224 C   0  0  0  0  0  0
  -21.8816   -3.8149   23.4342 C   0  0  0  0  0  0
  -21.9190   -4.6968   22.3404 C   0  0  0  0  0  0
  -22.7864  -13.5234   21.1885 C   0  0  0  0  0  0
  -22.1655   -4.2156   21.0980 F   0  0  0  0  0  0
  -21.5638   -3.4537   25.7737 F   0  0  0  0  0  0
  -30.0237  -13.4159   20.4162 N   0  0  0  0  0  0
  -26.3017  -12.9354   20.3349 N   0  0  0  0  0  0
  -25.9341  -11.6509   20.5798 N   0  0  0  0  0  0
  -22.0494  -12.8219   22.0428 N   0  0  0  0  0  0
  -25.4277  -15.1872   20.4023 N   0  0  0  0  0  0
  -31.8064  -14.7860   20.0842 O   0  0  0  0  0  0
  -21.6637   -6.8878   21.4240 O   0  0  0  0  0  0
  -22.3559  -14.5543   20.6731 O   0  0  0  0  0  0
  -24.6266  -31.8600   23.2017 C   0  0  0  0  0  0
  -25.9123  -32.4768   23.8330 C   0  0  1  0  0  0
  -27.2262  -27.3222   20.1169 C   0  0  0  0  0  0
  -25.5941  -33.8564   24.2254 N   0  0  0  0  0  0
  -23.4187  -30.4847   21.5430 C   0  0  2  0  0  0
  -24.8672  -28.9471   20.1069 C   0  0  0  0  0  0
  -22.7484  -29.4625   22.4920 C   0  0  0  0  0  0
  -18.0302  -28.1398   22.8486 C   0  0  0  0  0  0
  -24.1498  -36.7278   23.2640 C   0  0  0  0  0  0
  -25.9596  -30.7975   21.3690 C   0  0  0  0  0  0
  -26.0365  -29.4252   20.7111 C   0  0  0  0  0  0
  -27.2180  -28.6236   20.7078 C   0  0  0  0  0  0
  -26.0310  -26.8985   19.4891 C   0  0  0  0  0  0
  -24.8677  -27.6890   19.4888 C   0  0  0  0  0  0
  -23.6323  -29.8225   20.1571 C   0  0  0  0  0  0
  -25.4113  -36.3046   24.0325 C   0  0  1  0  0  0
  -20.5902  -28.3679   23.1303 C   0  0  2  0  0  0
  -20.6787  -26.9401   22.5423 C   0  0  0  0  0  0
  -19.5763  -26.6390   21.5225 C   0  0  0  0  0  0
  -18.1941  -26.7947   22.1625 C   0  0  0  0  0  0
  -19.1553  -28.8856   23.2890 C   0  0  0  0  0  0
  -18.9472  -30.1462   23.8890 C   0  0  0  0  0  0
  -17.6470  -30.6586   24.0566 C   0  0  0  0  0  0
  -25.9050  -34.9437   23.5082 C   0  0  0  0  0  0
  -16.5366  -29.9087   23.6342 C   0  0  0  0  0  0
  -16.7289  -28.6523   23.0335 C   0  0  0  0  0  0
  -26.4516  -31.6568   25.0694 C   0  0  0  0  0  0
  -25.3754  -31.3720   26.1422 C   0  0  0  0  0  0
  -27.0344  -30.2994   24.6109 C   0  0  0  0  0  0
  -27.6050  -32.4306   25.7480 C   0  0  0  0  0  0
  -27.5571  -37.1778   24.8464 C   0  0  0  0  0  0
  -21.4193  -29.3036   22.3690 N   0  0  0  0  0  0
  -26.4278  -37.3748   23.9414 N   0  0  0  0  0  0
  -24.6866  -31.0627   22.0954 N   0  0  0  0  0  0
  -23.4224  -28.8171   23.2990 O   0  0  0  0  0  0
  -28.3430  -26.4695   20.1711 O   0  0  0  0  0  0
  -26.5612  -34.8922   22.4640 O   0  0  0  0  0  0
  -23.5435  -32.1400   23.7351 O   0  0  0  0  0  0
  -30.8480  -19.2387   19.6256 C   0  0  0  0  0  0
  -30.8636  -17.8175   19.7862 C   0  0  0  0  0  0
  -29.0221  -19.4076   21.1662 C   0  0  0  0  0  0
  -29.0334  -17.9905   21.3396 C   0  0  0  0  0  0
  -29.9240  -20.0897   20.3095 C   0  0  0  0  0  0
  -29.9522  -17.1498   20.6465 C   0  0  0  0  0  0
  -30.8337  -22.3717   19.6448 C   0  0  0  0  0  0
  -30.4203  -23.8504   19.6210 C   0  0  0  0  0  0
  -28.7290  -22.4420   20.5394 C   0  0  0  0  0  0
  -29.1966  -23.9572   20.5451 C   0  0  1  0  0  0
  -28.0131  -17.3853   22.2876 C   0  0  0  0  0  0
  -29.6369  -24.3386   21.9757 C   0  0  0  0  0  0
  -28.0991  -25.0110   20.0663 C   0  0  0  0  0  0
  -29.8756  -21.5650   20.1604 N   0  0  0  0  0  0
  -29.8436  -15.6960   20.8069 N   0  0  0  0  0  0
  -31.9439  -22.0267   19.2313 O   0  0  0  0  0  0
  -31.4813  -12.4964   19.1402 H   0  0  0  0  0  0
  -30.3745  -11.3909   19.9029 H   0  0  0  0  0  0
  -29.7630  -11.7219   17.4902 H   0  0  0  0  0  0
  -29.6495  -13.4493   17.7301 H   0  0  0  0  0  0
  -27.8751  -11.2824   18.8946 H   0  0  0  0  0  0
  -27.3706  -12.5441   17.8022 H   0  0  0  0  0  0
  -27.6699  -14.2492   19.5104 H   0  0  0  0  0  0
  -28.7191  -12.0698   21.3840 H   0  0  0  0  0  0
  -28.4622  -13.7320   21.8321 H   0  0  0  0  0  0
  -25.2744   -9.5693   22.4779 H   0  0  0  0  0  0
  -23.9997   -7.4635   22.7463 H   0  0  0  0  0  0
  -21.0845   -8.8762   19.8940 H   0  0  0  0  0  0
  -22.3676  -10.9681   19.6178 H   0  0  0  0  0  0
  -21.1986   -7.6148   23.9720 H   0  0  0  0  0  0
  -21.1490   -6.0525   25.9083 H   0  0  0  0  0  0
  -22.0594   -2.7611   23.2840 H   0  0  0  0  0  0
  -22.4078  -11.9858   22.4797 H   0  0  0  0  0  0
  -21.1119  -13.1261   22.2637 H   0  0  0  0  0  0
  -24.6548  -15.8366   20.4920 H   0  0  0  0  0  0
  -26.2578  -15.6108   20.0080 H   0  0  0  0  0  0
  -26.7193  -32.5418   23.1072 H   0  0  0  0  0  0
  -25.0078  -33.9713   25.0392 H   0  0  0  0  0  0
  -22.7118  -31.3048   21.4010 H   0  0  0  0  0  0
  -23.3752  -35.9619   23.3288 H   0  0  0  0  0  0
  -24.3601  -36.8917   22.2062 H   0  0  0  0  0  0
  -23.7303  -37.6497   23.6675 H   0  0  0  0  0  0
  -26.0858  -31.5675   20.6062 H   0  0  0  0  0  0
  -26.8423  -30.8481   21.9943 H   0  0  0  0  0  0
  -28.1125  -28.9835   21.1967 H   0  0  0  0  0  0
  -25.9608  -25.9376   19.0015 H   0  0  0  0  0  0
  -23.9713  -27.3169   19.0132 H   0  0  0  0  0  0
  -23.7436  -30.6018   19.4014 H   0  0  0  0  0  0
  -22.7543  -29.2483   19.8528 H   0  0  0  0  0  0
  -25.1304  -36.1853   25.0820 H   0  0  0  0  0  0
  -20.9987  -28.3220   24.1426 H   0  0  0  0  0  0
  -20.5705  -26.2253   23.3596 H   0  0  0  0  0  0
  -21.6648  -26.7435   22.1195 H   0  0  0  0  0  0
  -19.6918  -25.6310   21.1237 H   0  0  0  0  0  0
  -19.6725  -27.3211   20.6769 H   0  0  0  0  0  0
  -17.4215  -26.6717   21.4024 H   0  0  0  0  0  0
  -18.0314  -26.0092   22.9011 H   0  0  0  0  0  0
  -19.7948  -30.7291   24.2229 H   0  0  0  0  0  0
  -17.5032  -31.6265   24.5171 H   0  0  0  0  0  0
  -15.5368  -30.2982   23.7688 H   0  0  0  0  0  0
  -15.8692  -28.0857   22.7024 H   0  0  0  0  0  0
  -24.5922  -30.7074   25.7752 H   0  0  0  0  0  0
  -24.8966  -32.2904   26.4816 H   0  0  0  0  0  0
  -25.8083  -30.8918   27.0207 H   0  0  0  0  0  0
  -26.2904  -29.6739   24.1151 H   0  0  0  0  0  0
  -27.4114  -29.7229   25.4568 H   0  0  0  0  0  0
  -27.8737  -30.4299   23.9271 H   0  0  0  0  0  0
  -27.2629  -33.3599   26.2034 H   0  0  0  0  0  0
  -28.3870  -32.6869   25.0319 H   0  0  0  0  0  0
  -28.0696  -31.8450   26.5420 H   0  0  0  0  0  0
  -28.2548  -38.0105   24.7487 H   0  0  0  0  0  0
  -28.1106  -36.2626   24.6284 H   0  0  0  0  0  0
  -27.2292  -37.1414   25.8871 H   0  0  0  0  0  0
  -20.9353  -29.8750   21.6906 H   0  0  0  0  0  0
  -26.0142  -38.2810   24.1436 H   0  0  0  0  0  0
  -31.5665  -19.6581   18.9364 H   0  0  0  0  0  0
  -31.5793  -17.2436   19.2129 H   0  0  0  0  0  0
  -28.2935  -19.9776   21.7222 H   0  0  0  0  0  0
  -30.1736  -24.1221   18.5941 H   0  0  0  0  0  0
  -31.2427  -24.4890   19.9475 H   0  0  0  0  0  0
  -27.9453  -22.2923   19.7955 H   0  0  0  0  0  0
  -28.3001  -22.1621   21.5025 H   0  0  0  0  0  0
  -27.6562  -18.1239   23.0057 H   0  0  0  0  0  0
  -28.4322  -16.5587   22.8615 H   0  0  0  0  0  0
  -27.1542  -17.0209   21.7258 H   0  0  0  0  0  0
  -30.3781  -23.6456   22.3757 H   0  0  0  0  0  0
  -28.7917  -24.3435   22.6650 H   0  0  0  0  0  0
  -30.0729  -25.3388   21.9975 H   0  0  0  0  0  0
  -27.2073  -24.7877   20.6561 H   0  0  0  0  0  0
  -27.8423  -24.7761   19.0315 H   0  0  0  0  0  0
  -28.9561  -15.3934   21.1744 H   0  0  0  0  0  0
  1 25  1  0  0  0
  1 30  2  0  0  0
  1 85  1  0  0  0
  2  3  1  0  0  0
  2 25  1  0  0  0
  2 87  1  0  0  0
  2 88  1  0  0  0
  3  4  1  0  0  0
  3 89  1  0  0  0
  3 90  1  0  0  0
  4  5  1  0  0  0
  4 91  1  0  0  0
  4 92  1  0  0  0
  5  6  1  0  0  0
  5 26  1  0  0  0
  5 93  1  0  0  0
  6 25  1  0  0  0
  6 94  1  0  0  0
  6 95  1  0  0  0
  7  8  2  0  0  0
  7 26  1  0  0  0
  7 29  1  0  0  0
  8  9  1  0  0  0
  8 22  1  0  0  0
  9 10  1  0  0  0
  9 27  2  0  0  0
 10 11  2  0  0  0
 10 15  1  0  0  0
 11 12  1  0  0  0
 11 96  1  0  0  0
 12 13  2  0  0  0
 12 97  1  0  0  0
 13 14  1  0  0  0
 13 31  1  0  0  0
 14 15  2  0  0  0
 14 98  1  0  0  0
 15 99  1  0  0  0
 16 17  2  0  0  0
 16 21  1  0  0  0
 16 31  1  0  0  0
 17 18  1  0  0  0
 17100  1  0  0  0
 18 19  2  0  0  0
 18101  1  0  0  0
 19 20  1  0  0  0
 19 24  1  0  0  0
 20 21  2  0  0  0
 20102  1  0  0  0
 21 23  1  0  0  0
 22 28  1  0  0  0
 22 32  2  0  0  0
 26 27  1  0  0  0
 28103  1  0  0  0
 28104  1  0  0  0
 29105  1  0  0  0
 29106  1  0  0  0
 33 34  1  0  0  0
 33 66  1  0  0  0
 33 70  2  0  0  0
 34 36  1  0  0  0
 34 59  1  0  0  0
 34107  1  0  0  0
 35 44  2  0  0  0
 35 45  1  0  0  0
 35 68  1  0  0  0
 36 56  1  0  0  0
 36108  1  0  0  0
 37 39  1  0  0  0
 37 47  1  0  0  0
 37 66  1  0  0  0
 37109  1  0  0  0
 38 43  2  0  0  0
 38 46  1  0  0  0
 38 47  1  0  0  0
 39 64  1  0  0  0
 39 67  2  0  0  0
 40 52  1  0  0  0
 40 53  2  0  0  0
 40 58  1  0  0  0
 41110  1  0  0  0
 41111  1  0  0  0
 41112  1  0  0  0
 41 48  1  0  0  0
 42 43  1  0  0  0
 42 66  1  0  0  0
 42113  1  0  0  0
 42114  1  0  0  0
 43 44  1  0  0  0
 44115  1  0  0  0
 45 46  2  0  0  0
 45116  1  0  0  0
 46117  1  0  0  0
 47118  1  0  0  0
 47119  1  0  0  0
 48 56  1  0  0  0
 48 65  1  0  0  0
 48120  1  0  0  0
 49 50  1  0  0  0
 49 53  1  0  0  0
 49 64  1  0  0  0
 49121  1  0  0  0
 50 51  1  0  0  0
 50122  1  0  0  0
 50123  1  0  0  0
 51 52  1  0  0  0
 51124  1  0  0  0
 51125  1  0  0  0
 52126  1  0  0  0
 52127  1  0  0  0
 53 54  1  0  0  0
 54 55  2  0  0  0
 54128  1  0  0  0
 55 57  1  0  0  0
 55129  1  0  0  0
 56 69  2  0  0  0
 57 58  2  0  0  0
 57130  1  0  0  0
 58131  1  0  0  0
 59 60  1  0  0  0
 59 61  1  0  0  0
 59 62  1  0  0  0
 60132  1  0  0  0
 60133  1  0  0  0
 60134  1  0  0  0
 61135  1  0  0  0
 61136  1  0  0  0
 61137  1  0  0  0
 62138  1  0  0  0
 62139  1  0  0  0
 62140  1  0  0  0
 63 65  1  0  0  0
 63141  1  0  0  0
 63142  1  0  0  0
 63143  1  0  0  0
 64144  1  0  0  0
 65145  1  0  0  0
 68 83  1  0  0  0
 71 72  2  0  0  0
 71 75  1  0  0  0
 71146  1  0  0  0
 72 76  1  0  0  0
 72147  1  0  0  0
 73 74  1  0  0  0
 73 75  2  0  0  0
 73148  1  0  0  0
 74 76  2  0  0  0
 74 81  1  0  0  0
 75 84  1  0  0  0
 76 85  1  0  0  0
 77 78  1  0  0  0
 77 84  1  0  0  0
 77 86  2  0  0  0
 78 80  1  0  0  0
 78149  1  0  0  0
 78150  1  0  0  0
 79 80  1  0  0  0
 79 84  1  0  0  0
 79151  1  0  0  0
 79152  1  0  0  0
 80 82  1  0  0  0
 80 83  1  0  0  0
 81153  1  0  0  0
 81154  1  0  0  0
 81155  1  0  0  0
 82156  1  0  0  0
 82157  1  0  0  0
 82158  1  0  0  0
 83159  1  0  0  0
 83160  1  0  0  0
 85161  1  0  0  0
M  ISO  4   1 100  68 101  83 101  85 100
M  END
> <chiral flag>
0

> <version>
0

> <s_m_source_file>
/data/baiqing/PycharmProjects/Reinvent-master-3.2/result/LINK_invent/BTK/process_docking_weight1_custom_product_contain_oxygen_bond_distance_aromatic_linkinvent_7_9_3/rearranged_h_0065.sdf

> <i_m_source_file_index>
4

> <r_mmod_Potential_Energy-OPLS-2005>
120.952339172363

> <r_mmod_Stretch_Energy-OPLS-2005>
83.1982040405273

> <r_mmod_Bend_Energy-OPLS-2005>
165.852127075195

> <r_mmod_Torsional_Energy-OPLS-2005>
268.411193847656

> <r_mmod_Improper_Torsional_Energy-OPLS-2005>
4.09837532043457

> <r_mmod_Van_der_Waal_Energy-OPLS-2005>
148.467010498047

> <r_mmod_Electrostatic_Energy-OPLS-2005>
-378.412109375

> <r_mmod_Solvation_Energy-OPLS-2005>
-219.58186340332

> <b_mmod_Minimization_Converged-OPLS-2005>
0

> <r_mmod_RMS_Derivative-OPLS-2005>
2.57466840744019

$$$$
4
                    3D
 Structure written by MMmdl.
153161  0  0  1  0            999 V2000
  -30.6046  -14.6714   20.4857 C   0  0  0  0  0  0
  -30.4422  -12.4108   19.4530 C   0  0  0  0  0  0
  -29.5098  -12.5087   18.2245 C   0  0  0  0  0  0
  -28.0327  -12.3414   18.6356 C   0  0  0  0  0  0
  -27.6508  -13.2162   19.8588 C   0  0  2  0  0  0
  -28.6967  -13.0846   20.9889 C   0  0  0  0  0  0
  -25.2550  -13.8165   20.5665 C   0  0  0  0  0  0
  -24.1826  -13.0436   20.9201 C   0  0  0  0  0  0
  -24.6392  -11.6906   20.8745 C   0  0  0  0  0  0
  -23.9059  -10.4292   21.0407 C   0  0  0  0  0  0
  -24.3611   -9.4202   21.9177 C   0  0  0  0  0  0
  -23.6286   -8.2239   22.0749 C   0  0  0  0  0  0
  -22.4265   -8.0280   21.3544 C   0  0  0  0  0  0
  -21.9900   -9.0256   20.4650 C   0  0  0  0  0  0
  -22.7231  -10.2135   20.3058 C   0  0  0  0  0  0
  -21.6854   -6.0728   22.5277 C   0  0  0  0  0  0
  -21.4017   -6.5631   23.8208 C   0  0  0  0  0  0
  -21.3659   -5.6787   24.9170 C   0  0  0  0  0  0
  -21.6043   -4.3050   24.7224 C   0  0  0  0  0  0
  -21.8820   -3.8141   23.4346 C   0  0  0  0  0  0
  -21.9194   -4.6957   22.3401 C   0  0  0  0  0  0
  -22.7847  -13.5229   21.1858 C   0  0  0  0  0  0
  -22.1663   -4.2142   21.0979 F   0  0  0  0  0  0
  -21.5627   -3.4535   25.7738 F   0  0  0  0  0  0
  -30.0081  -13.4367   20.4225 N   0  0  0  0  0  0
  -26.2974  -12.9344   20.3293 N   0  0  0  0  0  0
  -25.9318  -11.6504   20.5747 N   0  0  0  0  0  0
  -22.0489  -12.8233   22.0424 N   0  0  0  0  0  0
  -25.4241  -15.1881   20.4019 N   0  0  0  0  0  0
  -31.7781  -14.8277   20.1335 O   0  0  0  0  0  0
  -21.6636   -6.8872   21.4238 O   0  0  0  0  0  0
  -22.3535  -14.5529   20.6693 O   0  0  0  0  0  0
  -24.6282  -31.8595   23.2018 C   0  0  0  0  0  0
  -25.9125  -32.4774   23.8348 C   0  0  1  0  0  0
  -27.2203  -27.3023   20.1151 C   0  0  0  0  0  0
  -25.5935  -33.8576   24.2273 N   0  0  0  0  0  0
  -23.4220  -30.4842   21.5458 C   0  0  2  0  0  0
  -24.8676  -28.9417   20.1100 C   0  0  0  0  0  0
  -22.7488  -29.4619   22.4932 C   0  0  0  0  0  0
  -18.0291  -28.1382   22.8479 C   0  0  0  0  0  0
  -24.1485  -36.7288   23.2625 C   0  0  0  0  0  0
  -25.9663  -30.7848   21.3767 C   0  0  0  0  0  0
  -26.0396  -29.4126   20.7155 C   0  0  0  0  0  0
  -27.2191  -28.6055   20.7074 C   0  0  0  0  0  0
  -26.0210  -26.8932   19.4832 C   0  0  0  0  0  0
  -24.8615  -27.6878   19.4849 C   0  0  0  0  0  0
  -23.6372  -29.8233   20.1600 C   0  0  0  0  0  0
  -25.4101  -36.3077   24.0330 C   0  0  1  0  0  0
  -20.5892  -28.3686   23.1277 C   0  0  2  0  0  0
  -20.6778  -26.9405   22.5411 C   0  0  0  0  0  0
  -19.5757  -26.6379   21.5208 C   0  0  0  0  0  0
  -18.1937  -26.7923   22.1620 C   0  0  0  0  0  0
  -19.1544  -28.8853   23.2872 C   0  0  0  0  0  0
  -18.9465  -30.1455   23.8888 C   0  0  0  0  0  0
  -17.6464  -30.6581   24.0563 C   0  0  0  0  0  0
  -25.9055  -34.9453   23.5104 C   0  0  0  0  0  0
  -16.5356  -29.9078   23.6327 C   0  0  0  0  0  0
  -16.7277  -28.6498   23.0342 C   0  0  0  0  0  0
  -26.4491  -31.6590   25.0731 C   0  0  0  0  0  0
  -25.3717  -31.3767   26.1463 C   0  0  0  0  0  0
  -27.0314  -30.2994   24.6213 C   0  0  0  0  0  0
  -27.6057  -32.4321   25.7495 C   0  0  0  0  0  0
  -27.5606  -37.1752   24.8424 C   0  0  0  0  0  0
  -21.4201  -29.3038   22.3671 N   0  0  0  0  0  0
  -26.4258  -37.3798   23.9458 N   0  0  0  0  0  0
  -24.6909  -31.0596   22.0978 N   0  0  0  0  0  0
  -23.4208  -28.8155   23.3013 O   0  0  0  0  0  0
  -28.3246  -26.4272   20.1719 O   0  0  0  0  0  0
  -26.5630  -34.8928   22.4675 O   0  0  0  0  0  0
  -23.5442  -32.1404   23.7335 O   0  0  0  0  0  0
  -28.6911  -17.9818   20.6634 C   0  0  0  0  0  0
  -28.7096  -19.4102   20.5903 C   0  0  0  0  0  0
  -31.0851  -17.9153   20.5420 C   0  0  0  0  0  0
  -31.1120  -19.3468   20.4787 C   0  0  0  0  0  0
  -29.8725  -17.1854   20.6443 C   0  0  0  0  0  0
  -29.9222  -20.1406   20.5082 C   0  0  0  0  0  0
  -29.2023  -23.9422   20.3465 C   0  0  0  0  0  0
  -32.4681  -20.0291   20.3887 C   0  0  0  0  0  0
  -28.0471  -24.9701   20.0045 C   0  0  0  0  0  0
  -29.7638  -15.7231   20.7671 N   0  0  0  0  0  0
  -30.0157  -21.5781   20.4941 N   0  0  0  0  0  0
  -28.9689  -22.5817   20.3008 N   0  0  0  0  0  0
  -30.3244  -24.3697   20.6362 O   0  0  0  0  0  0
  -31.4812  -12.5465   19.1477 H   0  0  0  0  0  0
  -30.3886  -11.4176   19.9017 H   0  0  0  0  0  0
  -29.7796  -11.7544   17.4846 H   0  0  0  0  0  0
  -29.6464  -13.4757   17.7375 H   0  0  0  0  0  0
  -27.8734  -11.2885   18.8718 H   0  0  0  0  0  0
  -27.3786  -12.5657   17.7920 H   0  0  0  0  0  0
  -27.6635  -14.2481   19.5081 H   0  0  0  0  0  0
  -28.7165  -12.0652   21.3778 H   0  0  0  0  0  0
  -28.4389  -13.7215   21.8364 H   0  0  0  0  0  0
  -25.2759   -9.5676   22.4746 H   0  0  0  0  0  0
  -24.0000   -7.4627   22.7465 H   0  0  0  0  0  0
  -21.0827   -8.8775   19.8959 H   0  0  0  0  0  0
  -22.3683  -10.9673   19.6168 H   0  0  0  0  0  0
  -21.2010   -7.6141   23.9708 H   0  0  0  0  0  0
  -21.1478   -6.0517   25.9072 H   0  0  0  0  0  0
  -22.0601   -2.7605   23.2849 H   0  0  0  0  0  0
  -22.4103  -11.9903   22.4832 H   0  0  0  0  0  0
  -21.1106  -13.1266   22.2621 H   0  0  0  0  0  0
  -24.6452  -15.8331   20.4842 H   0  0  0  0  0  0
  -26.2475  -15.6160   20.0000 H   0  0  0  0  0  0
  -26.7197  -32.5433   23.1097 H   0  0  0  0  0  0
  -25.0069  -33.9718   25.0409 H   0  0  0  0  0  0
  -22.7162  -31.3052   21.4041 H   0  0  0  0  0  0
  -23.3780  -35.9579   23.3197 H   0  0  0  0  0  0
  -24.3608  -36.9002   22.2061 H   0  0  0  0  0  0
  -23.7185  -37.6440   23.6703 H   0  0  0  0  0  0
  -26.1040  -31.5504   20.6118 H   0  0  0  0  0  0
  -26.8443  -30.8292   22.0095 H   0  0  0  0  0  0
  -28.1162  -28.9615   21.1941 H   0  0  0  0  0  0
  -25.9386  -25.9378   18.9885 H   0  0  0  0  0  0
  -23.9637  -27.3214   19.0062 H   0  0  0  0  0  0
  -23.7578  -30.6012   19.4049 H   0  0  0  0  0  0
  -22.7562  -29.2550   19.8560 H   0  0  0  0  0  0
  -25.1260  -36.1904   25.0813 H   0  0  0  0  0  0
  -20.9984  -28.3263   24.1397 H   0  0  0  0  0  0
  -20.5661  -26.2296   23.3613 H   0  0  0  0  0  0
  -21.6652  -26.7423   22.1221 H   0  0  0  0  0  0
  -19.6918  -25.6290   21.1239 H   0  0  0  0  0  0
  -19.6694  -27.3187   20.6735 H   0  0  0  0  0  0
  -17.4205  -26.6663   21.4027 H   0  0  0  0  0  0
  -18.0340  -26.0069   22.9022 H   0  0  0  0  0  0
  -19.7943  -30.7273   24.2254 H   0  0  0  0  0  0
  -17.5018  -31.6256   24.5175 H   0  0  0  0  0  0
  -15.5357  -30.2976   23.7650 H   0  0  0  0  0  0
  -15.8679  -28.0814   22.7053 H   0  0  0  0  0  0
  -24.5883  -30.7114   25.7815 H   0  0  0  0  0  0
  -24.8916  -32.2950   26.4853 H   0  0  0  0  0  0
  -25.8035  -30.8980   27.0261 H   0  0  0  0  0  0
  -26.2892  -29.6766   24.1205 H   0  0  0  0  0  0
  -27.3945  -29.7237   25.4736 H   0  0  0  0  0  0
  -27.8795  -30.4247   23.9479 H   0  0  0  0  0  0
  -27.2665  -33.3609   26.2093 H   0  0  0  0  0  0
  -28.3849  -32.6903   25.0314 H   0  0  0  0  0  0
  -28.0744  -31.8437   26.5394 H   0  0  0  0  0  0
  -28.2481  -38.0190   24.7698 H   0  0  0  0  0  0
  -28.1244  -36.2747   24.5941 H   0  0  0  0  0  0
  -27.2380  -37.1030   25.8825 H   0  0  0  0  0  0
  -20.9380  -29.8760   21.6883 H   0  0  0  0  0  0
  -26.0128  -38.2832   24.1606 H   0  0  0  0  0  0
  -27.7286  -17.4963   20.7424 H   0  0  0  0  0  0
  -27.7692  -19.9412   20.6193 H   0  0  0  0  0  0
  -32.0211  -17.3758   20.5313 H   0  0  0  0  0  0
  -33.2777  -19.3066   20.2849 H   0  0  0  0  0  0
  -32.6596  -20.6165   21.2870 H   0  0  0  0  0  0
  -32.5092  -20.6931   19.5247 H   0  0  0  0  0  0
  -27.1881  -24.6938   20.6184 H   0  0  0  0  0  0
  -27.7798  -24.7815   18.9645 H   0  0  0  0  0  0
  -28.8379  -15.4000   21.0018 H   0  0  0  0  0  0
  -30.9562  -21.9644   20.5362 H   0  0  0  0  0  0
  -28.0498  -22.2270   20.0612 H   0  0  0  0  0  0
  1 25  1  0  0  0
  1 30  2  0  0  0
  1 80  1  0  0  0
  2  3  1  0  0  0
  2 25  1  0  0  0
  2 84  1  0  0  0
  2 85  1  0  0  0
  3  4  1  0  0  0
  3 86  1  0  0  0
  3 87  1  0  0  0
  4  5  1  0  0  0
  4 88  1  0  0  0
  4 89  1  0  0  0
  5  6  1  0  0  0
  5 26  1  0  0  0
  5 90  1  0  0  0
  6 25  1  0  0  0
  6 91  1  0  0  0
  6 92  1  0  0  0
  7  8  2  0  0  0
  7 26  1  0  0  0
  7 29  1  0  0  0
  8  9  1  0  0  0
  8 22  1  0  0  0
  9 10  1  0  0  0
  9 27  2  0  0  0
 10 11  2  0  0  0
 10 15  1  0  0  0
 11 12  1  0  0  0
 11 93  1  0  0  0
 12 13  2  0  0  0
 12 94  1  0  0  0
 13 14  1  0  0  0
 13 31  1  0  0  0
 14 15  2  0  0  0
 14 95  1  0  0  0
 15 96  1  0  0  0
 16 17  2  0  0  0
 16 21  1  0  0  0
 16 31  1  0  0  0
 17 18  1  0  0  0
 17 97  1  0  0  0
 18 19  2  0  0  0
 18 98  1  0  0  0
 19 20  1  0  0  0
 19 24  1  0  0  0
 20 21  2  0  0  0
 20 99  1  0  0  0
 21 23  1  0  0  0
 22 28  1  0  0  0
 22 32  2  0  0  0
 26 27  1  0  0  0
 28100  1  0  0  0
 28101  1  0  0  0
 29102  1  0  0  0
 29103  1  0  0  0
 33 34  1  0  0  0
 33 66  1  0  0  0
 33 70  2  0  0  0
 34 36  1  0  0  0
 34 59  1  0  0  0
 34104  1  0  0  0
 35 44  2  0  0  0
 35 45  1  0  0  0
 35 68  1  0  0  0
 36 56  1  0  0  0
 36105  1  0  0  0
 37 39  1  0  0  0
 37 47  1  0  0  0
 37 66  1  0  0  0
 37106  1  0  0  0
 38 43  2  0  0  0
 38 46  1  0  0  0
 38 47  1  0  0  0
 39 64  1  0  0  0
 39 67  2  0  0  0
 40 52  1  0  0  0
 40 53  2  0  0  0
 40 58  1  0  0  0
 41107  1  0  0  0
 41108  1  0  0  0
 41109  1  0  0  0
 41 48  1  0  0  0
 42 43  1  0  0  0
 42 66  1  0  0  0
 42110  1  0  0  0
 42111  1  0  0  0
 43 44  1  0  0  0
 44112  1  0  0  0
 45 46  2  0  0  0
 45113  1  0  0  0
 46114  1  0  0  0
 47115  1  0  0  0
 47116  1  0  0  0
 48 56  1  0  0  0
 48 65  1  0  0  0
 48117  1  0  0  0
 49 50  1  0  0  0
 49 53  1  0  0  0
 49 64  1  0  0  0
 49118  1  0  0  0
 50 51  1  0  0  0
 50119  1  0  0  0
 50120  1  0  0  0
 51 52  1  0  0  0
 51121  1  0  0  0
 51122  1  0  0  0
 52123  1  0  0  0
 52124  1  0  0  0
 53 54  1  0  0  0
 54 55  2  0  0  0
 54125  1  0  0  0
 55 57  1  0  0  0
 55126  1  0  0  0
 56 69  2  0  0  0
 57 58  2  0  0  0
 57127  1  0  0  0
 58128  1  0  0  0
 59 60  1  0  0  0
 59 61  1  0  0  0
 59 62  1  0  0  0
 60129  1  0  0  0
 60130  1  0  0  0
 60131  1  0  0  0
 61132  1  0  0  0
 61133  1  0  0  0
 61134  1  0  0  0
 62135  1  0  0  0
 62136  1  0  0  0
 62137  1  0  0  0
 63 65  1  0  0  0
 63138  1  0  0  0
 63139  1  0  0  0
 63140  1  0  0  0
 64141  1  0  0  0
 65142  1  0  0  0
 68 79  1  0  0  0
 71 72  2  0  0  0
 71 75  1  0  0  0
 71143  1  0  0  0
 72 76  1  0  0  0
 72144  1  0  0  0
 73 74  1  0  0  0
 73 75  2  0  0  0
 73145  1  0  0  0
 74 76  2  0  0  0
 74 78  1  0  0  0
 75 80  1  0  0  0
 76 81  1  0  0  0
 77 79  1  0  0  0
 77 82  1  0  0  0
 77 83  2  0  0  0
 78146  1  0  0  0
 78147  1  0  0  0
 78148  1  0  0  0
 79149  1  0  0  0
 79150  1  0  0  0
 80151  1  0  0  0
 81 82  1  0  0  0
 81152  1  0  0  0
 82153  1  0  0  0
M  ISO  4   1 100  68 101  79 101  80 100
M  END
> <chiral flag>
0

> <version>
0

> <s_m_source_file>
/data/baiqing/PycharmProjects/Reinvent-master-3.2/result/LINK_invent/BTK/process_docking_weight1_custom_product_contain_oxygen_bond_distance_aromatic_linkinvent_7_9_3/rearranged_h_0065.sdf

> <i_m_source_file_index>
5

> <r_mmod_Potential_Energy-OPLS-2005>
44.2291603088379

> <r_mmod_Stretch_Energy-OPLS-2005>
89.280876159668

> <r_mmod_Bend_Energy-OPLS-2005>
148.429779052734

> <r_mmod_Torsional_Energy-OPLS-2005>
208.717529296875

> <r_mmod_Improper_Torsional_Energy-OPLS-2005>
5.2881760597229

> <r_mmod_Van_der_Waal_Energy-OPLS-2005>
146.468856811523

> <r_mmod_Electrostatic_Energy-OPLS-2005>
-369.229644775391

> <r_mmod_Solvation_Energy-OPLS-2005>
-244.297378540039

> <b_mmod_Minimization_Converged-OPLS-2005>
0

> <r_mmod_RMS_Derivative-OPLS-2005>
0.746308207511902

$$$$
5
                    3D
 Structure written by MMmdl.
165174  0  0  1  0            999 V2000
  -30.6095  -14.7341   20.4641 C   0  0  0  0  0  0
  -30.4351  -12.4490   19.4610 C   0  0  0  0  0  0
  -29.5095  -12.5016   18.2260 C   0  0  0  0  0  0
  -28.0364  -12.3251   18.6439 C   0  0  0  0  0  0
  -27.6423  -13.2263   19.8456 C   0  0  2  0  0  0
  -28.6897  -13.1540   20.9776 C   0  0  0  0  0  0
  -25.2523  -13.8182   20.5682 C   0  0  0  0  0  0
  -24.1808  -13.0435   20.9198 C   0  0  0  0  0  0
  -24.6391  -11.6908   20.8740 C   0  0  0  0  0  0
  -23.9066  -10.4293   21.0402 C   0  0  0  0  0  0
  -24.3617   -9.4211   21.9176 C   0  0  0  0  0  0
  -23.6293   -8.2247   22.0754 C   0  0  0  0  0  0
  -22.4275   -8.0283   21.3546 C   0  0  0  0  0  0
  -21.9911   -9.0258   20.4647 C   0  0  0  0  0  0
  -22.7241  -10.2133   20.3049 C   0  0  0  0  0  0
  -21.6857   -6.0738   22.5277 C   0  0  0  0  0  0
  -21.4021   -6.5630   23.8211 C   0  0  0  0  0  0
  -21.3651   -5.6784   24.9176 C   0  0  0  0  0  0
  -21.6034   -4.3050   24.7222 C   0  0  0  0  0  0
  -21.8822   -3.8146   23.4341 C   0  0  0  0  0  0
  -21.9200   -4.6966   22.3400 C   0  0  0  0  0  0
  -22.7826  -13.5221   21.1844 C   0  0  0  0  0  0
  -22.1667   -4.2154   21.0972 F   0  0  0  0  0  0
  -21.5623   -3.4527   25.7734 F   0  0  0  0  0  0
  -29.9866  -13.5092   20.3901 N   0  0  0  0  0  0
  -26.2943  -12.9376   20.3262 N   0  0  0  0  0  0
  -25.9320  -11.6525   20.5734 N   0  0  0  0  0  0
  -22.0468  -12.8225   22.0410 N   0  0  0  0  0  0
  -25.4201  -15.1910   20.4095 N   0  0  0  0  0  0
  -31.8081  -14.8281   20.1850 O   0  0  0  0  0  0
  -21.6636   -6.8881   21.4240 O   0  0  0  0  0  0
  -22.3510  -14.5527   20.6690 O   0  0  0  0  0  0
  -24.6315  -31.8548   23.1962 C   0  0  0  0  0  0
  -25.9143  -32.4749   23.8309 C   0  0  1  0  0  0
  -27.2242  -27.2599   20.1441 C   0  0  0  0  0  0
  -25.5937  -33.8546   24.2243 N   0  0  0  0  0  0
  -23.4286  -30.4744   21.5398 C   0  0  2  0  0  0
  -24.8783  -28.9125   20.1193 C   0  0  0  0  0  0
  -22.7498  -29.4599   22.4918 C   0  0  0  0  0  0
  -18.0289  -28.1399   22.8487 C   0  0  0  0  0  0
  -24.1479  -36.7254   23.2638 C   0  0  0  0  0  0
  -25.9735  -30.7685   21.3750 C   0  0  0  0  0  0
  -26.0500  -29.3870   20.7245 C   0  0  0  0  0  0
  -27.2304  -28.5751   20.7207 C   0  0  0  0  0  0
  -26.0311  -26.8427   19.5237 C   0  0  0  0  0  0
  -24.8730  -27.6468   19.5097 C   0  0  0  0  0  0
  -23.6495  -29.8015   20.1592 C   0  0  0  0  0  0
  -25.4109  -36.3055   24.0325 C   0  0  1  0  0  0
  -20.5897  -28.3702   23.1274 C   0  0  2  0  0  0
  -20.6773  -26.9419   22.5416 C   0  0  0  0  0  0
  -19.5752  -26.6400   21.5209 C   0  0  0  0  0  0
  -18.1931  -26.7945   22.1623 C   0  0  0  0  0  0
  -19.1544  -28.8867   23.2877 C   0  0  0  0  0  0
  -18.9470  -30.1471   23.8899 C   0  0  0  0  0  0
  -17.6467  -30.6595   24.0568 C   0  0  0  0  0  0
  -25.9060  -34.9431   23.5082 C   0  0  0  0  0  0
  -16.5354  -29.9095   23.6340 C   0  0  0  0  0  0
  -16.7279  -28.6512   23.0358 C   0  0  0  0  0  0
  -26.4512  -31.6572   25.0701 C   0  0  0  0  0  0
  -25.3739  -31.3744   26.1433 C   0  0  0  0  0  0
  -27.0338  -30.2975   24.6189 C   0  0  0  0  0  0
  -27.6066  -32.4312   25.7475 C   0  0  0  0  0  0
  -27.5580  -37.1770   24.8457 C   0  0  0  0  0  0
  -21.4208  -29.3035   22.3650 N   0  0  0  0  0  0
  -26.4271  -37.3767   23.9428 N   0  0  0  0  0  0
  -24.6966  -31.0507   22.0936 N   0  0  0  0  0  0
  -23.4191  -28.8152   23.3033 O   0  0  0  0  0  0
  -28.3237  -26.3759   20.1075 O   0  0  0  0  0  0
  -26.5635  -34.8911   22.4657 O   0  0  0  0  0  0
  -23.5468  -32.1373   23.7253 O   0  0  0  0  0  0
  -31.6403  -18.9829   21.7397 C   0  0  0  0  0  0
  -30.8503  -20.0504   21.2681 C   0  0  0  0  0  0
  -31.2943  -17.6411   21.4870 C   0  0  0  0  0  0
  -29.6714  -19.8278   20.5273 C   0  0  0  0  0  0
  -29.3315  -18.4252   20.2705 C   0  0  0  0  0  0
  -30.1410  -17.3025   20.7473 C   0  0  0  0  0  0
  -28.5600  -22.3215   22.1182 C   0  0  0  0  0  0
  -28.7392  -23.7284   20.1296 C   0  0  0  0  0  0
  -27.6967  -21.4154   22.6177 C   0  0  0  0  0  0
  -29.5158  -23.0858   23.0183 C   0  0  0  0  0  0
  -29.0334  -24.5040   23.3086 C   0  0  0  0  0  0
  -29.1541  -25.4365   22.1001 C   0  0  0  0  0  0
  -28.2683  -25.0874   20.8851 C   0  0  1  0  0  0
  -28.0891  -18.1224   19.4484 C   0  0  0  0  0  0
  -28.8857  -21.1169   19.9688 C   0  0  0  0  0  0
  -28.7817  -22.4536   20.7341 N   0  0  0  0  0  0
  -29.8066  -15.8624   20.5860 N   0  0  0  0  0  0
  -29.0068  -23.8430   18.9274 O   0  0  0  0  0  0
  -31.4762  -12.5768   19.1577 H   0  0  0  0  0  0
  -30.3794  -11.4721   19.9436 H   0  0  0  0  0  0
  -29.7899  -11.7290   17.5089 H   0  0  0  0  0  0
  -29.6350  -13.4560   17.7117 H   0  0  0  0  0  0
  -27.8956  -11.2763   18.9098 H   0  0  0  0  0  0
  -27.3768  -12.5149   17.7959 H   0  0  0  0  0  0
  -27.6366  -14.2468   19.4625 H   0  0  0  0  0  0
  -28.7286  -12.1527   21.4089 H   0  0  0  0  0  0
  -28.4297  -13.8303   21.7936 H   0  0  0  0  0  0
  -25.2770   -9.5687   22.4742 H   0  0  0  0  0  0
  -24.0009   -7.4639   22.7469 H   0  0  0  0  0  0
  -21.0850   -8.8775   19.8950 H   0  0  0  0  0  0
  -22.3706  -10.9668   19.6149 H   0  0  0  0  0  0
  -21.2012   -7.6139   23.9720 H   0  0  0  0  0  0
  -21.1459   -6.0508   25.9077 H   0  0  0  0  0  0
  -22.0606   -2.7612   23.2840 H   0  0  0  0  0  0
  -22.4070  -11.9889   22.4816 H   0  0  0  0  0  0
  -21.1082  -13.1251   22.2588 H   0  0  0  0  0  0
  -24.6480  -15.8403   20.5159 H   0  0  0  0  0  0
  -26.2616  -15.6341   20.0687 H   0  0  0  0  0  0
  -26.7210  -32.5409   23.1049 H   0  0  0  0  0  0
  -25.0068  -33.9674   25.0380 H   0  0  0  0  0  0
  -22.7250  -31.2962   21.3895 H   0  0  0  0  0  0
  -23.3754  -35.9572   23.3289 H   0  0  0  0  0  0
  -24.3575  -36.8887   22.2056 H   0  0  0  0  0  0
  -23.7210  -37.6440   23.6672 H   0  0  0  0  0  0
  -26.1101  -31.5276   20.6035 H   0  0  0  0  0  0
  -26.8505  -30.8216   22.0079 H   0  0  0  0  0  0
  -28.1338  -28.9400   21.1881 H   0  0  0  0  0  0
  -25.9927  -25.8699   19.0528 H   0  0  0  0  0  0
  -23.9744  -27.2750   19.0364 H   0  0  0  0  0  0
  -23.7772  -30.5734   19.3995 H   0  0  0  0  0  0
  -22.7675  -29.2354   19.8553 H   0  0  0  0  0  0
  -25.1280  -36.1885   25.0812 H   0  0  0  0  0  0
  -20.9993  -28.3287   24.1395 H   0  0  0  0  0  0
  -20.5661  -26.2307   23.3617 H   0  0  0  0  0  0
  -21.6643  -26.7443   22.1213 H   0  0  0  0  0  0
  -19.6904  -25.6312   21.1240 H   0  0  0  0  0  0
  -19.6689  -27.3209   20.6734 H   0  0  0  0  0  0
  -17.4199  -26.6698   21.4028 H   0  0  0  0  0  0
  -18.0327  -26.0091   22.9022 H   0  0  0  0  0  0
  -19.7944  -30.7286   24.2266 H   0  0  0  0  0  0
  -17.5023  -31.6275   24.5172 H   0  0  0  0  0  0
  -15.5358  -30.2990   23.7675 H   0  0  0  0  0  0
  -15.8676  -28.0825   22.7087 H   0  0  0  0  0  0
  -24.5872  -30.7148   25.7759 H   0  0  0  0  0  0
  -24.9001  -32.2938   26.4882 H   0  0  0  0  0  0
  -25.8062  -30.8886   27.0190 H   0  0  0  0  0  0
  -26.2907  -29.6732   24.1220 H   0  0  0  0  0  0
  -27.4007  -29.7235   25.4705 H   0  0  0  0  0  0
  -27.8795  -30.4216   23.9421 H   0  0  0  0  0  0
  -27.2671  -33.3620   26.2026 H   0  0  0  0  0  0
  -28.3892  -32.6862   25.0318 H   0  0  0  0  0  0
  -28.0712  -31.8457   26.5417 H   0  0  0  0  0  0
  -28.2562  -38.0101   24.7563 H   0  0  0  0  0  0
  -28.1106  -36.2640   24.6195 H   0  0  0  0  0  0
  -27.2315  -37.1319   25.8861 H   0  0  0  0  0  0
  -20.9400  -29.8734   21.6829 H   0  0  0  0  0  0
  -26.0138  -38.2819   24.1498 H   0  0  0  0  0  0
  -32.5334  -19.1966   22.3103 H   0  0  0  0  0  0
  -31.1719  -21.0621   21.4721 H   0  0  0  0  0  0
  -31.9279  -16.8641   21.8917 H   0  0  0  0  0  0
  -27.6034  -21.2622   23.6838 H   0  0  0  0  0  0
  -27.0672  -20.8073   21.9843 H   0  0  0  0  0  0
  -30.5113  -23.1131   22.5713 H   0  0  0  0  0  0
  -29.6378  -22.5382   23.9548 H   0  0  0  0  0  0
  -29.6391  -24.9138   24.1181 H   0  0  0  0  0  0
  -28.0077  -24.4878   23.6813 H   0  0  0  0  0  0
  -30.1962  -25.4954   21.7833 H   0  0  0  0  0  0
  -28.8972  -26.4397   22.4438 H   0  0  0  0  0  0
  -27.2444  -24.9221   21.2247 H   0  0  0  0  0  0
  -28.0462  -18.7634   18.5678 H   0  0  0  0  0  0
  -27.1910  -18.2888   20.0431 H   0  0  0  0  0  0
  -28.0723  -17.0944   19.0888 H   0  0  0  0  0  0
  -27.8626  -20.8210   19.7388 H   0  0  0  0  0  0
  -29.3377  -21.3217   18.9984 H   0  0  0  0  0  0
  -28.8214  -15.6544   20.5804 H   0  0  0  0  0  0
  1 25  1  0  0  0
  1 30  2  0  0  0
  1 87  1  0  0  0
  2  3  1  0  0  0
  2 25  1  0  0  0
  2 89  1  0  0  0
  2 90  1  0  0  0
  3  4  1  0  0  0
  3 91  1  0  0  0
  3 92  1  0  0  0
  4  5  1  0  0  0
  4 93  1  0  0  0
  4 94  1  0  0  0
  5  6  1  0  0  0
  5 26  1  0  0  0
  5 95  1  0  0  0
  6 25  1  0  0  0
  6 96  1  0  0  0
  6 97  1  0  0  0
  7  8  2  0  0  0
  7 26  1  0  0  0
  7 29  1  0  0  0
  8  9  1  0  0  0
  8 22  1  0  0  0
  9 10  1  0  0  0
  9 27  2  0  0  0
 10 11  2  0  0  0
 10 15  1  0  0  0
 11 12  1  0  0  0
 11 98  1  0  0  0
 12 13  2  0  0  0
 12 99  1  0  0  0
 13 14  1  0  0  0
 13 31  1  0  0  0
 14 15  2  0  0  0
 14100  1  0  0  0
 15101  1  0  0  0
 16 17  2  0  0  0
 16 21  1  0  0  0
 16 31  1  0  0  0
 17 18  1  0  0  0
 17102  1  0  0  0
 18 19  2  0  0  0
 18103  1  0  0  0
 19 20  1  0  0  0
 19 24  1  0  0  0
 20 21  2  0  0  0
 20104  1  0  0  0
 21 23  1  0  0  0
 22 28  1  0  0  0
 22 32  2  0  0  0
 26 27  1  0  0  0
 28105  1  0  0  0
 28106  1  0  0  0
 29107  1  0  0  0
 29108  1  0  0  0
 33 34  1  0  0  0
 33 66  1  0  0  0
 33 70  2  0  0  0
 34 36  1  0  0  0
 34 59  1  0  0  0
 34109  1  0  0  0
 35 44  2  0  0  0
 35 45  1  0  0  0
 35 68  1  0  0  0
 36 56  1  0  0  0
 36110  1  0  0  0
 37 39  1  0  0  0
 37 47  1  0  0  0
 37 66  1  0  0  0
 37111  1  0  0  0
 38 43  2  0  0  0
 38 46  1  0  0  0
 38 47  1  0  0  0
 39 64  1  0  0  0
 39 67  2  0  0  0
 40 52  1  0  0  0
 40 53  2  0  0  0
 40 58  1  0  0  0
 41112  1  0  0  0
 41113  1  0  0  0
 41114  1  0  0  0
 41 48  1  0  0  0
 42 43  1  0  0  0
 42 66  1  0  0  0
 42115  1  0  0  0
 42116  1  0  0  0
 43 44  1  0  0  0
 44117  1  0  0  0
 45 46  2  0  0  0
 45118  1  0  0  0
 46119  1  0  0  0
 47120  1  0  0  0
 47121  1  0  0  0
 48 56  1  0  0  0
 48 65  1  0  0  0
 48122  1  0  0  0
 49 50  1  0  0  0
 49 53  1  0  0  0
 49 64  1  0  0  0
 49123  1  0  0  0
 50 51  1  0  0  0
 50124  1  0  0  0
 50125  1  0  0  0
 51 52  1  0  0  0
 51126  1  0  0  0
 51127  1  0  0  0
 52128  1  0  0  0
 52129  1  0  0  0
 53 54  1  0  0  0
 54 55  2  0  0  0
 54130  1  0  0  0
 55 57  1  0  0  0
 55131  1  0  0  0
 56 69  2  0  0  0
 57 58  2  0  0  0
 57132  1  0  0  0
 58133  1  0  0  0
 59 60  1  0  0  0
 59 61  1  0  0  0
 59 62  1  0  0  0
 60134  1  0  0  0
 60135  1  0  0  0
 60136  1  0  0  0
 61137  1  0  0  0
 61138  1  0  0  0
 61139  1  0  0  0
 62140  1  0  0  0
 62141  1  0  0  0
 62142  1  0  0  0
 63 65  1  0  0  0
 63143  1  0  0  0
 63144  1  0  0  0
 63145  1  0  0  0
 64146  1  0  0  0
 65147  1  0  0  0
 68 83  1  0  0  0
 71 72  2  0  0  0
 71 73  1  0  0  0
 71148  1  0  0  0
 72 74  1  0  0  0
 72149  1  0  0  0
 73 76  2  0  0  0
 73150  1  0  0  0
 74 75  2  0  0  0
 74 85  1  0  0  0
 75 76  1  0  0  0
 75 84  1  0  0  0
 76 87  1  0  0  0
 77 79  2  0  0  0
 77 80  1  0  0  0
 77 86  1  0  0  0
 78 83  1  0  0  0
 78 86  1  0  0  0
 78 88  2  0  0  0
 79151  1  0  0  0
 79152  1  0  0  0
 80 81  1  0  0  0
 80153  1  0  0  0
 80154  1  0  0  0
 81 82  1  0  0  0
 81155  1  0  0  0
 81156  1  0  0  0
 82 83  1  0  0  0
 82157  1  0  0  0
 82158  1  0  0  0
 83159  1  0  0  0
 84160  1  0  0  0
 84161  1  0  0  0
 84162  1  0  0  0
 85 86  1  0  0  0
 85163  1  0  0  0
 85164  1  0  0  0
 87165  1  0  0  0
M  ISO  4   1 100  68 101  83 101  87 100
M  END
> <chiral flag>
0

> <version>
0

> <s_m_source_file>
/data/baiqing/PycharmProjects/Reinvent-master-3.2/result/LINK_invent/BTK/process_docking_weight1_custom_product_contain_oxygen_bond_distance_aromatic_linkinvent_7_9_3/rearranged_h_0065.sdf

> <i_m_source_file_index>
6

> <r_mmod_Potential_Energy-OPLS-2005>
281.371398925781

> <r_mmod_Stretch_Energy-OPLS-2005>
141.612915039062

> <r_mmod_Bend_Energy-OPLS-2005>
163.135482788086

> <r_mmod_Torsional_Energy-OPLS-2005>
278.208129882812

> <r_mmod_Improper_Torsional_Energy-OPLS-2005>
7.47748184204102

> <r_mmod_Van_der_Waal_Energy-OPLS-2005>
136.27961730957

> <r_mmod_Electrostatic_Energy-OPLS-2005>
-307.60302734375

> <r_mmod_Solvation_Energy-OPLS-2005>
-219.372344970703

> <b_mmod_Minimization_Converged-OPLS-2005>
0

> <r_mmod_RMS_Derivative-OPLS-2005>
1.58274734020233

$$$$
6
                    3D
 Structure written by MMmdl.
161170  0  0  1  0            999 V2000
  -30.6080  -14.7212   20.4750 C   0  0  0  0  0  0
  -30.4236  -12.4380   19.4775 C   0  0  0  0  0  0
  -29.5110  -12.5224   18.2338 C   0  0  0  0  0  0
  -28.0351  -12.3458   18.6410 C   0  0  0  0  0  0
  -27.6406  -13.2318   19.8522 C   0  0  2  0  0  0
  -28.6799  -13.1455   20.9926 C   0  0  0  0  0  0
  -25.2475  -13.8188   20.5660 C   0  0  0  0  0  0
  -24.1766  -13.0436   20.9194 C   0  0  0  0  0  0
  -24.6363  -11.6912   20.8707 C   0  0  0  0  0  0
  -23.9033  -10.4288   21.0379 C   0  0  0  0  0  0
  -24.3588   -9.4219   21.9165 C   0  0  0  0  0  0
  -23.6281   -8.2247   22.0747 C   0  0  0  0  0  0
  -22.4273   -8.0262   21.3538 C   0  0  0  0  0  0
  -21.9884   -9.0234   20.4645 C   0  0  0  0  0  0
  -22.7199  -10.2122   20.3042 C   0  0  0  0  0  0
  -21.6862   -6.0708   22.5266 C   0  0  0  0  0  0
  -21.4016   -6.5622   23.8198 C   0  0  0  0  0  0
  -21.3664   -5.6776   24.9158 C   0  0  0  0  0  0
  -21.6050   -4.3036   24.7221 C   0  0  0  0  0  0
  -21.8817   -3.8129   23.4341 C   0  0  0  0  0  0
  -21.9196   -4.6935   22.3392 C   0  0  0  0  0  0
  -22.7788  -13.5213   21.1862 C   0  0  0  0  0  0
  -22.1668   -4.2116   21.0973 F   0  0  0  0  0  0
  -21.5640   -3.4527   25.7741 F   0  0  0  0  0  0
  -29.9836  -13.4940   20.4196 N   0  0  0  0  0  0
  -26.2905  -12.9406   20.3238 N   0  0  0  0  0  0
  -25.9292  -11.6551   20.5694 N   0  0  0  0  0  0
  -22.0429  -12.8219   22.0432 N   0  0  0  0  0  0
  -25.4149  -15.1910   20.4067 N   0  0  0  0  0  0
  -31.7740  -14.8025   20.0845 O   0  0  0  0  0  0
  -21.6649   -6.8856   21.4235 O   0  0  0  0  0  0
  -22.3476  -14.5514   20.6698 O   0  0  0  0  0  0
  -24.6293  -31.8538   23.1985 C   0  0  0  0  0  0
  -25.9137  -32.4746   23.8311 C   0  0  1  0  0  0
  -27.2190  -27.2853   20.1259 C   0  0  0  0  0  0
  -25.5928  -33.8538   24.2234 N   0  0  0  0  0  0
  -23.4222  -30.4754   21.5421 C   0  0  2  0  0  0
  -24.8669  -28.9226   20.1050 C   0  0  0  0  0  0
  -22.7490  -29.4593   22.4950 C   0  0  0  0  0  0
  -18.0291  -28.1386   22.8488 C   0  0  0  0  0  0
  -24.1487  -36.7286   23.2645 C   0  0  0  0  0  0
  -25.9627  -30.7755   21.3716 C   0  0  0  0  0  0
  -26.0323  -29.3989   20.7155 C   0  0  0  0  0  0
  -27.2055  -28.5885   20.7212 C   0  0  0  0  0  0
  -26.0356  -26.8663   19.4825 C   0  0  0  0  0  0
  -24.8717  -27.6638   19.4799 C   0  0  0  0  0  0
  -23.6337  -29.8033   20.1585 C   0  0  0  0  0  0
  -25.4106  -36.3056   24.0330 C   0  0  1  0  0  0
  -20.5890  -28.3674   23.1313 C   0  0  2  0  0  0
  -20.6767  -26.9393   22.5437 C   0  0  0  0  0  0
  -19.5744  -26.6374   21.5238 C   0  0  0  0  0  0
  -18.1928  -26.7930   22.1645 C   0  0  0  0  0  0
  -19.1541  -28.8857   23.2893 C   0  0  0  0  0  0
  -18.9449  -30.1468   23.8888 C   0  0  0  0  0  0
  -17.6440  -30.6577   24.0564 C   0  0  0  0  0  0
  -25.9040  -34.9428   23.5084 C   0  0  0  0  0  0
  -16.5336  -29.9064   23.6341 C   0  0  0  0  0  0
  -16.7279  -28.6498   23.0345 C   0  0  0  0  0  0
  -26.4488  -31.6587   25.0710 C   0  0  0  0  0  0
  -25.3704  -31.3751   26.1431 C   0  0  0  0  0  0
  -27.0310  -30.2996   24.6203 C   0  0  0  0  0  0
  -27.6037  -32.4325   25.7483 C   0  0  0  0  0  0
  -27.5583  -37.1795   24.8453 C   0  0  0  0  0  0
  -21.4205  -29.3022   22.3699 N   0  0  0  0  0  0
  -26.4284  -37.3757   23.9405 N   0  0  0  0  0  0
  -24.6901  -31.0543   22.0936 N   0  0  0  0  0  0
  -23.4210  -28.8140   23.3040 O   0  0  0  0  0  0
  -28.3434  -26.4490   20.2240 O   0  0  0  0  0  0
  -26.5608  -34.8916   22.4657 O   0  0  0  0  0  0
  -23.5457  -32.1339   23.7321 O   0  0  0  0  0  0
  -30.8569  -20.1015   20.7457 C   0  0  0  0  0  0
  -29.1803  -18.3662   20.5827 C   0  0  0  0  0  0
  -31.8253  -19.1062   20.9819 C   0  0  0  0  0  0
  -29.4808  -19.8054   20.5910 C   0  0  0  0  0  0
  -30.1639  -17.3014   20.7610 C   0  0  0  0  0  0
  -31.4865  -17.7396   21.0282 C   0  0  0  0  0  0
  -27.1808  -20.8214   20.6872 C   0  0  0  0  0  0
  -26.3020  -22.0403   21.0236 C   0  0  0  0  0  0
  -26.6360  -23.3188   20.2480 C   0  0  0  0  0  0
  -29.0020  -22.4070   20.1654 C   0  0  0  0  0  0
  -28.0957  -23.7128   20.4521 C   0  0  1  0  0  0
  -33.2637  -19.5188   21.2280 C   0  0  0  0  0  0
  -28.4509  -25.0751   19.6545 C   0  0  0  0  0  0
  -28.5248  -20.9762   20.4995 N   0  0  0  0  0  0
  -29.8343  -15.8454   20.7497 N   0  0  0  0  0  0
  -26.5983  -19.7365   20.6290 O   0  0  0  0  0  0
  -32.4608  -16.8720   21.3867 F   0  0  0  0  0  0
  -31.4700  -12.5408   19.1871 H   0  0  0  0  0  0
  -30.3462  -11.4549   19.9454 H   0  0  0  0  0  0
  -29.7966  -11.7638   17.5039 H   0  0  0  0  0  0
  -29.6439  -13.4889   17.7423 H   0  0  0  0  0  0
  -27.8867  -11.2952   18.8921 H   0  0  0  0  0  0
  -27.3790  -12.5497   17.7924 H   0  0  0  0  0  0
  -27.6439  -14.2582   19.4849 H   0  0  0  0  0  0
  -28.7055  -12.1417   21.4206 H   0  0  0  0  0  0
  -28.4144  -13.8163   21.8107 H   0  0  0  0  0  0
  -25.2733   -9.5715   22.4725 H   0  0  0  0  0  0
  -24.0000   -7.4644   22.7468 H   0  0  0  0  0  0
  -21.0810   -8.8732   19.8966 H   0  0  0  0  0  0
  -22.3635  -10.9640   19.6131 H   0  0  0  0  0  0
  -21.2014   -7.6133   23.9686 H   0  0  0  0  0  0
  -21.1492   -6.0512   25.9059 H   0  0  0  0  0  0
  -22.0601   -2.7592   23.2844 H   0  0  0  0  0  0
  -22.4054  -11.9909   22.4860 H   0  0  0  0  0  0
  -21.1028  -13.1233   22.2609 H   0  0  0  0  0  0
  -24.6449  -15.8412   20.5138 H   0  0  0  0  0  0
  -26.2576  -15.6334   20.0642 H   0  0  0  0  0  0
  -26.7214  -32.5382   23.1055 H   0  0  0  0  0  0
  -25.0063  -33.9624   25.0373 H   0  0  0  0  0  0
  -22.7192  -31.2977   21.3971 H   0  0  0  0  0  0
  -23.3740  -35.9635   23.3282 H   0  0  0  0  0  0
  -24.3597  -36.8917   22.2070 H   0  0  0  0  0  0
  -23.7247  -37.6488   23.6670 H   0  0  0  0  0  0
  -26.0958  -31.5386   20.6039 H   0  0  0  0  0  0
  -26.8439  -30.8239   21.9996 H   0  0  0  0  0  0
  -28.0968  -28.9435   21.2198 H   0  0  0  0  0  0
  -25.9809  -25.9032   19.0009 H   0  0  0  0  0  0
  -23.9781  -27.2912   18.9994 H   0  0  0  0  0  0
  -23.7448  -30.5727   19.3949 H   0  0  0  0  0  0
  -22.7548  -29.2267   19.8668 H   0  0  0  0  0  0
  -25.1293  -36.1888   25.0824 H   0  0  0  0  0  0
  -20.9989  -28.3237   24.1434 H   0  0  0  0  0  0
  -20.5688  -26.2268   23.3625 H   0  0  0  0  0  0
  -21.6632  -26.7435   22.1211 H   0  0  0  0  0  0
  -19.6882  -25.6285   21.1261 H   0  0  0  0  0  0
  -19.6690  -27.3196   20.6773 H   0  0  0  0  0  0
  -17.4209  -26.6722   21.4031 H   0  0  0  0  0  0
  -18.0294  -26.0072   22.9030 H   0  0  0  0  0  0
  -19.7914  -30.7314   24.2234 H   0  0  0  0  0  0
  -17.4973  -31.6247   24.5176 H   0  0  0  0  0  0
  -15.5329  -30.2937   23.7674 H   0  0  0  0  0  0
  -15.8691  -28.0814   22.7031 H   0  0  0  0  0  0
  -24.5891  -30.7077   25.7771 H   0  0  0  0  0  0
  -24.8879  -32.2924   26.4819 H   0  0  0  0  0  0
  -25.8025  -30.8962   27.0229 H   0  0  0  0  0  0
  -26.2882  -29.6761   24.1220 H   0  0  0  0  0  0
  -27.3947  -29.7253   25.4735 H   0  0  0  0  0  0
  -27.8781  -30.4232   23.9454 H   0  0  0  0  0  0
  -27.2638  -33.3624   26.2053 H   0  0  0  0  0  0
  -28.3863  -32.6891   25.0329 H   0  0  0  0  0  0
  -28.0695  -31.8455   26.5406 H   0  0  0  0  0  0
  -28.2578  -38.0110   24.7515 H   0  0  0  0  0  0
  -28.1086  -36.2641   24.6235 H   0  0  0  0  0  0
  -27.2310  -37.1408   25.8855 H   0  0  0  0  0  0
  -20.9381  -29.8722   21.6891 H   0  0  0  0  0  0
  -26.0150  -38.2829   24.1397 H   0  0  0  0  0  0
  -31.2224  -21.1130   20.7456 H   0  0  0  0  0  0
  -28.1654  -18.0340   20.4326 H   0  0  0  0  0  0
  -26.3909  -22.2306   22.0946 H   0  0  0  0  0  0
  -25.2556  -21.7847   20.8509 H   0  0  0  0  0  0
  -25.9843  -24.1235   20.5889 H   0  0  0  0  0  0
  -26.4256  -23.1786   19.1868 H   0  0  0  0  0  0
  -29.9322  -22.6321   20.6766 H   0  0  0  0  0  0
  -29.2453  -22.3947   19.1033 H   0  0  0  0  0  0
  -28.2240  -23.9383   21.5106 H   0  0  0  0  0  0
  -33.4227  -20.5785   21.0223 H   0  0  0  0  0  0
  -33.9379  -18.9485   20.5886 H   0  0  0  0  0  0
  -33.5380  -19.3314   22.2663 H   0  0  0  0  0  0
  -27.9944  -25.0526   18.6656 H   0  0  0  0  0  0
  -29.5160  -24.9986   19.4343 H   0  0  0  0  0  0
  -28.8656  -15.6292   20.9222 H   0  0  0  0  0  0
  1 25  1  0  0  0
  1 30  2  0  0  0
  1 85  1  0  0  0
  2  3  1  0  0  0
  2 25  1  0  0  0
  2 88  1  0  0  0
  2 89  1  0  0  0
  3  4  1  0  0  0
  3 90  1  0  0  0
  3 91  1  0  0  0
  4  5  1  0  0  0
  4 92  1  0  0  0
  4 93  1  0  0  0
  5  6  1  0  0  0
  5 26  1  0  0  0
  5 94  1  0  0  0
  6 25  1  0  0  0
  6 95  1  0  0  0
  6 96  1  0  0  0
  7  8  2  0  0  0
  7 26  1  0  0  0
  7 29  1  0  0  0
  8  9  1  0  0  0
  8 22  1  0  0  0
  9 10  1  0  0  0
  9 27  2  0  0  0
 10 11  2  0  0  0
 10 15  1  0  0  0
 11 12  1  0  0  0
 11 97  1  0  0  0
 12 13  2  0  0  0
 12 98  1  0  0  0
 13 14  1  0  0  0
 13 31  1  0  0  0
 14 15  2  0  0  0
 14 99  1  0  0  0
 15100  1  0  0  0
 16 17  2  0  0  0
 16 21  1  0  0  0
 16 31  1  0  0  0
 17 18  1  0  0  0
 17101  1  0  0  0
 18 19  2  0  0  0
 18102  1  0  0  0
 19 20  1  0  0  0
 19 24  1  0  0  0
 20 21  2  0  0  0
 20103  1  0  0  0
 21 23  1  0  0  0
 22 28  1  0  0  0
 22 32  2  0  0  0
 26 27  1  0  0  0
 28104  1  0  0  0
 28105  1  0  0  0
 29106  1  0  0  0
 29107  1  0  0  0
 33 34  1  0  0  0
 33 66  1  0  0  0
 33 70  2  0  0  0
 34 36  1  0  0  0
 34 59  1  0  0  0
 34108  1  0  0  0
 35 44  2  0  0  0
 35 45  1  0  0  0
 35 68  1  0  0  0
 36 56  1  0  0  0
 36109  1  0  0  0
 37 39  1  0  0  0
 37 47  1  0  0  0
 37 66  1  0  0  0
 37110  1  0  0  0
 38 43  2  0  0  0
 38 46  1  0  0  0
 38 47  1  0  0  0
 39 64  1  0  0  0
 39 67  2  0  0  0
 40 52  1  0  0  0
 40 53  2  0  0  0
 40 58  1  0  0  0
 41111  1  0  0  0
 41112  1  0  0  0
 41113  1  0  0  0
 41 48  1  0  0  0
 42 43  1  0  0  0
 42 66  1  0  0  0
 42114  1  0  0  0
 42115  1  0  0  0
 43 44  1  0  0  0
 44116  1  0  0  0
 45 46  2  0  0  0
 45117  1  0  0  0
 46118  1  0  0  0
 47119  1  0  0  0
 47120  1  0  0  0
 48 56  1  0  0  0
 48 65  1  0  0  0
 48121  1  0  0  0
 49 50  1  0  0  0
 49 53  1  0  0  0
 49 64  1  0  0  0
 49122  1  0  0  0
 50 51  1  0  0  0
 50123  1  0  0  0
 50124  1  0  0  0
 51 52  1  0  0  0
 51125  1  0  0  0
 51126  1  0  0  0
 52127  1  0  0  0
 52128  1  0  0  0
 53 54  1  0  0  0
 54 55  2  0  0  0
 54129  1  0  0  0
 55 57  1  0  0  0
 55130  1  0  0  0
 56 69  2  0  0  0
 57 58  2  0  0  0
 57131  1  0  0  0
 58132  1  0  0  0
 59 60  1  0  0  0
 59 61  1  0  0  0
 59 62  1  0  0  0
 60133  1  0  0  0
 60134  1  0  0  0
 60135  1  0  0  0
 61136  1  0  0  0
 61137  1  0  0  0
 61138  1  0  0  0
 62139  1  0  0  0
 62140  1  0  0  0
 62141  1  0  0  0
 63 65  1  0  0  0
 63142  1  0  0  0
 63143  1  0  0  0
 63144  1  0  0  0
 64145  1  0  0  0
 65146  1  0  0  0
 68 83  1  0  0  0
 71 73  2  0  0  0
 71 74  1  0  0  0
 71147  1  0  0  0
 72 74  2  0  0  0
 72 75  1  0  0  0
 72148  1  0  0  0
 73 76  1  0  0  0
 73 82  1  0  0  0
 74 84  1  0  0  0
 75 76  2  0  0  0
 75 85  1  0  0  0
 76 87  1  0  0  0
 77 78  1  0  0  0
 77 84  1  0  0  0
 77 86  2  0  0  0
 78 79  1  0  0  0
 78149  1  0  0  0
 78150  1  0  0  0
 79 81  1  0  0  0
 79151  1  0  0  0
 79152  1  0  0  0
 80 81  1  0  0  0
 80 84  1  0  0  0
 80153  1  0  0  0
 80154  1  0  0  0
 81 83  1  0  0  0
 81155  1  0  0  0
 82156  1  0  0  0
 82157  1  0  0  0
 82158  1  0  0  0
 83159  1  0  0  0
 83160  1  0  0  0
 85161  1  0  0  0
M  ISO  4   1 100  68 101  83 101  85 100
M  END
> <chiral flag>
0

> <version>
0

> <s_m_source_file>
/data/baiqing/PycharmProjects/Reinvent-master-3.2/result/LINK_invent/BTK/process_docking_weight1_custom_product_contain_oxygen_bond_distance_aromatic_linkinvent_7_9_3/rearranged_h_0065.sdf

> <i_m_source_file_index>
7

> <r_mmod_Potential_Energy-OPLS-2005>
245.441223144531

> <r_mmod_Stretch_Energy-OPLS-2005>
136.103256225586

> <r_mmod_Bend_Energy-OPLS-2005>
190.16650390625

> <r_mmod_Torsional_Energy-OPLS-2005>
262.340301513672

> <r_mmod_Improper_Torsional_Energy-OPLS-2005>
5.64343643188477

> <r_mmod_Van_der_Waal_Energy-OPLS-2005>
163.59245300293

> <r_mmod_Electrostatic_Energy-OPLS-2005>
-364.190032958984

> <r_mmod_Solvation_Energy-OPLS-2005>
-219.36311340332

> <b_mmod_Minimization_Converged-OPLS-2005>
0

> <r_mmod_RMS_Derivative-OPLS-2005>
2.98571801185608

$$$$
7
                    3D
 Structure written by MMmdl.
164173  0  0  1  0            999 V2000
  -30.6054  -14.7726   20.4530 C   0  0  0  0  0  0
  -30.4209  -12.4698   19.4826 C   0  0  0  0  0  0
  -29.5045  -12.5082   18.2403 C   0  0  0  0  0  0
  -28.0314  -12.3289   18.6536 C   0  0  0  0  0  0
  -27.6325  -13.2380   19.8462 C   0  0  2  0  0  0
  -28.6749  -13.1988   20.9837 C   0  0  0  0  0  0
  -25.2460  -13.8221   20.5694 C   0  0  0  0  0  0
  -24.1770  -13.0447   20.9225 C   0  0  0  0  0  0
  -24.6375  -11.6934   20.8773 C   0  0  0  0  0  0
  -23.9066  -10.4302   21.0426 C   0  0  0  0  0  0
  -24.3613   -9.4214   21.9201 C   0  0  0  0  0  0
  -23.6289   -8.2245   22.0763 C   0  0  0  0  0  0
  -22.4273   -8.0286   21.3547 C   0  0  0  0  0  0
  -21.9913   -9.0261   20.4647 C   0  0  0  0  0  0
  -22.7242  -10.2143   20.3063 C   0  0  0  0  0  0
  -21.6850   -6.0737   22.5279 C   0  0  0  0  0  0
  -21.4011   -6.5643   23.8210 C   0  0  0  0  0  0
  -21.3657   -5.6795   24.9176 C   0  0  0  0  0  0
  -21.6040   -4.3058   24.7226 C   0  0  0  0  0  0
  -21.8820   -3.8150   23.4346 C   0  0  0  0  0  0
  -21.9191   -4.6967   22.3400 C   0  0  0  0  0  0
  -22.7788  -13.5230   21.1884 C   0  0  0  0  0  0
  -22.1661   -4.2153   21.0976 F   0  0  0  0  0  0
  -21.5626   -3.4538   25.7739 F   0  0  0  0  0  0
  -29.9705  -13.5499   20.3944 N   0  0  0  0  0  0
  -26.2882  -12.9432   20.3273 N   0  0  0  0  0  0
  -25.9303  -11.6573   20.5767 N   0  0  0  0  0  0
  -22.0441  -12.8216   22.0450 N   0  0  0  0  0  0
  -25.4141  -15.1941   20.4090 N   0  0  0  0  0  0
  -31.7998  -14.8187   20.1441 O   0  0  0  0  0  0
  -21.6637   -6.8881   21.4239 O   0  0  0  0  0  0
  -22.3473  -14.5531   20.6739 O   0  0  0  0  0  0
  -24.6274  -31.8554   23.1902 C   0  0  0  0  0  0
  -25.9078  -32.4774   23.8288 C   0  0  1  0  0  0
  -27.2270  -27.2541   20.1343 C   0  0  0  0  0  0
  -25.5852  -33.8576   24.2208 N   0  0  0  0  0  0
  -23.4269  -30.4671   21.5361 C   0  0  2  0  0  0
  -24.8788  -28.9067   20.1022 C   0  0  0  0  0  0
  -22.7492  -29.4565   22.4919 C   0  0  0  0  0  0
  -18.0279  -28.1366   22.8492 C   0  0  0  0  0  0
  -24.1476  -36.7306   23.2648 C   0  0  0  0  0  0
  -25.9672  -30.7646   21.3677 C   0  0  0  0  0  0
  -26.0428  -29.3816   20.7179 C   0  0  0  0  0  0
  -27.2152  -28.5638   20.7243 C   0  0  0  0  0  0
  -26.0461  -26.8414   19.4849 C   0  0  0  0  0  0
  -24.8864  -27.6489   19.4711 C   0  0  0  0  0  0
  -23.6434  -29.7867   20.1556 C   0  0  0  0  0  0
  -25.4103  -36.3086   24.0328 C   0  0  1  0  0  0
  -20.5881  -28.3676   23.1271 C   0  0  2  0  0  0
  -20.6762  -26.9392   22.5419 C   0  0  0  0  0  0
  -19.5733  -26.6352   21.5230 C   0  0  0  0  0  0
  -18.1912  -26.7906   22.1641 C   0  0  0  0  0  0
  -19.1537  -28.8841   23.2868 C   0  0  0  0  0  0
  -18.9471  -30.1443   23.8886 C   0  0  0  0  0  0
  -17.6476  -30.6584   24.0551 C   0  0  0  0  0  0
  -25.9041  -34.9462   23.5091 C   0  0  0  0  0  0
  -16.5359  -29.9082   23.6330 C   0  0  0  0  0  0
  -16.7272  -28.6487   23.0374 C   0  0  0  0  0  0
  -26.4426  -31.6611   25.0693 C   0  0  0  0  0  0
  -25.3599  -31.3796   26.1377 C   0  0  0  0  0  0
  -27.0272  -30.3027   24.6175 C   0  0  0  0  0  0
  -27.5967  -32.4370   25.7481 C   0  0  0  0  0  0
  -27.5571  -37.1793   24.8464 C   0  0  0  0  0  0
  -21.4201  -29.3019   22.3668 N   0  0  0  0  0  0
  -26.4282  -37.3784   23.9409 N   0  0  0  0  0  0
  -24.6934  -31.0478   22.0893 N   0  0  0  0  0  0
  -23.4196  -28.8128   23.3032 O   0  0  0  0  0  0
  -28.3411  -26.3969   20.2580 O   0  0  0  0  0  0
  -26.5678  -34.8948   22.4696 O   0  0  0  0  0  0
  -23.5417  -32.1400   23.7178 O   0  0  0  0  0  0
  -32.0621  -18.9958   21.0940 C   0  0  0  0  0  0
  -31.5968  -17.6810   20.9611 C   0  0  0  0  0  0
  -29.3685  -18.5642   20.5766 C   0  0  0  0  0  0
  -31.2162  -20.1209   20.9961 C   0  0  0  0  0  0
  -29.8217  -19.9607   20.7061 C   0  0  0  0  0  0
  -30.2438  -17.3865   20.6960 C   0  0  0  0  0  0
  -28.6105  -21.8070   21.8748 C   0  0  0  0  0  0
  -31.8900  -21.4313   21.2450 C   0  0  0  0  0  0
  -28.8113  -22.2541   19.6527 C   0  0  0  0  0  0
  -28.3461  -23.3357   21.7486 C   0  0  1  0  0  0
  -28.1244  -23.5805   20.2489 C   0  0  1  0  0  0
  -32.6924  -21.5324   22.5353 C   0  0  0  0  0  0
  -27.1700  -23.8457   22.6161 C   0  0  0  0  0  0
  -28.5136  -25.0413   19.6323 C   0  0  0  0  0  0
  -28.9485  -21.1908   20.7173 N   0  0  0  0  0  0
  -29.8440  -15.9399   20.6210 N   0  0  0  0  0  0
  -28.5241  -21.2314   22.9646 O   0  0  0  0  0  0
  -31.8230  -22.4115   20.5034 O   0  0  0  0  0  0
  -27.5002  -23.9128   23.9950 O   0  0  0  0  0  0
  -31.4633  -12.5836   19.1822 H   0  0  0  0  0  0
  -30.3593  -11.5016   19.9813 H   0  0  0  0  0  0
  -29.7924  -11.7319   17.5300 H   0  0  0  0  0  0
  -29.6264  -13.4599   17.7214 H   0  0  0  0  0  0
  -27.8922  -11.2822   18.9254 H   0  0  0  0  0  0
  -27.3749  -12.5110   17.8023 H   0  0  0  0  0  0
  -27.6180  -14.2535   19.4510 H   0  0  0  0  0  0
  -28.7150  -12.2119   21.4463 H   0  0  0  0  0  0
  -28.4073  -13.8992   21.7767 H   0  0  0  0  0  0
  -25.2745   -9.5693   22.4793 H   0  0  0  0  0  0
  -23.9992   -7.4637   22.7486 H   0  0  0  0  0  0
  -21.0845   -8.8787   19.8946 H   0  0  0  0  0  0
  -22.3702  -10.9690   19.6180 H   0  0  0  0  0  0
  -21.2006   -7.6151   23.9718 H   0  0  0  0  0  0
  -21.1473   -6.0525   25.9079 H   0  0  0  0  0  0
  -22.0601   -2.7612   23.2847 H   0  0  0  0  0  0
  -22.4047  -11.9868   22.4820 H   0  0  0  0  0  0
  -21.1078  -13.1272   22.2698 H   0  0  0  0  0  0
  -24.6418  -15.8450   20.5025 H   0  0  0  0  0  0
  -26.2569  -15.6323   20.0613 H   0  0  0  0  0  0
  -26.7152  -32.5433   23.1046 H   0  0  0  0  0  0
  -24.9856  -33.9724   25.0250 H   0  0  0  0  0  0
  -22.7228  -31.2872   21.3825 H   0  0  0  0  0  0
  -23.3755  -35.9622   23.3305 H   0  0  0  0  0  0
  -24.3536  -36.8959   22.2060 H   0  0  0  0  0  0
  -23.7226  -37.6493   23.6699 H   0  0  0  0  0  0
  -26.0865  -31.5156   20.5854 H   0  0  0  0  0  0
  -26.8521  -30.8331   21.9889 H   0  0  0  0  0  0
  -28.1064  -28.9146   21.2260 H   0  0  0  0  0  0
  -25.9974  -25.8664   19.0215 H   0  0  0  0  0  0
  -23.9952  -27.2844   18.9785 H   0  0  0  0  0  0
  -23.7469  -30.5542   19.3885 H   0  0  0  0  0  0
  -22.7685  -29.2003   19.8681 H   0  0  0  0  0  0
  -25.1283  -36.1936   25.0824 H   0  0  0  0  0  0
  -20.9961  -28.3268   24.1394 H   0  0  0  0  0  0
  -20.5649  -26.2304   23.3633 H   0  0  0  0  0  0
  -21.6628  -26.7395   22.1218 H   0  0  0  0  0  0
  -19.6890  -25.6251   21.1282 H   0  0  0  0  0  0
  -19.6666  -27.3145   20.6742 H   0  0  0  0  0  0
  -17.4176  -26.6655   21.4045 H   0  0  0  0  0  0
  -18.0292  -26.0043   22.9032 H   0  0  0  0  0  0
  -19.7957  -30.7237   24.2272 H   0  0  0  0  0  0
  -17.5042  -31.6270   24.5140 H   0  0  0  0  0  0
  -15.5361  -30.2986   23.7659 H   0  0  0  0  0  0
  -15.8666  -28.0797   22.7123 H   0  0  0  0  0  0
  -24.5814  -30.7110   25.7685 H   0  0  0  0  0  0
  -24.8719  -32.2975   26.4665 H   0  0  0  0  0  0
  -25.7831  -30.9065   27.0245 H   0  0  0  0  0  0
  -26.2857  -29.6799   24.1154 H   0  0  0  0  0  0
  -27.3906  -29.7263   25.4692 H   0  0  0  0  0  0
  -27.8742  -30.4316   23.9436 H   0  0  0  0  0  0
  -27.2571  -33.3720   26.1962 H   0  0  0  0  0  0
  -28.3808  -32.6867   25.0320 H   0  0  0  0  0  0
  -28.0584  -31.8557   26.5477 H   0  0  0  0  0  0
  -28.2578  -38.0104   24.7517 H   0  0  0  0  0  0
  -28.1079  -36.2625   24.6278 H   0  0  0  0  0  0
  -27.2283  -37.1430   25.8870 H   0  0  0  0  0  0
  -20.9406  -29.8740   21.6857 H   0  0  0  0  0  0
  -26.0174  -38.2865   24.1421 H   0  0  0  0  0  0
  -33.1147  -19.1304   21.3052 H   0  0  0  0  0  0
  -32.3298  -16.9015   21.1009 H   0  0  0  0  0  0
  -28.3147  -18.3950   20.4029 H   0  0  0  0  0  0
  -29.7774  -22.4913   19.2130 H   0  0  0  0  0  0
  -28.2096  -21.8546   18.8367 H   0  0  0  0  0  0
  -29.2645  -23.8498   22.0356 H   0  0  0  0  0  0
  -27.0538  -23.4676   20.0707 H   0  0  0  0  0  0
  -32.2417  -20.9151   23.3128 H   0  0  0  0  0  0
  -32.7136  -22.5633   22.8862 H   0  0  0  0  0  0
  -33.7158  -21.1966   22.3717 H   0  0  0  0  0  0
  -26.2943  -23.2064   22.4906 H   0  0  0  0  0  0
  -26.8736  -24.8444   22.2927 H   0  0  0  0  0  0
  -28.1366  -25.0916   18.6106 H   0  0  0  0  0  0
  -29.5951  -24.9990   19.5012 H   0  0  0  0  0  0
  -28.8539  -15.7658   20.6974 H   0  0  0  0  0  0
  -27.6636  -23.0203   24.2942 H   0  0  0  0  0  0
  1 25  1  0  0  0
  1 30  2  0  0  0
  1 86  1  0  0  0
  2  3  1  0  0  0
  2 25  1  0  0  0
  2 90  1  0  0  0
  2 91  1  0  0  0
  3  4  1  0  0  0
  3 92  1  0  0  0
  3 93  1  0  0  0
  4  5  1  0  0  0
  4 94  1  0  0  0
  4 95  1  0  0  0
  5  6  1  0  0  0
  5 26  1  0  0  0
  5 96  1  0  0  0
  6 25  1  0  0  0
  6 97  1  0  0  0
  6 98  1  0  0  0
  7  8  2  0  0  0
  7 26  1  0  0  0
  7 29  1  0  0  0
  8  9  1  0  0  0
  8 22  1  0  0  0
  9 10  1  0  0  0
  9 27  2  0  0  0
 10 11  2  0  0  0
 10 15  1  0  0  0
 11 12  1  0  0  0
 11 99  1  0  0  0
 12 13  2  0  0  0
 12100  1  0  0  0
 13 14  1  0  0  0
 13 31  1  0  0  0
 14 15  2  0  0  0
 14101  1  0  0  0
 15102  1  0  0  0
 16 17  2  0  0  0
 16 21  1  0  0  0
 16 31  1  0  0  0
 17 18  1  0  0  0
 17103  1  0  0  0
 18 19  2  0  0  0
 18104  1  0  0  0
 19 20  1  0  0  0
 19 24  1  0  0  0
 20 21  2  0  0  0
 20105  1  0  0  0
 21 23  1  0  0  0
 22 28  1  0  0  0
 22 32  2  0  0  0
 26 27  1  0  0  0
 28106  1  0  0  0
 28107  1  0  0  0
 29108  1  0  0  0
 29109  1  0  0  0
 33 34  1  0  0  0
 33 66  1  0  0  0
 33 70  2  0  0  0
 34 36  1  0  0  0
 34 59  1  0  0  0
 34110  1  0  0  0
 35 44  2  0  0  0
 35 45  1  0  0  0
 35 68  1  0  0  0
 36 56  1  0  0  0
 36111  1  0  0  0
 37 39  1  0  0  0
 37 47  1  0  0  0
 37 66  1  0  0  0
 37112  1  0  0  0
 38 43  2  0  0  0
 38 46  1  0  0  0
 38 47  1  0  0  0
 39 64  1  0  0  0
 39 67  2  0  0  0
 40 52  1  0  0  0
 40 53  2  0  0  0
 40 58  1  0  0  0
 41113  1  0  0  0
 41114  1  0  0  0
 41115  1  0  0  0
 41 48  1  0  0  0
 42 43  1  0  0  0
 42 66  1  0  0  0
 42116  1  0  0  0
 42117  1  0  0  0
 43 44  1  0  0  0
 44118  1  0  0  0
 45 46  2  0  0  0
 45119  1  0  0  0
 46120  1  0  0  0
 47121  1  0  0  0
 47122  1  0  0  0
 48 56  1  0  0  0
 48 65  1  0  0  0
 48123  1  0  0  0
 49 50  1  0  0  0
 49 53  1  0  0  0
 49 64  1  0  0  0
 49124  1  0  0  0
 50 51  1  0  0  0
 50125  1  0  0  0
 50126  1  0  0  0
 51 52  1  0  0  0
 51127  1  0  0  0
 51128  1  0  0  0
 52129  1  0  0  0
 52130  1  0  0  0
 53 54  1  0  0  0
 54 55  2  0  0  0
 54131  1  0  0  0
 55 57  1  0  0  0
 55132  1  0  0  0
 56 69  2  0  0  0
 57 58  2  0  0  0
 57133  1  0  0  0
 58134  1  0  0  0
 59 60  1  0  0  0
 59 61  1  0  0  0
 59 62  1  0  0  0
 60135  1  0  0  0
 60136  1  0  0  0
 60137  1  0  0  0
 61138  1  0  0  0
 61139  1  0  0  0
 61140  1  0  0  0
 62141  1  0  0  0
 62142  1  0  0  0
 62143  1  0  0  0
 63 65  1  0  0  0
 63144  1  0  0  0
 63145  1  0  0  0
 63146  1  0  0  0
 64147  1  0  0  0
 65148  1  0  0  0
 68 84  1  0  0  0
 71 72  2  0  0  0
 71 74  1  0  0  0
 71149  1  0  0  0
 72 76  1  0  0  0
 72150  1  0  0  0
 73 75  1  0  0  0
 73 76  2  0  0  0
 73151  1  0  0  0
 74 75  2  0  0  0
 74 78  1  0  0  0
 75 85  1  0  0  0
 76 86  1  0  0  0
 77 80  1  0  0  0
 77 85  1  0  0  0
 77 87  2  0  0  0
 78 82  1  0  0  0
 78 88  2  0  0  0
 79 81  1  0  0  0
 79 85  1  0  0  0
 79152  1  0  0  0
 79153  1  0  0  0
 80 81  1  0  0  0
 80 83  1  0  0  0
 80154  1  0  0  0
 81 84  1  0  0  0
 81155  1  0  0  0
 82156  1  0  0  0
 82157  1  0  0  0
 82158  1  0  0  0
 83 89  1  0  0  0
 83159  1  0  0  0
 83160  1  0  0  0
 84161  1  0  0  0
 84162  1  0  0  0
 86163  1  0  0  0
 89164  1  0  0  0
M  ISO  4   1 100  68 101  84 101  86 100
M  END
> <chiral flag>
0

> <version>
0

> <s_m_source_file>
/data/baiqing/PycharmProjects/Reinvent-master-3.2/result/LINK_invent/BTK/process_docking_weight1_custom_product_contain_oxygen_bond_distance_aromatic_linkinvent_7_9_3/rearranged_h_0065.sdf

> <i_m_source_file_index>
8

> <r_mmod_Potential_Energy-OPLS-2005>
387.729278564453

> <r_mmod_Stretch_Energy-OPLS-2005>
146.978622436523

> <r_mmod_Bend_Energy-OPLS-2005>
227.542297363281

> <r_mmod_Torsional_Energy-OPLS-2005>
335.755920410156

> <r_mmod_Improper_Torsional_Energy-OPLS-2005>
7.54339694976807

> <r_mmod_Van_der_Waal_Energy-OPLS-2005>
135.461990356445

> <r_mmod_Electrostatic_Energy-OPLS-2005>
-318.145263671875

> <r_mmod_Solvation_Energy-OPLS-2005>
-242.133560180664

> <b_mmod_Minimization_Converged-OPLS-2005>
0

> <r_mmod_RMS_Derivative-OPLS-2005>
2.05760216712952

$$$$
8
                    3D
 Structure written by MMmdl.
162171  0  0  1  0            999 V2000
  -30.7411  -14.3413   20.6759 C   0  0  0  0  0  0
  -30.4184  -12.2670   19.3840 C   0  0  0  0  0  0
  -29.4835  -12.5251   18.1868 C   0  0  0  0  0  0
  -28.0042  -12.3896   18.5989 C   0  0  0  0  0  0
  -27.6676  -13.1920   19.8823 C   0  0  2  0  0  0
  -28.7024  -12.8952   20.9890 C   0  0  0  0  0  0
  -25.2597  -13.8149   20.5631 C   0  0  0  0  0  0
  -24.1832  -13.0452   20.9156 C   0  0  0  0  0  0
  -24.6360  -11.6912   20.8710 C   0  0  0  0  0  0
  -23.9025  -10.4302   21.0383 C   0  0  0  0  0  0
  -24.3589   -9.4221   21.9156 C   0  0  0  0  0  0
  -23.6269   -8.2262   22.0747 C   0  0  0  0  0  0
  -22.4243   -8.0288   21.3552 C   0  0  0  0  0  0
  -21.9867   -9.0253   20.4651 C   0  0  0  0  0  0
  -22.7195  -10.2128   20.3043 C   0  0  0  0  0  0
  -21.6859   -6.0710   22.5270 C   0  0  0  0  0  0
  -21.4022   -6.5622   23.8197 C   0  0  0  0  0  0
  -21.3656   -5.6775   24.9166 C   0  0  0  0  0  0
  -21.6048   -4.3037   24.7229 C   0  0  0  0  0  0
  -21.8828   -3.8125   23.4345 C   0  0  0  0  0  0
  -21.9200   -4.6931   22.3395 C   0  0  0  0  0  0
  -22.7863  -13.5263   21.1829 C   0  0  0  0  0  0
  -22.1667   -4.2119   21.0971 F   0  0  0  0  0  0
  -21.5623   -3.4526   25.7739 F   0  0  0  0  0  0
  -30.0496  -13.1932   20.4624 N   0  0  0  0  0  0
  -26.3027  -12.9284   20.3355 N   0  0  0  0  0  0
  -25.9275  -11.6460   20.5731 N   0  0  0  0  0  0
  -22.0500  -12.8268   22.0395 N   0  0  0  0  0  0
  -25.4360  -15.1856   20.3975 N   0  0  0  0  0  0
  -31.7795  -14.6384   20.0738 O   0  0  0  0  0  0
  -21.6647   -6.8858   21.4234 O   0  0  0  0  0  0
  -22.3554  -14.5570   20.6677 O   0  0  0  0  0  0
  -24.6118  -31.8700   23.2123 C   0  0  0  0  0  0
  -25.9027  -32.4827   23.8403 C   0  0  1  0  0  0
  -27.2317  -27.4694   20.0762 C   0  0  0  0  0  0
  -25.5882  -33.8624   24.2333 N   0  0  0  0  0  0
  -23.3958  -30.4964   21.5535 C   0  0  2  0  0  0
  -24.8358  -28.9647   20.1186 C   0  0  0  0  0  0
  -22.7385  -29.4670   22.4995 C   0  0  0  0  0  0
  -18.0271  -28.1372   22.8478 C   0  0  0  0  0  0
  -24.1473  -36.7314   23.2637 C   0  0  0  0  0  0
  -25.9239  -30.8427   21.3630 C   0  0  0  0  0  0
  -25.9962  -29.4830   20.7056 C   0  0  0  0  0  0
  -27.1951  -28.7434   20.6785 C   0  0  0  0  0  0
  -26.0454  -26.9456   19.5085 C   0  0  0  0  0  0
  -24.8529  -27.6921   19.5226 C   0  0  0  0  0  0
  -23.5995  -29.8314   20.1673 C   0  0  0  0  0  0
  -25.4092  -36.3107   24.0335 C   0  0  1  0  0  0
  -20.5857  -28.3649   23.1312 C   0  0  2  0  0  0
  -20.6764  -26.9380   22.5419 C   0  0  0  0  0  0
  -19.5753  -26.6374   21.5204 C   0  0  0  0  0  0
  -18.1923  -26.7926   22.1599 C   0  0  0  0  0  0
  -19.1518  -28.8826   23.2901 C   0  0  0  0  0  0
  -18.9451  -30.1428   23.8920 C   0  0  0  0  0  0
  -17.6452  -30.6578   24.0569 C   0  0  0  0  0  0
  -25.9015  -34.9475   23.5134 C   0  0  0  0  0  0
  -16.5342  -29.9081   23.6319 C   0  0  0  0  0  0
  -16.7258  -28.6500   23.0336 C   0  0  0  0  0  0
  -26.4455  -31.6617   25.0739 C   0  0  0  0  0  0
  -25.3732  -31.3760   26.1511 C   0  0  0  0  0  0
  -27.0272  -30.3049   24.6136 C   0  0  0  0  0  0
  -27.6053  -32.4331   25.7466 C   0  0  0  0  0  0
  -27.5573  -37.1799   24.8447 C   0  0  0  0  0  0
  -21.4121  -29.3020   22.3721 N   0  0  0  0  0  0
  -26.4276  -37.3791   23.9402 N   0  0  0  0  0  0
  -24.6615  -31.0845   22.1002 N   0  0  0  0  0  0
  -23.4180  -28.8205   23.3021 O   0  0  0  0  0  0
  -28.4403  -26.8133   20.0501 O   0  0  0  0  0  0
  -26.5587  -34.8923   22.4694 O   0  0  0  0  0  0
  -23.5322  -32.1433   23.7553 O   0  0  0  0  0  0
  -29.0505  -18.5007   20.6331 C   0  0  0  0  0  0
  -29.0960  -17.1131   20.8270 C   0  0  0  0  0  0
  -31.1643  -18.7327   21.8223 C   0  0  0  0  0  0
  -31.2140  -17.3375   22.0251 C   0  0  0  0  0  0
  -30.0850  -19.3332   21.1207 C   0  0  0  0  0  0
  -30.1870  -16.5266   21.4942 C   0  0  0  0  0  0
  -30.3787  -21.6624   21.8017 C   0  0  0  0  0  0
  -29.6466  -22.6123   19.1245 C   0  0  0  0  0  0
  -30.4117  -23.1468   21.4214 C   0  0  0  0  0  0
  -29.5359  -21.1442   19.5318 C   0  0  0  0  0  0
  -32.3735  -16.7245   22.7930 C   0  0  0  0  0  0
  -29.9122  -24.9497   19.8014 C   0  0  0  0  0  0
  -28.4480  -25.4178   19.7977 C   0  0  0  0  0  0
  -30.0408  -20.7442   20.8610 N   0  0  0  0  0  0
  -29.9985  -23.5107   20.0632 N   0  0  0  0  0  0
  -30.2116  -15.1266   21.6200 N   0  0  0  0  0  0
  -30.6455  -21.3758   22.9733 O   0  0  0  0  0  0
  -29.3737  -22.9290   17.9634 O   0  0  0  0  0  0
  -31.4607  -12.3712   19.0782 H   0  0  0  0  0  0
  -30.3153  -11.2378   19.7317 H   0  0  0  0  0  0
  -29.7066  -11.8287   17.3767 H   0  0  0  0  0  0
  -29.6648  -13.5257   17.7900 H   0  0  0  0  0  0
  -27.7939  -11.3309   18.7554 H   0  0  0  0  0  0
  -27.3597  -12.7091   17.7792 H   0  0  0  0  0  0
  -27.7377  -14.2496   19.6313 H   0  0  0  0  0  0
  -28.6575  -11.8407   21.2647 H   0  0  0  0  0  0
  -28.4477  -13.4325   21.9018 H   0  0  0  0  0  0
  -25.2731   -9.5709   22.4725 H   0  0  0  0  0  0
  -23.9990   -7.4654   22.7453 H   0  0  0  0  0  0
  -21.0798   -8.8764   19.8948 H   0  0  0  0  0  0
  -22.3645  -10.9663   19.6153 H   0  0  0  0  0  0
  -21.2022   -7.6130   23.9694 H   0  0  0  0  0  0
  -21.1457   -6.0503   25.9061 H   0  0  0  0  0  0
  -22.0606   -2.7583   23.2866 H   0  0  0  0  0  0
  -22.4100  -11.9931   22.4802 H   0  0  0  0  0  0
  -21.1121  -13.1311   22.2589 H   0  0  0  0  0  0
  -24.6762  -15.8495   20.4945 H   0  0  0  0  0  0
  -26.2831  -15.6053   20.0372 H   0  0  0  0  0  0
  -26.7106  -32.5531   23.1173 H   0  0  0  0  0  0
  -25.0040  -33.9784   25.0482 H   0  0  0  0  0  0
  -22.6833  -31.3127   21.4185 H   0  0  0  0  0  0
  -23.3725  -35.9658   23.3321 H   0  0  0  0  0  0
  -24.3583  -36.8907   22.2050 H   0  0  0  0  0  0
  -23.7243  -37.6529   23.6646 H   0  0  0  0  0  0
  -26.0506  -31.6128   20.6011 H   0  0  0  0  0  0
  -26.8076  -30.8803   21.9881 H   0  0  0  0  0  0
  -28.0972  -29.1492   21.1154 H   0  0  0  0  0  0
  -26.0177  -25.9751   19.0365 H   0  0  0  0  0  0
  -23.9562  -27.2835   19.0762 H   0  0  0  0  0  0
  -23.7102  -30.6077   19.4090 H   0  0  0  0  0  0
  -22.7218  -29.2541   19.8708 H   0  0  0  0  0  0
  -25.1273  -36.1974   25.0831 H   0  0  0  0  0  0
  -20.9956  -28.3224   24.1427 H   0  0  0  0  0  0
  -20.5643  -26.2251   23.3604 H   0  0  0  0  0  0
  -21.6644  -26.7411   22.1229 H   0  0  0  0  0  0
  -19.6912  -25.6286   21.1232 H   0  0  0  0  0  0
  -19.6708  -27.3181   20.6733 H   0  0  0  0  0  0
  -17.4195  -26.6663   21.3997 H   0  0  0  0  0  0
  -18.0309  -26.0062   22.8985 H   0  0  0  0  0  0
  -19.7927  -30.7240   24.2299 H   0  0  0  0  0  0
  -17.5008  -31.6261   24.5163 H   0  0  0  0  0  0
  -15.5345  -30.2995   23.7635 H   0  0  0  0  0  0
  -15.8654  -28.0834   22.7036 H   0  0  0  0  0  0
  -24.5837  -30.7178   25.7869 H   0  0  0  0  0  0
  -24.9007  -32.2938   26.5019 H   0  0  0  0  0  0
  -25.8075  -30.8873   27.0240 H   0  0  0  0  0  0
  -26.2808  -29.6814   24.1195 H   0  0  0  0  0  0
  -27.4030  -29.7299   25.4614 H   0  0  0  0  0  0
  -27.8660  -30.4366   23.9294 H   0  0  0  0  0  0
  -27.2694  -33.3625   26.2084 H   0  0  0  0  0  0
  -28.3815  -32.6904   25.0243 H   0  0  0  0  0  0
  -28.0770  -31.8435   26.5340 H   0  0  0  0  0  0
  -28.2596  -38.0090   24.7502 H   0  0  0  0  0  0
  -28.1063  -36.2633   24.6249 H   0  0  0  0  0  0
  -27.2310  -37.1435   25.8853 H   0  0  0  0  0  0
  -20.9260  -29.8744   21.6956 H   0  0  0  0  0  0
  -26.0171  -38.2863   24.1418 H   0  0  0  0  0  0
  -28.2003  -18.9042   20.1040 H   0  0  0  0  0  0
  -28.2977  -16.5014   20.4344 H   0  0  0  0  0  0
  -31.9748  -19.3385   22.2025 H   0  0  0  0  0  0
  -31.4355  -23.4930   21.5631 H   0  0  0  0  0  0
  -29.7962  -23.6898   22.1396 H   0  0  0  0  0  0
  -30.0024  -20.5309   18.7600 H   0  0  0  0  0  0
  -28.4667  -20.9407   19.4971 H   0  0  0  0  0  0
  -32.8966  -17.4686   23.3944 H   0  0  0  0  0  0
  -33.0880  -16.2809   22.1004 H   0  0  0  0  0  0
  -32.0242  -15.9424   23.4692 H   0  0  0  0  0  0
  -30.4685  -25.4906   20.5686 H   0  0  0  0  0  0
  -30.3915  -25.2017   18.8538 H   0  0  0  0  0  0
  -27.8768  -24.9134   20.5807 H   0  0  0  0  0  0
  -27.9967  -25.1746   18.8357 H   0  0  0  0  0  0
  -29.4050  -14.7131   22.0614 H   0  0  0  0  0  0
  1 25  1  0  0  0
  1 30  2  0  0  0
  1 86  1  0  0  0
  2  3  1  0  0  0
  2 25  1  0  0  0
  2 89  1  0  0  0
  2 90  1  0  0  0
  3  4  1  0  0  0
  3 91  1  0  0  0
  3 92  1  0  0  0
  4  5  1  0  0  0
  4 93  1  0  0  0
  4 94  1  0  0  0
  5  6  1  0  0  0
  5 26  1  0  0  0
  5 95  1  0  0  0
  6 25  1  0  0  0
  6 96  1  0  0  0
  6 97  1  0  0  0
  7  8  2  0  0  0
  7 26  1  0  0  0
  7 29  1  0  0  0
  8  9  1  0  0  0
  8 22  1  0  0  0
  9 10  1  0  0  0
  9 27  2  0  0  0
 10 11  2  0  0  0
 10 15  1  0  0  0
 11 12  1  0  0  0
 11 98  1  0  0  0
 12 13  2  0  0  0
 12 99  1  0  0  0
 13 14  1  0  0  0
 13 31  1  0  0  0
 14 15  2  0  0  0
 14100  1  0  0  0
 15101  1  0  0  0
 16 17  2  0  0  0
 16 21  1  0  0  0
 16 31  1  0  0  0
 17 18  1  0  0  0
 17102  1  0  0  0
 18 19  2  0  0  0
 18103  1  0  0  0
 19 20  1  0  0  0
 19 24  1  0  0  0
 20 21  2  0  0  0
 20104  1  0  0  0
 21 23  1  0  0  0
 22 28  1  0  0  0
 22 32  2  0  0  0
 26 27  1  0  0  0
 28105  1  0  0  0
 28106  1  0  0  0
 29107  1  0  0  0
 29108  1  0  0  0
 33 34  1  0  0  0
 33 66  1  0  0  0
 33 70  2  0  0  0
 34 36  1  0  0  0
 34 59  1  0  0  0
 34109  1  0  0  0
 35 44  2  0  0  0
 35 45  1  0  0  0
 35 68  1  0  0  0
 36 56  1  0  0  0
 36110  1  0  0  0
 37 39  1  0  0  0
 37 47  1  0  0  0
 37 66  1  0  0  0
 37111  1  0  0  0
 38 43  2  0  0  0
 38 46  1  0  0  0
 38 47  1  0  0  0
 39 64  1  0  0  0
 39 67  2  0  0  0
 40 52  1  0  0  0
 40 53  2  0  0  0
 40 58  1  0  0  0
 41112  1  0  0  0
 41113  1  0  0  0
 41114  1  0  0  0
 41 48  1  0  0  0
 42 43  1  0  0  0
 42 66  1  0  0  0
 42115  1  0  0  0
 42116  1  0  0  0
 43 44  1  0  0  0
 44117  1  0  0  0
 45 46  2  0  0  0
 45118  1  0  0  0
 46119  1  0  0  0
 47120  1  0  0  0
 47121  1  0  0  0
 48 56  1  0  0  0
 48 65  1  0  0  0
 48122  1  0  0  0
 49 50  1  0  0  0
 49 53  1  0  0  0
 49 64  1  0  0  0
 49123  1  0  0  0
 50 51  1  0  0  0
 50124  1  0  0  0
 50125  1  0  0  0
 51 52  1  0  0  0
 51126  1  0  0  0
 51127  1  0  0  0
 52128  1  0  0  0
 52129  1  0  0  0
 53 54  1  0  0  0
 54 55  2  0  0  0
 54130  1  0  0  0
 55 57  1  0  0  0
 55131  1  0  0  0
 56 69  2  0  0  0
 57 58  2  0  0  0
 57132  1  0  0  0
 58133  1  0  0  0
 59 60  1  0  0  0
 59 61  1  0  0  0
 59 62  1  0  0  0
 60134  1  0  0  0
 60135  1  0  0  0
 60136  1  0  0  0
 61137  1  0  0  0
 61138  1  0  0  0
 61139  1  0  0  0
 62140  1  0  0  0
 62141  1  0  0  0
 62142  1  0  0  0
 63 65  1  0  0  0
 63143  1  0  0  0
 63144  1  0  0  0
 63145  1  0  0  0
 64146  1  0  0  0
 65147  1  0  0  0
 68 83  1  0  0  0
 71 72  2  0  0  0
 71 75  1  0  0  0
 71148  1  0  0  0
 72 76  1  0  0  0
 72149  1  0  0  0
 73 74  1  0  0  0
 73 75  2  0  0  0
 73150  1  0  0  0
 74 76  2  0  0  0
 74 81  1  0  0  0
 75 84  1  0  0  0
 76 86  1  0  0  0
 77 79  1  0  0  0
 77 84  1  0  0  0
 77 87  2  0  0  0
 78 80  1  0  0  0
 78 85  1  0  0  0
 78 88  2  0  0  0
 79 85  1  0  0  0
 79151  1  0  0  0
 79152  1  0  0  0
 80 84  1  0  0  0
 80153  1  0  0  0
 80154  1  0  0  0
 81155  1  0  0  0
 81156  1  0  0  0
 81157  1  0  0  0
 82 83  1  0  0  0
 82 85  1  0  0  0
 82158  1  0  0  0
 82159  1  0  0  0
 83160  1  0  0  0
 83161  1  0  0  0
 86162  1  0  0  0
M  ISO  4   1 100  68 101  83 101  86 100
M  END
> <chiral flag>
0

> <version>
0

> <s_m_source_file>
/data/baiqing/PycharmProjects/Reinvent-master-3.2/result/LINK_invent/BTK/process_docking_weight1_custom_product_contain_oxygen_bond_distance_aromatic_linkinvent_7_9_3/rearranged_h_0065.sdf

> <i_m_source_file_index>
9

> <r_mmod_Potential_Energy-OPLS-2005>
-82.2870025634766

> <r_mmod_Stretch_Energy-OPLS-2005>
35.5230407714844

> <r_mmod_Bend_Energy-OPLS-2005>
105.941787719727

> <r_mmod_Torsional_Energy-OPLS-2005>
260.223083496094

> <r_mmod_Improper_Torsional_Energy-OPLS-2005>
5.20417881011963

> <r_mmod_Van_der_Waal_Energy-OPLS-2005>
186.217376708984

> <r_mmod_Electrostatic_Energy-OPLS-2005>
-433.410278320312

> <r_mmod_Solvation_Energy-OPLS-2005>
-250.379989624023

> <b_mmod_Minimization_Converged-OPLS-2005>
0

> <r_mmod_RMS_Derivative-OPLS-2005>
2.4179425239563

$$$$
9
                    3D
 Structure written by MMmdl.
161170  0  0  1  0            999 V2000
  -30.5348  -15.0896   20.4024 C   0  0  0  0  0  0
  -30.4399  -12.6900   19.5160 C   0  0  0  0  0  0
  -29.5254  -12.5419   18.2755 C   0  0  0  0  0  0
  -28.0741  -12.2842   18.7134 C   0  0  0  0  0  0
  -27.6228  -13.2584   19.8294 C   0  0  2  0  0  0
  -28.6605  -13.3838   20.9676 C   0  0  0  0  0  0
  -25.2452  -13.8230   20.5728 C   0  0  0  0  0  0
  -24.1780  -13.0438   20.9241 C   0  0  0  0  0  0
  -24.6411  -11.6924   20.8779 C   0  0  0  0  0  0
  -23.9100  -10.4296   21.0421 C   0  0  0  0  0  0
  -24.3644   -9.4209   21.9199 C   0  0  0  0  0  0
  -23.6313   -8.2250   22.0762 C   0  0  0  0  0  0
  -22.4292   -8.0296   21.3551 C   0  0  0  0  0  0
  -21.9940   -9.0267   20.4651 C   0  0  0  0  0  0
  -22.7278  -10.2141   20.3066 C   0  0  0  0  0  0
  -21.6850   -6.0748   22.5280 C   0  0  0  0  0  0
  -21.4011   -6.5650   23.8214 C   0  0  0  0  0  0
  -21.3651   -5.6805   24.9179 C   0  0  0  0  0  0
  -21.6032   -4.3065   24.7219 C   0  0  0  0  0  0
  -21.8822   -3.8160   23.4344 C   0  0  0  0  0  0
  -21.9194   -4.6983   22.3408 C   0  0  0  0  0  0
  -22.7801  -13.5211   21.1882 C   0  0  0  0  0  0
  -22.1661   -4.2167   21.0987 F   0  0  0  0  0  0
  -21.5622   -3.4553   25.7724 F   0  0  0  0  0  0
  -29.9228  -13.8224   20.3554 N   0  0  0  0  0  0
  -26.2875  -12.9473   20.3260 N   0  0  0  0  0  0
  -25.9345  -11.6597   20.5756 N   0  0  0  0  0  0
  -22.0453  -12.8201   22.0429 N   0  0  0  0  0  0
  -25.4150  -15.1956   20.4111 N   0  0  0  0  0  0
  -31.7466  -15.0732   20.1555 O   0  0  0  0  0  0
  -21.6648   -6.8894   21.4240 O   0  0  0  0  0  0
  -22.3489  -14.5519   20.6731 O   0  0  0  0  0  0
  -24.6465  -31.8381   23.1780 C   0  0  0  0  0  0
  -25.9217  -32.4682   23.8189 C   0  0  1  0  0  0
  -27.2251  -27.0593   20.1760 C   0  0  0  0  0  0
  -25.5964  -33.8479   24.2119 N   0  0  0  0  0  0
  -23.4557  -30.4519   21.5263 C   0  0  2  0  0  0
  -24.9086  -28.8624   20.1101 C   0  0  0  0  0  0
  -22.7605  -29.4503   22.4842 C   0  0  0  0  0  0
  -18.0316  -28.1391   22.8523 C   0  0  0  0  0  0
  -24.1494  -36.7218   23.2648 C   0  0  0  0  0  0
  -26.0169  -30.6887   21.3889 C   0  0  0  0  0  0
  -26.0867  -29.2909   20.7338 C   0  0  0  0  0  0
  -27.2399  -28.4083   20.7446 C   0  0  0  0  0  0
  -26.0157  -26.7476   19.5140 C   0  0  0  0  0  0
  -24.8910  -27.6048   19.4839 C   0  0  0  0  0  0
  -23.6877  -29.7735   20.1485 C   0  0  0  0  0  0
  -25.4132  -36.3006   24.0313 C   0  0  1  0  0  0
  -20.5945  -28.3713   23.1252 C   0  0  2  0  0  0
  -20.6806  -26.9410   22.5432 C   0  0  0  0  0  0
  -19.5768  -26.6368   21.5261 C   0  0  0  0  0  0
  -18.1934  -26.7942   22.1631 C   0  0  0  0  0  0
  -19.1583  -28.8870   23.2877 C   0  0  0  0  0  0
  -18.9494  -30.1481   23.8881 C   0  0  0  0  0  0
  -17.6484  -30.6587   24.0570 C   0  0  0  0  0  0
  -25.9094  -34.9399   23.5019 C   0  0  0  0  0  0
  -16.5374  -29.9082   23.6343 C   0  0  0  0  0  0
  -16.7297  -28.6496   23.0374 C   0  0  0  0  0  0
  -26.4516  -31.6556   25.0643 C   0  0  0  0  0  0
  -25.3672  -31.3789   26.1318 C   0  0  0  0  0  0
  -27.0408  -30.2953   24.6262 C   0  0  0  0  0  0
  -27.6040  -32.4340   25.7401 C   0  0  0  0  0  0
  -27.5574  -37.1755   24.8464 C   0  0  0  0  0  0
  -21.4286  -29.3041   22.3608 N   0  0  0  0  0  0
  -26.4273  -37.3745   23.9432 N   0  0  0  0  0  0
  -24.7270  -31.0169   22.0851 N   0  0  0  0  0  0
  -23.4230  -28.8079   23.3010 O   0  0  0  0  0  0
  -28.2801  -26.0500   20.2664 O   0  0  0  0  0  0
  -26.5696  -34.8923   22.4604 O   0  0  0  0  0  0
  -23.5565  -32.1272   23.6978 O   0  0  0  0  0  0
  -29.3306  -19.1524   20.4911 C   0  0  0  0  0  0
  -31.5077  -18.1769   20.1181 C   0  0  0  0  0  0
  -31.1991  -20.6578   20.1054 C   0  0  0  0  0  0
  -29.7807  -20.6026   20.3372 C   0  0  0  0  0  0
  -30.1611  -17.8793   20.3922 C   0  0  0  0  0  0
  -31.9992  -19.4877   19.9832 C   0  0  0  0  0  0
  -27.4493  -23.6094   21.1142 C   0  0  0  0  0  0
  -27.8972  -22.3032   21.2095 C   0  0  0  0  0  0
  -25.2162  -23.6261   22.2048 C   0  0  0  0  0  0
  -26.4157  -24.1809   21.9645 C   0  0  0  0  0  0
  -29.3369  -23.3419   19.8525 C   0  0  0  0  0  0
  -28.1434  -24.4689   20.0468 C   0  0  2  0  0  0
  -31.9742  -21.9725   20.0569 C   0  0  0  0  0  0
  -27.3887  -21.2784   22.2121 C   0  0  0  0  0  0
  -28.9969  -21.9253   20.4091 N   0  0  0  0  0  0
  -29.8027  -16.3447   20.5268 N   0  0  0  0  0  0
  -33.3277  -19.6107   19.7363 F   0  0  0  0  0  0
  -31.4662  -12.8602   19.1881 H   0  0  0  0  0  0
  -30.4703  -11.7646   20.0924 H   0  0  0  0  0  0
  -29.8773  -11.7268   17.6421 H   0  0  0  0  0  0
  -29.5727  -13.4489   17.6700 H   0  0  0  0  0  0
  -28.0260  -11.2593   19.0859 H   0  0  0  0  0  0
  -27.3965  -12.3303   17.8594 H   0  0  0  0  0  0
  -27.5586  -14.2352   19.3477 H   0  0  0  0  0  0
  -28.7813  -12.4434   21.5065 H   0  0  0  0  0  0
  -28.3291  -14.1194   21.7017 H   0  0  0  0  0  0
  -25.2787   -9.5681   22.4784 H   0  0  0  0  0  0
  -24.0009   -7.4631   22.7488 H   0  0  0  0  0  0
  -21.0875   -8.8803   19.8949 H   0  0  0  0  0  0
  -22.3756  -10.9687   19.6185 H   0  0  0  0  0  0
  -21.2001   -7.6153   23.9722 H   0  0  0  0  0  0
  -21.1455   -6.0532   25.9077 H   0  0  0  0  0  0
  -22.0601   -2.7622   23.2838 H   0  0  0  0  0  0
  -22.4050  -11.9853   22.4801 H   0  0  0  0  0  0
  -21.1066  -13.1220   22.2621 H   0  0  0  0  0  0
  -24.6501  -15.8535   20.5172 H   0  0  0  0  0  0
  -26.2596  -15.6253   20.0547 H   0  0  0  0  0  0
  -26.7263  -32.5257   23.0900 H   0  0  0  0  0  0
  -25.0151  -33.9587   25.0297 H   0  0  0  0  0  0
  -22.7618  -31.2786   21.3641 H   0  0  0  0  0  0
  -23.3795  -35.9506   23.3276 H   0  0  0  0  0  0
  -24.3598  -36.8880   22.2072 H   0  0  0  0  0  0
  -23.7194  -37.6377   23.6714 H   0  0  0  0  0  0
  -26.1854  -31.4392   20.6154 H   0  0  0  0  0  0
  -26.8820  -30.7394   22.0371 H   0  0  0  0  0  0
  -28.1338  -28.7371   21.2555 H   0  0  0  0  0  0
  -25.8999  -25.7849   19.0418 H   0  0  0  0  0  0
  -23.9889  -27.2674   18.9908 H   0  0  0  0  0  0
  -23.8297  -30.5452   19.3907 H   0  0  0  0  0  0
  -22.8006  -29.2209   19.8346 H   0  0  0  0  0  0
  -25.1324  -36.1791   25.0802 H   0  0  0  0  0  0
  -21.0058  -28.3283   24.1368 H   0  0  0  0  0  0
  -20.5723  -26.2324   23.3656 H   0  0  0  0  0  0
  -21.6657  -26.7399   22.1204 H   0  0  0  0  0  0
  -19.6920  -25.6283   21.1275 H   0  0  0  0  0  0
  -19.6695  -27.3204   20.6817 H   0  0  0  0  0  0
  -17.4232  -26.6788   21.3990 H   0  0  0  0  0  0
  -18.0242  -26.0051   22.8974 H   0  0  0  0  0  0
  -19.7968  -30.7330   24.2203 H   0  0  0  0  0  0
  -17.5029  -31.6267   24.5185 H   0  0  0  0  0  0
  -15.5378  -30.2976   23.7690 H   0  0  0  0  0  0
  -15.8702  -28.0808   22.7090 H   0  0  0  0  0  0
  -24.5890  -30.7088   25.7644 H   0  0  0  0  0  0
  -24.8813  -32.2994   26.4566 H   0  0  0  0  0  0
  -25.7929  -30.9078   27.0187 H   0  0  0  0  0  0
  -26.3030  -29.6658   24.1275 H   0  0  0  0  0  0
  -27.4053  -29.7254   25.4819 H   0  0  0  0  0  0
  -27.8929  -30.4212   23.9580 H   0  0  0  0  0  0
  -27.2632  -33.3707   26.1817 H   0  0  0  0  0  0
  -28.3917  -32.6787   25.0262 H   0  0  0  0  0  0
  -28.0635  -31.8554   26.5422 H   0  0  0  0  0  0
  -28.2561  -38.0083   24.7564 H   0  0  0  0  0  0
  -28.1088  -36.2617   24.6207 H   0  0  0  0  0  0
  -27.2313  -37.1296   25.8869 H   0  0  0  0  0  0
  -20.9484  -29.8732   21.6788 H   0  0  0  0  0  0
  -26.0114  -38.2785   24.1492 H   0  0  0  0  0  0
  -28.2796  -19.0108   20.6957 H   0  0  0  0  0  0
  -32.2364  -17.3891   20.0135 H   0  0  0  0  0  0
  -24.5095  -24.1114   22.8629 H   0  0  0  0  0  0
  -24.9215  -22.6876   21.7572 H   0  0  0  0  0  0
  -26.6396  -25.1228   22.4476 H   0  0  0  0  0  0
  -30.1757  -23.7419   20.4164 H   0  0  0  0  0  0
  -29.6488  -23.2915   18.8092 H   0  0  0  0  0  0
  -27.5273  -24.3655   19.1548 H   0  0  0  0  0  0
  -31.8024  -22.5358   20.9742 H   0  0  0  0  0  0
  -31.7068  -22.5654   19.1848 H   0  0  0  0  0  0
  -33.0538  -21.8401   19.9987 H   0  0  0  0  0  0
  -26.9909  -21.7616   23.1044 H   0  0  0  0  0  0
  -28.1774  -20.6112   22.5577 H   0  0  0  0  0  0
  -26.5923  -20.6773   21.7715 H   0  0  0  0  0  0
  -28.8254  -16.1811   20.7173 H   0  0  0  0  0  0
  1 25  1  0  0  0
  1 30  2  0  0  0
  1 86  1  0  0  0
  2  3  1  0  0  0
  2 25  1  0  0  0
  2 88  1  0  0  0
  2 89  1  0  0  0
  3  4  1  0  0  0
  3 90  1  0  0  0
  3 91  1  0  0  0
  4  5  1  0  0  0
  4 92  1  0  0  0
  4 93  1  0  0  0
  5  6  1  0  0  0
  5 26  1  0  0  0
  5 94  1  0  0  0
  6 25  1  0  0  0
  6 95  1  0  0  0
  6 96  1  0  0  0
  7  8  2  0  0  0
  7 26  1  0  0  0
  7 29  1  0  0  0
  8  9  1  0  0  0
  8 22  1  0  0  0
  9 10  1  0  0  0
  9 27  2  0  0  0
 10 11  2  0  0  0
 10 15  1  0  0  0
 11 12  1  0  0  0
 11 97  1  0  0  0
 12 13  2  0  0  0
 12 98  1  0  0  0
 13 14  1  0  0  0
 13 31  1  0  0  0
 14 15  2  0  0  0
 14 99  1  0  0  0
 15100  1  0  0  0
 16 17  2  0  0  0
 16 21  1  0  0  0
 16 31  1  0  0  0
 17 18  1  0  0  0
 17101  1  0  0  0
 18 19  2  0  0  0
 18102  1  0  0  0
 19 20  1  0  0  0
 19 24  1  0  0  0
 20 21  2  0  0  0
 20103  1  0  0  0
 21 23  1  0  0  0
 22 28  1  0  0  0
 22 32  2  0  0  0
 26 27  1  0  0  0
 28104  1  0  0  0
 28105  1  0  0  0
 29106  1  0  0  0
 29107  1  0  0  0
 33 34  1  0  0  0
 33 66  1  0  0  0
 33 70  2  0  0  0
 34 36  1  0  0  0
 34 59  1  0  0  0
 34108  1  0  0  0
 35 44  2  0  0  0
 35 45  1  0  0  0
 35 68  1  0  0  0
 36 56  1  0  0  0
 36109  1  0  0  0
 37 39  1  0  0  0
 37 47  1  0  0  0
 37 66  1  0  0  0
 37110  1  0  0  0
 38 43  2  0  0  0
 38 46  1  0  0  0
 38 47  1  0  0  0
 39 64  1  0  0  0
 39 67  2  0  0  0
 40 52  1  0  0  0
 40 53  2  0  0  0
 40 58  1  0  0  0
 41111  1  0  0  0
 41112  1  0  0  0
 41113  1  0  0  0
 41 48  1  0  0  0
 42 43  1  0  0  0
 42 66  1  0  0  0
 42114  1  0  0  0
 42115  1  0  0  0
 43 44  1  0  0  0
 44116  1  0  0  0
 45 46  2  0  0  0
 45117  1  0  0  0
 46118  1  0  0  0
 47119  1  0  0  0
 47120  1  0  0  0
 48 56  1  0  0  0
 48 65  1  0  0  0
 48121  1  0  0  0
 49 50  1  0  0  0
 49 53  1  0  0  0
 49 64  1  0  0  0
 49122  1  0  0  0
 50 51  1  0  0  0
 50123  1  0  0  0
 50124  1  0  0  0
 51 52  1  0  0  0
 51125  1  0  0  0
 51126  1  0  0  0
 52127  1  0  0  0
 52128  1  0  0  0
 53 54  1  0  0  0
 54 55  2  0  0  0
 54129  1  0  0  0
 55 57  1  0  0  0
 55130  1  0  0  0
 56 69  2  0  0  0
 57 58  2  0  0  0
 57131  1  0  0  0
 58132  1  0  0  0
 59 60  1  0  0  0
 59 61  1  0  0  0
 59 62  1  0  0  0
 60133  1  0  0  0
 60134  1  0  0  0
 60135  1  0  0  0
 61136  1  0  0  0
 61137  1  0  0  0
 61138  1  0  0  0
 62139  1  0  0  0
 62140  1  0  0  0
 62141  1  0  0  0
 63 65  1  0  0  0
 63142  1  0  0  0
 63143  1  0  0  0
 63144  1  0  0  0
 64145  1  0  0  0
 65146  1  0  0  0
 68 82  1  0  0  0
 71 74  2  0  0  0
 71 75  1  0  0  0
 71147  1  0  0  0
 72 75  2  0  0  0
 72 76  1  0  0  0
 72148  1  0  0  0
 73 74  1  0  0  0
 73 76  2  0  0  0
 73 83  1  0  0  0
 74 85  1  0  0  0
 75 86  1  0  0  0
 76 87  1  0  0  0
 77 78  2  0  0  0
 77 80  1  0  0  0
 77 82  1  0  0  0
 78 84  1  0  0  0
 78 85  1  0  0  0
 79 80  2  0  0  0
 79149  1  0  0  0
 79150  1  0  0  0
 80151  1  0  0  0
 81 82  1  0  0  0
 81 85  1  0  0  0
 81152  1  0  0  0
 81153  1  0  0  0
 82154  1  0  0  0
 83155  1  0  0  0
 83156  1  0  0  0
 83157  1  0  0  0
 84158  1  0  0  0
 84159  1  0  0  0
 84160  1  0  0  0
 86161  1  0  0  0
M  ISO  4   1 100  68 101  82 101  86 100
M  END
> <chiral flag>
0

> <version>
0

> <s_m_source_file>
/data/baiqing/PycharmProjects/Reinvent-master-3.2/result/LINK_invent/BTK/process_docking_weight1_custom_product_contain_oxygen_bond_distance_aromatic_linkinvent_7_9_3/rearranged_h_0065.sdf

> <i_m_source_file_index>
10

> <r_mmod_Potential_Energy-OPLS-2005>
857.380981445312

> <r_mmod_Stretch_Energy-OPLS-2005>
360.736602783203

> <r_mmod_Bend_Energy-OPLS-2005>
389.939758300781

> <r_mmod_Torsional_Energy-OPLS-2005>
221.513198852539

> <r_mmod_Improper_Torsional_Energy-OPLS-2005>
4.52110481262207

> <r_mmod_Van_der_Waal_Energy-OPLS-2005>
145.402877807617

> <r_mmod_Electrostatic_Energy-OPLS-2005>
-348.145782470703

> <r_mmod_Solvation_Energy-OPLS-2005>
-200.697463989258

> <b_mmod_Minimization_Converged-OPLS-2005>
0

> <r_mmod_RMS_Derivative-OPLS-2005>
3.36948871612549

$$$$
10
                    3D
 Structure written by MMmdl.
156164  0  0  1  0            999 V2000
  -30.6872  -14.4453   20.6428 C   0  0  0  0  0  0
  -30.4347  -12.3192   19.4024 C   0  0  0  0  0  0
  -29.4948  -12.5427   18.1974 C   0  0  0  0  0  0
  -28.0149  -12.3915   18.6074 C   0  0  0  0  0  0
  -27.6673  -13.2017   19.8834 C   0  0  2  0  0  0
  -28.7056  -12.9241   20.9924 C   0  0  0  0  0  0
  -25.2603  -13.8157   20.5673 C   0  0  0  0  0  0
  -24.1839  -13.0443   20.9163 C   0  0  0  0  0  0
  -24.6385  -11.6906   20.8721 C   0  0  0  0  0  0
  -23.9055  -10.4295   21.0406 C   0  0  0  0  0  0
  -24.3613   -9.4217   21.9183 C   0  0  0  0  0  0
  -23.6289   -8.2249   22.0754 C   0  0  0  0  0  0
  -22.4270   -8.0283   21.3540 C   0  0  0  0  0  0
  -21.9903   -9.0259   20.4647 C   0  0  0  0  0  0
  -22.7230  -10.2138   20.3059 C   0  0  0  0  0  0
  -21.6859   -6.0741   22.5283 C   0  0  0  0  0  0
  -21.4014   -6.5645   23.8217 C   0  0  0  0  0  0
  -21.3657   -5.6792   24.9175 C   0  0  0  0  0  0
  -21.6045   -4.3055   24.7222 C   0  0  0  0  0  0
  -21.8810   -3.8149   23.4339 C   0  0  0  0  0  0
  -21.9187   -4.6969   22.3400 C   0  0  0  0  0  0
  -22.7862  -13.5259   21.1813 C   0  0  0  0  0  0
  -22.1660   -4.2153   21.0977 F   0  0  0  0  0  0
  -21.5626   -3.4538   25.7733 F   0  0  0  0  0  0
  -30.0444  -13.2588   20.4629 N   0  0  0  0  0  0
  -26.3043  -12.9312   20.3382 N   0  0  0  0  0  0
  -25.9309  -11.6472   20.5735 N   0  0  0  0  0  0
  -22.0487  -12.8275   22.0384 N   0  0  0  0  0  0
  -25.4348  -15.1875   20.4110 N   0  0  0  0  0  0
  -31.7488  -14.7335   20.0797 O   0  0  0  0  0  0
  -21.6642   -6.8878   21.4239 O   0  0  0  0  0  0
  -22.3561  -14.5569   20.6653 O   0  0  0  0  0  0
  -24.6149  -31.8683   23.2097 C   0  0  0  0  0  0
  -25.9026  -32.4831   23.8405 C   0  0  1  0  0  0
  -27.2384  -27.4403   20.0998 C   0  0  0  0  0  0
  -25.5885  -33.8625   24.2353 N   0  0  0  0  0  0
  -23.4051  -30.4906   21.5481 C   0  0  2  0  0  0
  -24.8544  -28.9528   20.1169 C   0  0  0  0  0  0
  -22.7426  -29.4668   22.4974 C   0  0  0  0  0  0
  -18.0275  -28.1418   22.8502 C   0  0  0  0  0  0
  -24.1469  -36.7305   23.2640 C   0  0  0  0  0  0
  -25.9327  -30.8364   21.3613 C   0  0  0  0  0  0
  -26.0129  -29.4685   20.7132 C   0  0  0  0  0  0
  -27.2123  -28.7202   20.6994 C   0  0  0  0  0  0
  -26.0671  -26.9337   19.5039 C   0  0  0  0  0  0
  -24.8749  -27.6843   19.5096 C   0  0  0  0  0  0
  -23.6163  -29.8198   20.1632 C   0  0  0  0  0  0
  -25.4093  -36.3122   24.0353 C   0  0  1  0  0  0
  -20.5873  -28.3698   23.1317 C   0  0  2  0  0  0
  -20.6767  -26.9432   22.5420 C   0  0  0  0  0  0
  -19.5735  -26.6419   21.5228 C   0  0  0  0  0  0
  -18.1919  -26.7961   22.1640 C   0  0  0  0  0  0
  -19.1531  -28.8876   23.2910 C   0  0  0  0  0  0
  -18.9452  -30.1479   23.8928 C   0  0  0  0  0  0
  -17.6454  -30.6615   24.0587 C   0  0  0  0  0  0
  -25.9019  -34.9486   23.5155 C   0  0  0  0  0  0
  -16.5345  -29.9125   23.6334 C   0  0  0  0  0  0
  -16.7268  -28.6545   23.0353 C   0  0  0  0  0  0
  -26.4469  -31.6602   25.0724 C   0  0  0  0  0  0
  -25.3758  -31.3675   26.1491 C   0  0  0  0  0  0
  -27.0300  -30.3055   24.6075 C   0  0  0  0  0  0
  -27.6065  -32.4317   25.7468 C   0  0  0  0  0  0
  -27.5572  -37.1810   24.8480 C   0  0  0  0  0  0
  -21.4153  -29.3051   22.3715 N   0  0  0  0  0  0
  -26.4285  -37.3805   23.9427 N   0  0  0  0  0  0
  -24.6688  -31.0800   22.0982 N   0  0  0  0  0  0
  -23.4194  -28.8226   23.3038 O   0  0  0  0  0  0
  -28.3853  -26.6804   20.0758 O   0  0  0  0  0  0
  -26.5577  -34.8933   22.4712 O   0  0  0  0  0  0
  -23.5336  -32.1429   23.7487 O   0  0  0  0  0  0
  -30.6067  -17.6057   20.6881 C   0  0  0  0  0  0
  -29.4607  -17.2236   22.7905 C   0  0  0  0  0  0
  -29.9025  -19.5306   22.0668 C   0  0  0  0  0  0
  -30.0838  -16.6962   21.6417 C   0  0  0  0  0  0
  -30.5117  -19.0069   20.8947 C   0  0  0  0  0  0
  -29.3695  -18.6127   23.0043 C   0  0  0  0  0  0
  -29.8530  -20.9835   22.3650 C   0  0  0  0  0  0
  -28.8019  -24.2845   20.6560 C   0  0  0  0  0  0
  -29.1374  -23.3537   21.8485 C   0  0  0  0  0  0
  -28.4839  -25.7229   21.1401 C   0  0  0  0  0  0
  -30.2871  -21.4155   23.5548 N   0  0  0  0  0  0
  -30.0568  -15.2733   21.4956 N   0  0  0  0  0  0
  -29.3733  -21.9218   21.5114 N   0  3  0  0  0  0
  -31.0248  -19.8457   19.9609 F   0  0  0  0  0  0
  -28.7507  -19.0495   24.1299 F   0  0  0  0  0  0
  -31.4788  -12.4421   19.1057 H   0  0  0  0  0  0
  -30.3501  -11.2948   19.7676 H   0  0  0  0  0  0
  -29.7345  -11.8450   17.3943 H   0  0  0  0  0  0
  -29.6528  -13.5427   17.7894 H   0  0  0  0  0  0
  -27.8196  -11.3314   18.7744 H   0  0  0  0  0  0
  -27.3652  -12.6965   17.7857 H   0  0  0  0  0  0
  -27.7251  -14.2586   19.6221 H   0  0  0  0  0  0
  -28.6835  -11.8687   21.2690 H   0  0  0  0  0  0
  -28.4438  -13.4540   21.9085 H   0  0  0  0  0  0
  -25.2760   -9.5703   22.4754 H   0  0  0  0  0  0
  -24.0000   -7.4647   22.7484 H   0  0  0  0  0  0
  -21.0833   -8.8786   19.8961 H   0  0  0  0  0  0
  -22.3694  -10.9679   19.6168 H   0  0  0  0  0  0
  -21.2014   -7.6150   23.9722 H   0  0  0  0  0  0
  -21.1494   -6.0521   25.9080 H   0  0  0  0  0  0
  -22.0591   -2.7610   23.2833 H   0  0  0  0  0  0
  -22.4091  -11.9955   22.4823 H   0  0  0  0  0  0
  -21.1099  -13.1328   22.2561 H   0  0  0  0  0  0
  -24.6636  -15.8397   20.5069 H   0  0  0  0  0  0
  -26.2895  -15.6301   20.0982 H   0  0  0  0  0  0
  -26.7105  -32.5563   23.1179 H   0  0  0  0  0  0
  -25.0055  -33.9780   25.0515 H   0  0  0  0  0  0
  -22.6936  -31.3072   21.4068 H   0  0  0  0  0  0
  -23.3737  -35.9633   23.3331 H   0  0  0  0  0  0
  -24.3557  -36.8884   22.2047 H   0  0  0  0  0  0
  -23.7213  -37.6518   23.6624 H   0  0  0  0  0  0
  -26.0419  -31.5991   20.5890 H   0  0  0  0  0  0
  -26.8210  -30.8956   21.9787 H   0  0  0  0  0  0
  -28.1122  -29.1166   21.1489 H   0  0  0  0  0  0
  -26.0792  -25.9597   19.0363 H   0  0  0  0  0  0
  -23.9838  -27.2840   19.0473 H   0  0  0  0  0  0
  -23.7263  -30.5941   19.4030 H   0  0  0  0  0  0
  -22.7416  -29.2383   19.8658 H   0  0  0  0  0  0
  -25.1263  -36.1998   25.0846 H   0  0  0  0  0  0
  -20.9970  -28.3276   24.1437 H   0  0  0  0  0  0
  -20.5702  -26.2309   23.3617 H   0  0  0  0  0  0
  -21.6633  -26.7493   22.1194 H   0  0  0  0  0  0
  -19.6885  -25.6340   21.1243 H   0  0  0  0  0  0
  -19.6670  -27.3249   20.6777 H   0  0  0  0  0  0
  -17.4189  -26.6741   21.4035 H   0  0  0  0  0  0
  -18.0295  -26.0115   22.9043 H   0  0  0  0  0  0
  -19.7927  -30.7298   24.2310 H   0  0  0  0  0  0
  -17.5007  -31.6288   24.5197 H   0  0  0  0  0  0
  -15.5351  -30.3039   23.7636 H   0  0  0  0  0  0
  -15.8669  -28.0874   22.7044 H   0  0  0  0  0  0
  -24.5942  -30.7006   25.7837 H   0  0  0  0  0  0
  -24.8928  -32.2808   26.4976 H   0  0  0  0  0  0
  -25.8135  -30.8837   27.0234 H   0  0  0  0  0  0
  -26.2822  -29.6814   24.1166 H   0  0  0  0  0  0
  -27.4129  -29.7292   25.4508 H   0  0  0  0  0  0
  -27.8639  -30.4397   23.9181 H   0  0  0  0  0  0
  -27.2705  -33.3614   26.2074 H   0  0  0  0  0  0
  -28.3842  -32.6881   25.0259 H   0  0  0  0  0  0
  -28.0778  -31.8427   26.5351 H   0  0  0  0  0  0
  -28.2629  -38.0069   24.7511 H   0  0  0  0  0  0
  -28.1029  -36.2611   24.6332 H   0  0  0  0  0  0
  -27.2297  -37.1505   25.8884 H   0  0  0  0  0  0
  -20.9334  -29.8757   21.6906 H   0  0  0  0  0  0
  -26.0181  -38.2886   24.1430 H   0  0  0  0  0  0
  -31.0722  -17.2445   19.7817 H   0  0  0  0  0  0
  -29.0383  -16.5624   23.5327 H   0  0  0  0  0  0
  -27.9550  -23.8955   20.0909 H   0  0  0  0  0  0
  -29.6485  -24.3160   19.9706 H   0  0  0  0  0  0
  -28.3306  -23.4011   22.5839 H   0  0  0  0  0  0
  -30.0256  -23.7457   22.3472 H   0  0  0  0  0  0
  -29.2776  -26.0653   21.8059 H   0  0  0  0  0  0
  -27.5734  -25.6968   21.7443 H   0  0  0  0  0  0
  -30.6299  -20.7488   24.2309 H   0  0  0  0  0  0
  -30.3313  -22.3905   23.7976 H   0  0  0  0  0  0
  -29.3221  -14.8114   22.0074 H   0  0  0  0  0  0
  -29.0519  -21.6019   20.6056 H   0  0  0  0  0  0
  1 25  1  0  0  0
  1 30  2  0  0  0
  1 82  1  0  0  0
  2  3  1  0  0  0
  2 25  1  0  0  0
  2 86  1  0  0  0
  2 87  1  0  0  0
  3  4  1  0  0  0
  3 88  1  0  0  0
  3 89  1  0  0  0
  4  5  1  0  0  0
  4 90  1  0  0  0
  4 91  1  0  0  0
  5  6  1  0  0  0
  5 26  1  0  0  0
  5 92  1  0  0  0
  6 25  1  0  0  0
  6 93  1  0  0  0
  6 94  1  0  0  0
  7  8  2  0  0  0
  7 26  1  0  0  0
  7 29  1  0  0  0
  8  9  1  0  0  0
  8 22  1  0  0  0
  9 10  1  0  0  0
  9 27  2  0  0  0
 10 11  2  0  0  0
 10 15  1  0  0  0
 11 12  1  0  0  0
 11 95  1  0  0  0
 12 13  2  0  0  0
 12 96  1  0  0  0
 13 14  1  0  0  0
 13 31  1  0  0  0
 14 15  2  0  0  0
 14 97  1  0  0  0
 15 98  1  0  0  0
 16 17  2  0  0  0
 16 21  1  0  0  0
 16 31  1  0  0  0
 17 18  1  0  0  0
 17 99  1  0  0  0
 18 19  2  0  0  0
 18100  1  0  0  0
 19 20  1  0  0  0
 19 24  1  0  0  0
 20 21  2  0  0  0
 20101  1  0  0  0
 21 23  1  0  0  0
 22 28  1  0  0  0
 22 32  2  0  0  0
 26 27  1  0  0  0
 28102  1  0  0  0
 28103  1  0  0  0
 29104  1  0  0  0
 29105  1  0  0  0
 33 34  1  0  0  0
 33 66  1  0  0  0
 33 70  2  0  0  0
 34 36  1  0  0  0
 34 59  1  0  0  0
 34106  1  0  0  0
 35 44  2  0  0  0
 35 45  1  0  0  0
 35 68  1  0  0  0
 36 56  1  0  0  0
 36107  1  0  0  0
 37 39  1  0  0  0
 37 47  1  0  0  0
 37 66  1  0  0  0
 37108  1  0  0  0
 38 43  2  0  0  0
 38 46  1  0  0  0
 38 47  1  0  0  0
 39 64  1  0  0  0
 39 67  2  0  0  0
 40 52  1  0  0  0
 40 53  2  0  0  0
 40 58  1  0  0  0
 41109  1  0  0  0
 41110  1  0  0  0
 41111  1  0  0  0
 41 48  1  0  0  0
 42 43  1  0  0  0
 42 66  1  0  0  0
 42112  1  0  0  0
 42113  1  0  0  0
 43 44  1  0  0  0
 44114  1  0  0  0
 45 46  2  0  0  0
 45115  1  0  0  0
 46116  1  0  0  0
 47117  1  0  0  0
 47118  1  0  0  0
 48 56  1  0  0  0
 48 65  1  0  0  0
 48119  1  0  0  0
 49 50  1  0  0  0
 49 53  1  0  0  0
 49 64  1  0  0  0
 49120  1  0  0  0
 50 51  1  0  0  0
 50121  1  0  0  0
 50122  1  0  0  0
 51 52  1  0  0  0
 51123  1  0  0  0
 51124  1  0  0  0
 52125  1  0  0  0
 52126  1  0  0  0
 53 54  1  0  0  0
 54 55  2  0  0  0
 54127  1  0  0  0
 55 57  1  0  0  0
 55128  1  0  0  0
 56 69  2  0  0  0
 57 58  2  0  0  0
 57129  1  0  0  0
 58130  1  0  0  0
 59 60  1  0  0  0
 59 61  1  0  0  0
 59 62  1  0  0  0
 60131  1  0  0  0
 60132  1  0  0  0
 60133  1  0  0  0
 61134  1  0  0  0
 61135  1  0  0  0
 61136  1  0  0  0
 62137  1  0  0  0
 62138  1  0  0  0
 62139  1  0  0  0
 63 65  1  0  0  0
 63140  1  0  0  0
 63141  1  0  0  0
 63142  1  0  0  0
 64143  1  0  0  0
 65144  1  0  0  0
 68 80  1  0  0  0
 71 74  2  0  0  0
 71 75  1  0  0  0
 71145  1  0  0  0
 72 74  1  0  0  0
 72 76  2  0  0  0
 72146  1  0  0  0
 73 75  2  0  0  0
 73 76  1  0  0  0
 73 77  1  0  0  0
 74 82  1  0  0  0
 75 84  1  0  0  0
 76 85  1  0  0  0
 77 81  1  0  0  0
 77 83  2  0  0  0
 78 79  1  0  0  0
 78 80  1  0  0  0
 78147  1  0  0  0
 78148  1  0  0  0
 79 83  1  0  0  0
 79149  1  0  0  0
 79150  1  0  0  0
 80151  1  0  0  0
 80152  1  0  0  0
 81153  1  0  0  0
 81154  1  0  0  0
 82155  1  0  0  0
 83156  1  0  0  0
M  CHG  1  83   1
M  ISO  4   1 100  68 101  80 101  82 100
M  END
> <chiral flag>
0

> <version>
0

> <s_m_source_file>
/data/baiqing/PycharmProjects/Reinvent-master-3.2/result/LINK_invent/BTK/process_docking_weight1_custom_product_contain_oxygen_bond_distance_aromatic_linkinvent_7_9_3/rearranged_h_0065.sdf

> <i_m_source_file_index>
11

> <r_mmod_Potential_Energy-OPLS-2005>
-146.732650756836

> <r_mmod_Stretch_Energy-OPLS-2005>
39.1841163635254

> <r_mmod_Bend_Energy-OPLS-2005>
103.034934997559

> <r_mmod_Torsional_Energy-OPLS-2005>
239.504135131836

> <r_mmod_Improper_Torsional_Energy-OPLS-2005>
2.80367112159729

> <r_mmod_Van_der_Waal_Energy-OPLS-2005>
154.175888061523

> <r_mmod_Electrostatic_Energy-OPLS-2005>
-275.242370605469

> <r_mmod_Solvation_Energy-OPLS-2005>
-420.577728271484

> <b_mmod_Minimization_Converged-OPLS-2005>
0

> <r_mmod_RMS_Derivative-OPLS-2005>
2.24799060821533

$$$$
11
                    3D
 Structure written by MMmdl.
157165  0  0  1  0            999 V2000
  -30.7189  -14.5291   20.4184 C   0  0  0  0  0  0
  -30.4110  -12.3053   19.4376 C   0  0  0  0  0  0
  -29.4938  -12.4806   18.2101 C   0  0  0  0  0  0
  -28.0171  -12.3448   18.6271 C   0  0  0  0  0  0
  -27.6530  -13.2239   19.8550 C   0  0  2  0  0  0
  -28.7073  -13.0995   20.9808 C   0  0  0  0  0  0
  -25.2582  -13.8191   20.5717 C   0  0  0  0  0  0
  -24.1849  -13.0456   20.9206 C   0  0  0  0  0  0
  -24.6429  -11.6916   20.8779 C   0  0  0  0  0  0
  -23.9097  -10.4293   21.0423 C   0  0  0  0  0  0
  -24.3636   -9.4198   21.9202 C   0  0  0  0  0  0
  -23.6286   -8.2245   22.0775 C   0  0  0  0  0  0
  -22.4271   -8.0299   21.3552 C   0  0  0  0  0  0
  -21.9927   -9.0278   20.4645 C   0  0  0  0  0  0
  -22.7274  -10.2145   20.3054 C   0  0  0  0  0  0
  -21.6849   -6.0739   22.5287 C   0  0  0  0  0  0
  -21.4011   -6.5647   23.8213 C   0  0  0  0  0  0
  -21.3657   -5.6807   24.9183 C   0  0  0  0  0  0
  -21.6042   -4.3063   24.7227 C   0  0  0  0  0  0
  -21.8828   -3.8144   23.4356 C   0  0  0  0  0  0
  -21.9187   -4.6964   22.3416 C   0  0  0  0  0  0
  -22.7860  -13.5234   21.1847 C   0  0  0  0  0  0
  -22.1675   -4.2153   21.0999 F   0  0  0  0  0  0
  -21.5598   -3.4553   25.7742 F   0  0  0  0  0  0
  -30.0328  -13.3532   20.3975 N   0  0  0  0  0  0
  -26.3015  -12.9385   20.3339 N   0  0  0  0  0  0
  -25.9359  -11.6529   20.5798 N   0  0  0  0  0  0
  -22.0502  -12.8201   22.0379 N   0  0  0  0  0  0
  -25.4233  -15.1905   20.4108 N   0  0  0  0  0  0
  -31.9351  -14.5765   20.2398 O   0  0  0  0  0  0
  -21.6625   -6.8894   21.4251 O   0  0  0  0  0  0
  -22.3548  -14.5558   20.6699 O   0  0  0  0  0  0
  -24.6178  -31.8650   23.2048 C   0  0  0  0  0  0
  -25.9063  -32.4803   23.8351 C   0  0  1  0  0  0
  -27.2319  -27.3807   20.1082 C   0  0  0  0  0  0
  -25.5889  -33.8596   24.2291 N   0  0  0  0  0  0
  -23.4065  -30.4891   21.5449 C   0  0  2  0  0  0
  -24.8520  -28.9477   20.1108 C   0  0  0  0  0  0
  -22.7412  -29.4667   22.4935 C   0  0  0  0  0  0
  -18.0271  -28.1390   22.8500 C   0  0  0  0  0  0
  -24.1480  -36.7280   23.2634 C   0  0  0  0  0  0
  -25.9389  -30.8136   21.3658 C   0  0  0  0  0  0
  -26.0137  -29.4432   20.7135 C   0  0  0  0  0  0
  -27.2018  -28.6678   20.7100 C   0  0  0  0  0  0
  -26.0439  -26.9093   19.5018 C   0  0  0  0  0  0
  -24.8662  -27.6816   19.4989 C   0  0  0  0  0  0
  -23.6143  -29.8188   20.1603 C   0  0  0  0  0  0
  -25.4103  -36.3095   24.0339 C   0  0  1  0  0  0
  -20.5868  -28.3689   23.1308 C   0  0  2  0  0  0
  -20.6762  -26.9418   22.5431 C   0  0  0  0  0  0
  -19.5742  -26.6398   21.5220 C   0  0  0  0  0  0
  -18.1913  -26.7938   22.1632 C   0  0  0  0  0  0
  -19.1529  -28.8843   23.2904 C   0  0  0  0  0  0
  -18.9460  -30.1441   23.8920 C   0  0  0  0  0  0
  -17.6469  -30.6602   24.0566 C   0  0  0  0  0  0
  -25.9047  -34.9471   23.5127 C   0  0  0  0  0  0
  -16.5353  -29.9105   23.6335 C   0  0  0  0  0  0
  -16.7260  -28.6520   23.0356 C   0  0  0  0  0  0
  -26.4481  -31.6577   25.0678 C   0  0  0  0  0  0
  -25.3726  -31.3633   26.1397 C   0  0  0  0  0  0
  -27.0346  -30.3036   24.6055 C   0  0  0  0  0  0
  -27.6041  -32.4298   25.7451 C   0  0  0  0  0  0
  -27.5582  -37.1781   24.8461 C   0  0  0  0  0  0
  -21.4124  -29.3056   22.3680 N   0  0  0  0  0  0
  -26.4276  -37.3807   23.9432 N   0  0  0  0  0  0
  -24.6726  -31.0712   22.0964 N   0  0  0  0  0  0
  -23.4159  -28.8232   23.3003 O   0  0  0  0  0  0
  -28.4090  -26.6413   20.1355 O   0  0  0  0  0  0
  -26.5633  -34.8943   22.4705 O   0  0  0  0  0  0
  -23.5368  -32.1413   23.7427 O   0  0  0  0  0  0
  -30.7698  -19.5234   18.7007 C   0  0  0  0  0  0
  -29.5987  -18.1109   20.3010 C   0  0  0  0  0  0
  -31.4407  -18.3879   18.2035 C   0  0  0  0  0  0
  -29.8209  -19.4060   19.7441 C   0  0  0  0  0  0
  -30.2824  -16.9489   19.8368 C   0  0  0  0  0  0
  -31.1861  -17.1115   18.7473 C   0  0  0  0  0  0
  -29.0685  -21.8455   19.9002 C   0  0  0  0  0  0
  -32.4221  -18.5328   17.0505 C   0  0  0  0  0  0
  -27.8518  -22.7098   20.3232 C   0  0  0  0  0  0
  -28.0690  -24.2020   20.7680 C   0  0  0  0  0  0
  -28.4603  -25.2583   19.6886 C   0  0  0  0  0  0
  -29.0320  -20.5218   20.2158 N   0  0  0  0  0  0
  -29.9658  -15.6563   20.4170 N   0  0  0  0  0  0
  -30.0076  -22.3827   19.3098 O   0  0  0  0  0  0
  -31.7786  -16.0511   18.1486 F   0  0  0  0  0  0
  -31.4608  -12.3610   19.1419 H   0  0  0  0  0  0
  -30.2749  -11.3183   19.8857 H   0  0  0  0  0  0
  -29.7385  -11.7389   17.4495 H   0  0  0  0  0  0
  -29.6611  -13.4589   17.7533 H   0  0  0  0  0  0
  -27.8392  -11.2930   18.8564 H   0  0  0  0  0  0
  -27.3629  -12.5831   17.7871 H   0  0  0  0  0  0
  -27.6632  -14.2559   19.5042 H   0  0  0  0  0  0
  -28.6820  -12.1042   21.4259 H   0  0  0  0  0  0
  -28.4947  -13.7994   21.7907 H   0  0  0  0  0  0
  -25.2786   -9.5671   22.4786 H   0  0  0  0  0  0
  -23.9993   -7.4632   22.7500 H   0  0  0  0  0  0
  -21.0872   -8.8804   19.8934 H   0  0  0  0  0  0
  -22.3752  -10.9695   19.6167 H   0  0  0  0  0  0
  -21.2043   -7.6161   23.9727 H   0  0  0  0  0  0
  -21.1458   -6.0535   25.9093 H   0  0  0  0  0  0
  -22.0603   -2.7604   23.2848 H   0  0  0  0  0  0
  -22.4129  -11.9856   22.4764 H   0  0  0  0  0  0
  -21.1119  -13.1195   22.2593 H   0  0  0  0  0  0
  -24.6484  -15.8359   20.5133 H   0  0  0  0  0  0
  -26.2662  -15.6332   20.0678 H   0  0  0  0  0  0
  -26.7099  -32.5510   23.1075 H   0  0  0  0  0  0
  -24.9978  -33.9748   25.0391 H   0  0  0  0  0  0
  -22.6972  -31.3071   21.4055 H   0  0  0  0  0  0
  -23.3792  -35.9569   23.3276 H   0  0  0  0  0  0
  -24.3547  -36.8931   22.2059 H   0  0  0  0  0  0
  -23.7197  -37.6443   23.6683 H   0  0  0  0  0  0
  -26.0550  -31.5763   20.5950 H   0  0  0  0  0  0
  -26.8258  -30.8683   21.9852 H   0  0  0  0  0  0
  -28.0962  -29.0475   21.1848 H   0  0  0  0  0  0
  -25.9964  -25.9399   19.0308 H   0  0  0  0  0  0
  -23.9736  -27.2932   19.0272 H   0  0  0  0  0  0
  -23.7163  -30.5927   19.3988 H   0  0  0  0  0  0
  -22.7377  -29.2362   19.8733 H   0  0  0  0  0  0
  -25.1287  -36.1935   25.0840 H   0  0  0  0  0  0
  -20.9976  -28.3297   24.1423 H   0  0  0  0  0  0
  -20.5660  -26.2302   23.3621 H   0  0  0  0  0  0
  -21.6638  -26.7448   22.1244 H   0  0  0  0  0  0
  -19.6914  -25.6317   21.1226 H   0  0  0  0  0  0
  -19.6704  -27.3225   20.6758 H   0  0  0  0  0  0
  -17.4199  -26.6716   21.4011 H   0  0  0  0  0  0
  -18.0293  -26.0057   22.9003 H   0  0  0  0  0  0
  -19.7933  -30.7246   24.2321 H   0  0  0  0  0  0
  -17.5035  -31.6299   24.5157 H   0  0  0  0  0  0
  -15.5360  -30.3036   23.7645 H   0  0  0  0  0  0
  -15.8650  -28.0856   22.7066 H   0  0  0  0  0  0
  -24.5962  -30.6924   25.7692 H   0  0  0  0  0  0
  -24.8830  -32.2757   26.4812 H   0  0  0  0  0  0
  -25.8079  -30.8816   27.0165 H   0  0  0  0  0  0
  -26.2908  -29.6742   24.1155 H   0  0  0  0  0  0
  -27.4187  -29.7317   25.4505 H   0  0  0  0  0  0
  -27.8707  -30.4372   23.9191 H   0  0  0  0  0  0
  -27.2672  -33.3615   26.2015 H   0  0  0  0  0  0
  -28.3869  -32.6817   25.0279 H   0  0  0  0  0  0
  -28.0693  -31.8409   26.5367 H   0  0  0  0  0  0
  -28.2573  -38.0108   24.7593 H   0  0  0  0  0  0
  -28.1121  -36.2649   24.6214 H   0  0  0  0  0  0
  -27.2297  -37.1340   25.8856 H   0  0  0  0  0  0
  -20.9247  -29.8734   21.6881 H   0  0  0  0  0  0
  -26.0166  -38.2870   24.1493 H   0  0  0  0  0  0
  -30.9733  -20.4741   18.2337 H   0  0  0  0  0  0
  -28.8707  -17.9965   21.0905 H   0  0  0  0  0  0
  -32.3726  -19.5240   16.5987 H   0  0  0  0  0  0
  -32.2143  -17.7997   16.2687 H   0  0  0  0  0  0
  -33.4447  -18.3787   17.3995 H   0  0  0  0  0  0
  -27.3545  -22.1876   21.1435 H   0  0  0  0  0  0
  -27.1391  -22.6907   19.4986 H   0  0  0  0  0  0
  -28.7924  -24.2285   21.5817 H   0  0  0  0  0  0
  -27.1286  -24.5270   21.2146 H   0  0  0  0  0  0
  -27.9023  -25.1093   18.7669 H   0  0  0  0  0  0
  -29.4966  -25.0721   19.4072 H   0  0  0  0  0  0
  -28.2733  -20.2670   20.8324 H   0  0  0  0  0  0
  -29.0144  -15.5323   20.7214 H   0  0  0  0  0  0
  1 25  1  0  0  0
  1 30  2  0  0  0
  1 83  1  0  0  0
  2  3  1  0  0  0
  2 25  1  0  0  0
  2 86  1  0  0  0
  2 87  1  0  0  0
  3  4  1  0  0  0
  3 88  1  0  0  0
  3 89  1  0  0  0
  4  5  1  0  0  0
  4 90  1  0  0  0
  4 91  1  0  0  0
  5  6  1  0  0  0
  5 26  1  0  0  0
  5 92  1  0  0  0
  6 25  1  0  0  0
  6 93  1  0  0  0
  6 94  1  0  0  0
  7  8  2  0  0  0
  7 26  1  0  0  0
  7 29  1  0  0  0
  8  9  1  0  0  0
  8 22  1  0  0  0
  9 10  1  0  0  0
  9 27  2  0  0  0
 10 11  2  0  0  0
 10 15  1  0  0  0
 11 12  1  0  0  0
 11 95  1  0  0  0
 12 13  2  0  0  0
 12 96  1  0  0  0
 13 14  1  0  0  0
 13 31  1  0  0  0
 14 15  2  0  0  0
 14 97  1  0  0  0
 15 98  1  0  0  0
 16 17  2  0  0  0
 16 21  1  0  0  0
 16 31  1  0  0  0
 17 18  1  0  0  0
 17 99  1  0  0  0
 18 19  2  0  0  0
 18100  1  0  0  0
 19 20  1  0  0  0
 19 24  1  0  0  0
 20 21  2  0  0  0
 20101  1  0  0  0
 21 23  1  0  0  0
 22 28  1  0  0  0
 22 32  2  0  0  0
 26 27  1  0  0  0
 28102  1  0  0  0
 28103  1  0  0  0
 29104  1  0  0  0
 29105  1  0  0  0
 33 34  1  0  0  0
 33 66  1  0  0  0
 33 70  2  0  0  0
 34 36  1  0  0  0
 34 59  1  0  0  0
 34106  1  0  0  0
 35 44  2  0  0  0
 35 45  1  0  0  0
 35 68  1  0  0  0
 36 56  1  0  0  0
 36107  1  0  0  0
 37 39  1  0  0  0
 37 47  1  0  0  0
 37 66  1  0  0  0
 37108  1  0  0  0
 38 43  2  0  0  0
 38 46  1  0  0  0
 38 47  1  0  0  0
 39 64  1  0  0  0
 39 67  2  0  0  0
 40 52  1  0  0  0
 40 53  2  0  0  0
 40 58  1  0  0  0
 41109  1  0  0  0
 41110  1  0  0  0
 41111  1  0  0  0
 41 48  1  0  0  0
 42 43  1  0  0  0
 42 66  1  0  0  0
 42112  1  0  0  0
 42113  1  0  0  0
 43 44  1  0  0  0
 44114  1  0  0  0
 45 46  2  0  0  0
 45115  1  0  0  0
 46116  1  0  0  0
 47117  1  0  0  0
 47118  1  0  0  0
 48 56  1  0  0  0
 48 65  1  0  0  0
 48119  1  0  0  0
 49 50  1  0  0  0
 49 53  1  0  0  0
 49 64  1  0  0  0
 49120  1  0  0  0
 50 51  1  0  0  0
 50121  1  0  0  0
 50122  1  0  0  0
 51 52  1  0  0  0
 51123  1  0  0  0
 51124  1  0  0  0
 52125  1  0  0  0
 52126  1  0  0  0
 53 54  1  0  0  0
 54 55  2  0  0  0
 54127  1  0  0  0
 55 57  1  0  0  0
 55128  1  0  0  0
 56 69  2  0  0  0
 57 58  2  0  0  0
 57129  1  0  0  0
 58130  1  0  0  0
 59 60  1  0  0  0
 59 61  1  0  0  0
 59 62  1  0  0  0
 60131  1  0  0  0
 60132  1  0  0  0
 60133  1  0  0  0
 61134  1  0  0  0
 61135  1  0  0  0
 61136  1  0  0  0
 62137  1  0  0  0
 62138  1  0  0  0
 62139  1  0  0  0
 63 65  1  0  0  0
 63140  1  0  0  0
 63141  1  0  0  0
 63142  1  0  0  0
 64143  1  0  0  0
 65144  1  0  0  0
 68 81  1  0  0  0
 71 73  2  0  0  0
 71 74  1  0  0  0
 71145  1  0  0  0
 72 74  2  0  0  0
 72 75  1  0  0  0
 72146  1  0  0  0
 73 76  1  0  0  0
 73 78  1  0  0  0
 74 82  1  0  0  0
 75 76  2  0  0  0
 75 83  1  0  0  0
 76 85  1  0  0  0
 77 79  1  0  0  0
 77 82  1  0  0  0
 77 84  2  0  0  0
 78147  1  0  0  0
 78148  1  0  0  0
 78149  1  0  0  0
 79 80  1  0  0  0
 79150  1  0  0  0
 79151  1  0  0  0
 80 81  1  0  0  0
 80152  1  0  0  0
 80153  1  0  0  0
 81154  1  0  0  0
 81155  1  0  0  0
 82156  1  0  0  0
 83157  1  0  0  0
M  ISO  4   1 100  68 101  81 101  83 100
M  END
> <chiral flag>
0

> <version>
0

> <s_m_source_file>
/data/baiqing/PycharmProjects/Reinvent-master-3.2/result/LINK_invent/BTK/process_docking_weight1_custom_product_contain_oxygen_bond_distance_aromatic_linkinvent_7_9_3/rearranged_h_0065.sdf

> <i_m_source_file_index>
12

> <r_mmod_Potential_Energy-OPLS-2005>
-68.702033996582

> <r_mmod_Stretch_Energy-OPLS-2005>
52.2814788818359

> <r_mmod_Bend_Energy-OPLS-2005>
126.781707763672

> <r_mmod_Torsional_Energy-OPLS-2005>
229.650802612305

> <r_mmod_Improper_Torsional_Energy-OPLS-2005>
6.00324535369873

> <r_mmod_Van_der_Waal_Energy-OPLS-2005>
155.357971191406

> <r_mmod_Electrostatic_Energy-OPLS-2005>
-432.570831298828

> <r_mmod_Solvation_Energy-OPLS-2005>
-240.076568603516

> <b_mmod_Minimization_Converged-OPLS-2005>
0

> <r_mmod_RMS_Derivative-OPLS-2005>
3.37545228004456

$$$$
12
                    3D
 Structure written by MMmdl.
158167  0  0  1  0            999 V2000
  -30.6206  -14.7481   20.4545 C   0  0  0  0  0  0
  -30.4307  -12.4589   19.4641 C   0  0  0  0  0  0
  -29.5058  -12.4966   18.2294 C   0  0  0  0  0  0
  -28.0359  -12.3115   18.6531 C   0  0  0  0  0  0
  -27.6387  -13.2272   19.8419 C   0  0  2  0  0  0
  -28.6860  -13.1799   20.9760 C   0  0  0  0  0  0
  -25.2518  -13.8192   20.5687 C   0  0  0  0  0  0
  -24.1806  -13.0443   20.9222 C   0  0  0  0  0  0
  -24.6383  -11.6917   20.8748 C   0  0  0  0  0  0
  -23.9065  -10.4297   21.0407 C   0  0  0  0  0  0
  -24.3623   -9.4210   21.9184 C   0  0  0  0  0  0
  -23.6309   -8.2238   22.0747 C   0  0  0  0  0  0
  -22.4284   -8.0278   21.3548 C   0  0  0  0  0  0
  -21.9918   -9.0246   20.4646 C   0  0  0  0  0  0
  -22.7240  -10.2134   20.3052 C   0  0  0  0  0  0
  -21.6858   -6.0737   22.5287 C   0  0  0  0  0  0
  -21.4007   -6.5641   23.8224 C   0  0  0  0  0  0
  -21.3653   -5.6789   24.9188 C   0  0  0  0  0  0
  -21.6046   -4.3054   24.7231 C   0  0  0  0  0  0
  -21.8820   -3.8152   23.4356 C   0  0  0  0  0  0
  -21.9194   -4.6964   22.3411 C   0  0  0  0  0  0
  -22.7827  -13.5221   21.1879 C   0  0  0  0  0  0
  -22.1670   -4.2153   21.0986 F   0  0  0  0  0  0
  -21.5623   -3.4531   25.7747 F   0  0  0  0  0  0
  -29.9827  -13.5302   20.3835 N   0  0  0  0  0  0
  -26.2923  -12.9383   20.3250 N   0  0  0  0  0  0
  -25.9312  -11.6534   20.5741 N   0  0  0  0  0  0
  -22.0472  -12.8200   22.0426 N   0  0  0  0  0  0
  -25.4231  -15.1911   20.4124 N   0  0  0  0  0  0
  -31.8189  -14.8170   20.1660 O   0  0  0  0  0  0
  -21.6645   -6.8877   21.4252 O   0  0  0  0  0  0
  -22.3520  -14.5529   20.6727 O   0  0  0  0  0  0
  -24.6307  -31.8547   23.1974 C   0  0  0  0  0  0
  -25.9150  -32.4735   23.8305 C   0  0  1  0  0  0
  -27.2213  -27.2756   20.1338 C   0  0  0  0  0  0
  -25.5966  -33.8536   24.2250 N   0  0  0  0  0  0
  -23.4254  -30.4764   21.5402 C   0  0  2  0  0  0
  -24.8727  -28.9166   20.1155 C   0  0  0  0  0  0
  -22.7493  -29.4596   22.4915 C   0  0  0  0  0  0
  -18.0296  -28.1404   22.8493 C   0  0  0  0  0  0
  -24.1490  -36.7258   23.2637 C   0  0  0  0  0  0
  -25.9687  -30.7746   21.3707 C   0  0  0  0  0  0
  -26.0431  -29.3954   20.7176 C   0  0  0  0  0  0
  -27.2240  -28.5882   20.7119 C   0  0  0  0  0  0
  -26.0292  -26.8505   19.5149 C   0  0  0  0  0  0
  -24.8687  -27.6522   19.5020 C   0  0  0  0  0  0
  -23.6422  -29.8035   20.1583 C   0  0  0  0  0  0
  -25.4117  -36.3045   24.0331 C   0  0  1  0  0  0
  -20.5894  -28.3693   23.1290 C   0  0  2  0  0  0
  -20.6776  -26.9415   22.5421 C   0  0  0  0  0  0
  -19.5755  -26.6399   21.5222 C   0  0  0  0  0  0
  -18.1929  -26.7949   22.1624 C   0  0  0  0  0  0
  -19.1553  -28.8872   23.2877 C   0  0  0  0  0  0
  -18.9463  -30.1481   23.8872 C   0  0  0  0  0  0
  -17.6462  -30.6592   24.0567 C   0  0  0  0  0  0
  -25.9065  -34.9427   23.5089 C   0  0  0  0  0  0
  -16.5356  -29.9084   23.6350 C   0  0  0  0  0  0
  -16.7282  -28.6517   23.0352 C   0  0  0  0  0  0
  -26.4525  -31.6558   25.0691 C   0  0  0  0  0  0
  -25.3767  -31.3757   26.1444 C   0  0  0  0  0  0
  -27.0313  -30.2947   24.6165 C   0  0  0  0  0  0
  -27.6099  -32.4277   25.7446 C   0  0  0  0  0  0
  -27.5582  -37.1776   24.8463 C   0  0  0  0  0  0
  -21.4204  -29.3034   22.3670 N   0  0  0  0  0  0
  -26.4282  -37.3756   23.9426 N   0  0  0  0  0  0
  -24.6936  -31.0536   22.0926 N   0  0  0  0  0  0
  -23.4210  -28.8149   23.3011 O   0  0  0  0  0  0
  -28.3270  -26.4040   20.1243 O   0  0  0  0  0  0
  -26.5599  -34.8917   22.4637 O   0  0  0  0  0  0
  -23.5467  -32.1354   23.7304 O   0  0  0  0  0  0
  -31.4826  -17.6071   21.3729 C   0  0  0  0  0  0
  -31.8884  -18.9258   21.6360 C   0  0  0  0  0  0
  -29.4335  -18.4994   20.4155 C   0  0  0  0  0  0
  -29.8353  -19.8923   20.6596 C   0  0  0  0  0  0
  -30.2436  -17.3289   20.7594 C   0  0  0  0  0  0
  -31.0946  -20.0361   21.3012 C   0  0  0  0  0  0
  -27.8323  -21.2458   19.8029 C   0  0  0  0  0  0
  -27.3147  -22.6997   19.7255 C   0  0  0  0  0  0
  -29.4945  -22.5785   20.6009 C   0  0  0  0  0  0
  -28.5288  -23.6447   19.9030 C   0  0  1  0  0  0
  -29.1065  -24.0254   18.5238 C   0  0  0  0  0  0
  -28.1797  -25.0259   20.6981 C   0  0  0  0  0  0
  -29.0698  -21.1489   20.3287 N   0  0  0  0  0  0
  -29.8487  -15.9016   20.5864 N   0  0  0  0  0  0
  -27.1345  -20.3053   19.4157 O   0  0  0  0  0  0
  -31.5867  -21.2510   21.6350 F   0  0  0  0  0  0
  -31.4709  -12.5822   19.1564 H   0  0  0  0  0  0
  -30.3786  -11.4880   19.9585 H   0  0  0  0  0  0
  -29.7904  -11.7201   17.5192 H   0  0  0  0  0  0
  -29.6213  -13.4474   17.7072 H   0  0  0  0  0  0
  -27.9066  -11.2666   18.9378 H   0  0  0  0  0  0
  -27.3703  -12.4749   17.8050 H   0  0  0  0  0  0
  -27.6265  -14.2415   19.4441 H   0  0  0  0  0  0
  -28.7272  -12.1889   21.4297 H   0  0  0  0  0  0
  -28.4206  -13.8746   21.7750 H   0  0  0  0  0  0
  -25.2773   -9.5690   22.4750 H   0  0  0  0  0  0
  -24.0029   -7.4619   22.7450 H   0  0  0  0  0  0
  -21.0853   -8.8764   19.8950 H   0  0  0  0  0  0
  -22.3701  -10.9665   19.6150 H   0  0  0  0  0  0
  -21.1995   -7.6145   23.9732 H   0  0  0  0  0  0
  -21.1469   -6.0515   25.9091 H   0  0  0  0  0  0
  -22.0599   -2.7611   23.2849 H   0  0  0  0  0  0
  -22.4092  -11.9860   22.4806 H   0  0  0  0  0  0
  -21.1088  -13.1227   22.2642 H   0  0  0  0  0  0
  -24.6585  -15.8471   20.5277 H   0  0  0  0  0  0
  -26.2698  -15.6302   20.0749 H   0  0  0  0  0  0
  -26.7211  -32.5378   23.1041 H   0  0  0  0  0  0
  -25.0175  -33.9668   25.0440 H   0  0  0  0  0  0
  -22.7208  -31.2984   21.3934 H   0  0  0  0  0  0
  -23.3770  -35.9564   23.3259 H   0  0  0  0  0  0
  -24.3594  -36.8918   22.2059 H   0  0  0  0  0  0
  -23.7222  -37.6446   23.6677 H   0  0  0  0  0  0
  -26.1046  -31.5356   20.6012 H   0  0  0  0  0  0
  -26.8484  -30.8254   22.0009 H   0  0  0  0  0  0
  -28.1252  -28.9535   21.1840 H   0  0  0  0  0  0
  -25.9929  -25.8775   19.0452 H   0  0  0  0  0  0
  -23.9708  -27.2822   19.0255 H   0  0  0  0  0  0
  -23.7608  -30.5748   19.3960 H   0  0  0  0  0  0
  -22.7617  -29.2318   19.8586 H   0  0  0  0  0  0
  -25.1297  -36.1865   25.0818 H   0  0  0  0  0  0
  -20.9998  -28.3264   24.1408 H   0  0  0  0  0  0
  -20.5702  -26.2291   23.3614 H   0  0  0  0  0  0
  -21.6637  -26.7444   22.1203 H   0  0  0  0  0  0
  -19.6902  -25.6312   21.1250 H   0  0  0  0  0  0
  -19.6710  -27.3207   20.6750 H   0  0  0  0  0  0
  -17.4219  -26.6744   21.4001 H   0  0  0  0  0  0
  -18.0290  -26.0083   22.9009 H   0  0  0  0  0  0
  -19.7937  -30.7319   24.2205 H   0  0  0  0  0  0
  -17.5016  -31.6267   24.5177 H   0  0  0  0  0  0
  -15.5355  -30.2967   23.7702 H   0  0  0  0  0  0
  -15.8691  -28.0841   22.7040 H   0  0  0  0  0  0
  -24.5879  -30.7173   25.7805 H   0  0  0  0  0  0
  -24.9052  -32.2960   26.4890 H   0  0  0  0  0  0
  -25.8107  -30.8910   27.0200 H   0  0  0  0  0  0
  -26.2848  -29.6710   24.1233 H   0  0  0  0  0  0
  -27.4020  -29.7203   25.4668 H   0  0  0  0  0  0
  -27.8742  -30.4180   23.9354 H   0  0  0  0  0  0
  -27.2746  -33.3629   26.1940 H   0  0  0  0  0  0
  -28.3953  -32.6743   25.0289 H   0  0  0  0  0  0
  -28.0700  -31.8431   26.5429 H   0  0  0  0  0  0
  -28.2578  -38.0087   24.7515 H   0  0  0  0  0  0
  -28.1089  -36.2624   24.6248 H   0  0  0  0  0  0
  -27.2316  -37.1382   25.8867 H   0  0  0  0  0  0
  -20.9395  -29.8731   21.6851 H   0  0  0  0  0  0
  -26.0144  -38.2819   24.1448 H   0  0  0  0  0  0
  -32.1418  -16.8113   21.6846 H   0  0  0  0  0  0
  -32.8351  -19.0974   22.1249 H   0  0  0  0  0  0
  -28.4779  -18.3100   19.9503 H   0  0  0  0  0  0
  -26.5990  -22.8223   20.5380 H   0  0  0  0  0  0
  -26.7788  -22.8776   18.7917 H   0  0  0  0  0  0
  -29.4992  -22.7310   21.6808 H   0  0  0  0  0  0
  -30.5132  -22.7460   20.2489 H   0  0  0  0  0  0
  -29.3790  -23.1506   17.9326 H   0  0  0  0  0  0
  -30.0012  -24.6403   18.6264 H   0  0  0  0  0  0
  -28.3852  -24.6019   17.9427 H   0  0  0  0  0  0
  -28.8203  -25.0446   21.5808 H   0  0  0  0  0  0
  -27.1803  -24.9380   21.1236 H   0  0  0  0  0  0
  -28.8548  -15.7267   20.5835 H   0  0  0  0  0  0
  1 25  1  0  0  0
  1 30  2  0  0  0
  1 84  1  0  0  0
  2  3  1  0  0  0
  2 25  1  0  0  0
  2 87  1  0  0  0
  2 88  1  0  0  0
  3  4  1  0  0  0
  3 89  1  0  0  0
  3 90  1  0  0  0
  4  5  1  0  0  0
  4 91  1  0  0  0
  4 92  1  0  0  0
  5  6  1  0  0  0
  5 26  1  0  0  0
  5 93  1  0  0  0
  6 25  1  0  0  0
  6 94  1  0  0  0
  6 95  1  0  0  0
  7  8  2  0  0  0
  7 26  1  0  0  0
  7 29  1  0  0  0
  8  9  1  0  0  0
  8 22  1  0  0  0
  9 10  1  0  0  0
  9 27  2  0  0  0
 10 11  2  0  0  0
 10 15  1  0  0  0
 11 12  1  0  0  0
 11 96  1  0  0  0
 12 13  2  0  0  0
 12 97  1  0  0  0
 13 14  1  0  0  0
 13 31  1  0  0  0
 14 15  2  0  0  0
 14 98  1  0  0  0
 15 99  1  0  0  0
 16 17  2  0  0  0
 16 21  1  0  0  0
 16 31  1  0  0  0
 17 18  1  0  0  0
 17100  1  0  0  0
 18 19  2  0  0  0
 18101  1  0  0  0
 19 20  1  0  0  0
 19 24  1  0  0  0
 20 21  2  0  0  0
 20102  1  0  0  0
 21 23  1  0  0  0
 22 28  1  0  0  0
 22 32  2  0  0  0
 26 27  1  0  0  0
 28103  1  0  0  0
 28104  1  0  0  0
 29105  1  0  0  0
 29106  1  0  0  0
 33 34  1  0  0  0
 33 66  1  0  0  0
 33 70  2  0  0  0
 34 36  1  0  0  0
 34 59  1  0  0  0
 34107  1  0  0  0
 35 44  2  0  0  0
 35 45  1  0  0  0
 35 68  1  0  0  0
 36 56  1  0  0  0
 36108  1  0  0  0
 37 39  1  0  0  0
 37 47  1  0  0  0
 37 66  1  0  0  0
 37109  1  0  0  0
 38 43  2  0  0  0
 38 46  1  0  0  0
 38 47  1  0  0  0
 39 64  1  0  0  0
 39 67  2  0  0  0
 40 52  1  0  0  0
 40 53  2  0  0  0
 40 58  1  0  0  0
 41110  1  0  0  0
 41111  1  0  0  0
 41112  1  0  0  0
 41 48  1  0  0  0
 42 43  1  0  0  0
 42 66  1  0  0  0
 42113  1  0  0  0
 42114  1  0  0  0
 43 44  1  0  0  0
 44115  1  0  0  0
 45 46  2  0  0  0
 45116  1  0  0  0
 46117  1  0  0  0
 47118  1  0  0  0
 47119  1  0  0  0
 48 56  1  0  0  0
 48 65  1  0  0  0
 48120  1  0  0  0
 49 50  1  0  0  0
 49 53  1  0  0  0
 49 64  1  0  0  0
 49121  1  0  0  0
 50 51  1  0  0  0
 50122  1  0  0  0
 50123  1  0  0  0
 51 52  1  0  0  0
 51124  1  0  0  0
 51125  1  0  0  0
 52126  1  0  0  0
 52127  1  0  0  0
 53 54  1  0  0  0
 54 55  2  0  0  0
 54128  1  0  0  0
 55 57  1  0  0  0
 55129  1  0  0  0
 56 69  2  0  0  0
 57 58  2  0  0  0
 57130  1  0  0  0
 58131  1  0  0  0
 59 60  1  0  0  0
 59 61  1  0  0  0
 59 62  1  0  0  0
 60132  1  0  0  0
 60133  1  0  0  0
 60134  1  0  0  0
 61135  1  0  0  0
 61136  1  0  0  0
 61137  1  0  0  0
 62138  1  0  0  0
 62139  1  0  0  0
 62140  1  0  0  0
 63 65  1  0  0  0
 63141  1  0  0  0
 63142  1  0  0  0
 63143  1  0  0  0
 64144  1  0  0  0
 65145  1  0  0  0
 68 82  1  0  0  0
 71 72  2  0  0  0
 71 75  1  0  0  0
 71146  1  0  0  0
 72 76  1  0  0  0
 72147  1  0  0  0
 73 74  1  0  0  0
 73 75  2  0  0  0
 73148  1  0  0  0
 74 76  2  0  0  0
 74 83  1  0  0  0
 75 84  1  0  0  0
 76 86  1  0  0  0
 77 78  1  0  0  0
 77 83  1  0  0  0
 77 85  2  0  0  0
 78 80  1  0  0  0
 78149  1  0  0  0
 78150  1  0  0  0
 79 80  1  0  0  0
 79 83  1  0  0  0
 79151  1  0  0  0
 79152  1  0  0  0
 80 81  1  0  0  0
 80 82  1  0  0  0
 81153  1  0  0  0
 81154  1  0  0  0
 81155  1  0  0  0
 82156  1  0  0  0
 82157  1  0  0  0
 84158  1  0  0  0
M  ISO  4   1 100  68 101  82 101  84 100
M  END
> <chiral flag>
0

> <version>
0

> <s_m_source_file>
/data/baiqing/PycharmProjects/Reinvent-master-3.2/result/LINK_invent/BTK/process_docking_weight1_custom_product_contain_oxygen_bond_distance_aromatic_linkinvent_7_9_3/rearranged_h_0065.sdf

> <i_m_source_file_index>
13

> <r_mmod_Potential_Energy-OPLS-2005>
257.317413330078

> <r_mmod_Stretch_Energy-OPLS-2005>
130.702575683594

> <r_mmod_Bend_Energy-OPLS-2005>
195.567825317383

> <r_mmod_Torsional_Energy-OPLS-2005>
300.359802246094

> <r_mmod_Improper_Torsional_Energy-OPLS-2005>
6.18217706680298

> <r_mmod_Van_der_Waal_Energy-OPLS-2005>
143.668258666992

> <r_mmod_Electrostatic_Energy-OPLS-2005>
-391.305725097656

> <r_mmod_Solvation_Energy-OPLS-2005>
-209.521209716797

> <b_mmod_Minimization_Converged-OPLS-2005>
0

> <r_mmod_RMS_Derivative-OPLS-2005>
2.19555592536926

$$$$
13
                    3D
 Structure written by MMmdl.
160169  0  0  1  0            999 V2000
  -30.6378  -14.6568   20.4981 C   0  0  0  0  0  0
  -30.4351  -12.4039   19.4576 C   0  0  0  0  0  0
  -29.5054  -12.5127   18.2283 C   0  0  0  0  0  0
  -28.0295  -12.3467   18.6403 C   0  0  0  0  0  0
  -27.6486  -13.2219   19.8641 C   0  0  2  0  0  0
  -28.6974  -13.0965   20.9941 C   0  0  0  0  0  0
  -25.2426  -13.8038   20.5616 C   0  0  0  0  0  0
  -24.1761  -13.0317   20.9219 C   0  0  0  0  0  0
  -24.6393  -11.6826   20.8776 C   0  0  0  0  0  0
  -23.9073  -10.4224   21.0421 C   0  0  0  0  0  0
  -24.3619   -9.4144   21.9200 C   0  0  0  0  0  0
  -23.6281   -8.2192   22.0764 C   0  0  0  0  0  0
  -22.4264   -8.0250   21.3546 C   0  0  0  0  0  0
  -21.9909   -9.0222   20.4644 C   0  0  0  0  0  0
  -22.7249  -10.2092   20.3060 C   0  0  0  0  0  0
  -21.6839   -6.0722   22.5280 C   0  0  0  0  0  0
  -21.4002   -6.5631   23.8213 C   0  0  0  0  0  0
  -21.3659   -5.6787   24.9177 C   0  0  0  0  0  0
  -21.6046   -4.3051   24.7228 C   0  0  0  0  0  0
  -21.8821   -3.8142   23.4350 C   0  0  0  0  0  0
  -21.9189   -4.6953   22.3403 C   0  0  0  0  0  0
  -22.7792  -13.5128   21.1873 C   0  0  0  0  0  0
  -22.1660   -4.2141   21.0981 F   0  0  0  0  0  0
  -21.5636   -3.4538   25.7745 F   0  0  0  0  0  0
  -30.0137  -13.4354   20.4275 N   0  0  0  0  0  0
  -26.2953  -12.9319   20.3336 N   0  0  0  0  0  0
  -25.9338  -11.6466   20.5810 N   0  0  0  0  0  0
  -22.0445  -12.8141   22.0447 N   0  0  0  0  0  0
  -25.3848  -15.1699   20.3817 N   0  0  0  0  0  0
  -31.8048  -14.7947   20.1215 O   0  0  0  0  0  0
  -21.6617   -6.8859   21.4243 O   0  0  0  0  0  0
  -22.3483  -14.5439   20.6717 O   0  0  0  0  0  0
  -24.6255  -31.8609   23.2025 C   0  0  0  0  0  0
  -25.9107  -32.4784   23.8356 C   0  0  1  0  0  0
  -27.2303  -27.3270   20.1249 C   0  0  0  0  0  0
  -25.5931  -33.8585   24.2286 N   0  0  0  0  0  0
  -23.4192  -30.4830   21.5450 C   0  0  2  0  0  0
  -24.8675  -28.9367   20.1141 C   0  0  0  0  0  0
  -22.7468  -29.4632   22.4948 C   0  0  0  0  0  0
  -18.0285  -28.1389   22.8493 C   0  0  0  0  0  0
  -24.1486  -36.7289   23.2635 C   0  0  0  0  0  0
  -25.9589  -30.7939   21.3728 C   0  0  0  0  0  0
  -26.0347  -29.4204   20.7189 C   0  0  0  0  0  0
  -27.2198  -28.6280   20.7129 C   0  0  0  0  0  0
  -26.0441  -26.8976   19.4877 C   0  0  0  0  0  0
  -24.8740  -27.6805   19.4884 C   0  0  0  0  0  0
  -23.6343  -29.8152   20.1613 C   0  0  0  0  0  0
  -25.4112  -36.3085   24.0330 C   0  0  1  0  0  0
  -20.5884  -28.3693   23.1288 C   0  0  2  0  0  0
  -20.6773  -26.9418   22.5411 C   0  0  0  0  0  0
  -19.5746  -26.6389   21.5214 C   0  0  0  0  0  0
  -18.1927  -26.7933   22.1626 C   0  0  0  0  0  0
  -19.1537  -28.8858   23.2885 C   0  0  0  0  0  0
  -18.9458  -30.1460   23.8901 C   0  0  0  0  0  0
  -17.6460  -30.6592   24.0564 C   0  0  0  0  0  0
  -25.9055  -34.9456   23.5107 C   0  0  0  0  0  0
  -16.5351  -29.9091   23.6334 C   0  0  0  0  0  0
  -16.7272  -28.6508   23.0357 C   0  0  0  0  0  0
  -26.4495  -31.6588   25.0722 C   0  0  0  0  0  0
  -25.3734  -31.3716   26.1450 C   0  0  0  0  0  0
  -27.0336  -30.3013   24.6165 C   0  0  0  0  0  0
  -27.6056  -32.4320   25.7493 C   0  0  0  0  0  0
  -27.5589  -37.1787   24.8460 C   0  0  0  0  0  0
  -21.4184  -29.3046   22.3682 N   0  0  0  0  0  0
  -26.4286  -37.3787   23.9426 N   0  0  0  0  0  0
  -24.6863  -31.0627   22.0970 N   0  0  0  0  0  0
  -23.4190  -28.8180   23.3033 O   0  0  0  0  0  0
  -28.3561  -26.4921   20.1442 O   0  0  0  0  0  0
  -26.5622  -34.8925   22.4673 O   0  0  0  0  0  0
  -23.5421  -32.1405   23.7357 O   0  0  0  0  0  0
  -31.2716  -19.2776   20.3114 C   0  0  0  0  0  0
  -31.2142  -17.8635   20.4992 C   0  0  0  0  0  0
  -28.8923  -19.4328   20.4748 C   0  0  0  0  0  0
  -28.8285  -18.0216   20.6905 C   0  0  0  0  0  0
  -30.1114  -20.1142   20.2343 C   0  0  0  0  0  0
  -29.9835  -17.1800   20.6666 C   0  0  0  0  0  0
  -30.3133  -24.4196   19.3744 C   0  0  0  0  0  0
  -29.2429  -24.0379   20.0728 C   0  0  0  0  0  0
  -31.2894  -23.4717   18.8777 C   0  0  0  0  0  0
  -31.1029  -22.0143   19.0048 C   0  0  0  0  0  0
  -32.3761  -23.9303   18.2238 C   0  0  0  0  0  0
  -29.0852  -22.5151   20.3968 C   0  0  0  0  0  0
  -27.4570  -17.4231   20.8962 C   0  0  0  0  0  0
  -28.1593  -25.0721   20.5264 C   0  0  0  0  0  0
  -30.1610  -21.5660   19.9011 N   0  0  0  0  0  0
  -29.8433  -15.7245   20.8360 N   0  0  0  0  0  0
  -31.7685  -21.2338   18.3108 O   0  0  0  0  0  0
  -31.4764  -12.5226   19.1535 H   0  0  0  0  0  0
  -30.3668  -11.4117   19.9064 H   0  0  0  0  0  0
  -29.7720  -11.7606   17.4844 H   0  0  0  0  0  0
  -29.6445  -13.4822   17.7468 H   0  0  0  0  0  0
  -27.8715  -11.2942   18.8768 H   0  0  0  0  0  0
  -27.3745  -12.5702   17.7972 H   0  0  0  0  0  0
  -27.6573  -14.2554   19.5177 H   0  0  0  0  0  0
  -28.7101  -12.0816   21.3941 H   0  0  0  0  0  0
  -28.4419  -13.7445   21.8342 H   0  0  0  0  0  0
  -25.2764   -9.5619   22.4777 H   0  0  0  0  0  0
  -23.9979   -7.4581   22.7488 H   0  0  0  0  0  0
  -21.0840   -8.8746   19.8944 H   0  0  0  0  0  0
  -22.3717  -10.9638   19.6171 H   0  0  0  0  0  0
  -21.1982   -7.6139   23.9711 H   0  0  0  0  0  0
  -21.1485   -6.0521   25.9079 H   0  0  0  0  0  0
  -22.0602   -2.7605   23.2856 H   0  0  0  0  0  0
  -22.4076  -11.9806   22.4827 H   0  0  0  0  0  0
  -21.1069  -13.1177   22.2672 H   0  0  0  0  0  0
  -24.5887  -15.7948   20.4451 H   0  0  0  0  0  0
  -26.1924  -15.5975   19.9518 H   0  0  0  0  0  0
  -26.7180  -32.5461   23.1110 H   0  0  0  0  0  0
  -25.0088  -33.9734   25.0436 H   0  0  0  0  0  0
  -22.7125  -31.3027   21.4004 H   0  0  0  0  0  0
  -23.3768  -35.9600   23.3264 H   0  0  0  0  0  0
  -24.3586  -36.8944   22.2057 H   0  0  0  0  0  0
  -23.7210  -37.6468   23.6678 H   0  0  0  0  0  0
  -26.0886  -31.5554   20.6025 H   0  0  0  0  0  0
  -26.8400  -30.8451   22.0011 H   0  0  0  0  0  0
  -28.1175  -28.9971   21.1884 H   0  0  0  0  0  0
  -26.0063  -25.9476   18.9753 H   0  0  0  0  0  0
  -23.9831  -27.3088   19.0005 H   0  0  0  0  0  0
  -23.7513  -30.5901   19.4027 H   0  0  0  0  0  0
  -22.7554  -29.2421   19.8610 H   0  0  0  0  0  0
  -25.1286  -36.1930   25.0821 H   0  0  0  0  0  0
  -20.9976  -28.3267   24.1408 H   0  0  0  0  0  0
  -20.5682  -26.2303   23.3610 H   0  0  0  0  0  0
  -21.6642  -26.7449   22.1202 H   0  0  0  0  0  0
  -19.6909  -25.6300   21.1245 H   0  0  0  0  0  0
  -19.6685  -27.3201   20.6746 H   0  0  0  0  0  0
  -17.4196  -26.6686   21.4026 H   0  0  0  0  0  0
  -18.0322  -26.0073   22.9021 H   0  0  0  0  0  0
  -19.7932  -30.7274   24.2272 H   0  0  0  0  0  0
  -17.5013  -31.6272   24.5162 H   0  0  0  0  0  0
  -15.5352  -30.2991   23.7659 H   0  0  0  0  0  0
  -15.8671  -28.0826   22.7074 H   0  0  0  0  0  0
  -24.5909  -30.7065   25.7773 H   0  0  0  0  0  0
  -24.8926  -32.2879   26.4888 H   0  0  0  0  0  0
  -25.8065  -30.8883   27.0216 H   0  0  0  0  0  0
  -26.2902  -29.6765   24.1201 H   0  0  0  0  0  0
  -27.4047  -29.7268   25.4661 H   0  0  0  0  0  0
  -27.8765  -30.4300   23.9373 H   0  0  0  0  0  0
  -27.2669  -33.3620   26.2070 H   0  0  0  0  0  0
  -28.3869  -32.6879   25.0324 H   0  0  0  0  0  0
  -28.0722  -31.8445   26.5410 H   0  0  0  0  0  0
  -28.2565  -38.0126   24.7579 H   0  0  0  0  0  0
  -28.1129  -36.2663   24.6195 H   0  0  0  0  0  0
  -27.2321  -37.1329   25.8863 H   0  0  0  0  0  0
  -20.9362  -29.8761   21.6887 H   0  0  0  0  0  0
  -26.0163  -38.2850   24.1474 H   0  0  0  0  0  0
  -32.2543  -19.7120   20.1950 H   0  0  0  0  0  0
  -32.1426  -17.3107   20.5092 H   0  0  0  0  0  0
  -27.9671  -19.9903   20.4565 H   0  0  0  0  0  0
  -30.4343  -25.4678   19.1385 H   0  0  0  0  0  0
  -32.5420  -24.9894   18.0865 H   0  0  0  0  0  0
  -33.1246  -23.2669   17.8140 H   0  0  0  0  0  0
  -28.1305  -22.2001   19.9760 H   0  0  0  0  0  0
  -29.0034  -22.4043   21.4784 H   0  0  0  0  0  0
  -26.7415  -18.1665   21.2503 H   0  0  0  0  0  0
  -27.4703  -16.6134   21.6259 H   0  0  0  0  0  0
  -27.1049  -17.0487   19.9368 H   0  0  0  0  0  0
  -28.1019  -25.0332   21.6147 H   0  0  0  0  0  0
  -27.2094  -24.6793   20.1708 H   0  0  0  0  0  0
  -28.9197  -15.4306   21.1101 H   0  0  0  0  0  0
  1 25  1  0  0  0
  1 30  2  0  0  0
  1 86  1  0  0  0
  2  3  1  0  0  0
  2 25  1  0  0  0
  2 88  1  0  0  0
  2 89  1  0  0  0
  3  4  1  0  0  0
  3 90  1  0  0  0
  3 91  1  0  0  0
  4  5  1  0  0  0
  4 92  1  0  0  0
  4 93  1  0  0  0
  5  6  1  0  0  0
  5 26  1  0  0  0
  5 94  1  0  0  0
  6 25  1  0  0  0
  6 95  1  0  0  0
  6 96  1  0  0  0
  7  8  2  0  0  0
  7 26  1  0  0  0
  7 29  1  0  0  0
  8  9  1  0  0  0
  8 22  1  0  0  0
  9 10  1  0  0  0
  9 27  2  0  0  0
 10 11  2  0  0  0
 10 15  1  0  0  0
 11 12  1  0  0  0
 11 97  1  0  0  0
 12 13  2  0  0  0
 12 98  1  0  0  0
 13 14  1  0  0  0
 13 31  1  0  0  0
 14 15  2  0  0  0
 14 99  1  0  0  0
 15100  1  0  0  0
 16 17  2  0  0  0
 16 21  1  0  0  0
 16 31  1  0  0  0
 17 18  1  0  0  0
 17101  1  0  0  0
 18 19  2  0  0  0
 18102  1  0  0  0
 19 20  1  0  0  0
 19 24  1  0  0  0
 20 21  2  0  0  0
 20103  1  0  0  0
 21 23  1  0  0  0
 22 28  1  0  0  0
 22 32  2  0  0  0
 26 27  1  0  0  0
 28104  1  0  0  0
 28105  1  0  0  0
 29106  1  0  0  0
 29107  1  0  0  0
 33 34  1  0  0  0
 33 66  1  0  0  0
 33 70  2  0  0  0
 34 36  1  0  0  0
 34 59  1  0  0  0
 34108  1  0  0  0
 35 44  2  0  0  0
 35 45  1  0  0  0
 35 68  1  0  0  0
 36 56  1  0  0  0
 36109  1  0  0  0
 37 39  1  0  0  0
 37 47  1  0  0  0
 37 66  1  0  0  0
 37110  1  0  0  0
 38 43  2  0  0  0
 38 46  1  0  0  0
 38 47  1  0  0  0
 39 64  1  0  0  0
 39 67  2  0  0  0
 40 52  1  0  0  0
 40 53  2  0  0  0
 40 58  1  0  0  0
 41111  1  0  0  0
 41112  1  0  0  0
 41113  1  0  0  0
 41 48  1  0  0  0
 42 43  1  0  0  0
 42 66  1  0  0  0
 42114  1  0  0  0
 42115  1  0  0  0
 43 44  1  0  0  0
 44116  1  0  0  0
 45 46  2  0  0  0
 45117  1  0  0  0
 46118  1  0  0  0
 47119  1  0  0  0
 47120  1  0  0  0
 48 56  1  0  0  0
 48 65  1  0  0  0
 48121  1  0  0  0
 49 50  1  0  0  0
 49 53  1  0  0  0
 49 64  1  0  0  0
 49122  1  0  0  0
 50 51  1  0  0  0
 50123  1  0  0  0
 50124  1  0  0  0
 51 52  1  0  0  0
 51125  1  0  0  0
 51126  1  0  0  0
 52127  1  0  0  0
 52128  1  0  0  0
 53 54  1  0  0  0
 54 55  2  0  0  0
 54129  1  0  0  0
 55 57  1  0  0  0
 55130  1  0  0  0
 56 69  2  0  0  0
 57 58  2  0  0  0
 57131  1  0  0  0
 58132  1  0  0  0
 59 60  1  0  0  0
 59 61  1  0  0  0
 59 62  1  0  0  0
 60133  1  0  0  0
 60134  1  0  0  0
 60135  1  0  0  0
 61136  1  0  0  0
 61137  1  0  0  0
 61138  1  0  0  0
 62139  1  0  0  0
 62140  1  0  0  0
 62141  1  0  0  0
 63 65  1  0  0  0
 63142  1  0  0  0
 63143  1  0  0  0
 63144  1  0  0  0
 64145  1  0  0  0
 65146  1  0  0  0
 68 84  1  0  0  0
 71 72  2  0  0  0
 71 75  1  0  0  0
 71147  1  0  0  0
 72 76  1  0  0  0
 72148  1  0  0  0
 73 74  1  0  0  0
 73 75  2  0  0  0
 73149  1  0  0  0
 74 76  2  0  0  0
 74 83  1  0  0  0
 75 85  1  0  0  0
 76 86  1  0  0  0
 77 78  2  0  0  0
 77 79  1  0  0  0
 77150  1  0  0  0
 78 82  1  0  0  0
 78 84  1  0  0  0
 79 80  1  0  0  0
 79 81  2  0  0  0
 80 85  1  0  0  0
 80 87  2  0  0  0
 81151  1  0  0  0
 81152  1  0  0  0
 82 85  1  0  0  0
 82153  1  0  0  0
 82154  1  0  0  0
 83155  1  0  0  0
 83156  1  0  0  0
 83157  1  0  0  0
 84158  1  0  0  0
 84159  1  0  0  0
 86160  1  0  0  0
M  ISO  4   1 100  68 101  84 101  86 100
M  END
> <chiral flag>
0

> <version>
0

> <s_m_source_file>
/data/baiqing/PycharmProjects/Reinvent-master-3.2/result/LINK_invent/BTK/process_docking_weight1_custom_product_contain_oxygen_bond_distance_aromatic_linkinvent_7_9_3/rearranged_h_0065.sdf

> <i_m_source_file_index>
14

> <r_mmod_Potential_Energy-OPLS-2005>
176.271209716797

> <r_mmod_Stretch_Energy-OPLS-2005>
93.7617340087891

> <r_mmod_Bend_Energy-OPLS-2005>
140.917144775391

> <r_mmod_Torsional_Energy-OPLS-2005>
267.960144042969

> <r_mmod_Improper_Torsional_Energy-OPLS-2005>
5.17542314529419

> <r_mmod_Van_der_Waal_Energy-OPLS-2005>
176.766128540039

> <r_mmod_Electrostatic_Energy-OPLS-2005>
-342.411010742188

> <r_mmod_Solvation_Energy-OPLS-2005>
-214.589538574219

> <b_mmod_Minimization_Converged-OPLS-2005>
0

> <r_mmod_RMS_Derivative-OPLS-2005>
0.828892707824707

$$$$
14
                    3D
 Structure written by MMmdl.
164173  0  0  1  0            999 V2000
  -30.5799  -14.7486   20.4484 C   0  0  0  0  0  0
  -30.4429  -12.4489   19.4791 C   0  0  0  0  0  0
  -29.5135  -12.4659   18.2431 C   0  0  0  0  0  0
  -28.0432  -12.2776   18.6743 C   0  0  0  0  0  0
  -27.6328  -13.2138   19.8400 C   0  0  2  0  0  0
  -28.6763  -13.1747   20.9771 C   0  0  0  0  0  0
  -25.2461  -13.8172   20.5689 C   0  0  0  0  0  0
  -24.1720  -13.0444   20.9148 C   0  0  0  0  0  0
  -24.6288  -11.6909   20.8700 C   0  0  0  0  0  0
  -23.8957  -10.4306   21.0420 C   0  0  0  0  0  0
  -24.3543   -9.4219   21.9206 C   0  0  0  0  0  0
  -23.6207   -8.2262   22.0790 C   0  0  0  0  0  0
  -22.4195   -8.0318   21.3587 C   0  0  0  0  0  0
  -21.9799   -9.0270   20.4692 C   0  0  0  0  0  0
  -22.7105  -10.2144   20.3094 C   0  0  0  0  0  0
  -21.6850   -6.0716   22.5257 C   0  0  0  0  0  0
  -21.4022   -6.5628   23.8190 C   0  0  0  0  0  0
  -21.3659   -5.6764   24.9162 C   0  0  0  0  0  0
  -21.6047   -4.3026   24.7194 C   0  0  0  0  0  0
  -21.8817   -3.8116   23.4315 C   0  0  0  0  0  0
  -21.9174   -4.6938   22.3361 C   0  0  0  0  0  0
  -22.7747  -13.5297   21.1818 C   0  0  0  0  0  0
  -22.1634   -4.2143   21.0944 F   0  0  0  0  0  0
  -21.5626   -3.4522   25.7697 F   0  0  0  0  0  0
  -29.9715  -13.5178   20.3796 N   0  0  0  0  0  0
  -26.2855  -12.9313   20.3221 N   0  0  0  0  0  0
  -25.9204  -11.6499   20.5724 N   0  0  0  0  0  0
  -22.0332  -12.8390   22.0421 N   0  0  0  0  0  0
  -25.4217  -15.1905   20.4241 N   0  0  0  0  0  0
  -31.7912  -14.8599   20.2481 O   0  0  0  0  0  0
  -21.6630   -6.8864   21.4247 O   0  0  0  0  0  0
  -22.3461  -14.5585   20.6639 O   0  0  0  0  0  0
  -24.6327  -31.8537   23.1988 C   0  0  0  0  0  0
  -25.9121  -32.4755   23.8354 C   0  0  1  0  0  0
  -27.2277  -27.2434   20.1486 C   0  0  0  0  0  0
  -25.5876  -33.8560   24.2244 N   0  0  0  0  0  0
  -23.4361  -30.4745   21.5387 C   0  0  2  0  0  0
  -24.8856  -28.9106   20.1169 C   0  0  0  0  0  0
  -22.7526  -29.4607   22.4879 C   0  0  0  0  0  0
  -18.0303  -28.1420   22.8467 C   0  0  0  0  0  0
  -24.1474  -36.7295   23.2642 C   0  0  0  0  0  0
  -25.9857  -30.7518   21.3957 C   0  0  0  0  0  0
  -26.0563  -29.3748   20.7306 C   0  0  0  0  0  0
  -27.2307  -28.5556   20.7307 C   0  0  0  0  0  0
  -26.0356  -26.8430   19.5088 C   0  0  0  0  0  0
  -24.8789  -27.6518   19.4963 C   0  0  0  0  0  0
  -23.6597  -29.8045   20.1574 C   0  0  0  0  0  0
  -25.4104  -36.3076   24.0335 C   0  0  1  0  0  0
  -20.5913  -28.3741   23.1231 C   0  0  2  0  0  0
  -20.6795  -26.9434   22.5423 C   0  0  0  0  0  0
  -19.5785  -26.6381   21.5217 C   0  0  0  0  0  0
  -18.1944  -26.7974   22.1585 C   0  0  0  0  0  0
  -19.1556  -28.8893   23.2861 C   0  0  0  0  0  0
  -18.9484  -30.1484   23.8916 C   0  0  0  0  0  0
  -17.6481  -30.6614   24.0565 C   0  0  0  0  0  0
  -25.9043  -34.9441   23.5108 C   0  0  0  0  0  0
  -16.5375  -29.9116   23.6321 C   0  0  0  0  0  0
  -16.7293  -28.6526   23.0362 C   0  0  0  0  0  0
  -26.4390  -31.6672   25.0830 C   0  0  0  0  0  0
  -25.3520  -31.4035   26.1526 C   0  0  0  0  0  0
  -27.0203  -30.3029   24.6513 C   0  0  0  0  0  0
  -27.5979  -32.4419   25.7529 C   0  0  0  0  0  0
  -27.5599  -37.1779   24.8423 C   0  0  0  0  0  0
  -21.4235  -29.3067   22.3602 N   0  0  0  0  0  0
  -26.4261  -37.3791   23.9417 N   0  0  0  0  0  0
  -24.7032  -31.0478   22.0991 N   0  0  0  0  0  0
  -23.4176  -28.8128   23.3004 O   0  0  0  0  0  0
  -28.3241  -26.3487   20.1675 O   0  0  0  0  0  0
  -26.5649  -34.8918   22.4704 O   0  0  0  0  0  0
  -23.5454  -32.1346   23.7230 O   0  0  0  0  0  0
  -29.8603  -18.4059   23.0960 C   0  0  0  0  0  0
  -29.9280  -17.2089   22.3697 C   0  0  0  0  0  0
  -29.6245  -18.4941   20.3207 C   0  0  0  0  0  0
  -29.7024  -19.6602   22.4668 C   0  0  0  0  0  0
  -29.5682  -19.7640   21.0477 C   0  0  0  0  0  0
  -29.8218  -17.1944   20.9673 C   0  0  0  0  0  0
  -30.5568  -21.8609   20.0856 C   0  0  0  0  0  0
  -28.3587  -22.1482   20.6331 C   0  0  0  0  0  0
  -28.7941  -23.5912   20.0796 C   0  0  2  0  0  0
  -30.3443  -23.4127   20.0413 C   0  0  0  0  0  0
  -29.7440  -20.8743   23.3775 C   0  0  0  0  0  0
  -31.0498  -24.0440   21.2732 C   0  0  0  0  0  0
  -30.9659  -24.0261   18.7587 C   0  0  0  0  0  0
  -28.1258  -24.9513   20.7051 C   0  0  0  0  0  0
  -29.4664  -21.1377   20.4405 N   0  0  0  0  0  0
  -29.7457  -15.8536   20.3479 N   0  0  0  0  0  0
  -31.6570  -21.3654   19.8047 O   0  0  0  0  0  0
  -31.4855  -12.5876   19.1875 H   0  0  0  0  0  0
  -30.3958  -11.4844   19.9874 H   0  0  0  0  0  0
  -29.7956  -11.6729   17.5506 H   0  0  0  0  0  0
  -29.6266  -13.4054   17.7023 H   0  0  0  0  0  0
  -27.9278  -11.2411   18.9921 H   0  0  0  0  0  0
  -27.3775  -12.4121   17.8216 H   0  0  0  0  0  0
  -27.6187  -14.2196   19.4252 H   0  0  0  0  0  0
  -28.7071  -12.1858   21.4371 H   0  0  0  0  0  0
  -28.4111  -13.8747   21.7695 H   0  0  0  0  0  0
  -25.2689   -9.5686   22.4751 H   0  0  0  0  0  0
  -23.9917   -7.4652   22.7526 H   0  0  0  0  0  0
  -21.0717   -8.8773   19.9002 H   0  0  0  0  0  0
  -22.3567  -10.9681   19.6215 H   0  0  0  0  0  0
  -21.2064   -7.6128   23.9684 H   0  0  0  0  0  0
  -21.1479   -6.0499   25.9041 H   0  0  0  0  0  0
  -22.0592   -2.7596   23.2800 H   0  0  0  0  0  0
  -22.3840  -12.0063   22.4917 H   0  0  0  0  0  0
  -21.1034  -13.1624   22.2717 H   0  0  0  0  0  0
  -24.6734  -15.8496   20.5952 H   0  0  0  0  0  0
  -26.2947  -15.6369   20.1704 H   0  0  0  0  0  0
  -26.7201  -32.5340   23.1111 H   0  0  0  0  0  0
  -24.9927  -33.9690   25.0316 H   0  0  0  0  0  0
  -22.7370  -31.3001   21.3873 H   0  0  0  0  0  0
  -23.3745  -35.9605   23.3245 H   0  0  0  0  0  0
  -24.3578  -36.8984   22.2069 H   0  0  0  0  0  0
  -23.7179  -37.6464   23.6702 H   0  0  0  0  0  0
  -26.1563  -31.5137   20.6347 H   0  0  0  0  0  0
  -26.8509  -30.7788   22.0499 H   0  0  0  0  0  0
  -28.1296  -28.9051   21.2194 H   0  0  0  0  0  0
  -25.9860  -25.8777   19.0256 H   0  0  0  0  0  0
  -23.9817  -27.2890   19.0152 H   0  0  0  0  0  0
  -23.8023  -30.5807   19.4047 H   0  0  0  0  0  0
  -22.7746  -29.2483   19.8425 H   0  0  0  0  0  0
  -25.1265  -36.1941   25.0815 H   0  0  0  0  0  0
  -21.0005  -28.3357   24.1358 H   0  0  0  0  0  0
  -20.5645  -26.2371   23.3653 H   0  0  0  0  0  0
  -21.6684  -26.7411   22.1271 H   0  0  0  0  0  0
  -19.6949  -25.6264   21.1329 H   0  0  0  0  0  0
  -19.6776  -27.3118   20.6695 H   0  0  0  0  0  0
  -17.4225  -26.6728   21.3968 H   0  0  0  0  0  0
  -18.0315  -26.0131   22.8985 H   0  0  0  0  0  0
  -19.7961  -30.7294   24.2313 H   0  0  0  0  0  0
  -17.5039  -31.6305   24.5156 H   0  0  0  0  0  0
  -15.5380  -30.3025   23.7677 H   0  0  0  0  0  0
  -15.8683  -28.0847   22.7106 H   0  0  0  0  0  0
  -24.5652  -30.7413   25.7911 H   0  0  0  0  0  0
  -24.8734  -32.3298   26.4743 H   0  0  0  0  0  0
  -25.7698  -30.9367   27.0458 H   0  0  0  0  0  0
  -26.2895  -29.6866   24.1294 H   0  0  0  0  0  0
  -27.3456  -29.7283   25.5199 H   0  0  0  0  0  0
  -27.8938  -30.4205   24.0104 H   0  0  0  0  0  0
  -27.2608  -33.3690   26.2195 H   0  0  0  0  0  0
  -28.3689  -32.7067   25.0273 H   0  0  0  0  0  0
  -28.0776  -31.8526   26.5362 H   0  0  0  0  0  0
  -28.2591  -38.0103   24.7504 H   0  0  0  0  0  0
  -28.1119  -36.2653   24.6141 H   0  0  0  0  0  0
  -27.2367  -37.1317   25.8836 H   0  0  0  0  0  0
  -20.9436  -29.8763   21.6773 H   0  0  0  0  0  0
  -26.0164  -38.2855   24.1474 H   0  0  0  0  0  0
  -29.9374  -18.3439   24.1750 H   0  0  0  0  0  0
  -30.0217  -16.2790   22.9137 H   0  0  0  0  0  0
  -29.5197  -18.5198   19.2448 H   0  0  0  0  0  0
  -27.4685  -21.8003   20.1032 H   0  0  0  0  0  0
  -28.0739  -22.2097   21.6816 H   0  0  0  0  0  0
  -28.4586  -23.5962   19.0421 H   0  0  0  0  0  0
  -30.1575  -20.6198   24.3552 H   0  0  0  0  0  0
  -28.7492  -21.2864   23.5463 H   0  0  0  0  0  0
  -30.3941  -21.6425   22.9683 H   0  0  0  0  0  0
  -30.6093  -23.7207   22.2155 H   0  0  0  0  0  0
  -30.9844  -25.1332   21.2646 H   0  0  0  0  0  0
  -32.1146  -23.7957   21.3131 H   0  0  0  0  0  0
  -30.4865  -23.6536   17.8524 H   0  0  0  0  0  0
  -32.0331  -23.8095   18.6653 H   0  0  0  0  0  0
  -30.8679  -25.1136   18.7540 H   0  0  0  0  0  0
  -28.4274  -25.0108   21.7504 H   0  0  0  0  0  0
  -27.0541  -24.7583   20.7753 H   0  0  0  0  0  0
  -28.8109  -15.5770   20.0948 H   0  0  0  0  0  0
  1 25  1  0  0  0
  1 30  2  0  0  0
  1 86  1  0  0  0
  2  3  1  0  0  0
  2 25  1  0  0  0
  2 88  1  0  0  0
  2 89  1  0  0  0
  3  4  1  0  0  0
  3 90  1  0  0  0
  3 91  1  0  0  0
  4  5  1  0  0  0
  4 92  1  0  0  0
  4 93  1  0  0  0
  5  6  1  0  0  0
  5 26  1  0  0  0
  5 94  1  0  0  0
  6 25  1  0  0  0
  6 95  1  0  0  0
  6 96  1  0  0  0
  7  8  2  0  0  0
  7 26  1  0  0  0
  7 29  1  0  0  0
  8  9  1  0  0  0
  8 22  1  0  0  0
  9 10  1  0  0  0
  9 27  2  0  0  0
 10 11  2  0  0  0
 10 15  1  0  0  0
 11 12  1  0  0  0
 11 97  1  0  0  0
 12 13  2  0  0  0
 12 98  1  0  0  0
 13 14  1  0  0  0
 13 31  1  0  0  0
 14 15  2  0  0  0
 14 99  1  0  0  0
 15100  1  0  0  0
 16 17  2  0  0  0
 16 21  1  0  0  0
 16 31  1  0  0  0
 17 18  1  0  0  0
 17101  1  0  0  0
 18 19  2  0  0  0
 18102  1  0  0  0
 19 20  1  0  0  0
 19 24  1  0  0  0
 20 21  2  0  0  0
 20103  1  0  0  0
 21 23  1  0  0  0
 22 28  1  0  0  0
 22 32  2  0  0  0
 26 27  1  0  0  0
 28104  1  0  0  0
 28105  1  0  0  0
 29106  1  0  0  0
 29107  1  0  0  0
 33 34  1  0  0  0
 33 66  1  0  0  0
 33 70  2  0  0  0
 34 36  1  0  0  0
 34 59  1  0  0  0
 34108  1  0  0  0
 35 44  2  0  0  0
 35 45  1  0  0  0
 35 68  1  0  0  0
 36 56  1  0  0  0
 36109  1  0  0  0
 37 39  1  0  0  0
 37 47  1  0  0  0
 37 66  1  0  0  0
 37110  1  0  0  0
 38 43  2  0  0  0
 38 46  1  0  0  0
 38 47  1  0  0  0
 39 64  1  0  0  0
 39 67  2  0  0  0
 40 52  1  0  0  0
 40 53  2  0  0  0
 40 58  1  0  0  0
 41111  1  0  0  0
 41112  1  0  0  0
 41113  1  0  0  0
 41 48  1  0  0  0
 42 43  1  0  0  0
 42 66  1  0  0  0
 42114  1  0  0  0
 42115  1  0  0  0
 43 44  1  0  0  0
 44116  1  0  0  0
 45 46  2  0  0  0
 45117  1  0  0  0
 46118  1  0  0  0
 47119  1  0  0  0
 47120  1  0  0  0
 48 56  1  0  0  0
 48 65  1  0  0  0
 48121  1  0  0  0
 49 50  1  0  0  0
 49 53  1  0  0  0
 49 64  1  0  0  0
 49122  1  0  0  0
 50 51  1  0  0  0
 50123  1  0  0  0
 50124  1  0  0  0
 51 52  1  0  0  0
 51125  1  0  0  0
 51126  1  0  0  0
 52127  1  0  0  0
 52128  1  0  0  0
 53 54  1  0  0  0
 54 55  2  0  0  0
 54129  1  0  0  0
 55 57  1  0  0  0
 55130  1  0  0  0
 56 69  2  0  0  0
 57 58  2  0  0  0
 57131  1  0  0  0
 58132  1  0  0  0
 59 60  1  0  0  0
 59 61  1  0  0  0
 59 62  1  0  0  0
 60133  1  0  0  0
 60134  1  0  0  0
 60135  1  0  0  0
 61136  1  0  0  0
 61137  1  0  0  0
 61138  1  0  0  0
 62139  1  0  0  0
 62140  1  0  0  0
 62141  1  0  0  0
 63 65  1  0  0  0
 63142  1  0  0  0
 63143  1  0  0  0
 63144  1  0  0  0
 64145  1  0  0  0
 65146  1  0  0  0
 68 84  1  0  0  0
 71 72  2  0  0  0
 71 74  1  0  0  0
 71147  1  0  0  0
 72 76  1  0  0  0
 72148  1  0  0  0
 73 75  1  0  0  0
 73 76  2  0  0  0
 73149  1  0  0  0
 74 75  2  0  0  0
 74 81  1  0  0  0
 75 85  1  0  0  0
 76 86  1  0  0  0
 77 80  1  0  0  0
 77 85  1  0  0  0
 77 87  2  0  0  0
 78 79  1  0  0  0
 78 85  1  0  0  0
 78150  1  0  0  0
 78151  1  0  0  0
 79 80  1  0  0  0
 79 84  1  0  0  0
 79152  1  0  0  0
 80 82  1  0  0  0
 80 83  1  0  0  0
 81153  1  0  0  0
 81154  1  0  0  0
 81155  1  0  0  0
 82156  1  0  0  0
 82157  1  0  0  0
 82158  1  0  0  0
 83159  1  0  0  0
 83160  1  0  0  0
 83161  1  0  0  0
 84162  1  0  0  0
 84163  1  0  0  0
 86164  1  0  0  0
M  ISO  4   1 100  68 101  84 101  86 100
M  END
> <chiral flag>
0

> <version>
0

> <s_m_source_file>
/data/baiqing/PycharmProjects/Reinvent-master-3.2/result/LINK_invent/BTK/process_docking_weight1_custom_product_contain_oxygen_bond_distance_aromatic_linkinvent_7_9_3/rearranged_h_0065.sdf

> <i_m_source_file_index>
15

> <r_mmod_Potential_Energy-OPLS-2005>
378.845123291016

> <r_mmod_Stretch_Energy-OPLS-2005>
135.565521240234

> <r_mmod_Bend_Energy-OPLS-2005>
196.571594238281

> <r_mmod_Torsional_Energy-OPLS-2005>
365.856262207031

> <r_mmod_Improper_Torsional_Energy-OPLS-2005>
14.0945405960083

> <r_mmod_Van_der_Waal_Energy-OPLS-2005>
128.695510864258

> <r_mmod_Electrostatic_Energy-OPLS-2005>
-335.531463623047

> <r_mmod_Solvation_Energy-OPLS-2005>
-225.99153137207

> <b_mmod_Minimization_Converged-OPLS-2005>
0

> <r_mmod_RMS_Derivative-OPLS-2005>
6.62829875946045

$$$$
15
                    3D
 Structure written by MMmdl.
154162  0  0  1  0            999 V2000
  -30.7248  -14.4752   20.5724 C   0  0  0  0  0  0
  -30.4145  -12.3111   19.4255 C   0  0  0  0  0  0
  -29.4911  -12.4986   18.2059 C   0  0  0  0  0  0
  -28.0132  -12.3622   18.6195 C   0  0  0  0  0  0
  -27.6576  -13.2118   19.8690 C   0  0  2  0  0  0
  -28.7011  -13.0210   20.9932 C   0  0  0  0  0  0
  -25.2575  -13.8172   20.5682 C   0  0  0  0  0  0
  -24.1837  -13.0444   20.9184 C   0  0  0  0  0  0
  -24.6394  -11.6910   20.8736 C   0  0  0  0  0  0
  -23.9066  -10.4294   21.0409 C   0  0  0  0  0  0
  -24.3617   -9.4208   21.9189 C   0  0  0  0  0  0
  -23.6290   -8.2244   22.0756 C   0  0  0  0  0  0
  -22.4274   -8.0284   21.3543 C   0  0  0  0  0  0
  -21.9915   -9.0258   20.4645 C   0  0  0  0  0  0
  -22.7240  -10.2137   20.3055 C   0  0  0  0  0  0
  -21.6851   -6.0740   22.5279 C   0  0  0  0  0  0
  -21.4012   -6.5642   23.8213 C   0  0  0  0  0  0
  -21.3657   -5.6795   24.9175 C   0  0  0  0  0  0
  -21.6044   -4.3059   24.7226 C   0  0  0  0  0  0
  -21.8820   -3.8152   23.4346 C   0  0  0  0  0  0
  -21.9192   -4.6968   22.3402 C   0  0  0  0  0  0
  -22.7861  -13.5236   21.1854 C   0  0  0  0  0  0
  -22.1661   -4.2153   21.0980 F   0  0  0  0  0  0
  -21.5629   -3.4543   25.7738 F   0  0  0  0  0  0
  -30.0280  -13.3144   20.4305 N   0  0  0  0  0  0
  -26.3008  -12.9350   20.3348 N   0  0  0  0  0  0
  -25.9320  -11.6507   20.5763 N   0  0  0  0  0  0
  -22.0509  -12.8216   22.0405 N   0  0  0  0  0  0
  -25.4295  -15.1894   20.4077 N   0  0  0  0  0  0
  -31.8603  -14.6202   20.1115 O   0  0  0  0  0  0
  -21.6637   -6.8882   21.4242 O   0  0  0  0  0  0
  -22.3545  -14.5547   20.6710 O   0  0  0  0  0  0
  -24.6176  -31.8679   23.2115 C   0  0  0  0  0  0
  -25.9063  -32.4821   23.8408 C   0  0  1  0  0  0
  -27.2228  -27.4092   20.0928 C   0  0  0  0  0  0
  -25.5914  -33.8621   24.2337 N   0  0  0  0  0  0
  -23.4052  -30.4951   21.5533 C   0  0  2  0  0  0
  -24.8483  -28.9666   20.1110 C   0  0  0  0  0  0
  -22.7424  -29.4663   22.4985 C   0  0  0  0  0  0
  -18.0275  -28.1381   22.8498 C   0  0  0  0  0  0
  -24.1487  -36.7308   23.2641 C   0  0  0  0  0  0
  -25.9393  -30.8251   21.3707 C   0  0  0  0  0  0
  -26.0132  -29.4610   20.7110 C   0  0  0  0  0  0
  -27.2032  -28.6909   20.6984 C   0  0  0  0  0  0
  -26.0369  -26.9512   19.4670 C   0  0  0  0  0  0
  -24.8571  -27.7122   19.4847 C   0  0  0  0  0  0
  -23.6125  -29.8352   20.1658 C   0  0  0  0  0  0
  -25.4109  -36.3112   24.0339 C   0  0  1  0  0  0
  -20.5870  -28.3676   23.1311 C   0  0  2  0  0  0
  -20.6766  -26.9411   22.5414 C   0  0  0  0  0  0
  -19.5737  -26.6385   21.5216 C   0  0  0  0  0  0
  -18.1918  -26.7929   22.1626 C   0  0  0  0  0  0
  -19.1527  -28.8845   23.2898 C   0  0  0  0  0  0
  -18.9453  -30.1452   23.8905 C   0  0  0  0  0  0
  -17.6454  -30.6590   24.0564 C   0  0  0  0  0  0
  -25.9038  -34.9476   23.5132 C   0  0  0  0  0  0
  -16.5345  -29.9089   23.6330 C   0  0  0  0  0  0
  -16.7263  -28.6504   23.0356 C   0  0  0  0  0  0
  -26.4482  -31.6599   25.0740 C   0  0  0  0  0  0
  -25.3736  -31.3682   26.1473 C   0  0  0  0  0  0
  -27.0337  -30.3050   24.6132 C   0  0  0  0  0  0
  -27.6051  -32.4325   25.7506 C   0  0  0  0  0  0
  -27.5583  -37.1808   24.8468 C   0  0  0  0  0  0
  -21.4150  -29.3042   22.3719 N   0  0  0  0  0  0
  -26.4297  -37.3798   23.9410 N   0  0  0  0  0  0
  -24.6726  -31.0766   22.1028 N   0  0  0  0  0  0
  -23.4190  -28.8193   23.3022 O   0  0  0  0  0  0
  -28.3695  -26.6269   20.1391 O   0  0  0  0  0  0
  -26.5595  -34.8926   22.4690 O   0  0  0  0  0  0
  -23.5361  -32.1444   23.7494 O   0  0  0  0  0  0
  -29.8930  -18.0109   21.0054 C   0  0  0  0  0  0
  -31.6819  -19.3808   21.9319 C   0  0  0  0  0  0
  -31.8295  -16.9490   22.0410 C   0  0  0  0  0  0
  -30.4319  -19.3048   21.2663 C   0  0  0  0  0  0
  -30.5928  -16.8257   21.3682 C   0  0  0  0  0  0
  -32.3684  -18.2161   22.3183 C   0  0  0  0  0  0
  -29.9748  -21.7910   20.9581 C   0  0  0  0  0  0
  -28.9589  -22.7798   20.3493 C   0  0  0  0  0  0
  -29.2982  -24.2961   20.5105 C   0  0  0  0  0  0
  -28.1806  -25.2056   19.9489 C   0  0  0  0  0  0
  -29.6948  -20.4686   20.8367 N   0  0  0  0  0  0
  -30.0499  -15.5253   21.0922 N   0  0  0  0  0  0
  -30.9749  -22.2385   21.5221 O   0  0  0  0  0  0
  -33.5573  -18.3154   22.9602 F   0  0  0  0  0  0
  -31.4600  -12.3949   19.1242 H   0  0  0  0  0  0
  -30.3052  -11.3071   19.8387 H   0  0  0  0  0  0
  -29.7311  -11.7651   17.4352 H   0  0  0  0  0  0
  -29.6612  -13.4800   17.7597 H   0  0  0  0  0  0
  -27.8236  -11.3075   18.8227 H   0  0  0  0  0  0
  -27.3630  -12.6308   17.7862 H   0  0  0  0  0  0
  -27.6935  -14.2554   19.5556 H   0  0  0  0  0  0
  -28.6794  -11.9953   21.3644 H   0  0  0  0  0  0
  -28.4661  -13.6496   21.8535 H   0  0  0  0  0  0
  -25.2764   -9.5686   22.4763 H   0  0  0  0  0  0
  -24.0003   -7.4638   22.7476 H   0  0  0  0  0  0
  -21.0851   -8.8775   19.8946 H   0  0  0  0  0  0
  -22.3705  -10.9677   19.6161 H   0  0  0  0  0  0
  -21.2004   -7.6152   23.9716 H   0  0  0  0  0  0
  -21.1480   -6.0526   25.9076 H   0  0  0  0  0  0
  -22.0601   -2.7614   23.2844 H   0  0  0  0  0  0
  -22.4126  -11.9856   22.4756 H   0  0  0  0  0  0
  -21.1133  -13.1242   22.2634 H   0  0  0  0  0  0
  -24.6634  -15.8460   20.5126 H   0  0  0  0  0  0
  -26.2796  -15.6255   20.0736 H   0  0  0  0  0  0
  -26.7131  -32.5528   23.1168 H   0  0  0  0  0  0
  -25.0075  -33.9783   25.0489 H   0  0  0  0  0  0
  -22.6945  -31.3132   21.4179 H   0  0  0  0  0  0
  -23.3760  -35.9630   23.3304 H   0  0  0  0  0  0
  -24.3573  -36.8928   22.2054 H   0  0  0  0  0  0
  -23.7227  -37.6506   23.6658 H   0  0  0  0  0  0
  -26.0602  -31.5944   20.6067 H   0  0  0  0  0  0
  -26.8241  -30.8710   21.9938 H   0  0  0  0  0  0
  -28.0986  -29.0654   21.1748 H   0  0  0  0  0  0
  -25.9921  -25.9994   18.9586 H   0  0  0  0  0  0
  -23.9647  -27.3289   19.0092 H   0  0  0  0  0  0
  -23.7211  -30.6137   19.4098 H   0  0  0  0  0  0
  -22.7344  -29.2585   19.8696 H   0  0  0  0  0  0
  -25.1282  -36.1981   25.0833 H   0  0  0  0  0  0
  -20.9959  -28.3246   24.1430 H   0  0  0  0  0  0
  -20.5686  -26.2279   23.3601 H   0  0  0  0  0  0
  -21.6633  -26.7459   22.1199 H   0  0  0  0  0  0
  -19.6900  -25.6299   21.1236 H   0  0  0  0  0  0
  -19.6673  -27.3197   20.6750 H   0  0  0  0  0  0
  -17.4192  -26.6700   21.4021 H   0  0  0  0  0  0
  -18.0300  -26.0064   22.9013 H   0  0  0  0  0  0
  -19.7930  -30.7269   24.2271 H   0  0  0  0  0  0
  -17.5013  -31.6271   24.5169 H   0  0  0  0  0  0
  -15.5346  -30.2992   23.7651 H   0  0  0  0  0  0
  -15.8666  -28.0822   22.7067 H   0  0  0  0  0  0
  -24.5924  -30.7023   25.7788 H   0  0  0  0  0  0
  -24.8906  -32.2826   26.4934 H   0  0  0  0  0  0
  -25.8087  -30.8836   27.0225 H   0  0  0  0  0  0
  -26.2900  -29.6787   24.1196 H   0  0  0  0  0  0
  -27.4124  -29.7306   25.4597 H   0  0  0  0  0  0
  -27.8720  -30.4380   23.9291 H   0  0  0  0  0  0
  -27.2673  -33.3618   26.2106 H   0  0  0  0  0  0
  -28.3848  -32.6898   25.0324 H   0  0  0  0  0  0
  -28.0737  -31.8439   26.5403 H   0  0  0  0  0  0
  -28.2600  -38.0108   24.7539 H   0  0  0  0  0  0
  -28.1084  -36.2642   24.6280 H   0  0  0  0  0  0
  -27.2295  -37.1443   25.8870 H   0  0  0  0  0  0
  -20.9309  -29.8772   21.6950 H   0  0  0  0  0  0
  -26.0191  -38.2878   24.1417 H   0  0  0  0  0  0
  -28.9417  -17.9244   20.4995 H   0  0  0  0  0  0
  -32.1545  -20.3197   22.1669 H   0  0  0  0  0  0
  -32.3812  -16.0734   22.3507 H   0  0  0  0  0  0
  -27.9905  -22.5789   20.8087 H   0  0  0  0  0  0
  -28.8520  -22.5453   19.2899 H   0  0  0  0  0  0
  -30.2408  -24.5221   20.0108 H   0  0  0  0  0  0
  -29.4451  -24.5253   21.5667 H   0  0  0  0  0  0
  -27.2597  -24.8882   20.4419 H   0  0  0  0  0  0
  -28.0625  -25.0063   18.8826 H   0  0  0  0  0  0
  -28.8280  -20.2736   20.3538 H   0  0  0  0  0  0
  -29.0637  -15.3880   21.2552 H   0  0  0  0  0  0
  1 25  1  0  0  0
  1 30  2  0  0  0
  1 82  1  0  0  0
  2  3  1  0  0  0
  2 25  1  0  0  0
  2 85  1  0  0  0
  2 86  1  0  0  0
  3  4  1  0  0  0
  3 87  1  0  0  0
  3 88  1  0  0  0
  4  5  1  0  0  0
  4 89  1  0  0  0
  4 90  1  0  0  0
  5  6  1  0  0  0
  5 26  1  0  0  0
  5 91  1  0  0  0
  6 25  1  0  0  0
  6 92  1  0  0  0
  6 93  1  0  0  0
  7  8  2  0  0  0
  7 26  1  0  0  0
  7 29  1  0  0  0
  8  9  1  0  0  0
  8 22  1  0  0  0
  9 10  1  0  0  0
  9 27  2  0  0  0
 10 11  2  0  0  0
 10 15  1  0  0  0
 11 12  1  0  0  0
 11 94  1  0  0  0
 12 13  2  0  0  0
 12 95  1  0  0  0
 13 14  1  0  0  0
 13 31  1  0  0  0
 14 15  2  0  0  0
 14 96  1  0  0  0
 15 97  1  0  0  0
 16 17  2  0  0  0
 16 21  1  0  0  0
 16 31  1  0  0  0
 17 18  1  0  0  0
 17 98  1  0  0  0
 18 19  2  0  0  0
 18 99  1  0  0  0
 19 20  1  0  0  0
 19 24  1  0  0  0
 20 21  2  0  0  0
 20100  1  0  0  0
 21 23  1  0  0  0
 22 28  1  0  0  0
 22 32  2  0  0  0
 26 27  1  0  0  0
 28101  1  0  0  0
 28102  1  0  0  0
 29103  1  0  0  0
 29104  1  0  0  0
 33 34  1  0  0  0
 33 66  1  0  0  0
 33 70  2  0  0  0
 34 36  1  0  0  0
 34 59  1  0  0  0
 34105  1  0  0  0
 35 44  2  0  0  0
 35 45  1  0  0  0
 35 68  1  0  0  0
 36 56  1  0  0  0
 36106  1  0  0  0
 37 39  1  0  0  0
 37 47  1  0  0  0
 37 66  1  0  0  0
 37107  1  0  0  0
 38 43  2  0  0  0
 38 46  1  0  0  0
 38 47  1  0  0  0
 39 64  1  0  0  0
 39 67  2  0  0  0
 40 52  1  0  0  0
 40 53  2  0  0  0
 40 58  1  0  0  0
 41108  1  0  0  0
 41109  1  0  0  0
 41110  1  0  0  0
 41 48  1  0  0  0
 42 43  1  0  0  0
 42 66  1  0  0  0
 42111  1  0  0  0
 42112  1  0  0  0
 43 44  1  0  0  0
 44113  1  0  0  0
 45 46  2  0  0  0
 45114  1  0  0  0
 46115  1  0  0  0
 47116  1  0  0  0
 47117  1  0  0  0
 48 56  1  0  0  0
 48 65  1  0  0  0
 48118  1  0  0  0
 49 50  1  0  0  0
 49 53  1  0  0  0
 49 64  1  0  0  0
 49119  1  0  0  0
 50 51  1  0  0  0
 50120  1  0  0  0
 50121  1  0  0  0
 51 52  1  0  0  0
 51122  1  0  0  0
 51123  1  0  0  0
 52124  1  0  0  0
 52125  1  0  0  0
 53 54  1  0  0  0
 54 55  2  0  0  0
 54126  1  0  0  0
 55 57  1  0  0  0
 55127  1  0  0  0
 56 69  2  0  0  0
 57 58  2  0  0  0
 57128  1  0  0  0
 58129  1  0  0  0
 59 60  1  0  0  0
 59 61  1  0  0  0
 59 62  1  0  0  0
 60130  1  0  0  0
 60131  1  0  0  0
 60132  1  0  0  0
 61133  1  0  0  0
 61134  1  0  0  0
 61135  1  0  0  0
 62136  1  0  0  0
 62137  1  0  0  0
 62138  1  0  0  0
 63 65  1  0  0  0
 63139  1  0  0  0
 63140  1  0  0  0
 63141  1  0  0  0
 64142  1  0  0  0
 65143  1  0  0  0
 68 80  1  0  0  0
 71 74  2  0  0  0
 71 75  1  0  0  0
 71144  1  0  0  0
 72 74  1  0  0  0
 72 76  2  0  0  0
 72145  1  0  0  0
 73 75  2  0  0  0
 73 76  1  0  0  0
 73146  1  0  0  0
 74 81  1  0  0  0
 75 82  1  0  0  0
 76 84  1  0  0  0
 77 78  1  0  0  0
 77 81  1  0  0  0
 77 83  2  0  0  0
 78 79  1  0  0  0
 78147  1  0  0  0
 78148  1  0  0  0
 79 80  1  0  0  0
 79149  1  0  0  0
 79150  1  0  0  0
 80151  1  0  0  0
 80152  1  0  0  0
 81153  1  0  0  0
 82154  1  0  0  0
M  ISO  4   1 100  68 101  80 101  82 100
M  END
> <chiral flag>
0

> <version>
0

> <s_m_source_file>
/data/baiqing/PycharmProjects/Reinvent-master-3.2/result/LINK_invent/BTK/process_docking_weight1_custom_product_contain_oxygen_bond_distance_aromatic_linkinvent_7_9_3/rearranged_h_0065.sdf

> <i_m_source_file_index>
16

> <r_mmod_Potential_Energy-OPLS-2005>
-62.6146697998047

> <r_mmod_Stretch_Energy-OPLS-2005>
43.7333145141602

> <r_mmod_Bend_Energy-OPLS-2005>
102.348609924316

> <r_mmod_Torsional_Energy-OPLS-2005>
222.774551391602

> <r_mmod_Improper_Torsional_Energy-OPLS-2005>
3.56471538543701

> <r_mmod_Van_der_Waal_Energy-OPLS-2005>
166.739700317383

> <r_mmod_Electrostatic_Energy-OPLS-2005>
-380.463653564453

> <r_mmod_Solvation_Energy-OPLS-2005>
-238.869659423828

> <b_mmod_Minimization_Converged-OPLS-2005>
0

> <r_mmod_RMS_Derivative-OPLS-2005>
0.624959111213684

$$$$
16
                    3D
 Structure written by MMmdl.
156164  0  0  1  0            999 V2000
  -30.6605  -14.5312   20.4867 C   0  0  0  0  0  0
  -30.4227  -12.3151   19.4497 C   0  0  0  0  0  0
  -29.5018  -12.4863   18.2229 C   0  0  0  0  0  0
  -28.0228  -12.3434   18.6331 C   0  0  0  0  0  0
  -27.6578  -13.2068   19.8708 C   0  0  2  0  0  0
  -28.6983  -13.0342   21.0010 C   0  0  0  0  0  0
  -25.2575  -13.8156   20.5690 C   0  0  0  0  0  0
  -24.1826  -13.0434   20.9182 C   0  0  0  0  0  0
  -24.6379  -11.6902   20.8745 C   0  0  0  0  0  0
  -23.9049  -10.4288   21.0403 C   0  0  0  0  0  0
  -24.3605   -9.4203   21.9176 C   0  0  0  0  0  0
  -23.6281   -8.2241   22.0748 C   0  0  0  0  0  0
  -22.4265   -8.0276   21.3542 C   0  0  0  0  0  0
  -21.9899   -9.0248   20.4642 C   0  0  0  0  0  0
  -22.7224  -10.2128   20.3049 C   0  0  0  0  0  0
  -21.6853   -6.0723   22.5273 C   0  0  0  0  0  0
  -21.4015   -6.5630   23.8206 C   0  0  0  0  0  0
  -21.3662   -5.6786   24.9173 C   0  0  0  0  0  0
  -21.6044   -4.3051   24.7228 C   0  0  0  0  0  0
  -21.8821   -3.8136   23.4355 C   0  0  0  0  0  0
  -21.9191   -4.6946   22.3404 C   0  0  0  0  0  0
  -22.7853  -13.5227   21.1857 C   0  0  0  0  0  0
  -22.1659   -4.2129   21.0982 F   0  0  0  0  0  0
  -21.5634   -3.4539   25.7747 F   0  0  0  0  0  0
  -30.0251  -13.3284   20.4414 N   0  0  0  0  0  0
  -26.3003  -12.9324   20.3364 N   0  0  0  0  0  0
  -25.9309  -11.6487   20.5787 N   0  0  0  0  0  0
  -22.0502  -12.8206   22.0416 N   0  0  0  0  0  0
  -25.4317  -15.1875   20.4112 N   0  0  0  0  0  0
  -31.8310  -14.6703   20.1191 O   0  0  0  0  0  0
  -21.6643   -6.8865   21.4236 O   0  0  0  0  0  0
  -22.3535  -14.5537   20.6712 O   0  0  0  0  0  0
  -24.6194  -31.8664   23.2088 C   0  0  0  0  0  0
  -25.9070  -32.4812   23.8404 C   0  0  1  0  0  0
  -27.2237  -27.3905   20.0922 C   0  0  0  0  0  0
  -25.5915  -33.8614   24.2341 N   0  0  0  0  0  0
  -23.4075  -30.4928   21.5511 C   0  0  2  0  0  0
  -24.8473  -28.9536   20.1158 C   0  0  0  0  0  0
  -22.7419  -29.4681   22.4978 C   0  0  0  0  0  0
  -18.0292  -28.1387   22.8478 C   0  0  0  0  0  0
  -24.1484  -36.7313   23.2639 C   0  0  0  0  0  0
  -25.9406  -30.8171   21.3679 C   0  0  0  0  0  0
  -26.0129  -29.4493   20.7115 C   0  0  0  0  0  0
  -27.2005  -28.6760   20.6939 C   0  0  0  0  0  0
  -26.0256  -26.9132   19.5077 C   0  0  0  0  0  0
  -24.8512  -27.6863   19.5125 C   0  0  0  0  0  0
  -23.6151  -29.8287   20.1653 C   0  0  0  0  0  0
  -25.4104  -36.3111   24.0344 C   0  0  1  0  0  0
  -20.5876  -28.3698   23.1303 C   0  0  2  0  0  0
  -20.6790  -26.9437   22.5416 C   0  0  0  0  0  0
  -19.5773  -26.6395   21.5215 C   0  0  0  0  0  0
  -18.1945  -26.7932   22.1628 C   0  0  0  0  0  0
  -19.1537  -28.8858   23.2885 C   0  0  0  0  0  0
  -18.9459  -30.1455   23.8906 C   0  0  0  0  0  0
  -17.6456  -30.6581   24.0571 C   0  0  0  0  0  0
  -25.9038  -34.9470   23.5140 C   0  0  0  0  0  0
  -16.5358  -29.9083   23.6319 C   0  0  0  0  0  0
  -16.7281  -28.6507   23.0331 C   0  0  0  0  0  0
  -26.4487  -31.6595   25.0744 C   0  0  0  0  0  0
  -25.3755  -31.3696   26.1494 C   0  0  0  0  0  0
  -27.0319  -30.3035   24.6134 C   0  0  0  0  0  0
  -27.6064  -32.4317   25.7505 C   0  0  0  0  0  0
  -27.5584  -37.1812   24.8469 C   0  0  0  0  0  0
  -21.4147  -29.3070   22.3709 N   0  0  0  0  0  0
  -26.4299  -37.3792   23.9410 N   0  0  0  0  0  0
  -24.6750  -31.0735   22.1015 N   0  0  0  0  0  0
  -23.4170  -28.8217   23.3033 O   0  0  0  0  0  0
  -28.4040  -26.6576   20.1056 O   0  0  0  0  0  0
  -26.5588  -34.8917   22.4700 O   0  0  0  0  0  0
  -23.5378  -32.1451   23.7447 O   0  0  0  0  0  0
  -30.4393  -17.0454   18.8269 C   0  0  0  0  0  0
  -30.4575  -18.3003   18.1998 C   0  0  0  0  0  0
  -29.4052  -18.0663   20.7767 C   0  0  0  0  0  0
  -29.4241  -19.3691   20.1678 C   0  0  0  0  0  0
  -29.9303  -16.9042   20.1373 C   0  0  0  0  0  0
  -29.9761  -19.4461   18.8576 C   0  0  0  0  0  0
  -28.9143  -20.6217   20.8725 C   0  0  0  0  0  0
  -28.4907  -24.1879   20.5711 C   0  0  0  0  0  0
  -26.4352  -22.7014   21.1042 C   0  0  0  0  0  0
  -28.4686  -25.3293   19.5184 C   0  0  0  0  0  0
  -27.7106  -22.8721   20.2528 C   0  0  2  0  0  0
  -29.8781  -15.6054   20.7687 N   0  0  0  0  0  0
  -28.5116  -21.6279   20.0308 N   0  0  0  0  0  0
  -29.1077  -24.3503   21.6287 O   0  0  0  0  0  0
  -30.0472  -20.6243   18.1882 F   0  0  0  0  0  0
  -28.8637  -20.7098   22.5448 S   0  0  0  0  0  0
  -31.4707  -12.4019   19.1564 H   0  0  0  0  0  0
  -30.3168  -11.3146   19.8710 H   0  0  0  0  0  0
  -29.7527  -11.7492   17.4585 H   0  0  0  0  0  0
  -29.6663  -13.4650   17.7703 H   0  0  0  0  0  0
  -27.8440  -11.2899   18.8530 H   0  0  0  0  0  0
  -27.3714  -12.5918   17.7953 H   0  0  0  0  0  0
  -27.6898  -14.2455   19.5424 H   0  0  0  0  0  0
  -28.6806  -12.0150   21.3889 H   0  0  0  0  0  0
  -28.4660  -13.6784   21.8506 H   0  0  0  0  0  0
  -25.2753   -9.5683   22.4750 H   0  0  0  0  0  0
  -23.9991   -7.4633   22.7470 H   0  0  0  0  0  0
  -21.0826   -8.8756   19.8956 H   0  0  0  0  0  0
  -22.3669  -10.9660   19.6157 H   0  0  0  0  0  0
  -21.2012   -7.6139   23.9701 H   0  0  0  0  0  0
  -21.1484   -6.0525   25.9073 H   0  0  0  0  0  0
  -22.0601   -2.7598   23.2864 H   0  0  0  0  0  0
  -22.4117  -11.9849   22.4771 H   0  0  0  0  0  0
  -21.1129  -13.1232   22.2655 H   0  0  0  0  0  0
  -24.6691  -15.8457   20.5278 H   0  0  0  0  0  0
  -26.2860  -15.6272   20.0926 H   0  0  0  0  0  0
  -26.7143  -32.5504   23.1166 H   0  0  0  0  0  0
  -25.0087  -33.9797   25.0498 H   0  0  0  0  0  0
  -22.7009  -31.3137   21.4132 H   0  0  0  0  0  0
  -23.3746  -35.9649   23.3310 H   0  0  0  0  0  0
  -24.3577  -36.8917   22.2053 H   0  0  0  0  0  0
  -23.7237  -37.6523   23.6642 H   0  0  0  0  0  0
  -26.0639  -31.5837   20.6012 H   0  0  0  0  0  0
  -26.8261  -30.8664   21.9906 H   0  0  0  0  0  0
  -28.1012  -29.0584   21.1524 H   0  0  0  0  0  0
  -25.9469  -25.9419   19.0463 H   0  0  0  0  0  0
  -23.9522  -27.2954   19.0564 H   0  0  0  0  0  0
  -23.7304  -30.6066   19.4094 H   0  0  0  0  0  0
  -22.7348  -29.2570   19.8649 H   0  0  0  0  0  0
  -25.1275  -36.1995   25.0839 H   0  0  0  0  0  0
  -20.9978  -28.3294   24.1419 H   0  0  0  0  0  0
  -20.5699  -26.2329   23.3617 H   0  0  0  0  0  0
  -21.6667  -26.7497   22.1210 H   0  0  0  0  0  0
  -19.6951  -25.6298   21.1281 H   0  0  0  0  0  0
  -19.6722  -27.3188   20.6733 H   0  0  0  0  0  0
  -17.4216  -26.6676   21.4024 H   0  0  0  0  0  0
  -18.0345  -26.0070   22.9018 H   0  0  0  0  0  0
  -19.7932  -30.7284   24.2277 H   0  0  0  0  0  0
  -17.5003  -31.6254   24.5183 H   0  0  0  0  0  0
  -15.5353  -30.2992   23.7614 H   0  0  0  0  0  0
  -15.8685  -28.0834   22.7031 H   0  0  0  0  0  0
  -24.5932  -30.7034   25.7841 H   0  0  0  0  0  0
  -24.8936  -32.2837   26.4963 H   0  0  0  0  0  0
  -25.8118  -30.8865   27.0244 H   0  0  0  0  0  0
  -26.2867  -29.6795   24.1182 H   0  0  0  0  0  0
  -27.4083  -29.7276   25.4600 H   0  0  0  0  0  0
  -27.8707  -30.4357   23.9297 H   0  0  0  0  0  0
  -27.2690  -33.3608   26.2109 H   0  0  0  0  0  0
  -28.3853  -32.6890   25.0318 H   0  0  0  0  0  0
  -28.0750  -31.8427   26.5398 H   0  0  0  0  0  0
  -28.2608  -38.0100   24.7502 H   0  0  0  0  0  0
  -28.1074  -36.2635   24.6308 H   0  0  0  0  0  0
  -27.2302  -37.1473   25.8871 H   0  0  0  0  0  0
  -20.9311  -29.8779   21.6913 H   0  0  0  0  0  0
  -26.0195  -38.2881   24.1386 H   0  0  0  0  0  0
  -30.8106  -16.1958   18.2715 H   0  0  0  0  0  0
  -30.8481  -18.3885   17.1966 H   0  0  0  0  0  0
  -28.9850  -17.9503   21.7645 H   0  0  0  0  0  0
  -26.6525  -22.6214   22.1678 H   0  0  0  0  0  0
  -25.8634  -21.8253   20.8001 H   0  0  0  0  0  0
  -25.7853  -23.5691   20.9895 H   0  0  0  0  0  0
  -27.7229  -25.1387   18.7506 H   0  0  0  0  0  0
  -29.4206  -25.2721   18.9918 H   0  0  0  0  0  0
  -27.3096  -23.0334   19.2514 H   0  0  0  0  0  0
  -29.0297  -15.3964   21.2732 H   0  0  0  0  0  0
  -28.7462  -21.4571   19.0579 H   0  0  0  0  0  0
  1 25  1  0  0  0
  1 30  2  0  0  0
  1 82  1  0  0  0
  2  3  1  0  0  0
  2 25  1  0  0  0
  2 87  1  0  0  0
  2 88  1  0  0  0
  3  4  1  0  0  0
  3 89  1  0  0  0
  3 90  1  0  0  0
  4  5  1  0  0  0
  4 91  1  0  0  0
  4 92  1  0  0  0
  5  6  1  0  0  0
  5 26  1  0  0  0
  5 93  1  0  0  0
  6 25  1  0  0  0
  6 94  1  0  0  0
  6 95  1  0  0  0
  7  8  2  0  0  0
  7 26  1  0  0  0
  7 29  1  0  0  0
  8  9  1  0  0  0
  8 22  1  0  0  0
  9 10  1  0  0  0
  9 27  2  0  0  0
 10 11  2  0  0  0
 10 15  1  0  0  0
 11 12  1  0  0  0
 11 96  1  0  0  0
 12 13  2  0  0  0
 12 97  1  0  0  0
 13 14  1  0  0  0
 13 31  1  0  0  0
 14 15  2  0  0  0
 14 98  1  0  0  0
 15 99  1  0  0  0
 16 17  2  0  0  0
 16 21  1  0  0  0
 16 31  1  0  0  0
 17 18  1  0  0  0
 17100  1  0  0  0
 18 19  2  0  0  0
 18101  1  0  0  0
 19 20  1  0  0  0
 19 24  1  0  0  0
 20 21  2  0  0  0
 20102  1  0  0  0
 21 23  1  0  0  0
 22 28  1  0  0  0
 22 32  2  0  0  0
 26 27  1  0  0  0
 28103  1  0  0  0
 28104  1  0  0  0
 29105  1  0  0  0
 29106  1  0  0  0
 33 34  1  0  0  0
 33 66  1  0  0  0
 33 70  2  0  0  0
 34 36  1  0  0  0
 34 59  1  0  0  0
 34107  1  0  0  0
 35 44  2  0  0  0
 35 45  1  0  0  0
 35 68  1  0  0  0
 36 56  1  0  0  0
 36108  1  0  0  0
 37 39  1  0  0  0
 37 47  1  0  0  0
 37 66  1  0  0  0
 37109  1  0  0  0
 38 43  2  0  0  0
 38 46  1  0  0  0
 38 47  1  0  0  0
 39 64  1  0  0  0
 39 67  2  0  0  0
 40 52  1  0  0  0
 40 53  2  0  0  0
 40 58  1  0  0  0
 41110  1  0  0  0
 41111  1  0  0  0
 41112  1  0  0  0
 41 48  1  0  0  0
 42 43  1  0  0  0
 42 66  1  0  0  0
 42113  1  0  0  0
 42114  1  0  0  0
 43 44  1  0  0  0
 44115  1  0  0  0
 45 46  2  0  0  0
 45116  1  0  0  0
 46117  1  0  0  0
 47118  1  0  0  0
 47119  1  0  0  0
 48 56  1  0  0  0
 48 65  1  0  0  0
 48120  1  0  0  0
 49 50  1  0  0  0
 49 53  1  0  0  0
 49 64  1  0  0  0
 49121  1  0  0  0
 50 51  1  0  0  0
 50122  1  0  0  0
 50123  1  0  0  0
 51 52  1  0  0  0
 51124  1  0  0  0
 51125  1  0  0  0
 52126  1  0  0  0
 52127  1  0  0  0
 53 54  1  0  0  0
 54 55  2  0  0  0
 54128  1  0  0  0
 55 57  1  0  0  0
 55129  1  0  0  0
 56 69  2  0  0  0
 57 58  2  0  0  0
 57130  1  0  0  0
 58131  1  0  0  0
 59 60  1  0  0  0
 59 61  1  0  0  0
 59 62  1  0  0  0
 60132  1  0  0  0
 60133  1  0  0  0
 60134  1  0  0  0
 61135  1  0  0  0
 61136  1  0  0  0
 61137  1  0  0  0
 62138  1  0  0  0
 62139  1  0  0  0
 62140  1  0  0  0
 63 65  1  0  0  0
 63141  1  0  0  0
 63142  1  0  0  0
 63143  1  0  0  0
 64144  1  0  0  0
 65145  1  0  0  0
 68 80  1  0  0  0
 71 72  2  0  0  0
 71 75  1  0  0  0
 71146  1  0  0  0
 72 76  1  0  0  0
 72147  1  0  0  0
 73 74  1  0  0  0
 73 75  2  0  0  0
 73148  1  0  0  0
 74 76  2  0  0  0
 74 77  1  0  0  0
 75 82  1  0  0  0
 76 85  1  0  0  0
 77 83  1  0  0  0
 77 86  2  0  0  0
 78 80  1  0  0  0
 78 81  1  0  0  0
 78 84  2  0  0  0
 79149  1  0  0  0
 79150  1  0  0  0
 79151  1  0  0  0
 79 81  1  0  0  0
 80152  1  0  0  0
 80153  1  0  0  0
 81 83  1  0  0  0
 81154  1  0  0  0
 82155  1  0  0  0
 83156  1  0  0  0
M  ISO  4   1 100  68 101  80 101  82 100
M  END
> <chiral flag>
0

> <version>
0

> <s_m_source_file>
/data/baiqing/PycharmProjects/Reinvent-master-3.2/result/LINK_invent/BTK/process_docking_weight1_custom_product_contain_oxygen_bond_distance_aromatic_linkinvent_7_9_3/rearranged_h_0065.sdf

> <i_m_source_file_index>
17

> <r_mmod_Potential_Energy-OPLS-2005>
11.6332931518555

> <r_mmod_Stretch_Energy-OPLS-2005>
56.5900382995605

> <r_mmod_Bend_Energy-OPLS-2005>
137.404312133789

> <r_mmod_Torsional_Energy-OPLS-2005>
241.626602172852

> <r_mmod_Improper_Torsional_Energy-OPLS-2005>
5.50038194656372

> <r_mmod_Van_der_Waal_Energy-OPLS-2005>
167.499435424805

> <r_mmod_Electrostatic_Energy-OPLS-2005>
-363.411682128906

> <r_mmod_Solvation_Energy-OPLS-2005>
-256.407043457031

> <b_mmod_Minimization_Converged-OPLS-2005>
0

> <r_mmod_RMS_Derivative-OPLS-2005>
1.75047159194946

$$$$
17
                    3D
 Structure written by MMmdl.
159168  0  0  1  0            999 V2000
  -30.5961  -14.7263   20.4721 C   0  0  0  0  0  0
  -30.4117  -12.4518   19.4746 C   0  0  0  0  0  0
  -29.4985  -12.5742   18.2342 C   0  0  0  0  0  0
  -28.0224  -12.3820   18.6327 C   0  0  0  0  0  0
  -27.6390  -13.2355   19.8682 C   0  0  2  0  0  0
  -28.6803  -13.1272   21.0048 C   0  0  0  0  0  0
  -25.2451  -13.8209   20.5631 C   0  0  0  0  0  0
  -24.1782  -13.0470   20.9083 C   0  0  0  0  0  0
  -24.6361  -11.6939   20.8594 C   0  0  0  0  0  0
  -23.9067  -10.4326   21.0266 C   0  0  0  0  0  0
  -24.3623   -9.4255   21.9052 C   0  0  0  0  0  0
  -23.6288   -8.2309   22.0684 C   0  0  0  0  0  0
  -22.4252   -8.0315   21.3489 C   0  0  0  0  0  0
  -21.9875   -9.0277   20.4552 C   0  0  0  0  0  0
  -22.7222  -10.2146   20.2930 C   0  0  0  0  0  0
  -21.6876   -6.0739   22.5220 C   0  0  0  0  0  0
  -21.4107   -6.5647   23.8158 C   0  0  0  0  0  0
  -21.3686   -5.6790   24.9109 C   0  0  0  0  0  0
  -21.6037   -4.3058   24.7159 C   0  0  0  0  0  0
  -21.8835   -3.8145   23.4287 C   0  0  0  0  0  0
  -21.9201   -4.6975   22.3344 C   0  0  0  0  0  0
  -22.7798  -13.5206   21.1826 C   0  0  0  0  0  0
  -22.1603   -4.2149   21.0925 F   0  0  0  0  0  0
  -21.5627   -3.4550   25.7694 F   0  0  0  0  0  0
  -29.9881  -13.4892   20.4421 N   0  0  0  0  0  0
  -26.2895  -12.9425   20.3302 N   0  0  0  0  0  0
  -25.9307  -11.6571   20.5708 N   0  0  0  0  0  0
  -22.0587  -12.8089   22.0396 N   0  0  0  0  0  0
  -25.4192  -15.1945   20.4073 N   0  0  0  0  0  0
  -31.7578  -14.8515   20.0775 O   0  0  0  0  0  0
  -21.6642   -6.8900   21.4180 O   0  0  0  0  0  0
  -22.3419  -14.5529   20.6744 O   0  0  0  0  0  0
  -24.6331  -31.8560   23.2018 C   0  0  0  0  0  0
  -25.9129  -32.4805   23.8347 C   0  0  1  0  0  0
  -27.1923  -27.2229   20.1049 C   0  0  0  0  0  0
  -25.5887  -33.8607   24.2219 N   0  0  0  0  0  0
  -23.4271  -30.4834   21.5538 C   0  0  2  0  0  0
  -24.8627  -28.9297   20.1130 C   0  0  0  0  0  0
  -22.7443  -29.4640   22.4960 C   0  0  0  0  0  0
  -18.0281  -28.1429   22.8553 C   0  0  0  0  0  0
  -24.1489  -36.7355   23.2652 C   0  0  0  0  0  0
  -25.9776  -30.7491   21.3899 C   0  0  0  0  0  0
  -26.0406  -29.3705   20.7290 C   0  0  0  0  0  0
  -27.2009  -28.5246   20.7248 C   0  0  0  0  0  0
  -25.9890  -26.8670   19.4530 C   0  0  0  0  0  0
  -24.8451  -27.6852   19.4728 C   0  0  0  0  0  0
  -23.6385  -29.8262   20.1682 C   0  0  0  0  0  0
  -25.4140  -36.3121   24.0288 C   0  0  1  0  0  0
  -20.5875  -28.3752   23.1302 C   0  0  2  0  0  0
  -20.6792  -26.9463   22.5454 C   0  0  0  0  0  0
  -19.5722  -26.6389   21.5312 C   0  0  0  0  0  0
  -18.1878  -26.7986   22.1689 C   0  0  0  0  0  0
  -19.1523  -28.8907   23.2916 C   0  0  0  0  0  0
  -18.9447  -30.1515   23.8923 C   0  0  0  0  0  0
  -17.6450  -30.6652   24.0577 C   0  0  0  0  0  0
  -25.9036  -34.9490   23.5073 C   0  0  0  0  0  0
  -16.5352  -29.9141   23.6349 C   0  0  0  0  0  0
  -16.7285  -28.6543   23.0417 C   0  0  0  0  0  0
  -26.4460  -31.6728   25.0820 C   0  0  0  0  0  0
  -25.3606  -31.3919   26.1511 C   0  0  0  0  0  0
  -27.0396  -30.3171   24.6368 C   0  0  0  0  0  0
  -27.5944  -32.4558   25.7622 C   0  0  0  0  0  0
  -27.5606  -37.1820   24.8430 C   0  0  0  0  0  0
  -21.4153  -29.3099   22.3690 N   0  0  0  0  0  0
  -26.4318  -37.3813   23.9379 N   0  0  0  0  0  0
  -24.7000  -31.0460   22.1051 N   0  0  0  0  0  0
  -23.4138  -28.8135   23.3018 O   0  0  0  0  0  0
  -28.2961  -26.3247   20.1707 O   0  0  0  0  0  0
  -26.5579  -34.8951   22.4635 O   0  0  0  0  0  0
  -23.5476  -32.1452   23.7256 O   0  0  0  0  0  0
  -28.6542  -19.3433   18.6051 C   0  0  0  0  0  0
  -29.0544  -16.9405   18.8166 C   0  0  0  0  0  0
  -29.6757  -18.4551   20.6301 C   0  0  0  0  0  0
  -28.5643  -18.0358   18.0723 C   0  0  0  0  0  0
  -29.2106  -19.6199   19.8774 C   0  0  0  0  0  0
  -29.6024  -17.0913   20.1084 C   0  0  0  0  0  0
  -29.9563  -23.2186   21.0015 C   0  0  0  0  0  0
  -30.2075  -21.6723   21.0128 C   0  0  0  0  0  0
  -27.9276  -17.7762   16.7428 C   0  0  0  0  0  0
  -28.3529  -22.1453   19.6984 C   0  0  0  0  0  0
  -28.5655  -23.5395   20.4407 C   0  0  2  0  0  0
  -27.2948  -18.9511   15.9926 C   0  0  0  0  0  0
  -28.3259  -24.9184   19.5898 C   0  0  0  0  0  0
  -29.2367  -21.0615   20.2860 N   0  0  0  0  0  0
  -29.8471  -15.8299   20.8478 N   0  0  0  0  0  0
  -30.7644  -24.0684   21.4032 O   0  0  0  0  0  0
  -31.1600  -21.1297   21.5941 O   0  0  0  0  0  0
  -27.8738  -16.6526   16.2331 O   0  0  0  0  0  0
  -31.4571  -12.5666   19.1867 H   0  0  0  0  0  0
  -30.3248  -11.4619   19.9289 H   0  0  0  0  0  0
  -29.7889  -11.8576   17.4643 H   0  0  0  0  0  0
  -29.6287  -13.5640   17.7875 H   0  0  0  0  0  0
  -27.8574  -11.3260   18.8417 H   0  0  0  0  0  0
  -27.3751  -12.6252   17.7861 H   0  0  0  0  0  0
  -27.6416  -14.2702   19.5296 H   0  0  0  0  0  0
  -28.7091  -12.1137   21.4041 H   0  0  0  0  0  0
  -28.4137  -13.7720   21.8414 H   0  0  0  0  0  0
  -25.2769   -9.5816   22.4589 H   0  0  0  0  0  0
  -23.9962   -7.4740   22.7450 H   0  0  0  0  0  0
  -21.0781   -8.8859   19.8839 H   0  0  0  0  0  0
  -22.3637  -10.9699   19.6060 H   0  0  0  0  0  0
  -21.2169   -7.6139   23.9709 H   0  0  0  0  0  0
  -21.1465   -6.0476   25.9010 H   0  0  0  0  0  0
  -22.0590   -2.7596   23.2784 H   0  0  0  0  0  0
  -22.4349  -11.9615   22.4440 H   0  0  0  0  0  0
  -21.1294  -13.1054   22.2986 H   0  0  0  0  0  0
  -24.6587  -15.8551   20.5145 H   0  0  0  0  0  0
  -26.2779  -15.6313   20.1003 H   0  0  0  0  0  0
  -26.7192  -32.5390   23.1062 H   0  0  0  0  0  0
  -25.0034  -33.9777   25.0368 H   0  0  0  0  0  0
  -22.7307  -31.3106   21.4118 H   0  0  0  0  0  0
  -23.3777  -35.9660   23.3280 H   0  0  0  0  0  0
  -24.3524  -36.9061   22.2067 H   0  0  0  0  0  0
  -23.7218  -37.6528   23.6743 H   0  0  0  0  0  0
  -26.1117  -31.4998   20.6099 H   0  0  0  0  0  0
  -26.8587  -30.8052   22.0201 H   0  0  0  0  0  0
  -28.0969  -28.8438   21.2362 H   0  0  0  0  0  0
  -25.8558  -25.9365   18.9255 H   0  0  0  0  0  0
  -23.9423  -27.3450   18.9849 H   0  0  0  0  0  0
  -23.7540  -30.6084   19.4133 H   0  0  0  0  0  0
  -22.7480  -29.2682   19.8726 H   0  0  0  0  0  0
  -25.1323  -36.2007   25.0769 H   0  0  0  0  0  0
  -20.9981  -28.3382   24.1426 H   0  0  0  0  0  0
  -20.5833  -26.2340   23.3671 H   0  0  0  0  0  0
  -21.6627  -26.7531   22.1166 H   0  0  0  0  0  0
  -19.6859  -25.6287   21.1345 H   0  0  0  0  0  0
  -19.6652  -27.3180   20.6827 H   0  0  0  0  0  0
  -17.4171  -26.6865   21.4048 H   0  0  0  0  0  0
  -18.0138  -26.0115   22.9042 H   0  0  0  0  0  0
  -19.7922  -30.7341   24.2307 H   0  0  0  0  0  0
  -17.5016  -31.6348   24.5151 H   0  0  0  0  0  0
  -15.5354  -30.3066   23.7689 H   0  0  0  0  0  0
  -15.8672  -28.0869   22.7171 H   0  0  0  0  0  0
  -24.5700  -30.7366   25.7828 H   0  0  0  0  0  0
  -24.8877  -32.3141   26.4936 H   0  0  0  0  0  0
  -25.7831  -30.9069   27.0327 H   0  0  0  0  0  0
  -26.3095  -29.6889   24.1259 H   0  0  0  0  0  0
  -27.3982  -29.7464   25.4952 H   0  0  0  0  0  0
  -27.8962  -30.4528   23.9743 H   0  0  0  0  0  0
  -27.2473  -33.3873   26.2123 H   0  0  0  0  0  0
  -28.3803  -32.7148   25.0506 H   0  0  0  0  0  0
  -28.0581  -31.8771   26.5626 H   0  0  0  0  0  0
  -28.2552  -38.0194   24.7592 H   0  0  0  0  0  0
  -28.1170  -36.2711   24.6157 H   0  0  0  0  0  0
  -27.2251  -37.1358   25.8805 H   0  0  0  0  0  0
  -20.9317  -29.8893   21.6976 H   0  0  0  0  0  0
  -26.0210  -38.2868   24.1488 H   0  0  0  0  0  0
  -28.2844  -20.1617   18.0100 H   0  0  0  0  0  0
  -28.9501  -15.9448   18.4084 H   0  0  0  0  0  0
  -30.0721  -18.6134   21.6259 H   0  0  0  0  0  0
  -28.6053  -22.2722   18.6432 H   0  0  0  0  0  0
  -27.3030  -21.8422   19.7211 H   0  0  0  0  0  0
  -27.9025  -23.5614   21.3111 H   0  0  0  0  0  0
  -26.5321  -19.4372   16.6048 H   0  0  0  0  0  0
  -26.8053  -18.5936   15.0867 H   0  0  0  0  0  0
  -28.0453  -19.6891   15.7060 H   0  0  0  0  0  0
  -27.4478  -24.7087   18.9748 H   0  0  0  0  0  0
  -29.1272  -24.9560   18.8441 H   0  0  0  0  0  0
  -29.0299  -15.5367   21.3636 H   0  0  0  0  0  0
  1 25  1  0  0  0
  1 30  2  0  0  0
  1 85  1  0  0  0
  2  3  1  0  0  0
  2 25  1  0  0  0
  2 89  1  0  0  0
  2 90  1  0  0  0
  3  4  1  0  0  0
  3 91  1  0  0  0
  3 92  1  0  0  0
  4  5  1  0  0  0
  4 93  1  0  0  0
  4 94  1  0  0  0
  5  6  1  0  0  0
  5 26  1  0  0  0
  5 95  1  0  0  0
  6 25  1  0  0  0
  6 96  1  0  0  0
  6 97  1  0  0  0
  7  8  2  0  0  0
  7 26  1  0  0  0
  7 29  1  0  0  0
  8  9  1  0  0  0
  8 22  1  0  0  0
  9 10  1  0  0  0
  9 27  2  0  0  0
 10 11  2  0  0  0
 10 15  1  0  0  0
 11 12  1  0  0  0
 11 98  1  0  0  0
 12 13  2  0  0  0
 12 99  1  0  0  0
 13 14  1  0  0  0
 13 31  1  0  0  0
 14 15  2  0  0  0
 14100  1  0  0  0
 15101  1  0  0  0
 16 17  2  0  0  0
 16 21  1  0  0  0
 16 31  1  0  0  0
 17 18  1  0  0  0
 17102  1  0  0  0
 18 19  2  0  0  0
 18103  1  0  0  0
 19 20  1  0  0  0
 19 24  1  0  0  0
 20 21  2  0  0  0
 20104  1  0  0  0
 21 23  1  0  0  0
 22 28  1  0  0  0
 22 32  2  0  0  0
 26 27  1  0  0  0
 28105  1  0  0  0
 28106  1  0  0  0
 29107  1  0  0  0
 29108  1  0  0  0
 33 34  1  0  0  0
 33 66  1  0  0  0
 33 70  2  0  0  0
 34 36  1  0  0  0
 34 59  1  0  0  0
 34109  1  0  0  0
 35 44  2  0  0  0
 35 45  1  0  0  0
 35 68  1  0  0  0
 36 56  1  0  0  0
 36110  1  0  0  0
 37 39  1  0  0  0
 37 47  1  0  0  0
 37 66  1  0  0  0
 37111  1  0  0  0
 38 43  2  0  0  0
 38 46  1  0  0  0
 38 47  1  0  0  0
 39 64  1  0  0  0
 39 67  2  0  0  0
 40 52  1  0  0  0
 40 53  2  0  0  0
 40 58  1  0  0  0
 41112  1  0  0  0
 41113  1  0  0  0
 41114  1  0  0  0
 41 48  1  0  0  0
 42 43  1  0  0  0
 42 66  1  0  0  0
 42115  1  0  0  0
 42116  1  0  0  0
 43 44  1  0  0  0
 44117  1  0  0  0
 45 46  2  0  0  0
 45118  1  0  0  0
 46119  1  0  0  0
 47120  1  0  0  0
 47121  1  0  0  0
 48 56  1  0  0  0
 48 65  1  0  0  0
 48122  1  0  0  0
 49 50  1  0  0  0
 49 53  1  0  0  0
 49 64  1  0  0  0
 49123  1  0  0  0
 50 51  1  0  0  0
 50124  1  0  0  0
 50125  1  0  0  0
 51 52  1  0  0  0
 51126  1  0  0  0
 51127  1  0  0  0
 52128  1  0  0  0
 52129  1  0  0  0
 53 54  1  0  0  0
 54 55  2  0  0  0
 54130  1  0  0  0
 55 57  1  0  0  0
 55131  1  0  0  0
 56 69  2  0  0  0
 57 58  2  0  0  0
 57132  1  0  0  0
 58133  1  0  0  0
 59 60  1  0  0  0
 59 61  1  0  0  0
 59 62  1  0  0  0
 60134  1  0  0  0
 60135  1  0  0  0
 60136  1  0  0  0
 61137  1  0  0  0
 61138  1  0  0  0
 61139  1  0  0  0
 62140  1  0  0  0
 62141  1  0  0  0
 62142  1  0  0  0
 63 65  1  0  0  0
 63143  1  0  0  0
 63144  1  0  0  0
 63145  1  0  0  0
 64146  1  0  0  0
 65147  1  0  0  0
 68 83  1  0  0  0
 71 74  2  0  0  0
 71 75  1  0  0  0
 71148  1  0  0  0
 72 74  1  0  0  0
 72 76  2  0  0  0
 72149  1  0  0  0
 73 75  2  0  0  0
 73 76  1  0  0  0
 73150  1  0  0  0
 74 79  1  0  0  0
 75 84  1  0  0  0
 76 85  1  0  0  0
 77 78  1  0  0  0
 77 81  1  0  0  0
 77 86  2  0  0  0
 78 84  1  0  0  0
 78 87  2  0  0  0
 79 82  1  0  0  0
 79 88  2  0  0  0
 80 81  1  0  0  0
 80 84  1  0  0  0
 80151  1  0  0  0
 80152  1  0  0  0
 81 83  1  0  0  0
 81153  1  0  0  0
 82154  1  0  0  0
 82155  1  0  0  0
 82156  1  0  0  0
 83157  1  0  0  0
 83158  1  0  0  0
 85159  1  0  0  0
M  ISO  4   1 100  68 101  83 101  85 100
M  END
> <chiral flag>
0

> <version>
0

> <s_m_source_file>
/data/baiqing/PycharmProjects/Reinvent-master-3.2/result/LINK_invent/BTK/process_docking_weight1_custom_product_contain_oxygen_bond_distance_aromatic_linkinvent_7_9_3/rearranged_h_0065.sdf

> <i_m_source_file_index>
18

> <r_mmod_Potential_Energy-OPLS-2005>
287.530029296875

> <r_mmod_Stretch_Energy-OPLS-2005>
136.465301513672

> <r_mmod_Bend_Energy-OPLS-2005>
218.261505126953

> <r_mmod_Torsional_Energy-OPLS-2005>
290.417694091797

> <r_mmod_Improper_Torsional_Energy-OPLS-2005>
7.18320226669312

> <r_mmod_Van_der_Waal_Energy-OPLS-2005>
135.241989135742

> <r_mmod_Electrostatic_Energy-OPLS-2005>
-312.636138916016

> <r_mmod_Solvation_Energy-OPLS-2005>
-277.210266113281

> <b_mmod_Minimization_Converged-OPLS-2005>
0

> <r_mmod_RMS_Derivative-OPLS-2005>
7.07721662521362

$$$$
18
                    3D
 Structure written by MMmdl.
155163  0  0  1  0            999 V2000
  -30.6156  -14.6197   20.5061 C   0  0  0  0  0  0
  -30.4432  -12.3796   19.4426 C   0  0  0  0  0  0
  -29.5097  -12.5068   18.2169 C   0  0  0  0  0  0
  -28.0305  -12.3485   18.6270 C   0  0  0  0  0  0
  -27.6562  -13.2105   19.8624 C   0  0  2  0  0  0
  -28.7018  -13.0439   20.9892 C   0  0  0  0  0  0
  -25.2577  -13.8152   20.5662 C   0  0  0  0  0  0
  -24.1846  -13.0428   20.9198 C   0  0  0  0  0  0
  -24.6403  -11.6895   20.8746 C   0  0  0  0  0  0
  -23.9063  -10.4289   21.0414 C   0  0  0  0  0  0
  -24.3615   -9.4206   21.9187 C   0  0  0  0  0  0
  -23.6296   -8.2239   22.0753 C   0  0  0  0  0  0
  -22.4279   -8.0278   21.3544 C   0  0  0  0  0  0
  -21.9911   -9.0251   20.4647 C   0  0  0  0  0  0
  -22.7238  -10.2131   20.3059 C   0  0  0  0  0  0
  -21.6847   -6.0739   22.5284 C   0  0  0  0  0  0
  -21.4006   -6.5640   23.8220 C   0  0  0  0  0  0
  -21.3658   -5.6789   24.9180 C   0  0  0  0  0  0
  -21.6046   -4.3052   24.7226 C   0  0  0  0  0  0
  -21.8818   -3.8147   23.4347 C   0  0  0  0  0  0
  -21.9189   -4.6968   22.3405 C   0  0  0  0  0  0
  -22.7868  -13.5228   21.1854 C   0  0  0  0  0  0
  -22.1661   -4.2155   21.0983 F   0  0  0  0  0  0
  -21.5629   -3.4531   25.7735 F   0  0  0  0  0  0
  -30.0192  -13.3895   20.4307 N   0  0  0  0  0  0
  -26.2999  -12.9319   20.3292 N   0  0  0  0  0  0
  -25.9324  -11.6483   20.5740 N   0  0  0  0  0  0
  -22.0494  -12.8234   22.0409 N   0  0  0  0  0  0
  -25.4276  -15.1870   20.4038 N   0  0  0  0  0  0
  -31.7792  -14.7988   20.1335 O   0  0  0  0  0  0
  -21.6634   -6.8883   21.4247 O   0  0  0  0  0  0
  -22.3563  -14.5537   20.6698 O   0  0  0  0  0  0
  -24.6269  -31.8610   23.2045 C   0  0  0  0  0  0
  -25.9120  -32.4782   23.8371 C   0  0  1  0  0  0
  -27.2188  -27.3270   20.1063 C   0  0  0  0  0  0
  -25.5945  -33.8578   24.2315 N   0  0  0  0  0  0
  -23.4201  -30.4893   21.5461 C   0  0  2  0  0  0
  -24.8633  -28.9488   20.1095 C   0  0  0  0  0  0
  -22.7482  -29.4651   22.4918 C   0  0  0  0  0  0
  -18.0301  -28.1396   22.8490 C   0  0  0  0  0  0
  -24.1489  -36.7276   23.2638 C   0  0  0  0  0  0
  -25.9623  -30.7944   21.3741 C   0  0  0  0  0  0
  -26.0341  -29.4241   20.7134 C   0  0  0  0  0  0
  -27.2158  -28.6245   20.7037 C   0  0  0  0  0  0
  -26.0218  -26.9062   19.4790 C   0  0  0  0  0  0
  -24.8586  -27.6948   19.4840 C   0  0  0  0  0  0
  -23.6342  -29.8305   20.1592 C   0  0  0  0  0  0
  -25.4112  -36.3078   24.0342 C   0  0  1  0  0  0
  -20.5907  -28.3696   23.1278 C   0  0  2  0  0  0
  -20.6794  -26.9418   22.5408 C   0  0  0  0  0  0
  -19.5772  -26.6399   21.5211 C   0  0  0  0  0  0
  -18.1947  -26.7944   22.1620 C   0  0  0  0  0  0
  -19.1555  -28.8860   23.2886 C   0  0  0  0  0  0
  -18.9468  -30.1460   23.8906 C   0  0  0  0  0  0
  -17.6467  -30.6593   24.0570 C   0  0  0  0  0  0
  -25.9050  -34.9448   23.5124 C   0  0  0  0  0  0
  -16.5362  -29.9092   23.6335 C   0  0  0  0  0  0
  -16.7288  -28.6515   23.0351 C   0  0  0  0  0  0
  -26.4508  -31.6575   25.0726 C   0  0  0  0  0  0
  -25.3742  -31.3703   26.1451 C   0  0  0  0  0  0
  -27.0348  -30.3011   24.6150 C   0  0  0  0  0  0
  -27.6101  -32.4271   25.7483 C   0  0  0  0  0  0
  -27.5586  -37.1794   24.8467 C   0  0  0  0  0  0
  -21.4199  -29.3051   22.3661 N   0  0  0  0  0  0
  -26.4289  -37.3775   23.9423 N   0  0  0  0  0  0
  -24.6891  -31.0642   22.0984 N   0  0  0  0  0  0
  -23.4206  -28.8178   23.2987 O   0  0  0  0  0  0
  -28.3357  -26.4764   20.1525 O   0  0  0  0  0  0
  -26.5598  -34.8912   22.4676 O   0  0  0  0  0  0
  -23.5434  -32.1398   23.7386 O   0  0  0  0  0  0
  -28.6468  -17.8405   20.6675 C   0  0  0  0  0  0
  -28.6277  -19.2600   20.5752 C   0  0  0  0  0  0
  -31.0475  -17.8546   20.6711 C   0  0  0  0  0  0
  -31.0495  -19.2883   20.6178 C   0  0  0  0  0  0
  -29.8520  -17.0957   20.7075 C   0  0  0  0  0  0
  -29.8194  -20.0336   20.5448 C   0  0  0  0  0  0
  -32.3885  -19.9827   20.6254 C   0  0  0  0  0  0
  -28.8559  -22.4418   20.2380 C   0  0  0  0  0  0
  -29.2266  -23.9752   20.3353 C   0  0  0  0  0  0
  -28.0964  -25.0267   19.9683 C   0  0  0  0  0  0
  -33.3131  -19.4673   21.4260 N   0  0  0  0  0  0
  -29.8194  -21.5053   20.5076 N   0  0  0  0  0  0
  -29.7743  -15.6446   20.8408 N   0  0  0  0  0  0
  -32.6016  -21.0060   19.9748 O   0  0  0  0  0  0
  -27.7111  -22.1256   19.9087 O   0  0  0  0  0  0
  -31.4844  -12.5088   19.1411 H   0  0  0  0  0  0
  -30.3780  -11.3787   19.8724 H   0  0  0  0  0  0
  -29.7720  -11.7613   17.4652 H   0  0  0  0  0  0
  -29.6558  -13.4794   17.7437 H   0  0  0  0  0  0
  -27.8595  -11.2940   18.8475 H   0  0  0  0  0  0
  -27.3784  -12.5896   17.7863 H   0  0  0  0  0  0
  -27.6797  -14.2483   19.5299 H   0  0  0  0  0  0
  -28.7099  -12.0147   21.3520 H   0  0  0  0  0  0
  -28.4502  -13.6580   21.8548 H   0  0  0  0  0  0
  -25.2762   -9.5673   22.4757 H   0  0  0  0  0  0
  -24.0006   -7.4622   22.7462 H   0  0  0  0  0  0
  -21.0842   -8.8764   19.8950 H   0  0  0  0  0  0
  -22.3701  -10.9665   19.6161 H   0  0  0  0  0  0
  -21.1993   -7.6148   23.9726 H   0  0  0  0  0  0
  -21.1485   -6.0517   25.9085 H   0  0  0  0  0  0
  -22.0599   -2.7609   23.2838 H   0  0  0  0  0  0
  -22.4092  -11.9890   22.4799 H   0  0  0  0  0  0
  -21.1109  -13.1268   22.2599 H   0  0  0  0  0  0
  -24.6484  -15.8307   20.4924 H   0  0  0  0  0  0
  -26.2509  -15.6146   20.0002 H   0  0  0  0  0  0
  -26.7185  -32.5456   23.1121 H   0  0  0  0  0  0
  -25.0138  -33.9718   25.0493 H   0  0  0  0  0  0
  -22.7166  -31.3127   21.4071 H   0  0  0  0  0  0
  -23.3763  -35.9593   23.3284 H   0  0  0  0  0  0
  -24.3603  -36.8900   22.2057 H   0  0  0  0  0  0
  -23.7215  -37.6470   23.6653 H   0  0  0  0  0  0
  -26.0972  -31.5602   20.6086 H   0  0  0  0  0  0
  -26.8417  -30.8405   22.0044 H   0  0  0  0  0  0
  -28.1139  -28.9854   21.1855 H   0  0  0  0  0  0
  -25.9461  -25.9510   18.9820 H   0  0  0  0  0  0
  -23.9611  -27.3280   19.0044 H   0  0  0  0  0  0
  -23.7589  -30.6099   19.4065 H   0  0  0  0  0  0
  -22.7521  -29.2655   19.8518 H   0  0  0  0  0  0
  -25.1285  -36.1938   25.0833 H   0  0  0  0  0  0
  -21.0028  -28.3271   24.1388 H   0  0  0  0  0  0
  -20.5720  -26.2296   23.3605 H   0  0  0  0  0  0
  -21.6662  -26.7463   22.1186 H   0  0  0  0  0  0
  -19.6927  -25.6310   21.1243 H   0  0  0  0  0  0
  -19.6715  -27.3212   20.6744 H   0  0  0  0  0  0
  -17.4227  -26.6705   21.4011 H   0  0  0  0  0  0
  -18.0340  -26.0086   22.9018 H   0  0  0  0  0  0
  -19.7934  -30.7282   24.2283 H   0  0  0  0  0  0
  -17.5015  -31.6274   24.5170 H   0  0  0  0  0  0
  -15.5359  -30.2994   23.7651 H   0  0  0  0  0  0
  -15.8697  -28.0841   22.7048 H   0  0  0  0  0  0
  -24.5939  -30.7029   25.7776 H   0  0  0  0  0  0
  -24.8897  -32.2855   26.4862 H   0  0  0  0  0  0
  -25.8070  -30.8898   27.0234 H   0  0  0  0  0  0
  -26.2913  -29.6753   24.1204 H   0  0  0  0  0  0
  -27.4111  -29.7274   25.4628 H   0  0  0  0  0  0
  -27.8754  -30.4331   23.9335 H   0  0  0  0  0  0
  -27.2781  -33.3596   26.2061 H   0  0  0  0  0  0
  -28.3915  -32.6776   25.0294 H   0  0  0  0  0  0
  -28.0758  -31.8368   26.5386 H   0  0  0  0  0  0
  -28.2592  -38.0106   24.7543 H   0  0  0  0  0  0
  -28.1100  -36.2643   24.6253 H   0  0  0  0  0  0
  -27.2318  -37.1385   25.8872 H   0  0  0  0  0  0
  -20.9376  -29.8770   21.6873 H   0  0  0  0  0  0
  -26.0172  -38.2849   24.1434 H   0  0  0  0  0  0
  -27.6989  -17.3221   20.7092 H   0  0  0  0  0  0
  -27.6632  -19.7454   20.5538 H   0  0  0  0  0  0
  -31.9909  -17.3293   20.7066 H   0  0  0  0  0  0
  -30.0898  -24.1505   19.6935 H   0  0  0  0  0  0
  -29.5590  -24.1667   21.3543 H   0  0  0  0  0  0
  -27.2140  -24.7562   20.5511 H   0  0  0  0  0  0
  -27.8394  -24.8599   18.9215 H   0  0  0  0  0  0
  -33.1007  -18.6556   21.9864 H   0  0  0  0  0  0
  -34.2242  -19.8965   21.4959 H   0  0  0  0  0  0
  -30.7314  -21.9155   20.6686 H   0  0  0  0  0  0
  -28.8602  -15.3021   21.0921 H   0  0  0  0  0  0
  1 25  1  0  0  0
  1 30  2  0  0  0
  1 83  1  0  0  0
  2  3  1  0  0  0
  2 25  1  0  0  0
  2 86  1  0  0  0
  2 87  1  0  0  0
  3  4  1  0  0  0
  3 88  1  0  0  0
  3 89  1  0  0  0
  4  5  1  0  0  0
  4 90  1  0  0  0
  4 91  1  0  0  0
  5  6  1  0  0  0
  5 26  1  0  0  0
  5 92  1  0  0  0
  6 25  1  0  0  0
  6 93  1  0  0  0
  6 94  1  0  0  0
  7  8  2  0  0  0
  7 26  1  0  0  0
  7 29  1  0  0  0
  8  9  1  0  0  0
  8 22  1  0  0  0
  9 10  1  0  0  0
  9 27  2  0  0  0
 10 11  2  0  0  0
 10 15  1  0  0  0
 11 12  1  0  0  0
 11 95  1  0  0  0
 12 13  2  0  0  0
 12 96  1  0  0  0
 13 14  1  0  0  0
 13 31  1  0  0  0
 14 15  2  0  0  0
 14 97  1  0  0  0
 15 98  1  0  0  0
 16 17  2  0  0  0
 16 21  1  0  0  0
 16 31  1  0  0  0
 17 18  1  0  0  0
 17 99  1  0  0  0
 18 19  2  0  0  0
 18100  1  0  0  0
 19 20  1  0  0  0
 19 24  1  0  0  0
 20 21  2  0  0  0
 20101  1  0  0  0
 21 23  1  0  0  0
 22 28  1  0  0  0
 22 32  2  0  0  0
 26 27  1  0  0  0
 28102  1  0  0  0
 28103  1  0  0  0
 29104  1  0  0  0
 29105  1  0  0  0
 33 34  1  0  0  0
 33 66  1  0  0  0
 33 70  2  0  0  0
 34 36  1  0  0  0
 34 59  1  0  0  0
 34106  1  0  0  0
 35 44  2  0  0  0
 35 45  1  0  0  0
 35 68  1  0  0  0
 36 56  1  0  0  0
 36107  1  0  0  0
 37 39  1  0  0  0
 37 47  1  0  0  0
 37 66  1  0  0  0
 37108  1  0  0  0
 38 43  2  0  0  0
 38 46  1  0  0  0
 38 47  1  0  0  0
 39 64  1  0  0  0
 39 67  2  0  0  0
 40 52  1  0  0  0
 40 53  2  0  0  0
 40 58  1  0  0  0
 41109  1  0  0  0
 41110  1  0  0  0
 41111  1  0  0  0
 41 48  1  0  0  0
 42 43  1  0  0  0
 42 66  1  0  0  0
 42112  1  0  0  0
 42113  1  0  0  0
 43 44  1  0  0  0
 44114  1  0  0  0
 45 46  2  0  0  0
 45115  1  0  0  0
 46116  1  0  0  0
 47117  1  0  0  0
 47118  1  0  0  0
 48 56  1  0  0  0
 48 65  1  0  0  0
 48119  1  0  0  0
 49 50  1  0  0  0
 49 53  1  0  0  0
 49 64  1  0  0  0
 49120  1  0  0  0
 50 51  1  0  0  0
 50121  1  0  0  0
 50122  1  0  0  0
 51 52  1  0  0  0
 51123  1  0  0  0
 51124  1  0  0  0
 52125  1  0  0  0
 52126  1  0  0  0
 53 54  1  0  0  0
 54 55  2  0  0  0
 54127  1  0  0  0
 55 57  1  0  0  0
 55128  1  0  0  0
 56 69  2  0  0  0
 57 58  2  0  0  0
 57129  1  0  0  0
 58130  1  0  0  0
 59 60  1  0  0  0
 59 61  1  0  0  0
 59 62  1  0  0  0
 60131  1  0  0  0
 60132  1  0  0  0
 60133  1  0  0  0
 61134  1  0  0  0
 61135  1  0  0  0
 61136  1  0  0  0
 62137  1  0  0  0
 62138  1  0  0  0
 62139  1  0  0  0
 63 65  1  0  0  0
 63140  1  0  0  0
 63141  1  0  0  0
 63142  1  0  0  0
 64143  1  0  0  0
 65144  1  0  0  0
 68 80  1  0  0  0
 71 72  2  0  0  0
 71 75  1  0  0  0
 71145  1  0  0  0
 72 76  1  0  0  0
 72146  1  0  0  0
 73 74  1  0  0  0
 73 75  2  0  0  0
 73147  1  0  0  0
 74 76  2  0  0  0
 74 77  1  0  0  0
 75 83  1  0  0  0
 76 82  1  0  0  0
 77 81  1  0  0  0
 77 84  2  0  0  0
 78 79  1  0  0  0
 78 82  1  0  0  0
 78 85  2  0  0  0
 79 80  1  0  0  0
 79148  1  0  0  0
 79149  1  0  0  0
 80150  1  0  0  0
 80151  1  0  0  0
 81152  1  0  0  0
 81153  1  0  0  0
 82154  1  0  0  0
 83155  1  0  0  0
M  ISO  4   1 100  68 101  80 101  83 100
M  END
> <chiral flag>
0

> <version>
0

> <s_m_source_file>
/data/baiqing/PycharmProjects/Reinvent-master-3.2/result/LINK_invent/BTK/process_docking_weight1_custom_product_contain_oxygen_bond_distance_aromatic_linkinvent_7_9_3/rearranged_h_0065.sdf

> <i_m_source_file_index>
19

> <r_mmod_Potential_Energy-OPLS-2005>
-124.713966369629

> <r_mmod_Stretch_Energy-OPLS-2005>
77.7217636108398

> <r_mmod_Bend_Energy-OPLS-2005>
138.158538818359

> <r_mmod_Torsional_Energy-OPLS-2005>
231.864120483398

> <r_mmod_Improper_Torsional_Energy-OPLS-2005>
5.40016078948975

> <r_mmod_Van_der_Waal_Energy-OPLS-2005>
156.506958007812

> <r_mmod_Electrostatic_Energy-OPLS-2005>
-524.412414550781

> <r_mmod_Solvation_Energy-OPLS-2005>
-254.48274230957

> <b_mmod_Minimization_Converged-OPLS-2005>
0

> <r_mmod_RMS_Derivative-OPLS-2005>
1.52715289592743

$$$$
19
                    3D
 Structure written by MMmdl.
161170  0  0  1  0            999 V2000
  -30.5545  -14.7840   20.5188 C   0  0  0  0  0  0
  -30.4367  -12.4897   19.4859 C   0  0  0  0  0  0
  -29.5193  -12.5733   18.2447 C   0  0  0  0  0  0
  -28.0393  -12.3770   18.6303 C   0  0  0  0  0  0
  -27.6438  -13.2265   19.8614 C   0  0  2  0  0  0
  -28.6800  -13.1233   21.0033 C   0  0  0  0  0  0
  -25.2391  -13.7910   20.5259 C   0  0  0  0  0  0
  -24.1756  -13.0296   20.9168 C   0  0  0  0  0  0
  -24.6382  -11.6799   20.8819 C   0  0  0  0  0  0
  -23.9035  -10.4221   21.0476 C   0  0  0  0  0  0
  -24.3565   -9.4132   21.9248 C   0  0  0  0  0  0
  -23.6241   -8.2171   22.0761 C   0  0  0  0  0  0
  -22.4239   -8.0227   21.3525 C   0  0  0  0  0  0
  -21.9895   -9.0216   20.4635 C   0  0  0  0  0  0
  -22.7219  -10.2098   20.3094 C   0  0  0  0  0  0
  -21.6828   -6.0702   22.5285 C   0  0  0  0  0  0
  -21.3971   -6.5601   23.8222 C   0  0  0  0  0  0
  -21.3671   -5.6749   24.9191 C   0  0  0  0  0  0
  -21.6062   -4.3014   24.7234 C   0  0  0  0  0  0
  -21.8817   -3.8114   23.4346 C   0  0  0  0  0  0
  -21.9186   -4.6934   22.3403 C   0  0  0  0  0  0
  -22.7796  -13.5181   21.1819 C   0  0  0  0  0  0
  -22.1671   -4.2133   21.0982 F   0  0  0  0  0  0
  -21.5678   -3.4494   25.7744 F   0  0  0  0  0  0
  -29.9909  -13.5213   20.4582 N   0  0  0  0  0  0
  -26.2924  -12.9216   20.3211 N   0  0  0  0  0  0
  -25.9333  -11.6392   20.5820 N   0  0  0  0  0  0
  -22.0353  -12.8262   22.0383 N   0  0  0  0  0  0
  -25.3935  -15.1399   20.2764 N   0  0  0  0  0  0
  -31.6674  -14.9796   20.0179 O   0  0  0  0  0  0
  -21.6587   -6.8838   21.4239 O   0  0  0  0  0  0
  -22.3546  -14.5517   20.6684 O   0  0  0  0  0  0
  -24.6297  -31.8574   23.1939 C   0  0  0  0  0  0
  -25.9103  -32.4781   23.8299 C   0  0  1  0  0  0
  -27.2261  -27.2624   20.1244 C   0  0  0  0  0  0
  -25.5878  -33.8572   24.2233 N   0  0  0  0  0  0
  -23.4255  -30.4774   21.5450 C   0  0  2  0  0  0
  -24.8726  -28.9280   20.1133 C   0  0  0  0  0  0
  -22.7492  -29.4593   22.4952 C   0  0  0  0  0  0
  -18.0275  -28.1389   22.8511 C   0  0  0  0  0  0
  -24.1436  -36.7244   23.2656 C   0  0  0  0  0  0
  -25.9685  -30.7789   21.3613 C   0  0  0  0  0  0
  -26.0483  -29.3949   20.7148 C   0  0  0  0  0  0
  -27.2274  -28.5779   20.7070 C   0  0  0  0  0  0
  -26.0230  -26.8727   19.4880 C   0  0  0  0  0  0
  -24.8672  -27.6737   19.4892 C   0  0  0  0  0  0
  -23.6367  -29.8076   20.1629 C   0  0  0  0  0  0
  -25.4075  -36.3069   24.0345 C   0  0  1  0  0  0
  -20.5887  -28.3669   23.1309 C   0  0  2  0  0  0
  -20.6744  -26.9380   22.5452 C   0  0  0  0  0  0
  -19.5697  -26.6363   21.5267 C   0  0  0  0  0  0
  -18.1885  -26.7924   22.1676 C   0  0  0  0  0  0
  -19.1540  -28.8847   23.2899 C   0  0  0  0  0  0
  -18.9467  -30.1468   23.8874 C   0  0  0  0  0  0
  -17.6471  -30.6598   24.0555 C   0  0  0  0  0  0
  -25.9045  -34.9461   23.5110 C   0  0  0  0  0  0
  -16.5356  -29.9101   23.6344 C   0  0  0  0  0  0
  -16.7269  -28.6525   23.0360 C   0  0  0  0  0  0
  -26.4457  -31.6585   25.0668 C   0  0  0  0  0  0
  -25.3672  -31.3711   26.1376 C   0  0  0  0  0  0
  -27.0308  -30.3030   24.6058 C   0  0  0  0  0  0
  -27.5966  -32.4329   25.7502 C   0  0  0  0  0  0
  -27.5529  -37.1776   24.8472 C   0  0  0  0  0  0
  -21.4197  -29.3023   22.3698 N   0  0  0  0  0  0
  -26.4217  -37.3798   23.9452 N   0  0  0  0  0  0
  -24.6959  -31.0543   22.0915 N   0  0  0  0  0  0
  -23.4207  -28.8150   23.3046 O   0  0  0  0  0  0
  -28.3223  -26.3581   20.1638 O   0  0  0  0  0  0
  -26.5659  -34.8959   22.4696 O   0  0  0  0  0  0
  -23.5448  -32.1380   23.7253 O   0  0  0  0  0  0
  -27.8620  -17.1073   21.1825 C   0  0  0  0  0  0
  -29.8043  -18.4533   20.6216 C   0  0  0  0  0  0
  -27.0244  -18.2382   21.0579 C   0  0  0  0  0  0
  -28.9618  -19.6626   20.5274 C   0  0  0  0  0  0
  -29.2473  -17.1210   20.9051 C   0  0  0  0  0  0
  -27.5692  -19.4575   20.6282 C   0  0  0  0  0  0
  -29.8513  -21.5929   19.1822 C   0  0  0  0  0  0
  -29.6648  -23.1203   19.0126 C   0  0  0  0  0  0
  -28.7166  -22.2988   21.0311 C   0  0  0  0  0  0
  -29.1344  -23.6813   20.3509 C   0  0  2  0  0  0
  -24.8886  -19.3186   22.1210 C   0  0  0  0  0  0
  -28.0302  -24.8785   20.2675 C   0  0  0  0  0  0
  -25.5223  -18.1384   21.3611 C   0  0  0  0  0  0
  -29.3399  -21.1030   20.3261 N   0  0  0  0  0  0
  -29.8532  -15.7790   21.1927 N   0  0  0  0  0  0
  -30.4271  -20.9205   18.3207 O   0  0  0  0  0  0
  -26.7208  -20.4448   20.2661 F   0  0  0  0  0  0
  -25.2914  -17.0919   22.1536 F   0  0  0  0  0  0
  -24.8593  -17.9820   20.2155 F   0  0  0  0  0  0
  -31.4795  -12.6363   19.1978 H   0  0  0  0  0  0
  -30.3843  -11.4950   19.9310 H   0  0  0  0  0  0
  -29.8129  -11.8406   17.4942 H   0  0  0  0  0  0
  -29.6456  -13.5532   17.7806 H   0  0  0  0  0  0
  -27.8739  -11.3184   18.8363 H   0  0  0  0  0  0
  -27.3980  -12.6324   17.7856 H   0  0  0  0  0  0
  -27.6476  -14.2609   19.5174 H   0  0  0  0  0  0
  -28.7202  -12.1030   21.3876 H   0  0  0  0  0  0
  -28.3761  -13.7422   21.8475 H   0  0  0  0  0  0
  -25.2679   -9.5623   22.4870 H   0  0  0  0  0  0
  -23.9933   -7.4545   22.7465 H   0  0  0  0  0  0
  -21.0846   -8.8756   19.8912 H   0  0  0  0  0  0
  -22.3680  -10.9667   19.6236 H   0  0  0  0  0  0
  -21.1897   -7.6094   23.9730 H   0  0  0  0  0  0
  -21.1526   -6.0458   25.9109 H   0  0  0  0  0  0
  -22.0578   -2.7572   23.2826 H   0  0  0  0  0  0
  -22.3857  -11.9908   22.4833 H   0  0  0  0  0  0
  -21.1014  -13.1456   22.2560 H   0  0  0  0  0  0
  -24.6150  -15.7838   20.3489 H   0  0  0  0  0  0
  -26.1972  -15.5391   19.8131 H   0  0  0  0  0  0
  -26.7174  -32.5456   23.1062 H   0  0  0  0  0  0
  -24.9891  -33.9702   25.0283 H   0  0  0  0  0  0
  -22.7205  -31.2993   21.4046 H   0  0  0  0  0  0
  -23.3733  -35.9537   23.3301 H   0  0  0  0  0  0
  -24.3523  -36.8879   22.2073 H   0  0  0  0  0  0
  -23.7143  -37.6418   23.6692 H   0  0  0  0  0  0
  -26.0813  -31.5282   20.5762 H   0  0  0  0  0  0
  -26.8560  -30.8533   21.9765 H   0  0  0  0  0  0
  -28.1275  -28.9359   21.1898 H   0  0  0  0  0  0
  -25.9281  -25.9289   18.9781 H   0  0  0  0  0  0
  -23.9721  -27.3066   19.0069 H   0  0  0  0  0  0
  -23.7410  -30.5796   19.4001 H   0  0  0  0  0  0
  -22.7546  -29.2340   19.8722 H   0  0  0  0  0  0
  -25.1258  -36.1894   25.0835 H   0  0  0  0  0  0
  -21.0014  -28.3244   24.1422 H   0  0  0  0  0  0
  -20.5651  -26.2280   23.3668 H   0  0  0  0  0  0
  -21.6608  -26.7389   22.1247 H   0  0  0  0  0  0
  -19.6834  -25.6283   21.1271 H   0  0  0  0  0  0
  -19.6614  -27.3193   20.6816 H   0  0  0  0  0  0
  -17.4165  -26.6697   21.4067 H   0  0  0  0  0  0
  -18.0233  -26.0089   22.9086 H   0  0  0  0  0  0
  -19.7951  -30.7295   24.2202 H   0  0  0  0  0  0
  -17.5038  -31.6286   24.5148 H   0  0  0  0  0  0
  -15.5355  -30.3003   23.7689 H   0  0  0  0  0  0
  -15.8669  -28.0866   22.7056 H   0  0  0  0  0  0
  -24.5878  -30.7024   25.7707 H   0  0  0  0  0  0
  -24.8817  -32.2872   26.4750 H   0  0  0  0  0  0
  -25.7989  -30.8941   27.0183 H   0  0  0  0  0  0
  -26.2871  -29.6807   24.1057 H   0  0  0  0  0  0
  -27.4041  -29.7245   25.4515 H   0  0  0  0  0  0
  -27.8715  -30.4369   23.9242 H   0  0  0  0  0  0
  -27.2532  -33.3676   26.1961 H   0  0  0  0  0  0
  -28.3868  -32.6804   25.0401 H   0  0  0  0  0  0
  -28.0500  -31.8501   26.5535 H   0  0  0  0  0  0
  -28.2544  -38.0079   24.7576 H   0  0  0  0  0  0
  -28.1018  -36.2620   24.6219 H   0  0  0  0  0  0
  -27.2258  -37.1338   25.8875 H   0  0  0  0  0  0
  -20.9365  -29.8759   21.6924 H   0  0  0  0  0  0
  -26.0072  -38.2846   24.1527 H   0  0  0  0  0  0
  -27.4136  -16.1825   21.5105 H   0  0  0  0  0  0
  -30.8760  -18.5545   20.5193 H   0  0  0  0  0  0
  -28.9385  -23.2685   18.2136 H   0  0  0  0  0  0
  -30.5939  -23.5998   18.7058 H   0  0  0  0  0  0
  -27.6313  -22.2567   21.0497 H   0  0  0  0  0  0
  -29.0164  -22.2984   22.0797 H   0  0  0  0  0  0
  -29.9803  -24.0705   20.9199 H   0  0  0  0  0  0
  -25.3763  -19.4785   23.0816 H   0  0  0  0  0  0
  -23.8371  -19.1060   22.3169 H   0  0  0  0  0  0
  -24.9006  -20.2568   21.5715 H   0  0  0  0  0  0
  -27.4141  -24.7906   21.1633 H   0  0  0  0  0  0
  -27.3791  -24.5830   19.4493 H   0  0  0  0  0  0
  -29.2088  -15.2669   21.7762 H   0  0  0  0  0  0
  1 25  1  0  0  0
  1 30  2  0  0  0
  1 85  1  0  0  0
  2  3  1  0  0  0
  2 25  1  0  0  0
  2 90  1  0  0  0
  2 91  1  0  0  0
  3  4  1  0  0  0
  3 92  1  0  0  0
  3 93  1  0  0  0
  4  5  1  0  0  0
  4 94  1  0  0  0
  4 95  1  0  0  0
  5  6  1  0  0  0
  5 26  1  0  0  0
  5 96  1  0  0  0
  6 25  1  0  0  0
  6 97  1  0  0  0
  6 98  1  0  0  0
  7  8  2  0  0  0
  7 26  1  0  0  0
  7 29  1  0  0  0
  8  9  1  0  0  0
  8 22  1  0  0  0
  9 10  1  0  0  0
  9 27  2  0  0  0
 10 11  2  0  0  0
 10 15  1  0  0  0
 11 12  1  0  0  0
 11 99  1  0  0  0
 12 13  2  0  0  0
 12100  1  0  0  0
 13 14  1  0  0  0
 13 31  1  0  0  0
 14 15  2  0  0  0
 14101  1  0  0  0
 15102  1  0  0  0
 16 17  2  0  0  0
 16 21  1  0  0  0
 16 31  1  0  0  0
 17 18  1  0  0  0
 17103  1  0  0  0
 18 19  2  0  0  0
 18104  1  0  0  0
 19 20  1  0  0  0
 19 24  1  0  0  0
 20 21  2  0  0  0
 20105  1  0  0  0
 21 23  1  0  0  0
 22 28  1  0  0  0
 22 32  2  0  0  0
 26 27  1  0  0  0
 28106  1  0  0  0
 28107  1  0  0  0
 29108  1  0  0  0
 29109  1  0  0  0
 33 34  1  0  0  0
 33 66  1  0  0  0
 33 70  2  0  0  0
 34 36  1  0  0  0
 34 59  1  0  0  0
 34110  1  0  0  0
 35 44  2  0  0  0
 35 45  1  0  0  0
 35 68  1  0  0  0
 36 56  1  0  0  0
 36111  1  0  0  0
 37 39  1  0  0  0
 37 47  1  0  0  0
 37 66  1  0  0  0
 37112  1  0  0  0
 38 43  2  0  0  0
 38 46  1  0  0  0
 38 47  1  0  0  0
 39 64  1  0  0  0
 39 67  2  0  0  0
 40 52  1  0  0  0
 40 53  2  0  0  0
 40 58  1  0  0  0
 41113  1  0  0  0
 41114  1  0  0  0
 41115  1  0  0  0
 41 48  1  0  0  0
 42 43  1  0  0  0
 42 66  1  0  0  0
 42116  1  0  0  0
 42117  1  0  0  0
 43 44  1  0  0  0
 44118  1  0  0  0
 45 46  2  0  0  0
 45119  1  0  0  0
 46120  1  0  0  0
 47121  1  0  0  0
 47122  1  0  0  0
 48 56  1  0  0  0
 48 65  1  0  0  0
 48123  1  0  0  0
 49 50  1  0  0  0
 49 53  1  0  0  0
 49 64  1  0  0  0
 49124  1  0  0  0
 50 51  1  0  0  0
 50125  1  0  0  0
 50126  1  0  0  0
 51 52  1  0  0  0
 51127  1  0  0  0
 51128  1  0  0  0
 52129  1  0  0  0
 52130  1  0  0  0
 53 54  1  0  0  0
 54 55  2  0  0  0
 54131  1  0  0  0
 55 57  1  0  0  0
 55132  1  0  0  0
 56 69  2  0  0  0
 57 58  2  0  0  0
 57133  1  0  0  0
 58134  1  0  0  0
 59 60  1  0  0  0
 59 61  1  0  0  0
 59 62  1  0  0  0
 60135  1  0  0  0
 60136  1  0  0  0
 60137  1  0  0  0
 61138  1  0  0  0
 61139  1  0  0  0
 61140  1  0  0  0
 62141  1  0  0  0
 62142  1  0  0  0
 62143  1  0  0  0
 63 65  1  0  0  0
 63144  1  0  0  0
 63145  1  0  0  0
 63146  1  0  0  0
 64147  1  0  0  0
 65148  1  0  0  0
 68 82  1  0  0  0
 71 73  2  0  0  0
 71 75  1  0  0  0
 71149  1  0  0  0
 72 74  1  0  0  0
 72 75  2  0  0  0
 72150  1  0  0  0
 73 76  1  0  0  0
 73 83  1  0  0  0
 74 76  2  0  0  0
 74 84  1  0  0  0
 75 85  1  0  0  0
 76 87  1  0  0  0
 77 78  1  0  0  0
 77 84  1  0  0  0
 77 86  2  0  0  0
 78 80  1  0  0  0
 78151  1  0  0  0
 78152  1  0  0  0
 79 80  1  0  0  0
 79 84  1  0  0  0
 79153  1  0  0  0
 79154  1  0  0  0
 80 82  1  0  0  0
 80155  1  0  0  0
 81156  1  0  0  0
 81157  1  0  0  0
 81158  1  0  0  0
 81 83  1  0  0  0
 82159  1  0  0  0
 82160  1  0  0  0
 83 88  1  0  0  0
 83 89  1  0  0  0
 85161  1  0  0  0
M  ISO  4   1 100  68 101  82 101  85 100
M  END
> <chiral flag>
0

> <version>
0

> <s_m_source_file>
/data/baiqing/PycharmProjects/Reinvent-master-3.2/result/LINK_invent/BTK/process_docking_weight1_custom_product_contain_oxygen_bond_distance_aromatic_linkinvent_7_9_3/rearranged_h_0065.sdf

> <i_m_source_file_index>
20

> <r_mmod_Potential_Energy-OPLS-2005>
349.026580810547

> <r_mmod_Stretch_Energy-OPLS-2005>
144.878311157227

> <r_mmod_Bend_Energy-OPLS-2005>
253.857879638672

> <r_mmod_Torsional_Energy-OPLS-2005>
333.065826416016

> <r_mmod_Improper_Torsional_Energy-OPLS-2005>
9.39092922210693

> <r_mmod_Van_der_Waal_Energy-OPLS-2005>
150.982681274414

> <r_mmod_Electrostatic_Energy-OPLS-2005>
-422.961456298828

> <r_mmod_Solvation_Energy-OPLS-2005>
-217.210220336914

> <b_mmod_Minimization_Converged-OPLS-2005>
0

> <r_mmod_RMS_Derivative-OPLS-2005>
3.68365550041199

$$$$
20
                    3D
 Structure written by MMmdl.
168177  0  0  1  0            999 V2000
  -30.6412  -14.7588   20.4946 C   0  0  0  0  0  0
  -30.4194  -12.4610   19.5073 C   0  0  0  0  0  0
  -29.5201  -12.5020   18.2551 C   0  0  0  0  0  0
  -28.0551  -12.2649   18.6640 C   0  0  0  0  0  0
  -27.6289  -13.1949   19.8247 C   0  0  2  0  0  0
  -28.6611  -13.2159   20.9812 C   0  0  0  0  0  0
  -25.2556  -13.8040   20.5997 C   0  0  0  0  0  0
  -24.1753  -13.0325   20.9236 C   0  0  0  0  0  0
  -24.6298  -11.6815   20.8677 C   0  0  0  0  0  0
  -23.8953  -10.4257   21.0340 C   0  0  0  0  0  0
  -24.3521   -9.4216   21.9152 C   0  0  0  0  0  0
  -23.6228   -8.2248   22.0751 C   0  0  0  0  0  0
  -22.4222   -8.0289   21.3558 C   0  0  0  0  0  0
  -21.9840   -9.0233   20.4658 C   0  0  0  0  0  0
  -22.7112  -10.2112   20.3012 C   0  0  0  0  0  0
  -21.6862   -6.0719   22.5292 C   0  0  0  0  0  0
  -21.3996   -6.5594   23.8224 C   0  0  0  0  0  0
  -21.3657   -5.6741   24.9177 C   0  0  0  0  0  0
  -21.6055   -4.3016   24.7237 C   0  0  0  0  0  0
  -21.8818   -3.8116   23.4355 C   0  0  0  0  0  0
  -21.9194   -4.6943   22.3408 C   0  0  0  0  0  0
  -22.7801  -13.5221   21.1839 C   0  0  0  0  0  0
  -22.1644   -4.2103   21.0990 F   0  0  0  0  0  0
  -21.5663   -3.4525   25.7769 F   0  0  0  0  0  0
  -29.9880  -13.5399   20.4347 N   0  0  0  0  0  0
  -26.2839  -12.9185   20.3103 N   0  0  0  0  0  0
  -25.9191  -11.6356   20.5536 N   0  0  0  0  0  0
  -22.0322  -12.8355   22.0370 N   0  0  0  0  0  0
  -25.4228  -15.1817   20.5310 N   0  0  0  0  0  0
  -31.7706  -14.8739   20.0106 O   0  0  0  0  0  0
  -21.6618   -6.8870   21.4267 O   0  0  0  0  0  0
  -22.3598  -14.5526   20.6610 O   0  0  0  0  0  0
  -24.6301  -31.8533   23.1955 C   0  0  0  0  0  0
  -25.9132  -32.4765   23.8295 C   0  0  1  0  0  0
  -27.2319  -27.2565   20.1554 C   0  0  0  0  0  0
  -25.5907  -33.8547   24.2219 N   0  0  0  0  0  0
  -23.4311  -30.4723   21.5379 C   0  0  2  0  0  0
  -24.8794  -28.9104   20.1154 C   0  0  0  0  0  0
  -22.7483  -29.4621   22.4913 C   0  0  0  0  0  0
  -18.0284  -28.1393   22.8500 C   0  0  0  0  0  0
  -24.1462  -36.7260   23.2643 C   0  0  0  0  0  0
  -25.9738  -30.7681   21.3745 C   0  0  0  0  0  0
  -26.0493  -29.3846   20.7275 C   0  0  0  0  0  0
  -27.2270  -28.5717   20.7294 C   0  0  0  0  0  0
  -26.0444  -26.8509   19.5074 C   0  0  0  0  0  0
  -24.8836  -27.6502   19.4922 C   0  0  0  0  0  0
  -23.6489  -29.7977   20.1578 C   0  0  0  0  0  0
  -25.4104  -36.3074   24.0326 C   0  0  1  0  0  0
  -20.5892  -28.3727   23.1259 C   0  0  2  0  0  0
  -20.6796  -26.9443   22.5402 C   0  0  0  0  0  0
  -19.5779  -26.6383   21.5209 C   0  0  0  0  0  0
  -18.1950  -26.7959   22.1605 C   0  0  0  0  0  0
  -19.1533  -28.8871   23.2885 C   0  0  0  0  0  0
  -18.9481  -30.1463   23.8899 C   0  0  0  0  0  0
  -17.6481  -30.6605   24.0562 C   0  0  0  0  0  0
  -25.9058  -34.9438   23.5078 C   0  0  0  0  0  0
  -16.5359  -29.9119   23.6351 C   0  0  0  0  0  0
  -16.7278  -28.6518   23.0384 C   0  0  0  0  0  0
  -26.4493  -31.6617   25.0684 C   0  0  0  0  0  0
  -25.3716  -31.3769   26.1407 C   0  0  0  0  0  0
  -27.0350  -30.3055   24.6143 C   0  0  0  0  0  0
  -27.6020  -32.4393   25.7482 C   0  0  0  0  0  0
  -27.5573  -37.1770   24.8471 C   0  0  0  0  0  0
  -21.4180  -29.3072   22.3650 N   0  0  0  0  0  0
  -26.4279  -37.3780   23.9439 N   0  0  0  0  0  0
  -24.6984  -31.0474   22.0944 N   0  0  0  0  0  0
  -23.4154  -28.8155   23.3045 O   0  0  0  0  0  0
  -28.3318  -26.3690   20.1882 O   0  0  0  0  0  0
  -26.5631  -34.8909   22.4658 O   0  0  0  0  0  0
  -23.5452  -32.1336   23.7250 O   0  0  0  0  0  0
  -29.9624  -18.4788   20.7078 C   0  0  0  0  0  0
  -28.2610  -16.9876   19.8803 C   0  0  0  0  0  0
  -28.0463  -19.3973   19.4783 C   0  0  0  0  0  0
  -29.2400  -19.6584   20.2163 C   0  0  0  0  0  0
  -29.4985  -17.1072   20.5221 C   0  0  0  0  0  0
  -27.5511  -18.0788   19.3456 C   0  0  0  0  0  0
  -30.9649  -21.3951   19.9282 C   0  0  0  0  0  0
  -25.9813  -16.8920   17.8360 C   0  0  0  0  0  0
  -31.4434  -22.8632   19.8628 C   0  0  0  0  0  0
  -30.5209  -23.9624   20.4366 C   0  0  0  0  0  0
  -28.8059  -22.2283   20.8183 C   0  0  0  0  0  0
  -29.0364  -23.7005   20.1911 C   0  0  1  0  0  0
  -27.2950  -20.4784   18.7048 C   0  0  0  0  0  0
  -24.5510  -16.8777   17.3085 C   0  0  0  0  0  0
  -28.1295  -24.9601   20.6863 C   0  0  0  0  0  0
  -29.7064  -21.0781   20.3456 N   0  0  0  0  0  0
  -26.3009  -17.8691   18.7006 N   0  0  0  0  0  0
  -30.0272  -15.8437   21.1016 N   0  0  0  0  0  0
  -31.7761  -20.5412   19.5556 O   0  0  0  0  0  0
  -26.7753  -16.0280   17.4558 O   0  0  0  0  0  0
  -31.4722  -12.5438   19.2331 H   0  0  0  0  0  0
  -30.3277  -11.4929   20.0027 H   0  0  0  0  0  0
  -29.8366  -11.7378   17.5465 H   0  0  0  0  0  0
  -29.6235  -13.4609   17.7411 H   0  0  0  0  0  0
  -27.9657  -11.2216   18.9784 H   0  0  0  0  0  0
  -27.3874  -12.3779   17.8080 H   0  0  0  0  0  0
  -27.5853  -14.1552   19.3351 H   0  0  0  0  0  0
  -28.6883  -12.2528   21.4927 H   0  0  0  0  0  0
  -28.3523  -13.9532   21.7241 H   0  0  0  0  0  0
  -25.2679   -9.5759   22.4691 H   0  0  0  0  0  0
  -23.9992   -7.4669   22.7480 H   0  0  0  0  0  0
  -21.0764   -8.8691   19.9016 H   0  0  0  0  0  0
  -22.3525  -10.9620   19.6106 H   0  0  0  0  0  0
  -21.1918   -7.6091   23.9716 H   0  0  0  0  0  0
  -21.1482   -6.0462   25.9074 H   0  0  0  0  0  0
  -22.0599   -2.7592   23.2854 H   0  0  0  0  0  0
  -22.3791  -12.0123   22.5037 H   0  0  0  0  0  0
  -21.0942  -13.1563   22.2289 H   0  0  0  0  0  0
  -24.6749  -15.7883   20.8511 H   0  0  0  0  0  0
  -26.3155  -15.6549   20.5201 H   0  0  0  0  0  0
  -26.7165  -32.5402   23.1007 H   0  0  0  0  0  0
  -25.0048  -33.9711   25.0357 H   0  0  0  0  0  0
  -22.7308  -31.2965   21.3872 H   0  0  0  0  0  0
  -23.3774  -35.9558   23.3307 H   0  0  0  0  0  0
  -24.3537  -36.8862   22.2059 H   0  0  0  0  0  0
  -23.7145  -37.6412   23.6690 H   0  0  0  0  0  0
  -26.0991  -31.5220   20.5954 H   0  0  0  0  0  0
  -26.8559  -30.8273   22.0005 H   0  0  0  0  0  0
  -28.1238  -28.9339   21.2132 H   0  0  0  0  0  0
  -26.0131  -25.8916   19.0080 H   0  0  0  0  0  0
  -23.9926  -27.2839   18.9975 H   0  0  0  0  0  0
  -23.7701  -30.5714   19.3979 H   0  0  0  0  0  0
  -22.7687  -29.2252   19.8575 H   0  0  0  0  0  0
  -25.1294  -36.1906   25.0823 H   0  0  0  0  0  0
  -20.9972  -28.3294   24.1395 H   0  0  0  0  0  0
  -20.5701  -26.2328   23.3609 H   0  0  0  0  0  0
  -21.6662  -26.7496   22.1185 H   0  0  0  0  0  0
  -19.6967  -25.6284   21.1275 H   0  0  0  0  0  0
  -19.6726  -27.3166   20.6730 H   0  0  0  0  0  0
  -17.4217  -26.6685   21.3993 H   0  0  0  0  0  0
  -18.0343  -26.0085   22.8993 H   0  0  0  0  0  0
  -19.7944  -30.7274   24.2249 H   0  0  0  0  0  0
  -17.5051  -31.6309   24.5159 H   0  0  0  0  0  0
  -15.5359  -30.3036   23.7717 H   0  0  0  0  0  0
  -15.8650  -28.0847   22.7149 H   0  0  0  0  0  0
  -24.5881  -30.7124   25.7745 H   0  0  0  0  0  0
  -24.8899  -32.2920   26.4847 H   0  0  0  0  0  0
  -25.7997  -30.8918   27.0177 H   0  0  0  0  0  0
  -26.2893  -29.6788   24.1204 H   0  0  0  0  0  0
  -27.4116  -29.7337   25.4635 H   0  0  0  0  0  0
  -27.8750  -30.4393   23.9319 H   0  0  0  0  0  0
  -27.2609  -33.3727   26.1988 H   0  0  0  0  0  0
  -28.3864  -32.6890   25.0328 H   0  0  0  0  0  0
  -28.0656  -31.8545   26.5431 H   0  0  0  0  0  0
  -28.2592  -38.0069   24.7569 H   0  0  0  0  0  0
  -28.1026  -36.2590   24.6242 H   0  0  0  0  0  0
  -27.2262  -37.1348   25.8855 H   0  0  0  0  0  0
  -20.9356  -29.8744   21.6794 H   0  0  0  0  0  0
  -26.0142  -38.2835   24.1483 H   0  0  0  0  0  0
  -30.8911  -18.6236   21.2419 H   0  0  0  0  0  0
  -27.8196  -16.0219   19.7953 H   0  0  0  0  0  0
  -31.6187  -23.0804   18.8082 H   0  0  0  0  0  0
  -32.4188  -22.9260   20.3497 H   0  0  0  0  0  0
  -30.8016  -24.9307   20.0160 H   0  0  0  0  0  0
  -30.6897  -24.0523   21.5116 H   0  0  0  0  0  0
  -27.7565  -21.9510   20.7487 H   0  0  0  0  0  0
  -28.9708  -22.2958   21.8962 H   0  0  0  0  0  0
  -28.8791  -23.6228   19.1134 H   0  0  0  0  0  0
  -27.8442  -21.4061   18.5753 H   0  0  0  0  0  0
  -26.3367  -20.6816   19.1873 H   0  0  0  0  0  0
  -27.0958  -20.1363   17.6897 H   0  0  0  0  0  0
  -23.9694  -17.7157   17.6958 H   0  0  0  0  0  0
  -24.0526  -15.9608   17.6213 H   0  0  0  0  0  0
  -24.5414  -16.9195   16.2187 H   0  0  0  0  0  0
  -28.2507  -25.0277   21.7683 H   0  0  0  0  0  0
  -27.0879  -24.6683   20.5566 H   0  0  0  0  0  0
  -25.5987  -18.5840   18.8422 H   0  0  0  0  0  0
  -29.4051  -15.4811   21.8036 H   0  0  0  0  0  0
  1 25  1  0  0  0
  1 30  2  0  0  0
  1 88  1  0  0  0
  2  3  1  0  0  0
  2 25  1  0  0  0
  2 91  1  0  0  0
  2 92  1  0  0  0
  3  4  1  0  0  0
  3 93  1  0  0  0
  3 94  1  0  0  0
  4  5  1  0  0  0
  4 95  1  0  0  0
  4 96  1  0  0  0
  5  6  1  0  0  0
  5 26  1  0  0  0
  5 97  1  0  0  0
  6 25  1  0  0  0
  6 98  1  0  0  0
  6 99  1  0  0  0
  7  8  2  0  0  0
  7 26  1  0  0  0
  7 29  1  0  0  0
  8  9  1  0  0  0
  8 22  1  0  0  0
  9 10  1  0  0  0
  9 27  2  0  0  0
 10 11  2  0  0  0
 10 15  1  0  0  0
 11 12  1  0  0  0
 11100  1  0  0  0
 12 13  2  0  0  0
 12101  1  0  0  0
 13 14  1  0  0  0
 13 31  1  0  0  0
 14 15  2  0  0  0
 14102  1  0  0  0
 15103  1  0  0  0
 16 17  2  0  0  0
 16 21  1  0  0  0
 16 31  1  0  0  0
 17 18  1  0  0  0
 17104  1  0  0  0
 18 19  2  0  0  0
 18105  1  0  0  0
 19 20  1  0  0  0
 19 24  1  0  0  0
 20 21  2  0  0  0
 20106  1  0  0  0
 21 23  1  0  0  0
 22 28  1  0  0  0
 22 32  2  0  0  0
 26 27  1  0  0  0
 28107  1  0  0  0
 28108  1  0  0  0
 29109  1  0  0  0
 29110  1  0  0  0
 33 34  1  0  0  0
 33 66  1  0  0  0
 33 70  2  0  0  0
 34 36  1  0  0  0
 34 59  1  0  0  0
 34111  1  0  0  0
 35 44  2  0  0  0
 35 45  1  0  0  0
 35 68  1  0  0  0
 36 56  1  0  0  0
 36112  1  0  0  0
 37 39  1  0  0  0
 37 47  1  0  0  0
 37 66  1  0  0  0
 37113  1  0  0  0
 38 43  2  0  0  0
 38 46  1  0  0  0
 38 47  1  0  0  0
 39 64  1  0  0  0
 39 67  2  0  0  0
 40 52  1  0  0  0
 40 53  2  0  0  0
 40 58  1  0  0  0
 41114  1  0  0  0
 41115  1  0  0  0
 41116  1  0  0  0
 41 48  1  0  0  0
 42 43  1  0  0  0
 42 66  1  0  0  0
 42117  1  0  0  0
 42118  1  0  0  0
 43 44  1  0  0  0
 44119  1  0  0  0
 45 46  2  0  0  0
 45120  1  0  0  0
 46121  1  0  0  0
 47122  1  0  0  0
 47123  1  0  0  0
 48 56  1  0  0  0
 48 65  1  0  0  0
 48124  1  0  0  0
 49 50  1  0  0  0
 49 53  1  0  0  0
 49 64  1  0  0  0
 49125  1  0  0  0
 50 51  1  0  0  0
 50126  1  0  0  0
 50127  1  0  0  0
 51 52  1  0  0  0
 51128  1  0  0  0
 51129  1  0  0  0
 52130  1  0  0  0
 52131  1  0  0  0
 53 54  1  0  0  0
 54 55  2  0  0  0
 54132  1  0  0  0
 55 57  1  0  0  0
 55133  1  0  0  0
 56 69  2  0  0  0
 57 58  2  0  0  0
 57134  1  0  0  0
 58135  1  0  0  0
 59 60  1  0  0  0
 59 61  1  0  0  0
 59 62  1  0  0  0
 60136  1  0  0  0
 60137  1  0  0  0
 60138  1  0  0  0
 61139  1  0  0  0
 61140  1  0  0  0
 61141  1  0  0  0
 62142  1  0  0  0
 62143  1  0  0  0
 62144  1  0  0  0
 63 65  1  0  0  0
 63145  1  0  0  0
 63146  1  0  0  0
 63147  1  0  0  0
 64148  1  0  0  0
 65149  1  0  0  0
 68 85  1  0  0  0
 71 74  2  0  0  0
 71 75  1  0  0  0
 71150  1  0  0  0
 72 75  2  0  0  0
 72 76  1  0  0  0
 72151  1  0  0  0
 73 74  1  0  0  0
 73 76  2  0  0  0
 73 83  1  0  0  0
 74 86  1  0  0  0
 75 88  1  0  0  0
 76 87  1  0  0  0
 77 79  1  0  0  0
 77 86  1  0  0  0
 77 89  2  0  0  0
 78 84  1  0  0  0
 78 87  1  0  0  0
 78 90  2  0  0  0
 79 80  1  0  0  0
 79152  1  0  0  0
 79153  1  0  0  0
 80 82  1  0  0  0
 80154  1  0  0  0
 80155  1  0  0  0
 81 82  1  0  0  0
 81 86  1  0  0  0
 81156  1  0  0  0
 81157  1  0  0  0
 82 85  1  0  0  0
 82158  1  0  0  0
 83159  1  0  0  0
 83160  1  0  0  0
 83161  1  0  0  0
 84162  1  0  0  0
 84163  1  0  0  0
 84164  1  0  0  0
 85165  1  0  0  0
 85166  1  0  0  0
 87167  1  0  0  0
 88168  1  0  0  0
M  ISO  4   1 100  68 101  85 101  88 100
M  END
> <chiral flag>
0

> <version>
0

> <s_m_source_file>
/data/baiqing/PycharmProjects/Reinvent-master-3.2/result/LINK_invent/BTK/process_docking_weight1_custom_product_contain_oxygen_bond_distance_aromatic_linkinvent_7_9_3/rearranged_h_0065.sdf

> <i_m_source_file_index>
21

> <r_mmod_Potential_Energy-OPLS-2005>
307.186676025391

> <r_mmod_Stretch_Energy-OPLS-2005>
139.005798339844

> <r_mmod_Bend_Energy-OPLS-2005>
191.854553222656

> <r_mmod_Torsional_Energy-OPLS-2005>
362.120849609375

> <r_mmod_Improper_Torsional_Energy-OPLS-2005>
8.47714614868164

> <r_mmod_Van_der_Waal_Energy-OPLS-2005>
153.045288085938

> <r_mmod_Electrostatic_Energy-OPLS-2005>
-386.915313720703

> <r_mmod_Solvation_Energy-OPLS-2005>
-254.871200561523

> <b_mmod_Minimization_Converged-OPLS-2005>
0

> <r_mmod_RMS_Derivative-OPLS-2005>
7.1113486289978

$$$$
21
                    3D
 Structure written by MMmdl.
161170  0  0  1  0            999 V2000
  -30.6509  -14.7314   20.4573 C   0  0  0  0  0  0
  -30.4182  -12.4437   19.4844 C   0  0  0  0  0  0
  -29.5058  -12.5035   18.2416 C   0  0  0  0  0  0
  -28.0336  -12.3331   18.6530 C   0  0  0  0  0  0
  -27.6404  -13.2375   19.8520 C   0  0  2  0  0  0
  -28.6836  -13.1897   20.9911 C   0  0  0  0  0  0
  -25.2495  -13.8205   20.5679 C   0  0  0  0  0  0
  -24.1798  -13.0444   20.9224 C   0  0  0  0  0  0
  -24.6399  -11.6929   20.8768 C   0  0  0  0  0  0
  -23.9078  -10.4299   21.0419 C   0  0  0  0  0  0
  -24.3626   -9.4210   21.9194 C   0  0  0  0  0  0
  -23.6301   -8.2245   22.0762 C   0  0  0  0  0  0
  -22.4285   -8.0287   21.3548 C   0  0  0  0  0  0
  -21.9920   -9.0260   20.4648 C   0  0  0  0  0  0
  -22.7252  -10.2139   20.3064 C   0  0  0  0  0  0
  -21.6856   -6.0739   22.5280 C   0  0  0  0  0  0
  -21.4010   -6.5642   23.8213 C   0  0  0  0  0  0
  -21.3658   -5.6792   24.9175 C   0  0  0  0  0  0
  -21.6047   -4.3055   24.7226 C   0  0  0  0  0  0
  -21.8819   -3.8150   23.4345 C   0  0  0  0  0  0
  -21.9192   -4.6965   22.3399 C   0  0  0  0  0  0
  -22.7817  -13.5230   21.1857 C   0  0  0  0  0  0
  -22.1666   -4.2147   21.0976 F   0  0  0  0  0  0
  -21.5626   -3.4541   25.7742 F   0  0  0  0  0  0
  -29.9860  -13.5248   20.4050 N   0  0  0  0  0  0
  -26.2931  -12.9422   20.3294 N   0  0  0  0  0  0
  -25.9333  -11.6559   20.5784 N   0  0  0  0  0  0
  -22.0467  -12.8215   22.0410 N   0  0  0  0  0  0
  -25.4143  -15.1915   20.3998 N   0  0  0  0  0  0
  -31.8363  -14.7459   20.1235 O   0  0  0  0  0  0
  -21.6650   -6.8883   21.4243 O   0  0  0  0  0  0
  -22.3504  -14.5533   20.6705 O   0  0  0  0  0  0
  -24.6336  -31.8535   23.1961 C   0  0  0  0  0  0
  -25.9152  -32.4740   23.8310 C   0  0  1  0  0  0
  -27.2216  -27.2469   20.1204 C   0  0  0  0  0  0
  -25.5941  -33.8542   24.2242 N   0  0  0  0  0  0
  -23.4302  -30.4751   21.5398 C   0  0  2  0  0  0
  -24.8762  -28.9210   20.1100 C   0  0  0  0  0  0
  -22.7516  -29.4577   22.4896 C   0  0  0  0  0  0
  -18.0290  -28.1383   22.8474 C   0  0  0  0  0  0
  -24.1489  -36.7275   23.2637 C   0  0  0  0  0  0
  -25.9766  -30.7627   21.3758 C   0  0  0  0  0  0
  -26.0485  -29.3832   20.7194 C   0  0  0  0  0  0
  -27.2197  -28.5571   20.7162 C   0  0  0  0  0  0
  -26.0220  -26.8600   19.4789 C   0  0  0  0  0  0
  -24.8692  -27.6681   19.4803 C   0  0  0  0  0  0
  -23.6488  -29.8089   20.1569 C   0  0  0  0  0  0
  -25.4111  -36.3054   24.0327 C   0  0  1  0  0  0
  -20.5890  -28.3689   23.1255 C   0  0  2  0  0  0
  -20.6771  -26.9400   22.5405 C   0  0  0  0  0  0
  -19.5752  -26.6383   21.5199 C   0  0  0  0  0  0
  -18.1929  -26.7922   22.1613 C   0  0  0  0  0  0
  -19.1545  -28.8856   23.2852 C   0  0  0  0  0  0
  -18.9469  -30.1453   23.8874 C   0  0  0  0  0  0
  -17.6470  -30.6580   24.0561 C   0  0  0  0  0  0
  -25.9062  -34.9434   23.5090 C   0  0  0  0  0  0
  -16.5358  -29.9079   23.6335 C   0  0  0  0  0  0
  -16.7275  -28.6498   23.0352 C   0  0  0  0  0  0
  -26.4516  -31.6565   25.0702 C   0  0  0  0  0  0
  -25.3743  -31.3714   26.1430 C   0  0  0  0  0  0
  -27.0372  -30.2982   24.6185 C   0  0  0  0  0  0
  -27.6079  -32.4303   25.7473 C   0  0  0  0  0  0
  -27.5582  -37.1772   24.8455 C   0  0  0  0  0  0
  -21.4220  -29.3033   22.3652 N   0  0  0  0  0  0
  -26.4281  -37.3764   23.9431 N   0  0  0  0  0  0
  -24.6994  -31.0493   22.0936 N   0  0  0  0  0  0
  -23.4212  -28.8108   23.2990 O   0  0  0  0  0  0
  -28.3347  -26.3718   20.2052 O   0  0  0  0  0  0
  -26.5642  -34.8921   22.4664 O   0  0  0  0  0  0
  -23.5487  -32.1356   23.7253 O   0  0  0  0  0  0
  -32.1952  -18.9710   20.2506 C   0  0  0  0  0  0
  -31.3137  -20.0592   20.2221 C   0  0  0  0  0  0
  -31.7291  -17.6606   20.4242 C   0  0  0  0  0  0
  -29.4498  -18.5148   20.5506 C   0  0  0  0  0  0
  -29.9191  -19.9013   20.3912 C   0  0  0  0  0  0
  -30.3523  -17.3529   20.5478 C   0  0  0  0  0  0
  -29.4047  -22.3809   19.8275 C   0  0  0  0  0  0
  -27.7981  -22.9841   21.4185 C   0  0  0  0  0  0
  -28.2003  -21.4830   21.5485 C   0  0  0  0  0  0
  -28.8783  -23.6812   20.5657 C   0  0  1  0  0  0
  -27.9609  -18.2610   20.7091 C   0  0  0  0  0  0
  -30.0474  -24.1739   21.4449 C   0  0  0  0  0  0
  -28.3646  -24.9518   19.6807 C   0  0  0  0  0  0
  -29.1378  -21.1817   20.4643 N   0  0  0  0  0  0
  -29.9406  -15.9147   20.6812 N   0  0  0  0  0  0
  -30.0085  -22.4721   18.7538 O   0  0  0  0  0  0
  -31.4632  -12.5360   19.1823 H   0  0  0  0  0  0
  -30.3391  -11.4720   19.9750 H   0  0  0  0  0  0
  -29.7880  -11.7291   17.5266 H   0  0  0  0  0  0
  -29.6383  -13.4579   17.7286 H   0  0  0  0  0  0
  -27.8874  -11.2850   18.9181 H   0  0  0  0  0  0
  -27.3774  -12.5250   17.8029 H   0  0  0  0  0  0
  -27.6314  -14.2565   19.4656 H   0  0  0  0  0  0
  -28.7144  -12.2016   21.4522 H   0  0  0  0  0  0
  -28.4207  -13.8910   21.7844 H   0  0  0  0  0  0
  -25.2764   -9.5688   22.4773 H   0  0  0  0  0  0
  -24.0006   -7.4639   22.7482 H   0  0  0  0  0  0
  -21.0853   -8.8784   19.8954 H   0  0  0  0  0  0
  -22.3714  -10.9681   19.6180 H   0  0  0  0  0  0
  -21.2005   -7.6155   23.9712 H   0  0  0  0  0  0
  -21.1480   -6.0530   25.9076 H   0  0  0  0  0  0
  -22.0599   -2.7613   23.2850 H   0  0  0  0  0  0
  -22.4091  -11.9883   22.4796 H   0  0  0  0  0  0
  -21.1089  -13.1235   22.2616 H   0  0  0  0  0  0
  -24.6301  -15.8312   20.4699 H   0  0  0  0  0  0
  -26.2342  -15.6144   19.9860 H   0  0  0  0  0  0
  -26.7218  -32.5392   23.1054 H   0  0  0  0  0  0
  -25.0093  -33.9657   25.0387 H   0  0  0  0  0  0
  -22.7264  -31.2968   21.3921 H   0  0  0  0  0  0
  -23.3760  -35.9597   23.3282 H   0  0  0  0  0  0
  -24.3582  -36.8924   22.2054 H   0  0  0  0  0  0
  -23.7227  -37.6464   23.6682 H   0  0  0  0  0  0
  -26.1141  -31.5212   20.6035 H   0  0  0  0  0  0
  -26.8560  -30.8155   22.0062 H   0  0  0  0  0  0
  -28.1173  -28.9039   21.2104 H   0  0  0  0  0  0
  -25.9142  -25.9125   18.9798 H   0  0  0  0  0  0
  -23.9724  -27.3075   18.9956 H   0  0  0  0  0  0
  -23.7747  -30.5838   19.3992 H   0  0  0  0  0  0
  -22.7670  -29.2421   19.8530 H   0  0  0  0  0  0
  -25.1279  -36.1895   25.0817 H   0  0  0  0  0  0
  -20.9971  -28.3286   24.1381 H   0  0  0  0  0  0
  -20.5655  -26.2297   23.3614 H   0  0  0  0  0  0
  -21.6636  -26.7416   22.1201 H   0  0  0  0  0  0
  -19.6920  -25.6295   21.1237 H   0  0  0  0  0  0
  -19.6707  -27.3195   20.6725 H   0  0  0  0  0  0
  -17.4195  -26.6669   21.4021 H   0  0  0  0  0  0
  -18.0325  -26.0062   22.9007 H   0  0  0  0  0  0
  -19.7956  -30.7259   24.2245 H   0  0  0  0  0  0
  -17.5035  -31.6262   24.5161 H   0  0  0  0  0  0
  -15.5358  -30.2978   23.7668 H   0  0  0  0  0  0
  -15.8677  -28.0820   22.7071 H   0  0  0  0  0  0
  -24.5923  -30.7050   25.7762 H   0  0  0  0  0  0
  -24.8924  -32.2879   26.4847 H   0  0  0  0  0  0
  -25.8065  -30.8905   27.0214 H   0  0  0  0  0  0
  -26.2952  -29.6695   24.1241 H   0  0  0  0  0  0
  -27.4092  -29.7270   25.4699 H   0  0  0  0  0  0
  -27.8816  -30.4256   23.9406 H   0  0  0  0  0  0
  -27.2718  -33.3648   26.1986 H   0  0  0  0  0  0
  -28.3930  -32.6779   25.0312 H   0  0  0  0  0  0
  -28.0699  -31.8451   26.5438 H   0  0  0  0  0  0
  -28.2545  -38.0121   24.7567 H   0  0  0  0  0  0
  -28.1128  -36.2648   24.6195 H   0  0  0  0  0  0
  -27.2310  -37.1314   25.8857 H   0  0  0  0  0  0
  -20.9404  -29.8781   21.6883 H   0  0  0  0  0  0
  -26.0153  -38.2829   24.1486 H   0  0  0  0  0  0
  -33.2571  -19.1442   20.1513 H   0  0  0  0  0  0
  -31.7497  -21.0421   20.1111 H   0  0  0  0  0  0
  -32.4961  -16.9069   20.4634 H   0  0  0  0  0  0
  -27.6715  -23.4527   22.3941 H   0  0  0  0  0  0
  -26.8347  -23.0515   20.9106 H   0  0  0  0  0  0
  -27.3193  -20.8444   21.5150 H   0  0  0  0  0  0
  -28.7028  -21.3035   22.5001 H   0  0  0  0  0  0
  -27.6878  -18.2704   21.7649 H   0  0  0  0  0  0
  -27.6701  -17.2993   20.2872 H   0  0  0  0  0  0
  -27.3781  -19.0200   20.1885 H   0  0  0  0  0  0
  -30.4124  -23.3926   22.1132 H   0  0  0  0  0  0
  -29.7526  -25.0213   22.0637 H   0  0  0  0  0  0
  -30.8898  -24.4967   20.8310 H   0  0  0  0  0  0
  -27.4343  -24.6442   19.2195 H   0  0  0  0  0  0
  -29.0447  -25.0238   18.8316 H   0  0  0  0  0  0
  -28.9691  -15.7650   20.9064 H   0  0  0  0  0  0
  1 25  1  0  0  0
  1 30  2  0  0  0
  1 85  1  0  0  0
  2  3  1  0  0  0
  2 25  1  0  0  0
  2 87  1  0  0  0
  2 88  1  0  0  0
  3  4  1  0  0  0
  3 89  1  0  0  0
  3 90  1  0  0  0
  4  5  1  0  0  0
  4 91  1  0  0  0
  4 92  1  0  0  0
  5  6  1  0  0  0
  5 26  1  0  0  0
  5 93  1  0  0  0
  6 25  1  0  0  0
  6 94  1  0  0  0
  6 95  1  0  0  0
  7  8  2  0  0  0
  7 26  1  0  0  0
  7 29  1  0  0  0
  8  9  1  0  0  0
  8 22  1  0  0  0
  9 10  1  0  0  0
  9 27  2  0  0  0
 10 11  2  0  0  0
 10 15  1  0  0  0
 11 12  1  0  0  0
 11 96  1  0  0  0
 12 13  2  0  0  0
 12 97  1  0  0  0
 13 14  1  0  0  0
 13 31  1  0  0  0
 14 15  2  0  0  0
 14 98  1  0  0  0
 15 99  1  0  0  0
 16 17  2  0  0  0
 16 21  1  0  0  0
 16 31  1  0  0  0
 17 18  1  0  0  0
 17100  1  0  0  0
 18 19  2  0  0  0
 18101  1  0  0  0
 19 20  1  0  0  0
 19 24  1  0  0  0
 20 21  2  0  0  0
 20102  1  0  0  0
 21 23  1  0  0  0
 22 28  1  0  0  0
 22 32  2  0  0  0
 26 27  1  0  0  0
 28103  1  0  0  0
 28104  1  0  0  0
 29105  1  0  0  0
 29106  1  0  0  0
 33 34  1  0  0  0
 33 66  1  0  0  0
 33 70  2  0  0  0
 34 36  1  0  0  0
 34 59  1  0  0  0
 34107  1  0  0  0
 35 44  2  0  0  0
 35 45  1  0  0  0
 35 68  1  0  0  0
 36 56  1  0  0  0
 36108  1  0  0  0
 37 39  1  0  0  0
 37 47  1  0  0  0
 37 66  1  0  0  0
 37109  1  0  0  0
 38 43  2  0  0  0
 38 46  1  0  0  0
 38 47  1  0  0  0
 39 64  1  0  0  0
 39 67  2  0  0  0
 40 52  1  0  0  0
 40 53  2  0  0  0
 40 58  1  0  0  0
 41110  1  0  0  0
 41111  1  0  0  0
 41112  1  0  0  0
 41 48  1  0  0  0
 42 43  1  0  0  0
 42 66  1  0  0  0
 42113  1  0  0  0
 42114  1  0  0  0
 43 44  1  0  0  0
 44115  1  0  0  0
 45 46  2  0  0  0
 45116  1  0  0  0
 46117  1  0  0  0
 47118  1  0  0  0
 47119  1  0  0  0
 48 56  1  0  0  0
 48 65  1  0  0  0
 48120  1  0  0  0
 49 50  1  0  0  0
 49 53  1  0  0  0
 49 64  1  0  0  0
 49121  1  0  0  0
 50 51  1  0  0  0
 50122  1  0  0  0
 50123  1  0  0  0
 51 52  1  0  0  0
 51124  1  0  0  0
 51125  1  0  0  0
 52126  1  0  0  0
 52127  1  0  0  0
 53 54  1  0  0  0
 54 55  2  0  0  0
 54128  1  0  0  0
 55 57  1  0  0  0
 55129  1  0  0  0
 56 69  2  0  0  0
 57 58  2  0  0  0
 57130  1  0  0  0
 58131  1  0  0  0
 59 60  1  0  0  0
 59 61  1  0  0  0
 59 62  1  0  0  0
 60132  1  0  0  0
 60133  1  0  0  0
 60134  1  0  0  0
 61135  1  0  0  0
 61136  1  0  0  0
 61137  1  0  0  0
 62138  1  0  0  0
 62139  1  0  0  0
 62140  1  0  0  0
 63 65  1  0  0  0
 63141  1  0  0  0
 63142  1  0  0  0
 63143  1  0  0  0
 64144  1  0  0  0
 65145  1  0  0  0
 68 83  1  0  0  0
 71 72  2  0  0  0
 71 73  1  0  0  0
 71146  1  0  0  0
 72 75  1  0  0  0
 72147  1  0  0  0
 73 76  2  0  0  0
 73148  1  0  0  0
 74 75  2  0  0  0
 74 76  1  0  0  0
 74 81  1  0  0  0
 75 84  1  0  0  0
 76 85  1  0  0  0
 77 80  1  0  0  0
 77 84  1  0  0  0
 77 86  2  0  0  0
 78 79  1  0  0  0
 78 80  1  0  0  0
 78149  1  0  0  0
 78150  1  0  0  0
 79 84  1  0  0  0
 79151  1  0  0  0
 79152  1  0  0  0
 80 82  1  0  0  0
 80 83  1  0  0  0
 81153  1  0  0  0
 81154  1  0  0  0
 81155  1  0  0  0
 82156  1  0  0  0
 82157  1  0  0  0
 82158  1  0  0  0
 83159  1  0  0  0
 83160  1  0  0  0
 85161  1  0  0  0
M  ISO  4   1 100  68 101  83 101  85 100
M  END
> <chiral flag>
0

> <version>
0

> <s_m_source_file>
/data/baiqing/PycharmProjects/Reinvent-master-3.2/result/LINK_invent/BTK/process_docking_weight1_custom_product_contain_oxygen_bond_distance_aromatic_linkinvent_7_9_3/rearranged_h_0065.sdf

> <i_m_source_file_index>
22

> <r_mmod_Potential_Energy-OPLS-2005>
315.897430419922

> <r_mmod_Stretch_Energy-OPLS-2005>
141.32861328125

> <r_mmod_Bend_Energy-OPLS-2005>
210.334991455078

> <r_mmod_Torsional_Energy-OPLS-2005>
292.207977294922

> <r_mmod_Improper_Torsional_Energy-OPLS-2005>
5.85898399353027

> <r_mmod_Van_der_Waal_Energy-OPLS-2005>
148.173645019531

> <r_mmod_Electrostatic_Energy-OPLS-2005>
-349.290100097656

> <r_mmod_Solvation_Energy-OPLS-2005>
-217.274444580078

> <b_mmod_Minimization_Converged-OPLS-2005>
0

> <r_mmod_RMS_Derivative-OPLS-2005>
1.95361435413361

$$$$
22
                    3D
 Structure written by MMmdl.
178187  0  0  1  0            999 V2000
  -30.6830  -14.5093   20.4679 C   0  0  0  0  0  0
  -30.4182  -12.3049   19.4398 C   0  0  0  0  0  0
  -29.4972  -12.4827   18.2138 C   0  0  0  0  0  0
  -28.0180  -12.3490   18.6239 C   0  0  0  0  0  0
  -27.6547  -13.2127   19.8615 C   0  0  2  0  0  0
  -28.6968  -13.0468   20.9915 C   0  0  0  0  0  0
  -25.2568  -13.8170   20.5671 C   0  0  0  0  0  0
  -24.1820  -13.0449   20.9185 C   0  0  0  0  0  0
  -24.6374  -11.6911   20.8739 C   0  0  0  0  0  0
  -23.9048  -10.4292   21.0393 C   0  0  0  0  0  0
  -24.3601   -9.4213   21.9172 C   0  0  0  0  0  0
  -23.6278   -8.2243   22.0738 C   0  0  0  0  0  0
  -22.4253   -8.0270   21.3536 C   0  0  0  0  0  0
  -21.9891   -9.0249   20.4651 C   0  0  0  0  0  0
  -22.7217  -10.2129   20.3054 C   0  0  0  0  0  0
  -21.6852   -6.0724   22.5269 C   0  0  0  0  0  0
  -21.4023   -6.5622   23.8208 C   0  0  0  0  0  0
  -21.3661   -5.6780   24.9171 C   0  0  0  0  0  0
  -21.6038   -4.3042   24.7225 C   0  0  0  0  0  0
  -21.8821   -3.8131   23.4352 C   0  0  0  0  0  0
  -21.9200   -4.6951   22.3403 C   0  0  0  0  0  0
  -22.7844  -13.5258   21.1848 C   0  0  0  0  0  0
  -22.1666   -4.2135   21.0982 F   0  0  0  0  0  0
  -21.5629   -3.4529   25.7742 F   0  0  0  0  0  0
  -30.0259  -13.3206   20.4281 N   0  0  0  0  0  0
  -26.2983  -12.9347   20.3303 N   0  0  0  0  0  0
  -25.9299  -11.6500   20.5733 N   0  0  0  0  0  0
  -22.0485  -12.8262   22.0413 N   0  0  0  0  0  0
  -25.4327  -15.1878   20.4084 N   0  0  0  0  0  0
  -31.8791  -14.6173   20.1838 O   0  0  0  0  0  0
  -21.6634   -6.8856   21.4223 O   0  0  0  0  0  0
  -22.3535  -14.5573   20.6703 O   0  0  0  0  0  0
  -24.6164  -31.8685   23.2117 C   0  0  0  0  0  0
  -25.9054  -32.4827   23.8411 C   0  0  1  0  0  0
  -27.2266  -27.4172   20.0853 C   0  0  0  0  0  0
  -25.5906  -33.8622   24.2336 N   0  0  0  0  0  0
  -23.4036  -30.4970   21.5520 C   0  0  2  0  0  0
  -24.8468  -28.9701   20.1101 C   0  0  0  0  0  0
  -22.7413  -29.4671   22.4961 C   0  0  0  0  0  0
  -18.0271  -28.1367   22.8481 C   0  0  0  0  0  0
  -24.1488  -36.7318   23.2634 C   0  0  0  0  0  0
  -25.9367  -30.8288   21.3693 C   0  0  0  0  0  0
  -26.0096  -29.4642   20.7116 C   0  0  0  0  0  0
  -27.1969  -28.6930   20.7023 C   0  0  0  0  0  0
  -26.0326  -26.9442   19.4849 C   0  0  0  0  0  0
  -24.8546  -27.7096   19.4970 C   0  0  0  0  0  0
  -23.6112  -29.8389   20.1632 C   0  0  0  0  0  0
  -25.4101  -36.3111   24.0340 C   0  0  1  0  0  0
  -20.5864  -28.3670   23.1291 C   0  0  2  0  0  0
  -20.6760  -26.9399   22.5405 C   0  0  0  0  0  0
  -19.5740  -26.6381   21.5197 C   0  0  0  0  0  0
  -18.1919  -26.7915   22.1612 C   0  0  0  0  0  0
  -19.1524  -28.8833   23.2888 C   0  0  0  0  0  0
  -18.9454  -30.1434   23.8910 C   0  0  0  0  0  0
  -17.6459  -30.6575   24.0562 C   0  0  0  0  0  0
  -25.9030  -34.9479   23.5135 C   0  0  0  0  0  0
  -16.5349  -29.9082   23.6319 C   0  0  0  0  0  0
  -16.7262  -28.6496   23.0348 C   0  0  0  0  0  0
  -26.4475  -31.6600   25.0745 C   0  0  0  0  0  0
  -25.3744  -31.3732   26.1496 C   0  0  0  0  0  0
  -27.0292  -30.3034   24.6135 C   0  0  0  0  0  0
  -27.6059  -32.4317   25.7491 C   0  0  0  0  0  0
  -27.5585  -37.1799   24.8450 C   0  0  0  0  0  0
  -21.4141  -29.3048   22.3701 N   0  0  0  0  0  0
  -26.4286  -37.3803   23.9420 N   0  0  0  0  0  0
  -24.6705  -31.0786   22.1022 N   0  0  0  0  0  0
  -23.4184  -28.8189   23.2987 O   0  0  0  0  0  0
  -28.3972  -26.6744   20.1404 O   0  0  0  0  0  0
  -26.5591  -34.8926   22.4692 O   0  0  0  0  0  0
  -23.5352  -32.1442   23.7503 O   0  0  0  0  0  0
  -29.1871  -17.9087   19.9095 C   0  0  0  0  0  0
  -30.5399  -16.6043   18.3775 C   0  0  0  0  0  0
  -29.0379  -18.9399   18.9349 C   0  0  0  0  0  0
  -30.4273  -17.6015   17.3935 C   0  0  0  0  0  0
  -29.5980  -18.7295   17.6372 C   0  0  0  0  0  0
  -29.8992  -16.7123   19.6313 C   0  0  0  0  0  0
  -28.9283  -22.3918   18.3304 C   0  0  0  0  0  0
  -30.9228  -25.0769   20.2044 C   0  0  0  0  0  0
  -29.9203  -23.5487   18.4942 C   0  0  0  0  0  0
  -28.9326  -23.5636   20.8356 C   0  0  0  0  0  0
  -29.2552  -22.0359   20.6875 C   0  0  0  0  0  0
  -29.5886  -24.4609   19.7159 C   0  0  1  0  0  0
  -29.2516  -19.6463   16.4720 C   0  0  0  0  0  0
  -31.6111  -26.1094   19.3183 C   0  0  0  0  0  0
  -30.4604  -16.3655   15.1793 C   0  0  0  0  0  0
  -32.6537  -17.0002   16.2830 C   0  0  0  0  0  0
  -28.1818  -20.1897   19.2877 C   0  0  0  0  0  0
  -28.6103  -25.5820   19.2255 C   0  0  0  0  0  0
  -31.1795  -17.3900   16.0699 C   0  0  0  0  0  0
  -28.8664  -21.5117   19.3574 N   0  0  0  0  0  0
  -29.8988  -15.6080   20.5605 N   0  0  0  0  0  0
  -28.2513  -22.3234   17.3033 O   0  0  0  0  0  0
  -31.4606  -24.7297   21.2598 O   0  0  0  0  0  0
  -31.4639  -12.3951   19.1399 H   0  0  0  0  0  0
  -30.3094  -11.3071   19.8654 H   0  0  0  0  0  0
  -29.7397  -11.7432   17.4502 H   0  0  0  0  0  0
  -29.6640  -13.4593   17.7559 H   0  0  0  0  0  0
  -27.8292  -11.2959   18.8371 H   0  0  0  0  0  0
  -27.3713  -12.6078   17.7848 H   0  0  0  0  0  0
  -27.6801  -14.2495   19.5279 H   0  0  0  0  0  0
  -28.6716  -12.0337   21.3929 H   0  0  0  0  0  0
  -28.4723  -13.7097   21.8287 H   0  0  0  0  0  0
  -25.2741   -9.5702   22.4747 H   0  0  0  0  0  0
  -23.9998   -7.4638   22.7450 H   0  0  0  0  0  0
  -21.0814   -8.8775   19.8960 H   0  0  0  0  0  0
  -22.3664  -10.9668   19.6168 H   0  0  0  0  0  0
  -21.2011   -7.6132   23.9702 H   0  0  0  0  0  0
  -21.1483   -6.0512   25.9074 H   0  0  0  0  0  0
  -22.0604   -2.7590   23.2854 H   0  0  0  0  0  0
  -22.4103  -11.9936   22.4823 H   0  0  0  0  0  0
  -21.1111  -13.1293   22.2625 H   0  0  0  0  0  0
  -24.6692  -15.8463   20.5160 H   0  0  0  0  0  0
  -26.2830  -15.6196   20.0683 H   0  0  0  0  0  0
  -26.7123  -32.5528   23.1171 H   0  0  0  0  0  0
  -25.0067  -33.9790   25.0494 H   0  0  0  0  0  0
  -22.6932  -31.3156   21.4171 H   0  0  0  0  0  0
  -23.3750  -35.9648   23.3284 H   0  0  0  0  0  0
  -24.3596  -36.8943   22.2053 H   0  0  0  0  0  0
  -23.7235  -37.6517   23.6654 H   0  0  0  0  0  0
  -26.0559  -31.5979   20.6046 H   0  0  0  0  0  0
  -26.8224  -30.8758   21.9914 H   0  0  0  0  0  0
  -28.0924  -29.0721   21.1751 H   0  0  0  0  0  0
  -25.9451  -25.9788   19.0168 H   0  0  0  0  0  0
  -23.9579  -27.3190   19.0365 H   0  0  0  0  0  0
  -23.7205  -30.6186   19.4081 H   0  0  0  0  0  0
  -22.7339  -29.2628   19.8636 H   0  0  0  0  0  0
  -25.1270  -36.1978   25.0832 H   0  0  0  0  0  0
  -20.9961  -28.3245   24.1410 H   0  0  0  0  0  0
  -20.5638  -26.2287   23.3603 H   0  0  0  0  0  0
  -21.6638  -26.7420   22.1220 H   0  0  0  0  0  0
  -19.6906  -25.6294   21.1225 H   0  0  0  0  0  0
  -19.6674  -27.3196   20.6729 H   0  0  0  0  0  0
  -17.4185  -26.6653   21.4017 H   0  0  0  0  0  0
  -18.0325  -26.0053   22.9004 H   0  0  0  0  0  0
  -19.7936  -30.7235   24.2295 H   0  0  0  0  0  0
  -17.5021  -31.6260   24.5160 H   0  0  0  0  0  0
  -15.5351  -30.2995   23.7631 H   0  0  0  0  0  0
  -15.8660  -28.0818   22.7064 H   0  0  0  0  0  0
  -24.5907  -30.7077   25.7853 H   0  0  0  0  0  0
  -24.8950  -32.2901   26.4938 H   0  0  0  0  0  0
  -25.8105  -30.8915   27.0261 H   0  0  0  0  0  0
  -26.2842  -29.6805   24.1172 H   0  0  0  0  0  0
  -27.4017  -29.7259   25.4607 H   0  0  0  0  0  0
  -27.8700  -30.4323   23.9319 H   0  0  0  0  0  0
  -27.2682  -33.3604   26.2102 H   0  0  0  0  0  0
  -28.3848  -32.6892   25.0304 H   0  0  0  0  0  0
  -28.0750  -31.8422   26.5382 H   0  0  0  0  0  0
  -28.2575  -38.0124   24.7544 H   0  0  0  0  0  0
  -28.1106  -36.2660   24.6201 H   0  0  0  0  0  0
  -27.2320  -37.1367   25.8855 H   0  0  0  0  0  0
  -20.9287  -29.8808   21.6963 H   0  0  0  0  0  0
  -26.0170  -38.2871   24.1451 H   0  0  0  0  0  0
  -28.7093  -18.0221   20.8722 H   0  0  0  0  0  0
  -31.0973  -15.7178   18.1216 H   0  0  0  0  0  0
  -29.9600  -24.1206   17.5669 H   0  0  0  0  0  0
  -30.9094  -23.0978   18.5949 H   0  0  0  0  0  0
  -29.1991  -23.9019   21.8386 H   0  0  0  0  0  0
  -27.8482  -23.6815   20.8041 H   0  0  0  0  0  0
  -28.7482  -21.4884   21.4827 H   0  0  0  0  0  0
  -30.3221  -21.8605   20.8343 H   0  0  0  0  0  0
  -28.2326  -20.0151   16.5506 H   0  0  0  0  0  0
  -29.2546  -19.1239   15.5170 H   0  0  0  0  0  0
  -29.9502  -20.4804   16.4071 H   0  0  0  0  0  0
  -31.4754  -25.8746   18.2632 H   0  0  0  0  0  0
  -32.6808  -26.1346   19.5266 H   0  0  0  0  0  0
  -31.2002  -27.1003   19.5117 H   0  0  0  0  0  0
  -29.4549  -16.7014   14.9232 H   0  0  0  0  0  0
  -30.3683  -15.3989   15.6762 H   0  0  0  0  0  0
  -31.0022  -16.2051   14.2458 H   0  0  0  0  0  0
  -33.1623  -17.7263   16.9185 H   0  0  0  0  0  0
  -33.1865  -16.9747   15.3315 H   0  0  0  0  0  0
  -32.7689  -16.0167   16.7395 H   0  0  0  0  0  0
  -27.6914  -20.0053   20.2428 H   0  0  0  0  0  0
  -27.3464  -20.2452   18.5890 H   0  0  0  0  0  0
  -27.7018  -25.0633   18.9415 H   0  0  0  0  0  0
  -28.9787  -26.0300   18.3018 H   0  0  0  0  0  0
  -31.2318  -18.3308   15.5248 H   0  0  0  0  0  0
  -29.0361  -15.4782   21.0664 H   0  0  0  0  0  0
  1 25  1  0  0  0
  1 30  2  0  0  0
  1 91  1  0  0  0
  2  3  1  0  0  0
  2 25  1  0  0  0
  2 94  1  0  0  0
  2 95  1  0  0  0
  3  4  1  0  0  0
  3 96  1  0  0  0
  3 97  1  0  0  0
  4  5  1  0  0  0
  4 98  1  0  0  0
  4 99  1  0  0  0
  5  6  1  0  0  0
  5 26  1  0  0  0
  5100  1  0  0  0
  6 25  1  0  0  0
  6101  1  0  0  0
  6102  1  0  0  0
  7  8  2  0  0  0
  7 26  1  0  0  0
  7 29  1  0  0  0
  8  9  1  0  0  0
  8 22  1  0  0  0
  9 10  1  0  0  0
  9 27  2  0  0  0
 10 11  2  0  0  0
 10 15  1  0  0  0
 11 12  1  0  0  0
 11103  1  0  0  0
 12 13  2  0  0  0
 12104  1  0  0  0
 13 14  1  0  0  0
 13 31  1  0  0  0
 14 15  2  0  0  0
 14105  1  0  0  0
 15106  1  0  0  0
 16 17  2  0  0  0
 16 21  1  0  0  0
 16 31  1  0  0  0
 17 18  1  0  0  0
 17107  1  0  0  0
 18 19  2  0  0  0
 18108  1  0  0  0
 19 20  1  0  0  0
 19 24  1  0  0  0
 20 21  2  0  0  0
 20109  1  0  0  0
 21 23  1  0  0  0
 22 28  1  0  0  0
 22 32  2  0  0  0
 26 27  1  0  0  0
 28110  1  0  0  0
 28111  1  0  0  0
 29112  1  0  0  0
 29113  1  0  0  0
 33 34  1  0  0  0
 33 66  1  0  0  0
 33 70  2  0  0  0
 34 36  1  0  0  0
 34 59  1  0  0  0
 34114  1  0  0  0
 35 44  2  0  0  0
 35 45  1  0  0  0
 35 68  1  0  0  0
 36 56  1  0  0  0
 36115  1  0  0  0
 37 39  1  0  0  0
 37 47  1  0  0  0
 37 66  1  0  0  0
 37116  1  0  0  0
 38 43  2  0  0  0
 38 46  1  0  0  0
 38 47  1  0  0  0
 39 64  1  0  0  0
 39 67  2  0  0  0
 40 52  1  0  0  0
 40 53  2  0  0  0
 40 58  1  0  0  0
 41117  1  0  0  0
 41118  1  0  0  0
 41119  1  0  0  0
 41 48  1  0  0  0
 42 43  1  0  0  0
 42 66  1  0  0  0
 42120  1  0  0  0
 42121  1  0  0  0
 43 44  1  0  0  0
 44122  1  0  0  0
 45 46  2  0  0  0
 45123  1  0  0  0
 46124  1  0  0  0
 47125  1  0  0  0
 47126  1  0  0  0
 48 56  1  0  0  0
 48 65  1  0  0  0
 48127  1  0  0  0
 49 50  1  0  0  0
 49 53  1  0  0  0
 49 64  1  0  0  0
 49128  1  0  0  0
 50 51  1  0  0  0
 50129  1  0  0  0
 50130  1  0  0  0
 51 52  1  0  0  0
 51131  1  0  0  0
 51132  1  0  0  0
 52133  1  0  0  0
 52134  1  0  0  0
 53 54  1  0  0  0
 54 55  2  0  0  0
 54135  1  0  0  0
 55 57  1  0  0  0
 55136  1  0  0  0
 56 69  2  0  0  0
 57 58  2  0  0  0
 57137  1  0  0  0
 58138  1  0  0  0
 59 60  1  0  0  0
 59 61  1  0  0  0
 59 62  1  0  0  0
 60139  1  0  0  0
 60140  1  0  0  0
 60141  1  0  0  0
 61142  1  0  0  0
 61143  1  0  0  0
 61144  1  0  0  0
 62145  1  0  0  0
 62146  1  0  0  0
 62147  1  0  0  0
 63 65  1  0  0  0
 63148  1  0  0  0
 63149  1  0  0  0
 63150  1  0  0  0
 64151  1  0  0  0
 65152  1  0  0  0
 68 88  1  0  0  0
 71 73  2  0  0  0
 71 76  1  0  0  0
 71153  1  0  0  0
 72 74  1  0  0  0
 72 76  2  0  0  0
 72154  1  0  0  0
 73 75  1  0  0  0
 73 87  1  0  0  0
 74 75  2  0  0  0
 74 89  1  0  0  0
 75 83  1  0  0  0
 76 91  1  0  0  0
 77 79  1  0  0  0
 77 90  1  0  0  0
 77 92  2  0  0  0
 78 84  1  0  0  0
 78 93  2  0  0  0
 78 82  1  0  0  0
 79 82  1  0  0  0
 79155  1  0  0  0
 79156  1  0  0  0
 80 81  1  0  0  0
 80 82  1  0  0  0
 80157  1  0  0  0
 80158  1  0  0  0
 81 90  1  0  0  0
 81159  1  0  0  0
 81160  1  0  0  0
 82 88  1  0  0  0
 83161  1  0  0  0
 83162  1  0  0  0
 83163  1  0  0  0
 84164  1  0  0  0
 84165  1  0  0  0
 84166  1  0  0  0
 85167  1  0  0  0
 85168  1  0  0  0
 85169  1  0  0  0
 85 89  1  0  0  0
 86 89  1  0  0  0
 86170  1  0  0  0
 86171  1  0  0  0
 86172  1  0  0  0
 87 90  1  0  0  0
 87173  1  0  0  0
 87174  1  0  0  0
 88175  1  0  0  0
 88176  1  0  0  0
 89177  1  0  0  0
 91178  1  0  0  0
M  ISO  4   1 100  68 101  88 101  91 100
M  END
> <chiral flag>
0

> <version>
0

> <s_m_source_file>
/data/baiqing/PycharmProjects/Reinvent-master-3.2/result/LINK_invent/BTK/process_docking_weight1_custom_product_contain_oxygen_bond_distance_aromatic_linkinvent_7_9_3/rearranged_h_0065.sdf

> <i_m_source_file_index>
23

> <r_mmod_Potential_Energy-OPLS-2005>
-24.4955024719238

> <r_mmod_Stretch_Energy-OPLS-2005>
56.7730445861816

> <r_mmod_Bend_Energy-OPLS-2005>
121.543975830078

> <r_mmod_Torsional_Energy-OPLS-2005>
282.439849853516

> <r_mmod_Improper_Torsional_Energy-OPLS-2005>
9.58298778533936

> <r_mmod_Van_der_Waal_Energy-OPLS-2005>
191.750396728516

> <r_mmod_Electrostatic_Energy-OPLS-2005>
-480.961761474609

> <r_mmod_Solvation_Energy-OPLS-2005>
-229.204879760742

> <b_mmod_Minimization_Converged-OPLS-2005>
0

> <r_mmod_RMS_Derivative-OPLS-2005>
1.9487943649292

$$$$
23
                    3D
 Structure written by MMmdl.
161170  0  0  1  0            999 V2000
  -30.6109  -14.6399   20.5598 C   0  0  0  0  0  0
  -30.4365  -12.4006   19.4607 C   0  0  0  0  0  0
  -29.5122  -12.5302   18.2286 C   0  0  0  0  0  0
  -28.0323  -12.3706   18.6330 C   0  0  0  0  0  0
  -27.6530  -13.2257   19.8679 C   0  0  2  0  0  0
  -28.6886  -13.0500   20.9982 C   0  0  0  0  0  0
  -25.2627  -13.8230   20.5915 C   0  0  0  0  0  0
  -24.1831  -13.0492   20.9192 C   0  0  0  0  0  0
  -24.6355  -11.6961   20.8666 C   0  0  0  0  0  0
  -23.9048  -10.4353   21.0404 C   0  0  0  0  0  0
  -24.3599   -9.4272   21.9204 C   0  0  0  0  0  0
  -23.6276   -8.2298   22.0759 C   0  0  0  0  0  0
  -22.4269   -8.0333   21.3543 C   0  0  0  0  0  0
  -21.9885   -9.0307   20.4652 C   0  0  0  0  0  0
  -22.7206  -10.2179   20.3071 C   0  0  0  0  0  0
  -21.6847   -6.0743   22.5274 C   0  0  0  0  0  0
  -21.4013   -6.5649   23.8206 C   0  0  0  0  0  0
  -21.3670   -5.6786   24.9165 C   0  0  0  0  0  0
  -21.6039   -4.3052   24.7212 C   0  0  0  0  0  0
  -21.8817   -3.8159   23.4320 C   0  0  0  0  0  0
  -21.9207   -4.6975   22.3379 C   0  0  0  0  0  0
  -22.7870  -13.5355   21.1883 C   0  0  0  0  0  0
  -22.1700   -4.2182   21.0938 F   0  0  0  0  0  0
  -21.5588   -3.4549   25.7722 F   0  0  0  0  0  0
  -30.0166  -13.4065   20.4590 N   0  0  0  0  0  0
  -26.2993  -12.9402   20.3333 N   0  0  0  0  0  0
  -25.9276  -11.6536   20.5605 N   0  0  0  0  0  0
  -22.0427  -12.8364   22.0382 N   0  0  0  0  0  0
  -25.4475  -15.1993   20.4724 N   0  0  0  0  0  0
  -31.7336  -14.8557   20.0869 O   0  0  0  0  0  0
  -21.6630   -6.8919   21.4252 O   0  0  0  0  0  0
  -22.3618  -14.5698   20.6781 O   0  0  0  0  0  0
  -24.6221  -31.8596   23.1987 C   0  0  0  0  0  0
  -25.9080  -32.4762   23.8305 C   0  0  1  0  0  0
  -27.2129  -27.3080   20.1489 C   0  0  0  0  0  0
  -25.5908  -33.8546   24.2239 N   0  0  0  0  0  0
  -23.4169  -30.4776   21.5402 C   0  0  2  0  0  0
  -24.8651  -28.9216   20.1220 C   0  0  0  0  0  0
  -22.7451  -29.4594   22.4919 C   0  0  0  0  0  0
  -18.0293  -28.1423   22.8447 C   0  0  0  0  0  0
  -24.1470  -36.7241   23.2626 C   0  0  0  0  0  0
  -25.9544  -30.7913   21.3667 C   0  0  0  0  0  0
  -26.0330  -29.4113   20.7214 C   0  0  0  0  0  0
  -27.2154  -28.6156   20.7208 C   0  0  0  0  0  0
  -26.0275  -26.8551   19.5435 C   0  0  0  0  0  0
  -24.8617  -27.6486   19.5245 C   0  0  0  0  0  0
  -23.6344  -29.8047   20.1575 C   0  0  0  0  0  0
  -25.4095  -36.3028   24.0310 C   0  0  1  0  0  0
  -20.5884  -28.3694   23.1298 C   0  0  2  0  0  0
  -20.6776  -26.9421   22.5430 C   0  0  0  0  0  0
  -19.5769  -26.6408   21.5197 C   0  0  0  0  0  0
  -18.1915  -26.7993   22.1546 C   0  0  0  0  0  0
  -19.1535  -28.8871   23.2866 C   0  0  0  0  0  0
  -18.9478  -30.1472   23.8918 C   0  0  0  0  0  0
  -17.6469  -30.6606   24.0590 C   0  0  0  0  0  0
  -25.9046  -34.9425   23.5082 C   0  0  0  0  0  0
  -16.5362  -29.9116   23.6345 C   0  0  0  0  0  0
  -16.7269  -28.6531   23.0348 C   0  0  0  0  0  0
  -26.4474  -31.6572   25.0675 C   0  0  0  0  0  0
  -25.3729  -31.3766   26.1432 C   0  0  0  0  0  0
  -27.0268  -30.2976   24.6112 C   0  0  0  0  0  0
  -27.6032  -32.4309   25.7457 C   0  0  0  0  0  0
  -27.5576  -37.1741   24.8404 C   0  0  0  0  0  0
  -21.4169  -29.3025   22.3663 N   0  0  0  0  0  0
  -26.4222  -37.3768   23.9447 N   0  0  0  0  0  0
  -24.6827  -31.0607   22.0913 N   0  0  0  0  0  0
  -23.4182  -28.8152   23.2990 O   0  0  0  0  0  0
  -28.3438  -26.4875   20.0902 O   0  0  0  0  0  0
  -26.5611  -34.8886   22.4643 O   0  0  0  0  0  0
  -23.5400  -32.1406   23.7322 O   0  0  0  0  0  0
  -28.2980  -19.0353   21.6763 C   0  0  0  0  0  0
  -30.5059  -17.9731   20.3673 C   0  0  0  0  0  0
  -28.6045  -17.6491   21.7864 C   0  0  0  0  0  0
  -30.2237  -19.3862   20.2982 C   0  0  0  0  0  0
  -29.0415  -19.9685   20.8943 C   0  0  0  0  0  0
  -29.6899  -17.0575   21.0862 C   0  0  0  0  0  0
  -29.0911  -22.5830   20.5633 C   0  0  0  0  0  0
  -26.7362  -23.1179   20.6339 C   0  0  0  0  0  0
  -27.0272  -21.6090   20.8599 C   0  0  0  0  0  0
  -28.0897  -23.7585   20.2239 C   0  0  1  0  0  0
  -27.7326  -16.8080   22.7092 C   0  0  0  0  0  0
  -31.2655  -20.2205   19.5690 C   0  0  0  0  0  0
  -28.4088  -25.2157   20.8474 C   0  0  0  0  0  0
  -28.4860  -21.3586   20.7488 N   0  0  0  0  0  0
  -29.8503  -15.6010   21.1740 N   0  0  0  0  0  0
  -30.3057  -22.7963   20.6772 O   0  0  0  0  0  0
  -31.4817  -12.5188   19.1724 H   0  0  0  0  0  0
  -30.3494  -11.3982   19.8833 H   0  0  0  0  0  0
  -29.7655  -11.7803   17.4790 H   0  0  0  0  0  0
  -29.6746  -13.5036   17.7613 H   0  0  0  0  0  0
  -27.8640  -11.3173   18.8501 H   0  0  0  0  0  0
  -27.3840  -12.6184   17.7916 H   0  0  0  0  0  0
  -27.6803  -14.2666   19.5445 H   0  0  0  0  0  0
  -28.6852  -12.0176   21.3478 H   0  0  0  0  0  0
  -28.4059  -13.6417   21.8662 H   0  0  0  0  0  0
  -25.2703   -9.5772   22.4833 H   0  0  0  0  0  0
  -24.0000   -7.4685   22.7464 H   0  0  0  0  0  0
  -21.0806   -8.8827   19.8946 H   0  0  0  0  0  0
  -22.3648  -10.9748   19.6226 H   0  0  0  0  0  0
  -21.1988   -7.6144   23.9744 H   0  0  0  0  0  0
  -21.1488   -6.0481   25.9062 H   0  0  0  0  0  0
  -22.0559   -2.7627   23.2814 H   0  0  0  0  0  0
  -22.3907  -11.9973   22.4766 H   0  0  0  0  0  0
  -21.1063  -13.1504   22.2534 H   0  0  0  0  0  0
  -24.7181  -15.8677   20.6880 H   0  0  0  0  0  0
  -26.3318  -15.6436   20.2622 H   0  0  0  0  0  0
  -26.7173  -32.5441   23.1061 H   0  0  0  0  0  0
  -25.0052  -33.9714   25.0383 H   0  0  0  0  0  0
  -22.7073  -31.2933   21.3906 H   0  0  0  0  0  0
  -23.3763  -35.9534   23.3168 H   0  0  0  0  0  0
  -24.3582  -36.8987   22.2068 H   0  0  0  0  0  0
  -23.7161  -37.6364   23.6754 H   0  0  0  0  0  0
  -26.0784  -31.5488   20.5908 H   0  0  0  0  0  0
  -26.8385  -30.8537   21.9867 H   0  0  0  0  0  0
  -28.1238  -28.9911   21.1769 H   0  0  0  0  0  0
  -26.0036  -25.8785   19.0833 H   0  0  0  0  0  0
  -23.9654  -27.2616   19.0606 H   0  0  0  0  0  0
  -23.7604  -30.5745   19.3948 H   0  0  0  0  0  0
  -22.7529  -29.2362   19.8555 H   0  0  0  0  0  0
  -25.1243  -36.1838   25.0792 H   0  0  0  0  0  0
  -20.9973  -28.3323   24.1424 H   0  0  0  0  0  0
  -20.5603  -26.2314   23.3621 H   0  0  0  0  0  0
  -21.6680  -26.7411   22.1298 H   0  0  0  0  0  0
  -19.6908  -25.6304   21.1260 H   0  0  0  0  0  0
  -19.6743  -27.3206   20.6720 H   0  0  0  0  0  0
  -17.4203  -26.6761   21.3930 H   0  0  0  0  0  0
  -18.0245  -26.0132   22.8917 H   0  0  0  0  0  0
  -19.7953  -30.7265   24.2303 H   0  0  0  0  0  0
  -17.5036  -31.6288   24.5195 H   0  0  0  0  0  0
  -15.5370  -30.3020   23.7667 H   0  0  0  0  0  0
  -15.8663  -28.0844   22.7093 H   0  0  0  0  0  0
  -24.5926  -30.7046   25.7837 H   0  0  0  0  0  0
  -24.8903  -32.2963   26.4776 H   0  0  0  0  0  0
  -25.8093  -30.9066   27.0258 H   0  0  0  0  0  0
  -26.2806  -29.6768   24.1138 H   0  0  0  0  0  0
  -27.3945  -29.7182   25.4593 H   0  0  0  0  0  0
  -27.8700  -30.4177   23.9294 H   0  0  0  0  0  0
  -27.2607  -33.3581   26.2060 H   0  0  0  0  0  0
  -28.3856  -32.6924   25.0317 H   0  0  0  0  0  0
  -28.0698  -31.8445   26.5374 H   0  0  0  0  0  0
  -28.2486  -38.0140   24.7634 H   0  0  0  0  0  0
  -28.1179  -36.2707   24.5973 H   0  0  0  0  0  0
  -27.2356  -37.1107   25.8806 H   0  0  0  0  0  0
  -20.9326  -29.8704   21.6852 H   0  0  0  0  0  0
  -26.0060  -38.2767   24.1667 H   0  0  0  0  0  0
  -27.4458  -19.3847   22.2376 H   0  0  0  0  0  0
  -31.3778  -17.5820   19.8572 H   0  0  0  0  0  0
  -26.3412  -23.5547   21.5566 H   0  0  0  0  0  0
  -25.9349  -23.2446   19.8922 H   0  0  0  0  0  0
  -26.4867  -21.0155   20.1193 H   0  0  0  0  0  0
  -26.6301  -21.3414   21.8449 H   0  0  0  0  0  0
  -28.1114  -23.8409   19.1314 H   0  0  0  0  0  0
  -26.7061  -17.1746   22.7408 H   0  0  0  0  0  0
  -28.1323  -16.8547   23.7222 H   0  0  0  0  0  0
  -27.6843  -15.7635   22.4132 H   0  0  0  0  0  0
  -31.9551  -19.5874   19.0084 H   0  0  0  0  0  0
  -31.8684  -20.7595   20.3031 H   0  0  0  0  0  0
  -30.8233  -20.9216   18.8630 H   0  0  0  0  0  0
  -29.4656  -25.1995   21.1194 H   0  0  0  0  0  0
  -27.9046  -25.3328   21.8065 H   0  0  0  0  0  0
  -29.0706  -15.1641   21.6399 H   0  0  0  0  0  0
  1 25  1  0  0  0
  1 30  2  0  0  0
  1 85  1  0  0  0
  2  3  1  0  0  0
  2 25  1  0  0  0
  2 87  1  0  0  0
  2 88  1  0  0  0
  3  4  1  0  0  0
  3 89  1  0  0  0
  3 90  1  0  0  0
  4  5  1  0  0  0
  4 91  1  0  0  0
  4 92  1  0  0  0
  5  6  1  0  0  0
  5 26  1  0  0  0
  5 93  1  0  0  0
  6 25  1  0  0  0
  6 94  1  0  0  0
  6 95  1  0  0  0
  7  8  2  0  0  0
  7 26  1  0  0  0
  7 29  1  0  0  0
  8  9  1  0  0  0
  8 22  1  0  0  0
  9 10  1  0  0  0
  9 27  2  0  0  0
 10 11  2  0  0  0
 10 15  1  0  0  0
 11 12  1  0  0  0
 11 96  1  0  0  0
 12 13  2  0  0  0
 12 97  1  0  0  0
 13 14  1  0  0  0
 13 31  1  0  0  0
 14 15  2  0  0  0
 14 98  1  0  0  0
 15 99  1  0  0  0
 16 17  2  0  0  0
 16 21  1  0  0  0
 16 31  1  0  0  0
 17 18  1  0  0  0
 17100  1  0  0  0
 18 19  2  0  0  0
 18101  1  0  0  0
 19 20  1  0  0  0
 19 24  1  0  0  0
 20 21  2  0  0  0
 20102  1  0  0  0
 21 23  1  0  0  0
 22 28  1  0  0  0
 22 32  2  0  0  0
 26 27  1  0  0  0
 28103  1  0  0  0
 28104  1  0  0  0
 29105  1  0  0  0
 29106  1  0  0  0
 33 34  1  0  0  0
 33 66  1  0  0  0
 33 70  2  0  0  0
 34 36  1  0  0  0
 34 59  1  0  0  0
 34107  1  0  0  0
 35 44  2  0  0  0
 35 45  1  0  0  0
 35 68  1  0  0  0
 36 56  1  0  0  0
 36108  1  0  0  0
 37 39  1  0  0  0
 37 47  1  0  0  0
 37 66  1  0  0  0
 37109  1  0  0  0
 38 43  2  0  0  0
 38 46  1  0  0  0
 38 47  1  0  0  0
 39 64  1  0  0  0
 39 67  2  0  0  0
 40 52  1  0  0  0
 40 53  2  0  0  0
 40 58  1  0  0  0
 41110  1  0  0  0
 41111  1  0  0  0
 41112  1  0  0  0
 41 48  1  0  0  0
 42 43  1  0  0  0
 42 66  1  0  0  0
 42113  1  0  0  0
 42114  1  0  0  0
 43 44  1  0  0  0
 44115  1  0  0  0
 45 46  2  0  0  0
 45116  1  0  0  0
 46117  1  0  0  0
 47118  1  0  0  0
 47119  1  0  0  0
 48 56  1  0  0  0
 48 65  1  0  0  0
 48120  1  0  0  0
 49 50  1  0  0  0
 49 53  1  0  0  0
 49 64  1  0  0  0
 49121  1  0  0  0
 50 51  1  0  0  0
 50122  1  0  0  0
 50123  1  0  0  0
 51 52  1  0  0  0
 51124  1  0  0  0
 51125  1  0  0  0
 52126  1  0  0  0
 52127  1  0  0  0
 53 54  1  0  0  0
 54 55  2  0  0  0
 54128  1  0  0  0
 55 57  1  0  0  0
 55129  1  0  0  0
 56 69  2  0  0  0
 57 58  2  0  0  0
 57130  1  0  0  0
 58131  1  0  0  0
 59 60  1  0  0  0
 59 61  1  0  0  0
 59 62  1  0  0  0
 60132  1  0  0  0
 60133  1  0  0  0
 60134  1  0  0  0
 61135  1  0  0  0
 61136  1  0  0  0
 61137  1  0  0  0
 62138  1  0  0  0
 62139  1  0  0  0
 62140  1  0  0  0
 63 65  1  0  0  0
 63141  1  0  0  0
 63142  1  0  0  0
 63143  1  0  0  0
 64144  1  0  0  0
 65145  1  0  0  0
 68 83  1  0  0  0
 71 73  2  0  0  0
 71 75  1  0  0  0
 71146  1  0  0  0
 72 74  1  0  0  0
 72 76  2  0  0  0
 72147  1  0  0  0
 73 76  1  0  0  0
 73 81  1  0  0  0
 74 75  2  0  0  0
 74 82  1  0  0  0
 75 84  1  0  0  0
 76 85  1  0  0  0
 77 80  1  0  0  0
 77 84  1  0  0  0
 77 86  2  0  0  0
 78 79  1  0  0  0
 78 80  1  0  0  0
 78148  1  0  0  0
 78149  1  0  0  0
 79 84  1  0  0  0
 79150  1  0  0  0
 79151  1  0  0  0
 80 83  1  0  0  0
 80152  1  0  0  0
 81153  1  0  0  0
 81154  1  0  0  0
 81155  1  0  0  0
 82156  1  0  0  0
 82157  1  0  0  0
 82158  1  0  0  0
 83159  1  0  0  0
 83160  1  0  0  0
 85161  1  0  0  0
M  ISO  4   1 100  68 101  83 101  85 100
M  END
> <chiral flag>
0

> <version>
0

> <s_m_source_file>
/data/baiqing/PycharmProjects/Reinvent-master-3.2/result/LINK_invent/BTK/process_docking_weight1_custom_product_contain_oxygen_bond_distance_aromatic_linkinvent_7_9_3/rearranged_h_0065.sdf

> <i_m_source_file_index>
24

> <r_mmod_Potential_Energy-OPLS-2005>
209.614212036133

> <r_mmod_Stretch_Energy-OPLS-2005>
100.816940307617

> <r_mmod_Bend_Energy-OPLS-2005>
209.674194335938

> <r_mmod_Torsional_Energy-OPLS-2005>
299.065002441406

> <r_mmod_Improper_Torsional_Energy-OPLS-2005>
3.1681444644928

> <r_mmod_Van_der_Waal_Energy-OPLS-2005>
135.982849121094

> <r_mmod_Electrostatic_Energy-OPLS-2005>
-367.812194824219

> <r_mmod_Solvation_Energy-OPLS-2005>
-219.668960571289

> <b_mmod_Minimization_Converged-OPLS-2005>
0

> <r_mmod_RMS_Derivative-OPLS-2005>
8.38619422912598

$$$$
24
                    3D
 Structure written by MMmdl.
157166  0  0  1  0            999 V2000
  -30.6664  -14.6765   20.5540 C   0  0  0  0  0  0
  -30.4436  -12.4267   19.4907 C   0  0  0  0  0  0
  -29.5177  -12.5221   18.2558 C   0  0  0  0  0  0
  -28.0420  -12.3432   18.6656 C   0  0  0  0  0  0
  -27.6490  -13.2280   19.8800 C   0  0  2  0  0  0
  -28.6971  -13.1123   21.0159 C   0  0  0  0  0  0
  -25.2245  -13.7920   20.5548 C   0  0  0  0  0  0
  -24.1641  -13.0216   20.9252 C   0  0  0  0  0  0
  -24.6357  -11.6765   20.8824 C   0  0  0  0  0  0
  -23.9039  -10.4183   21.0456 C   0  0  0  0  0  0
  -24.3578   -9.4115   21.9239 C   0  0  0  0  0  0
  -23.6248   -8.2154   22.0774 C   0  0  0  0  0  0
  -22.4226   -8.0239   21.3554 C   0  0  0  0  0  0
  -21.9878   -9.0217   20.4658 C   0  0  0  0  0  0
  -22.7214  -10.2080   20.3089 C   0  0  0  0  0  0
  -21.6830   -6.0708   22.5280 C   0  0  0  0  0  0
  -21.4009   -6.5608   23.8207 C   0  0  0  0  0  0
  -21.3660   -5.6778   24.9172 C   0  0  0  0  0  0
  -21.6048   -4.3036   24.7222 C   0  0  0  0  0  0
  -21.8821   -3.8122   23.4341 C   0  0  0  0  0  0
  -21.9184   -4.6946   22.3399 C   0  0  0  0  0  0
  -22.7659  -13.5062   21.1875 C   0  0  0  0  0  0
  -22.1662   -4.2128   21.0969 F   0  0  0  0  0  0
  -21.5627   -3.4529   25.7742 F   0  0  0  0  0  0
  -30.0210  -13.4610   20.4619 N   0  0  0  0  0  0
  -26.2912  -12.9312   20.3409 N   0  0  0  0  0  0
  -25.9318  -11.6445   20.5894 N   0  0  0  0  0  0
  -22.0265  -12.8154   22.0471 N   0  0  0  0  0  0
  -25.3315  -15.1515   20.3542 N   0  0  0  0  0  0
  -31.7985  -14.8189   20.0858 O   0  0  0  0  0  0
  -21.6594   -6.8841   21.4233 O   0  0  0  0  0  0
  -22.3364  -14.5386   20.6736 O   0  0  0  0  0  0
  -24.6266  -31.8583   23.2094 C   0  0  0  0  0  0
  -25.9085  -32.4792   23.8414 C   0  0  1  0  0  0
  -27.2200  -27.3007   20.1158 C   0  0  0  0  0  0
  -25.5895  -33.8604   24.2306 N   0  0  0  0  0  0
  -23.4224  -30.4859   21.5530 C   0  0  2  0  0  0
  -24.8710  -28.9494   20.1118 C   0  0  0  0  0  0
  -22.7473  -29.4590   22.4943 C   0  0  0  0  0  0
  -18.0261  -28.1416   22.8473 C   0  0  0  0  0  0
  -24.1480  -36.7308   23.2635 C   0  0  0  0  0  0
  -25.9707  -30.7786   21.3929 C   0  0  0  0  0  0
  -26.0416  -29.4091   20.7279 C   0  0  0  0  0  0
  -27.2178  -28.5955   20.7257 C   0  0  0  0  0  0
  -26.0255  -26.9101   19.4584 C   0  0  0  0  0  0
  -24.8674  -27.7066   19.4668 C   0  0  0  0  0  0
  -23.6410  -29.8333   20.1632 C   0  0  0  0  0  0
  -25.4103  -36.3097   24.0327 C   0  0  1  0  0  0
  -20.5860  -28.3688   23.1306 C   0  0  2  0  0  0
  -20.6751  -26.9407   22.5430 C   0  0  0  0  0  0
  -19.5742  -26.6398   21.5212 C   0  0  0  0  0  0
  -18.1904  -26.7960   22.1597 C   0  0  0  0  0  0
  -19.1515  -28.8868   23.2881 C   0  0  0  0  0  0
  -18.9436  -30.1473   23.8892 C   0  0  0  0  0  0
  -17.6440  -30.6616   24.0554 C   0  0  0  0  0  0
  -25.9045  -34.9459   23.5118 C   0  0  0  0  0  0
  -16.5335  -29.9115   23.6341 C   0  0  0  0  0  0
  -16.7245  -28.6540   23.0355 C   0  0  0  0  0  0
  -26.4443  -31.6638   25.0818 C   0  0  0  0  0  0
  -25.3648  -31.3845   26.1551 C   0  0  0  0  0  0
  -27.0236  -30.3024   24.6328 C   0  0  0  0  0  0
  -27.6026  -32.4362   25.7545 C   0  0  0  0  0  0
  -27.5588  -37.1799   24.8422 C   0  0  0  0  0  0
  -21.4176  -29.3061   22.3723 N   0  0  0  0  0  0
  -26.4274  -37.3795   23.9415 N   0  0  0  0  0  0
  -24.6916  -31.0563   22.1079 N   0  0  0  0  0  0
  -23.4209  -28.8048   23.2952 O   0  0  0  0  0  0
  -28.3161  -26.4130   20.1944 O   0  0  0  0  0  0
  -26.5619  -34.8904   22.4692 O   0  0  0  0  0  0
  -23.5410  -32.1395   23.7390 O   0  0  0  0  0  0
  -28.7571  -19.3767   20.8875 C   0  0  0  0  0  0
  -30.1007  -23.8344   21.2527 C   0  0  0  0  0  0
  -31.1344  -19.4273   20.7069 C   0  0  0  0  0  0
  -28.7951  -17.9583   21.0154 C   0  0  0  0  0  0
  -28.9742  -23.8048   20.3770 C   0  0  0  0  0  0
  -29.9151  -20.1656   20.7401 C   0  0  0  0  0  0
  -30.0083  -17.2002   20.9544 C   0  0  0  0  0  0
  -31.1871  -17.9953   20.8157 C   0  0  0  0  0  0
  -30.5796  -22.5543   21.4158 C   0  0  0  0  0  0
  -28.8638  -22.4549   20.0448 C   0  0  0  0  0  0
  -28.0179  -24.9763   19.9510 C   0  0  0  0  0  0
  -27.4576  -17.2621   21.1083 C   0  0  0  0  0  0
  -29.8062  -21.6333   20.7103 N   0  0  0  0  0  0
  -29.9556  -15.7212   21.0898 N   0  0  0  0  0  0
  -31.6307  -22.1475   22.1806 O   0  0  0  0  0  0
  -27.9652  -21.8790   19.1948 O   0  0  0  0  0  0
  -32.4052  -17.4055   20.8291 F   0  0  0  0  0  0
  -26.4592  -18.0706   21.4711 F   0  0  0  0  0  0
  -27.2466  -16.8332   19.8673 F   0  0  0  0  0  0
  -27.4855  -16.2365   21.9606 F   0  0  0  0  0  0
  -31.4877  -12.5381   19.1925 H   0  0  0  0  0  0
  -30.3749  -11.4389   19.9482 H   0  0  0  0  0  0
  -29.7968  -11.7654   17.5212 H   0  0  0  0  0  0
  -29.6488  -13.4879   17.7657 H   0  0  0  0  0  0
  -27.8969  -11.2921   18.9170 H   0  0  0  0  0  0
  -27.3845  -12.5456   17.8198 H   0  0  0  0  0  0
  -27.6540  -14.2596   19.5286 H   0  0  0  0  0  0
  -28.7161  -12.0971   21.4180 H   0  0  0  0  0  0
  -28.4273  -13.7485   21.8586 H   0  0  0  0  0  0
  -25.2718   -9.5611   22.4826 H   0  0  0  0  0  0
  -23.9966   -7.4543   22.7477 H   0  0  0  0  0  0
  -21.0824   -8.8746   19.8964 H   0  0  0  0  0  0
  -22.3688  -10.9639   19.6203 H   0  0  0  0  0  0
  -21.2009   -7.6128   23.9687 H   0  0  0  0  0  0
  -21.1481   -6.0516   25.9066 H   0  0  0  0  0  0
  -22.0598   -2.7589   23.2839 H   0  0  0  0  0  0
  -22.3842  -11.9864   22.4998 H   0  0  0  0  0  0
  -21.0911  -13.1270   22.2651 H   0  0  0  0  0  0
  -24.5472  -15.7776   20.4935 H   0  0  0  0  0  0
  -26.1502  -15.6187   19.9786 H   0  0  0  0  0  0
  -26.7141  -32.5417   23.1147 H   0  0  0  0  0  0
  -24.9982  -33.9778   25.0400 H   0  0  0  0  0  0
  -22.7172  -31.3087   21.4184 H   0  0  0  0  0  0
  -23.3746  -35.9630   23.3261 H   0  0  0  0  0  0
  -24.3556  -36.8978   22.2054 H   0  0  0  0  0  0
  -23.7232  -37.6496   23.6684 H   0  0  0  0  0  0
  -26.1166  -31.5427   20.6281 H   0  0  0  0  0  0
  -26.8449  -30.8183   22.0306 H   0  0  0  0  0  0
  -28.1088  -28.9385   21.2331 H   0  0  0  0  0  0
  -25.9367  -25.9710   18.9332 H   0  0  0  0  0  0
  -23.9749  -27.3564   18.9695 H   0  0  0  0  0  0
  -23.7715  -30.6229   19.4222 H   0  0  0  0  0  0
  -22.7568  -29.2775   19.8461 H   0  0  0  0  0  0
  -25.1278  -36.1949   25.0816 H   0  0  0  0  0  0
  -20.9942  -28.3254   24.1427 H   0  0  0  0  0  0
  -20.5642  -26.2268   23.3614 H   0  0  0  0  0  0
  -21.6622  -26.7433   22.1234 H   0  0  0  0  0  0
  -19.6893  -25.6292   21.1280 H   0  0  0  0  0  0
  -19.6743  -27.3167   20.6710 H   0  0  0  0  0  0
  -17.4189  -26.6719   21.3980 H   0  0  0  0  0  0
  -18.0281  -26.0114   22.9000 H   0  0  0  0  0  0
  -19.7910  -30.7295   24.2274 H   0  0  0  0  0  0
  -17.4997  -31.6301   24.5145 H   0  0  0  0  0  0
  -15.5337  -30.3026   23.7684 H   0  0  0  0  0  0
  -15.8632  -28.0876   22.7085 H   0  0  0  0  0  0
  -24.5771  -30.7250   25.7899 H   0  0  0  0  0  0
  -24.8890  -32.3044   26.4963 H   0  0  0  0  0  0
  -25.7942  -30.9027   27.0341 H   0  0  0  0  0  0
  -26.2836  -29.6871   24.1209 H   0  0  0  0  0  0
  -27.3686  -29.7227   25.4895 H   0  0  0  0  0  0
  -27.8822  -30.4250   23.9727 H   0  0  0  0  0  0
  -27.2650  -33.3625   26.2194 H   0  0  0  0  0  0
  -28.3775  -32.6993   25.0338 H   0  0  0  0  0  0
  -28.0757  -31.8451   26.5393 H   0  0  0  0  0  0
  -28.2570  -38.0129   24.7509 H   0  0  0  0  0  0
  -28.1120  -36.2667   24.6163 H   0  0  0  0  0  0
  -27.2323  -37.1366   25.8826 H   0  0  0  0  0  0
  -20.9326  -29.8882   21.7038 H   0  0  0  0  0  0
  -26.0151  -38.2853   24.1470 H   0  0  0  0  0  0
  -27.8031  -19.8793   20.9061 H   0  0  0  0  0  0
  -30.4969  -24.7159   21.7340 H   0  0  0  0  0  0
  -32.0659  -19.9666   20.6173 H   0  0  0  0  0  0
  -27.0877  -24.7415   20.4702 H   0  0  0  0  0  0
  -27.8253  -24.8391   18.8878 H   0  0  0  0  0  0
  -29.0822  -15.3947   21.4781 H   0  0  0  0  0  0
  -32.0395  -22.9247   22.5504 H   0  0  0  0  0  0
  -27.6073  -22.5573   18.6291 H   0  0  0  0  0  0
  1 25  1  0  0  0
  1 30  2  0  0  0
  1 84  1  0  0  0
  2  3  1  0  0  0
  2 25  1  0  0  0
  2 91  1  0  0  0
  2 92  1  0  0  0
  3  4  1  0  0  0
  3 93  1  0  0  0
  3 94  1  0  0  0
  4  5  1  0  0  0
  4 95  1  0  0  0
  4 96  1  0  0  0
  5  6  1  0  0  0
  5 26  1  0  0  0
  5 97  1  0  0  0
  6 25  1  0  0  0
  6 98  1  0  0  0
  6 99  1  0  0  0
  7  8  2  0  0  0
  7 26  1  0  0  0
  7 29  1  0  0  0
  8  9  1  0  0  0
  8 22  1  0  0  0
  9 10  1  0  0  0
  9 27  2  0  0  0
 10 11  2  0  0  0
 10 15  1  0  0  0
 11 12  1  0  0  0
 11100  1  0  0  0
 12 13  2  0  0  0
 12101  1  0  0  0
 13 14  1  0  0  0
 13 31  1  0  0  0
 14 15  2  0  0  0
 14102  1  0  0  0
 15103  1  0  0  0
 16 17  2  0  0  0
 16 21  1  0  0  0
 16 31  1  0  0  0
 17 18  1  0  0  0
 17104  1  0  0  0
 18 19  2  0  0  0
 18105  1  0  0  0
 19 20  1  0  0  0
 19 24  1  0  0  0
 20 21  2  0  0  0
 20106  1  0  0  0
 21 23  1  0  0  0
 22 28  1  0  0  0
 22 32  2  0  0  0
 26 27  1  0  0  0
 28107  1  0  0  0
 28108  1  0  0  0
 29109  1  0  0  0
 29110  1  0  0  0
 33 34  1  0  0  0
 33 66  1  0  0  0
 33 70  2  0  0  0
 34 36  1  0  0  0
 34 59  1  0  0  0
 34111  1  0  0  0
 35 44  2  0  0  0
 35 45  1  0  0  0
 35 68  1  0  0  0
 36 56  1  0  0  0
 36112  1  0  0  0
 37 39  1  0  0  0
 37 47  1  0  0  0
 37 66  1  0  0  0
 37113  1  0  0  0
 38 43  2  0  0  0
 38 46  1  0  0  0
 38 47  1  0  0  0
 39 64  1  0  0  0
 39 67  2  0  0  0
 40 52  1  0  0  0
 40 53  2  0  0  0
 40 58  1  0  0  0
 41114  1  0  0  0
 41115  1  0  0  0
 41116  1  0  0  0
 41 48  1  0  0  0
 42 43  1  0  0  0
 42 66  1  0  0  0
 42117  1  0  0  0
 42118  1  0  0  0
 43 44  1  0  0  0
 44119  1  0  0  0
 45 46  2  0  0  0
 45120  1  0  0  0
 46121  1  0  0  0
 47122  1  0  0  0
 47123  1  0  0  0
 48 56  1  0  0  0
 48 65  1  0  0  0
 48124  1  0  0  0
 49 50  1  0  0  0
 49 53  1  0  0  0
 49 64  1  0  0  0
 49125  1  0  0  0
 50 51  1  0  0  0
 50126  1  0  0  0
 50127  1  0  0  0
 51 52  1  0  0  0
 51128  1  0  0  0
 51129  1  0  0  0
 52130  1  0  0  0
 52131  1  0  0  0
 53 54  1  0  0  0
 54 55  2  0  0  0
 54132  1  0  0  0
 55 57  1  0  0  0
 55133  1  0  0  0
 56 69  2  0  0  0
 57 58  2  0  0  0
 57134  1  0  0  0
 58135  1  0  0  0
 59 60  1  0  0  0
 59 61  1  0  0  0
 59 62  1  0  0  0
 60136  1  0  0  0
 60137  1  0  0  0
 60138  1  0  0  0
 61139  1  0  0  0
 61140  1  0  0  0
 61141  1  0  0  0
 62142  1  0  0  0
 62143  1  0  0  0
 62144  1  0  0  0
 63 65  1  0  0  0
 63145  1  0  0  0
 63146  1  0  0  0
 63147  1  0  0  0
 64148  1  0  0  0
 65149  1  0  0  0
 68 81  1  0  0  0
 71 74  2  0  0  0
 71 76  1  0  0  0
 71150  1  0  0  0
 72 75  1  0  0  0
 72 79  2  0  0  0
 72151  1  0  0  0
 73 76  2  0  0  0
 73 78  1  0  0  0
 73152  1  0  0  0
 74 77  1  0  0  0
 74 82  1  0  0  0
 75 80  2  0  0  0
 75 81  1  0  0  0
 76 83  1  0  0  0
 77 78  2  0  0  0
 77 84  1  0  0  0
 78 87  1  0  0  0
 79 83  1  0  0  0
 79 85  1  0  0  0
 80 83  1  0  0  0
 80 86  1  0  0  0
 81153  1  0  0  0
 81154  1  0  0  0
 82 88  1  0  0  0
 82 89  1  0  0  0
 82 90  1  0  0  0
 84155  1  0  0  0
 85156  1  0  0  0
 86157  1  0  0  0
M  ISO  4   1 100  68 101  81 101  84 100
M  END
> <chiral flag>
0

> <version>
0

> <s_m_source_file>
/data/baiqing/PycharmProjects/Reinvent-master-3.2/result/LINK_invent/BTK/process_docking_weight1_custom_product_contain_oxygen_bond_distance_aromatic_linkinvent_7_9_3/rearranged_h_0065.sdf

> <i_m_source_file_index>
25

> <r_mmod_Potential_Energy-OPLS-2005>
64.1788024902344

> <r_mmod_Stretch_Energy-OPLS-2005>
90.4909133911133

> <r_mmod_Bend_Energy-OPLS-2005>
158.177383422852

> <r_mmod_Torsional_Energy-OPLS-2005>
230.336013793945

> <r_mmod_Improper_Torsional_Energy-OPLS-2005>
4.44628047943115

> <r_mmod_Van_der_Waal_Energy-OPLS-2005>
161.011825561523

> <r_mmod_Electrostatic_Energy-OPLS-2005>
-418.535949707031

> <r_mmod_Solvation_Energy-OPLS-2005>
-225.462417602539

> <b_mmod_Minimization_Converged-OPLS-2005>
0

> <r_mmod_RMS_Derivative-OPLS-2005>
4.12984704971313

$$$$
25
                    3D
 Structure written by MMmdl.
152160  0  0  1  0            999 V2000
  -30.6138  -14.7511   20.4676 C   0  0  0  0  0  0
  -30.4221  -12.4593   19.4904 C   0  0  0  0  0  0
  -29.5103  -12.5165   18.2457 C   0  0  0  0  0  0
  -28.0337  -12.3418   18.6500 C   0  0  0  0  0  0
  -27.6363  -13.2364   19.8554 C   0  0  2  0  0  0
  -28.6764  -13.1754   20.9956 C   0  0  0  0  0  0
  -25.2470  -13.8195   20.5696 C   0  0  0  0  0  0
  -24.1772  -13.0445   20.9218 C   0  0  0  0  0  0
  -24.6360  -11.6923   20.8729 C   0  0  0  0  0  0
  -23.9029  -10.4307   21.0395 C   0  0  0  0  0  0
  -24.3589   -9.4228   21.9177 C   0  0  0  0  0  0
  -23.6288   -8.2246   22.0739 C   0  0  0  0  0  0
  -22.4275   -8.0269   21.3526 C   0  0  0  0  0  0
  -21.9903   -9.0233   20.4629 C   0  0  0  0  0  0
  -22.7202  -10.2134   20.3046 C   0  0  0  0  0  0
  -21.6862   -6.0729   22.5272 C   0  0  0  0  0  0
  -21.4020   -6.5630   23.8204 C   0  0  0  0  0  0
  -21.3662   -5.6779   24.9164 C   0  0  0  0  0  0
  -21.6051   -4.3043   24.7219 C   0  0  0  0  0  0
  -21.8817   -3.8136   23.4342 C   0  0  0  0  0  0
  -21.9195   -4.6956   22.3400 C   0  0  0  0  0  0
  -22.7803  -13.5235   21.1876 C   0  0  0  0  0  0
  -22.1668   -4.2144   21.0979 F   0  0  0  0  0  0
  -21.5627   -3.4527   25.7730 F   0  0  0  0  0  0
  -29.9779  -13.5285   20.4178 N   0  0  0  0  0  0
  -26.2889  -12.9412   20.3279 N   0  0  0  0  0  0
  -25.9294  -11.6554   20.5752 N   0  0  0  0  0  0
  -22.0446  -12.8202   22.0423 N   0  0  0  0  0  0
  -25.4158  -15.1928   20.4080 N   0  0  0  0  0  0
  -31.8043  -14.7988   20.1509 O   0  0  0  0  0  0
  -21.6645   -6.8867   21.4232 O   0  0  0  0  0  0
  -22.3496  -14.5554   20.6738 O   0  0  0  0  0  0
  -24.6305  -31.8519   23.1923 C   0  0  0  0  0  0
  -25.9129  -32.4728   23.8277 C   0  0  1  0  0  0
  -27.2179  -27.2478   20.1205 C   0  0  0  0  0  0
  -25.5923  -33.8531   24.2214 N   0  0  0  0  0  0
  -23.4279  -30.4741   21.5350 C   0  0  2  0  0  0
  -24.8719  -28.9146   20.1024 C   0  0  0  0  0  0
  -22.7493  -29.4588   22.4860 C   0  0  0  0  0  0
  -18.0296  -28.1376   22.8490 C   0  0  0  0  0  0
  -24.1497  -36.7279   23.2646 C   0  0  0  0  0  0
  -25.9736  -30.7581   21.3746 C   0  0  0  0  0  0
  -26.0417  -29.3800   20.7157 C   0  0  0  0  0  0
  -27.2096  -28.5547   20.7188 C   0  0  0  0  0  0
  -26.0240  -26.8454   19.4828 C   0  0  0  0  0  0
  -24.8689  -27.6565   19.4765 C   0  0  0  0  0  0
  -23.6461  -29.8078   20.1496 C   0  0  0  0  0  0
  -25.4117  -36.3060   24.0336 C   0  0  1  0  0  0
  -20.5905  -28.3687   23.1262 C   0  0  2  0  0  0
  -20.6788  -26.9399   22.5412 C   0  0  0  0  0  0
  -19.5776  -26.6377   21.5201 C   0  0  0  0  0  0
  -18.1950  -26.7931   22.1608 C   0  0  0  0  0  0
  -19.1556  -28.8847   23.2881 C   0  0  0  0  0  0
  -18.9484  -30.1450   23.8892 C   0  0  0  0  0  0
  -17.6491  -30.6593   24.0562 C   0  0  0  0  0  0
  -25.9073  -34.9432   23.5090 C   0  0  0  0  0  0
  -16.5376  -29.9097   23.6318 C   0  0  0  0  0  0
  -16.7285  -28.6503   23.0351 C   0  0  0  0  0  0
  -26.4496  -31.6559   25.0678 C   0  0  0  0  0  0
  -25.3726  -31.3728   26.1399 C   0  0  0  0  0  0
  -27.0330  -30.2968   24.6177 C   0  0  0  0  0  0
  -27.6046  -32.4282   25.7480 C   0  0  0  0  0  0
  -27.5573  -37.1790   24.8474 C   0  0  0  0  0  0
  -21.4195  -29.3030   22.3625 N   0  0  0  0  0  0
  -26.4283  -37.3753   23.9426 N   0  0  0  0  0  0
  -24.6967  -31.0472   22.0904 N   0  0  0  0  0  0
  -23.4195  -28.8123   23.2949 O   0  0  0  0  0  0
  -28.3331  -26.3827   20.2148 O   0  0  0  0  0  0
  -26.5657  -34.8918   22.4671 O   0  0  0  0  0  0
  -23.5452  -32.1339   23.7215 O   0  0  0  0  0  0
  -31.5131  -17.7574   20.1458 C   0  0  0  0  0  0
  -31.8688  -19.1049   19.9432 C   0  0  0  0  0  0
  -29.2521  -18.4789   20.6374 C   0  0  0  0  0  0
  -29.5983  -19.8930   20.4440 C   0  0  0  0  0  0
  -30.1945  -17.3672   20.4943 C   0  0  0  0  0  0
  -30.9400  -20.1523   20.0836 C   0  0  0  0  0  0
  -28.6666  -21.1100   20.6566 C   0  0  0  0  0  0
  -28.1070  -23.6945   20.3964 C   0  0  0  0  0  0
  -28.4541  -25.0260   19.5629 C   0  0  0  0  0  0
  -29.8621  -15.9123   20.6799 N   0  0  0  0  0  0
  -28.8693  -22.4110   20.1674 N   0  0  0  0  0  0
  -27.5805  -20.8938   21.4104 N   0  3  0  0  0  0
  -27.1621  -23.7043   21.1933 O   0  0  0  0  0  0
  -31.3597  -21.4237   19.8614 F   0  0  0  0  0  0
  -31.4659  -12.5731   19.1930 H   0  0  0  0  0  0
  -30.3558  -11.4841   19.9752 H   0  0  0  0  0  0
  -29.7990  -11.7453   17.5299 H   0  0  0  0  0  0
  -29.6432  -13.4729   17.7350 H   0  0  0  0  0  0
  -27.8830  -11.2904   18.9009 H   0  0  0  0  0  0
  -27.3823  -12.5473   17.7992 H   0  0  0  0  0  0
  -27.6291  -14.2600   19.4803 H   0  0  0  0  0  0
  -28.7083  -12.1798   21.4402 H   0  0  0  0  0  0
  -28.4049  -13.8582   21.8026 H   0  0  0  0  0  0
  -25.2731   -9.5726   22.4753 H   0  0  0  0  0  0
  -24.0007   -7.4647   22.7465 H   0  0  0  0  0  0
  -21.0830   -8.8732   19.8936 H   0  0  0  0  0  0
  -22.3634  -10.9661   19.6159 H   0  0  0  0  0  0
  -21.2010   -7.6139   23.9705 H   0  0  0  0  0  0
  -21.1492   -6.0510   25.9066 H   0  0  0  0  0  0
  -22.0600   -2.7601   23.2835 H   0  0  0  0  0  0
  -22.4069  -11.9865   22.4802 H   0  0  0  0  0  0
  -21.1065  -13.1223   22.2635 H   0  0  0  0  0  0
  -24.6361  -15.8371   20.4839 H   0  0  0  0  0  0
  -26.2440  -15.6190   20.0123 H   0  0  0  0  0  0
  -26.7170  -32.5372   23.0983 H   0  0  0  0  0  0
  -25.0027  -33.9641   25.0333 H   0  0  0  0  0  0
  -22.7287  -31.2986   21.3851 H   0  0  0  0  0  0
  -23.3756  -35.9612   23.3310 H   0  0  0  0  0  0
  -24.3584  -36.8901   22.2062 H   0  0  0  0  0  0
  -23.7264  -37.6485   23.6665 H   0  0  0  0  0  0
  -26.1198  -31.5137   20.6016 H   0  0  0  0  0  0
  -26.8509  -30.8042   22.0095 H   0  0  0  0  0  0
  -28.1043  -28.8981   21.2188 H   0  0  0  0  0  0
  -25.9464  -25.8757   19.0151 H   0  0  0  0  0  0
  -23.9709  -27.2972   18.9927 H   0  0  0  0  0  0
  -23.7771  -30.5854   19.3965 H   0  0  0  0  0  0
  -22.7629  -29.2484   19.8339 H   0  0  0  0  0  0
  -25.1299  -36.1889   25.0823 H   0  0  0  0  0  0
  -21.0004  -28.3265   24.1378 H   0  0  0  0  0  0
  -20.5661  -26.2280   23.3600 H   0  0  0  0  0  0
  -21.6654  -26.7406   22.1208 H   0  0  0  0  0  0
  -19.6938  -25.6278   21.1241 H   0  0  0  0  0  0
  -19.6743  -27.3181   20.6727 H   0  0  0  0  0  0
  -17.4211  -26.6656   21.4027 H   0  0  0  0  0  0
  -18.0357  -26.0087   22.9011 H   0  0  0  0  0  0
  -19.7967  -30.7254   24.2264 H   0  0  0  0  0  0
  -17.5062  -31.6281   24.5153 H   0  0  0  0  0  0
  -15.5384  -30.3017   23.7654 H   0  0  0  0  0  0
  -15.8676  -28.0828   22.7087 H   0  0  0  0  0  0
  -24.5987  -30.6938   25.7792 H   0  0  0  0  0  0
  -24.8817  -32.2896   26.4675 H   0  0  0  0  0  0
  -25.8080  -30.9076   27.0257 H   0  0  0  0  0  0
  -26.2895  -29.6731   24.1189 H   0  0  0  0  0  0
  -27.4009  -29.7201   25.4680 H   0  0  0  0  0  0
  -27.8786  -30.4234   23.9407 H   0  0  0  0  0  0
  -27.2660  -33.3635   26.1929 H   0  0  0  0  0  0
  -28.3945  -32.6729   25.0374 H   0  0  0  0  0  0
  -28.0590  -31.8470   26.5510 H   0  0  0  0  0  0
  -28.2576  -38.0092   24.7506 H   0  0  0  0  0  0
  -28.1081  -36.2624   24.6317 H   0  0  0  0  0  0
  -27.2294  -37.1467   25.8873 H   0  0  0  0  0  0
  -20.9337  -29.8796   21.6890 H   0  0  0  0  0  0
  -26.0168  -38.2833   24.1405 H   0  0  0  0  0  0
  -32.3095  -17.0464   20.0112 H   0  0  0  0  0  0
  -32.8878  -19.3380   19.6715 H   0  0  0  0  0  0
  -28.2341  -18.2398   20.9074 H   0  0  0  0  0  0
  -27.8974  -25.0002   18.6264 H   0  0  0  0  0  0
  -29.4961  -24.9433   19.2553 H   0  0  0  0  0  0
  -28.9058  -15.7207   20.9351 H   0  0  0  0  0  0
  -29.6914  -22.4153   19.5781 H   0  0  0  0  0  0
  -27.4081  -19.9953   21.8327 H   0  0  0  0  0  0
  -26.9722  -21.6742   21.6236 H   0  0  0  0  0  0
  1 25  1  0  0  0
  1 30  2  0  0  0
  1 80  1  0  0  0
  2  3  1  0  0  0
  2 25  1  0  0  0
  2 85  1  0  0  0
  2 86  1  0  0  0
  3  4  1  0  0  0
  3 87  1  0  0  0
  3 88  1  0  0  0
  4  5  1  0  0  0
  4 89  1  0  0  0
  4 90  1  0  0  0
  5  6  1  0  0  0
  5 26  1  0  0  0
  5 91  1  0  0  0
  6 25  1  0  0  0
  6 92  1  0  0  0
  6 93  1  0  0  0
  7  8  2  0  0  0
  7 26  1  0  0  0
  7 29  1  0  0  0
  8  9  1  0  0  0
  8 22  1  0  0  0
  9 10  1  0  0  0
  9 27  2  0  0  0
 10 11  2  0  0  0
 10 15  1  0  0  0
 11 12  1  0  0  0
 11 94  1  0  0  0
 12 13  2  0  0  0
 12 95  1  0  0  0
 13 14  1  0  0  0
 13 31  1  0  0  0
 14 15  2  0  0  0
 14 96  1  0  0  0
 15 97  1  0  0  0
 16 17  2  0  0  0
 16 21  1  0  0  0
 16 31  1  0  0  0
 17 18  1  0  0  0
 17 98  1  0  0  0
 18 19  2  0  0  0
 18 99  1  0  0  0
 19 20  1  0  0  0
 19 24  1  0  0  0
 20 21  2  0  0  0
 20100  1  0  0  0
 21 23  1  0  0  0
 22 28  1  0  0  0
 22 32  2  0  0  0
 26 27  1  0  0  0
 28101  1  0  0  0
 28102  1  0  0  0
 29103  1  0  0  0
 29104  1  0  0  0
 33 34  1  0  0  0
 33 66  1  0  0  0
 33 70  2  0  0  0
 34 36  1  0  0  0
 34 59  1  0  0  0
 34105  1  0  0  0
 35 44  2  0  0  0
 35 45  1  0  0  0
 35 68  1  0  0  0
 36 56  1  0  0  0
 36106  1  0  0  0
 37 39  1  0  0  0
 37 47  1  0  0  0
 37 66  1  0  0  0
 37107  1  0  0  0
 38 43  2  0  0  0
 38 46  1  0  0  0
 38 47  1  0  0  0
 39 64  1  0  0  0
 39 67  2  0  0  0
 40 52  1  0  0  0
 40 53  2  0  0  0
 40 58  1  0  0  0
 41108  1  0  0  0
 41109  1  0  0  0
 41110  1  0  0  0
 41 48  1  0  0  0
 42 43  1  0  0  0
 42 66  1  0  0  0
 42111  1  0  0  0
 42112  1  0  0  0
 43 44  1  0  0  0
 44113  1  0  0  0
 45 46  2  0  0  0
 45114  1  0  0  0
 46115  1  0  0  0
 47116  1  0  0  0
 47117  1  0  0  0
 48 56  1  0  0  0
 48 65  1  0  0  0
 48118  1  0  0  0
 49 50  1  0  0  0
 49 53  1  0  0  0
 49 64  1  0  0  0
 49119  1  0  0  0
 50 51  1  0  0  0
 50120  1  0  0  0
 50121  1  0  0  0
 51 52  1  0  0  0
 51122  1  0  0  0
 51123  1  0  0  0
 52124  1  0  0  0
 52125  1  0  0  0
 53 54  1  0  0  0
 54 55  2  0  0  0
 54126  1  0  0  0
 55 57  1  0  0  0
 55127  1  0  0  0
 56 69  2  0  0  0
 57 58  2  0  0  0
 57128  1  0  0  0
 58129  1  0  0  0
 59 60  1  0  0  0
 59 61  1  0  0  0
 59 62  1  0  0  0
 60130  1  0  0  0
 60131  1  0  0  0
 60132  1  0  0  0
 61133  1  0  0  0
 61134  1  0  0  0
 61135  1  0  0  0
 62136  1  0  0  0
 62137  1  0  0  0
 62138  1  0  0  0
 63 65  1  0  0  0
 63139  1  0  0  0
 63140  1  0  0  0
 63141  1  0  0  0
 64142  1  0  0  0
 65143  1  0  0  0
 68 79  1  0  0  0
 71 72  2  0  0  0
 71 75  1  0  0  0
 71144  1  0  0  0
 72 76  1  0  0  0
 72145  1  0  0  0
 73 74  1  0  0  0
 73 75  2  0  0  0
 73146  1  0  0  0
 74 76  2  0  0  0
 74 77  1  0  0  0
 75 80  1  0  0  0
 76 84  1  0  0  0
 77 81  1  0  0  0
 77 82  2  0  0  0
 78 79  1  0  0  0
 78 81  1  0  0  0
 78 83  2  0  0  0
 79147  1  0  0  0
 79148  1  0  0  0
 80149  1  0  0  0
 81150  1  0  0  0
 82151  1  0  0  0
 82152  1  0  0  0
M  CHG  1  82   1
M  ISO  4   1 100  68 101  79 101  80 100
M  END
> <chiral flag>
0

> <version>
0

> <s_m_source_file>
/data/baiqing/PycharmProjects/Reinvent-master-3.2/result/LINK_invent/BTK/process_docking_weight1_custom_product_contain_oxygen_bond_distance_aromatic_linkinvent_7_9_3/rearranged_h_0065.sdf

> <i_m_source_file_index>
26

> <r_mmod_Potential_Energy-OPLS-2005>
-125.45532989502

> <r_mmod_Stretch_Energy-OPLS-2005>
141.292358398438

> <r_mmod_Bend_Energy-OPLS-2005>
187.148880004883

> <r_mmod_Torsional_Energy-OPLS-2005>
202.154312133789

> <r_mmod_Improper_Torsional_Energy-OPLS-2005>
5.26663637161255

> <r_mmod_Van_der_Waal_Energy-OPLS-2005>
153.80500793457

> <r_mmod_Electrostatic_Energy-OPLS-2005>
-445.784912109375

> <r_mmod_Solvation_Energy-OPLS-2005>
-457.751098632812

> <b_mmod_Minimization_Converged-OPLS-2005>
0

> <r_mmod_RMS_Derivative-OPLS-2005>
2.87437605857849

$$$$
26
                    3D
 Structure written by MMmdl.
152160  0  0  1  0            999 V2000
  -30.5721  -14.7560   20.5084 C   0  0  0  0  0  0
  -30.4504  -12.4696   19.4796 C   0  0  0  0  0  0
  -29.5238  -12.5350   18.2426 C   0  0  0  0  0  0
  -28.0495  -12.3459   18.6497 C   0  0  0  0  0  0
  -27.6535  -13.2261   19.8640 C   0  0  2  0  0  0
  -28.6932  -13.1177   21.0025 C   0  0  0  0  0  0
  -25.2552  -13.8178   20.5678 C   0  0  0  0  0  0
  -24.1819  -13.0438   20.9171 C   0  0  0  0  0  0
  -24.6400  -11.6905   20.8719 C   0  0  0  0  0  0
  -23.9073  -10.4292   21.0387 C   0  0  0  0  0  0
  -24.3623   -9.4211   21.9174 C   0  0  0  0  0  0
  -23.6280   -8.2255   22.0769 C   0  0  0  0  0  0
  -22.4259   -8.0298   21.3565 C   0  0  0  0  0  0
  -21.9893   -9.0273   20.4671 C   0  0  0  0  0  0
  -22.7242  -10.2134   20.3054 C   0  0  0  0  0  0
  -21.6865   -6.0732   22.5279 C   0  0  0  0  0  0
  -21.4017   -6.5622   23.8211 C   0  0  0  0  0  0
  -21.3657   -5.6781   24.9174 C   0  0  0  0  0  0
  -21.6047   -4.3048   24.7227 C   0  0  0  0  0  0
  -21.8814   -3.8142   23.4348 C   0  0  0  0  0  0
  -21.9188   -4.6959   22.3412 C   0  0  0  0  0  0
  -22.7848  -13.5235   21.1818 C   0  0  0  0  0  0
  -22.1662   -4.2152   21.0993 F   0  0  0  0  0  0
  -21.5625   -3.4535   25.7739 F   0  0  0  0  0  0
  -30.0015  -13.5006   20.4480 N   0  0  0  0  0  0
  -26.2988  -12.9383   20.3295 N   0  0  0  0  0  0
  -25.9326  -11.6525   20.5695 N   0  0  0  0  0  0
  -22.0476  -12.8265   22.0393 N   0  0  0  0  0  0
  -25.4241  -15.1899   20.4117 N   0  0  0  0  0  0
  -31.7081  -14.9369   20.0560 O   0  0  0  0  0  0
  -21.6650   -6.8878   21.4241 O   0  0  0  0  0  0
  -22.3552  -14.5553   20.6674 O   0  0  0  0  0  0
  -24.6332  -31.8552   23.1968 C   0  0  0  0  0  0
  -25.9151  -32.4749   23.8329 C   0  0  1  0  0  0
  -27.2189  -27.2459   20.1368 C   0  0  0  0  0  0
  -25.5943  -33.8553   24.2251 N   0  0  0  0  0  0
  -23.4310  -30.4777   21.5418 C   0  0  2  0  0  0
  -24.8790  -28.9272   20.1105 C   0  0  0  0  0  0
  -22.7531  -29.4603   22.4906 C   0  0  0  0  0  0
  -18.0300  -28.1397   22.8476 C   0  0  0  0  0  0
  -24.1489  -36.7275   23.2639 C   0  0  0  0  0  0
  -25.9786  -30.7638   21.3807 C   0  0  0  0  0  0
  -26.0519  -29.3864   20.7216 C   0  0  0  0  0  0
  -27.2244  -28.5599   20.7235 C   0  0  0  0  0  0
  -26.0212  -26.8671   19.4853 C   0  0  0  0  0  0
  -24.8698  -27.6758   19.4811 C   0  0  0  0  0  0
  -23.6511  -29.8149   20.1572 C   0  0  0  0  0  0
  -25.4114  -36.3063   24.0324 C   0  0  1  0  0  0
  -20.5913  -28.3712   23.1266 C   0  0  2  0  0  0
  -20.6789  -26.9420   22.5411 C   0  0  0  0  0  0
  -19.5759  -26.6385   21.5218 C   0  0  0  0  0  0
  -18.1941  -26.7932   22.1628 C   0  0  0  0  0  0
  -19.1555  -28.8869   23.2863 C   0  0  0  0  0  0
  -18.9479  -30.1471   23.8880 C   0  0  0  0  0  0
  -17.6477  -30.6592   24.0563 C   0  0  0  0  0  0
  -25.9061  -34.9435   23.5091 C   0  0  0  0  0  0
  -16.5367  -29.9090   23.6332 C   0  0  0  0  0  0
  -16.7285  -28.6514   23.0335 C   0  0  0  0  0  0
  -26.4514  -31.6577   25.0721 C   0  0  0  0  0  0
  -25.3736  -31.3751   26.1448 C   0  0  0  0  0  0
  -27.0367  -30.2987   24.6225 C   0  0  0  0  0  0
  -27.6064  -32.4329   25.7500 C   0  0  0  0  0  0
  -27.5581  -37.1787   24.8460 C   0  0  0  0  0  0
  -21.4240  -29.3050   22.3651 N   0  0  0  0  0  0
  -26.4285  -37.3767   23.9415 N   0  0  0  0  0  0
  -24.6998  -31.0504   22.0959 N   0  0  0  0  0  0
  -23.4213  -28.8132   23.3011 O   0  0  0  0  0  0
  -28.2954  -26.3212   20.2212 O   0  0  0  0  0  0
  -26.5641  -34.8922   22.4664 O   0  0  0  0  0  0
  -23.5483  -32.1390   23.7255 O   0  0  0  0  0  0
  -30.1536  -18.0221   19.7313 C   0  0  0  0  0  0
  -29.8259  -19.4181   19.5602 C   0  0  0  0  0  0
  -29.0307  -18.0528   21.8354 C   0  0  0  0  0  0
  -29.7210  -17.2678   20.8602 C   0  0  0  0  0  0
  -28.7106  -19.4509   21.6866 C   0  0  0  0  0  0
  -29.0564  -20.1790   20.4956 C   0  0  0  0  0  0
  -28.0057  -24.8483   20.0218 C   0  0  0  0  0  0
  -28.9432  -23.5902   20.4625 C   0  0  0  0  0  0
  -27.9907  -20.0383   22.7353 N   0  0  0  0  0  0
  -29.7966  -15.7858   21.0243 N   0  0  0  0  0  0
  -28.3132  -21.8434   18.4699 O   0  0  0  0  0  0
  -26.8779  -21.8214   20.5073 O   0  0  0  0  0  0
  -28.2411  -21.8451   19.9436 S   0  0  0  0  0  0
  -31.4915  -12.6111   19.1813 H   0  0  0  0  0  0
  -30.4101  -11.4784   19.9350 H   0  0  0  0  0  0
  -29.8133  -11.7796   17.5113 H   0  0  0  0  0  0
  -29.6504  -13.4988   17.7458 H   0  0  0  0  0  0
  -27.9047  -11.2927   18.8977 H   0  0  0  0  0  0
  -27.3984  -12.5546   17.8007 H   0  0  0  0  0  0
  -27.6644  -14.2544   19.5030 H   0  0  0  0  0  0
  -28.7330  -12.1001   21.3927 H   0  0  0  0  0  0
  -28.4101  -13.7503   21.8458 H   0  0  0  0  0  0
  -25.2746   -9.5695   22.4765 H   0  0  0  0  0  0
  -23.9992   -7.4646   22.7489 H   0  0  0  0  0  0
  -21.0816   -8.8783   19.8978 H   0  0  0  0  0  0
  -22.3681  -10.9674   19.6175 H   0  0  0  0  0  0
  -21.2019   -7.6131   23.9713 H   0  0  0  0  0  0
  -21.1481   -6.0517   25.9079 H   0  0  0  0  0  0
  -22.0596   -2.7602   23.2855 H   0  0  0  0  0  0
  -22.4052  -11.9923   22.4803 H   0  0  0  0  0  0
  -21.1114  -13.1365   22.2594 H   0  0  0  0  0  0
  -24.6502  -15.8369   20.5230 H   0  0  0  0  0  0
  -26.2669  -15.6350   20.0709 H   0  0  0  0  0  0
  -26.7215  -32.5393   23.1075 H   0  0  0  0  0  0
  -25.0074  -33.9681   25.0388 H   0  0  0  0  0  0
  -22.7272  -31.2998   21.3960 H   0  0  0  0  0  0
  -23.3761  -35.9599   23.3291 H   0  0  0  0  0  0
  -24.3586  -36.8909   22.2057 H   0  0  0  0  0  0
  -23.7239  -37.6468   23.6682 H   0  0  0  0  0  0
  -26.1230  -31.5250   20.6128 H   0  0  0  0  0  0
  -26.8553  -30.8128   22.0151 H   0  0  0  0  0  0
  -28.1185  -28.9031   21.2255 H   0  0  0  0  0  0
  -25.9320  -25.9128   18.9900 H   0  0  0  0  0  0
  -23.9717  -27.3174   18.9978 H   0  0  0  0  0  0
  -23.7833  -30.5937   19.4051 H   0  0  0  0  0  0
  -22.7679  -29.2546   19.8453 H   0  0  0  0  0  0
  -25.1297  -36.1903   25.0816 H   0  0  0  0  0  0
  -21.0007  -28.3289   24.1390 H   0  0  0  0  0  0
  -20.5713  -26.2309   23.3618 H   0  0  0  0  0  0
  -21.6653  -26.7447   22.1193 H   0  0  0  0  0  0
  -19.6923  -25.6299   21.1245 H   0  0  0  0  0  0
  -19.6689  -27.3199   20.6752 H   0  0  0  0  0  0
  -17.4207  -26.6684   21.4029 H   0  0  0  0  0  0
  -18.0325  -26.0087   22.9038 H   0  0  0  0  0  0
  -19.7957  -30.7293   24.2229 H   0  0  0  0  0  0
  -17.5033  -31.6260   24.5184 H   0  0  0  0  0  0
  -15.5371  -30.2981   23.7671 H   0  0  0  0  0  0
  -15.8688  -28.0835   22.7051 H   0  0  0  0  0  0
  -24.5841  -30.7186   25.7767 H   0  0  0  0  0  0
  -24.9016  -32.2944   26.4930 H   0  0  0  0  0  0
  -25.8033  -30.8851   27.0195 H   0  0  0  0  0  0
  -26.2953  -29.6723   24.1246 H   0  0  0  0  0  0
  -27.4046  -29.7263   25.4753 H   0  0  0  0  0  0
  -27.8837  -30.4257   23.9477 H   0  0  0  0  0  0
  -27.2652  -33.3616   26.2098 H   0  0  0  0  0  0
  -28.3861  -32.6924   25.0323 H   0  0  0  0  0  0
  -28.0759  -31.8450   26.5403 H   0  0  0  0  0  0
  -28.2580  -38.0099   24.7529 H   0  0  0  0  0  0
  -28.1093  -36.2637   24.6253 H   0  0  0  0  0  0
  -27.2305  -37.1390   25.8861 H   0  0  0  0  0  0
  -20.9443  -29.8752   21.6834 H   0  0  0  0  0  0
  -26.0159  -38.2833   24.1445 H   0  0  0  0  0  0
  -30.6789  -17.5205   18.9320 H   0  0  0  0  0  0
  -30.0952  -19.8927   18.6291 H   0  0  0  0  0  0
  -28.6868  -17.5433   22.7247 H   0  0  0  0  0  0
  -27.0484  -24.6501   20.5066 H   0  0  0  0  0  0
  -27.8280  -24.7250   18.9526 H   0  0  0  0  0  0
  -29.0724  -23.5706   21.5422 H   0  0  0  0  0  0
  -29.9337  -23.6754   20.0215 H   0  0  0  0  0  0
  -27.5131  -19.4239   23.3873 H   0  0  0  0  0  0
  -27.4338  -20.8615   22.5190 H   0  0  0  0  0  0
  -29.0276  -15.4169   21.5647 H   0  0  0  0  0  0
  1 25  1  0  0  0
  1 30  2  0  0  0
  1 80  1  0  0  0
  2  3  1  0  0  0
  2 25  1  0  0  0
  2 84  1  0  0  0
  2 85  1  0  0  0
  3  4  1  0  0  0
  3 86  1  0  0  0
  3 87  1  0  0  0
  4  5  1  0  0  0
  4 88  1  0  0  0
  4 89  1  0  0  0
  5  6  1  0  0  0
  5 26  1  0  0  0
  5 90  1  0  0  0
  6 25  1  0  0  0
  6 91  1  0  0  0
  6 92  1  0  0  0
  7  8  2  0  0  0
  7 26  1  0  0  0
  7 29  1  0  0  0
  8  9  1  0  0  0
  8 22  1  0  0  0
  9 10  1  0  0  0
  9 27  2  0  0  0
 10 11  2  0  0  0
 10 15  1  0  0  0
 11 12  1  0  0  0
 11 93  1  0  0  0
 12 13  2  0  0  0
 12 94  1  0  0  0
 13 14  1  0  0  0
 13 31  1  0  0  0
 14 15  2  0  0  0
 14 95  1  0  0  0
 15 96  1  0  0  0
 16 17  2  0  0  0
 16 21  1  0  0  0
 16 31  1  0  0  0
 17 18  1  0  0  0
 17 97  1  0  0  0
 18 19  2  0  0  0
 18 98  1  0  0  0
 19 20  1  0  0  0
 19 24  1  0  0  0
 20 21  2  0  0  0
 20 99  1  0  0  0
 21 23  1  0  0  0
 22 28  1  0  0  0
 22 32  2  0  0  0
 26 27  1  0  0  0
 28100  1  0  0  0
 28101  1  0  0  0
 29102  1  0  0  0
 29103  1  0  0  0
 33 34  1  0  0  0
 33 66  1  0  0  0
 33 70  2  0  0  0
 34 36  1  0  0  0
 34 59  1  0  0  0
 34104  1  0  0  0
 35 44  2  0  0  0
 35 45  1  0  0  0
 35 68  1  0  0  0
 36 56  1  0  0  0
 36105  1  0  0  0
 37 39  1  0  0  0
 37 47  1  0  0  0
 37 66  1  0  0  0
 37106  1  0  0  0
 38 43  2  0  0  0
 38 46  1  0  0  0
 38 47  1  0  0  0
 39 64  1  0  0  0
 39 67  2  0  0  0
 40 52  1  0  0  0
 40 53  2  0  0  0
 40 58  1  0  0  0
 41107  1  0  0  0
 41108  1  0  0  0
 41109  1  0  0  0
 41 48  1  0  0  0
 42 43  1  0  0  0
 42 66  1  0  0  0
 42110  1  0  0  0
 42111  1  0  0  0
 43 44  1  0  0  0
 44112  1  0  0  0
 45 46  2  0  0  0
 45113  1  0  0  0
 46114  1  0  0  0
 47115  1  0  0  0
 47116  1  0  0  0
 48 56  1  0  0  0
 48 65  1  0  0  0
 48117  1  0  0  0
 49 50  1  0  0  0
 49 53  1  0  0  0
 49 64  1  0  0  0
 49118  1  0  0  0
 50 51  1  0  0  0
 50119  1  0  0  0
 50120  1  0  0  0
 51 52  1  0  0  0
 51121  1  0  0  0
 51122  1  0  0  0
 52123  1  0  0  0
 52124  1  0  0  0
 53 54  1  0  0  0
 54 55  2  0  0  0
 54125  1  0  0  0
 55 57  1  0  0  0
 55126  1  0  0  0
 56 69  2  0  0  0
 57 58  2  0  0  0
 57127  1  0  0  0
 58128  1  0  0  0
 59 60  1  0  0  0
 59 61  1  0  0  0
 59 62  1  0  0  0
 60129  1  0  0  0
 60130  1  0  0  0
 60131  1  0  0  0
 61132  1  0  0  0
 61133  1  0  0  0
 61134  1  0  0  0
 62135  1  0  0  0
 62136  1  0  0  0
 62137  1  0  0  0
 63 65  1  0  0  0
 63138  1  0  0  0
 63139  1  0  0  0
 63140  1  0  0  0
 64141  1  0  0  0
 65142  1  0  0  0
 68 77  1  0  0  0
 71 72  2  0  0  0
 71 74  1  0  0  0
 71143  1  0  0  0
 72 76  1  0  0  0
 72144  1  0  0  0
 73 74  2  0  0  0
 73 75  1  0  0  0
 73145  1  0  0  0
 74 80  1  0  0  0
 75 76  2  0  0  0
 75 79  1  0  0  0
 76 83  1  0  0  0
 77 78  1  0  0  0
 77146  1  0  0  0
 77147  1  0  0  0
 78148  1  0  0  0
 78149  1  0  0  0
 78 83  1  0  0  0
 79150  1  0  0  0
 79151  1  0  0  0
 80152  1  0  0  0
 81 83  2  0  0  0
 82 83  2  0  0  0
M  ISO  4   1 100  68 101  77 101  80 100
M  END
> <chiral flag>
0

> <version>
0

> <s_m_source_file>
/data/baiqing/PycharmProjects/Reinvent-master-3.2/result/LINK_invent/BTK/process_docking_weight1_custom_product_contain_oxygen_bond_distance_aromatic_linkinvent_7_9_3/rearranged_h_0065.sdf

> <i_m_source_file_index>
27

> <r_mmod_Potential_Energy-OPLS-2005>
298.74462890625

> <r_mmod_Stretch_Energy-OPLS-2005>
138.643218994141

> <r_mmod_Bend_Energy-OPLS-2005>
212.425476074219

> <r_mmod_Torsional_Energy-OPLS-2005>
234.135803222656

> <r_mmod_Improper_Torsional_Energy-OPLS-2005>
9.63394165039062

> <r_mmod_Van_der_Waal_Energy-OPLS-2005>
134.758285522461

> <r_mmod_Electrostatic_Energy-OPLS-2005>
-259.202514648438

> <r_mmod_Solvation_Energy-OPLS-2005>
-266.119476318359

> <b_mmod_Minimization_Converged-OPLS-2005>
0

> <r_mmod_RMS_Derivative-OPLS-2005>
2.72650647163391

$$$$
27
                    3D
 Structure written by MMmdl.
154162  0  0  1  0            999 V2000
  -30.6193  -14.6546   20.4889 C   0  0  0  0  0  0
  -30.4394  -12.4001   19.4542 C   0  0  0  0  0  0
  -29.5082  -12.5058   18.2255 C   0  0  0  0  0  0
  -28.0313  -12.3420   18.6383 C   0  0  0  0  0  0
  -27.6513  -13.2185   19.8615 C   0  0  2  0  0  0
  -28.6974  -13.0839   20.9914 C   0  0  0  0  0  0
  -25.2546  -13.8168   20.5693 C   0  0  0  0  0  0
  -24.1814  -13.0425   20.9170 C   0  0  0  0  0  0
  -24.6393  -11.6901   20.8726 C   0  0  0  0  0  0
  -23.9065  -10.4286   21.0398 C   0  0  0  0  0  0
  -24.3616   -9.4204   21.9178 C   0  0  0  0  0  0
  -23.6290   -8.2241   22.0753 C   0  0  0  0  0  0
  -22.4272   -8.0279   21.3544 C   0  0  0  0  0  0
  -21.9906   -9.0252   20.4646 C   0  0  0  0  0  0
  -22.7236  -10.2129   20.3051 C   0  0  0  0  0  0
  -21.6852   -6.0734   22.5279 C   0  0  0  0  0  0
  -21.4015   -6.5637   23.8213 C   0  0  0  0  0  0
  -21.3659   -5.6790   24.9175 C   0  0  0  0  0  0
  -21.6044   -4.3053   24.7225 C   0  0  0  0  0  0
  -21.8820   -3.8145   23.4346 C   0  0  0  0  0  0
  -21.9193   -4.6962   22.3402 C   0  0  0  0  0  0
  -22.7838  -13.5219   21.1845 C   0  0  0  0  0  0
  -22.1662   -4.2148   21.0979 F   0  0  0  0  0  0
  -21.5628   -3.4537   25.7738 F   0  0  0  0  0  0
  -30.0119  -13.4266   20.4257 N   0  0  0  0  0  0
  -26.2982  -12.9359   20.3324 N   0  0  0  0  0  0
  -25.9325  -11.6509   20.5754 N   0  0  0  0  0  0
  -22.0488  -12.8212   22.0408 N   0  0  0  0  0  0
  -25.4216  -15.1899   20.4183 N   0  0  0  0  0  0
  -31.7886  -14.8070   20.1235 O   0  0  0  0  0  0
  -21.6637   -6.8876   21.4241 O   0  0  0  0  0  0
  -22.3519  -14.5528   20.6703 O   0  0  0  0  0  0
  -24.6258  -31.8595   23.2018 C   0  0  0  0  0  0
  -25.9106  -32.4778   23.8349 C   0  0  1  0  0  0
  -27.2259  -27.3189   20.1245 C   0  0  0  0  0  0
  -25.5921  -33.8579   24.2277 N   0  0  0  0  0  0
  -23.4198  -30.4821   21.5444 C   0  0  2  0  0  0
  -24.8673  -28.9334   20.1142 C   0  0  0  0  0  0
  -22.7472  -29.4623   22.4938 C   0  0  0  0  0  0
  -18.0286  -28.1385   22.8487 C   0  0  0  0  0  0
  -24.1489  -36.7295   23.2639 C   0  0  0  0  0  0
  -25.9601  -30.7905   21.3725 C   0  0  0  0  0  0
  -26.0354  -29.4163   20.7181 C   0  0  0  0  0  0
  -27.2196  -28.6216   20.7109 C   0  0  0  0  0  0
  -26.0394  -26.8892   19.4914 C   0  0  0  0  0  0
  -24.8709  -27.6751   19.4914 C   0  0  0  0  0  0
  -23.6351  -29.8139   20.1608 C   0  0  0  0  0  0
  -25.4114  -36.3084   24.0330 C   0  0  1  0  0  0
  -20.5886  -28.3689   23.1284 C   0  0  2  0  0  0
  -20.6775  -26.9413   22.5410 C   0  0  0  0  0  0
  -19.5751  -26.6387   21.5212 C   0  0  0  0  0  0
  -18.1931  -26.7928   22.1626 C   0  0  0  0  0  0
  -19.1538  -28.8854   23.2882 C   0  0  0  0  0  0
  -18.9462  -30.1456   23.8898 C   0  0  0  0  0  0
  -17.6461  -30.6587   24.0565 C   0  0  0  0  0  0
  -25.9049  -34.9452   23.5105 C   0  0  0  0  0  0
  -16.5352  -29.9086   23.6330 C   0  0  0  0  0  0
  -16.7274  -28.6505   23.0349 C   0  0  0  0  0  0
  -26.4492  -31.6587   25.0719 C   0  0  0  0  0  0
  -25.3728  -31.3725   26.1449 C   0  0  0  0  0  0
  -27.0334  -30.3013   24.6169 C   0  0  0  0  0  0
  -27.6055  -32.4320   25.7487 C   0  0  0  0  0  0
  -27.5579  -37.1805   24.8467 C   0  0  0  0  0  0
  -21.4187  -29.3041   22.3679 N   0  0  0  0  0  0
  -26.4294  -37.3777   23.9406 N   0  0  0  0  0  0
  -24.6873  -31.0608   22.0966 N   0  0  0  0  0  0
  -23.4197  -28.8165   23.3020 O   0  0  0  0  0  0
  -28.3478  -26.4788   20.1373 O   0  0  0  0  0  0
  -26.5620  -34.8919   22.4672 O   0  0  0  0  0  0
  -23.5422  -32.1391   23.7348 O   0  0  0  0  0  0
  -28.7338  -19.3509   20.3635 C   0  0  0  0  0  0
  -31.1191  -17.8818   20.4128 C   0  0  0  0  0  0
  -29.9289  -20.0846   20.1393 C   0  0  0  0  0  0
  -31.1400  -19.2981   20.2007 C   0  0  0  0  0  0
  -29.9141  -17.1570   20.5900 C   0  0  0  0  0  0
  -28.7286  -17.9390   20.5798 C   0  0  0  0  0  0
  -29.8822  -21.5553   19.7023 C   0  0  0  0  0  0
  -29.1133  -24.0273   19.8095 C   0  0  0  0  0  0
  -28.1621  -25.0559   20.5351 C   0  0  0  0  0  0
  -32.4122  -19.8601   20.0242 N   0  0  0  0  0  0
  -29.8021  -15.7089   20.7997 N   0  0  0  0  0  0
  -29.1233  -22.5921   20.2272 N   0  0  0  0  0  0
  -30.6810  -21.8324   18.6666 N   0  3  0  0  0  0
  -29.8444  -24.4225   18.8906 O   0  0  0  0  0  0
  -27.5428  -17.3063   20.7501 F   0  0  0  0  0  0
  -31.4800  -12.5269   19.1507 H   0  0  0  0  0  0
  -30.3775  -11.4070   19.9018 H   0  0  0  0  0  0
  -29.7745  -11.7506   17.4849 H   0  0  0  0  0  0
  -29.6477  -13.4726   17.7391 H   0  0  0  0  0  0
  -27.8718  -11.2896   18.8761 H   0  0  0  0  0  0
  -27.3760  -12.5646   17.7953 H   0  0  0  0  0  0
  -27.6631  -14.2511   19.5125 H   0  0  0  0  0  0
  -28.7113  -12.0652   21.3817 H   0  0  0  0  0  0
  -28.4423  -13.7229   21.8383 H   0  0  0  0  0  0
  -25.2764   -9.5680   22.4750 H   0  0  0  0  0  0
  -24.0001   -7.4633   22.7472 H   0  0  0  0  0  0
  -21.0837   -8.8771   19.8953 H   0  0  0  0  0  0
  -22.3696  -10.9666   19.6158 H   0  0  0  0  0  0
  -21.2007   -7.6145   23.9716 H   0  0  0  0  0  0
  -21.1480   -6.0519   25.9078 H   0  0  0  0  0  0
  -22.0600   -2.7607   23.2847 H   0  0  0  0  0  0
  -22.4104  -11.9871   22.4791 H   0  0  0  0  0  0
  -21.1109  -13.1241   22.2623 H   0  0  0  0  0  0
  -24.6558  -15.8376   20.5645 H   0  0  0  0  0  0
  -26.2866  -15.6614   20.1835 H   0  0  0  0  0  0
  -26.7173  -32.5451   23.1098 H   0  0  0  0  0  0
  -25.0068  -33.9723   25.0422 H   0  0  0  0  0  0
  -22.7137  -31.3024   21.4000 H   0  0  0  0  0  0
  -23.3748  -35.9632   23.3310 H   0  0  0  0  0  0
  -24.3579  -36.8906   22.2052 H   0  0  0  0  0  0
  -23.7248  -37.6503   23.6654 H   0  0  0  0  0  0
  -26.0901  -31.5524   20.6026 H   0  0  0  0  0  0
  -26.8410  -30.8416   22.0007 H   0  0  0  0  0  0
  -28.1182  -28.9898   21.1858 H   0  0  0  0  0  0
  -26.0042  -25.9338   18.9883 H   0  0  0  0  0  0
  -23.9780  -27.3024   19.0084 H   0  0  0  0  0  0
  -23.7550  -30.5888   19.4027 H   0  0  0  0  0  0
  -22.7553  -29.2428   19.8593 H   0  0  0  0  0  0
  -25.1295  -36.1939   25.0823 H   0  0  0  0  0  0
  -20.9978  -28.3263   24.1404 H   0  0  0  0  0  0
  -20.5676  -26.2298   23.3609 H   0  0  0  0  0  0
  -21.6644  -26.7444   22.1203 H   0  0  0  0  0  0
  -19.6912  -25.6298   21.1240 H   0  0  0  0  0  0
  -19.6686  -27.3198   20.6742 H   0  0  0  0  0  0
  -17.4199  -26.6672   21.4031 H   0  0  0  0  0  0
  -18.0336  -26.0071   22.9024 H   0  0  0  0  0  0
  -19.7937  -30.7273   24.2267 H   0  0  0  0  0  0
  -17.5015  -31.6266   24.5168 H   0  0  0  0  0  0
  -15.5352  -30.2988   23.7653 H   0  0  0  0  0  0
  -15.8674  -28.0825   22.7061 H   0  0  0  0  0  0
  -24.5899  -30.7077   25.7779 H   0  0  0  0  0  0
  -24.8924  -32.2891   26.4880 H   0  0  0  0  0  0
  -25.8056  -30.8899   27.0220 H   0  0  0  0  0  0
  -26.2904  -29.6762   24.1202 H   0  0  0  0  0  0
  -27.4045  -29.7271   25.4668 H   0  0  0  0  0  0
  -27.8767  -30.4303   23.9379 H   0  0  0  0  0  0
  -27.2671  -33.3625   26.2059 H   0  0  0  0  0  0
  -28.3866  -32.6873   25.0315 H   0  0  0  0  0  0
  -28.0718  -31.8448   26.5408 H   0  0  0  0  0  0
  -28.2605  -38.0094   24.7505 H   0  0  0  0  0  0
  -28.1067  -36.2626   24.6304 H   0  0  0  0  0  0
  -27.2296  -37.1470   25.8870 H   0  0  0  0  0  0
  -20.9364  -29.8763   21.6888 H   0  0  0  0  0  0
  -26.0178  -38.2855   24.1396 H   0  0  0  0  0  0
  -27.7829  -19.8600   20.3171 H   0  0  0  0  0  0
  -32.0520  -17.3384   20.4330 H   0  0  0  0  0  0
  -28.3565  -24.9885   21.6055 H   0  0  0  0  0  0
  -27.1397  -24.7079   20.3982 H   0  0  0  0  0  0
  -33.2151  -19.2759   20.2396 H   0  0  0  0  0  0
  -32.5699  -20.8151   20.3328 H   0  0  0  0  0  0
  -28.8726  -15.4214   21.0633 H   0  0  0  0  0  0
  -28.5421  -22.2847   20.9925 H   0  0  0  0  0  0
  -31.3662  -21.1370   18.3971 H   0  0  0  0  0  0
  -30.7356  -22.7819   18.3177 H   0  0  0  0  0  0
  1 25  1  0  0  0
  1 30  2  0  0  0
  1 81  1  0  0  0
  2  3  1  0  0  0
  2 25  1  0  0  0
  2 86  1  0  0  0
  2 87  1  0  0  0
  3  4  1  0  0  0
  3 88  1  0  0  0
  3 89  1  0  0  0
  4  5  1  0  0  0
  4 90  1  0  0  0
  4 91  1  0  0  0
  5  6  1  0  0  0
  5 26  1  0  0  0
  5 92  1  0  0  0
  6 25  1  0  0  0
  6 93  1  0  0  0
  6 94  1  0  0  0
  7  8  2  0  0  0
  7 26  1  0  0  0
  7 29  1  0  0  0
  8  9  1  0  0  0
  8 22  1  0  0  0
  9 10  1  0  0  0
  9 27  2  0  0  0
 10 11  2  0  0  0
 10 15  1  0  0  0
 11 12  1  0  0  0
 11 95  1  0  0  0
 12 13  2  0  0  0
 12 96  1  0  0  0
 13 14  1  0  0  0
 13 31  1  0  0  0
 14 15  2  0  0  0
 14 97  1  0  0  0
 15 98  1  0  0  0
 16 17  2  0  0  0
 16 21  1  0  0  0
 16 31  1  0  0  0
 17 18  1  0  0  0
 17 99  1  0  0  0
 18 19  2  0  0  0
 18100  1  0  0  0
 19 20  1  0  0  0
 19 24  1  0  0  0
 20 21  2  0  0  0
 20101  1  0  0  0
 21 23  1  0  0  0
 22 28  1  0  0  0
 22 32  2  0  0  0
 26 27  1  0  0  0
 28102  1  0  0  0
 28103  1  0  0  0
 29104  1  0  0  0
 29105  1  0  0  0
 33 34  1  0  0  0
 33 66  1  0  0  0
 33 70  2  0  0  0
 34 36  1  0  0  0
 34 59  1  0  0  0
 34106  1  0  0  0
 35 44  2  0  0  0
 35 45  1  0  0  0
 35 68  1  0  0  0
 36 56  1  0  0  0
 36107  1  0  0  0
 37 39  1  0  0  0
 37 47  1  0  0  0
 37 66  1  0  0  0
 37108  1  0  0  0
 38 43  2  0  0  0
 38 46  1  0  0  0
 38 47  1  0  0  0
 39 64  1  0  0  0
 39 67  2  0  0  0
 40 52  1  0  0  0
 40 53  2  0  0  0
 40 58  1  0  0  0
 41109  1  0  0  0
 41110  1  0  0  0
 41111  1  0  0  0
 41 48  1  0  0  0
 42 43  1  0  0  0
 42 66  1  0  0  0
 42112  1  0  0  0
 42113  1  0  0  0
 43 44  1  0  0  0
 44114  1  0  0  0
 45 46  2  0  0  0
 45115  1  0  0  0
 46116  1  0  0  0
 47117  1  0  0  0
 47118  1  0  0  0
 48 56  1  0  0  0
 48 65  1  0  0  0
 48119  1  0  0  0
 49 50  1  0  0  0
 49 53  1  0  0  0
 49 64  1  0  0  0
 49120  1  0  0  0
 50 51  1  0  0  0
 50121  1  0  0  0
 50122  1  0  0  0
 51 52  1  0  0  0
 51123  1  0  0  0
 51124  1  0  0  0
 52125  1  0  0  0
 52126  1  0  0  0
 53 54  1  0  0  0
 54 55  2  0  0  0
 54127  1  0  0  0
 55 57  1  0  0  0
 55128  1  0  0  0
 56 69  2  0  0  0
 57 58  2  0  0  0
 57129  1  0  0  0
 58130  1  0  0  0
 59 60  1  0  0  0
 59 61  1  0  0  0
 59 62  1  0  0  0
 60131  1  0  0  0
 60132  1  0  0  0
 60133  1  0  0  0
 61134  1  0  0  0
 61135  1  0  0  0
 61136  1  0  0  0
 62137  1  0  0  0
 62138  1  0  0  0
 62139  1  0  0  0
 63 65  1  0  0  0
 63140  1  0  0  0
 63141  1  0  0  0
 63142  1  0  0  0
 64143  1  0  0  0
 65144  1  0  0  0
 68 79  1  0  0  0
 71 73  2  0  0  0
 71 76  1  0  0  0
 71145  1  0  0  0
 72 74  2  0  0  0
 72 75  1  0  0  0
 72146  1  0  0  0
 73 74  1  0  0  0
 73 77  1  0  0  0
 74 80  1  0  0  0
 75 76  2  0  0  0
 75 81  1  0  0  0
 76 85  1  0  0  0
 77 82  1  0  0  0
 77 83  2  0  0  0
 78 79  1  0  0  0
 78 82  1  0  0  0
 78 84  2  0  0  0
 79147  1  0  0  0
 79148  1  0  0  0
 80149  1  0  0  0
 80150  1  0  0  0
 81151  1  0  0  0
 82152  1  0  0  0
 83153  1  0  0  0
 83154  1  0  0  0
M  CHG  1  83   1
M  ISO  4   1 100  68 101  79 101  81 100
M  END
> <chiral flag>
0

> <version>
0

> <s_m_source_file>
/data/baiqing/PycharmProjects/Reinvent-master-3.2/result/LINK_invent/BTK/process_docking_weight1_custom_product_contain_oxygen_bond_distance_aromatic_linkinvent_7_9_3/rearranged_h_0065.sdf

> <i_m_source_file_index>
28

> <r_mmod_Potential_Energy-OPLS-2005>
-150.063629150391

> <r_mmod_Stretch_Energy-OPLS-2005>
90.3208160400391

> <r_mmod_Bend_Energy-OPLS-2005>
150.81217956543

> <r_mmod_Torsional_Energy-OPLS-2005>
231.888076782227

> <r_mmod_Improper_Torsional_Energy-OPLS-2005>
9.39498233795166

> <r_mmod_Van_der_Waal_Energy-OPLS-2005>
160.963638305664

> <r_mmod_Electrostatic_Energy-OPLS-2005>
-380.303527832031

> <r_mmod_Solvation_Energy-OPLS-2005>
-463.129943847656

> <b_mmod_Minimization_Converged-OPLS-2005>
0

> <r_mmod_RMS_Derivative-OPLS-2005>
0.219775184988976

$$$$
28
                    3D
 Structure written by MMmdl.
154162  0  0  1  0            999 V2000
  -30.6995  -14.4816   20.5715 C   0  0  0  0  0  0
  -30.4263  -12.3138   19.4205 C   0  0  0  0  0  0
  -29.4956  -12.5025   18.2050 C   0  0  0  0  0  0
  -28.0165  -12.3625   18.6182 C   0  0  0  0  0  0
  -27.6613  -13.2055   19.8722 C   0  0  2  0  0  0
  -28.7042  -12.9944   20.9932 C   0  0  0  0  0  0
  -25.2592  -13.8156   20.5664 C   0  0  0  0  0  0
  -24.1845  -13.0436   20.9169 C   0  0  0  0  0  0
  -24.6395  -11.6903   20.8727 C   0  0  0  0  0  0
  -23.9054  -10.4290   21.0392 C   0  0  0  0  0  0
  -24.3612   -9.4208   21.9168 C   0  0  0  0  0  0
  -23.6291   -8.2242   22.0750 C   0  0  0  0  0  0
  -22.4275   -8.0273   21.3540 C   0  0  0  0  0  0
  -21.9899   -9.0246   20.4643 C   0  0  0  0  0  0
  -22.7226  -10.2124   20.3046 C   0  0  0  0  0  0
  -21.6853   -6.0729   22.5278 C   0  0  0  0  0  0
  -21.4011   -6.5637   23.8211 C   0  0  0  0  0  0
  -21.3654   -5.6792   24.9175 C   0  0  0  0  0  0
  -21.6044   -4.3056   24.7226 C   0  0  0  0  0  0
  -21.8825   -3.8143   23.4351 C   0  0  0  0  0  0
  -21.9198   -4.6955   22.3406 C   0  0  0  0  0  0
  -22.7871  -13.5233   21.1842 C   0  0  0  0  0  0
  -22.1668   -4.2141   21.0980 F   0  0  0  0  0  0
  -21.5624   -3.4538   25.7738 F   0  0  0  0  0  0
  -30.0338  -13.3012   20.4391 N   0  0  0  0  0  0
  -26.3026  -12.9320   20.3349 N   0  0  0  0  0  0
  -25.9321  -11.6481   20.5758 N   0  0  0  0  0  0
  -22.0519  -12.8222   22.0402 N   0  0  0  0  0  0
  -25.4333  -15.1871   20.4076 N   0  0  0  0  0  0
  -31.8333  -14.6554   20.1154 O   0  0  0  0  0  0
  -21.6647   -6.8869   21.4239 O   0  0  0  0  0  0
  -22.3558  -14.5545   20.6702 O   0  0  0  0  0  0
  -24.6168  -31.8669   23.2087 C   0  0  0  0  0  0
  -25.9053  -32.4817   23.8388 C   0  0  1  0  0  0
  -27.2294  -27.4148   20.0976 C   0  0  0  0  0  0
  -25.5906  -33.8614   24.2314 N   0  0  0  0  0  0
  -23.4056  -30.4923   21.5492 C   0  0  2  0  0  0
  -24.8503  -28.9601   20.1120 C   0  0  0  0  0  0
  -22.7426  -29.4665   22.4971 C   0  0  0  0  0  0
  -18.0274  -28.1378   22.8502 C   0  0  0  0  0  0
  -24.1476  -36.7298   23.2629 C   0  0  0  0  0  0
  -25.9379  -30.8284   21.3634 C   0  0  0  0  0  0
  -26.0139  -29.4635   20.7069 C   0  0  0  0  0  0
  -27.2077  -28.7010   20.6916 C   0  0  0  0  0  0
  -26.0438  -26.9379   19.4887 C   0  0  0  0  0  0
  -24.8616  -27.6981   19.4976 C   0  0  0  0  0  0
  -23.6135  -29.8280   20.1633 C   0  0  0  0  0  0
  -25.4091  -36.3098   24.0339 C   0  0  1  0  0  0
  -20.5874  -28.3667   23.1302 C   0  0  2  0  0  0
  -20.6770  -26.9401   22.5414 C   0  0  0  0  0  0
  -19.5743  -26.6383   21.5220 C   0  0  0  0  0  0
  -18.1921  -26.7925   22.1636 C   0  0  0  0  0  0
  -19.1530  -28.8837   23.2900 C   0  0  0  0  0  0
  -18.9459  -30.1450   23.8900 C   0  0  0  0  0  0
  -17.6465  -30.6586   24.0571 C   0  0  0  0  0  0
  -25.9043  -34.9474   23.5124 C   0  0  0  0  0  0
  -16.5350  -29.9096   23.6331 C   0  0  0  0  0  0
  -16.7268  -28.6511   23.0348 C   0  0  0  0  0  0
  -26.4473  -31.6591   25.0712 C   0  0  0  0  0  0
  -25.3744  -31.3714   26.1464 C   0  0  0  0  0  0
  -27.0292  -30.3028   24.6089 C   0  0  0  0  0  0
  -27.6047  -32.4310   25.7475 C   0  0  0  0  0  0
  -27.5600  -37.1746   24.8431 C   0  0  0  0  0  0
  -21.4152  -29.3034   22.3705 N   0  0  0  0  0  0
  -26.4250  -37.3814   23.9476 N   0  0  0  0  0  0
  -24.6719  -31.0771   22.0984 N   0  0  0  0  0  0
  -23.4192  -28.8202   23.3013 O   0  0  0  0  0  0
  -28.3836  -26.6480   20.1301 O   0  0  0  0  0  0
  -26.5614  -34.8940   22.4691 O   0  0  0  0  0  0
  -23.5352  -32.1417   23.7478 O   0  0  0  0  0  0
  -31.8835  -18.7351   21.4798 C   0  0  0  0  0  0
  -31.5950  -17.3541   21.4515 C   0  0  0  0  0  0
  -30.8826  -19.6821   21.1783 C   0  0  0  0  0  0
  -29.2916  -17.8533   20.8464 C   0  0  0  0  0  0
  -30.2981  -16.8926   21.1189 C   0  0  0  0  0  0
  -29.5829  -19.2400   20.8628 C   0  0  0  0  0  0
  -29.1551  -22.9987   21.1056 C   0  0  0  0  0  0
  -29.4639  -24.4100   20.5558 C   0  0  0  0  0  0
  -28.1862  -25.2172   20.2167 C   0  0  0  0  0  0
  -29.9734  -15.4964   21.0910 N   0  0  0  0  0  0
  -28.9871  -21.9650   20.1746 N   0  0  0  0  0  0
  -29.0532  -22.8096   22.3200 O   0  0  0  0  0  0
  -27.3304  -20.5016   21.5673 O   0  0  0  0  0  0
  -27.7368  -19.9848   19.1221 O   0  0  0  0  0  0
  -28.2645  -20.4050   20.4322 S   0  0  0  0  0  0
  -31.4699  -12.4173   19.1164 H   0  0  0  0  0  0
  -30.3338  -11.3041   19.8224 H   0  0  0  0  0  0
  -29.7359  -11.7736   17.4293 H   0  0  0  0  0  0
  -29.6611  -13.4857   17.7608 H   0  0  0  0  0  0
  -27.8269  -11.3069   18.8150 H   0  0  0  0  0  0
  -27.3669  -12.6344   17.7862 H   0  0  0  0  0  0
  -27.7033  -14.2519   19.5698 H   0  0  0  0  0  0
  -28.6832  -11.9610   21.3418 H   0  0  0  0  0  0
  -28.4648  -13.6003   21.8683 H   0  0  0  0  0  0
  -25.2761   -9.5690   22.4733 H   0  0  0  0  0  0
  -24.0005   -7.4632   22.7473 H   0  0  0  0  0  0
  -21.0830   -8.8758   19.8953 H   0  0  0  0  0  0
  -22.3680  -10.9658   19.6153 H   0  0  0  0  0  0
  -21.2002   -7.6146   23.9708 H   0  0  0  0  0  0
  -21.1464   -6.0522   25.9075 H   0  0  0  0  0  0
  -22.0608   -2.7603   23.2850 H   0  0  0  0  0  0
  -22.4150  -11.9876   22.4766 H   0  0  0  0  0  0
  -21.1138  -13.1237   22.2632 H   0  0  0  0  0  0
  -24.6639  -15.8408   20.5057 H   0  0  0  0  0  0
  -26.2793  -15.6206   20.0608 H   0  0  0  0  0  0
  -26.7121  -32.5513   23.1149 H   0  0  0  0  0  0
  -25.0060  -33.9781   25.0457 H   0  0  0  0  0  0
  -22.6959  -31.3105   21.4108 H   0  0  0  0  0  0
  -23.3779  -35.9581   23.3197 H   0  0  0  0  0  0
  -24.3610  -36.9003   22.2064 H   0  0  0  0  0  0
  -23.7151  -37.6443   23.6698 H   0  0  0  0  0  0
  -26.0556  -31.5957   20.5969 H   0  0  0  0  0  0
  -26.8238  -30.8760   21.9845 H   0  0  0  0  0  0
  -28.1046  -29.0860   21.1572 H   0  0  0  0  0  0
  -26.0067  -25.9782   18.9964 H   0  0  0  0  0  0
  -23.9692  -27.3058   19.0288 H   0  0  0  0  0  0
  -23.7237  -30.6041   19.4049 H   0  0  0  0  0  0
  -22.7375  -29.2486   19.8672 H   0  0  0  0  0  0
  -25.1246  -36.1928   25.0821 H   0  0  0  0  0  0
  -20.9983  -28.3225   24.1416 H   0  0  0  0  0  0
  -20.5677  -26.2284   23.3604 H   0  0  0  0  0  0
  -21.6634  -26.7438   22.1191 H   0  0  0  0  0  0
  -19.6910  -25.6305   21.1226 H   0  0  0  0  0  0
  -19.6678  -27.3214   20.6767 H   0  0  0  0  0  0
  -17.4199  -26.6675   21.4026 H   0  0  0  0  0  0
  -18.0315  -26.0056   22.9017 H   0  0  0  0  0  0
  -19.7942  -30.7265   24.2248 H   0  0  0  0  0  0
  -17.5025  -31.6265   24.5183 H   0  0  0  0  0  0
  -15.5353  -30.3006   23.7655 H   0  0  0  0  0  0
  -15.8665  -28.0846   22.7044 H   0  0  0  0  0  0
  -24.5902  -30.7078   25.7810 H   0  0  0  0  0  0
  -24.8964  -32.2881   26.4931 H   0  0  0  0  0  0
  -25.8087  -30.8866   27.0217 H   0  0  0  0  0  0
  -26.2832  -29.6792   24.1149 H   0  0  0  0  0  0
  -27.4065  -29.7257   25.4546 H   0  0  0  0  0  0
  -27.8677  -30.4344   23.9243 H   0  0  0  0  0  0
  -27.2661  -33.3606   26.2074 H   0  0  0  0  0  0
  -28.3850  -32.6873   25.0290 H   0  0  0  0  0  0
  -28.0728  -31.8419   26.5372 H   0  0  0  0  0  0
  -28.2457  -38.0201   24.7731 H   0  0  0  0  0  0
  -28.1244  -36.2756   24.5910 H   0  0  0  0  0  0
  -27.2377  -37.0970   25.8829 H   0  0  0  0  0  0
  -20.9309  -29.8763   21.6936 H   0  0  0  0  0  0
  -26.0117  -38.2841   24.1656 H   0  0  0  0  0  0
  -32.8804  -19.0685   21.7315 H   0  0  0  0  0  0
  -32.3833  -16.6542   21.6928 H   0  0  0  0  0  0
  -31.1154  -20.7358   21.1937 H   0  0  0  0  0  0
  -28.2874  -17.5412   20.5997 H   0  0  0  0  0  0
  -30.1162  -24.3428   19.6849 H   0  0  0  0  0  0
  -30.0314  -24.9388   21.3213 H   0  0  0  0  0  0
  -27.4260  -25.0143   20.9751 H   0  0  0  0  0  0
  -27.8046  -24.8379   19.2687 H   0  0  0  0  0  0
  -29.0247  -15.2479   21.3276 H   0  0  0  0  0  0
  -29.2411  -22.0999   19.1975 H   0  0  0  0  0  0
  1 25  1  0  0  0
  1 30  2  0  0  0
  1 80  1  0  0  0
  2  3  1  0  0  0
  2 25  1  0  0  0
  2 86  1  0  0  0
  2 87  1  0  0  0
  3  4  1  0  0  0
  3 88  1  0  0  0
  3 89  1  0  0  0
  4  5  1  0  0  0
  4 90  1  0  0  0
  4 91  1  0  0  0
  5  6  1  0  0  0
  5 26  1  0  0  0
  5 92  1  0  0  0
  6 25  1  0  0  0
  6 93  1  0  0  0
  6 94  1  0  0  0
  7  8  2  0  0  0
  7 26  1  0  0  0
  7 29  1  0  0  0
  8  9  1  0  0  0
  8 22  1  0  0  0
  9 10  1  0  0  0
  9 27  2  0  0  0
 10 11  2  0  0  0
 10 15  1  0  0  0
 11 12  1  0  0  0
 11 95  1  0  0  0
 12 13  2  0  0  0
 12 96  1  0  0  0
 13 14  1  0  0  0
 13 31  1  0  0  0
 14 15  2  0  0  0
 14 97  1  0  0  0
 15 98  1  0  0  0
 16 17  2  0  0  0
 16 21  1  0  0  0
 16 31  1  0  0  0
 17 18  1  0  0  0
 17 99  1  0  0  0
 18 19  2  0  0  0
 18100  1  0  0  0
 19 20  1  0  0  0
 19 24  1  0  0  0
 20 21  2  0  0  0
 20101  1  0  0  0
 21 23  1  0  0  0
 22 28  1  0  0  0
 22 32  2  0  0  0
 26 27  1  0  0  0
 28102  1  0  0  0
 28103  1  0  0  0
 29104  1  0  0  0
 29105  1  0  0  0
 33 34  1  0  0  0
 33 66  1  0  0  0
 33 70  2  0  0  0
 34 36  1  0  0  0
 34 59  1  0  0  0
 34106  1  0  0  0
 35 44  2  0  0  0
 35 45  1  0  0  0
 35 68  1  0  0  0
 36 56  1  0  0  0
 36107  1  0  0  0
 37 39  1  0  0  0
 37 47  1  0  0  0
 37 66  1  0  0  0
 37108  1  0  0  0
 38 43  2  0  0  0
 38 46  1  0  0  0
 38 47  1  0  0  0
 39 64  1  0  0  0
 39 67  2  0  0  0
 40 52  1  0  0  0
 40 53  2  0  0  0
 40 58  1  0  0  0
 41109  1  0  0  0
 41110  1  0  0  0
 41111  1  0  0  0
 41 48  1  0  0  0
 42 43  1  0  0  0
 42 66  1  0  0  0
 42112  1  0  0  0
 42113  1  0  0  0
 43 44  1  0  0  0
 44114  1  0  0  0
 45 46  2  0  0  0
 45115  1  0  0  0
 46116  1  0  0  0
 47117  1  0  0  0
 47118  1  0  0  0
 48 56  1  0  0  0
 48 65  1  0  0  0
 48119  1  0  0  0
 49 50  1  0  0  0
 49 53  1  0  0  0
 49 64  1  0  0  0
 49120  1  0  0  0
 50 51  1  0  0  0
 50121  1  0  0  0
 50122  1  0  0  0
 51 52  1  0  0  0
 51123  1  0  0  0
 51124  1  0  0  0
 52125  1  0  0  0
 52126  1  0  0  0
 53 54  1  0  0  0
 54 55  2  0  0  0
 54127  1  0  0  0
 55 57  1  0  0  0
 55128  1  0  0  0
 56 69  2  0  0  0
 57 58  2  0  0  0
 57129  1  0  0  0
 58130  1  0  0  0
 59 60  1  0  0  0
 59 61  1  0  0  0
 59 62  1  0  0  0
 60131  1  0  0  0
 60132  1  0  0  0
 60133  1  0  0  0
 61134  1  0  0  0
 61135  1  0  0  0
 61136  1  0  0  0
 62137  1  0  0  0
 62138  1  0  0  0
 62139  1  0  0  0
 63 65  1  0  0  0
 63140  1  0  0  0
 63141  1  0  0  0
 63142  1  0  0  0
 64143  1  0  0  0
 65144  1  0  0  0
 68 79  1  0  0  0
 71 72  2  0  0  0
 71 73  1  0  0  0
 71145  1  0  0  0
 72 75  1  0  0  0
 72146  1  0  0  0
 73 76  2  0  0  0
 73147  1  0  0  0
 74 75  2  0  0  0
 74 76  1  0  0  0
 74148  1  0  0  0
 75 80  1  0  0  0
 76 85  1  0  0  0
 77 78  1  0  0  0
 77 81  1  0  0  0
 77 82  2  0  0  0
 78 79  1  0  0  0
 78149  1  0  0  0
 78150  1  0  0  0
 79151  1  0  0  0
 79152  1  0  0  0
 80153  1  0  0  0
 81154  1  0  0  0
 81 85  1  0  0  0
 83 85  2  0  0  0
 84 85  2  0  0  0
M  ISO  4   1 100  68 101  79 101  80 100
M  END
> <chiral flag>
0

> <version>
0

> <s_m_source_file>
/data/baiqing/PycharmProjects/Reinvent-master-3.2/result/LINK_invent/BTK/process_docking_weight1_custom_product_contain_oxygen_bond_distance_aromatic_linkinvent_7_9_3/rearranged_h_0065.sdf

> <i_m_source_file_index>
29

> <r_mmod_Potential_Energy-OPLS-2005>
-247.503662109375

> <r_mmod_Stretch_Energy-OPLS-2005>
39.5038642883301

> <r_mmod_Bend_Energy-OPLS-2005>
101.673988342285

> <r_mmod_Torsional_Energy-OPLS-2005>
233.194000244141

> <r_mmod_Improper_Torsional_Energy-OPLS-2005>
4.02349853515625

> <r_mmod_Van_der_Waal_Energy-OPLS-2005>
147.248352050781

> <r_mmod_Electrostatic_Energy-OPLS-2005>
-519.123962402344

> <r_mmod_Solvation_Energy-OPLS-2005>
-269.683441162109

> <b_mmod_Minimization_Converged-OPLS-2005>
0

> <r_mmod_RMS_Derivative-OPLS-2005>
1.34659171104431

$$$$
29
                    3D
 Structure written by MMmdl.
160168  0  0  1  0            999 V2000
  -30.5624  -14.6439   20.5393 C   0  0  0  0  0  0
  -30.4457  -12.4094   19.4367 C   0  0  0  0  0  0
  -29.5007  -12.5151   18.2161 C   0  0  0  0  0  0
  -28.0208  -12.3574   18.6237 C   0  0  0  0  0  0
  -27.6521  -13.1966   19.8726 C   0  0  2  0  0  0
  -28.6944  -13.0091   20.9942 C   0  0  0  0  0  0
  -25.2560  -13.8137   20.5656 C   0  0  0  0  0  0
  -24.1818  -13.0433   20.9215 C   0  0  0  0  0  0
  -24.6371  -11.6896   20.8767 C   0  0  0  0  0  0
  -23.9033  -10.4294   21.0437 C   0  0  0  0  0  0
  -24.3610   -9.4207   21.9197 C   0  0  0  0  0  0
  -23.6301   -8.2227   22.0751 C   0  0  0  0  0  0
  -22.4260   -8.0269   21.3552 C   0  0  0  0  0  0
  -21.9903   -9.0242   20.4652 C   0  0  0  0  0  0
  -22.7227  -10.2128   20.3082 C   0  0  0  0  0  0
  -21.6843   -6.0732   22.5287 C   0  0  0  0  0  0
  -21.4008   -6.5649   23.8220 C   0  0  0  0  0  0
  -21.3658   -5.6796   24.9174 C   0  0  0  0  0  0
  -21.6053   -4.3058   24.7216 C   0  0  0  0  0  0
  -21.8824   -3.8158   23.4333 C   0  0  0  0  0  0
  -21.9198   -4.6971   22.3397 C   0  0  0  0  0  0
  -22.7858  -13.5249   21.1882 C   0  0  0  0  0  0
  -22.1676   -4.2157   21.0969 F   0  0  0  0  0  0
  -21.5621   -3.4544   25.7730 F   0  0  0  0  0  0
  -30.0046  -13.3957   20.4446 N   0  0  0  0  0  0
  -26.2964  -12.9262   20.3336 N   0  0  0  0  0  0
  -25.9286  -11.6443   20.5793 N   0  0  0  0  0  0
  -22.0524  -12.8228   22.0442 N   0  0  0  0  0  0
  -25.4346  -15.1828   20.3975 N   0  0  0  0  0  0
  -31.6975  -14.8797   20.1090 O   0  0  0  0  0  0
  -21.6639   -6.8859   21.4231 O   0  0  0  0  0  0
  -22.3547  -14.5552   20.6735 O   0  0  0  0  0  0
  -24.6215  -31.8600   23.1928 C   0  0  0  0  0  0
  -25.9048  -32.4797   23.8306 C   0  0  1  0  0  0
  -27.2379  -27.2777   20.1814 C   0  0  0  0  0  0
  -25.5835  -33.8592   24.2239 N   0  0  0  0  0  0
  -23.4237  -30.4755   21.5325 C   0  0  2  0  0  0
  -24.8771  -28.9049   20.1280 C   0  0  0  0  0  0
  -22.7464  -29.4662   22.4882 C   0  0  0  0  0  0
  -18.0306  -28.1457   22.8542 C   0  0  0  0  0  0
  -24.1456  -36.7257   23.2656 C   0  0  0  0  0  0
  -25.9635  -30.7790   21.3682 C   0  0  0  0  0  0
  -26.0412  -29.3944   20.7322 C   0  0  0  0  0  0
  -27.2245  -28.5961   20.7387 C   0  0  0  0  0  0
  -26.0519  -26.8318   19.5600 C   0  0  0  0  0  0
  -24.8869  -27.6312   19.5294 C   0  0  0  0  0  0
  -23.6463  -29.7910   20.1572 C   0  0  0  0  0  0
  -25.4103  -36.3078   24.0328 C   0  0  1  0  0  0
  -20.5901  -28.3743   23.1299 C   0  0  2  0  0  0
  -20.6796  -26.9450   22.5442 C   0  0  0  0  0  0
  -19.5758  -26.6444   21.5241 C   0  0  0  0  0  0
  -18.1938  -26.8036   22.1633 C   0  0  0  0  0  0
  -19.1572  -28.8924   23.2936 C   0  0  0  0  0  0
  -18.9505  -30.1526   23.8933 C   0  0  0  0  0  0
  -17.6513  -30.6655   24.0613 C   0  0  0  0  0  0
  -25.9051  -34.9454   23.5103 C   0  0  0  0  0  0
  -16.5390  -29.9173   23.6358 C   0  0  0  0  0  0
  -16.7316  -28.6597   23.0392 C   0  0  0  0  0  0
  -26.4438  -31.6623   25.0690 C   0  0  0  0  0  0
  -25.3677  -31.3802   26.1436 C   0  0  0  0  0  0
  -27.0316  -30.3062   24.6152 C   0  0  0  0  0  0
  -27.5998  -32.4379   25.7464 C   0  0  0  0  0  0
  -27.5562  -37.1777   24.8477 C   0  0  0  0  0  0
  -21.4183  -29.3081   22.3665 N   0  0  0  0  0  0
  -26.4270  -37.3764   23.9416 N   0  0  0  0  0  0
  -24.6886  -31.0602   22.0868 N   0  0  0  0  0  0
  -23.4206  -28.8235   23.2970 O   0  0  0  0  0  0
  -28.4025  -26.4880   20.1433 O   0  0  0  0  0  0
  -26.5653  -34.8949   22.4695 O   0  0  0  0  0  0
  -23.5378  -32.1400   23.7237 O   0  0  0  0  0  0
  -28.1212  -18.8145   19.8445 C   0  0  0  0  0  0
  -30.2217  -18.0756   21.5165 C   0  0  0  0  0  0
  -28.7407  -19.8613   20.5779 C   0  0  0  0  0  0
  -29.5788  -17.0345   20.7848 C   0  0  0  0  0  0
  -28.5208  -17.4541   19.9406 C   0  0  0  0  0  0
  -29.8211  -19.4533   21.4190 C   0  0  0  0  0  0
  -28.0829  -21.2646   20.5575 C   0  0  0  0  0  0
  -26.8640  -24.9201   22.6733 C   0  0  0  0  0  0
  -29.2094  -24.0816   23.0146 C   0  0  0  0  0  0
  -28.1170  -23.7844   19.9893 C   0  0  0  0  0  0
  -28.3390  -25.1155   22.2749 C   0  0  0  0  0  0
  -28.5784  -25.1241   20.7374 C   0  0  2  0  0  0
  -29.7446  -15.6061   21.0711 N   0  0  0  0  0  0
  -28.7514  -22.4447   20.3583 N   0  0  0  0  0  0
  -26.8541  -21.2922   20.6452 O   0  0  0  0  0  0
  -27.8157  -16.5289   19.2504 F   0  0  0  0  0  0
  -30.4439  -20.3695   22.1981 F   0  0  0  0  0  0
  -31.4774  -12.5840   19.1233 H   0  0  0  0  0  0
  -30.4278  -11.4024   19.8587 H   0  0  0  0  0  0
  -29.7609  -11.7581   17.4734 H   0  0  0  0  0  0
  -29.6423  -13.4812   17.7281 H   0  0  0  0  0  0
  -27.8337  -11.3021   18.8185 H   0  0  0  0  0  0
  -27.3722  -12.6311   17.7906 H   0  0  0  0  0  0
  -27.6833  -14.2346   19.5593 H   0  0  0  0  0  0
  -28.7168  -11.9701   21.3188 H   0  0  0  0  0  0
  -28.4263  -13.5813   21.8844 H   0  0  0  0  0  0
  -25.2752   -9.5669   22.4780 H   0  0  0  0  0  0
  -24.0024   -7.4596   22.7458 H   0  0  0  0  0  0
  -21.0838   -8.8766   19.8950 H   0  0  0  0  0  0
  -22.3698  -10.9672   19.6205 H   0  0  0  0  0  0
  -21.2002   -7.6164   23.9716 H   0  0  0  0  0  0
  -21.1477   -6.0527   25.9070 H   0  0  0  0  0  0
  -22.0605   -2.7623   23.2832 H   0  0  0  0  0  0
  -22.4160  -11.9877   22.4791 H   0  0  0  0  0  0
  -21.1172  -13.1267   22.2729 H   0  0  0  0  0  0
  -24.6650  -15.8360   20.4686 H   0  0  0  0  0  0
  -26.2663  -15.5949   19.9879 H   0  0  0  0  0  0
  -26.7129  -32.5469   23.1069 H   0  0  0  0  0  0
  -24.9891  -33.9743   25.0329 H   0  0  0  0  0  0
  -22.7170  -31.2946   21.3760 H   0  0  0  0  0  0
  -23.3734  -35.9569   23.3338 H   0  0  0  0  0  0
  -24.3532  -36.8856   22.2068 H   0  0  0  0  0  0
  -23.7202  -37.6454   23.6686 H   0  0  0  0  0  0
  -26.0972  -31.5285   20.5865 H   0  0  0  0  0  0
  -26.8424  -30.8436   21.9996 H   0  0  0  0  0  0
  -28.1230  -28.9847   21.1967 H   0  0  0  0  0  0
  -26.0282  -25.8542   19.0993 H   0  0  0  0  0  0
  -23.9923  -27.2516   19.0555 H   0  0  0  0  0  0
  -23.7761  -30.5540   19.3870 H   0  0  0  0  0  0
  -22.7662  -29.2189   19.8588 H   0  0  0  0  0  0
  -25.1289  -36.1885   25.0810 H   0  0  0  0  0  0
  -21.0033  -28.3340   24.1404 H   0  0  0  0  0  0
  -20.5690  -26.2348   23.3653 H   0  0  0  0  0  0
  -21.6674  -26.7510   22.1207 H   0  0  0  0  0  0
  -19.6877  -25.6353   21.1266 H   0  0  0  0  0  0
  -19.6690  -27.3296   20.6795 H   0  0  0  0  0  0
  -17.4215  -26.6861   21.4002 H   0  0  0  0  0  0
  -18.0263  -26.0183   22.9007 H   0  0  0  0  0  0
  -19.7996  -30.7358   24.2251 H   0  0  0  0  0  0
  -17.5097  -31.6316   24.5265 H   0  0  0  0  0  0
  -15.5411  -30.3107   23.7701 H   0  0  0  0  0  0
  -15.8705  -28.0937   22.7078 H   0  0  0  0  0  0
  -24.5741  -30.7292   25.7727 H   0  0  0  0  0  0
  -24.9026  -32.3032   26.4909 H   0  0  0  0  0  0
  -25.7963  -30.8883   27.0176 H   0  0  0  0  0  0
  -26.2931  -29.6782   24.1175 H   0  0  0  0  0  0
  -27.4055  -29.7304   25.4613 H   0  0  0  0  0  0
  -27.8728  -30.4352   23.9359 H   0  0  0  0  0  0
  -27.2577  -33.3662   26.2047 H   0  0  0  0  0  0
  -28.3797  -32.6978   25.0289 H   0  0  0  0  0  0
  -28.0686  -31.8528   26.5378 H   0  0  0  0  0  0
  -28.2592  -38.0068   24.7551 H   0  0  0  0  0  0
  -28.1060  -36.2607   24.6282 H   0  0  0  0  0  0
  -27.2314  -37.1410   25.8894 H   0  0  0  0  0  0
  -20.9349  -29.8767   21.6843 H   0  0  0  0  0  0
  -26.0136  -38.2806   24.1480 H   0  0  0  0  0  0
  -27.2662  -19.0464   19.2239 H   0  0  0  0  0  0
  -30.9893  -17.8093   22.2272 H   0  0  0  0  0  0
  -26.7237  -25.0720   23.7432 H   0  0  0  0  0  0
  -26.5245  -23.9094   22.4452 H   0  0  0  0  0  0
  -26.2028  -25.6135   22.1609 H   0  0  0  0  0  0
  -29.1526  -24.2296   24.0919 H   0  0  0  0  0  0
  -30.2599  -24.1461   22.7269 H   0  0  0  0  0  0
  -28.8774  -23.0609   22.8265 H   0  0  0  0  0  0
  -28.3341  -23.9223   18.9313 H   0  0  0  0  0  0
  -27.0305  -23.7108   20.0418 H   0  0  0  0  0  0
  -28.6621  -26.0910   22.6446 H   0  0  0  0  0  0
  -29.6630  -25.0666   20.6475 H   0  0  0  0  0  0
  -28.8864  -15.1763   21.3839 H   0  0  0  0  0  0
  -29.7597  -22.3882   20.3248 H   0  0  0  0  0  0
  1 25  1  0  0  0
  1 30  2  0  0  0
  1 83  1  0  0  0
  2  3  1  0  0  0
  2 25  1  0  0  0
  2 88  1  0  0  0
  2 89  1  0  0  0
  3  4  1  0  0  0
  3 90  1  0  0  0
  3 91  1  0  0  0
  4  5  1  0  0  0
  4 92  1  0  0  0
  4 93  1  0  0  0
  5  6  1  0  0  0
  5 26  1  0  0  0
  5 94  1  0  0  0
  6 25  1  0  0  0
  6 95  1  0  0  0
  6 96  1  0  0  0
  7  8  2  0  0  0
  7 26  1  0  0  0
  7 29  1  0  0  0
  8  9  1  0  0  0
  8 22  1  0  0  0
  9 10  1  0  0  0
  9 27  2  0  0  0
 10 11  2  0  0  0
 10 15  1  0  0  0
 11 12  1  0  0  0
 11 97  1  0  0  0
 12 13  2  0  0  0
 12 98  1  0  0  0
 13 14  1  0  0  0
 13 31  1  0  0  0
 14 15  2  0  0  0
 14 99  1  0  0  0
 15100  1  0  0  0
 16 17  2  0  0  0
 16 21  1  0  0  0
 16 31  1  0  0  0
 17 18  1  0  0  0
 17101  1  0  0  0
 18 19  2  0  0  0
 18102  1  0  0  0
 19 20  1  0  0  0
 19 24  1  0  0  0
 20 21  2  0  0  0
 20103  1  0  0  0
 21 23  1  0  0  0
 22 28  1  0  0  0
 22 32  2  0  0  0
 26 27  1  0  0  0
 28104  1  0  0  0
 28105  1  0  0  0
 29106  1  0  0  0
 29107  1  0  0  0
 33 34  1  0  0  0
 33 66  1  0  0  0
 33 70  2  0  0  0
 34 36  1  0  0  0
 34 59  1  0  0  0
 34108  1  0  0  0
 35 44  2  0  0  0
 35 45  1  0  0  0
 35 68  1  0  0  0
 36 56  1  0  0  0
 36109  1  0  0  0
 37 39  1  0  0  0
 37 47  1  0  0  0
 37 66  1  0  0  0
 37110  1  0  0  0
 38 43  2  0  0  0
 38 46  1  0  0  0
 38 47  1  0  0  0
 39 64  1  0  0  0
 39 67  2  0  0  0
 40 52  1  0  0  0
 40 53  2  0  0  0
 40 58  1  0  0  0
 41111  1  0  0  0
 41112  1  0  0  0
 41113  1  0  0  0
 41 48  1  0  0  0
 42 43  1  0  0  0
 42 66  1  0  0  0
 42114  1  0  0  0
 42115  1  0  0  0
 43 44  1  0  0  0
 44116  1  0  0  0
 45 46  2  0  0  0
 45117  1  0  0  0
 46118  1  0  0  0
 47119  1  0  0  0
 47120  1  0  0  0
 48 56  1  0  0  0
 48 65  1  0  0  0
 48121  1  0  0  0
 49 50  1  0  0  0
 49 53  1  0  0  0
 49 64  1  0  0  0
 49122  1  0  0  0
 50 51  1  0  0  0
 50123  1  0  0  0
 50124  1  0  0  0
 51 52  1  0  0  0
 51125  1  0  0  0
 51126  1  0  0  0
 52127  1  0  0  0
 52128  1  0  0  0
 53 54  1  0  0  0
 54 55  2  0  0  0
 54129  1  0  0  0
 55 57  1  0  0  0
 55130  1  0  0  0
 56 69  2  0  0  0
 57 58  2  0  0  0
 57131  1  0  0  0
 58132  1  0  0  0
 59 60  1  0  0  0
 59 61  1  0  0  0
 59 62  1  0  0  0
 60133  1  0  0  0
 60134  1  0  0  0
 60135  1  0  0  0
 61136  1  0  0  0
 61137  1  0  0  0
 61138  1  0  0  0
 62139  1  0  0  0
 62140  1  0  0  0
 62141  1  0  0  0
 63 65  1  0  0  0
 63142  1  0  0  0
 63143  1  0  0  0
 63144  1  0  0  0
 64145  1  0  0  0
 65146  1  0  0  0
 68 82  1  0  0  0
 71 73  2  0  0  0
 71 75  1  0  0  0
 71147  1  0  0  0
 72 74  1  0  0  0
 72 76  2  0  0  0
 72148  1  0  0  0
 73 76  1  0  0  0
 73 77  1  0  0  0
 74 75  2  0  0  0
 74 83  1  0  0  0
 75 86  1  0  0  0
 76 87  1  0  0  0
 77 84  1  0  0  0
 77 85  2  0  0  0
 78149  1  0  0  0
 78150  1  0  0  0
 78151  1  0  0  0
 78 81  1  0  0  0
 79 81  1  0  0  0
 79152  1  0  0  0
 79153  1  0  0  0
 79154  1  0  0  0
 80 84  1  0  0  0
 80155  1  0  0  0
 80156  1  0  0  0
 80 82  1  0  0  0
 81 82  1  0  0  0
 81157  1  0  0  0
 82158  1  0  0  0
 83159  1  0  0  0
 84160  1  0  0  0
M  ISO  4   1 100  68 101  82 101  83 100
M  END
> <chiral flag>
0

> <version>
0

> <s_m_source_file>
/data/baiqing/PycharmProjects/Reinvent-master-3.2/result/LINK_invent/BTK/process_docking_weight1_custom_product_contain_oxygen_bond_distance_aromatic_linkinvent_7_9_3/rearranged_h_0065.sdf

> <i_m_source_file_index>
30

> <r_mmod_Potential_Energy-OPLS-2005>
54.5042343139648

> <r_mmod_Stretch_Energy-OPLS-2005>
90.1848907470703

> <r_mmod_Bend_Energy-OPLS-2005>
185.7314453125

> <r_mmod_Torsional_Energy-OPLS-2005>
287.762359619141

> <r_mmod_Improper_Torsional_Energy-OPLS-2005>
9.44236183166504

> <r_mmod_Van_der_Waal_Energy-OPLS-2005>
129.14860534668

> <r_mmod_Electrostatic_Energy-OPLS-2005>
-491.142181396484

> <r_mmod_Solvation_Energy-OPLS-2005>
-212.023834228516

> <b_mmod_Minimization_Converged-OPLS-2005>
0

> <r_mmod_RMS_Derivative-OPLS-2005>
5.84245777130127

$$$$
30
                    3D
 Structure written by MMmdl.
161170  0  0  1  0            999 V2000
  -30.6215  -14.7099   20.4480 C   0  0  0  0  0  0
  -30.4275  -12.4265   19.4780 C   0  0  0  0  0  0
  -29.5130  -12.5114   18.2349 C   0  0  0  0  0  0
  -28.0354  -12.3488   18.6415 C   0  0  0  0  0  0
  -27.6471  -13.2337   19.8565 C   0  0  2  0  0  0
  -28.6887  -13.1474   20.9947 C   0  0  0  0  0  0
  -25.2536  -13.8197   20.5694 C   0  0  0  0  0  0
  -24.1811  -13.0445   20.9186 C   0  0  0  0  0  0
  -24.6396  -11.6922   20.8728 C   0  0  0  0  0  0
  -23.9073  -10.4293   21.0399 C   0  0  0  0  0  0
  -24.3617   -9.4211   21.9183 C   0  0  0  0  0  0
  -23.6286   -8.2248   22.0767 C   0  0  0  0  0  0
  -22.4262   -8.0288   21.3562 C   0  0  0  0  0  0
  -21.9901   -9.0264   20.4667 C   0  0  0  0  0  0
  -22.7243  -10.2133   20.3065 C   0  0  0  0  0  0
  -21.6856   -6.0732   22.5276 C   0  0  0  0  0  0
  -21.4019   -6.5633   23.8207 C   0  0  0  0  0  0
  -21.3659   -5.6791   24.9171 C   0  0  0  0  0  0
  -21.6041   -4.3056   24.7222 C   0  0  0  0  0  0
  -21.8819   -3.8143   23.4343 C   0  0  0  0  0  0
  -21.9192   -4.6956   22.3402 C   0  0  0  0  0  0
  -22.7833  -13.5236   21.1832 C   0  0  0  0  0  0
  -22.1664   -4.2152   21.0980 F   0  0  0  0  0  0
  -21.5625   -3.4539   25.7730 F   0  0  0  0  0  0
  -29.9986  -13.4833   20.4242 N   0  0  0  0  0  0
  -26.2959  -12.9411   20.3280 N   0  0  0  0  0  0
  -25.9331  -11.6550   20.5724 N   0  0  0  0  0  0
  -22.0465  -12.8253   22.0388 N   0  0  0  0  0  0
  -25.4241  -15.1927   20.4148 N   0  0  0  0  0  0
  -31.7994  -14.8066   20.0922 O   0  0  0  0  0  0
  -21.6643   -6.8872   21.4241 O   0  0  0  0  0  0
  -22.3518  -14.5537   20.6677 O   0  0  0  0  0  0
  -24.6299  -31.8573   23.1996 C   0  0  0  0  0  0
  -25.9126  -32.4763   23.8333 C   0  0  1  0  0  0
  -27.2040  -27.2660   20.1222 C   0  0  0  0  0  0
  -25.5923  -33.8562   24.2256 N   0  0  0  0  0  0
  -23.4241  -30.4827   21.5449 C   0  0  2  0  0  0
  -24.8663  -28.9352   20.1077 C   0  0  0  0  0  0
  -22.7491  -29.4619   22.4927 C   0  0  0  0  0  0
  -18.0295  -28.1388   22.8492 C   0  0  0  0  0  0
  -24.1493  -36.7291   23.2634 C   0  0  0  0  0  0
  -25.9703  -30.7719   21.3773 C   0  0  0  0  0  0
  -26.0397  -29.3950   20.7202 C   0  0  0  0  0  0
  -27.2107  -28.5711   20.7207 C   0  0  0  0  0  0
  -26.0082  -26.8809   19.4730 C   0  0  0  0  0  0
  -24.8555  -27.6859   19.4743 C   0  0  0  0  0  0
  -23.6381  -29.8217   20.1591 C   0  0  0  0  0  0
  -25.4114  -36.3072   24.0324 C   0  0  1  0  0  0
  -20.5896  -28.3699   23.1285 C   0  0  2  0  0  0
  -20.6791  -26.9422   22.5415 C   0  0  0  0  0  0
  -19.5758  -26.6389   21.5225 C   0  0  0  0  0  0
  -18.1937  -26.7932   22.1634 C   0  0  0  0  0  0
  -19.1546  -28.8862   23.2886 C   0  0  0  0  0  0
  -18.9465  -30.1463   23.8906 C   0  0  0  0  0  0
  -17.6462  -30.6592   24.0562 C   0  0  0  0  0  0
  -25.9057  -34.9442   23.5098 C   0  0  0  0  0  0
  -16.5356  -29.9089   23.6326 C   0  0  0  0  0  0
  -16.7282  -28.6504   23.0356 C   0  0  0  0  0  0
  -26.4487  -31.6566   25.0708 C   0  0  0  0  0  0
  -25.3706  -31.3721   26.1423 C   0  0  0  0  0  0
  -27.0304  -30.2976   24.6166 C   0  0  0  0  0  0
  -27.6042  -32.4294   25.7490 C   0  0  0  0  0  0
  -27.5582  -37.1801   24.8459 C   0  0  0  0  0  0
  -21.4203  -29.3043   22.3670 N   0  0  0  0  0  0
  -26.4289  -37.3771   23.9411 N   0  0  0  0  0  0
  -24.6944  -31.0546   22.0972 N   0  0  0  0  0  0
  -23.4205  -28.8156   23.3014 O   0  0  0  0  0  0
  -28.2891  -26.3611   20.1899 O   0  0  0  0  0  0
  -26.5643  -34.8917   22.4677 O   0  0  0  0  0  0
  -23.5450  -32.1396   23.7295 O   0  0  0  0  0  0
  -29.6374  -18.4613   20.6887 C   0  0  0  0  0  0
  -30.3643  -17.2440   18.7203 C   0  0  0  0  0  0
  -30.2209  -19.7043   18.6639 C   0  0  0  0  0  0
  -29.7590  -19.7540   20.0138 C   0  0  0  0  0  0
  -29.9739  -17.1849   20.0743 C   0  0  0  0  0  0
  -30.4771  -18.4648   18.0343 C   0  0  0  0  0  0
  -30.2971  -21.3653   21.7868 C   0  0  0  0  0  0
  -30.4059  -22.8056   22.3281 C   0  0  0  0  0  0
  -29.2876  -23.7816   21.9309 C   0  0  0  0  0  0
  -28.6788  -22.2013   20.1019 C   0  0  0  0  0  0
  -29.0416  -23.7399   20.4264 C   0  0  1  0  0  0
  -30.5405  -20.9580   17.8586 C   0  0  0  0  0  0
  -28.0144  -24.8993   19.9780 C   0  0  0  0  0  0
  -29.5659  -21.0865   20.6698 N   0  0  0  0  0  0
  -29.8681  -15.8466   20.7075 N   0  0  0  0  0  0
  -30.9420  -20.5054   22.3964 O   0  0  0  0  0  0
  -30.8699  -18.4366   16.7374 F   0  0  0  0  0  0
  -31.4732  -12.5289   19.1822 H   0  0  0  0  0  0
  -30.3475  -11.4434   19.9455 H   0  0  0  0  0  0
  -29.7869  -11.7452   17.5086 H   0  0  0  0  0  0
  -29.6573  -13.4712   17.7339 H   0  0  0  0  0  0
  -27.8712  -11.2982   18.8821 H   0  0  0  0  0  0
  -27.3849  -12.5706   17.7948 H   0  0  0  0  0  0
  -27.6517  -14.2609   19.4917 H   0  0  0  0  0  0
  -28.7077  -12.1473   21.4302 H   0  0  0  0  0  0
  -28.4282  -13.8268   21.8073 H   0  0  0  0  0  0
  -25.2765   -9.5681   22.4754 H   0  0  0  0  0  0
  -24.0006   -7.4624   22.7476 H   0  0  0  0  0  0
  -21.0837   -8.8782   19.8958 H   0  0  0  0  0  0
  -22.3714  -10.9668   19.6167 H   0  0  0  0  0  0
  -21.2023   -7.6142   23.9712 H   0  0  0  0  0  0
  -21.1480   -6.0520   25.9073 H   0  0  0  0  0  0
  -22.0599   -2.7608   23.2844 H   0  0  0  0  0  0
  -22.4079  -11.9933   22.4816 H   0  0  0  0  0  0
  -21.1084  -13.1303   22.2554 H   0  0  0  0  0  0
  -24.6579  -15.8464   20.5274 H   0  0  0  0  0  0
  -26.2736  -15.6328   20.0848 H   0  0  0  0  0  0
  -26.7192  -32.5415   23.1074 H   0  0  0  0  0  0
  -25.0028  -33.9699   25.0374 H   0  0  0  0  0  0
  -22.7192  -31.3046   21.4035 H   0  0  0  0  0  0
  -23.3753  -35.9625   23.3278 H   0  0  0  0  0  0
  -24.3600  -36.8933   22.2055 H   0  0  0  0  0  0
  -23.7247  -37.6486   23.6674 H   0  0  0  0  0  0
  -26.1036  -31.5288   20.6027 H   0  0  0  0  0  0
  -26.8512  -30.8246   22.0060 H   0  0  0  0  0  0
  -28.1040  -28.9097   21.2261 H   0  0  0  0  0  0
  -25.9224  -25.9290   18.9710 H   0  0  0  0  0  0
  -23.9562  -27.3305   18.9888 H   0  0  0  0  0  0
  -23.7597  -30.5990   19.4036 H   0  0  0  0  0  0
  -22.7551  -29.2550   19.8573 H   0  0  0  0  0  0
  -25.1292  -36.1920   25.0814 H   0  0  0  0  0  0
  -20.9998  -28.3281   24.1402 H   0  0  0  0  0  0
  -20.5724  -26.2305   23.3616 H   0  0  0  0  0  0
  -21.6655  -26.7469   22.1187 H   0  0  0  0  0  0
  -19.6920  -25.6300   21.1253 H   0  0  0  0  0  0
  -19.6683  -27.3208   20.6760 H   0  0  0  0  0  0
  -17.4207  -26.6691   21.4032 H   0  0  0  0  0  0
  -18.0326  -26.0077   22.9033 H   0  0  0  0  0  0
  -19.7941  -30.7281   24.2277 H   0  0  0  0  0  0
  -17.5017  -31.6277   24.5155 H   0  0  0  0  0  0
  -15.5355  -30.2994   23.7640 H   0  0  0  0  0  0
  -15.8686  -28.0822   22.7068 H   0  0  0  0  0  0
  -24.5901  -30.7041   25.7764 H   0  0  0  0  0  0
  -24.8866  -32.2885   26.4805 H   0  0  0  0  0  0
  -25.8014  -30.8940   27.0227 H   0  0  0  0  0  0
  -26.2865  -29.6757   24.1169 H   0  0  0  0  0  0
  -27.3962  -29.7204   25.4667 H   0  0  0  0  0  0
  -27.8763  -30.4241   23.9406 H   0  0  0  0  0  0
  -27.2650  -33.3607   26.2039 H   0  0  0  0  0  0
  -28.3868  -32.6822   25.0325 H   0  0  0  0  0  0
  -28.0681  -31.8425   26.5429 H   0  0  0  0  0  0
  -28.2577  -38.0119   24.7519 H   0  0  0  0  0  0
  -28.1098  -36.2648   24.6256 H   0  0  0  0  0  0
  -27.2309  -37.1421   25.8865 H   0  0  0  0  0  0
  -20.9386  -29.8761   21.6873 H   0  0  0  0  0  0
  -26.0160  -38.2843   24.1414 H   0  0  0  0  0  0
  -29.3181  -18.4557   21.7220 H   0  0  0  0  0  0
  -30.5893  -16.3398   18.1736 H   0  0  0  0  0  0
  -31.3570  -23.2002   21.9690 H   0  0  0  0  0  0
  -30.4841  -22.7694   23.4152 H   0  0  0  0  0  0
  -29.5649  -24.7924   22.2334 H   0  0  0  0  0  0
  -28.3716  -23.5397   22.4724 H   0  0  0  0  0  0
  -28.5436  -22.0894   19.0309 H   0  0  0  0  0  0
  -27.6827  -22.0104   20.5041 H   0  0  0  0  0  0
  -29.9833  -23.9622   19.9227 H   0  0  0  0  0  0
  -29.6590  -21.3109   17.3251 H   0  0  0  0  0  0
  -31.3032  -20.7553   17.1067 H   0  0  0  0  0  0
  -30.9334  -21.7593   18.4848 H   0  0  0  0  0  0
  -27.0654  -24.6558   20.4585 H   0  0  0  0  0  0
  -27.8492  -24.7686   18.9080 H   0  0  0  0  0  0
  -29.0160  -15.6792   21.2218 H   0  0  0  0  0  0
  1 25  1  0  0  0
  1 30  2  0  0  0
  1 85  1  0  0  0
  2  3  1  0  0  0
  2 25  1  0  0  0
  2 88  1  0  0  0
  2 89  1  0  0  0
  3  4  1  0  0  0
  3 90  1  0  0  0
  3 91  1  0  0  0
  4  5  1  0  0  0
  4 92  1  0  0  0
  4 93  1  0  0  0
  5  6  1  0  0  0
  5 26  1  0  0  0
  5 94  1  0  0  0
  6 25  1  0  0  0
  6 95  1  0  0  0
  6 96  1  0  0  0
  7  8  2  0  0  0
  7 26  1  0  0  0
  7 29  1  0  0  0
  8  9  1  0  0  0
  8 22  1  0  0  0
  9 10  1  0  0  0
  9 27  2  0  0  0
 10 11  2  0  0  0
 10 15  1  0  0  0
 11 12  1  0  0  0
 11 97  1  0  0  0
 12 13  2  0  0  0
 12 98  1  0  0  0
 13 14  1  0  0  0
 13 31  1  0  0  0
 14 15  2  0  0  0
 14 99  1  0  0  0
 15100  1  0  0  0
 16 17  2  0  0  0
 16 21  1  0  0  0
 16 31  1  0  0  0
 17 18  1  0  0  0
 17101  1  0  0  0
 18 19  2  0  0  0
 18102  1  0  0  0
 19 20  1  0  0  0
 19 24  1  0  0  0
 20 21  2  0  0  0
 20103  1  0  0  0
 21 23  1  0  0  0
 22 28  1  0  0  0
 22 32  2  0  0  0
 26 27  1  0  0  0
 28104  1  0  0  0
 28105  1  0  0  0
 29106  1  0  0  0
 29107  1  0  0  0
 33 34  1  0  0  0
 33 66  1  0  0  0
 33 70  2  0  0  0
 34 36  1  0  0  0
 34 59  1  0  0  0
 34108  1  0  0  0
 35 44  2  0  0  0
 35 45  1  0  0  0
 35 68  1  0  0  0
 36 56  1  0  0  0
 36109  1  0  0  0
 37 39  1  0  0  0
 37 47  1  0  0  0
 37 66  1  0  0  0
 37110  1  0  0  0
 38 43  2  0  0  0
 38 46  1  0  0  0
 38 47  1  0  0  0
 39 64  1  0  0  0
 39 67  2  0  0  0
 40 52  1  0  0  0
 40 53  2  0  0  0
 40 58  1  0  0  0
 41111  1  0  0  0
 41112  1  0  0  0
 41113  1  0  0  0
 41 48  1  0  0  0
 42 43  1  0  0  0
 42 66  1  0  0  0
 42114  1  0  0  0
 42115  1  0  0  0
 43 44  1  0  0  0
 44116  1  0  0  0
 45 46  2  0  0  0
 45117  1  0  0  0
 46118  1  0  0  0
 47119  1  0  0  0
 47120  1  0  0  0
 48 56  1  0  0  0
 48 65  1  0  0  0
 48121  1  0  0  0
 49 50  1  0  0  0
 49 53  1  0  0  0
 49 64  1  0  0  0
 49122  1  0  0  0
 50 51  1  0  0  0
 50123  1  0  0  0
 50124  1  0  0  0
 51 52  1  0  0  0
 51125  1  0  0  0
 51126  1  0  0  0
 52127  1  0  0  0
 52128  1  0  0  0
 53 54  1  0  0  0
 54 55  2  0  0  0
 54129  1  0  0  0
 55 57  1  0  0  0
 55130  1  0  0  0
 56 69  2  0  0  0
 57 58  2  0  0  0
 57131  1  0  0  0
 58132  1  0  0  0
 59 60  1  0  0  0
 59 61  1  0  0  0
 59 62  1  0  0  0
 60133  1  0  0  0
 60134  1  0  0  0
 60135  1  0  0  0
 61136  1  0  0  0
 61137  1  0  0  0
 61138  1  0  0  0
 62139  1  0  0  0
 62140  1  0  0  0
 62141  1  0  0  0
 63 65  1  0  0  0
 63142  1  0  0  0
 63143  1  0  0  0
 63144  1  0  0  0
 64145  1  0  0  0
 65146  1  0  0  0
 68 83  1  0  0  0
 71 74  2  0  0  0
 71 75  1  0  0  0
 71147  1  0  0  0
 72 75  2  0  0  0
 72 76  1  0  0  0
 72148  1  0  0  0
 73 74  1  0  0  0
 73 76  2  0  0  0
 73 82  1  0  0  0
 74 84  1  0  0  0
 75 85  1  0  0  0
 76 87  1  0  0  0
 77 78  1  0  0  0
 77 84  1  0  0  0
 77 86  2  0  0  0
 78 79  1  0  0  0
 78149  1  0  0  0
 78150  1  0  0  0
 79 81  1  0  0  0
 79151  1  0  0  0
 79152  1  0  0  0
 80 81  1  0  0  0
 80 84  1  0  0  0
 80153  1  0  0  0
 80154  1  0  0  0
 81 83  1  0  0  0
 81155  1  0  0  0
 82156  1  0  0  0
 82157  1  0  0  0
 82158  1  0  0  0
 83159  1  0  0  0
 83160  1  0  0  0
 85161  1  0  0  0
M  ISO  4   1 100  68 101  83 101  85 100
M  END
> <chiral flag>
0

> <version>
0

> <s_m_source_file>
/data/baiqing/PycharmProjects/Reinvent-master-3.2/result/LINK_invent/BTK/process_docking_weight1_custom_product_contain_oxygen_bond_distance_aromatic_linkinvent_7_9_3/rearranged_h_0065.sdf

> <i_m_source_file_index>
31

> <r_mmod_Potential_Energy-OPLS-2005>
273.921752929688

> <r_mmod_Stretch_Energy-OPLS-2005>
127.068992614746

> <r_mmod_Bend_Energy-OPLS-2005>
157.981552124023

> <r_mmod_Torsional_Energy-OPLS-2005>
299.729461669922

> <r_mmod_Improper_Torsional_Energy-OPLS-2005>
5.44664430618286

> <r_mmod_Van_der_Waal_Energy-OPLS-2005>
159.294540405273

> <r_mmod_Electrostatic_Energy-OPLS-2005>
-329.938140869141

> <r_mmod_Solvation_Energy-OPLS-2005>
-223.06657409668

> <b_mmod_Minimization_Converged-OPLS-2005>
0

> <r_mmod_RMS_Derivative-OPLS-2005>
1.95203173160553

$$$$
31
                    3D
 Structure written by MMmdl.
155163  0  0  1  0            999 V2000
  -30.7257  -14.4647   20.5999 C   0  0  0  0  0  0
  -30.4203  -12.3162   19.4206 C   0  0  0  0  0  0
  -29.4926  -12.5181   18.2057 C   0  0  0  0  0  0
  -28.0152  -12.3714   18.6182 C   0  0  0  0  0  0
  -27.6608  -13.2104   19.8747 C   0  0  2  0  0  0
  -28.7033  -12.9995   20.9964 C   0  0  0  0  0  0
  -25.2589  -13.8170   20.5679 C   0  0  0  0  0  0
  -24.1848  -13.0443   20.9182 C   0  0  0  0  0  0
  -24.6406  -11.6911   20.8740 C   0  0  0  0  0  0
  -23.9074  -10.4297   21.0411 C   0  0  0  0  0  0
  -24.3626   -9.4211   21.9189 C   0  0  0  0  0  0
  -23.6306   -8.2244   22.0759 C   0  0  0  0  0  0
  -22.4284   -8.0284   21.3547 C   0  0  0  0  0  0
  -21.9925   -9.0253   20.4642 C   0  0  0  0  0  0
  -22.7252  -10.2134   20.3057 C   0  0  0  0  0  0
  -21.6854   -6.0741   22.5283 C   0  0  0  0  0  0
  -21.4003   -6.5643   23.8214 C   0  0  0  0  0  0
  -21.3655   -5.6798   24.9177 C   0  0  0  0  0  0
  -21.6046   -4.3062   24.7227 C   0  0  0  0  0  0
  -21.8823   -3.8155   23.4347 C   0  0  0  0  0  0
  -21.9192   -4.6970   22.3399 C   0  0  0  0  0  0
  -22.7867  -13.5239   21.1843 C   0  0  0  0  0  0
  -22.1665   -4.2158   21.0975 F   0  0  0  0  0  0
  -21.5628   -3.4544   25.7740 F   0  0  0  0  0  0
  -30.0352  -13.3019   20.4439 N   0  0  0  0  0  0
  -26.3026  -12.9343   20.3366 N   0  0  0  0  0  0
  -25.9333  -11.6497   20.5770 N   0  0  0  0  0  0
  -22.0503  -12.8224   22.0387 N   0  0  0  0  0  0
  -25.4324  -15.1886   20.4062 N   0  0  0  0  0  0
  -31.8410  -14.6425   20.1018 O   0  0  0  0  0  0
  -21.6641   -6.8888   21.4248 O   0  0  0  0  0  0
  -22.3558  -14.5551   20.6702 O   0  0  0  0  0  0
  -24.6187  -31.8682   23.2120 C   0  0  0  0  0  0
  -25.9072  -32.4822   23.8417 C   0  0  1  0  0  0
  -27.2265  -27.4102   20.1001 C   0  0  0  0  0  0
  -25.5930  -33.8623   24.2351 N   0  0  0  0  0  0
  -23.4069  -30.4950   21.5529 C   0  0  2  0  0  0
  -24.8530  -28.9701   20.1112 C   0  0  0  0  0  0
  -22.7425  -29.4667   22.4977 C   0  0  0  0  0  0
  -18.0271  -28.1384   22.8495 C   0  0  0  0  0  0
  -24.1482  -36.7296   23.2639 C   0  0  0  0  0  0
  -25.9414  -30.8277   21.3709 C   0  0  0  0  0  0
  -26.0184  -29.4647   20.7106 C   0  0  0  0  0  0
  -27.2096  -28.6948   20.6996 C   0  0  0  0  0  0
  -26.0396  -26.9562   19.4705 C   0  0  0  0  0  0
  -24.8605  -27.7166   19.4856 C   0  0  0  0  0  0
  -23.6160  -29.8360   20.1655 C   0  0  0  0  0  0
  -25.4107  -36.3107   24.0338 C   0  0  1  0  0  0
  -20.5865  -28.3681   23.1304 C   0  0  2  0  0  0
  -20.6768  -26.9416   22.5412 C   0  0  0  0  0  0
  -19.5744  -26.6390   21.5214 C   0  0  0  0  0  0
  -18.1916  -26.7932   22.1619 C   0  0  0  0  0  0
  -19.1519  -28.8847   23.2898 C   0  0  0  0  0  0
  -18.9451  -30.1453   23.8910 C   0  0  0  0  0  0
  -17.6452  -30.6590   24.0568 C   0  0  0  0  0  0
  -25.9044  -34.9473   23.5136 C   0  0  0  0  0  0
  -16.5344  -29.9091   23.6339 C   0  0  0  0  0  0
  -16.7260  -28.6508   23.0364 C   0  0  0  0  0  0
  -26.4489  -31.6598   25.0748 C   0  0  0  0  0  0
  -25.3749  -31.3685   26.1488 C   0  0  0  0  0  0
  -27.0340  -30.3044   24.6140 C   0  0  0  0  0  0
  -27.6063  -32.4316   25.7515 C   0  0  0  0  0  0
  -27.5583  -37.1797   24.8465 C   0  0  0  0  0  0
  -21.4147  -29.3052   22.3714 N   0  0  0  0  0  0
  -26.4286  -37.3799   23.9426 N   0  0  0  0  0  0
  -24.6741  -31.0767   22.1033 N   0  0  0  0  0  0
  -23.4183  -28.8198   23.3020 O   0  0  0  0  0  0
  -28.3555  -26.5994   20.1702 O   0  0  0  0  0  0
  -26.5589  -34.8918   22.4687 O   0  0  0  0  0  0
  -23.5372  -32.1440   23.7500 O   0  0  0  0  0  0
  -31.8446  -17.0990   21.8069 C   0  0  0  0  0  0
  -32.2506  -18.4289   22.0283 C   0  0  0  0  0  0
  -29.5940  -17.8858   21.3081 C   0  0  0  0  0  0
  -29.9899  -19.2348   21.5433 C   0  0  0  0  0  0
  -30.5116  -16.8104   21.4290 C   0  0  0  0  0  0
  -31.3360  -19.4914   21.8933 C   0  0  0  0  0  0
  -29.0009  -20.3392   21.4551 C   0  0  0  0  0  0
  -28.4781  -22.7675   20.9825 C   0  0  0  0  0  0
  -29.1140  -24.1683   20.7504 C   0  0  0  0  0  0
  -28.0582  -25.1787   20.2062 C   0  0  0  0  0  0
  -30.0624  -15.4656   21.2179 N   0  0  0  0  0  0
  -29.3566  -21.6216   21.1442 N   0  0  0  0  0  0
  -27.7199  -20.0332   21.7111 N   0  3  0  0  0  0
  -27.2488  -22.6288   21.0372 O   0  0  0  0  0  0
  -31.7636  -20.7626   22.0976 F   0  0  0  0  0  0
  -31.4646  -12.4103   19.1169 H   0  0  0  0  0  0
  -30.3177  -11.3054   19.8178 H   0  0  0  0  0  0
  -29.7347  -11.8024   17.4189 H   0  0  0  0  0  0
  -29.6566  -13.5090   17.7790 H   0  0  0  0  0  0
  -27.8284  -11.3147   18.8106 H   0  0  0  0  0  0
  -27.3643  -12.6476   17.7875 H   0  0  0  0  0  0
  -27.7025  -14.2575   19.5741 H   0  0  0  0  0  0
  -28.6812  -11.9663   21.3459 H   0  0  0  0  0  0
  -28.4613  -13.6055   21.8708 H   0  0  0  0  0  0
  -25.2770   -9.5677   22.4764 H   0  0  0  0  0  0
  -24.0008   -7.4636   22.7485 H   0  0  0  0  0  0
  -21.0856   -8.8773   19.8947 H   0  0  0  0  0  0
  -22.3721  -10.9672   19.6161 H   0  0  0  0  0  0
  -21.1990   -7.6152   23.9722 H   0  0  0  0  0  0
  -21.1469   -6.0525   25.9081 H   0  0  0  0  0  0
  -22.0603   -2.7621   23.2847 H   0  0  0  0  0  0
  -22.4112  -11.9871   22.4747 H   0  0  0  0  0  0
  -21.1121  -13.1249   22.2598 H   0  0  0  0  0  0
  -24.6630  -15.8431   20.4979 H   0  0  0  0  0  0
  -26.2758  -15.6187   20.0491 H   0  0  0  0  0  0
  -26.7146  -32.5526   23.1184 H   0  0  0  0  0  0
  -25.0128  -33.9795   25.0530 H   0  0  0  0  0  0
  -22.6968  -31.3136   21.4156 H   0  0  0  0  0  0
  -23.3759  -35.9614   23.3295 H   0  0  0  0  0  0
  -24.3577  -36.8917   22.2055 H   0  0  0  0  0  0
  -23.7210  -37.6486   23.6657 H   0  0  0  0  0  0
  -26.0610  -31.5971   20.6067 H   0  0  0  0  0  0
  -26.8268  -30.8758   21.9930 H   0  0  0  0  0  0
  -28.1034  -29.0672   21.1805 H   0  0  0  0  0  0
  -25.9890  -25.9998   18.9721 H   0  0  0  0  0  0
  -23.9663  -27.3327   19.0139 H   0  0  0  0  0  0
  -23.7249  -30.6150   19.4104 H   0  0  0  0  0  0
  -22.7401  -29.2580   19.8658 H   0  0  0  0  0  0
  -25.1278  -36.1973   25.0829 H   0  0  0  0  0  0
  -20.9954  -28.3251   24.1427 H   0  0  0  0  0  0
  -20.5688  -26.2289   23.3601 H   0  0  0  0  0  0
  -21.6635  -26.7466   22.1196 H   0  0  0  0  0  0
  -19.6911  -25.6303   21.1242 H   0  0  0  0  0  0
  -19.6685  -27.3204   20.6747 H   0  0  0  0  0  0
  -17.4194  -26.6696   21.4012 H   0  0  0  0  0  0
  -18.0307  -26.0061   22.8998 H   0  0  0  0  0  0
  -19.7924  -30.7268   24.2284 H   0  0  0  0  0  0
  -17.5007  -31.6270   24.5174 H   0  0  0  0  0  0
  -15.5348  -30.3001   23.7660 H   0  0  0  0  0  0
  -15.8655  -28.0832   22.7088 H   0  0  0  0  0  0
  -24.5939  -30.7017   25.7812 H   0  0  0  0  0  0
  -24.8923  -32.2831   26.4942 H   0  0  0  0  0  0
  -25.8107  -30.8851   27.0242 H   0  0  0  0  0  0
  -26.2900  -29.6781   24.1206 H   0  0  0  0  0  0
  -27.4125  -29.7298   25.4606 H   0  0  0  0  0  0
  -27.8720  -30.4367   23.9292 H   0  0  0  0  0  0
  -27.2697  -33.3619   26.2097 H   0  0  0  0  0  0
  -28.3875  -32.6868   25.0344 H   0  0  0  0  0  0
  -28.0724  -31.8433   26.5429 H   0  0  0  0  0  0
  -28.2579  -38.0119   24.7566 H   0  0  0  0  0  0
  -28.1102  -36.2653   24.6229 H   0  0  0  0  0  0
  -27.2302  -37.1369   25.8866 H   0  0  0  0  0  0
  -20.9308  -29.8796   21.6952 H   0  0  0  0  0  0
  -26.0169  -38.2866   24.1469 H   0  0  0  0  0  0
  -32.5691  -16.3081   21.9375 H   0  0  0  0  0  0
  -33.2720  -18.6366   22.3104 H   0  0  0  0  0  0
  -28.5742  -17.6669   21.0248 H   0  0  0  0  0  0
  -29.9546  -24.0895   20.0616 H   0  0  0  0  0  0
  -29.5084  -24.5236   21.7026 H   0  0  0  0  0  0
  -27.1678  -25.0663   20.8289 H   0  0  0  0  0  0
  -27.7949  -24.8531   19.1989 H   0  0  0  0  0  0
  -29.1080  -15.2567   21.4678 H   0  0  0  0  0  0
  -30.3644  -21.7142   21.1048 H   0  0  0  0  0  0
  -27.4510  -19.1215   22.0437 H   0  0  0  0  0  0
  -27.0258  -20.7657   21.6158 H   0  0  0  0  0  0
  1 25  1  0  0  0
  1 30  2  0  0  0
  1 81  1  0  0  0
  2  3  1  0  0  0
  2 25  1  0  0  0
  2 86  1  0  0  0
  2 87  1  0  0  0
  3  4  1  0  0  0
  3 88  1  0  0  0
  3 89  1  0  0  0
  4  5  1  0  0  0
  4 90  1  0  0  0
  4 91  1  0  0  0
  5  6  1  0  0  0
  5 26  1  0  0  0
  5 92  1  0  0  0
  6 25  1  0  0  0
  6 93  1  0  0  0
  6 94  1  0  0  0
  7  8  2  0  0  0
  7 26  1  0  0  0
  7 29  1  0  0  0
  8  9  1  0  0  0
  8 22  1  0  0  0
  9 10  1  0  0  0
  9 27  2  0  0  0
 10 11  2  0  0  0
 10 15  1  0  0  0
 11 12  1  0  0  0
 11 95  1  0  0  0
 12 13  2  0  0  0
 12 96  1  0  0  0
 13 14  1  0  0  0
 13 31  1  0  0  0
 14 15  2  0  0  0
 14 97  1  0  0  0
 15 98  1  0  0  0
 16 17  2  0  0  0
 16 21  1  0  0  0
 16 31  1  0  0  0
 17 18  1  0  0  0
 17 99  1  0  0  0
 18 19  2  0  0  0
 18100  1  0  0  0
 19 20  1  0  0  0
 19 24  1  0  0  0
 20 21  2  0  0  0
 20101  1  0  0  0
 21 23  1  0  0  0
 22 28  1  0  0  0
 22 32  2  0  0  0
 26 27  1  0  0  0
 28102  1  0  0  0
 28103  1  0  0  0
 29104  1  0  0  0
 29105  1  0  0  0
 33 34  1  0  0  0
 33 66  1  0  0  0
 33 70  2  0  0  0
 34 36  1  0  0  0
 34 59  1  0  0  0
 34106  1  0  0  0
 35 44  2  0  0  0
 35 45  1  0  0  0
 35 68  1  0  0  0
 36 56  1  0  0  0
 36107  1  0  0  0
 37 39  1  0  0  0
 37 47  1  0  0  0
 37 66  1  0  0  0
 37108  1  0  0  0
 38 43  2  0  0  0
 38 46  1  0  0  0
 38 47  1  0  0  0
 39 64  1  0  0  0
 39 67  2  0  0  0
 40 52  1  0  0  0
 40 53  2  0  0  0
 40 58  1  0  0  0
 41109  1  0  0  0
 41110  1  0  0  0
 41111  1  0  0  0
 41 48  1  0  0  0
 42 43  1  0  0  0
 42 66  1  0  0  0
 42112  1  0  0  0
 42113  1  0  0  0
 43 44  1  0  0  0
 44114  1  0  0  0
 45 46  2  0  0  0
 45115  1  0  0  0
 46116  1  0  0  0
 47117  1  0  0  0
 47118  1  0  0  0
 48 56  1  0  0  0
 48 65  1  0  0  0
 48119  1  0  0  0
 49 50  1  0  0  0
 49 53  1  0  0  0
 49 64  1  0  0  0
 49120  1  0  0  0
 50 51  1  0  0  0
 50121  1  0  0  0
 50122  1  0  0  0
 51 52  1  0  0  0
 51123  1  0  0  0
 51124  1  0  0  0
 52125  1  0  0  0
 52126  1  0  0  0
 53 54  1  0  0  0
 54 55  2  0  0  0
 54127  1  0  0  0
 55 57  1  0  0  0
 55128  1  0  0  0
 56 69  2  0  0  0
 57 58  2  0  0  0
 57129  1  0  0  0
 58130  1  0  0  0
 59 60  1  0  0  0
 59 61  1  0  0  0
 59 62  1  0  0  0
 60131  1  0  0  0
 60132  1  0  0  0
 60133  1  0  0  0
 61134  1  0  0  0
 61135  1  0  0  0
 61136  1  0  0  0
 62137  1  0  0  0
 62138  1  0  0  0
 62139  1  0  0  0
 63 65  1  0  0  0
 63140  1  0  0  0
 63141  1  0  0  0
 63142  1  0  0  0
 64143  1  0  0  0
 65144  1  0  0  0
 68 80  1  0  0  0
 71 72  2  0  0  0
 71 75  1  0  0  0
 71145  1  0  0  0
 72 76  1  0  0  0
 72146  1  0  0  0
 73 74  1  0  0  0
 73 75  2  0  0  0
 73147  1  0  0  0
 74 76  2  0  0  0
 74 77  1  0  0  0
 75 81  1  0  0  0
 76 85  1  0  0  0
 77 82  1  0  0  0
 77 83  2  0  0  0
 78 79  1  0  0  0
 78 82  1  0  0  0
 78 84  2  0  0  0
 79 80  1  0  0  0
 79148  1  0  0  0
 79149  1  0  0  0
 80150  1  0  0  0
 80151  1  0  0  0
 81152  1  0  0  0
 82153  1  0  0  0
 83154  1  0  0  0
 83155  1  0  0  0
M  CHG  1  83   1
M  ISO  4   1 100  68 101  80 101  81 100
M  END
> <chiral flag>
0

> <version>
0

> <s_m_source_file>
/data/baiqing/PycharmProjects/Reinvent-master-3.2/result/LINK_invent/BTK/process_docking_weight1_custom_product_contain_oxygen_bond_distance_aromatic_linkinvent_7_9_3/rearranged_h_0065.sdf

> <i_m_source_file_index>
32

> <r_mmod_Potential_Energy-OPLS-2005>
-322.564331054688

> <r_mmod_Stretch_Energy-OPLS-2005>
45.9497451782227

> <r_mmod_Bend_Energy-OPLS-2005>
110.194625854492

> <r_mmod_Torsional_Energy-OPLS-2005>
213.041519165039

> <r_mmod_Improper_Torsional_Energy-OPLS-2005>
3.37721610069275

> <r_mmod_Van_der_Waal_Energy-OPLS-2005>
189.671981811523

> <r_mmod_Electrostatic_Energy-OPLS-2005>
-452.575866699219

> <r_mmod_Solvation_Energy-OPLS-2005>
-449.34765625

> <b_mmod_Minimization_Converged-OPLS-2005>
0

> <r_mmod_RMS_Derivative-OPLS-2005>
1.07076096534729

$$$$
32
                    3D
 Structure written by MMmdl.
161170  0  0  1  0            999 V2000
  -30.6215  -14.7268   20.4944 C   0  0  0  0  0  0
  -30.4355  -12.4427   19.4964 C   0  0  0  0  0  0
  -29.5241  -12.5175   18.2505 C   0  0  0  0  0  0
  -28.0422  -12.3532   18.6483 C   0  0  0  0  0  0
  -27.6497  -13.2383   19.8618 C   0  0  2  0  0  0
  -28.6871  -13.1456   21.0036 C   0  0  0  0  0  0
  -25.2528  -13.8212   20.5697 C   0  0  0  0  0  0
  -24.1803  -13.0458   20.9180 C   0  0  0  0  0  0
  -24.6394  -11.6938   20.8702 C   0  0  0  0  0  0
  -23.9073  -10.4298   21.0363 C   0  0  0  0  0  0
  -24.3613   -9.4214   21.9160 C   0  0  0  0  0  0
  -23.6294   -8.2245   22.0742 C   0  0  0  0  0  0
  -22.4277   -8.0262   21.3521 C   0  0  0  0  0  0
  -21.9900   -9.0248   20.4646 C   0  0  0  0  0  0
  -22.7233  -10.2129   20.3036 C   0  0  0  0  0  0
  -21.6856   -6.0718   22.5281 C   0  0  0  0  0  0
  -21.4021   -6.5634   23.8205 C   0  0  0  0  0  0
  -21.3658   -5.6785   24.9169 C   0  0  0  0  0  0
  -21.6048   -4.3048   24.7219 C   0  0  0  0  0  0
  -21.8823   -3.8128   23.4341 C   0  0  0  0  0  0
  -21.9196   -4.6945   22.3401 C   0  0  0  0  0  0
  -22.7826  -13.5233   21.1852 C   0  0  0  0  0  0
  -22.1665   -4.2129   21.0972 F   0  0  0  0  0  0
  -21.5625   -3.4542   25.7733 F   0  0  0  0  0  0
  -30.0007  -13.4955   20.4483 N   0  0  0  0  0  0
  -26.2965  -12.9442   20.3296 N   0  0  0  0  0  0
  -25.9326  -11.6580   20.5698 N   0  0  0  0  0  0
  -22.0459  -12.8224   22.0421 N   0  0  0  0  0  0
  -25.4289  -15.1930   20.4163 N   0  0  0  0  0  0
  -31.7777  -14.8416   20.0769 O   0  0  0  0  0  0
  -21.6635   -6.8857   21.4238 O   0  0  0  0  0  0
  -22.3512  -14.5540   20.6690 O   0  0  0  0  0  0
  -24.6325  -31.8560   23.1988 C   0  0  0  0  0  0
  -25.9151  -32.4752   23.8334 C   0  0  1  0  0  0
  -27.2098  -27.2401   20.1300 C   0  0  0  0  0  0
  -25.5938  -33.8563   24.2256 N   0  0  0  0  0  0
  -23.4292  -30.4804   21.5448 C   0  0  2  0  0  0
  -24.8722  -28.9296   20.1069 C   0  0  0  0  0  0
  -22.7518  -29.4611   22.4932 C   0  0  0  0  0  0
  -18.0301  -28.1384   22.8486 C   0  0  0  0  0  0
  -24.1484  -36.7288   23.2642 C   0  0  0  0  0  0
  -25.9780  -30.7557   21.3887 C   0  0  0  0  0  0
  -26.0442  -29.3797   20.7272 C   0  0  0  0  0  0
  -27.2106  -28.5451   20.7347 C   0  0  0  0  0  0
  -26.0196  -26.8815   19.4504 C   0  0  0  0  0  0
  -24.8674  -27.6884   19.4574 C   0  0  0  0  0  0
  -23.6451  -29.8190   20.1585 C   0  0  0  0  0  0
  -25.4112  -36.3068   24.0329 C   0  0  1  0  0  0
  -20.5906  -28.3706   23.1270 C   0  0  2  0  0  0
  -20.6787  -26.9426   22.5419 C   0  0  0  0  0  0
  -19.5752  -26.6377   21.5226 C   0  0  0  0  0  0
  -18.1935  -26.7922   22.1627 C   0  0  0  0  0  0
  -19.1558  -28.8862   23.2858 C   0  0  0  0  0  0
  -18.9482  -30.1463   23.8873 C   0  0  0  0  0  0
  -17.6474  -30.6587   24.0566 C   0  0  0  0  0  0
  -25.9059  -34.9445   23.5097 C   0  0  0  0  0  0
  -16.5358  -29.9085   23.6335 C   0  0  0  0  0  0
  -16.7284  -28.6499   23.0356 C   0  0  0  0  0  0
  -26.4484  -31.6591   25.0756 C   0  0  0  0  0  0
  -25.3681  -31.3812   26.1472 C   0  0  0  0  0  0
  -27.0345  -30.2982   24.6308 C   0  0  0  0  0  0
  -27.6007  -32.4369   25.7529 C   0  0  0  0  0  0
  -27.5588  -37.1795   24.8460 C   0  0  0  0  0  0
  -21.4231  -29.3038   22.3659 N   0  0  0  0  0  0
  -26.4274  -37.3782   23.9417 N   0  0  0  0  0  0
  -24.6987  -31.0495   22.0996 N   0  0  0  0  0  0
  -23.4208  -28.8161   23.3049 O   0  0  0  0  0  0
  -28.2959  -26.3272   20.2338 O   0  0  0  0  0  0
  -26.5649  -34.8920   22.4671 O   0  0  0  0  0  0
  -23.5471  -32.1424   23.7248 O   0  0  0  0  0  0
  -29.3250  -19.5287   18.6382 C   0  0  0  0  0  0
  -29.6480  -17.1017   18.7974 C   0  0  0  0  0  0
  -29.6905  -18.4845   20.8079 C   0  0  0  0  0  0
  -29.4260  -18.2600   18.0297 C   0  0  0  0  0  0
  -29.4635  -19.7045   20.0332 C   0  0  0  0  0  0
  -29.7893  -17.1559   20.2018 C   0  0  0  0  0  0
  -30.4906  -21.8420   20.8471 C   0  0  0  0  0  0
  -28.3492  -22.1264   20.1421 C   0  0  0  0  0  0
  -30.2787  -23.3820   20.7417 C   0  0  1  0  0  0
  -28.7535  -23.5848   20.6522 C   0  0  1  0  0  0
  -29.2845  -18.1252   16.5262 C   0  0  0  0  0  0
  -30.9396  -24.1753   21.8858 C   0  0  0  0  0  0
  -28.1376  -24.8692   19.8611 C   0  0  0  0  0  0
  -29.3983  -21.1146   20.5201 N   0  0  0  0  0  0
  -29.9060  -15.8472   20.8927 N   0  0  0  0  0  0
  -31.5709  -21.3646   21.2117 O   0  0  0  0  0  0
  -31.4802  -12.5557   19.2018 H   0  0  0  0  0  0
  -30.3682  -11.4592   19.9665 H   0  0  0  0  0  0
  -29.8081  -11.7468   17.5331 H   0  0  0  0  0  0
  -29.6689  -13.4746   17.7436 H   0  0  0  0  0  0
  -27.8802  -11.3033   18.8924 H   0  0  0  0  0  0
  -27.3959  -12.5712   17.7971 H   0  0  0  0  0  0
  -27.6565  -14.2671   19.5033 H   0  0  0  0  0  0
  -28.7073  -12.1395   21.4235 H   0  0  0  0  0  0
  -28.4181  -13.8090   21.8284 H   0  0  0  0  0  0
  -25.2752   -9.5712   22.4734 H   0  0  0  0  0  0
  -24.0017   -7.4647   22.7473 H   0  0  0  0  0  0
  -21.0816   -8.8767   19.8968 H   0  0  0  0  0  0
  -22.3670  -10.9666   19.6135 H   0  0  0  0  0  0
  -21.2020   -7.6148   23.9722 H   0  0  0  0  0  0
  -21.1476   -6.0493   25.9078 H   0  0  0  0  0  0
  -22.0601   -2.7590   23.2832 H   0  0  0  0  0  0
  -22.4052  -11.9897   22.4835 H   0  0  0  0  0  0
  -21.1073  -13.1261   22.2602 H   0  0  0  0  0  0
  -24.6759  -15.8578   20.5604 H   0  0  0  0  0  0
  -26.2916  -15.6295   20.1191 H   0  0  0  0  0  0
  -26.7223  -32.5374   23.1077 H   0  0  0  0  0  0
  -25.0057  -33.9692   25.0377 H   0  0  0  0  0  0
  -22.7243  -31.3034   21.4041 H   0  0  0  0  0  0
  -23.3755  -35.9610   23.3277 H   0  0  0  0  0  0
  -24.3583  -36.8943   22.2064 H   0  0  0  0  0  0
  -23.7224  -37.6473   23.6684 H   0  0  0  0  0  0
  -26.1297  -31.5147   20.6195 H   0  0  0  0  0  0
  -26.8505  -30.7937   22.0299 H   0  0  0  0  0  0
  -28.0991  -28.8776   21.2519 H   0  0  0  0  0  0
  -25.9252  -25.9553   18.9055 H   0  0  0  0  0  0
  -23.9746  -27.3425   18.9534 H   0  0  0  0  0  0
  -23.7681  -30.5990   19.4066 H   0  0  0  0  0  0
  -22.7587  -29.2587   19.8531 H   0  0  0  0  0  0
  -25.1282  -36.1920   25.0822 H   0  0  0  0  0  0
  -20.9985  -28.3289   24.1390 H   0  0  0  0  0  0
  -20.5703  -26.2325   23.3639 H   0  0  0  0  0  0
  -21.6655  -26.7454   22.1214 H   0  0  0  0  0  0
  -19.6923  -25.6286   21.1262 H   0  0  0  0  0  0
  -19.6671  -27.3185   20.6756 H   0  0  0  0  0  0
  -17.4219  -26.6697   21.4012 H   0  0  0  0  0  0
  -18.0299  -26.0060   22.9012 H   0  0  0  0  0  0
  -19.7958  -30.7291   24.2212 H   0  0  0  0  0  0
  -17.5035  -31.6253   24.5187 H   0  0  0  0  0  0
  -15.5370  -30.2978   23.7660 H   0  0  0  0  0  0
  -15.8691  -28.0814   22.7067 H   0  0  0  0  0  0
  -24.5802  -30.7212   25.7823 H   0  0  0  0  0  0
  -24.8934  -32.3026   26.4857 H   0  0  0  0  0  0
  -25.7956  -30.9009   27.0280 H   0  0  0  0  0  0
  -26.2971  -29.6730   24.1260 H   0  0  0  0  0  0
  -27.3905  -29.7246   25.4877 H   0  0  0  0  0  0
  -27.8891  -30.4219   23.9657 H   0  0  0  0  0  0
  -27.2553  -33.3652   26.2086 H   0  0  0  0  0  0
  -28.3803  -32.6979   25.0366 H   0  0  0  0  0  0
  -28.0688  -31.8543   26.5468 H   0  0  0  0  0  0
  -28.2579  -38.0115   24.7531 H   0  0  0  0  0  0
  -28.1095  -36.2652   24.6221 H   0  0  0  0  0  0
  -27.2321  -37.1382   25.8862 H   0  0  0  0  0  0
  -20.9442  -29.8741   21.6835 H   0  0  0  0  0  0
  -26.0159  -38.2849   24.1416 H   0  0  0  0  0  0
  -29.1698  -20.3904   18.0041 H   0  0  0  0  0  0
  -29.6833  -16.1471   18.2910 H   0  0  0  0  0  0
  -29.7906  -18.5753   21.8820 H   0  0  0  0  0  0
  -28.2345  -22.1391   19.0582 H   0  0  0  0  0  0
  -27.3866  -21.8290   20.5600 H   0  0  0  0  0  0
  -30.7345  -23.6872   19.7994 H   0  0  0  0  0  0
  -28.3804  -23.6659   21.6743 H   0  0  0  0  0  0
  -29.6687  -19.0077   16.0139 H   0  0  0  0  0  0
  -28.2378  -17.9912   16.2517 H   0  0  0  0  0  0
  -29.8408  -17.2584   16.1645 H   0  0  0  0  0  0
  -30.4641  -23.9635   22.8432 H   0  0  0  0  0  0
  -30.8623  -25.2480   21.7070 H   0  0  0  0  0  0
  -31.9995  -23.9350   21.9810 H   0  0  0  0  0  0
  -27.0802  -24.6239   19.9067 H   0  0  0  0  0  0
  -28.4192  -24.7827   18.8119 H   0  0  0  0  0  0
  -29.1293  -15.6345   21.5021 H   0  0  0  0  0  0
  1 25  1  0  0  0
  1 30  2  0  0  0
  1 85  1  0  0  0
  2  3  1  0  0  0
  2 25  1  0  0  0
  2 87  1  0  0  0
  2 88  1  0  0  0
  3  4  1  0  0  0
  3 89  1  0  0  0
  3 90  1  0  0  0
  4  5  1  0  0  0
  4 91  1  0  0  0
  4 92  1  0  0  0
  5  6  1  0  0  0
  5 26  1  0  0  0
  5 93  1  0  0  0
  6 25  1  0  0  0
  6 94  1  0  0  0
  6 95  1  0  0  0
  7  8  2  0  0  0
  7 26  1  0  0  0
  7 29  1  0  0  0
  8  9  1  0  0  0
  8 22  1  0  0  0
  9 10  1  0  0  0
  9 27  2  0  0  0
 10 11  2  0  0  0
 10 15  1  0  0  0
 11 12  1  0  0  0
 11 96  1  0  0  0
 12 13  2  0  0  0
 12 97  1  0  0  0
 13 14  1  0  0  0
 13 31  1  0  0  0
 14 15  2  0  0  0
 14 98  1  0  0  0
 15 99  1  0  0  0
 16 17  2  0  0  0
 16 21  1  0  0  0
 16 31  1  0  0  0
 17 18  1  0  0  0
 17100  1  0  0  0
 18 19  2  0  0  0
 18101  1  0  0  0
 19 20  1  0  0  0
 19 24  1  0  0  0
 20 21  2  0  0  0
 20102  1  0  0  0
 21 23  1  0  0  0
 22 28  1  0  0  0
 22 32  2  0  0  0
 26 27  1  0  0  0
 28103  1  0  0  0
 28104  1  0  0  0
 29105  1  0  0  0
 29106  1  0  0  0
 33 34  1  0  0  0
 33 66  1  0  0  0
 33 70  2  0  0  0
 34 36  1  0  0  0
 34 59  1  0  0  0
 34107  1  0  0  0
 35 44  2  0  0  0
 35 45  1  0  0  0
 35 68  1  0  0  0
 36 56  1  0  0  0
 36108  1  0  0  0
 37 39  1  0  0  0
 37 47  1  0  0  0
 37 66  1  0  0  0
 37109  1  0  0  0
 38 43  2  0  0  0
 38 46  1  0  0  0
 38 47  1  0  0  0
 39 64  1  0  0  0
 39 67  2  0  0  0
 40 52  1  0  0  0
 40 53  2  0  0  0
 40 58  1  0  0  0
 41110  1  0  0  0
 41111  1  0  0  0
 41112  1  0  0  0
 41 48  1  0  0  0
 42 43  1  0  0  0
 42 66  1  0  0  0
 42113  1  0  0  0
 42114  1  0  0  0
 43 44  1  0  0  0
 44115  1  0  0  0
 45 46  2  0  0  0
 45116  1  0  0  0
 46117  1  0  0  0
 47118  1  0  0  0
 47119  1  0  0  0
 48 56  1  0  0  0
 48 65  1  0  0  0
 48120  1  0  0  0
 49 50  1  0  0  0
 49 53  1  0  0  0
 49 64  1  0  0  0
 49121  1  0  0  0
 50 51  1  0  0  0
 50122  1  0  0  0
 50123  1  0  0  0
 51 52  1  0  0  0
 51124  1  0  0  0
 51125  1  0  0  0
 52126  1  0  0  0
 52127  1  0  0  0
 53 54  1  0  0  0
 54 55  2  0  0  0
 54128  1  0  0  0
 55 57  1  0  0  0
 55129  1  0  0  0
 56 69  2  0  0  0
 57 58  2  0  0  0
 57130  1  0  0  0
 58131  1  0  0  0
 59 60  1  0  0  0
 59 61  1  0  0  0
 59 62  1  0  0  0
 60132  1  0  0  0
 60133  1  0  0  0
 60134  1  0  0  0
 61135  1  0  0  0
 61136  1  0  0  0
 61137  1  0  0  0
 62138  1  0  0  0
 62139  1  0  0  0
 62140  1  0  0  0
 63 65  1  0  0  0
 63141  1  0  0  0
 63142  1  0  0  0
 63143  1  0  0  0
 64144  1  0  0  0
 65145  1  0  0  0
 68 83  1  0  0  0
 71 74  2  0  0  0
 71 75  1  0  0  0
 71146  1  0  0  0
 72 74  1  0  0  0
 72 76  2  0  0  0
 72147  1  0  0  0
 73 75  2  0  0  0
 73 76  1  0  0  0
 73148  1  0  0  0
 74 81  1  0  0  0
 75 84  1  0  0  0
 76 85  1  0  0  0
 77 79  1  0  0  0
 77 84  1  0  0  0
 77 86  2  0  0  0
 78 80  1  0  0  0
 78 84  1  0  0  0
 78149  1  0  0  0
 78150  1  0  0  0
 79 80  1  0  0  0
 79 82  1  0  0  0
 79151  1  0  0  0
 80 83  1  0  0  0
 80152  1  0  0  0
 81153  1  0  0  0
 81154  1  0  0  0
 81155  1  0  0  0
 82156  1  0  0  0
 82157  1  0  0  0
 82158  1  0  0  0
 83159  1  0  0  0
 83160  1  0  0  0
 85161  1  0  0  0
M  ISO  4   1 100  68 101  83 101  85 100
M  END
> <chiral flag>
0

> <version>
0

> <s_m_source_file>
/data/baiqing/PycharmProjects/Reinvent-master-3.2/result/LINK_invent/BTK/process_docking_weight1_custom_product_contain_oxygen_bond_distance_aromatic_linkinvent_7_9_3/rearranged_h_0065.sdf

> <i_m_source_file_index>
33

> <r_mmod_Potential_Energy-OPLS-2005>
316.919738769531

> <r_mmod_Stretch_Energy-OPLS-2005>
128.417373657227

> <r_mmod_Bend_Energy-OPLS-2005>
203.764862060547

> <r_mmod_Torsional_Energy-OPLS-2005>
319.445587158203

> <r_mmod_Improper_Torsional_Energy-OPLS-2005>
6.21835660934448

> <r_mmod_Van_der_Waal_Energy-OPLS-2005>
134.53369140625

> <r_mmod_Electrostatic_Energy-OPLS-2005>
-334.636962890625

> <r_mmod_Solvation_Energy-OPLS-2005>
-228.810272216797

> <b_mmod_Minimization_Converged-OPLS-2005>
0

> <r_mmod_RMS_Derivative-OPLS-2005>
3.34820628166199

$$$$
33
                    3D
 Structure written by MMmdl.
155164  0  0  1  0            999 V2000
  -30.5919  -14.7839   20.4242 C   0  0  0  0  0  0
  -30.4318  -12.4615   19.4943 C   0  0  0  0  0  0
  -29.5170  -12.4785   18.2486 C   0  0  0  0  0  0
  -28.0352  -12.3395   18.6526 C   0  0  0  0  0  0
  -27.6431  -13.2368   19.8591 C   0  0  2  0  0  0
  -28.6884  -13.1765   20.9940 C   0  0  0  0  0  0
  -25.2515  -13.8214   20.5756 C   0  0  0  0  0  0
  -24.1799  -13.0438   20.9226 C   0  0  0  0  0  0
  -24.6403  -11.6928   20.8747 C   0  0  0  0  0  0
  -23.9084  -10.4295   21.0396 C   0  0  0  0  0  0
  -24.3633   -9.4213   21.9175 C   0  0  0  0  0  0
  -23.6308   -8.2249   22.0755 C   0  0  0  0  0  0
  -22.4283   -8.0295   21.3555 C   0  0  0  0  0  0
  -21.9922   -9.0260   20.4645 C   0  0  0  0  0  0
  -22.7254  -10.2135   20.3051 C   0  0  0  0  0  0
  -21.6852   -6.0753   22.5289 C   0  0  0  0  0  0
  -21.4004   -6.5653   23.8224 C   0  0  0  0  0  0
  -21.3660   -5.6806   24.9187 C   0  0  0  0  0  0
  -21.6053   -4.3071   24.7235 C   0  0  0  0  0  0
  -21.8812   -3.8166   23.4350 C   0  0  0  0  0  0
  -21.9191   -4.6983   22.3409 C   0  0  0  0  0  0
  -22.7824  -13.5211   21.1884 C   0  0  0  0  0  0
  -22.1650   -4.2168   21.0986 F   0  0  0  0  0  0
  -21.5646   -3.4552   25.7748 F   0  0  0  0  0  0
  -29.9858  -13.5410   20.4116 N   0  0  0  0  0  0
  -26.2949  -12.9429   20.3346 N   0  0  0  0  0  0
  -25.9338  -11.6568   20.5785 N   0  0  0  0  0  0
  -22.0496  -12.8177   22.0442 N   0  0  0  0  0  0
  -25.4192  -15.1944   20.4245 N   0  0  0  0  0  0
  -31.7774  -14.8749   20.0920 O   0  0  0  0  0  0
  -21.6639   -6.8897   21.4254 O   0  0  0  0  0  0
  -22.3500  -14.5527   20.6765 O   0  0  0  0  0  0
  -24.6324  -31.8549   23.2002 C   0  0  0  0  0  0
  -25.9146  -32.4746   23.8340 C   0  0  1  0  0  0
  -27.2116  -27.2299   20.1357 C   0  0  0  0  0  0
  -25.5945  -33.8553   24.2255 N   0  0  0  0  0  0
  -23.4318  -30.4791   21.5423 C   0  0  2  0  0  0
  -24.8821  -28.9327   20.1076 C   0  0  0  0  0  0
  -22.7502  -29.4593   22.4881 C   0  0  0  0  0  0
  -18.0288  -28.1389   22.8481 C   0  0  0  0  0  0
  -24.1495  -36.7275   23.2638 C   0  0  0  0  0  0
  -25.9820  -30.7549   21.3933 C   0  0  0  0  0  0
  -26.0522  -29.3746   20.7380 C   0  0  0  0  0  0
  -27.2146  -28.5302   20.7555 C   0  0  0  0  0  0
  -26.0336  -26.9017   19.4214 C   0  0  0  0  0  0
  -24.8794  -27.7035   19.4384 C   0  0  0  0  0  0
  -23.6555  -29.8223   20.1557 C   0  0  0  0  0  0
  -25.4124  -36.3063   24.0318 C   0  0  1  0  0  0
  -20.5895  -28.3711   23.1255 C   0  0  2  0  0  0
  -20.6781  -26.9425   22.5409 C   0  0  0  0  0  0
  -19.5752  -26.6387   21.5212 C   0  0  0  0  0  0
  -18.1928  -26.7925   22.1628 C   0  0  0  0  0  0
  -19.1543  -28.8867   23.2863 C   0  0  0  0  0  0
  -18.9461  -30.1464   23.8891 C   0  0  0  0  0  0
  -17.6461  -30.6593   24.0564 C   0  0  0  0  0  0
  -25.9067  -34.9434   23.5089 C   0  0  0  0  0  0
  -16.5354  -29.9093   23.6330 C   0  0  0  0  0  0
  -16.7275  -28.6511   23.0352 C   0  0  0  0  0  0
  -26.4512  -31.6570   25.0723 C   0  0  0  0  0  0
  -25.3719  -31.3711   26.1424 C   0  0  0  0  0  0
  -27.0374  -30.2983   24.6234 C   0  0  0  0  0  0
  -27.6060  -32.4310   25.7503 C   0  0  0  0  0  0
  -27.5579  -37.1797   24.8461 C   0  0  0  0  0  0
  -21.4208  -29.3046   22.3630 N   0  0  0  0  0  0
  -26.4289  -37.3767   23.9407 N   0  0  0  0  0  0
  -24.7006  -31.0488   22.1006 N   0  0  0  0  0  0
  -23.4188  -28.8117   23.2977 O   0  0  0  0  0  0
  -28.2688  -26.2742   20.2145 O   0  0  0  0  0  0
  -26.5633  -34.8909   22.4651 O   0  0  0  0  0  0
  -23.5463  -32.1397   23.7263 O   0  0  0  0  0  0
  -29.5989  -18.5568   17.8694 C   0  0  0  0  0  0
  -29.4736  -19.7802   18.5416 C   0  0  0  0  0  0
  -29.6680  -18.5755   20.6502 C   0  0  0  0  0  0
  -29.7281  -17.3290   18.5526 C   0  0  0  0  0  0
  -29.4972  -19.8548   19.9458 C   0  0  0  0  0  0
  -29.7960  -17.2720   19.9777 C   0  0  0  0  0  0
  -30.1288  -23.5399   20.7100 C   0  0  0  0  0  0
  -28.7227  -23.6966   20.3489 C   0  0  0  0  0  0
  -30.4857  -22.0051   20.7648 C   0  0  0  0  0  0
  -27.9711  -24.8622   20.1826 C   0  0  0  0  0  0
  -28.2600  -22.2085   20.1962 C   0  0  0  0  0  0
  -29.7044  -16.0878   17.6813 C   0  0  0  0  0  0
  -29.3918  -21.2477   20.4869 N   0  0  0  0  0  0
  -29.8198  -15.9278   20.6547 N   0  0  0  0  0  0
  -30.9355  -24.4514   20.9389 O   0  0  0  0  0  0
  -31.6162  -21.5743   21.0342 O   0  0  0  0  0  0
  -31.4757  -12.5739   19.1972 H   0  0  0  0  0  0
  -30.3688  -11.4934   19.9939 H   0  0  0  0  0  0
  -29.7937  -11.6719   17.5681 H   0  0  0  0  0  0
  -29.6676  -13.3964   17.6866 H   0  0  0  0  0  0
  -27.8661  -11.2928   18.9056 H   0  0  0  0  0  0
  -27.3886  -12.5494   17.7995 H   0  0  0  0  0  0
  -27.6321  -14.2606   19.4893 H   0  0  0  0  0  0
  -28.7290  -12.1780   21.4327 H   0  0  0  0  0  0
  -28.4227  -13.8537   21.8073 H   0  0  0  0  0  0
  -25.2783   -9.5703   22.4736 H   0  0  0  0  0  0
  -24.0028   -7.4647   22.7470 H   0  0  0  0  0  0
  -21.0861   -8.8774   19.8941 H   0  0  0  0  0  0
  -22.3711  -10.9671   19.6163 H   0  0  0  0  0  0
  -21.1958   -7.6153   23.9730 H   0  0  0  0  0  0
  -21.1502   -6.0539   25.9094 H   0  0  0  0  0  0
  -22.0583   -2.7626   23.2853 H   0  0  0  0  0  0
  -22.4126  -11.9797   22.4747 H   0  0  0  0  0  0
  -21.1132  -13.1201   22.2709 H   0  0  0  0  0  0
  -24.6543  -15.8473   20.5561 H   0  0  0  0  0  0
  -26.2735  -15.6453   20.1211 H   0  0  0  0  0  0
  -26.7202  -32.5404   23.1069 H   0  0  0  0  0  0
  -25.0103  -33.9704   25.0407 H   0  0  0  0  0  0
  -22.7295  -31.3023   21.3960 H   0  0  0  0  0  0
  -23.3769  -35.9594   23.3280 H   0  0  0  0  0  0
  -24.3590  -36.8927   22.2059 H   0  0  0  0  0  0
  -23.7242  -37.6461   23.6685 H   0  0  0  0  0  0
  -26.1274  -31.5127   20.6222 H   0  0  0  0  0  0
  -26.8567  -30.8037   22.0295 H   0  0  0  0  0  0
  -28.0991  -28.8516   21.2870 H   0  0  0  0  0  0
  -25.9643  -25.9965   18.8388 H   0  0  0  0  0  0
  -23.9944  -27.3718   18.9122 H   0  0  0  0  0  0
  -23.7863  -30.6027   19.4048 H   0  0  0  0  0  0
  -22.7748  -29.2590   19.8428 H   0  0  0  0  0  0
  -25.1309  -36.1903   25.0809 H   0  0  0  0  0  0
  -20.9983  -28.3300   24.1378 H   0  0  0  0  0  0
  -20.5685  -26.2320   23.3616 H   0  0  0  0  0  0
  -21.6647  -26.7442   22.1207 H   0  0  0  0  0  0
  -19.6918  -25.6294   21.1248 H   0  0  0  0  0  0
  -19.6689  -27.3189   20.6732 H   0  0  0  0  0  0
  -17.4196  -26.6670   21.4029 H   0  0  0  0  0  0
  -18.0329  -26.0071   22.9032 H   0  0  0  0  0  0
  -19.7939  -30.7281   24.2263 H   0  0  0  0  0  0
  -17.5019  -31.6267   24.5172 H   0  0  0  0  0  0
  -15.5357  -30.3002   23.7656 H   0  0  0  0  0  0
  -15.8671  -28.0838   22.7067 H   0  0  0  0  0  0
  -24.5938  -30.7009   25.7743 H   0  0  0  0  0  0
  -24.8852  -32.2869   26.4787 H   0  0  0  0  0  0
  -25.8029  -30.8944   27.0236 H   0  0  0  0  0  0
  -26.2971  -29.6709   24.1253 H   0  0  0  0  0  0
  -27.4041  -29.7262   25.4769 H   0  0  0  0  0  0
  -27.8854  -30.4249   23.9499 H   0  0  0  0  0  0
  -27.2682  -33.3651   26.2003 H   0  0  0  0  0  0
  -28.3912  -32.6798   25.0347 H   0  0  0  0  0  0
  -28.0665  -31.8467   26.5481 H   0  0  0  0  0  0
  -28.2567  -38.0124   24.7543 H   0  0  0  0  0  0
  -28.1110  -36.2654   24.6249 H   0  0  0  0  0  0
  -27.2295  -37.1390   25.8862 H   0  0  0  0  0  0
  -20.9382  -29.8813   21.6883 H   0  0  0  0  0  0
  -26.0159  -38.2829   24.1443 H   0  0  0  0  0  0
  -29.5648  -18.5721   16.7886 H   0  0  0  0  0  0
  -29.3718  -20.6806   17.9504 H   0  0  0  0  0  0
  -29.6890  -18.5938   21.7302 H   0  0  0  0  0  0
  -26.9307  -24.6776   19.9858 H   0  0  0  0  0  0
  -27.8785  -22.0574   19.1862 H   0  0  0  0  0  0
  -27.4355  -22.0137   20.8829 H   0  0  0  0  0  0
  -29.6047  -16.3382   16.6249 H   0  0  0  0  0  0
  -28.8451  -15.4726   17.9428 H   0  0  0  0  0  0
  -30.6242  -15.5140   17.7791 H   0  0  0  0  0  0
  -28.9776  -15.7237   21.1713 H   0  0  0  0  0  0
  1 25  1  0  0  0
  1 30  2  0  0  0
  1 84  1  0  0  0
  2  3  1  0  0  0
  2 25  1  0  0  0
  2 87  1  0  0  0
  2 88  1  0  0  0
  3  4  1  0  0  0
  3 89  1  0  0  0
  3 90  1  0  0  0
  4  5  1  0  0  0
  4 91  1  0  0  0
  4 92  1  0  0  0
  5  6  1  0  0  0
  5 26  1  0  0  0
  5 93  1  0  0  0
  6 25  1  0  0  0
  6 94  1  0  0  0
  6 95  1  0  0  0
  7  8  2  0  0  0
  7 26  1  0  0  0
  7 29  1  0  0  0
  8  9  1  0  0  0
  8 22  1  0  0  0
  9 10  1  0  0  0
  9 27  2  0  0  0
 10 11  2  0  0  0
 10 15  1  0  0  0
 11 12  1  0  0  0
 11 96  1  0  0  0
 12 13  2  0  0  0
 12 97  1  0  0  0
 13 14  1  0  0  0
 13 31  1  0  0  0
 14 15  2  0  0  0
 14 98  1  0  0  0
 15 99  1  0  0  0
 16 17  2  0  0  0
 16 21  1  0  0  0
 16 31  1  0  0  0
 17 18  1  0  0  0
 17100  1  0  0  0
 18 19  2  0  0  0
 18101  1  0  0  0
 19 20  1  0  0  0
 19 24  1  0  0  0
 20 21  2  0  0  0
 20102  1  0  0  0
 21 23  1  0  0  0
 22 28  1  0  0  0
 22 32  2  0  0  0
 26 27  1  0  0  0
 28103  1  0  0  0
 28104  1  0  0  0
 29105  1  0  0  0
 29106  1  0  0  0
 33 34  1  0  0  0
 33 66  1  0  0  0
 33 70  2  0  0  0
 34 36  1  0  0  0
 34 59  1  0  0  0
 34107  1  0  0  0
 35 44  2  0  0  0
 35 45  1  0  0  0
 35 68  1  0  0  0
 36 56  1  0  0  0
 36108  1  0  0  0
 37 39  1  0  0  0
 37 47  1  0  0  0
 37 66  1  0  0  0
 37109  1  0  0  0
 38 43  2  0  0  0
 38 46  1  0  0  0
 38 47  1  0  0  0
 39 64  1  0  0  0
 39 67  2  0  0  0
 40 52  1  0  0  0
 40 53  2  0  0  0
 40 58  1  0  0  0
 41110  1  0  0  0
 41111  1  0  0  0
 41112  1  0  0  0
 41 48  1  0  0  0
 42 43  1  0  0  0
 42 66  1  0  0  0
 42113  1  0  0  0
 42114  1  0  0  0
 43 44  1  0  0  0
 44115  1  0  0  0
 45 46  2  0  0  0
 45116  1  0  0  0
 46117  1  0  0  0
 47118  1  0  0  0
 47119  1  0  0  0
 48 56  1  0  0  0
 48 65  1  0  0  0
 48120  1  0  0  0
 49 50  1  0  0  0
 49 53  1  0  0  0
 49 64  1  0  0  0
 49121  1  0  0  0
 50 51  1  0  0  0
 50122  1  0  0  0
 50123  1  0  0  0
 51 52  1  0  0  0
 51124  1  0  0  0
 51125  1  0  0  0
 52126  1  0  0  0
 52127  1  0  0  0
 53 54  1  0  0  0
 54 55  2  0  0  0
 54128  1  0  0  0
 55 57  1  0  0  0
 55129  1  0  0  0
 56 69  2  0  0  0
 57 58  2  0  0  0
 57130  1  0  0  0
 58131  1  0  0  0
 59 60  1  0  0  0
 59 61  1  0  0  0
 59 62  1  0  0  0
 60132  1  0  0  0
 60133  1  0  0  0
 60134  1  0  0  0
 61135  1  0  0  0
 61136  1  0  0  0
 61137  1  0  0  0
 62138  1  0  0  0
 62139  1  0  0  0
 62140  1  0  0  0
 63 65  1  0  0  0
 63141  1  0  0  0
 63142  1  0  0  0
 63143  1  0  0  0
 64144  1  0  0  0
 65145  1  0  0  0
 68 80  1  0  0  0
 71 72  2  0  0  0
 71 74  1  0  0  0
 71146  1  0  0  0
 72 75  1  0  0  0
 72147  1  0  0  0
 73 75  2  0  0  0
 73 76  1  0  0  0
 73148  1  0  0  0
 74 76  2  0  0  0
 74 82  1  0  0  0
 75 83  1  0  0  0
 76 84  1  0  0  0
 77 78  1  0  0  0
 77 79  1  0  0  0
 77 85  2  0  0  0
 78 80  2  0  0  0
 78 81  1  0  0  0
 79 83  1  0  0  0
 79 86  2  0  0  0
 80149  1  0  0  0
 81 83  1  0  0  0
 81150  1  0  0  0
 81151  1  0  0  0
 82152  1  0  0  0
 82153  1  0  0  0
 82154  1  0  0  0
 84155  1  0  0  0
M  ISO  4   1 100  68 101  80 101  84 100
M  END
> <chiral flag>
0

> <version>
0

> <s_m_source_file>
/data/baiqing/PycharmProjects/Reinvent-master-3.2/result/LINK_invent/BTK/process_docking_weight1_custom_product_contain_oxygen_bond_distance_aromatic_linkinvent_7_9_3/rearranged_h_0065.sdf

> <i_m_source_file_index>
34

> <r_mmod_Potential_Energy-OPLS-2005>
393.783172607422

> <r_mmod_Stretch_Energy-OPLS-2005>
142.010025024414

> <r_mmod_Bend_Energy-OPLS-2005>
211.779357910156

> <r_mmod_Torsional_Energy-OPLS-2005>
311.235321044922

> <r_mmod_Improper_Torsional_Energy-OPLS-2005>
6.83212089538574

> <r_mmod_Van_der_Waal_Energy-OPLS-2005>
140.871063232422

> <r_mmod_Electrostatic_Energy-OPLS-2005>
-270.680145263672

> <r_mmod_Solvation_Energy-OPLS-2005>
-257.537872314453

> <b_mmod_Minimization_Converged-OPLS-2005>
0

> <r_mmod_RMS_Derivative-OPLS-2005>
1.88570284843445

$$$$
34
                    3D
 Structure written by MMmdl.
156164  0  0  1  0            999 V2000
  -30.6028  -14.6474   20.4898 C   0  0  0  0  0  0
  -30.4370  -12.3945   19.4564 C   0  0  0  0  0  0
  -29.5081  -12.5120   18.2274 C   0  0  0  0  0  0
  -28.0294  -12.3517   18.6334 C   0  0  0  0  0  0
  -27.6523  -13.2175   19.8658 C   0  0  2  0  0  0
  -28.6941  -13.0646   20.9976 C   0  0  0  0  0  0
  -25.2541  -13.8181   20.5687 C   0  0  0  0  0  0
  -24.1813  -13.0435   20.9198 C   0  0  0  0  0  0
  -24.6385  -11.6913   20.8745 C   0  0  0  0  0  0
  -23.9067  -10.4286   21.0401 C   0  0  0  0  0  0
  -24.3621   -9.4201   21.9172 C   0  0  0  0  0  0
  -23.6309   -8.2229   22.0750 C   0  0  0  0  0  0
  -22.4293   -8.0269   21.3541 C   0  0  0  0  0  0
  -21.9910   -9.0239   20.4638 C   0  0  0  0  0  0
  -22.7235  -10.2120   20.3047 C   0  0  0  0  0  0
  -21.6840   -6.0726   22.5285 C   0  0  0  0  0  0
  -21.4002   -6.5638   23.8222 C   0  0  0  0  0  0
  -21.3665   -5.6804   24.9193 C   0  0  0  0  0  0
  -21.6047   -4.3065   24.7235 C   0  0  0  0  0  0
  -21.8813   -3.8144   23.4357 C   0  0  0  0  0  0
  -21.9200   -4.6956   22.3411 C   0  0  0  0  0  0
  -22.7833  -13.5211   21.1853 C   0  0  0  0  0  0
  -22.1663   -4.2142   21.0985 F   0  0  0  0  0  0
  -21.5644   -3.4536   25.7745 F   0  0  0  0  0  0
  -30.0122  -13.4109   20.4398 N   0  0  0  0  0  0
  -26.2985  -12.9364   20.3343 N   0  0  0  0  0  0
  -25.9325  -11.6513   20.5773 N   0  0  0  0  0  0
  -22.0482  -12.8206   22.0421 N   0  0  0  0  0  0
  -25.4228  -15.1909   20.4050 N   0  0  0  0  0  0
  -31.7555  -14.8242   20.0839 O   0  0  0  0  0  0
  -21.6650   -6.8865   21.4244 O   0  0  0  0  0  0
  -22.3499  -14.5510   20.6708 O   0  0  0  0  0  0
  -24.6270  -31.8599   23.2025 C   0  0  0  0  0  0
  -25.9122  -32.4773   23.8363 C   0  0  1  0  0  0
  -27.2218  -27.3167   20.1143 C   0  0  0  0  0  0
  -25.5922  -33.8585   24.2270 N   0  0  0  0  0  0
  -23.4196  -30.4842   21.5470 C   0  0  2  0  0  0
  -24.8647  -28.9371   20.1136 C   0  0  0  0  0  0
  -22.7479  -29.4624   22.4943 C   0  0  0  0  0  0
  -18.0287  -28.1382   22.8494 C   0  0  0  0  0  0
  -24.1479  -36.7296   23.2635 C   0  0  0  0  0  0
  -25.9621  -30.7902   21.3734 C   0  0  0  0  0  0
  -26.0343  -29.4155   20.7185 C   0  0  0  0  0  0
  -27.2180  -28.6181   20.7054 C   0  0  0  0  0  0
  -26.0327  -26.8966   19.4780 C   0  0  0  0  0  0
  -24.8651  -27.6817   19.4857 C   0  0  0  0  0  0
  -23.6341  -29.8200   20.1615 C   0  0  0  0  0  0
  -25.4093  -36.3090   24.0327 C   0  0  1  0  0  0
  -20.5898  -28.3692   23.1283 C   0  0  2  0  0  0
  -20.6779  -26.9413   22.5413 C   0  0  0  0  0  0
  -19.5748  -26.6379   21.5230 C   0  0  0  0  0  0
  -18.1931  -26.7924   22.1639 C   0  0  0  0  0  0
  -19.1545  -28.8852   23.2884 C   0  0  0  0  0  0
  -18.9463  -30.1462   23.8894 C   0  0  0  0  0  0
  -17.6464  -30.6593   24.0566 C   0  0  0  0  0  0
  -25.9051  -34.9454   23.5102 C   0  0  0  0  0  0
  -16.5352  -29.9096   23.6333 C   0  0  0  0  0  0
  -16.7276  -28.6511   23.0353 C   0  0  0  0  0  0
  -26.4495  -31.6599   25.0741 C   0  0  0  0  0  0
  -25.3713  -31.3745   26.1462 C   0  0  0  0  0  0
  -27.0336  -30.3024   24.6202 C   0  0  0  0  0  0
  -27.6048  -32.4347   25.7496 C   0  0  0  0  0  0
  -27.5584  -37.1776   24.8441 C   0  0  0  0  0  0
  -21.4198  -29.3049   22.3681 N   0  0  0  0  0  0
  -26.4261  -37.3798   23.9441 N   0  0  0  0  0  0
  -24.6888  -31.0611   22.0972 N   0  0  0  0  0  0
  -23.4194  -28.8168   23.3040 O   0  0  0  0  0  0
  -28.3401  -26.4684   20.1262 O   0  0  0  0  0  0
  -26.5627  -34.8928   22.4679 O   0  0  0  0  0  0
  -23.5429  -32.1394   23.7351 O   0  0  0  0  0  0
  -30.4693  -19.1486   19.3423 C   0  0  0  0  0  0
  -30.6159  -17.7609   19.6484 C   0  0  0  0  0  0
  -28.7771  -17.9431   21.1827 C   0  0  0  0  0  0
  -29.4709  -19.9789   19.9359 C   0  0  0  0  0  0
  -29.7623  -17.1100   20.5760 C   0  0  0  0  0  0
  -28.6319  -19.3333   20.8815 C   0  0  0  0  0  0
  -29.3159  -21.4240   19.4857 C   0  0  0  0  0  0
  -28.1256  -24.9636   22.0086 C   0  0  0  0  0  0
  -29.2220  -24.0125   19.9023 C   0  0  0  0  0  0
  -28.1477  -25.0333   20.4752 C   0  0  2  0  0  0
  -29.4283  -21.6568   18.1760 N   0  0  0  0  0  0
  -29.7906  -15.6759   20.8899 N   0  0  0  0  0  0
  -29.0901  -22.5315   20.2670 N   0  3  0  0  0  0
  -27.6506  -20.0400   21.4938 F   0  0  0  0  0  0
  -31.4776  -12.5216   19.1535 H   0  0  0  0  0  0
  -30.3753  -11.3985   19.8965 H   0  0  0  0  0  0
  -29.7752  -11.7620   17.4809 H   0  0  0  0  0  0
  -29.6531  -13.4823   17.7492 H   0  0  0  0  0  0
  -27.8620  -11.2978   18.8571 H   0  0  0  0  0  0
  -27.3814  -12.5880   17.7902 H   0  0  0  0  0  0
  -27.6721  -14.2537   19.5348 H   0  0  0  0  0  0
  -28.7030  -12.0412   21.3737 H   0  0  0  0  0  0
  -28.4325  -13.6889   21.8549 H   0  0  0  0  0  0
  -25.2750   -9.5692   22.4759 H   0  0  0  0  0  0
  -24.0018   -7.4615   22.7472 H   0  0  0  0  0  0
  -21.0841   -8.8756   19.8943 H   0  0  0  0  0  0
  -22.3686  -10.9669   19.6167 H   0  0  0  0  0  0
  -21.1987   -7.6141   23.9715 H   0  0  0  0  0  0
  -21.1488   -6.0538   25.9100 H   0  0  0  0  0  0
  -22.0590   -2.7599   23.2877 H   0  0  0  0  0  0
  -22.4102  -11.9898   22.4866 H   0  0  0  0  0  0
  -21.1086  -13.1228   22.2569 H   0  0  0  0  0  0
  -24.6422  -15.8337   20.4812 H   0  0  0  0  0  0
  -26.2559  -15.6266   20.0312 H   0  0  0  0  0  0
  -26.7190  -32.5445   23.1114 H   0  0  0  0  0  0
  -25.0037  -33.9744   25.0387 H   0  0  0  0  0  0
  -22.7146  -31.3045   21.4045 H   0  0  0  0  0  0
  -23.3764  -35.9610   23.3241 H   0  0  0  0  0  0
  -24.3574  -36.8979   22.2064 H   0  0  0  0  0  0
  -23.7213  -37.6467   23.6691 H   0  0  0  0  0  0
  -26.0905  -31.5540   20.6048 H   0  0  0  0  0  0
  -26.8434  -30.8398   22.0008 H   0  0  0  0  0  0
  -28.1187  -28.9828   21.1798 H   0  0  0  0  0  0
  -25.9885  -25.9528   18.9550 H   0  0  0  0  0  0
  -23.9725  -27.3138   18.9987 H   0  0  0  0  0  0
  -23.7540  -30.5970   19.4062 H   0  0  0  0  0  0
  -22.7528  -29.2512   19.8606 H   0  0  0  0  0  0
  -25.1276  -36.1915   25.0815 H   0  0  0  0  0  0
  -20.9984  -28.3270   24.1405 H   0  0  0  0  0  0
  -20.5700  -26.2307   23.3613 H   0  0  0  0  0  0
  -21.6645  -26.7451   22.1196 H   0  0  0  0  0  0
  -19.6904  -25.6292   21.1260 H   0  0  0  0  0  0
  -19.6685  -27.3192   20.6751 H   0  0  0  0  0  0
  -17.4202  -26.6691   21.4030 H   0  0  0  0  0  0
  -18.0311  -26.0072   22.9028 H   0  0  0  0  0  0
  -19.7940  -30.7287   24.2258 H   0  0  0  0  0  0
  -17.5016  -31.6268   24.5170 H   0  0  0  0  0  0
  -15.5353  -30.2993   23.7654 H   0  0  0  0  0  0
  -15.8675  -28.0833   22.7053 H   0  0  0  0  0  0
  -24.5859  -30.7133   25.7780 H   0  0  0  0  0  0
  -24.8932  -32.2917   26.4921 H   0  0  0  0  0  0
  -25.8022  -30.8883   27.0223 H   0  0  0  0  0  0
  -26.2918  -29.6778   24.1209 H   0  0  0  0  0  0
  -27.4010  -29.7294   25.4724 H   0  0  0  0  0  0
  -27.8798  -30.4322   23.9447 H   0  0  0  0  0  0
  -27.2652  -33.3637   26.2095 H   0  0  0  0  0  0
  -28.3831  -32.6935   25.0301 H   0  0  0  0  0  0
  -28.0749  -31.8464   26.5390 H   0  0  0  0  0  0
  -28.2525  -38.0151   24.7619 H   0  0  0  0  0  0
  -28.1160  -36.2694   24.6090 H   0  0  0  0  0  0
  -27.2328  -37.1218   25.8844 H   0  0  0  0  0  0
  -20.9366  -29.8766   21.6896 H   0  0  0  0  0  0
  -26.0130  -38.2847   24.1534 H   0  0  0  0  0  0
  -31.1385  -19.5740   18.6076 H   0  0  0  0  0  0
  -31.3806  -17.1983   19.1308 H   0  0  0  0  0  0
  -28.0907  -17.5093   21.8938 H   0  0  0  0  0  0
  -27.9295  -23.9533   22.3674 H   0  0  0  0  0  0
  -27.3528  -25.6107   22.4205 H   0  0  0  0  0  0
  -29.0822  -25.2835   22.4202 H   0  0  0  0  0  0
  -30.2097  -24.3328   20.2349 H   0  0  0  0  0  0
  -29.2337  -24.1255   18.8177 H   0  0  0  0  0  0
  -27.1864  -24.6677   20.1220 H   0  0  0  0  0  0
  -29.4763  -20.8752   17.5403 H   0  0  0  0  0  0
  -29.3220  -22.5748   17.7809 H   0  0  0  0  0  0
  -28.9629  -15.3380   21.3556 H   0  0  0  0  0  0
  -28.9760  -22.3403   21.2541 H   0  0  0  0  0  0
  1 25  1  0  0  0
  1 30  2  0  0  0
  1 82  1  0  0  0
  2  3  1  0  0  0
  2 25  1  0  0  0
  2 85  1  0  0  0
  2 86  1  0  0  0
  3  4  1  0  0  0
  3 87  1  0  0  0
  3 88  1  0  0  0
  4  5  1  0  0  0
  4 89  1  0  0  0
  4 90  1  0  0  0
  5  6  1  0  0  0
  5 26  1  0  0  0
  5 91  1  0  0  0
  6 25  1  0  0  0
  6 92  1  0  0  0
  6 93  1  0  0  0
  7  8  2  0  0  0
  7 26  1  0  0  0
  7 29  1  0  0  0
  8  9  1  0  0  0
  8 22  1  0  0  0
  9 10  1  0  0  0
  9 27  2  0  0  0
 10 11  2  0  0  0
 10 15  1  0  0  0
 11 12  1  0  0  0
 11 94  1  0  0  0
 12 13  2  0  0  0
 12 95  1  0  0  0
 13 14  1  0  0  0
 13 31  1  0  0  0
 14 15  2  0  0  0
 14 96  1  0  0  0
 15 97  1  0  0  0
 16 17  2  0  0  0
 16 21  1  0  0  0
 16 31  1  0  0  0
 17 18  1  0  0  0
 17 98  1  0  0  0
 18 19  2  0  0  0
 18 99  1  0  0  0
 19 20  1  0  0  0
 19 24  1  0  0  0
 20 21  2  0  0  0
 20100  1  0  0  0
 21 23  1  0  0  0
 22 28  1  0  0  0
 22 32  2  0  0  0
 26 27  1  0  0  0
 28101  1  0  0  0
 28102  1  0  0  0
 29103  1  0  0  0
 29104  1  0  0  0
 33 34  1  0  0  0
 33 66  1  0  0  0
 33 70  2  0  0  0
 34 36  1  0  0  0
 34 59  1  0  0  0
 34105  1  0  0  0
 35 44  2  0  0  0
 35 45  1  0  0  0
 35 68  1  0  0  0
 36 56  1  0  0  0
 36106  1  0  0  0
 37 39  1  0  0  0
 37 47  1  0  0  0
 37 66  1  0  0  0
 37107  1  0  0  0
 38 43  2  0  0  0
 38 46  1  0  0  0
 38 47  1  0  0  0
 39 64  1  0  0  0
 39 67  2  0  0  0
 40 52  1  0  0  0
 40 53  2  0  0  0
 40 58  1  0  0  0
 41108  1  0  0  0
 41109  1  0  0  0
 41110  1  0  0  0
 41 48  1  0  0  0
 42 43  1  0  0  0
 42 66  1  0  0  0
 42111  1  0  0  0
 42112  1  0  0  0
 43 44  1  0  0  0
 44113  1  0  0  0
 45 46  2  0  0  0
 45114  1  0  0  0
 46115  1  0  0  0
 47116  1  0  0  0
 47117  1  0  0  0
 48 56  1  0  0  0
 48 65  1  0  0  0
 48118  1  0  0  0
 49 50  1  0  0  0
 49 53  1  0  0  0
 49 64  1  0  0  0
 49119  1  0  0  0
 50 51  1  0  0  0
 50120  1  0  0  0
 50121  1  0  0  0
 51 52  1  0  0  0
 51122  1  0  0  0
 51123  1  0  0  0
 52124  1  0  0  0
 52125  1  0  0  0
 53 54  1  0  0  0
 54 55  2  0  0  0
 54126  1  0  0  0
 55 57  1  0  0  0
 55127  1  0  0  0
 56 69  2  0  0  0
 57 58  2  0  0  0
 57128  1  0  0  0
 58129  1  0  0  0
 59 60  1  0  0  0
 59 61  1  0  0  0
 59 62  1  0  0  0
 60130  1  0  0  0
 60131  1  0  0  0
 60132  1  0  0  0
 61133  1  0  0  0
 61134  1  0  0  0
 61135  1  0  0  0
 62136  1  0  0  0
 62137  1  0  0  0
 62138  1  0  0  0
 63 65  1  0  0  0
 63139  1  0  0  0
 63140  1  0  0  0
 63141  1  0  0  0
 64142  1  0  0  0
 65143  1  0  0  0
 68 80  1  0  0  0
 71 72  2  0  0  0
 71 74  1  0  0  0
 71144  1  0  0  0
 72 75  1  0  0  0
 72145  1  0  0  0
 73 75  2  0  0  0
 73 76  1  0  0  0
 73146  1  0  0  0
 74 76  2  0  0  0
 74 77  1  0  0  0
 75 82  1  0  0  0
 76 84  1  0  0  0
 77 81  1  0  0  0
 77 83  2  0  0  0
 78147  1  0  0  0
 78148  1  0  0  0
 78149  1  0  0  0
 78 80  1  0  0  0
 79 80  1  0  0  0
 79 83  1  0  0  0
 79150  1  0  0  0
 79151  1  0  0  0
 80152  1  0  0  0
 81153  1  0  0  0
 81154  1  0  0  0
 82155  1  0  0  0
 83156  1  0  0  0
M  CHG  1  83   1
M  ISO  4   1 100  68 101  80 101  82 100
M  END
> <chiral flag>
0

> <version>
0

> <s_m_source_file>
/data/baiqing/PycharmProjects/Reinvent-master-3.2/result/LINK_invent/BTK/process_docking_weight1_custom_product_contain_oxygen_bond_distance_aromatic_linkinvent_7_9_3/rearranged_h_0065.sdf

> <i_m_source_file_index>
35

> <r_mmod_Potential_Energy-OPLS-2005>
-140.261459350586

> <r_mmod_Stretch_Energy-OPLS-2005>
82.3597717285156

> <r_mmod_Bend_Energy-OPLS-2005>
136.615936279297

> <r_mmod_Torsional_Energy-OPLS-2005>
231.861999511719

> <r_mmod_Improper_Torsional_Energy-OPLS-2005>
4.67355155944824

> <r_mmod_Van_der_Waal_Energy-OPLS-2005>
145.294982910156

> <r_mmod_Electrostatic_Energy-OPLS-2005>
-375.139678955078

> <r_mmod_Solvation_Energy-OPLS-2005>
-415.508605957031

> <b_mmod_Minimization_Converged-OPLS-2005>
0

> <r_mmod_RMS_Derivative-OPLS-2005>
3.14094710350037

$$$$
35
                    3D
 Structure written by MMmdl.
152160  0  0  1  0            999 V2000
  -30.5862  -14.8057   20.4486 C   0  0  0  0  0  0
  -30.4355  -12.4980   19.4665 C   0  0  0  0  0  0
  -29.5090  -12.5061   18.2310 C   0  0  0  0  0  0
  -28.0378  -12.3181   18.6516 C   0  0  0  0  0  0
  -27.6338  -13.2328   19.8386 C   0  0  2  0  0  0
  -28.6809  -13.2012   20.9710 C   0  0  0  0  0  0
  -25.2485  -13.8189   20.5692 C   0  0  0  0  0  0
  -24.1787  -13.0431   20.9219 C   0  0  0  0  0  0
  -24.6386  -11.6911   20.8753 C   0  0  0  0  0  0
  -23.9067  -10.4287   21.0412 C   0  0  0  0  0  0
  -24.3621   -9.4201   21.9185 C   0  0  0  0  0  0
  -23.6297   -8.2236   22.0753 C   0  0  0  0  0  0
  -22.4278   -8.0276   21.3544 C   0  0  0  0  0  0
  -21.9913   -9.0249   20.4645 C   0  0  0  0  0  0
  -22.7243  -10.2129   20.3057 C   0  0  0  0  0  0
  -21.6851   -6.0736   22.5279 C   0  0  0  0  0  0
  -21.4014   -6.5640   23.8213 C   0  0  0  0  0  0
  -21.3660   -5.6793   24.9173 C   0  0  0  0  0  0
  -21.6044   -4.3055   24.7224 C   0  0  0  0  0  0
  -21.8821   -3.8148   23.4344 C   0  0  0  0  0  0
  -21.9193   -4.6964   22.3400 C   0  0  0  0  0  0
  -22.7811  -13.5209   21.1880 C   0  0  0  0  0  0
  -22.1662   -4.2152   21.0978 F   0  0  0  0  0  0
  -21.5629   -3.4538   25.7736 F   0  0  0  0  0  0
  -29.9677  -13.5737   20.3722 N   0  0  0  0  0  0
  -26.2899  -12.9397   20.3236 N   0  0  0  0  0  0
  -25.9311  -11.6542   20.5735 N   0  0  0  0  0  0
  -22.0463  -12.8193   22.0436 N   0  0  0  0  0  0
  -25.4149  -15.1917   20.4117 N   0  0  0  0  0  0
  -31.7945  -14.8807   20.2066 O   0  0  0  0  0  0
  -21.6638   -6.8878   21.4243 O   0  0  0  0  0  0
  -22.3493  -14.5515   20.6726 O   0  0  0  0  0  0
  -24.6343  -31.8521   23.1959 C   0  0  0  0  0  0
  -25.9151  -32.4744   23.8318 C   0  0  1  0  0  0
  -27.2217  -27.2289   20.1442 C   0  0  0  0  0  0
  -25.5934  -33.8547   24.2241 N   0  0  0  0  0  0
  -23.4337  -30.4719   21.5404 C   0  0  2  0  0  0
  -24.8828  -28.9045   20.1213 C   0  0  0  0  0  0
  -22.7520  -29.4584   22.4917 C   0  0  0  0  0  0
  -18.0291  -28.1398   22.8486 C   0  0  0  0  0  0
  -24.1483  -36.7272   23.2642 C   0  0  0  0  0  0
  -25.9822  -30.7534   21.3808 C   0  0  0  0  0  0
  -26.0563  -29.3687   20.7315 C   0  0  0  0  0  0
  -27.2328  -28.5445   20.7289 C   0  0  0  0  0  0
  -26.0252  -26.8323   19.5160 C   0  0  0  0  0  0
  -24.8723  -27.6439   19.5033 C   0  0  0  0  0  0
  -23.6565  -29.7988   20.1601 C   0  0  0  0  0  0
  -25.4115  -36.3063   24.0327 C   0  0  1  0  0  0
  -20.5899  -28.3706   23.1272 C   0  0  2  0  0  0
  -20.6780  -26.9421   22.5414 C   0  0  0  0  0  0
  -19.5755  -26.6389   21.5216 C   0  0  0  0  0  0
  -18.1935  -26.7943   22.1625 C   0  0  0  0  0  0
  -19.1546  -28.8874   23.2871 C   0  0  0  0  0  0
  -18.9465  -30.1478   23.8886 C   0  0  0  0  0  0
  -17.6463  -30.6598   24.0568 C   0  0  0  0  0  0
  -25.9060  -34.9435   23.5091 C   0  0  0  0  0  0
  -16.5355  -29.9093   23.6337 C   0  0  0  0  0  0
  -16.7278  -28.6513   23.0354 C   0  0  0  0  0  0
  -26.4503  -31.6586   25.0725 C   0  0  0  0  0  0
  -25.3710  -31.3752   26.1438 C   0  0  0  0  0  0
  -27.0359  -30.3003   24.6235 C   0  0  0  0  0  0
  -27.6060  -32.4326   25.7494 C   0  0  0  0  0  0
  -27.5575  -37.1795   24.8467 C   0  0  0  0  0  0
  -21.4225  -29.3044   22.3657 N   0  0  0  0  0  0
  -26.4284  -37.3769   23.9414 N   0  0  0  0  0  0
  -24.7027  -31.0456   22.0948 N   0  0  0  0  0  0
  -23.4204  -28.8130   23.3034 O   0  0  0  0  0  0
  -28.3041  -26.3159   20.0839 O   0  0  0  0  0  0
  -26.5630  -34.8913   22.4660 O   0  0  0  0  0  0
  -23.5485  -32.1351   23.7237 O   0  0  0  0  0  0
  -30.8533  -20.0906   21.5749 C   0  0  0  0  0  0
  -31.2278  -17.6606   21.6342 C   0  0  0  0  0  0
  -29.3937  -18.5944   20.3327 C   0  0  0  0  0  0
  -31.5841  -18.9694   22.0280 C   0  0  0  0  0  0
  -29.7398  -19.9719   20.7162 C   0  0  0  0  0  0
  -30.1296  -17.4009   20.7861 C   0  0  0  0  0  0
  -28.6729  -23.7769   20.4667 C   0  0  0  0  0  0
  -28.2939  -25.0892   20.8224 C   0  0  0  0  0  0
  -28.6374  -22.3243   20.9758 C   0  0  0  0  0  0
  -32.7941  -19.1679   22.9299 C   0  0  0  0  0  0
  -29.1685  -21.2750   20.2260 N   0  0  0  0  0  0
  -29.7926  -15.9614   20.5112 N   0  0  0  0  0  0
  -28.0764  -22.0057   22.0352 O   0  0  0  0  0  0
  -32.7350  -20.3292   23.5832 F   0  0  0  0  0  0
  -32.8738  -18.1900   23.8330 F   0  0  0  0  0  0
  -33.9015  -19.1540   22.1888 F   0  0  0  0  0  0
  -31.4720  -12.6418   19.1564 H   0  0  0  0  0  0
  -30.4031  -11.5312   19.9709 H   0  0  0  0  0  0
  -29.8018  -11.7197   17.5340 H   0  0  0  0  0  0
  -29.6199  -13.4495   17.6936 H   0  0  0  0  0  0
  -27.9107  -11.2724   18.9339 H   0  0  0  0  0  0
  -27.3755  -12.4853   17.8014 H   0  0  0  0  0  0
  -27.6147  -14.2459   19.4370 H   0  0  0  0  0  0
  -28.7363  -12.2116   21.4267 H   0  0  0  0  0  0
  -28.4074  -13.8952   21.7679 H   0  0  0  0  0  0
  -25.2769   -9.5674   22.4754 H   0  0  0  0  0  0
  -24.0008   -7.4625   22.7468 H   0  0  0  0  0  0
  -21.0845   -8.8769   19.8947 H   0  0  0  0  0  0
  -22.3706  -10.9667   19.6162 H   0  0  0  0  0  0
  -21.2006   -7.6148   23.9718 H   0  0  0  0  0  0
  -21.1480   -6.0521   25.9077 H   0  0  0  0  0  0
  -22.0599   -2.7611   23.2841 H   0  0  0  0  0  0
  -22.4094  -11.9858   22.4823 H   0  0  0  0  0  0
  -21.1077  -13.1204   22.2651 H   0  0  0  0  0  0
  -24.6434  -15.8401   20.5252 H   0  0  0  0  0  0
  -26.2551  -15.6379   20.0690 H   0  0  0  0  0  0
  -26.7217  -32.5389   23.1057 H   0  0  0  0  0  0
  -25.0084  -33.9678   25.0390 H   0  0  0  0  0  0
  -22.7318  -31.2948   21.3891 H   0  0  0  0  0  0
  -23.3749  -35.9599   23.3305 H   0  0  0  0  0  0
  -24.3564  -36.8893   22.2054 H   0  0  0  0  0  0
  -23.7227  -37.6473   23.6663 H   0  0  0  0  0  0
  -26.1230  -31.5070   20.6048 H   0  0  0  0  0  0
  -26.8595  -30.8090   22.0136 H   0  0  0  0  0  0
  -28.1387  -28.8999   21.1996 H   0  0  0  0  0  0
  -25.9827  -25.8640   19.0372 H   0  0  0  0  0  0
  -23.9741  -27.2828   19.0210 H   0  0  0  0  0  0
  -23.7900  -30.5715   19.4022 H   0  0  0  0  0  0
  -22.7735  -29.2360   19.8520 H   0  0  0  0  0  0
  -25.1295  -36.1903   25.0818 H   0  0  0  0  0  0
  -20.9989  -28.3282   24.1394 H   0  0  0  0  0  0
  -20.5681  -26.2313   23.3618 H   0  0  0  0  0  0
  -21.6648  -26.7441   22.1210 H   0  0  0  0  0  0
  -19.6909  -25.6295   21.1254 H   0  0  0  0  0  0
  -19.6699  -27.3193   20.6742 H   0  0  0  0  0  0
  -17.4207  -26.6694   21.4024 H   0  0  0  0  0  0
  -18.0332  -26.0088   22.9024 H   0  0  0  0  0  0
  -19.7937  -30.7306   24.2244 H   0  0  0  0  0  0
  -17.5010  -31.6272   24.5177 H   0  0  0  0  0  0
  -15.5356  -30.2991   23.7672 H   0  0  0  0  0  0
  -15.8677  -28.0833   22.7073 H   0  0  0  0  0  0
  -24.5901  -30.7082   25.7769 H   0  0  0  0  0  0
  -24.8883  -32.2928   26.4817 H   0  0  0  0  0  0
  -25.8017  -30.8967   27.0245 H   0  0  0  0  0  0
  -26.2959  -29.6745   24.1241 H   0  0  0  0  0  0
  -27.4017  -29.7276   25.4766 H   0  0  0  0  0  0
  -27.8840  -30.4281   23.9505 H   0  0  0  0  0  0
  -27.2684  -33.3643   26.2044 H   0  0  0  0  0  0
  -28.3884  -32.6860   25.0327 H   0  0  0  0  0  0
  -28.0712  -31.8465   26.5431 H   0  0  0  0  0  0
  -28.2603  -38.0082   24.7515 H   0  0  0  0  0  0
  -28.1057  -36.2620   24.6289 H   0  0  0  0  0  0
  -27.2296  -37.1439   25.8870 H   0  0  0  0  0  0
  -20.9425  -29.8750   21.6838 H   0  0  0  0  0  0
  -26.0157  -38.2837   24.1427 H   0  0  0  0  0  0
  -31.1869  -21.0730   21.8763 H   0  0  0  0  0  0
  -31.8192  -16.8431   22.0195 H   0  0  0  0  0  0
  -28.5503  -18.4523   19.6717 H   0  0  0  0  0  0
  -28.9614  -23.8291   21.5033 H   0  0  0  0  0  0
  -27.9746  -25.3354   21.8347 H   0  0  0  0  0  0
  -29.4017  -21.5172   19.2719 H   0  0  0  0  0  0
  -28.8077  -15.7736   20.4061 H   0  0  0  0  0  0
  1 25  1  0  0  0
  1 30  2  0  0  0
  1 82  1  0  0  0
  2  3  1  0  0  0
  2 25  1  0  0  0
  2 87  1  0  0  0
  2 88  1  0  0  0
  3  4  1  0  0  0
  3 89  1  0  0  0
  3 90  1  0  0  0
  4  5  1  0  0  0
  4 91  1  0  0  0
  4 92  1  0  0  0
  5  6  1  0  0  0
  5 26  1  0  0  0
  5 93  1  0  0  0
  6 25  1  0  0  0
  6 94  1  0  0  0
  6 95  1  0  0  0
  7  8  2  0  0  0
  7 26  1  0  0  0
  7 29  1  0  0  0
  8  9  1  0  0  0
  8 22  1  0  0  0
  9 10  1  0  0  0
  9 27  2  0  0  0
 10 11  2  0  0  0
 10 15  1  0  0  0
 11 12  1  0  0  0
 11 96  1  0  0  0
 12 13  2  0  0  0
 12 97  1  0  0  0
 13 14  1  0  0  0
 13 31  1  0  0  0
 14 15  2  0  0  0
 14 98  1  0  0  0
 15 99  1  0  0  0
 16 17  2  0  0  0
 16 21  1  0  0  0
 16 31  1  0  0  0
 17 18  1  0  0  0
 17100  1  0  0  0
 18 19  2  0  0  0
 18101  1  0  0  0
 19 20  1  0  0  0
 19 24  1  0  0  0
 20 21  2  0  0  0
 20102  1  0  0  0
 21 23  1  0  0  0
 22 28  1  0  0  0
 22 32  2  0  0  0
 26 27  1  0  0  0
 28103  1  0  0  0
 28104  1  0  0  0
 29105  1  0  0  0
 29106  1  0  0  0
 33 34  1  0  0  0
 33 66  1  0  0  0
 33 70  2  0  0  0
 34 36  1  0  0  0
 34 59  1  0  0  0
 34107  1  0  0  0
 35 44  2  0  0  0
 35 45  1  0  0  0
 35 68  1  0  0  0
 36 56  1  0  0  0
 36108  1  0  0  0
 37 39  1  0  0  0
 37 47  1  0  0  0
 37 66  1  0  0  0
 37109  1  0  0  0
 38 43  2  0  0  0
 38 46  1  0  0  0
 38 47  1  0  0  0
 39 64  1  0  0  0
 39 67  2  0  0  0
 40 52  1  0  0  0
 40 53  2  0  0  0
 40 58  1  0  0  0
 41110  1  0  0  0
 41111  1  0  0  0
 41112  1  0  0  0
 41 48  1  0  0  0
 42 43  1  0  0  0
 42 66  1  0  0  0
 42113  1  0  0  0
 42114  1  0  0  0
 43 44  1  0  0  0
 44115  1  0  0  0
 45 46  2  0  0  0
 45116  1  0  0  0
 46117  1  0  0  0
 47118  1  0  0  0
 47119  1  0  0  0
 48 56  1  0  0  0
 48 65  1  0  0  0
 48120  1  0  0  0
 49 50  1  0  0  0
 49 53  1  0  0  0
 49 64  1  0  0  0
 49121  1  0  0  0
 50 51  1  0  0  0
 50122  1  0  0  0
 50123  1  0  0  0
 51 52  1  0  0  0
 51124  1  0  0  0
 51125  1  0  0  0
 52126  1  0  0  0
 52127  1  0  0  0
 53 54  1  0  0  0
 54 55  2  0  0  0
 54128  1  0  0  0
 55 57  1  0  0  0
 55129  1  0  0  0
 56 69  2  0  0  0
 57 58  2  0  0  0
 57130  1  0  0  0
 58131  1  0  0  0
 59 60  1  0  0  0
 59 61  1  0  0  0
 59 62  1  0  0  0
 60132  1  0  0  0
 60133  1  0  0  0
 60134  1  0  0  0
 61135  1  0  0  0
 61136  1  0  0  0
 61137  1  0  0  0
 62138  1  0  0  0
 62139  1  0  0  0
 62140  1  0  0  0
 63 65  1  0  0  0
 63141  1  0  0  0
 63142  1  0  0  0
 63143  1  0  0  0
 64144  1  0  0  0
 65145  1  0  0  0
 68 78  1  0  0  0
 71 74  2  0  0  0
 71 75  1  0  0  0
 71146  1  0  0  0
 72 74  1  0  0  0
 72 76  2  0  0  0
 72147  1  0  0  0
 73 75  2  0  0  0
 73 76  1  0  0  0
 73148  1  0  0  0
 74 80  1  0  0  0
 75 81  1  0  0  0
 76 82  1  0  0  0
 77 78  2  0  0  0
 77 79  1  0  0  0
 77149  1  0  0  0
 78150  1  0  0  0
 79 81  1  0  0  0
 79 83  2  0  0  0
 80 84  1  0  0  0
 80 85  1  0  0  0
 80 86  1  0  0  0
 81151  1  0  0  0
 82152  1  0  0  0
M  ISO  4   1 100  68 101  78 101  82 100
M  END
> <chiral flag>
0

> <version>
0

> <s_m_source_file>
/data/baiqing/PycharmProjects/Reinvent-master-3.2/result/LINK_invent/BTK/process_docking_weight1_custom_product_contain_oxygen_bond_distance_aromatic_linkinvent_7_9_3/rearranged_h_0065.sdf

> <i_m_source_file_index>
36

> <r_mmod_Potential_Energy-OPLS-2005>
534.96142578125

> <r_mmod_Stretch_Energy-OPLS-2005>
151.827819824219

> <r_mmod_Bend_Energy-OPLS-2005>
389.999450683594

> <r_mmod_Torsional_Energy-OPLS-2005>
315.859375

> <r_mmod_Improper_Torsional_Energy-OPLS-2005>
33.1028442382812

> <r_mmod_Van_der_Waal_Energy-OPLS-2005>
148.564025878906

> <r_mmod_Electrostatic_Energy-OPLS-2005>
-389.156646728516

> <r_mmod_Solvation_Energy-OPLS-2005>
-225.672958374023

> <b_mmod_Minimization_Converged-OPLS-2005>
0

> <r_mmod_RMS_Derivative-OPLS-2005>
0.827149510383606

$$$$
36
                    3D
 Structure written by MMmdl.
158167  0  0  1  0            999 V2000
  -30.6546  -14.6463   20.5018 C   0  0  0  0  0  0
  -30.4257  -12.4034   19.4489 C   0  0  0  0  0  0
  -29.4994  -12.4998   18.2189 C   0  0  0  0  0  0
  -28.0244  -12.3384   18.6361 C   0  0  0  0  0  0
  -27.6449  -13.2242   19.8534 C   0  0  2  0  0  0
  -28.6913  -13.1162   20.9832 C   0  0  0  0  0  0
  -25.2527  -13.8191   20.5692 C   0  0  0  0  0  0
  -24.1811  -13.0444   20.9208 C   0  0  0  0  0  0
  -24.6391  -11.6917   20.8752 C   0  0  0  0  0  0
  -23.9066  -10.4295   21.0411 C   0  0  0  0  0  0
  -24.3619   -9.4209   21.9186 C   0  0  0  0  0  0
  -23.6295   -8.2243   22.0753 C   0  0  0  0  0  0
  -22.4277   -8.0282   21.3544 C   0  0  0  0  0  0
  -21.9913   -9.0255   20.4646 C   0  0  0  0  0  0
  -22.7240  -10.2135   20.3058 C   0  0  0  0  0  0
  -21.6853   -6.0737   22.5279 C   0  0  0  0  0  0
  -21.4014   -6.5640   23.8212 C   0  0  0  0  0  0
  -21.3660   -5.6792   24.9175 C   0  0  0  0  0  0
  -21.6044   -4.3056   24.7225 C   0  0  0  0  0  0
  -21.8818   -3.8147   23.4346 C   0  0  0  0  0  0
  -21.9193   -4.6964   22.3403 C   0  0  0  0  0  0
  -22.7832  -13.5229   21.1867 C   0  0  0  0  0  0
  -22.1661   -4.2150   21.0981 F   0  0  0  0  0  0
  -21.5629   -3.4539   25.7737 F   0  0  0  0  0  0
  -29.9982  -13.4477   20.4015 N   0  0  0  0  0  0
  -26.2950  -12.9384   20.3295 N   0  0  0  0  0  0
  -25.9317  -11.6532   20.5757 N   0  0  0  0  0  0
  -22.0479  -12.8216   22.0422 N   0  0  0  0  0  0
  -25.4222  -15.1914   20.4093 N   0  0  0  0  0  0
  -31.8380  -14.7446   20.1697 O   0  0  0  0  0  0
  -21.6641   -6.8879   21.4241 O   0  0  0  0  0  0
  -22.3516  -14.5535   20.6716 O   0  0  0  0  0  0
  -24.6271  -31.8592   23.2020 C   0  0  0  0  0  0
  -25.9116  -32.4775   23.8348 C   0  0  1  0  0  0
  -27.2209  -27.3072   20.1057 C   0  0  0  0  0  0
  -25.5933  -33.8577   24.2276 N   0  0  0  0  0  0
  -23.4196  -30.4846   21.5454 C   0  0  2  0  0  0
  -24.8625  -28.9380   20.1119 C   0  0  0  0  0  0
  -22.7473  -29.4628   22.4933 C   0  0  0  0  0  0
  -18.0287  -28.1384   22.8489 C   0  0  0  0  0  0
  -24.1490  -36.7289   23.2642 C   0  0  0  0  0  0
  -25.9622  -30.7862   21.3735 C   0  0  0  0  0  0
  -26.0331  -29.4131   20.7140 C   0  0  0  0  0  0
  -27.2116  -28.6088   20.7014 C   0  0  0  0  0  0
  -26.0147  -26.8796   19.5009 C   0  0  0  0  0  0
  -24.8557  -27.6769   19.5004 C   0  0  0  0  0  0
  -23.6334  -29.8214   20.1603 C   0  0  0  0  0  0
  -25.4119  -36.3081   24.0327 C   0  0  1  0  0  0
  -20.5887  -28.3689   23.1283 C   0  0  2  0  0  0
  -20.6777  -26.9412   22.5409 C   0  0  0  0  0  0
  -19.5751  -26.6384   21.5212 C   0  0  0  0  0  0
  -18.1931  -26.7926   22.1626 C   0  0  0  0  0  0
  -19.1539  -28.8853   23.2881 C   0  0  0  0  0  0
  -18.9464  -30.1457   23.8896 C   0  0  0  0  0  0
  -17.6464  -30.6589   24.0566 C   0  0  0  0  0  0
  -25.9053  -34.9450   23.5100 C   0  0  0  0  0  0
  -16.5354  -29.9088   23.6332 C   0  0  0  0  0  0
  -16.7274  -28.6505   23.0352 C   0  0  0  0  0  0
  -26.4497  -31.6587   25.0722 C   0  0  0  0  0  0
  -25.3731  -31.3726   26.1450 C   0  0  0  0  0  0
  -27.0340  -30.3011   24.6178 C   0  0  0  0  0  0
  -27.6053  -32.4323   25.7495 C   0  0  0  0  0  0
  -27.5571  -37.1814   24.8475 C   0  0  0  0  0  0
  -21.4186  -29.3045   22.3677 N   0  0  0  0  0  0
  -26.4299  -37.3771   23.9395 N   0  0  0  0  0  0
  -24.6888  -31.0601   22.0972 N   0  0  0  0  0  0
  -23.4197  -28.8164   23.3009 O   0  0  0  0  0  0
  -28.3664  -26.4912   20.1585 O   0  0  0  0  0  0
  -26.5620  -34.8918   22.4665 O   0  0  0  0  0  0
  -23.5433  -32.1393   23.7347 O   0  0  0  0  0  0
  -28.6365  -20.5989   20.8267 C   0  0  0  0  0  0
  -30.6792  -20.6267   19.5845 C   0  0  0  0  0  0
  -28.8525  -19.2110   21.1434 C   0  0  0  0  0  0
  -30.0143  -18.5054   20.6977 C   0  0  0  0  0  0
  -29.5488  -21.3661   20.0447 C   0  0  0  0  0  0
  -30.9055  -19.2582   19.8918 C   0  0  0  0  0  0
  -29.9800  -23.4859   18.7274 C   0  0  0  0  0  0
  -29.7054  -24.9882   18.7549 C   0  0  0  0  0  0
  -28.5214  -23.8107   20.4649 C   0  0  0  0  0  0
  -28.4322  -25.1235   19.5765 C   0  0  1  0  0  0
  -27.8394  -18.5030   22.0252 C   0  0  0  0  0  0
  -30.4786  -17.0975   21.2547 C   0  0  0  0  0  0
  -29.3695  -22.8118   19.7340 N   0  0  0  0  0  0
  -29.9240  -15.7622   20.8277 N   0  0  0  0  0  0
  -30.6734  -23.0030   17.8266 O   0  0  0  0  0  0
  -32.0457  -18.6813   19.4419 F   0  0  0  0  0  0
  -31.4675  -12.5172   19.1442 H   0  0  0  0  0  0
  -30.3552  -11.4171   19.9105 H   0  0  0  0  0  0
  -29.7653  -11.7382   17.4846 H   0  0  0  0  0  0
  -29.6388  -13.4631   17.7255 H   0  0  0  0  0  0
  -27.8666  -11.2876   18.8812 H   0  0  0  0  0  0
  -27.3671  -12.5541   17.7929 H   0  0  0  0  0  0
  -27.6528  -14.2537   19.4947 H   0  0  0  0  0  0
  -28.7082  -12.1083   21.4004 H   0  0  0  0  0  0
  -28.4405  -13.7820   21.8104 H   0  0  0  0  0  0
  -25.2763   -9.5686   22.4760 H   0  0  0  0  0  0
  -24.0006   -7.4634   22.7470 H   0  0  0  0  0  0
  -21.0845   -8.8774   19.8951 H   0  0  0  0  0  0
  -22.3698  -10.9675   19.6168 H   0  0  0  0  0  0
  -21.2005   -7.6147   23.9716 H   0  0  0  0  0  0
  -21.1483   -6.0523   25.9078 H   0  0  0  0  0  0
  -22.0598   -2.7610   23.2846 H   0  0  0  0  0  0
  -22.4099  -11.9876   22.4806 H   0  0  0  0  0  0
  -21.1096  -13.1235   22.2631 H   0  0  0  0  0  0
  -24.6500  -15.8411   20.5097 H   0  0  0  0  0  0
  -26.2603  -15.6280   20.0479 H   0  0  0  0  0  0
  -26.7180  -32.5435   23.1090 H   0  0  0  0  0  0
  -25.0092  -33.9723   25.0429 H   0  0  0  0  0  0
  -22.7142  -31.3060   21.4035 H   0  0  0  0  0  0
  -23.3743  -35.9635   23.3343 H   0  0  0  0  0  0
  -24.3567  -36.8867   22.2047 H   0  0  0  0  0  0
  -23.7263  -37.6511   23.6639 H   0  0  0  0  0  0
  -26.0958  -31.5503   20.6063 H   0  0  0  0  0  0
  -26.8420  -30.8325   22.0038 H   0  0  0  0  0  0
  -28.1120  -28.9727   21.1765 H   0  0  0  0  0  0
  -25.9045  -25.9138   19.0380 H   0  0  0  0  0  0
  -23.9533  -27.3017   19.0374 H   0  0  0  0  0  0
  -23.7564  -30.5989   19.4054 H   0  0  0  0  0  0
  -22.7516  -29.2546   19.8556 H   0  0  0  0  0  0
  -25.1304  -36.1937   25.0821 H   0  0  0  0  0  0
  -20.9983  -28.3263   24.1401 H   0  0  0  0  0  0
  -20.5679  -26.2299   23.3608 H   0  0  0  0  0  0
  -21.6645  -26.7443   22.1201 H   0  0  0  0  0  0
  -19.6915  -25.6295   21.1240 H   0  0  0  0  0  0
  -19.6689  -27.3199   20.6746 H   0  0  0  0  0  0
  -17.4201  -26.6679   21.4029 H   0  0  0  0  0  0
  -18.0332  -26.0063   22.9019 H   0  0  0  0  0  0
  -19.7941  -30.7275   24.2261 H   0  0  0  0  0  0
  -17.5020  -31.6268   24.5170 H   0  0  0  0  0  0
  -15.5356  -30.2993   23.7654 H   0  0  0  0  0  0
  -15.8673  -28.0828   22.7064 H   0  0  0  0  0  0
  -24.5909  -30.7069   25.7784 H   0  0  0  0  0  0
  -24.8921  -32.2893   26.4875 H   0  0  0  0  0  0
  -25.8058  -30.8909   27.0227 H   0  0  0  0  0  0
  -26.2914  -29.6763   24.1200 H   0  0  0  0  0  0
  -27.4035  -29.7264   25.4681 H   0  0  0  0  0  0
  -27.8784  -30.4296   23.9403 H   0  0  0  0  0  0
  -27.2660  -33.3623   26.2070 H   0  0  0  0  0  0
  -28.3868  -32.6884   25.0328 H   0  0  0  0  0  0
  -28.0717  -31.8451   26.5415 H   0  0  0  0  0  0
  -28.2630  -38.0070   24.7459 H   0  0  0  0  0  0
  -28.1023  -36.2596   24.6385 H   0  0  0  0  0  0
  -27.2276  -37.1565   25.8877 H   0  0  0  0  0  0
  -20.9360  -29.8774   21.6895 H   0  0  0  0  0  0
  -26.0181  -38.2854   24.1361 H   0  0  0  0  0  0
  -27.7515  -21.0870   21.2114 H   0  0  0  0  0  0
  -31.4527  -21.1042   19.0049 H   0  0  0  0  0  0
  -29.5955  -25.4012   17.7523 H   0  0  0  0  0  0
  -30.5443  -25.4839   19.2433 H   0  0  0  0  0  0
  -27.5290  -23.4135   20.6773 H   0  0  0  0  0  0
  -28.9991  -24.0324   21.4197 H   0  0  0  0  0  0
  -27.6429  -24.9581   18.8499 H   0  0  0  0  0  0
  -26.9147  -19.0746   22.1095 H   0  0  0  0  0  0
  -28.2390  -18.3610   23.0295 H   0  0  0  0  0  0
  -27.5842  -17.5258   21.6146 H   0  0  0  0  0  0
  -30.3269  -17.1398   22.3335 H   0  0  0  0  0  0
  -31.5647  -17.0619   21.1609 H   0  0  0  0  0  0
  -28.9401  -15.6140   20.9884 H   0  0  0  0  0  0
  1 25  1  0  0  0
  1 30  2  0  0  0
  1 84  1  0  0  0
  2  3  1  0  0  0
  2 25  1  0  0  0
  2 87  1  0  0  0
  2 88  1  0  0  0
  3  4  1  0  0  0
  3 89  1  0  0  0
  3 90  1  0  0  0
  4  5  1  0  0  0
  4 91  1  0  0  0
  4 92  1  0  0  0
  5  6  1  0  0  0
  5 26  1  0  0  0
  5 93  1  0  0  0
  6 25  1  0  0  0
  6 94  1  0  0  0
  6 95  1  0  0  0
  7  8  2  0  0  0
  7 26  1  0  0  0
  7 29  1  0  0  0
  8  9  1  0  0  0
  8 22  1  0  0  0
  9 10  1  0  0  0
  9 27  2  0  0  0
 10 11  2  0  0  0
 10 15  1  0  0  0
 11 12  1  0  0  0
 11 96  1  0  0  0
 12 13  2  0  0  0
 12 97  1  0  0  0
 13 14  1  0  0  0
 13 31  1  0  0  0
 14 15  2  0  0  0
 14 98  1  0  0  0
 15 99  1  0  0  0
 16 17  2  0  0  0
 16 21  1  0  0  0
 16 31  1  0  0  0
 17 18  1  0  0  0
 17100  1  0  0  0
 18 19  2  0  0  0
 18101  1  0  0  0
 19 20  1  0  0  0
 19 24  1  0  0  0
 20 21  2  0  0  0
 20102  1  0  0  0
 21 23  1  0  0  0
 22 28  1  0  0  0
 22 32  2  0  0  0
 26 27  1  0  0  0
 28103  1  0  0  0
 28104  1  0  0  0
 29105  1  0  0  0
 29106  1  0  0  0
 33 34  1  0  0  0
 33 66  1  0  0  0
 33 70  2  0  0  0
 34 36  1  0  0  0
 34 59  1  0  0  0
 34107  1  0  0  0
 35 44  2  0  0  0
 35 45  1  0  0  0
 35 68  1  0  0  0
 36 56  1  0  0  0
 36108  1  0  0  0
 37 39  1  0  0  0
 37 47  1  0  0  0
 37 66  1  0  0  0
 37109  1  0  0  0
 38 43  2  0  0  0
 38 46  1  0  0  0
 38 47  1  0  0  0
 39 64  1  0  0  0
 39 67  2  0  0  0
 40 52  1  0  0  0
 40 53  2  0  0  0
 40 58  1  0  0  0
 41110  1  0  0  0
 41111  1  0  0  0
 41112  1  0  0  0
 41 48  1  0  0  0
 42 43  1  0  0  0
 42 66  1  0  0  0
 42113  1  0  0  0
 42114  1  0  0  0
 43 44  1  0  0  0
 44115  1  0  0  0
 45 46  2  0  0  0
 45116  1  0  0  0
 46117  1  0  0  0
 47118  1  0  0  0
 47119  1  0  0  0
 48 56  1  0  0  0
 48 65  1  0  0  0
 48120  1  0  0  0
 49 50  1  0  0  0
 49 53  1  0  0  0
 49 64  1  0  0  0
 49121  1  0  0  0
 50 51  1  0  0  0
 50122  1  0  0  0
 50123  1  0  0  0
 51 52  1  0  0  0
 51124  1  0  0  0
 51125  1  0  0  0
 52126  1  0  0  0
 52127  1  0  0  0
 53 54  1  0  0  0
 54 55  2  0  0  0
 54128  1  0  0  0
 55 57  1  0  0  0
 55129  1  0  0  0
 56 69  2  0  0  0
 57 58  2  0  0  0
 57130  1  0  0  0
 58131  1  0  0  0
 59 60  1  0  0  0
 59 61  1  0  0  0
 59 62  1  0  0  0
 60132  1  0  0  0
 60133  1  0  0  0
 60134  1  0  0  0
 61135  1  0  0  0
 61136  1  0  0  0
 61137  1  0  0  0
 62138  1  0  0  0
 62139  1  0  0  0
 62140  1  0  0  0
 63 65  1  0  0  0
 63141  1  0  0  0
 63142  1  0  0  0
 63143  1  0  0  0
 64144  1  0  0  0
 65145  1  0  0  0
 68 80  1  0  0  0
 71 73  2  0  0  0
 71 75  1  0  0  0
 71146  1  0  0  0
 72 75  2  0  0  0
 72 76  1  0  0  0
 72147  1  0  0  0
 73 74  1  0  0  0
 73 81  1  0  0  0
 74 76  2  0  0  0
 74 82  1  0  0  0
 75 83  1  0  0  0
 76 86  1  0  0  0
 77 78  1  0  0  0
 77 83  1  0  0  0
 77 85  2  0  0  0
 78 80  1  0  0  0
 78148  1  0  0  0
 78149  1  0  0  0
 79 80  1  0  0  0
 79 83  1  0  0  0
 79150  1  0  0  0
 79151  1  0  0  0
 80152  1  0  0  0
 81153  1  0  0  0
 81154  1  0  0  0
 81155  1  0  0  0
 82 84  1  0  0  0
 82156  1  0  0  0
 82157  1  0  0  0
 84158  1  0  0  0
M  ISO  4   1 100  68 101  80 101  84 100
M  END
> <chiral flag>
0

> <version>
0

> <s_m_source_file>
/data/baiqing/PycharmProjects/Reinvent-master-3.2/result/LINK_invent/BTK/process_docking_weight1_custom_product_contain_oxygen_bond_distance_aromatic_linkinvent_7_9_3/rearranged_h_0065.sdf

> <i_m_source_file_index>
37

> <r_mmod_Potential_Energy-OPLS-2005>
134.758102416992

> <r_mmod_Stretch_Energy-OPLS-2005>
90.0406188964844

> <r_mmod_Bend_Energy-OPLS-2005>
190.1552734375

> <r_mmod_Torsional_Energy-OPLS-2005>
251.38020324707

> <r_mmod_Improper_Torsional_Energy-OPLS-2005>
5.63471746444702

> <r_mmod_Van_der_Waal_Energy-OPLS-2005>
149.244262695312

> <r_mmod_Electrostatic_Energy-OPLS-2005>
-376.951171875

> <r_mmod_Solvation_Energy-OPLS-2005>
-226.419174194336

> <b_mmod_Minimization_Converged-OPLS-2005>
0

> <r_mmod_RMS_Derivative-OPLS-2005>
0.265972524881363

$$$$
37
                    3D
 Structure written by MMmdl.
158167  0  0  1  0            999 V2000
  -30.6054  -14.6583   20.5112 C   0  0  0  0  0  0
  -30.4453  -12.4093   19.4519 C   0  0  0  0  0  0
  -29.5119  -12.5329   18.2254 C   0  0  0  0  0  0
  -28.0344  -12.3614   18.6322 C   0  0  0  0  0  0
  -27.6567  -13.2182   19.8694 C   0  0  2  0  0  0
  -28.7027  -13.0580   20.9969 C   0  0  0  0  0  0
  -25.2553  -13.8171   20.5650 C   0  0  0  0  0  0
  -24.1827  -13.0428   20.9172 C   0  0  0  0  0  0
  -24.6409  -11.6906   20.8740 C   0  0  0  0  0  0
  -23.9080  -10.4289   21.0412 C   0  0  0  0  0  0
  -24.3630   -9.4197   21.9185 C   0  0  0  0  0  0
  -23.6300   -8.2236   22.0759 C   0  0  0  0  0  0
  -22.4277   -8.0281   21.3551 C   0  0  0  0  0  0
  -21.9915   -9.0256   20.4647 C   0  0  0  0  0  0
  -22.7255  -10.2131   20.3056 C   0  0  0  0  0  0
  -21.6850   -6.0735   22.5282 C   0  0  0  0  0  0
  -21.4018   -6.5640   23.8215 C   0  0  0  0  0  0
  -21.3662   -5.6796   24.9176 C   0  0  0  0  0  0
  -21.6039   -4.3058   24.7229 C   0  0  0  0  0  0
  -21.8820   -3.8148   23.4352 C   0  0  0  0  0  0
  -21.9192   -4.6962   22.3405 C   0  0  0  0  0  0
  -22.7846  -13.5216   21.1839 C   0  0  0  0  0  0
  -22.1657   -4.2144   21.0983 F   0  0  0  0  0  0
  -21.5627   -3.4544   25.7744 F   0  0  0  0  0  0
  -30.0190  -13.4184   20.4417 N   0  0  0  0  0  0
  -26.3005  -12.9360   20.3339 N   0  0  0  0  0  0
  -25.9344  -11.6508   20.5768 N   0  0  0  0  0  0
  -22.0505  -12.8212   22.0412 N   0  0  0  0  0  0
  -25.4220  -15.1895   20.4014 N   0  0  0  0  0  0
  -31.7473  -14.8555   20.0831 O   0  0  0  0  0  0
  -21.6640   -6.8881   21.4245 O   0  0  0  0  0  0
  -22.3522  -14.5518   20.6690 O   0  0  0  0  0  0
  -24.6254  -31.8602   23.2029 C   0  0  0  0  0  0
  -25.9116  -32.4771   23.8345 C   0  0  1  0  0  0
  -27.2182  -27.3140   20.1100 C   0  0  0  0  0  0
  -25.5933  -33.8570   24.2258 N   0  0  0  0  0  0
  -23.4182  -30.4846   21.5461 C   0  0  2  0  0  0
  -24.8619  -28.9410   20.1082 C   0  0  0  0  0  0
  -22.7475  -29.4608   22.4929 C   0  0  0  0  0  0
  -18.0284  -28.1377   22.8482 C   0  0  0  0  0  0
  -24.1499  -36.7298   23.2643 C   0  0  0  0  0  0
  -25.9608  -30.7851   21.3787 C   0  0  0  0  0  0
  -26.0311  -29.4139   20.7176 C   0  0  0  0  0  0
  -27.2086  -28.6096   20.7146 C   0  0  0  0  0  0
  -26.0299  -26.9038   19.4621 C   0  0  0  0  0  0
  -24.8632  -27.6900   19.4742 C   0  0  0  0  0  0
  -23.6333  -29.8254   20.1592 C   0  0  0  0  0  0
  -25.4121  -36.3069   24.0327 C   0  0  1  0  0  0
  -20.5885  -28.3681   23.1285 C   0  0  2  0  0  0
  -20.6780  -26.9406   22.5412 C   0  0  0  0  0  0
  -19.5754  -26.6376   21.5216 C   0  0  0  0  0  0
  -18.1928  -26.7921   22.1616 C   0  0  0  0  0  0
  -19.1537  -28.8848   23.2878 C   0  0  0  0  0  0
  -18.9469  -30.1451   23.8895 C   0  0  0  0  0  0
  -17.6472  -30.6595   24.0555 C   0  0  0  0  0  0
  -25.9059  -34.9447   23.5089 C   0  0  0  0  0  0
  -16.5360  -29.9095   23.6328 C   0  0  0  0  0  0
  -16.7274  -28.6508   23.0345 C   0  0  0  0  0  0
  -26.4500  -31.6591   25.0725 C   0  0  0  0  0  0
  -25.3724  -31.3770   26.1451 C   0  0  0  0  0  0
  -27.0339  -30.3000   24.6202 C   0  0  0  0  0  0
  -27.6032  -32.4353   25.7512 C   0  0  0  0  0  0
  -27.5579  -37.1807   24.8465 C   0  0  0  0  0  0
  -21.4187  -29.3039   22.3694 N   0  0  0  0  0  0
  -26.4288  -37.3771   23.9415 N   0  0  0  0  0  0
  -24.6866  -31.0614   22.0981 N   0  0  0  0  0  0
  -23.4204  -28.8124   23.2987 O   0  0  0  0  0  0
  -28.3374  -26.4665   20.1772 O   0  0  0  0  0  0
  -26.5642  -34.8916   22.4662 O   0  0  0  0  0  0
  -23.5420  -32.1408   23.7360 O   0  0  0  0  0  0
  -30.3336  -19.3810   19.9578 C   0  0  0  0  0  0
  -28.7130  -19.2211   21.7185 C   0  0  0  0  0  0
  -30.5112  -17.9533   19.9936 C   0  0  0  0  0  0
  -28.8703  -17.8086   21.7373 C   0  0  0  0  0  0
  -29.4316  -20.0657   20.8299 C   0  0  0  0  0  0
  -29.7767  -17.1252   20.8909 C   0  0  0  0  0  0
  -29.2621  -22.5066   19.9562 C   0  0  0  0  0  0
  -28.8196  -23.6812   21.9817 C   0  0  0  0  0  0
  -29.0697  -22.1795   22.2230 C   0  0  0  0  0  0
  -29.2085  -23.9819   20.5250 C   0  0  1  0  0  0
  -30.6301  -24.5776   20.4443 C   0  0  0  0  0  0
  -28.2007  -25.0227   19.8471 C   0  0  0  0  0  0
  -29.2721  -21.5356   20.9225 N   0  0  0  0  0  0
  -29.7964  -15.6605   20.9809 N   0  0  0  0  0  0
  -29.3117  -22.2866   18.7422 O   0  0  0  0  0  0
  -31.4856  -12.5435   19.1510 H   0  0  0  0  0  0
  -30.3864  -11.4086   19.8837 H   0  0  0  0  0  0
  -29.7819  -11.7973   17.4669 H   0  0  0  0  0  0
  -29.6479  -13.5115   17.7623 H   0  0  0  0  0  0
  -27.8688  -11.3062   18.8497 H   0  0  0  0  0  0
  -27.3818  -12.6073   17.7929 H   0  0  0  0  0  0
  -27.6782  -14.2576   19.5399 H   0  0  0  0  0  0
  -28.7192  -12.0293   21.3613 H   0  0  0  0  0  0
  -28.4401  -13.6699   21.8607 H   0  0  0  0  0  0
  -25.2782   -9.5665   22.4748 H   0  0  0  0  0  0
  -24.0003   -7.4632   22.7486 H   0  0  0  0  0  0
  -21.0843   -8.8786   19.8963 H   0  0  0  0  0  0
  -22.3726  -10.9668   19.6158 H   0  0  0  0  0  0
  -21.2019   -7.6152   23.9718 H   0  0  0  0  0  0
  -21.1479   -6.0527   25.9079 H   0  0  0  0  0  0
  -22.0597   -2.7607   23.2857 H   0  0  0  0  0  0
  -22.4136  -11.9867   22.4788 H   0  0  0  0  0  0
  -21.1129  -13.1232   22.2647 H   0  0  0  0  0  0
  -24.6422  -15.8342   20.4746 H   0  0  0  0  0  0
  -26.2638  -15.6297   20.0523 H   0  0  0  0  0  0
  -26.7175  -32.5438   23.1083 H   0  0  0  0  0  0
  -25.0063  -33.9707   25.0386 H   0  0  0  0  0  0
  -22.7098  -31.3044   21.4076 H   0  0  0  0  0  0
  -23.3745  -35.9644   23.3303 H   0  0  0  0  0  0
  -24.3577  -36.8927   22.2055 H   0  0  0  0  0  0
  -23.7258  -37.6494   23.6676 H   0  0  0  0  0  0
  -26.1037  -31.5507   20.6152 H   0  0  0  0  0  0
  -26.8372  -30.8259   22.0139 H   0  0  0  0  0  0
  -28.1018  -28.9628   21.2121 H   0  0  0  0  0  0
  -25.9688  -25.9598   18.9417 H   0  0  0  0  0  0
  -23.9697  -27.3235   18.9880 H   0  0  0  0  0  0
  -23.7583  -30.6095   19.4113 H   0  0  0  0  0  0
  -22.7497  -29.2634   19.8510 H   0  0  0  0  0  0
  -25.1293  -36.1915   25.0815 H   0  0  0  0  0  0
  -20.9970  -28.3263   24.1408 H   0  0  0  0  0  0
  -20.5711  -26.2286   23.3609 H   0  0  0  0  0  0
  -21.6647  -26.7454   22.1186 H   0  0  0  0  0  0
  -19.6926  -25.6288   21.1245 H   0  0  0  0  0  0
  -19.6701  -27.3186   20.6748 H   0  0  0  0  0  0
  -17.4203  -26.6666   21.4016 H   0  0  0  0  0  0
  -18.0322  -26.0062   22.9013 H   0  0  0  0  0  0
  -19.7959  -30.7256   24.2253 H   0  0  0  0  0  0
  -17.5046  -31.6270   24.5163 H   0  0  0  0  0  0
  -15.5367  -30.3007   23.7664 H   0  0  0  0  0  0
  -15.8661  -28.0847   22.7056 H   0  0  0  0  0  0
  -24.5882  -30.7125   25.7813 H   0  0  0  0  0  0
  -24.8943  -32.2962   26.4849 H   0  0  0  0  0  0
  -25.8040  -30.8972   27.0246 H   0  0  0  0  0  0
  -26.2914  -29.6752   24.1217 H   0  0  0  0  0  0
  -27.4006  -29.7250   25.4716 H   0  0  0  0  0  0
  -27.8803  -30.4257   23.9436 H   0  0  0  0  0  0
  -27.2591  -33.3661   26.2045 H   0  0  0  0  0  0
  -28.3864  -32.6926   25.0366 H   0  0  0  0  0  0
  -28.0671  -31.8519   26.5473 H   0  0  0  0  0  0
  -28.2585  -38.0118   24.7502 H   0  0  0  0  0  0
  -28.1078  -36.2635   24.6288 H   0  0  0  0  0  0
  -27.2300  -37.1457   25.8871 H   0  0  0  0  0  0
  -20.9351  -29.8792   21.6941 H   0  0  0  0  0  0
  -26.0160  -38.2843   24.1418 H   0  0  0  0  0  0
  -30.9310  -19.9535   19.2605 H   0  0  0  0  0  0
  -28.0020  -19.6449   22.4107 H   0  0  0  0  0  0
  -31.2149  -17.4977   19.3094 H   0  0  0  0  0  0
  -28.2687  -17.2414   22.4337 H   0  0  0  0  0  0
  -29.3631  -24.3008   22.6956 H   0  0  0  0  0  0
  -27.7611  -23.8889   22.1451 H   0  0  0  0  0  0
  -28.2244  -21.7555   22.7634 H   0  0  0  0  0  0
  -29.9627  -22.0324   22.8325 H   0  0  0  0  0  0
  -31.3922  -23.8797   20.7936 H   0  0  0  0  0  0
  -30.7060  -25.4824   21.0490 H   0  0  0  0  0  0
  -30.8822  -24.8577   19.4211 H   0  0  0  0  0  0
  -27.1996  -24.6726   20.0982 H   0  0  0  0  0  0
  -28.2796  -24.9380   18.7617 H   0  0  0  0  0  0
  -28.9703  -15.2789   21.4163 H   0  0  0  0  0  0
  1 25  1  0  0  0
  1 30  2  0  0  0
  1 84  1  0  0  0
  2  3  1  0  0  0
  2 25  1  0  0  0
  2 86  1  0  0  0
  2 87  1  0  0  0
  3  4  1  0  0  0
  3 88  1  0  0  0
  3 89  1  0  0  0
  4  5  1  0  0  0
  4 90  1  0  0  0
  4 91  1  0  0  0
  5  6  1  0  0  0
  5 26  1  0  0  0
  5 92  1  0  0  0
  6 25  1  0  0  0
  6 93  1  0  0  0
  6 94  1  0  0  0
  7  8  2  0  0  0
  7 26  1  0  0  0
  7 29  1  0  0  0
  8  9  1  0  0  0
  8 22  1  0  0  0
  9 10  1  0  0  0
  9 27  2  0  0  0
 10 11  2  0  0  0
 10 15  1  0  0  0
 11 12  1  0  0  0
 11 95  1  0  0  0
 12 13  2  0  0  0
 12 96  1  0  0  0
 13 14  1  0  0  0
 13 31  1  0  0  0
 14 15  2  0  0  0
 14 97  1  0  0  0
 15 98  1  0  0  0
 16 17  2  0  0  0
 16 21  1  0  0  0
 16 31  1  0  0  0
 17 18  1  0  0  0
 17 99  1  0  0  0
 18 19  2  0  0  0
 18100  1  0  0  0
 19 20  1  0  0  0
 19 24  1  0  0  0
 20 21  2  0  0  0
 20101  1  0  0  0
 21 23  1  0  0  0
 22 28  1  0  0  0
 22 32  2  0  0  0
 26 27  1  0  0  0
 28102  1  0  0  0
 28103  1  0  0  0
 29104  1  0  0  0
 29105  1  0  0  0
 33 34  1  0  0  0
 33 66  1  0  0  0
 33 70  2  0  0  0
 34 36  1  0  0  0
 34 59  1  0  0  0
 34106  1  0  0  0
 35 44  2  0  0  0
 35 45  1  0  0  0
 35 68  1  0  0  0
 36 56  1  0  0  0
 36107  1  0  0  0
 37 39  1  0  0  0
 37 47  1  0  0  0
 37 66  1  0  0  0
 37108  1  0  0  0
 38 43  2  0  0  0
 38 46  1  0  0  0
 38 47  1  0  0  0
 39 64  1  0  0  0
 39 67  2  0  0  0
 40 52  1  0  0  0
 40 53  2  0  0  0
 40 58  1  0  0  0
 41109  1  0  0  0
 41110  1  0  0  0
 41111  1  0  0  0
 41 48  1  0  0  0
 42 43  1  0  0  0
 42 66  1  0  0  0
 42112  1  0  0  0
 42113  1  0  0  0
 43 44  1  0  0  0
 44114  1  0  0  0
 45 46  2  0  0  0
 45115  1  0  0  0
 46116  1  0  0  0
 47117  1  0  0  0
 47118  1  0  0  0
 48 56  1  0  0  0
 48 65  1  0  0  0
 48119  1  0  0  0
 49 50  1  0  0  0
 49 53  1  0  0  0
 49 64  1  0  0  0
 49120  1  0  0  0
 50 51  1  0  0  0
 50121  1  0  0  0
 50122  1  0  0  0
 51 52  1  0  0  0
 51123  1  0  0  0
 51124  1  0  0  0
 52125  1  0  0  0
 52126  1  0  0  0
 53 54  1  0  0  0
 54 55  2  0  0  0
 54127  1  0  0  0
 55 57  1  0  0  0
 55128  1  0  0  0
 56 69  2  0  0  0
 57 58  2  0  0  0
 57129  1  0  0  0
 58130  1  0  0  0
 59 60  1  0  0  0
 59 61  1  0  0  0
 59 62  1  0  0  0
 60131  1  0  0  0
 60132  1  0  0  0
 60133  1  0  0  0
 61134  1  0  0  0
 61135  1  0  0  0
 61136  1  0  0  0
 62137  1  0  0  0
 62138  1  0  0  0
 62139  1  0  0  0
 63 65  1  0  0  0
 63140  1  0  0  0
 63141  1  0  0  0
 63142  1  0  0  0
 64143  1  0  0  0
 65144  1  0  0  0
 68 82  1  0  0  0
 71 73  2  0  0  0
 71 75  1  0  0  0
 71145  1  0  0  0
 72 74  1  0  0  0
 72 75  2  0  0  0
 72146  1  0  0  0
 73 76  1  0  0  0
 73147  1  0  0  0
 74 76  2  0  0  0
 74148  1  0  0  0
 75 83  1  0  0  0
 76 84  1  0  0  0
 77 80  1  0  0  0
 77 83  1  0  0  0
 77 85  2  0  0  0
 78 79  1  0  0  0
 78 80  1  0  0  0
 78149  1  0  0  0
 78150  1  0  0  0
 79 83  1  0  0  0
 79151  1  0  0  0
 79152  1  0  0  0
 80 81  1  0  0  0
 80 82  1  0  0  0
 81153  1  0  0  0
 81154  1  0  0  0
 81155  1  0  0  0
 82156  1  0  0  0
 82157  1  0  0  0
 84158  1  0  0  0
M  ISO  4   1 100  68 101  82 101  84 100
M  END
> <chiral flag>
0

> <version>
0

> <s_m_source_file>
/data/baiqing/PycharmProjects/Reinvent-master-3.2/result/LINK_invent/BTK/process_docking_weight1_custom_product_contain_oxygen_bond_distance_aromatic_linkinvent_7_9_3/rearranged_h_0065.sdf

> <i_m_source_file_index>
38

> <r_mmod_Potential_Energy-OPLS-2005>
183.160629272461

> <r_mmod_Stretch_Energy-OPLS-2005>
85.9887390136719

> <r_mmod_Bend_Energy-OPLS-2005>
174.380157470703

> <r_mmod_Torsional_Energy-OPLS-2005>
282.3369140625

> <r_mmod_Improper_Torsional_Energy-OPLS-2005>
3.57776832580566

> <r_mmod_Van_der_Waal_Energy-OPLS-2005>
142.29557800293

> <r_mmod_Electrostatic_Energy-OPLS-2005>
-340.944641113281

> <r_mmod_Solvation_Energy-OPLS-2005>
-217.589508056641

> <b_mmod_Minimization_Converged-OPLS-2005>
0

> <r_mmod_RMS_Derivative-OPLS-2005>
1.92943513393402

$$$$
38
                    3D
 Structure written by MMmdl.
163172  0  0  1  0            999 V2000
  -30.5947  -14.5328   20.4996 C   0  0  0  0  0  0
  -30.4455  -12.3424   19.3938 C   0  0  0  0  0  0
  -29.4836  -12.4890   18.1965 C   0  0  0  0  0  0
  -28.0092  -12.3248   18.6250 C   0  0  0  0  0  0
  -27.6423  -13.1873   19.8596 C   0  0  2  0  0  0
  -28.6978  -12.9867   20.9715 C   0  0  0  0  0  0
  -25.2495  -13.8112   20.5693 C   0  0  0  0  0  0
  -24.1774  -13.0433   20.9258 C   0  0  0  0  0  0
  -24.6300  -11.6887   20.8800 C   0  0  0  0  0  0
  -23.8964  -10.4288   21.0452 C   0  0  0  0  0  0
  -24.3522   -9.4194   21.9209 C   0  0  0  0  0  0
  -23.6244   -8.2213   22.0732 C   0  0  0  0  0  0
  -22.4230   -8.0234   21.3524 C   0  0  0  0  0  0
  -21.9846   -9.0220   20.4633 C   0  0  0  0  0  0
  -22.7146  -10.2113   20.3096 C   0  0  0  0  0  0
  -21.6830   -6.0692   22.5265 C   0  0  0  0  0  0
  -21.4006   -6.5618   23.8188 C   0  0  0  0  0  0
  -21.3663   -5.6766   24.9162 C   0  0  0  0  0  0
  -21.6057   -4.3039   24.7205 C   0  0  0  0  0  0
  -21.8827   -3.8117   23.4339 C   0  0  0  0  0  0
  -21.9196   -4.6934   22.3387 C   0  0  0  0  0  0
  -22.7786  -13.5208   21.1921 C   0  0  0  0  0  0
  -22.1660   -4.2118   21.0969 F   0  0  0  0  0  0
  -21.5634   -3.4531   25.7727 F   0  0  0  0  0  0
  -30.0131  -13.3146   20.4009 N   0  0  0  0  0  0
  -26.2903  -12.9235   20.3341 N   0  0  0  0  0  0
  -25.9210  -11.6431   20.5785 N   0  0  0  0  0  0
  -22.0428  -12.8242   22.0489 N   0  0  0  0  0  0
  -25.4239  -15.1843   20.4038 N   0  0  0  0  0  0
  -31.7927  -14.7367   20.2839 O   0  0  0  0  0  0
  -21.6618   -6.8835   21.4219 O   0  0  0  0  0  0
  -22.3486  -14.5510   20.6724 O   0  0  0  0  0  0
  -24.6175  -31.8645   23.2089 C   0  0  0  0  0  0
  -25.9065  -32.4787   23.8352 C   0  0  1  0  0  0
  -27.2091  -27.3647   20.1331 C   0  0  0  0  0  0
  -25.5932  -33.8588   24.2290 N   0  0  0  0  0  0
  -23.4019  -30.4924   21.5506 C   0  0  2  0  0  0
  -24.8414  -28.9415   20.1199 C   0  0  0  0  0  0
  -22.7411  -29.4670   22.4976 C   0  0  0  0  0  0
  -18.0230  -28.1387   22.8395 C   0  0  0  0  0  0
  -24.1488  -36.7310   23.2647 C   0  0  0  0  0  0
  -25.9362  -30.8099   21.3682 C   0  0  0  0  0  0
  -26.0079  -29.4375   20.7191 C   0  0  0  0  0  0
  -27.1966  -28.6622   20.7071 C   0  0  0  0  0  0
  -26.0299  -26.9055   19.5071 C   0  0  0  0  0  0
  -24.8555  -27.6808   19.5045 C   0  0  0  0  0  0
  -23.6075  -29.8200   20.1664 C   0  0  0  0  0  0
  -25.4122  -36.3118   24.0364 C   0  0  1  0  0  0
  -20.5848  -28.3668   23.1192 C   0  0  2  0  0  0
  -20.6758  -26.9403   22.5269 C   0  0  0  0  0  0
  -19.5681  -26.6377   21.5085 C   0  0  0  0  0  0
  -18.1872  -26.7928   22.1540 C   0  0  0  0  0  0
  -19.1498  -28.8830   23.2782 C   0  0  0  0  0  0
  -18.9454  -30.1412   23.8846 C   0  0  0  0  0  0
  -17.6474  -30.6538   24.0560 C   0  0  0  0  0  0
  -25.9069  -34.9471   23.5141 C   0  0  0  0  0  0
  -16.5339  -29.9057   23.6341 C   0  0  0  0  0  0
  -16.7216  -28.6476   23.0324 C   0  0  0  0  0  0
  -26.4446  -31.6578   25.0691 C   0  0  0  0  0  0
  -25.3697  -31.3666   26.1423 C   0  0  0  0  0  0
  -27.0310  -30.3023   24.6117 C   0  0  0  0  0  0
  -27.6017  -32.4295   25.7429 C   0  0  0  0  0  0
  -27.5589  -37.1821   24.8493 C   0  0  0  0  0  0
  -21.4168  -29.3026   22.3624 N   0  0  0  0  0  0
  -26.4311  -37.3800   23.9431 N   0  0  0  0  0  0
  -24.6701  -31.0720   22.0986 N   0  0  0  0  0  0
  -23.4147  -28.8283   23.3093 O   0  0  0  0  0  0
  -28.3646  -26.6010   20.1208 O   0  0  0  0  0  0
  -26.5611  -34.8943   22.4684 O   0  0  0  0  0  0
  -23.5372  -32.1445   23.7474 O   0  0  0  0  0  0
  -29.5941  -16.6920   22.5533 C   0  0  0  0  0  0
  -29.1411  -17.9436   20.5161 C   0  0  0  0  0  0
  -29.2169  -17.8164   23.3102 C   0  0  0  0  0  0
  -28.7948  -19.0211   22.6746 C   0  0  0  0  0  0
  -28.7682  -19.1223   21.2413 C   0  0  0  0  0  0
  -29.5425  -16.7368   21.1496 C   0  0  0  0  0  0
  -27.6373  -21.7755   18.8027 C   0  0  0  0  0  0
  -27.7189  -20.3263   19.3090 C   0  0  0  0  0  0
  -28.5113  -21.7493   20.9678 C   0  0  0  0  0  0
  -28.4090  -22.6965   19.7333 C   0  0  2  0  0  0
  -29.2435  -17.6741   24.8286 C   0  0  0  0  0  0
  -28.3201  -20.1534   23.5757 C   0  0  0  0  0  0
  -27.7156  -24.1163   19.8361 C   0  0  0  0  0  0
  -28.3421  -25.2610   20.6952 C   0  0  0  0  0  0
  -28.3507  -20.3339   20.5106 N   0  0  0  0  0  0
  -29.6820  -15.5288   20.4012 N   0  0  0  0  0  0
  -27.0033  -22.1532   17.8076 O   0  0  0  0  0  0
  -27.2451  -19.3585   18.7000 O   0  0  0  0  0  0
  -31.4705  -12.5224   19.0640 H   0  0  0  0  0  0
  -30.4295  -11.3272   19.7914 H   0  0  0  0  0  0
  -29.7296  -11.7475   17.4350 H   0  0  0  0  0  0
  -29.6218  -13.4699   17.7385 H   0  0  0  0  0  0
  -27.8573  -11.2689   18.8472 H   0  0  0  0  0  0
  -27.3389  -12.5558   17.7981 H   0  0  0  0  0  0
  -27.6563  -14.2253   19.5290 H   0  0  0  0  0  0
  -28.6913  -11.9527   21.3215 H   0  0  0  0  0  0
  -28.4715  -13.6080   21.8422 H   0  0  0  0  0  0
  -25.2682   -9.5679   22.4756 H   0  0  0  0  0  0
  -23.9982   -7.4604   22.7421 H   0  0  0  0  0  0
  -21.0799   -8.8736   19.8902 H   0  0  0  0  0  0
  -22.3636  -10.9647   19.6185 H   0  0  0  0  0  0
  -21.1980   -7.6128   23.9681 H   0  0  0  0  0  0
  -21.1479   -6.0502   25.9052 H   0  0  0  0  0  0
  -22.0607   -2.7583   23.2843 H   0  0  0  0  0  0
  -22.4002  -11.9932   22.4981 H   0  0  0  0  0  0
  -21.0991  -13.1209   22.2537 H   0  0  0  0  0  0
  -24.6651  -15.8459   20.5296 H   0  0  0  0  0  0
  -26.2675  -15.6239   20.0629 H   0  0  0  0  0  0
  -26.7127  -32.5469   23.1098 H   0  0  0  0  0  0
  -25.0108  -33.9759   25.0445 H   0  0  0  0  0  0
  -22.6942  -31.3137   21.4141 H   0  0  0  0  0  0
  -23.3768  -35.9615   23.3311 H   0  0  0  0  0  0
  -24.3543  -36.8909   22.2052 H   0  0  0  0  0  0
  -23.7239  -37.6531   23.6617 H   0  0  0  0  0  0
  -26.0753  -31.5628   20.5920 H   0  0  0  0  0  0
  -26.8147  -30.8453   22.0000 H   0  0  0  0  0  0
  -28.1033  -29.0472   21.1546 H   0  0  0  0  0  0
  -25.9984  -25.9566   18.9957 H   0  0  0  0  0  0
  -23.9663  -27.3022   19.0216 H   0  0  0  0  0  0
  -23.7381  -30.5889   19.4042 H   0  0  0  0  0  0
  -22.7163  -29.2622   19.8661 H   0  0  0  0  0  0
  -25.1288  -36.1972   25.0858 H   0  0  0  0  0  0
  -20.9891  -28.3200   24.1324 H   0  0  0  0  0  0
  -21.6646  -26.7477   22.1073 H   0  0  0  0  0  0
  -20.5584  -26.2209   23.3391 H   0  0  0  0  0  0
  -19.6773  -25.6277   21.1165 H   0  0  0  0  0  0
  -19.6581  -27.3142   20.6568 H   0  0  0  0  0  0
  -17.4143  -26.6609   21.3962 H   0  0  0  0  0  0
  -18.0335  -26.0062   22.8915 H   0  0  0  0  0  0
  -19.7992  -30.7159   24.2192 H   0  0  0  0  0  0
  -17.5104  -31.6163   24.5267 H   0  0  0  0  0  0
  -15.5353  -30.2943   23.7773 H   0  0  0  0  0  0
  -15.8568  -28.0842   22.7079 H   0  0  0  0  0  0
  -24.5890  -30.7011   25.7732 H   0  0  0  0  0  0
  -24.8874  -32.2797   26.4898 H   0  0  0  0  0  0
  -25.8032  -30.8797   27.0167 H   0  0  0  0  0  0
  -26.2860  -29.6718   24.1255 H   0  0  0  0  0  0
  -27.4177  -29.7322   25.4574 H   0  0  0  0  0  0
  -27.8636  -30.4343   23.9212 H   0  0  0  0  0  0
  -27.2661  -33.3609   26.1984 H   0  0  0  0  0  0
  -28.3786  -32.6829   25.0214 H   0  0  0  0  0  0
  -28.0707  -31.8438   26.5338 H   0  0  0  0  0  0
  -28.2658  -38.0072   24.7509 H   0  0  0  0  0  0
  -28.1039  -36.2616   24.6342 H   0  0  0  0  0  0
  -27.2301  -37.1520   25.8897 H   0  0  0  0  0  0
  -20.9496  -29.8698   21.6697 H   0  0  0  0  0  0
  -26.0219  -38.2897   24.1345 H   0  0  0  0  0  0
  -29.8533  -15.7662   23.0556 H   0  0  0  0  0  0
  -29.0988  -17.9333   19.4360 H   0  0  0  0  0  0
  -27.6957  -22.0377   21.6251 H   0  0  0  0  0  0
  -29.4510  -21.8642   21.5070 H   0  0  0  0  0  0
  -29.4071  -22.8265   19.3106 H   0  0  0  0  0  0
  -29.4872  -16.6597   25.1336 H   0  0  0  0  0  0
  -28.2798  -17.9064   25.2820 H   0  0  0  0  0  0
  -29.9962  -18.3341   25.2579 H   0  0  0  0  0  0
  -27.9475  -19.8201   24.5401 H   0  0  0  0  0  0
  -27.4722  -20.6799   23.1581 H   0  0  0  0  0  0
  -29.1322  -20.8455   23.7781 H   0  0  0  0  0  0
  -26.6629  -23.9966   20.1001 H   0  0  0  0  0  0
  -27.7145  -24.5050   18.8201 H   0  0  0  0  0  0
  -27.8858  -25.2988   21.6889 H   0  0  0  0  0  0
  -29.3853  -24.9966   20.8492 H   0  0  0  0  0  0
  -28.8017  -15.1719   20.0672 H   0  0  0  0  0  0
  1 25  1  0  0  0
  1 30  2  0  0  0
  1 86  1  0  0  0
  2  3  1  0  0  0
  2 25  1  0  0  0
  2 89  1  0  0  0
  2 90  1  0  0  0
  3  4  1  0  0  0
  3 91  1  0  0  0
  3 92  1  0  0  0
  4  5  1  0  0  0
  4 93  1  0  0  0
  4 94  1  0  0  0
  5  6  1  0  0  0
  5 26  1  0  0  0
  5 95  1  0  0  0
  6 25  1  0  0  0
  6 96  1  0  0  0
  6 97  1  0  0  0
  7  8  2  0  0  0
  7 26  1  0  0  0
  7 29  1  0  0  0
  8  9  1  0  0  0
  8 22  1  0  0  0
  9 10  1  0  0  0
  9 27  2  0  0  0
 10 11  2  0  0  0
 10 15  1  0  0  0
 11 12  1  0  0  0
 11 98  1  0  0  0
 12 13  2  0  0  0
 12 99  1  0  0  0
 13 14  1  0  0  0
 13 31  1  0  0  0
 14 15  2  0  0  0
 14100  1  0  0  0
 15101  1  0  0  0
 16 17  2  0  0  0
 16 21  1  0  0  0
 16 31  1  0  0  0
 17 18  1  0  0  0
 17102  1  0  0  0
 18 19  2  0  0  0
 18103  1  0  0  0
 19 20  1  0  0  0
 19 24  1  0  0  0
 20 21  2  0  0  0
 20104  1  0  0  0
 21 23  1  0  0  0
 22 28  1  0  0  0
 22 32  2  0  0  0
 26 27  1  0  0  0
 28105  1  0  0  0
 28106  1  0  0  0
 29107  1  0  0  0
 29108  1  0  0  0
 33 34  1  0  0  0
 33 66  1  0  0  0
 33 70  2  0  0  0
 34 36  1  0  0  0
 34 59  1  0  0  0
 34109  1  0  0  0
 35 44  2  0  0  0
 35 45  1  0  0  0
 35 68  1  0  0  0
 36 56  1  0  0  0
 36110  1  0  0  0
 37 39  1  0  0  0
 37 47  1  0  0  0
 37 66  1  0  0  0
 37111  1  0  0  0
 38 43  2  0  0  0
 38 46  1  0  0  0
 38 47  1  0  0  0
 39 64  1  0  0  0
 39 67  2  0  0  0
 40 52  1  0  0  0
 40 53  2  0  0  0
 40 58  1  0  0  0
 41112  1  0  0  0
 41113  1  0  0  0
 41114  1  0  0  0
 41 48  1  0  0  0
 42 43  1  0  0  0
 42 66  1  0  0  0
 42115  1  0  0  0
 42116  1  0  0  0
 43 44  1  0  0  0
 44117  1  0  0  0
 45 46  2  0  0  0
 45118  1  0  0  0
 46119  1  0  0  0
 47120  1  0  0  0
 47121  1  0  0  0
 48 56  1  0  0  0
 48 65  1  0  0  0
 48122  1  0  0  0
 49 50  1  0  0  0
 49 53  1  0  0  0
 49 64  1  0  0  0
 49123  1  0  0  0
 50 51  1  0  0  0
 50124  1  0  0  0
 50125  1  0  0  0
 51 52  1  0  0  0
 51126  1  0  0  0
 51127  1  0  0  0
 52128  1  0  0  0
 52129  1  0  0  0
 53 54  1  0  0  0
 54 55  2  0  0  0
 54130  1  0  0  0
 55 57  1  0  0  0
 55131  1  0  0  0
 56 69  2  0  0  0
 57 58  2  0  0  0
 57132  1  0  0  0
 58133  1  0  0  0
 59 60  1  0  0  0
 59 61  1  0  0  0
 59 62  1  0  0  0
 60134  1  0  0  0
 60135  1  0  0  0
 60136  1  0  0  0
 61137  1  0  0  0
 61138  1  0  0  0
 61139  1  0  0  0
 62140  1  0  0  0
 62141  1  0  0  0
 62142  1  0  0  0
 63 65  1  0  0  0
 63143  1  0  0  0
 63144  1  0  0  0
 63145  1  0  0  0
 64146  1  0  0  0
 65147  1  0  0  0
 68 84  1  0  0  0
 71 73  2  0  0  0
 71 76  1  0  0  0
 71148  1  0  0  0
 72 75  1  0  0  0
 72 76  2  0  0  0
 72149  1  0  0  0
 73 74  1  0  0  0
 73 81  1  0  0  0
 74 75  2  0  0  0
 74 82  1  0  0  0
 75 85  1  0  0  0
 76 86  1  0  0  0
 77 78  1  0  0  0
 77 80  1  0  0  0
 77 87  2  0  0  0
 78 85  1  0  0  0
 78 88  2  0  0  0
 79 80  1  0  0  0
 79 85  1  0  0  0
 79150  1  0  0  0
 79151  1  0  0  0
 80 83  1  0  0  0
 80152  1  0  0  0
 81153  1  0  0  0
 81154  1  0  0  0
 81155  1  0  0  0
 82156  1  0  0  0
 82157  1  0  0  0
 82158  1  0  0  0
 83 84  1  0  0  0
 83159  1  0  0  0
 83160  1  0  0  0
 84161  1  0  0  0
 84162  1  0  0  0
 86163  1  0  0  0
M  ISO  4   1 100  68 101  84 101  86 100
M  END
> <chiral flag>
0

> <version>
0

> <s_m_source_file>
/data/baiqing/PycharmProjects/Reinvent-master-3.2/result/LINK_invent/BTK/process_docking_weight1_custom_product_contain_oxygen_bond_distance_aromatic_linkinvent_7_9_3/rearranged_h_0065.sdf

> <i_m_source_file_index>
39

> <r_mmod_Potential_Energy-OPLS-2005>
208.90837097168

> <r_mmod_Stretch_Energy-OPLS-2005>
60.0402603149414

> <r_mmod_Bend_Energy-OPLS-2005>
163.411193847656

> <r_mmod_Torsional_Energy-OPLS-2005>
317.487457275391

> <r_mmod_Improper_Torsional_Energy-OPLS-2005>
16.6071720123291

> <r_mmod_Van_der_Waal_Energy-OPLS-2005>
158.075805664062

> <r_mmod_Electrostatic_Energy-OPLS-2005>
-299.418823242188

> <r_mmod_Solvation_Energy-OPLS-2005>
-239.349822998047

> <b_mmod_Minimization_Converged-OPLS-2005>
0

> <r_mmod_RMS_Derivative-OPLS-2005>
7.32967090606689

$$$$
39
                    3D
 Structure written by MMmdl.
164173  0  0  1  0            999 V2000
  -30.7098  -14.4223   20.6035 C   0  0  0  0  0  0
  -30.4310  -12.2834   19.4141 C   0  0  0  0  0  0
  -29.5024  -12.5175   18.2035 C   0  0  0  0  0  0
  -28.0202  -12.3844   18.6111 C   0  0  0  0  0  0
  -27.6729  -13.1994   19.8854 C   0  0  2  0  0  0
  -28.7112  -12.9363   21.0006 C   0  0  0  0  0  0
  -25.2629  -13.8129   20.5632 C   0  0  0  0  0  0
  -24.1861  -13.0435   20.9137 C   0  0  0  0  0  0
  -24.6400  -11.6900   20.8713 C   0  0  0  0  0  0
  -23.9052  -10.4298   21.0396 C   0  0  0  0  0  0
  -24.3608   -9.4223   21.9178 C   0  0  0  0  0  0
  -23.6287   -8.2260   22.0751 C   0  0  0  0  0  0
  -22.4270   -8.0284   21.3543 C   0  0  0  0  0  0
  -21.9899   -9.0254   20.4651 C   0  0  0  0  0  0
  -22.7223  -10.2135   20.3055 C   0  0  0  0  0  0
  -21.6857   -6.0729   22.5272 C   0  0  0  0  0  0
  -21.4019   -6.5634   23.8209 C   0  0  0  0  0  0
  -21.3662   -5.6784   24.9172 C   0  0  0  0  0  0
  -21.6054   -4.3049   24.7215 C   0  0  0  0  0  0
  -21.8825   -3.8143   23.4337 C   0  0  0  0  0  0
  -21.9195   -4.6959   22.3395 C   0  0  0  0  0  0
  -22.7890  -13.5256   21.1811 C   0  0  0  0  0  0
  -22.1664   -4.2145   21.0972 F   0  0  0  0  0  0
  -21.5631   -3.4535   25.7729 F   0  0  0  0  0  0
  -30.0531  -13.2396   20.4657 N   0  0  0  0  0  0
  -26.3080  -12.9292   20.3388 N   0  0  0  0  0  0
  -25.9331  -11.6461   20.5754 N   0  0  0  0  0  0
  -22.0513  -12.8269   22.0369 N   0  0  0  0  0  0
  -25.4366  -15.1828   20.4006 N   0  0  0  0  0  0
  -31.7958  -14.6662   20.0693 O   0  0  0  0  0  0
  -21.6644   -6.8874   21.4239 O   0  0  0  0  0  0
  -22.3592  -14.5565   20.6661 O   0  0  0  0  0  0
  -24.6115  -31.8707   23.2144 C   0  0  0  0  0  0
  -25.9020  -32.4839   23.8438 C   0  0  1  0  0  0
  -27.2393  -27.4646   20.0819 C   0  0  0  0  0  0
  -25.5885  -33.8638   24.2363 N   0  0  0  0  0  0
  -23.3979  -30.4951   21.5541 C   0  0  2  0  0  0
  -24.8414  -28.9613   20.1200 C   0  0  0  0  0  0
  -22.7396  -29.4673   22.5018 C   0  0  0  0  0  0
  -18.0265  -28.1372   22.8496 C   0  0  0  0  0  0
  -24.1478  -36.7318   23.2641 C   0  0  0  0  0  0
  -25.9241  -30.8452   21.3623 C   0  0  0  0  0  0
  -26.0007  -29.4820   20.7064 C   0  0  0  0  0  0
  -27.1997  -28.7416   20.6817 C   0  0  0  0  0  0
  -26.0568  -26.9446   19.5044 C   0  0  0  0  0  0
  -24.8615  -27.6894   19.5222 C   0  0  0  0  0  0
  -23.6047  -29.8281   20.1682 C   0  0  0  0  0  0
  -25.4095  -36.3125   24.0352 C   0  0  1  0  0  0
  -20.5854  -28.3653   23.1327 C   0  0  2  0  0  0
  -20.6753  -26.9395   22.5414 C   0  0  0  0  0  0
  -19.5731  -26.6385   21.5210 C   0  0  0  0  0  0
  -18.1911  -26.7921   22.1624 C   0  0  0  0  0  0
  -19.1514  -28.8828   23.2910 C   0  0  0  0  0  0
  -18.9443  -30.1436   23.8916 C   0  0  0  0  0  0
  -17.6446  -30.6582   24.0563 C   0  0  0  0  0  0
  -25.9023  -34.9486   23.5156 C   0  0  0  0  0  0
  -16.5337  -29.9086   23.6319 C   0  0  0  0  0  0
  -16.7255  -28.6500   23.0347 C   0  0  0  0  0  0
  -26.4458  -31.6612   25.0761 C   0  0  0  0  0  0
  -25.3757  -31.3697   26.1536 C   0  0  0  0  0  0
  -27.0276  -30.3062   24.6112 C   0  0  0  0  0  0
  -27.6044  -32.4334   25.7507 C   0  0  0  0  0  0
  -27.5577  -37.1813   24.8471 C   0  0  0  0  0  0
  -21.4129  -29.3030   22.3751 N   0  0  0  0  0  0
  -26.4286  -37.3804   23.9421 N   0  0  0  0  0  0
  -24.6628  -31.0841   22.1021 N   0  0  0  0  0  0
  -23.4188  -28.8220   23.3049 O   0  0  0  0  0  0
  -28.4417  -26.7940   20.0851 O   0  0  0  0  0  0
  -26.5581  -34.8923   22.4715 O   0  0  0  0  0  0
  -23.5316  -32.1435   23.7562 O   0  0  0  0  0  0
  -33.7090  -22.6112   20.4373 C   0  0  0  0  0  0
  -33.7689  -21.3747   19.7719 C   0  0  0  0  0  0
  -27.5539  -18.0098   20.6384 C   0  0  0  0  0  0
  -32.5581  -23.4136   20.3346 C   0  0  0  0  0  0
  -28.2392  -16.9442   21.2489 C   0  0  0  0  0  0
  -32.6731  -20.9385   19.0057 C   0  0  0  0  0  0
  -30.1000  -17.2784   19.7210 C   0  0  0  0  0  0
  -28.1045  -18.6963   19.5315 C   0  0  0  0  0  0
  -29.4952  -16.5346   20.7638 C   0  0  0  0  0  0
  -31.4373  -22.9783   19.5832 C   0  0  0  0  0  0
  -31.5055  -21.7254   18.9178 C   0  0  0  0  0  0
  -29.4167  -18.3468   19.0942 C   0  0  0  0  0  0
  -27.2357  -19.7002   18.8211 C   0  0  0  0  0  0
  -29.8025  -24.8019   20.1521 C   0  0  0  0  0  0
  -28.4670  -25.4167   19.7102 C   0  0  0  0  0  0
  -26.6492  -20.6105   19.5875 N   0  0  0  0  0  0
  -30.2544  -23.7639   19.4260 N   0  0  0  0  0  0
  -30.0517  -15.3474   21.3188 N   0  0  0  0  0  0
  -27.0635  -19.6729   17.6033 O   0  0  0  0  0  0
  -30.3815  -25.2603   21.1416 O   0  0  0  0  0  0
  -30.1373  -21.1704   17.9326 S   0  0  0  0  0  0
  -30.2335  -19.1261   17.7156 S   0  0  0  0  0  0
  -31.4763  -12.3811   19.1147 H   0  0  0  0  0  0
  -30.3236  -11.2628   19.7852 H   0  0  0  0  0  0
  -29.7376  -11.8076   17.4097 H   0  0  0  0  0  0
  -29.6805  -13.5108   17.7872 H   0  0  0  0  0  0
  -27.8171  -11.3266   18.7822 H   0  0  0  0  0  0
  -27.3736  -12.6869   17.7856 H   0  0  0  0  0  0
  -27.7318  -14.2543   19.6184 H   0  0  0  0  0  0
  -28.6756  -11.8908   21.3091 H   0  0  0  0  0  0
  -28.4652  -13.5060   21.8975 H   0  0  0  0  0  0
  -25.2762   -9.5698   22.4732 H   0  0  0  0  0  0
  -24.0013   -7.4650   22.7469 H   0  0  0  0  0  0
  -21.0837   -8.8770   19.8955 H   0  0  0  0  0  0
  -22.3692  -10.9669   19.6152 H   0  0  0  0  0  0
  -21.2012   -7.6143   23.9715 H   0  0  0  0  0  0
  -21.1480   -6.0505   25.9072 H   0  0  0  0  0  0
  -22.0603   -2.7602   23.2831 H   0  0  0  0  0  0
  -22.4120  -11.9928   22.4763 H   0  0  0  0  0  0
  -21.1136  -13.1330   22.2557 H   0  0  0  0  0  0
  -24.6747  -15.8414   20.5125 H   0  0  0  0  0  0
  -26.2929  -15.6162   20.0776 H   0  0  0  0  0  0
  -26.7097  -32.5547   23.1213 H   0  0  0  0  0  0
  -25.0065  -33.9814   25.0528 H   0  0  0  0  0  0
  -22.6846  -31.3107   21.4175 H   0  0  0  0  0  0
  -23.3741  -35.9651   23.3317 H   0  0  0  0  0  0
  -24.3577  -36.8912   22.2052 H   0  0  0  0  0  0
  -23.7219  -37.6528   23.6633 H   0  0  0  0  0  0
  -26.0378  -31.6160   20.5985 H   0  0  0  0  0  0
  -26.8119  -30.8932   21.9816 H   0  0  0  0  0  0
  -28.0993  -29.1489   21.1222 H   0  0  0  0  0  0
  -26.0356  -25.9733   19.0329 H   0  0  0  0  0  0
  -23.9657  -27.2794   19.0770 H   0  0  0  0  0  0
  -23.7166  -30.6048   19.4104 H   0  0  0  0  0  0
  -22.7277  -29.2515   19.8696 H   0  0  0  0  0  0
  -25.1262  -36.2008   25.0845 H   0  0  0  0  0  0
  -20.9935  -28.3199   24.1453 H   0  0  0  0  0  0
  -20.5650  -26.2259   23.3594 H   0  0  0  0  0  0
  -21.6623  -26.7443   22.1206 H   0  0  0  0  0  0
  -19.6892  -25.6300   21.1225 H   0  0  0  0  0  0
  -19.6667  -27.3205   20.6747 H   0  0  0  0  0  0
  -17.4182  -26.6668   21.4026 H   0  0  0  0  0  0
  -18.0317  -26.0054   22.9013 H   0  0  0  0  0  0
  -19.7921  -30.7244   24.2296 H   0  0  0  0  0  0
  -17.5003  -31.6263   24.5164 H   0  0  0  0  0  0
  -15.5337  -30.2997   23.7627 H   0  0  0  0  0  0
  -15.8652  -28.0824   22.7053 H   0  0  0  0  0  0
  -24.5935  -30.7022   25.7907 H   0  0  0  0  0  0
  -24.8943  -32.2835   26.5028 H   0  0  0  0  0  0
  -25.8158  -30.8868   27.0275 H   0  0  0  0  0  0
  -26.2807  -29.6847   24.1161 H   0  0  0  0  0  0
  -27.4044  -29.7272   25.4558 H   0  0  0  0  0  0
  -27.8648  -30.4392   23.9256 H   0  0  0  0  0  0
  -27.2669  -33.3624   26.2113 H   0  0  0  0  0  0
  -28.3826  -32.6915   25.0314 H   0  0  0  0  0  0
  -28.0742  -31.8452   26.5398 H   0  0  0  0  0  0
  -28.2608  -38.0098   24.7514 H   0  0  0  0  0  0
  -28.1056  -36.2634   24.6295 H   0  0  0  0  0  0
  -27.2305  -37.1469   25.8876 H   0  0  0  0  0  0
  -20.9286  -29.8763   21.6987 H   0  0  0  0  0  0
  -26.0185  -38.2888   24.1420 H   0  0  0  0  0  0
  -34.5529  -22.9535   21.0205 H   0  0  0  0  0  0
  -34.6591  -20.7649   19.8391 H   0  0  0  0  0  0
  -26.5613  -18.2584   20.9868 H   0  0  0  0  0  0
  -32.5722  -24.3698   20.8350 H   0  0  0  0  0  0
  -27.7576  -16.4033   22.0519 H   0  0  0  0  0  0
  -32.7457  -19.9977   18.4817 H   0  0  0  0  0  0
  -31.0747  -17.0006   19.3482 H   0  0  0  0  0  0
  -27.6681  -24.8611   20.2020 H   0  0  0  0  0  0
  -28.3411  -25.3217   18.6304 H   0  0  0  0  0  0
  -26.8017  -20.6133   20.5845 H   0  0  0  0  0  0
  -26.0419  -21.3009   19.1731 H   0  0  0  0  0  0
  -29.6378  -23.4559   18.6862 H   0  0  0  0  0  0
  -29.4436  -14.9164   21.9986 H   0  0  0  0  0  0
  1 25  1  0  0  0
  1 30  2  0  0  0
  1 88  1  0  0  0
  2  3  1  0  0  0
  2 25  1  0  0  0
  2 93  1  0  0  0
  2 94  1  0  0  0
  3  4  1  0  0  0
  3 95  1  0  0  0
  3 96  1  0  0  0
  4  5  1  0  0  0
  4 97  1  0  0  0
  4 98  1  0  0  0
  5  6  1  0  0  0
  5 26  1  0  0  0
  5 99  1  0  0  0
  6 25  1  0  0  0
  6100  1  0  0  0
  6101  1  0  0  0
  7  8  2  0  0  0
  7 26  1  0  0  0
  7 29  1  0  0  0
  8  9  1  0  0  0
  8 22  1  0  0  0
  9 10  1  0  0  0
  9 27  2  0  0  0
 10 11  2  0  0  0
 10 15  1  0  0  0
 11 12  1  0  0  0
 11102  1  0  0  0
 12 13  2  0  0  0
 12103  1  0  0  0
 13 14  1  0  0  0
 13 31  1  0  0  0
 14 15  2  0  0  0
 14104  1  0  0  0
 15105  1  0  0  0
 16 17  2  0  0  0
 16 21  1  0  0  0
 16 31  1  0  0  0
 17 18  1  0  0  0
 17106  1  0  0  0
 18 19  2  0  0  0
 18107  1  0  0  0
 19 20  1  0  0  0
 19 24  1  0  0  0
 20 21  2  0  0  0
 20108  1  0  0  0
 21 23  1  0  0  0
 22 28  1  0  0  0
 22 32  2  0  0  0
 26 27  1  0  0  0
 28109  1  0  0  0
 28110  1  0  0  0
 29111  1  0  0  0
 29112  1  0  0  0
 33 34  1  0  0  0
 33 66  1  0  0  0
 33 70  2  0  0  0
 34 36  1  0  0  0
 34 59  1  0  0  0
 34113  1  0  0  0
 35 44  2  0  0  0
 35 45  1  0  0  0
 35 68  1  0  0  0
 36 56  1  0  0  0
 36114  1  0  0  0
 37 39  1  0  0  0
 37 47  1  0  0  0
 37 66  1  0  0  0
 37115  1  0  0  0
 38 43  2  0  0  0
 38 46  1  0  0  0
 38 47  1  0  0  0
 39 64  1  0  0  0
 39 67  2  0  0  0
 40 52  1  0  0  0
 40 53  2  0  0  0
 40 58  1  0  0  0
 41116  1  0  0  0
 41117  1  0  0  0
 41118  1  0  0  0
 41 48  1  0  0  0
 42 43  1  0  0  0
 42 66  1  0  0  0
 42119  1  0  0  0
 42120  1  0  0  0
 43 44  1  0  0  0
 44121  1  0  0  0
 45 46  2  0  0  0
 45122  1  0  0  0
 46123  1  0  0  0
 47124  1  0  0  0
 47125  1  0  0  0
 48 56  1  0  0  0
 48 65  1  0  0  0
 48126  1  0  0  0
 49 50  1  0  0  0
 49 53  1  0  0  0
 49 64  1  0  0  0
 49127  1  0  0  0
 50 51  1  0  0  0
 50128  1  0  0  0
 50129  1  0  0  0
 51 52  1  0  0  0
 51130  1  0  0  0
 51131  1  0  0  0
 52132  1  0  0  0
 52133  1  0  0  0
 53 54  1  0  0  0
 54 55  2  0  0  0
 54134  1  0  0  0
 55 57  1  0  0  0
 55135  1  0  0  0
 56 69  2  0  0  0
 57 58  2  0  0  0
 57136  1  0  0  0
 58137  1  0  0  0
 59 60  1  0  0  0
 59 61  1  0  0  0
 59 62  1  0  0  0
 60138  1  0  0  0
 60139  1  0  0  0
 60140  1  0  0  0
 61141  1  0  0  0
 61142  1  0  0  0
 61143  1  0  0  0
 62144  1  0  0  0
 62145  1  0  0  0
 62146  1  0  0  0
 63 65  1  0  0  0
 63147  1  0  0  0
 63148  1  0  0  0
 63149  1  0  0  0
 64150  1  0  0  0
 65151  1  0  0  0
 68 85  1  0  0  0
 71 72  2  0  0  0
 71 74  1  0  0  0
 71152  1  0  0  0
 72 76  1  0  0  0
 72153  1  0  0  0
 73 75  2  0  0  0
 73 78  1  0  0  0
 73154  1  0  0  0
 74 80  2  0  0  0
 74155  1  0  0  0
 75 79  1  0  0  0
 75156  1  0  0  0
 76 81  2  0  0  0
 76157  1  0  0  0
 77 79  2  0  0  0
 77 82  1  0  0  0
 77158  1  0  0  0
 78 82  2  0  0  0
 78 83  1  0  0  0
 79 88  1  0  0  0
 80 81  1  0  0  0
 80 87  1  0  0  0
 81 91  1  0  0  0
 82 92  1  0  0  0
 83 86  1  0  0  0
 83 89  2  0  0  0
 84 85  1  0  0  0
 84 87  1  0  0  0
 84 90  2  0  0  0
 85159  1  0  0  0
 85160  1  0  0  0
 86161  1  0  0  0
 86162  1  0  0  0
 87163  1  0  0  0
 88164  1  0  0  0
 91 92  1  0  0  0
M  ISO  4   1 100  68 101  85 101  88 100
M  END
> <chiral flag>
0

> <version>
0

> <s_m_source_file>
/data/baiqing/PycharmProjects/Reinvent-master-3.2/result/LINK_invent/BTK/process_docking_weight1_custom_product_contain_oxygen_bond_distance_aromatic_linkinvent_7_9_3/rearranged_h_0065.sdf

> <i_m_source_file_index>
40

> <r_mmod_Potential_Energy-OPLS-2005>
-186.393295288086

> <r_mmod_Stretch_Energy-OPLS-2005>
38.2569198608398

> <r_mmod_Bend_Energy-OPLS-2005>
111.700172424316

> <r_mmod_Torsional_Energy-OPLS-2005>
229.65446472168

> <r_mmod_Improper_Torsional_Energy-OPLS-2005>
6.64297103881836

> <r_mmod_Van_der_Waal_Energy-OPLS-2005>
174.005950927734

> <r_mmod_Electrostatic_Energy-OPLS-2005>
-473.083374023438

> <r_mmod_Solvation_Energy-OPLS-2005>
-282.587371826172

> <b_mmod_Minimization_Converged-OPLS-2005>
0

> <r_mmod_RMS_Derivative-OPLS-2005>
1.88452124595642

$$$$
40
                    3D
 Structure written by MMmdl.
164173  0  0  1  0            999 V2000
  -30.4538  -15.0525   20.3928 C   0  0  0  0  0  0
  -30.4554  -12.6603   19.4818 C   0  0  0  0  0  0
  -29.5301  -12.5251   18.2499 C   0  0  0  0  0  0
  -28.0623  -12.3036   18.6699 C   0  0  0  0  0  0
  -27.6212  -13.2453   19.8207 C   0  0  2  0  0  0
  -28.6678  -13.3043   20.9487 C   0  0  0  0  0  0
  -25.2440  -13.8187   20.5655 C   0  0  0  0  0  0
  -24.1765  -13.0430   20.9237 C   0  0  0  0  0  0
  -24.6376  -11.6916   20.8762 C   0  0  0  0  0  0
  -23.9056  -10.4287   21.0408 C   0  0  0  0  0  0
  -24.3608   -9.4197   21.9178 C   0  0  0  0  0  0
  -23.6292   -8.2230   22.0738 C   0  0  0  0  0  0
  -22.4276   -8.0266   21.3522 C   0  0  0  0  0  0
  -21.9894   -9.0248   20.4636 C   0  0  0  0  0  0
  -22.7220  -10.2134   20.3053 C   0  0  0  0  0  0
  -21.6864   -6.0719   22.5270 C   0  0  0  0  0  0
  -21.4025   -6.5623   23.8201 C   0  0  0  0  0  0
  -21.3662   -5.6771   24.9154 C   0  0  0  0  0  0
  -21.6053   -4.3035   24.7213 C   0  0  0  0  0  0
  -21.8821   -3.8129   23.4330 C   0  0  0  0  0  0
  -21.9195   -4.6946   22.3386 C   0  0  0  0  0  0
  -22.7788  -13.5214   21.1901 C   0  0  0  0  0  0
  -22.1657   -4.2131   21.0963 F   0  0  0  0  0  0
  -21.5625   -3.4516   25.7731 F   0  0  0  0  0  0
  -29.9169  -13.7629   20.3277 N   0  0  0  0  0  0
  -26.2847  -12.9406   20.3157 N   0  0  0  0  0  0
  -25.9303  -11.6549   20.5707 N   0  0  0  0  0  0
  -22.0422  -12.8230   22.0468 N   0  0  0  0  0  0
  -25.4062  -15.1903   20.3970 N   0  0  0  0  0  0
  -31.6830  -15.1448   20.2799 O   0  0  0  0  0  0
  -21.6632   -6.8867   21.4237 O   0  0  0  0  0  0
  -22.3471  -14.5500   20.6720 O   0  0  0  0  0  0
  -24.6488  -31.8372   23.1801 C   0  0  0  0  0  0
  -25.9228  -32.4665   23.8221 C   0  0  1  0  0  0
  -27.2235  -27.0736   20.1612 C   0  0  0  0  0  0
  -25.5940  -33.8466   24.2141 N   0  0  0  0  0  0
  -23.4553  -30.4528   21.5297 C   0  0  2  0  0  0
  -24.9037  -28.8530   20.1247 C   0  0  0  0  0  0
  -22.7579  -29.4521   22.4863 C   0  0  0  0  0  0
  -18.0297  -28.1392   22.8480 C   0  0  0  0  0  0
  -24.1486  -36.7224   23.2642 C   0  0  0  0  0  0
  -26.0147  -30.6916   21.3838 C   0  0  0  0  0  0
  -26.0867  -29.2930   20.7310 C   0  0  0  0  0  0
  -27.2488  -28.4233   20.7199 C   0  0  0  0  0  0
  -26.0058  -26.7345   19.5381 C   0  0  0  0  0  0
  -24.8769  -27.5882   19.5145 C   0  0  0  0  0  0
  -23.6861  -29.7678   20.1568 C   0  0  0  0  0  0
  -25.4122  -36.3009   24.0314 C   0  0  1  0  0  0
  -20.5913  -28.3728   23.1229 C   0  0  2  0  0  0
  -20.6786  -26.9428   22.5407 C   0  0  0  0  0  0
  -19.5764  -26.6375   21.5214 C   0  0  0  0  0  0
  -18.1945  -26.7929   22.1625 C   0  0  0  0  0  0
  -19.1556  -28.8877   23.2846 C   0  0  0  0  0  0
  -18.9475  -30.1468   23.8885 C   0  0  0  0  0  0
  -17.6474  -30.6604   24.0549 C   0  0  0  0  0  0
  -25.9076  -34.9389   23.5045 C   0  0  0  0  0  0
  -16.5365  -29.9100   23.6328 C   0  0  0  0  0  0
  -16.7281  -28.6503   23.0377 C   0  0  0  0  0  0
  -26.4519  -31.6553   25.0689 C   0  0  0  0  0  0
  -25.3681  -31.3761   26.1373 C   0  0  0  0  0  0
  -27.0374  -30.2932   24.6306 C   0  0  0  0  0  0
  -27.6047  -32.4310   25.7484 C   0  0  0  0  0  0
  -27.5569  -37.1766   24.8463 C   0  0  0  0  0  0
  -21.4269  -29.3042   22.3598 N   0  0  0  0  0  0
  -26.4274  -37.3739   23.9415 N   0  0  0  0  0  0
  -24.7273  -31.0171   22.0860 N   0  0  0  0  0  0
  -23.4186  -28.8082   23.3047 O   0  0  0  0  0  0
  -28.3003  -26.0969   20.1254 O   0  0  0  0  0  0
  -26.5695  -34.8907   22.4643 O   0  0  0  0  0  0
  -23.5590  -32.1276   23.6995 O   0  0  0  0  0  0
  -29.5836  -19.0038   20.1311 C   0  0  0  0  0  0
  -28.1454  -17.6537   21.5057 C   0  0  0  0  0  0
  -27.8293  -20.1425   21.4286 C   0  0  0  0  0  0
  -28.9124  -20.3094   20.5196 C   0  0  0  0  0  0
  -29.2405  -17.6237   20.6187 C   0  0  0  0  0  0
  -27.4512  -18.8350   21.8820 C   0  0  0  0  0  0
  -30.6068  -22.0168   19.8574 C   0  0  0  0  0  0
  -30.8047  -23.2507   18.9959 C   0  0  0  0  0  0
  -29.3925  -23.5354   18.4956 C   0  0  0  0  0  0
  -28.5091  -23.1101   19.6717 C   0  0  2  0  0  0
  -27.1130  -21.3972   21.9355 C   0  0  0  0  0  0
  -26.6692  -19.0655   24.6500 C   0  0  0  0  0  0
  -28.2262  -24.5670   20.5476 C   0  0  0  0  0  0
  -29.3097  -21.7749   20.1286 N   0  0  0  0  0  0
  -29.5794  -16.1717   20.1501 N   0  0  0  0  0  0
  -31.5698  -21.3463   20.2444 O   0  0  0  0  0  0
  -24.9378  -19.4648   22.6355 O   0  0  0  0  0  0
  -25.7560  -17.1309   23.0974 O   0  0  0  0  0  0
  -26.0491  -18.5706   23.0094 S   0  0  0  0  0  0
  -31.4731  -12.8756   19.1543 H   0  0  0  0  0  0
  -30.5059  -11.7273   20.0434 H   0  0  0  0  0  0
  -29.8670  -11.7031   17.6183 H   0  0  0  0  0  0
  -29.6014  -13.4264   17.6395 H   0  0  0  0  0  0
  -27.9646  -11.2657   18.9878 H   0  0  0  0  0  0
  -27.4025  -12.4189   17.8092 H   0  0  0  0  0  0
  -27.5669  -14.2377   19.3743 H   0  0  0  0  0  0
  -28.7879  -12.3320   21.4309 H   0  0  0  0  0  0
  -28.3550  -14.0025   21.7254 H   0  0  0  0  0  0
  -25.2748   -9.5691   22.4747 H   0  0  0  0  0  0
  -23.9999   -7.4628   22.7465 H   0  0  0  0  0  0
  -21.0815   -8.8775   19.8960 H   0  0  0  0  0  0
  -22.3664  -10.9673   19.6172 H   0  0  0  0  0  0
  -21.2020   -7.6134   23.9704 H   0  0  0  0  0  0
  -21.1489   -6.0488   25.9056 H   0  0  0  0  0  0
  -22.0606   -2.7594   23.2818 H   0  0  0  0  0  0
  -22.4035  -11.9939   22.4953 H   0  0  0  0  0  0
  -21.1036  -13.1267   22.2622 H   0  0  0  0  0  0
  -24.6462  -15.8400   20.5634 H   0  0  0  0  0  0
  -26.2322  -15.6363   20.0270 H   0  0  0  0  0  0
  -26.7291  -32.5253   23.0945 H   0  0  0  0  0  0
  -25.0009  -33.9563   25.0239 H   0  0  0  0  0  0
  -22.7618  -31.2799   21.3650 H   0  0  0  0  0  0
  -23.3778  -35.9524   23.3285 H   0  0  0  0  0  0
  -24.3556  -36.8881   22.2055 H   0  0  0  0  0  0
  -23.7211  -37.6398   23.6698 H   0  0  0  0  0  0
  -26.1713  -31.4393   20.6065 H   0  0  0  0  0  0
  -26.8839  -30.7498   22.0269 H   0  0  0  0  0  0
  -28.1618  -28.7645   21.1869 H   0  0  0  0  0  0
  -25.9171  -25.7639   19.0710 H   0  0  0  0  0  0
  -23.9680  -27.2410   19.0422 H   0  0  0  0  0  0
  -23.8351  -30.5334   19.3952 H   0  0  0  0  0  0
  -22.7993  -29.2145   19.8446 H   0  0  0  0  0  0
  -25.1316  -36.1821   25.0807 H   0  0  0  0  0  0
  -20.9998  -28.3329   24.1352 H   0  0  0  0  0  0
  -20.5679  -26.2344   23.3633 H   0  0  0  0  0  0
  -21.6656  -26.7437   22.1210 H   0  0  0  0  0  0
  -19.6934  -25.6277   21.1271 H   0  0  0  0  0  0
  -19.6708  -27.3166   20.6729 H   0  0  0  0  0  0
  -17.4211  -26.6664   21.4032 H   0  0  0  0  0  0
  -18.0357  -26.0080   22.9030 H   0  0  0  0  0  0
  -19.7952  -30.7268   24.2278 H   0  0  0  0  0  0
  -17.5038  -31.6294   24.5138 H   0  0  0  0  0  0
  -15.5372  -30.3008   23.7656 H   0  0  0  0  0  0
  -15.8674  -28.0806   22.7137 H   0  0  0  0  0  0
  -24.5868  -30.7110   25.7675 H   0  0  0  0  0  0
  -24.8863  -32.2951   26.4717 H   0  0  0  0  0  0
  -25.7936  -30.8969   27.0204 H   0  0  0  0  0  0
  -26.2992  -29.6659   24.1298 H   0  0  0  0  0  0
  -27.3942  -29.7229   25.4897 H   0  0  0  0  0  0
  -27.8927  -30.4139   23.9656 H   0  0  0  0  0  0
  -27.2652  -33.3635   26.2004 H   0  0  0  0  0  0
  -28.3902  -32.6829   25.0346 H   0  0  0  0  0  0
  -28.0680  -31.8470   26.5450 H   0  0  0  0  0  0
  -28.2576  -38.0073   24.7528 H   0  0  0  0  0  0
  -28.1078  -36.2604   24.6277 H   0  0  0  0  0  0
  -27.2284  -37.1396   25.8864 H   0  0  0  0  0  0
  -20.9501  -29.8713   21.6731 H   0  0  0  0  0  0
  -26.0138  -38.2797   24.1459 H   0  0  0  0  0  0
  -30.3800  -19.0690   19.4033 H   0  0  0  0  0  0
  -27.7735  -16.7115   21.8801 H   0  0  0  0  0  0
  -31.5063  -23.0617   18.1840 H   0  0  0  0  0  0
  -31.1830  -24.0640   19.6156 H   0  0  0  0  0  0
  -29.1791  -22.9128   17.6237 H   0  0  0  0  0  0
  -29.2476  -24.5721   18.1896 H   0  0  0  0  0  0
  -27.5493  -22.7938   19.2633 H   0  0  0  0  0  0
  -27.8247  -22.1818   22.1840 H   0  0  0  0  0  0
  -26.5397  -21.2614   22.8453 H   0  0  0  0  0  0
  -26.4252  -21.7771   21.1810 H   0  0  0  0  0  0
  -27.5210  -18.4393   24.9015 H   0  0  0  0  0  0
  -25.8797  -18.9297   25.3857 H   0  0  0  0  0  0
  -26.9833  -20.1037   24.6386 H   0  0  0  0  0  0
  -28.9346  -24.5197   21.3743 H   0  0  0  0  0  0
  -27.2617  -24.4428   21.0400 H   0  0  0  0  0  0
  -28.7203  -15.7315   19.8638 H   0  0  0  0  0  0
  1 25  1  0  0  0
  1 30  2  0  0  0
  1 85  1  0  0  0
  2  3  1  0  0  0
  2 25  1  0  0  0
  2 90  1  0  0  0
  2 91  1  0  0  0
  3  4  1  0  0  0
  3 92  1  0  0  0
  3 93  1  0  0  0
  4  5  1  0  0  0
  4 94  1  0  0  0
  4 95  1  0  0  0
  5  6  1  0  0  0
  5 26  1  0  0  0
  5 96  1  0  0  0
  6 25  1  0  0  0
  6 97  1  0  0  0
  6 98  1  0  0  0
  7  8  2  0  0  0
  7 26  1  0  0  0
  7 29  1  0  0  0
  8  9  1  0  0  0
  8 22  1  0  0  0
  9 10  1  0  0  0
  9 27  2  0  0  0
 10 11  2  0  0  0
 10 15  1  0  0  0
 11 12  1  0  0  0
 11 99  1  0  0  0
 12 13  2  0  0  0
 12100  1  0  0  0
 13 14  1  0  0  0
 13 31  1  0  0  0
 14 15  2  0  0  0
 14101  1  0  0  0
 15102  1  0  0  0
 16 17  2  0  0  0
 16 21  1  0  0  0
 16 31  1  0  0  0
 17 18  1  0  0  0
 17103  1  0  0  0
 18 19  2  0  0  0
 18104  1  0  0  0
 19 20  1  0  0  0
 19 24  1  0  0  0
 20 21  2  0  0  0
 20105  1  0  0  0
 21 23  1  0  0  0
 22 28  1  0  0  0
 22 32  2  0  0  0
 26 27  1  0  0  0
 28106  1  0  0  0
 28107  1  0  0  0
 29108  1  0  0  0
 29109  1  0  0  0
 33 34  1  0  0  0
 33 66  1  0  0  0
 33 70  2  0  0  0
 34 36  1  0  0  0
 34 59  1  0  0  0
 34110  1  0  0  0
 35 44  2  0  0  0
 35 45  1  0  0  0
 35 68  1  0  0  0
 36 56  1  0  0  0
 36111  1  0  0  0
 37 39  1  0  0  0
 37 47  1  0  0  0
 37 66  1  0  0  0
 37112  1  0  0  0
 38 43  2  0  0  0
 38 46  1  0  0  0
 38 47  1  0  0  0
 39 64  1  0  0  0
 39 67  2  0  0  0
 40 52  1  0  0  0
 40 53  2  0  0  0
 40 58  1  0  0  0
 41113  1  0  0  0
 41114  1  0  0  0
 41115  1  0  0  0
 41 48  1  0  0  0
 42 43  1  0  0  0
 42 66  1  0  0  0
 42116  1  0  0  0
 42117  1  0  0  0
 43 44  1  0  0  0
 44118  1  0  0  0
 45 46  2  0  0  0
 45119  1  0  0  0
 46120  1  0  0  0
 47121  1  0  0  0
 47122  1  0  0  0
 48 56  1  0  0  0
 48 65  1  0  0  0
 48123  1  0  0  0
 49 50  1  0  0  0
 49 53  1  0  0  0
 49 64  1  0  0  0
 49124  1  0  0  0
 50 51  1  0  0  0
 50125  1  0  0  0
 50126  1  0  0  0
 51 52  1  0  0  0
 51127  1  0  0  0
 51128  1  0  0  0
 52129  1  0  0  0
 52130  1  0  0  0
 53 54  1  0  0  0
 54 55  2  0  0  0
 54131  1  0  0  0
 55 57  1  0  0  0
 55132  1  0  0  0
 56 69  2  0  0  0
 57 58  2  0  0  0
 57133  1  0  0  0
 58134  1  0  0  0
 59 60  1  0  0  0
 59 61  1  0  0  0
 59 62  1  0  0  0
 60135  1  0  0  0
 60136  1  0  0  0
 60137  1  0  0  0
 61138  1  0  0  0
 61139  1  0  0  0
 61140  1  0  0  0
 62141  1  0  0  0
 62142  1  0  0  0
 62143  1  0  0  0
 63 65  1  0  0  0
 63144  1  0  0  0
 63145  1  0  0  0
 63146  1  0  0  0
 64147  1  0  0  0
 65148  1  0  0  0
 68 83  1  0  0  0
 71 74  2  0  0  0
 71 75  1  0  0  0
 71149  1  0  0  0
 72 75  2  0  0  0
 72 76  1  0  0  0
 72150  1  0  0  0
 73 74  1  0  0  0
 73 76  2  0  0  0
 73 81  1  0  0  0
 74 84  1  0  0  0
 75 85  1  0  0  0
 76 89  1  0  0  0
 77 78  1  0  0  0
 77 84  1  0  0  0
 77 86  2  0  0  0
 78 79  1  0  0  0
 78151  1  0  0  0
 78152  1  0  0  0
 79 80  1  0  0  0
 79153  1  0  0  0
 79154  1  0  0  0
 80 83  1  0  0  0
 80 84  1  0  0  0
 80155  1  0  0  0
 81156  1  0  0  0
 81157  1  0  0  0
 81158  1  0  0  0
 82159  1  0  0  0
 82160  1  0  0  0
 82161  1  0  0  0
 82 89  1  0  0  0
 83162  1  0  0  0
 83163  1  0  0  0
 85164  1  0  0  0
 87 89  2  0  0  0
 88 89  2  0  0  0
M  ISO  4   1 100  68 101  83 101  85 100
M  END
> <chiral flag>
0

> <version>
0

> <s_m_source_file>
/data/baiqing/PycharmProjects/Reinvent-master-3.2/result/LINK_invent/BTK/process_docking_weight1_custom_product_contain_oxygen_bond_distance_aromatic_linkinvent_7_9_3/rearranged_h_0065.sdf

> <i_m_source_file_index>
41

> <r_mmod_Potential_Energy-OPLS-2005>
770.877319335938

> <r_mmod_Stretch_Energy-OPLS-2005>
355.538970947266

> <r_mmod_Bend_Energy-OPLS-2005>
389.964477539062

> <r_mmod_Torsional_Energy-OPLS-2005>
349.499176025391

> <r_mmod_Improper_Torsional_Energy-OPLS-2005>
18.4324512481689

> <r_mmod_Van_der_Waal_Energy-OPLS-2005>
118.991065979004

> <r_mmod_Electrostatic_Energy-OPLS-2005>
-450.638519287109

> <r_mmod_Solvation_Energy-OPLS-2005>
-275.415313720703

> <b_mmod_Minimization_Converged-OPLS-2005>
0

> <r_mmod_RMS_Derivative-OPLS-2005>
2.98209142684937

$$$$
41
                    3D
 Structure written by MMmdl.
164173  0  0  1  0            999 V2000
  -30.5697  -14.7526   20.4844 C   0  0  0  0  0  0
  -30.4501  -12.4628   19.4674 C   0  0  0  0  0  0
  -29.5162  -12.5183   18.2356 C   0  0  0  0  0  0
  -28.0412  -12.3361   18.6481 C   0  0  0  0  0  0
  -27.6490  -13.2223   19.8595 C   0  0  2  0  0  0
  -28.6947  -13.1164   20.9920 C   0  0  0  0  0  0
  -25.2527  -13.8150   20.5646 C   0  0  0  0  0  0
  -24.1818  -13.0419   20.9206 C   0  0  0  0  0  0
  -24.6403  -11.6897   20.8759 C   0  0  0  0  0  0
  -23.9072  -10.4282   21.0417 C   0  0  0  0  0  0
  -24.3621   -9.4196   21.9192 C   0  0  0  0  0  0
  -23.6293   -8.2232   22.0756 C   0  0  0  0  0  0
  -22.4274   -8.0278   21.3546 C   0  0  0  0  0  0
  -21.9915   -9.0252   20.4648 C   0  0  0  0  0  0
  -22.7247  -10.2131   20.3061 C   0  0  0  0  0  0
  -21.6850   -6.0735   22.5279 C   0  0  0  0  0  0
  -21.4011   -6.5640   23.8213 C   0  0  0  0  0  0
  -21.3658   -5.6793   24.9176 C   0  0  0  0  0  0
  -21.6044   -4.3055   24.7226 C   0  0  0  0  0  0
  -21.8819   -3.8147   23.4347 C   0  0  0  0  0  0
  -21.9192   -4.6964   22.3403 C   0  0  0  0  0  0
  -22.7841  -13.5214   21.1862 C   0  0  0  0  0  0
  -22.1661   -4.2151   21.0981 F   0  0  0  0  0  0
  -21.5630   -3.4537   25.7739 F   0  0  0  0  0  0
  -29.9983  -13.4982   20.4251 N   0  0  0  0  0  0
  -26.2972  -12.9353   20.3300 N   0  0  0  0  0  0
  -25.9337  -11.6507   20.5772 N   0  0  0  0  0  0
  -22.0483  -12.8212   22.0423 N   0  0  0  0  0  0
  -25.4180  -15.1851   20.3944 N   0  0  0  0  0  0
  -31.7366  -14.9216   20.1150 O   0  0  0  0  0  0
  -21.6636   -6.8877   21.4241 O   0  0  0  0  0  0
  -22.3528  -14.5520   20.6708 O   0  0  0  0  0  0
  -24.6314  -31.8548   23.1981 C   0  0  0  0  0  0
  -25.9133  -32.4758   23.8332 C   0  0  1  0  0  0
  -27.2282  -27.2690   20.1345 C   0  0  0  0  0  0
  -25.5928  -33.8560   24.2259 N   0  0  0  0  0  0
  -23.4302  -30.4756   21.5402 C   0  0  2  0  0  0
  -24.8827  -28.9205   20.1129 C   0  0  0  0  0  0
  -22.7507  -29.4599   22.4906 C   0  0  0  0  0  0
  -18.0295  -28.1392   22.8488 C   0  0  0  0  0  0
  -24.1485  -36.7282   23.2642 C   0  0  0  0  0  0
  -25.9757  -30.7686   21.3799 C   0  0  0  0  0  0
  -26.0531  -29.3893   20.7274 C   0  0  0  0  0  0
  -27.2317  -28.5731   20.7336 C   0  0  0  0  0  0
  -26.0405  -26.8640   19.4958 C   0  0  0  0  0  0
  -24.8800  -27.6632   19.4881 C   0  0  0  0  0  0
  -23.6517  -29.8066   20.1576 C   0  0  0  0  0  0
  -25.4113  -36.3070   24.0326 C   0  0  1  0  0  0
  -20.5899  -28.3704   23.1265 C   0  0  2  0  0  0
  -20.6781  -26.9419   22.5408 C   0  0  0  0  0  0
  -19.5755  -26.6385   21.5214 C   0  0  0  0  0  0
  -18.1935  -26.7936   22.1625 C   0  0  0  0  0  0
  -19.1549  -28.8866   23.2872 C   0  0  0  0  0  0
  -18.9471  -30.1467   23.8889 C   0  0  0  0  0  0
  -17.6469  -30.6594   24.0565 C   0  0  0  0  0  0
  -25.9052  -34.9441   23.5095 C   0  0  0  0  0  0
  -16.5360  -29.9092   23.6336 C   0  0  0  0  0  0
  -16.7279  -28.6509   23.0357 C   0  0  0  0  0  0
  -26.4501  -31.6584   25.0722 C   0  0  0  0  0  0
  -25.3724  -31.3739   26.1442 C   0  0  0  0  0  0
  -27.0357  -30.3002   24.6213 C   0  0  0  0  0  0
  -27.6046  -32.4331   25.7501 C   0  0  0  0  0  0
  -27.5575  -37.1797   24.8467 C   0  0  0  0  0  0
  -21.4213  -29.3048   22.3648 N   0  0  0  0  0  0
  -26.4287  -37.3768   23.9410 N   0  0  0  0  0  0
  -24.6977  -31.0510   22.0958 N   0  0  0  0  0  0
  -23.4199  -28.8144   23.3013 O   0  0  0  0  0  0
  -28.2797  -26.3292   20.1359 O   0  0  0  0  0  0
  -26.5626  -34.8915   22.4665 O   0  0  0  0  0  0
  -23.5459  -32.1365   23.7272 O   0  0  0  0  0  0
  -30.6186  -19.5635   20.1775 C   0  0  0  0  0  0
  -30.6887  -18.1219   20.1467 C   0  0  0  0  0  0
  -28.5976  -19.4470   21.4378 C   0  0  0  0  0  0
  -28.6647  -18.0132   21.4247 C   0  0  0  0  0  0
  -29.5778  -20.2872   20.8439 C   0  0  0  0  0  0
  -29.7268  -17.2851   20.7905 C   0  0  0  0  0  0
  -28.5583  -24.2002   21.4225 C   0  0  0  0  0  0
  -30.3654  -21.9784   22.3439 C   0  0  0  0  0  0
  -28.5834  -23.7294   22.8610 C   0  0  0  0  0  0
  -28.9810  -22.9469   20.5052 C   0  0  0  0  0  0
  -29.9643  -23.1588   23.2650 C   0  0  0  0  0  0
  -27.5540  -17.2867   22.1692 C   0  0  0  0  0  0
  -29.8548  -22.6468   24.7209 C   0  0  0  0  0  0
  -31.0696  -24.2416   23.2263 C   0  0  0  0  0  0
  -28.2153  -25.4760   21.3107 N   0  0  0  0  0  0
  -29.6554  -21.7378   21.2070 N   0  0  0  0  0  0
  -29.7189  -15.7936   20.8268 N   0  0  0  0  0  0
  -31.3176  -21.2708   22.6959 O   0  0  0  0  0  0
  -31.4858  -12.6172   19.1602 H   0  0  0  0  0  0
  -30.4200  -11.4759   19.9319 H   0  0  0  0  0  0
  -29.7985  -11.7518   17.5126 H   0  0  0  0  0  0
  -29.6372  -13.4764   17.7276 H   0  0  0  0  0  0
  -27.8973  -11.2849   18.9006 H   0  0  0  0  0  0
  -27.3834  -12.5377   17.8019 H   0  0  0  0  0  0
  -27.6529  -14.2505   19.4971 H   0  0  0  0  0  0
  -28.7341  -12.0994   21.3846 H   0  0  0  0  0  0
  -28.4215  -13.7501   21.8370 H   0  0  0  0  0  0
  -25.2764   -9.5669   22.4772 H   0  0  0  0  0  0
  -23.9998   -7.4619   22.7474 H   0  0  0  0  0  0
  -21.0845   -8.8775   19.8952 H   0  0  0  0  0  0
  -22.3706  -10.9674   19.6173 H   0  0  0  0  0  0
  -21.2001   -7.6148   23.9718 H   0  0  0  0  0  0
  -21.1481   -6.0523   25.9080 H   0  0  0  0  0  0
  -22.0599   -2.7609   23.2846 H   0  0  0  0  0  0
  -22.4094  -11.9870   22.4809 H   0  0  0  0  0  0
  -21.1103  -13.1244   22.2628 H   0  0  0  0  0  0
  -24.6372  -15.8267   20.4757 H   0  0  0  0  0  0
  -26.2434  -15.6154   19.9985 H   0  0  0  0  0  0
  -26.7203  -32.5415   23.1080 H   0  0  0  0  0  0
  -25.0069  -33.9694   25.0401 H   0  0  0  0  0  0
  -22.7270  -31.2978   21.3914 H   0  0  0  0  0  0
  -23.3746  -35.9615   23.3305 H   0  0  0  0  0  0
  -24.3577  -36.8904   22.2056 H   0  0  0  0  0  0
  -23.7238  -37.6483   23.6666 H   0  0  0  0  0  0
  -26.1127  -31.5268   20.6077 H   0  0  0  0  0  0
  -26.8538  -30.8216   22.0120 H   0  0  0  0  0  0
  -28.1277  -28.9221   21.2270 H   0  0  0  0  0  0
  -26.0057  -25.8915   19.0252 H   0  0  0  0  0  0
  -23.9841  -27.2959   19.0066 H   0  0  0  0  0  0
  -23.7760  -30.5814   19.4002 H   0  0  0  0  0  0
  -22.7712  -29.2378   19.8525 H   0  0  0  0  0  0
  -25.1296  -36.1914   25.0819 H   0  0  0  0  0  0
  -20.9993  -28.3284   24.1385 H   0  0  0  0  0  0
  -20.5679  -26.2315   23.3615 H   0  0  0  0  0  0
  -21.6648  -26.7439   22.1203 H   0  0  0  0  0  0
  -19.6914  -25.6292   21.1252 H   0  0  0  0  0  0
  -19.6694  -27.3192   20.6740 H   0  0  0  0  0  0
  -17.4204  -26.6685   21.4028 H   0  0  0  0  0  0
  -18.0332  -26.0083   22.9024 H   0  0  0  0  0  0
  -19.7946  -30.7290   24.2247 H   0  0  0  0  0  0
  -17.5025  -31.6272   24.5170 H   0  0  0  0  0  0
  -15.5362  -30.2994   23.7667 H   0  0  0  0  0  0
  -15.8677  -28.0829   22.7073 H   0  0  0  0  0  0
  -24.5896  -30.7091   25.7772 H   0  0  0  0  0  0
  -24.8919  -32.2910   26.4854 H   0  0  0  0  0  0
  -25.8037  -30.8925   27.0227 H   0  0  0  0  0  0
  -26.2950  -29.6745   24.1223 H   0  0  0  0  0  0
  -27.4026  -29.7268   25.4737 H   0  0  0  0  0  0
  -27.8828  -30.4280   23.9472 H   0  0  0  0  0  0
  -27.2644  -33.3634   26.2063 H   0  0  0  0  0  0
  -28.3866  -32.6891   25.0339 H   0  0  0  0  0  0
  -28.0706  -31.8471   26.5432 H   0  0  0  0  0  0
  -28.2594  -38.0091   24.7509 H   0  0  0  0  0  0
  -28.1067  -36.2622   24.6298 H   0  0  0  0  0  0
  -27.2294  -37.1453   25.8870 H   0  0  0  0  0  0
  -20.9398  -29.8768   21.6852 H   0  0  0  0  0  0
  -26.0163  -38.2841   24.1413 H   0  0  0  0  0  0
  -31.4308  -20.1218   19.7334 H   0  0  0  0  0  0
  -31.5235  -17.6608   19.6374 H   0  0  0  0  0  0
  -27.7990  -19.9164   21.9963 H   0  0  0  0  0  0
  -27.8055  -22.9743   22.9864 H   0  0  0  0  0  0
  -28.3090  -24.5443   23.5335 H   0  0  0  0  0  0
  -29.6560  -23.3066   19.7291 H   0  0  0  0  0  0
  -28.0903  -22.5867   19.9918 H   0  0  0  0  0  0
  -27.3855  -17.7541   23.1398 H   0  0  0  0  0  0
  -27.7603  -16.2350   22.3590 H   0  0  0  0  0  0
  -26.6241  -17.3568   21.6064 H   0  0  0  0  0  0
  -29.1349  -21.8313   24.8060 H   0  0  0  0  0  0
  -29.5305  -23.4381   25.3975 H   0  0  0  0  0  0
  -30.8101  -22.2772   25.0962 H   0  0  0  0  0  0
  -31.2571  -24.6033   22.2146 H   0  0  0  0  0  0
  -32.0174  -23.8595   23.6079 H   0  0  0  0  0  0
  -30.7994  -25.1044   23.8360 H   0  0  0  0  0  0
  -28.8395  -15.4234   21.1498 H   0  0  0  0  0  0
  1 25  1  0  0  0
  1 30  2  0  0  0
  1 87  1  0  0  0
  2  3  1  0  0  0
  2 25  1  0  0  0
  2 89  1  0  0  0
  2 90  1  0  0  0
  3  4  1  0  0  0
  3 91  1  0  0  0
  3 92  1  0  0  0
  4  5  1  0  0  0
  4 93  1  0  0  0
  4 94  1  0  0  0
  5  6  1  0  0  0
  5 26  1  0  0  0
  5 95  1  0  0  0
  6 25  1  0  0  0
  6 96  1  0  0  0
  6 97  1  0  0  0
  7  8  2  0  0  0
  7 26  1  0  0  0
  7 29  1  0  0  0
  8  9  1  0  0  0
  8 22  1  0  0  0
  9 10  1  0  0  0
  9 27  2  0  0  0
 10 11  2  0  0  0
 10 15  1  0  0  0
 11 12  1  0  0  0
 11 98  1  0  0  0
 12 13  2  0  0  0
 12 99  1  0  0  0
 13 14  1  0  0  0
 13 31  1  0  0  0
 14 15  2  0  0  0
 14100  1  0  0  0
 15101  1  0  0  0
 16 17  2  0  0  0
 16 21  1  0  0  0
 16 31  1  0  0  0
 17 18  1  0  0  0
 17102  1  0  0  0
 18 19  2  0  0  0
 18103  1  0  0  0
 19 20  1  0  0  0
 19 24  1  0  0  0
 20 21  2  0  0  0
 20104  1  0  0  0
 21 23  1  0  0  0
 22 28  1  0  0  0
 22 32  2  0  0  0
 26 27  1  0  0  0
 28105  1  0  0  0
 28106  1  0  0  0
 29107  1  0  0  0
 29108  1  0  0  0
 33 34  1  0  0  0
 33 66  1  0  0  0
 33 70  2  0  0  0
 34 36  1  0  0  0
 34 59  1  0  0  0
 34109  1  0  0  0
 35 44  2  0  0  0
 35 45  1  0  0  0
 35 68  1  0  0  0
 36 56  1  0  0  0
 36110  1  0  0  0
 37 39  1  0  0  0
 37 47  1  0  0  0
 37 66  1  0  0  0
 37111  1  0  0  0
 38 43  2  0  0  0
 38 46  1  0  0  0
 38 47  1  0  0  0
 39 64  1  0  0  0
 39 67  2  0  0  0
 40 52  1  0  0  0
 40 53  2  0  0  0
 40 58  1  0  0  0
 41112  1  0  0  0
 41113  1  0  0  0
 41114  1  0  0  0
 41 48  1  0  0  0
 42 43  1  0  0  0
 42 66  1  0  0  0
 42115  1  0  0  0
 42116  1  0  0  0
 43 44  1  0  0  0
 44117  1  0  0  0
 45 46  2  0  0  0
 45118  1  0  0  0
 46119  1  0  0  0
 47120  1  0  0  0
 47121  1  0  0  0
 48 56  1  0  0  0
 48 65  1  0  0  0
 48122  1  0  0  0
 49 50  1  0  0  0
 49 53  1  0  0  0
 49 64  1  0  0  0
 49123  1  0  0  0
 50 51  1  0  0  0
 50124  1  0  0  0
 50125  1  0  0  0
 51 52  1  0  0  0
 51126  1  0  0  0
 51127  1  0  0  0
 52128  1  0  0  0
 52129  1  0  0  0
 53 54  1  0  0  0
 54 55  2  0  0  0
 54130  1  0  0  0
 55 57  1  0  0  0
 55131  1  0  0  0
 56 69  2  0  0  0
 57 58  2  0  0  0
 57132  1  0  0  0
 58133  1  0  0  0
 59 60  1  0  0  0
 59 61  1  0  0  0
 59 62  1  0  0  0
 60134  1  0  0  0
 60135  1  0  0  0
 60136  1  0  0  0
 61137  1  0  0  0
 61138  1  0  0  0
 61139  1  0  0  0
 62140  1  0  0  0
 62141  1  0  0  0
 62142  1  0  0  0
 63 65  1  0  0  0
 63143  1  0  0  0
 63144  1  0  0  0
 63145  1  0  0  0
 64146  1  0  0  0
 65147  1  0  0  0
 68 85  1  0  0  0
 71 72  2  0  0  0
 71 75  1  0  0  0
 71148  1  0  0  0
 72 76  1  0  0  0
 72149  1  0  0  0
 73 74  1  0  0  0
 73 75  2  0  0  0
 73150  1  0  0  0
 74 76  2  0  0  0
 74 82  1  0  0  0
 75 86  1  0  0  0
 76 87  1  0  0  0
 77 79  1  0  0  0
 77 80  1  0  0  0
 77 85  2  0  0  0
 78 81  1  0  0  0
 78 86  1  0  0  0
 78 88  2  0  0  0
 79 81  1  0  0  0
 79151  1  0  0  0
 79152  1  0  0  0
 80 86  1  0  0  0
 80153  1  0  0  0
 80154  1  0  0  0
 81 83  1  0  0  0
 81 84  1  0  0  0
 82155  1  0  0  0
 82156  1  0  0  0
 82157  1  0  0  0
 83158  1  0  0  0
 83159  1  0  0  0
 83160  1  0  0  0
 84161  1  0  0  0
 84162  1  0  0  0
 84163  1  0  0  0
 87164  1  0  0  0
M  ISO  4   1 100  68 101  85 101  87 100
M  END
> <chiral flag>
0

> <version>
0

> <s_m_source_file>
/data/baiqing/PycharmProjects/Reinvent-master-3.2/result/LINK_invent/BTK/process_docking_weight1_custom_product_contain_oxygen_bond_distance_aromatic_linkinvent_7_9_3/rearranged_h_0065.sdf

> <i_m_source_file_index>
42

> <r_mmod_Potential_Energy-OPLS-2005>
324.817596435547

> <r_mmod_Stretch_Energy-OPLS-2005>
130.292572021484

> <r_mmod_Bend_Energy-OPLS-2005>
243.990081787109

> <r_mmod_Torsional_Energy-OPLS-2005>
320.382507324219

> <r_mmod_Improper_Torsional_Energy-OPLS-2005>
6.65206861495972

> <r_mmod_Van_der_Waal_Energy-OPLS-2005>
149.913986206055

> <r_mmod_Electrostatic_Energy-OPLS-2005>
-386.956970214844

> <r_mmod_Solvation_Energy-OPLS-2005>
-227.658676147461

> <b_mmod_Minimization_Converged-OPLS-2005>
0

> <r_mmod_RMS_Derivative-OPLS-2005>
0.557539403438568

$$$$
42
                    3D
 Structure written by MMmdl.
161170  0  0  1  0            999 V2000
  -30.5856  -14.8763   20.4167 C   0  0  0  0  0  0
  -30.4345  -12.5350   19.5007 C   0  0  0  0  0  0
  -29.5146  -12.5147   18.2575 C   0  0  0  0  0  0
  -28.0520  -12.3017   18.6863 C   0  0  0  0  0  0
  -27.6365  -13.2407   19.8477 C   0  0  2  0  0  0
  -28.6803  -13.2548   20.9848 C   0  0  0  0  0  0
  -25.2508  -13.8222   20.5730 C   0  0  0  0  0  0
  -24.1816  -13.0456   20.9233 C   0  0  0  0  0  0
  -24.6410  -11.6928   20.8777 C   0  0  0  0  0  0
  -23.9095  -10.4297   21.0422 C   0  0  0  0  0  0
  -24.3637   -9.4206   21.9200 C   0  0  0  0  0  0
  -23.6299   -8.2245   22.0773 C   0  0  0  0  0  0
  -22.4284   -8.0288   21.3563 C   0  0  0  0  0  0
  -21.9928   -9.0264   20.4673 C   0  0  0  0  0  0
  -22.7264  -10.2137   20.3076 C   0  0  0  0  0  0
  -21.6852   -6.0744   22.5282 C   0  0  0  0  0  0
  -21.4006   -6.5649   23.8212 C   0  0  0  0  0  0
  -21.3653   -5.6806   24.9181 C   0  0  0  0  0  0
  -21.6050   -4.3067   24.7233 C   0  0  0  0  0  0
  -21.8811   -3.8157   23.4353 C   0  0  0  0  0  0
  -21.9188   -4.6973   22.3407 C   0  0  0  0  0  0
  -22.7835  -13.5221   21.1873 C   0  0  0  0  0  0
  -22.1669   -4.2157   21.0988 F   0  0  0  0  0  0
  -21.5631   -3.4547   25.7747 F   0  0  0  0  0  0
  -29.9679  -13.6324   20.3909 N   0  0  0  0  0  0
  -26.2933  -12.9429   20.3316 N   0  0  0  0  0  0
  -25.9352  -11.6563   20.5816 N   0  0  0  0  0  0
  -22.0475  -12.8187   22.0414 N   0  0  0  0  0  0
  -25.4200  -15.1947   20.4139 N   0  0  0  0  0  0
  -31.7915  -14.9128   20.1493 O   0  0  0  0  0  0
  -21.6653   -6.8882   21.4242 O   0  0  0  0  0  0
  -22.3507  -14.5516   20.6715 O   0  0  0  0  0  0
  -24.6413  -31.8472   23.1944 C   0  0  0  0  0  0
  -25.9196  -32.4723   23.8304 C   0  0  1  0  0  0
  -27.2071  -27.1673   20.1287 C   0  0  0  0  0  0
  -25.5943  -33.8532   24.2213 N   0  0  0  0  0  0
  -23.4423  -30.4690   21.5429 C   0  0  2  0  0  0
  -24.8877  -28.9102   20.1100 C   0  0  0  0  0  0
  -22.7562  -29.4529   22.4900 C   0  0  0  0  0  0
  -18.0315  -28.1365   22.8497 C   0  0  0  0  0  0
  -24.1493  -36.7266   23.2643 C   0  0  0  0  0  0
  -25.9997  -30.7298   21.3919 C   0  0  0  0  0  0
  -26.0642  -29.3457   20.7291 C   0  0  0  0  0  0
  -27.2228  -28.4878   20.7290 C   0  0  0  0  0  0
  -26.0060  -26.8377   19.4582 C   0  0  0  0  0  0
  -24.8671  -27.6683   19.4628 C   0  0  0  0  0  0
  -23.6663  -29.8129   20.1565 C   0  0  0  0  0  0
  -25.4129  -36.3059   24.0325 C   0  0  1  0  0  0
  -20.5921  -28.3691   23.1260 C   0  0  2  0  0  0
  -20.6782  -26.9391   22.5433 C   0  0  0  0  0  0
  -19.5767  -26.6413   21.5194 C   0  0  0  0  0  0
  -18.1946  -26.7925   22.1623 C   0  0  0  0  0  0
  -19.1570  -28.8852   23.2864 C   0  0  0  0  0  0
  -18.9477  -30.1461   23.8868 C   0  0  0  0  0  0
  -17.6477  -30.6555   24.0564 C   0  0  0  0  0  0
  -25.9072  -34.9423   23.5078 C   0  0  0  0  0  0
  -16.5378  -29.9036   23.6358 C   0  0  0  0  0  0
  -16.7301  -28.6475   23.0366 C   0  0  0  0  0  0
  -26.4517  -31.6577   25.0735 C   0  0  0  0  0  0
  -25.3710  -31.3771   26.1437 C   0  0  0  0  0  0
  -27.0372  -30.2965   24.6323 C   0  0  0  0  0  0
  -27.6047  -32.4343   25.7517 C   0  0  0  0  0  0
  -27.5587  -37.1796   24.8475 C   0  0  0  0  0  0
  -21.4251  -29.3028   22.3645 N   0  0  0  0  0  0
  -26.4298  -37.3768   23.9413 N   0  0  0  0  0  0
  -24.7142  -31.0367   22.0963 N   0  0  0  0  0  0
  -23.4223  -28.8057   23.3023 O   0  0  0  0  0  0
  -28.2705  -26.2039   20.2270 O   0  0  0  0  0  0
  -26.5659  -34.8900   22.4650 O   0  0  0  0  0  0
  -23.5544  -32.1327   23.7169 O   0  0  0  0  0  0
  -30.1105  -17.5235   17.6824 C   0  0  0  0  0  0
  -30.8262  -17.4645   18.8971 C   0  0  0  0  0  0
  -28.1322  -18.2751   18.8990 C   0  0  0  0  0  0
  -28.7276  -17.8147   17.7022 C   0  0  0  0  0  0
  -28.9902  -18.5282   19.9955 C   0  0  0  0  0  0
  -30.0617  -17.4994   20.0828 C   0  0  0  0  0  0
  -30.0312  -20.9043   20.0330 C   0  0  0  0  0  0
  -29.7493  -22.4269   19.6093 C   0  0  0  0  0  0
  -27.7054  -22.2824   20.9859 C   0  0  0  0  0  0
  -27.7016  -20.8029   20.3680 C   0  0  0  0  0  0
  -28.7550  -23.3410   20.4566 C   0  0  2  0  0  0
  -27.9267  -17.7452   16.4193 C   0  0  0  0  0  0
  -28.1461  -24.7351   19.7651 C   0  0  0  0  0  0
  -28.9942  -20.0353   20.2773 N   0  0  0  0  0  0
  -29.8283  -16.0660   20.5607 N   0  0  0  0  0  0
  -31.2071  -20.5408   20.1111 O   0  0  0  0  0  0
  -31.4733  -12.6637   19.1959 H   0  0  0  0  0  0
  -30.4004  -11.5786   20.0243 H   0  0  0  0  0  0
  -29.8211  -11.7275   17.5673 H   0  0  0  0  0  0
  -29.6022  -13.4556   17.7121 H   0  0  0  0  0  0
  -27.9627  -11.2642   19.0132 H   0  0  0  0  0  0
  -27.3775  -12.4193   17.8384 H   0  0  0  0  0  0
  -27.6071  -14.2430   19.4200 H   0  0  0  0  0  0
  -28.3940  -13.9697   21.7567 H   0  0  0  0  0  0
  -28.7497  -12.2827   21.4756 H   0  0  0  0  0  0
  -25.2773   -9.5675   22.4793 H   0  0  0  0  0  0
  -24.0008   -7.4631   22.7479 H   0  0  0  0  0  0
  -21.0866   -8.8782   19.8963 H   0  0  0  0  0  0
  -22.3721  -10.9691   19.6196 H   0  0  0  0  0  0
  -21.1994   -7.6155   23.9696 H   0  0  0  0  0  0
  -21.1496   -6.0561   25.9082 H   0  0  0  0  0  0
  -22.0595   -2.7619   23.2860 H   0  0  0  0  0  0
  -22.4106  -11.9836   22.4755 H   0  0  0  0  0  0
  -21.1114  -13.1233   22.2679 H   0  0  0  0  0  0
  -24.6464  -15.8438   20.5042 H   0  0  0  0  0  0
  -26.2653  -15.6326   20.0698 H   0  0  0  0  0  0
  -26.7274  -32.5328   23.1038 H   0  0  0  0  0  0
  -25.0087  -33.9672   25.0360 H   0  0  0  0  0  0
  -22.7455  -31.2966   21.4011 H   0  0  0  0  0  0
  -23.3760  -35.9592   23.3300 H   0  0  0  0  0  0
  -24.3598  -36.8890   22.2062 H   0  0  0  0  0  0
  -23.7215  -37.6453   23.6670 H   0  0  0  0  0  0
  -26.1611  -31.4889   20.6254 H   0  0  0  0  0  0
  -26.8694  -30.7690   22.0362 H   0  0  0  0  0  0
  -28.1179  -28.8115   21.2413 H   0  0  0  0  0  0
  -25.8880  -25.9104   18.9238 H   0  0  0  0  0  0
  -23.9656  -27.3411   18.9609 H   0  0  0  0  0  0
  -23.8092  -30.5995   19.4142 H   0  0  0  0  0  0
  -22.7802  -29.2631   19.8344 H   0  0  0  0  0  0
  -25.1302  -36.1909   25.0820 H   0  0  0  0  0  0
  -21.0035  -28.3269   24.1378 H   0  0  0  0  0  0
  -20.5565  -26.2286   23.3630 H   0  0  0  0  0  0
  -21.6661  -26.7364   22.1256 H   0  0  0  0  0  0
  -19.6932  -25.6374   21.1123 H   0  0  0  0  0  0
  -19.6692  -27.3295   20.6780 H   0  0  0  0  0  0
  -17.4207  -26.6671   21.4044 H   0  0  0  0  0  0
  -18.0402  -26.0037   22.9001 H   0  0  0  0  0  0
  -19.7936  -30.7323   24.2202 H   0  0  0  0  0  0
  -17.5025  -31.6232   24.5163 H   0  0  0  0  0  0
  -15.5369  -30.2920   23.7739 H   0  0  0  0  0  0
  -15.8703  -28.0779   22.7089 H   0  0  0  0  0  0
  -24.5904  -30.7099   25.7777 H   0  0  0  0  0  0
  -24.8884  -32.2957   26.4793 H   0  0  0  0  0  0
  -25.7996  -30.9007   27.0261 H   0  0  0  0  0  0
  -26.2994  -29.6715   24.1291 H   0  0  0  0  0  0
  -27.3930  -29.7243   25.4902 H   0  0  0  0  0  0
  -27.8925  -30.4198   23.9674 H   0  0  0  0  0  0
  -27.2632  -33.3662   26.2037 H   0  0  0  0  0  0
  -28.3872  -32.6873   25.0351 H   0  0  0  0  0  0
  -28.0700  -31.8510   26.5478 H   0  0  0  0  0  0
  -28.2594  -38.0101   24.7508 H   0  0  0  0  0  0
  -28.1073  -36.2620   24.6297 H   0  0  0  0  0  0
  -27.2313  -37.1447   25.8882 H   0  0  0  0  0  0
  -20.9466  -29.8724   21.6815 H   0  0  0  0  0  0
  -26.0165  -38.2841   24.1395 H   0  0  0  0  0  0
  -30.6040  -17.2648   16.7554 H   0  0  0  0  0  0
  -31.8103  -17.0215   18.8642 H   0  0  0  0  0  0
  -27.1623  -18.7447   18.8094 H   0  0  0  0  0  0
  -29.3748  -22.3782   18.5867 H   0  0  0  0  0  0
  -30.7090  -22.9395   19.5306 H   0  0  0  0  0  0
  -27.8481  -22.1853   22.0641 H   0  0  0  0  0  0
  -26.6986  -22.6895   20.8884 H   0  0  0  0  0  0
  -27.2977  -20.8858   19.3568 H   0  0  0  0  0  0
  -26.9851  -20.1948   20.9217 H   0  0  0  0  0  0
  -29.3232  -23.6787   21.3257 H   0  0  0  0  0  0
  -28.4751  -18.2177   15.6034 H   0  0  0  0  0  0
  -26.9667  -18.2509   16.5144 H   0  0  0  0  0  0
  -27.7393  -16.7046   16.1531 H   0  0  0  0  0  0
  -27.1013  -24.4894   19.6254 H   0  0  0  0  0  0
  -28.5394  -24.7569   18.7470 H   0  0  0  0  0  0
  -28.8967  -15.8981   20.9064 H   0  0  0  0  0  0
  1 25  1  0  0  0
  1 30  2  0  0  0
  1 85  1  0  0  0
  2  3  1  0  0  0
  2 25  1  0  0  0
  2 87  1  0  0  0
  2 88  1  0  0  0
  3  4  1  0  0  0
  3 89  1  0  0  0
  3 90  1  0  0  0
  4  5  1  0  0  0
  4 91  1  0  0  0
  4 92  1  0  0  0
  5  6  1  0  0  0
  5 26  1  0  0  0
  5 93  1  0  0  0
  6 25  1  0  0  0
  6 94  1  0  0  0
  6 95  1  0  0  0
  7  8  2  0  0  0
  7 26  1  0  0  0
  7 29  1  0  0  0
  8  9  1  0  0  0
  8 22  1  0  0  0
  9 10  1  0  0  0
  9 27  2  0  0  0
 10 11  2  0  0  0
 10 15  1  0  0  0
 11 12  1  0  0  0
 11 96  1  0  0  0
 12 13  2  0  0  0
 12 97  1  0  0  0
 13 14  1  0  0  0
 13 31  1  0  0  0
 14 15  2  0  0  0
 14 98  1  0  0  0
 15 99  1  0  0  0
 16 17  2  0  0  0
 16 21  1  0  0  0
 16 31  1  0  0  0
 17 18  1  0  0  0
 17100  1  0  0  0
 18 19  2  0  0  0
 18101  1  0  0  0
 19 20  1  0  0  0
 19 24  1  0  0  0
 20 21  2  0  0  0
 20102  1  0  0  0
 21 23  1  0  0  0
 22 28  1  0  0  0
 22 32  2  0  0  0
 26 27  1  0  0  0
 28103  1  0  0  0
 28104  1  0  0  0
 29105  1  0  0  0
 29106  1  0  0  0
 33 34  1  0  0  0
 33 66  1  0  0  0
 33 70  2  0  0  0
 34 36  1  0  0  0
 34 59  1  0  0  0
 34107  1  0  0  0
 35 44  2  0  0  0
 35 45  1  0  0  0
 35 68  1  0  0  0
 36 56  1  0  0  0
 36108  1  0  0  0
 37 39  1  0  0  0
 37 47  1  0  0  0
 37 66  1  0  0  0
 37109  1  0  0  0
 38 43  2  0  0  0
 38 46  1  0  0  0
 38 47  1  0  0  0
 39 64  1  0  0  0
 39 67  2  0  0  0
 40 52  1  0  0  0
 40 53  2  0  0  0
 40 58  1  0  0  0
 41110  1  0  0  0
 41111  1  0  0  0
 41112  1  0  0  0
 41 48  1  0  0  0
 42 43  1  0  0  0
 42 66  1  0  0  0
 42113  1  0  0  0
 42114  1  0  0  0
 43 44  1  0  0  0
 44115  1  0  0  0
 45 46  2  0  0  0
 45116  1  0  0  0
 46117  1  0  0  0
 47118  1  0  0  0
 47119  1  0  0  0
 48 56  1  0  0  0
 48 65  1  0  0  0
 48120  1  0  0  0
 49 50  1  0  0  0
 49 53  1  0  0  0
 49 64  1  0  0  0
 49121  1  0  0  0
 50 51  1  0  0  0
 50122  1  0  0  0
 50123  1  0  0  0
 51 52  1  0  0  0
 51124  1  0  0  0
 51125  1  0  0  0
 52126  1  0  0  0
 52127  1  0  0  0
 53 54  1  0  0  0
 54 55  2  0  0  0
 54128  1  0  0  0
 55 57  1  0  0  0
 55129  1  0  0  0
 56 69  2  0  0  0
 57 58  2  0  0  0
 57130  1  0  0  0
 58131  1  0  0  0
 59 60  1  0  0  0
 59 61  1  0  0  0
 59 62  1  0  0  0
 60132  1  0  0  0
 60133  1  0  0  0
 60134  1  0  0  0
 61135  1  0  0  0
 61136  1  0  0  0
 61137  1  0  0  0
 62138  1  0  0  0
 62139  1  0  0  0
 62140  1  0  0  0
 63 65  1  0  0  0
 63141  1  0  0  0
 63142  1  0  0  0
 63143  1  0  0  0
 64144  1  0  0  0
 65145  1  0  0  0
 68 83  1  0  0  0
 71 72  2  0  0  0
 71 74  1  0  0  0
 71146  1  0  0  0
 72 76  1  0  0  0
 72147  1  0  0  0
 73 74  2  0  0  0
 73 75  1  0  0  0
 73148  1  0  0  0
 74 82  1  0  0  0
 75 76  2  0  0  0
 75 84  1  0  0  0
 76 85  1  0  0  0
 77 78  1  0  0  0
 77 84  1  0  0  0
 77 86  2  0  0  0
 78 81  1  0  0  0
 78149  1  0  0  0
 78150  1  0  0  0
 79 80  1  0  0  0
 79 81  1  0  0  0
 79151  1  0  0  0
 79152  1  0  0  0
 80 84  1  0  0  0
 80153  1  0  0  0
 80154  1  0  0  0
 81 83  1  0  0  0
 81155  1  0  0  0
 82156  1  0  0  0
 82157  1  0  0  0
 82158  1  0  0  0
 83159  1  0  0  0
 83160  1  0  0  0
 85161  1  0  0  0
M  ISO  4   1 100  68 101  83 101  85 100
M  END
> <chiral flag>
0

> <version>
0

> <s_m_source_file>
/data/baiqing/PycharmProjects/Reinvent-master-3.2/result/LINK_invent/BTK/process_docking_weight1_custom_product_contain_oxygen_bond_distance_aromatic_linkinvent_7_9_3/rearranged_h_0065.sdf

> <i_m_source_file_index>
43

> <r_mmod_Potential_Energy-OPLS-2005>
767.122497558594

> <r_mmod_Stretch_Energy-OPLS-2005>
214.380783081055

> <r_mmod_Bend_Energy-OPLS-2005>
265.643676757812

> <r_mmod_Torsional_Energy-OPLS-2005>
539.723205566406

> <r_mmod_Improper_Torsional_Energy-OPLS-2005>
38.0882415771484

> <r_mmod_Van_der_Waal_Energy-OPLS-2005>
163.297866821289

> <r_mmod_Electrostatic_Energy-OPLS-2005>
-383.703643798828

> <r_mmod_Solvation_Energy-OPLS-2005>
-225.450546264648

> <b_mmod_Minimization_Converged-OPLS-2005>
0

> <r_mmod_RMS_Derivative-OPLS-2005>
3.02065777778625

$$$$
43
                    3D
 Structure written by MMmdl.
154162  0  0  1  0            999 V2000
  -30.6044  -14.7140   20.4619 C   0  0  0  0  0  0
  -30.4267  -12.4250   19.4933 C   0  0  0  0  0  0
  -29.5127  -12.5048   18.2499 C   0  0  0  0  0  0
  -28.0375  -12.3323   18.6562 C   0  0  0  0  0  0
  -27.6460  -13.2274   19.8630 C   0  0  2  0  0  0
  -28.6827  -13.1378   21.0050 C   0  0  0  0  0  0
  -25.2528  -13.8217   20.5721 C   0  0  0  0  0  0
  -24.1796  -13.0474   20.9209 C   0  0  0  0  0  0
  -24.6374  -11.6947   20.8758 C   0  0  0  0  0  0
  -23.9058  -10.4322   21.0409 C   0  0  0  0  0  0
  -24.3626   -9.4230   21.9175 C   0  0  0  0  0  0
  -23.6305   -8.2255   22.0744 C   0  0  0  0  0  0
  -22.4282   -8.0282   21.3544 C   0  0  0  0  0  0
  -21.9910   -9.0262   20.4648 C   0  0  0  0  0  0
  -22.7235  -10.2150   20.3067 C   0  0  0  0  0  0
  -21.6850   -6.0742   22.5276 C   0  0  0  0  0  0
  -21.4015   -6.5639   23.8221 C   0  0  0  0  0  0
  -21.3671   -5.6788   24.9172 C   0  0  0  0  0  0
  -21.6044   -4.3052   24.7217 C   0  0  0  0  0  0
  -21.8817   -3.8149   23.4333 C   0  0  0  0  0  0
  -21.9194   -4.6968   22.3397 C   0  0  0  0  0  0
  -22.7814  -13.5251   21.1836 C   0  0  0  0  0  0
  -22.1650   -4.2166   21.0969 F   0  0  0  0  0  0
  -21.5644   -3.4530   25.7723 F   0  0  0  0  0  0
  -29.9941  -13.4803   20.4409 N   0  0  0  0  0  0
  -26.2935  -12.9406   20.3313 N   0  0  0  0  0  0
  -25.9305  -11.6555   20.5776 N   0  0  0  0  0  0
  -22.0434  -12.8290   22.0411 N   0  0  0  0  0  0
  -25.4288  -15.1940   20.4213 N   0  0  0  0  0  0
  -31.7662  -14.8319   20.0610 O   0  0  0  0  0  0
  -21.6643   -6.8873   21.4239 O   0  0  0  0  0  0
  -22.3510  -14.5535   20.6629 O   0  0  0  0  0  0
  -24.6286  -31.8562   23.2034 C   0  0  0  0  0  0
  -25.9118  -32.4745   23.8363 C   0  0  1  0  0  0
  -27.2058  -27.2585   20.1159 C   0  0  0  0  0  0
  -25.5916  -33.8559   24.2249 N   0  0  0  0  0  0
  -23.4269  -30.4835   21.5426 C   0  0  2  0  0  0
  -24.8741  -28.9416   20.1044 C   0  0  0  0  0  0
  -22.7520  -29.4583   22.4877 C   0  0  0  0  0  0
  -18.0287  -28.1388   22.8473 C   0  0  0  0  0  0
  -24.1491  -36.7296   23.2636 C   0  0  0  0  0  0
  -25.9784  -30.7579   21.4014 C   0  0  0  0  0  0
  -26.0429  -29.3866   20.7334 C   0  0  0  0  0  0
  -27.2067  -28.5506   20.7430 C   0  0  0  0  0  0
  -26.0239  -26.9077   19.4213 C   0  0  0  0  0  0
  -24.8703  -27.7106   19.4385 C   0  0  0  0  0  0
  -23.6494  -29.8335   20.1531 C   0  0  0  0  0  0
  -25.4121  -36.3070   24.0314 C   0  0  1  0  0  0
  -20.5899  -28.3682   23.1275 C   0  0  2  0  0  0
  -20.6763  -26.9391   22.5420 C   0  0  0  0  0  0
  -19.5735  -26.6375   21.5223 C   0  0  0  0  0  0
  -18.1918  -26.7925   22.1631 C   0  0  0  0  0  0
  -19.1544  -28.8857   23.2865 C   0  0  0  0  0  0
  -18.9469  -30.1473   23.8854 C   0  0  0  0  0  0
  -17.6462  -30.6578   24.0572 C   0  0  0  0  0  0
  -25.9061  -34.9435   23.5091 C   0  0  0  0  0  0
  -16.5354  -29.9083   23.6329 C   0  0  0  0  0  0
  -16.7275  -28.6523   23.0313 C   0  0  0  0  0  0
  -26.4463  -31.6591   25.0774 C   0  0  0  0  0  0
  -25.3676  -31.3811   26.1500 C   0  0  0  0  0  0
  -27.0315  -30.2967   24.6380 C   0  0  0  0  0  0
  -27.5998  -32.4360   25.7536 C   0  0  0  0  0  0
  -27.5588  -37.1806   24.8450 C   0  0  0  0  0  0
  -21.4217  -29.3035   22.3668 N   0  0  0  0  0  0
  -26.4292  -37.3776   23.9401 N   0  0  0  0  0  0
  -24.6947  -31.0541   22.1012 N   0  0  0  0  0  0
  -23.4244  -28.8094   23.2934 O   0  0  0  0  0  0
  -28.2860  -26.3445   20.1994 O   0  0  0  0  0  0
  -26.5653  -34.8905   22.4671 O   0  0  0  0  0  0
  -23.5437  -32.1384   23.7325 O   0  0  0  0  0  0
  -29.4566  -19.5211   18.5036 C   0  0  0  0  0  0
  -29.8291  -17.1024   18.6700 C   0  0  0  0  0  0
  -29.5013  -18.4378   20.6810 C   0  0  0  0  0  0
  -29.6684  -18.2665   17.8897 C   0  0  0  0  0  0
  -29.3467  -19.6650   19.9067 C   0  0  0  0  0  0
  -29.7626  -17.1320   20.0802 C   0  0  0  0  0  0
  -28.6313  -22.1842   19.9002 C   0  0  0  0  0  0
  -28.8303  -23.6488   20.5191 C   0  0  0  0  0  0
  -28.0966  -24.9011   19.8017 C   0  0  0  0  0  0
  -29.7277  -18.1544   16.3723 C   0  0  0  0  0  0
  -29.1682  -21.0332   20.4718 N   0  0  0  0  0  0
  -29.8546  -15.8338   20.7961 N   0  0  0  0  0  0
  -27.9276  -22.1042   18.8897 O   0  0  0  0  0  0
  -29.2496  -19.2455   15.7722 F   0  0  0  0  0  0
  -30.9907  -17.9799   15.9878 F   0  0  0  0  0  0
  -29.0085  -17.1087   15.9629 F   0  0  0  0  0  0
  -31.4728  -12.5335   19.2008 H   0  0  0  0  0  0
  -30.3506  -11.4425   19.9644 H   0  0  0  0  0  0
  -29.7944  -11.7423   17.5244 H   0  0  0  0  0  0
  -29.6471  -13.4663   17.7531 H   0  0  0  0  0  0
  -27.8886  -11.2833   18.9155 H   0  0  0  0  0  0
  -27.3832  -12.5278   17.8057 H   0  0  0  0  0  0
  -27.6519  -14.2545   19.4975 H   0  0  0  0  0  0
  -28.7015  -12.1339   21.4309 H   0  0  0  0  0  0
  -28.4150  -13.8097   21.8220 H   0  0  0  0  0  0
  -25.2766   -9.5717   22.4756 H   0  0  0  0  0  0
  -24.0028   -7.4648   22.7461 H   0  0  0  0  0  0
  -21.0838   -8.8777   19.8962 H   0  0  0  0  0  0
  -22.3662  -10.9698   19.6190 H   0  0  0  0  0  0
  -21.1996   -7.6155   23.9722 H   0  0  0  0  0  0
  -21.1496   -6.0516   25.9081 H   0  0  0  0  0  0
  -22.0587   -2.7616   23.2821 H   0  0  0  0  0  0
  -22.4026  -11.9995   22.4907 H   0  0  0  0  0  0
  -21.1043  -13.1328   22.2550 H   0  0  0  0  0  0
  -24.6752  -15.8585   20.5595 H   0  0  0  0  0  0
  -26.2957  -15.6305   20.1346 H   0  0  0  0  0  0
  -26.7187  -32.5375   23.1104 H   0  0  0  0  0  0
  -24.9966  -33.9691   25.0325 H   0  0  0  0  0  0
  -22.7196  -31.3038   21.4014 H   0  0  0  0  0  0
  -23.3749  -35.9634   23.3285 H   0  0  0  0  0  0
  -24.3574  -36.8938   22.2051 H   0  0  0  0  0  0
  -23.7254  -37.6489   23.6687 H   0  0  0  0  0  0
  -26.1506  -31.5286   20.6487 H   0  0  0  0  0  0
  -26.8410  -30.7805   22.0562 H   0  0  0  0  0  0
  -28.0908  -28.8716   21.2754 H   0  0  0  0  0  0
  -25.9489  -26.0001   18.8448 H   0  0  0  0  0  0
  -23.9839  -27.3809   18.9133 H   0  0  0  0  0  0
  -23.7878  -30.6159   19.4064 H   0  0  0  0  0  0
  -22.7649  -29.2793   19.8321 H   0  0  0  0  0  0
  -25.1311  -36.1902   25.0808 H   0  0  0  0  0  0
  -20.9992  -28.3255   24.1401 H   0  0  0  0  0  0
  -20.5652  -26.2282   23.3629 H   0  0  0  0  0  0
  -21.6630  -26.7393   22.1226 H   0  0  0  0  0  0
  -19.6882  -25.6291   21.1241 H   0  0  0  0  0  0
  -19.6670  -27.3196   20.6768 H   0  0  0  0  0  0
  -17.4191  -26.6677   21.4033 H   0  0  0  0  0  0
  -18.0296  -26.0078   22.9032 H   0  0  0  0  0  0
  -19.7950  -30.7319   24.2169 H   0  0  0  0  0  0
  -17.5014  -31.6237   24.5206 H   0  0  0  0  0  0
  -15.5352  -30.2973   23.7674 H   0  0  0  0  0  0
  -15.8678  -28.0869   22.6974 H   0  0  0  0  0  0
  -24.5780  -30.7227   25.7852 H   0  0  0  0  0  0
  -24.8952  -32.3020   26.4935 H   0  0  0  0  0  0
  -25.7965  -30.8962   27.0281 H   0  0  0  0  0  0
  -26.2952  -29.6715   24.1315 H   0  0  0  0  0  0
  -27.3788  -29.7239   25.4991 H   0  0  0  0  0  0
  -27.8926  -30.4137   23.9799 H   0  0  0  0  0  0
  -27.2544  -33.3611   26.2169 H   0  0  0  0  0  0
  -28.3774  -32.7018   25.0363 H   0  0  0  0  0  0
  -28.0721  -31.8482   26.5416 H   0  0  0  0  0  0
  -28.2599  -38.0108   24.7503 H   0  0  0  0  0  0
  -28.1092  -36.2644   24.6267 H   0  0  0  0  0  0
  -27.2315  -37.1447   25.8852 H   0  0  0  0  0  0
  -20.9387  -29.8811   21.6931 H   0  0  0  0  0  0
  -26.0163  -38.2846   24.1407 H   0  0  0  0  0  0
  -29.3901  -20.3872   17.8650 H   0  0  0  0  0  0
  -29.9777  -16.1683   18.1475 H   0  0  0  0  0  0
  -29.4181  -18.5006   21.7571 H   0  0  0  0  0  0
  -29.9017  -23.8358   20.5520 H   0  0  0  0  0  0
  -28.4965  -23.6125   21.5555 H   0  0  0  0  0  0
  -27.0473  -24.6299   19.8847 H   0  0  0  0  0  0
  -28.3304  -24.8583   18.7366 H   0  0  0  0  0  0
  -29.5495  -21.1658   21.3993 H   0  0  0  0  0  0
  -29.0975  -15.6491   21.4385 H   0  0  0  0  0  0
  1 25  1  0  0  0
  1 30  2  0  0  0
  1 82  1  0  0  0
  2  3  1  0  0  0
  2 25  1  0  0  0
  2 87  1  0  0  0
  2 88  1  0  0  0
  3  4  1  0  0  0
  3 89  1  0  0  0
  3 90  1  0  0  0
  4  5  1  0  0  0
  4 91  1  0  0  0
  4 92  1  0  0  0
  5  6  1  0  0  0
  5 26  1  0  0  0
  5 93  1  0  0  0
  6 25  1  0  0  0
  6 94  1  0  0  0
  6 95  1  0  0  0
  7  8  2  0  0  0
  7 26  1  0  0  0
  7 29  1  0  0  0
  8  9  1  0  0  0
  8 22  1  0  0  0
  9 10  1  0  0  0
  9 27  2  0  0  0
 10 11  2  0  0  0
 10 15  1  0  0  0
 11 12  1  0  0  0
 11 96  1  0  0  0
 12 13  2  0  0  0
 12 97  1  0  0  0
 13 14  1  0  0  0
 13 31  1  0  0  0
 14 15  2  0  0  0
 14 98  1  0  0  0
 15 99  1  0  0  0
 16 17  2  0  0  0
 16 21  1  0  0  0
 16 31  1  0  0  0
 17 18  1  0  0  0
 17100  1  0  0  0
 18 19  2  0  0  0
 18101  1  0  0  0
 19 20  1  0  0  0
 19 24  1  0  0  0
 20 21  2  0  0  0
 20102  1  0  0  0
 21 23  1  0  0  0
 22 28  1  0  0  0
 22 32  2  0  0  0
 26 27  1  0  0  0
 28103  1  0  0  0
 28104  1  0  0  0
 29105  1  0  0  0
 29106  1  0  0  0
 33 34  1  0  0  0
 33 66  1  0  0  0
 33 70  2  0  0  0
 34 36  1  0  0  0
 34 59  1  0  0  0
 34107  1  0  0  0
 35 44  2  0  0  0
 35 45  1  0  0  0
 35 68  1  0  0  0
 36 56  1  0  0  0
 36108  1  0  0  0
 37 39  1  0  0  0
 37 47  1  0  0  0
 37 66  1  0  0  0
 37109  1  0  0  0
 38 43  2  0  0  0
 38 46  1  0  0  0
 38 47  1  0  0  0
 39 64  1  0  0  0
 39 67  2  0  0  0
 40 52  1  0  0  0
 40 53  2  0  0  0
 40 58  1  0  0  0
 41110  1  0  0  0
 41111  1  0  0  0
 41112  1  0  0  0
 41 48  1  0  0  0
 42 43  1  0  0  0
 42 66  1  0  0  0
 42113  1  0  0  0
 42114  1  0  0  0
 43 44  1  0  0  0
 44115  1  0  0  0
 45 46  2  0  0  0
 45116  1  0  0  0
 46117  1  0  0  0
 47118  1  0  0  0
 47119  1  0  0  0
 48 56  1  0  0  0
 48 65  1  0  0  0
 48120  1  0  0  0
 49 50  1  0  0  0
 49 53  1  0  0  0
 49 64  1  0  0  0
 49121  1  0  0  0
 50 51  1  0  0  0
 50122  1  0  0  0
 50123  1  0  0  0
 51 52  1  0  0  0
 51124  1  0  0  0
 51125  1  0  0  0
 52126  1  0  0  0
 52127  1  0  0  0
 53 54  1  0  0  0
 54 55  2  0  0  0
 54128  1  0  0  0
 55 57  1  0  0  0
 55129  1  0  0  0
 56 69  2  0  0  0
 57 58  2  0  0  0
 57130  1  0  0  0
 58131  1  0  0  0
 59 60  1  0  0  0
 59 61  1  0  0  0
 59 62  1  0  0  0
 60132  1  0  0  0
 60133  1  0  0  0
 60134  1  0  0  0
 61135  1  0  0  0
 61136  1  0  0  0
 61137  1  0  0  0
 62138  1  0  0  0
 62139  1  0  0  0
 62140  1  0  0  0
 63 65  1  0  0  0
 63141  1  0  0  0
 63142  1  0  0  0
 63143  1  0  0  0
 64144  1  0  0  0
 65145  1  0  0  0
 68 79  1  0  0  0
 71 74  2  0  0  0
 71 75  1  0  0  0
 71146  1  0  0  0
 72 74  1  0  0  0
 72 76  2  0  0  0
 72147  1  0  0  0
 73 75  2  0  0  0
 73 76  1  0  0  0
 73148  1  0  0  0
 74 80  1  0  0  0
 75 81  1  0  0  0
 76 82  1  0  0  0
 77 78  1  0  0  0
 77 81  1  0  0  0
 77 83  2  0  0  0
 78 79  1  0  0  0
 78149  1  0  0  0
 78150  1  0  0  0
 79151  1  0  0  0
 79152  1  0  0  0
 80 84  1  0  0  0
 80 85  1  0  0  0
 80 86  1  0  0  0
 81153  1  0  0  0
 82154  1  0  0  0
M  ISO  4   1 100  68 101  79 101  82 100
M  END
> <chiral flag>
0

> <version>
0

> <s_m_source_file>
/data/baiqing/PycharmProjects/Reinvent-master-3.2/result/LINK_invent/BTK/process_docking_weight1_custom_product_contain_oxygen_bond_distance_aromatic_linkinvent_7_9_3/rearranged_h_0065.sdf

> <i_m_source_file_index>
44

> <r_mmod_Potential_Energy-OPLS-2005>
151.909423828125

> <r_mmod_Stretch_Energy-OPLS-2005>
123.779396057129

> <r_mmod_Bend_Energy-OPLS-2005>
156.365249633789

> <r_mmod_Torsional_Energy-OPLS-2005>
253.930526733398

> <r_mmod_Improper_Torsional_Energy-OPLS-2005>
4.83671712875366

> <r_mmod_Van_der_Waal_Energy-OPLS-2005>
149.145721435547

> <r_mmod_Electrostatic_Energy-OPLS-2005>
-384.099914550781

> <r_mmod_Solvation_Energy-OPLS-2005>
-235.248687744141

> <b_mmod_Minimization_Converged-OPLS-2005>
0

> <r_mmod_RMS_Derivative-OPLS-2005>
2.9223415851593

$$$$
44
                    3D
 Structure written by MMmdl.
170179  0  0  1  0            999 V2000
  -30.2631  -14.8121   20.5758 C   0  0  0  0  0  0
  -30.4627  -12.5148   19.4967 C   0  0  0  0  0  0
  -29.5339  -12.4978   18.2478 C   0  0  0  0  0  0
  -28.0481  -12.2938   18.6342 C   0  0  0  0  0  0
  -27.6281  -13.1738   19.8473 C   0  0  2  0  0  0
  -28.6411  -12.9622   20.9863 C   0  0  0  0  0  0
  -25.2312  -13.7912   20.5273 C   0  0  0  0  0  0
  -24.1654  -13.0293   20.9214 C   0  0  0  0  0  0
  -24.6220  -11.6767   20.8873 C   0  0  0  0  0  0
  -23.8921  -10.4184   21.0510 C   0  0  0  0  0  0
  -24.3520   -9.4110   21.9243 C   0  0  0  0  0  0
  -23.6198   -8.2150   22.0759 C   0  0  0  0  0  0
  -22.4192   -8.0202   21.3556 C   0  0  0  0  0  0
  -21.9817   -9.0181   20.4685 C   0  0  0  0  0  0
  -22.7121  -10.2081   20.3113 C   0  0  0  0  0  0
  -21.6803   -6.0685   22.5287 C   0  0  0  0  0  0
  -21.3961   -6.5596   23.8227 C   0  0  0  0  0  0
  -21.3645   -5.6756   24.9178 C   0  0  0  0  0  0
  -21.6053   -4.3037   24.7235 C   0  0  0  0  0  0
  -21.8823   -3.8120   23.4372 C   0  0  0  0  0  0
  -21.9171   -4.6910   22.3415 C   0  0  0  0  0  0
  -22.7742  -13.5201   21.1924 C   0  0  0  0  0  0
  -22.1654   -4.2099   21.1001 F   0  0  0  0  0  0
  -21.5642   -3.4520   25.7773 F   0  0  0  0  0  0
  -29.9036  -13.4789   20.4859 N   0  0  0  0  0  0
  -26.2708  -12.9055   20.3065 N   0  0  0  0  0  0
  -25.9094  -11.6317   20.5749 N   0  0  0  0  0  0
  -22.0366  -12.8257   22.0516 N   0  0  0  0  0  0
  -25.3870  -15.1520   20.3074 N   0  0  0  0  0  0
  -31.3871  -15.1557   20.1851 O   0  0  0  0  0  0
  -21.6592   -6.8817   21.4229 O   0  0  0  0  0  0
  -22.3526  -14.5523   20.6790 O   0  0  0  0  0  0
  -24.6563  -31.8498   23.1826 C   0  0  0  0  0  0
  -25.9430  -32.4804   23.8303 C   0  0  1  0  0  0
  -27.1011  -27.1559   20.1915 C   0  0  0  0  0  0
  -25.6150  -33.8557   24.2392 N   0  0  0  0  0  0
  -23.4797  -30.5058   21.4967 C   0  0  2  0  0  0
  -24.8916  -28.9399   20.0859 C   0  0  0  0  0  0
  -22.7938  -29.4836   22.4199 C   0  0  0  0  0  0
  -18.0540  -28.1553   22.7950 C   0  0  0  0  0  0
  -24.1443  -36.7312   23.2631 C   0  0  0  0  0  0
  -26.0051  -30.7820   21.3740 C   0  0  0  0  0  0
  -26.0507  -29.3736   20.7380 C   0  0  0  0  0  0
  -27.1829  -28.4787   20.7473 C   0  0  0  0  0  0
  -25.9407  -26.8362   19.5185 C   0  0  0  0  0  0
  -24.8455  -27.6978   19.4392 C   0  0  0  0  0  0
  -23.6912  -29.8469   20.1240 C   0  0  0  0  0  0
  -25.4189  -36.3192   24.0261 C   0  0  1  0  0  0
  -20.6145  -28.4299   23.0404 C   0  0  2  0  0  0
  -20.7022  -27.0032   22.4608 C   0  0  0  0  0  0
  -19.6153  -26.6904   21.4289 C   0  0  0  0  0  0
  -18.2374  -26.8260   22.0604 C   0  0  0  0  0  0
  -19.1733  -28.9052   23.2382 C   0  0  0  0  0  0
  -18.9683  -30.1316   23.9010 C   0  0  0  0  0  0
  -17.6763  -30.6460   24.0697 C   0  0  0  0  0  0
  -25.9280  -34.9495   23.5185 C   0  0  0  0  0  0
  -16.5661  -29.9162   23.6218 C   0  0  0  0  0  0
  -16.7454  -28.6502   23.0195 C   0  0  0  0  0  0
  -26.4841  -31.6615   25.0776 C   0  0  0  0  0  0
  -25.3926  -31.3718   26.1320 C   0  0  0  0  0  0
  -27.0537  -30.2883   24.6427 C   0  0  0  0  0  0
  -27.6506  -32.4397   25.7638 C   0  0  0  0  0  0
  -27.5587  -37.1842   24.8484 C   0  0  0  0  0  0
  -21.4647  -29.3737   22.2780 N   0  0  0  0  0  0
  -26.4369  -37.3982   23.9334 N   0  0  0  0  0  0
  -24.7411  -31.0749   22.0644 N   0  0  0  0  0  0
  -23.4584  -28.8117   23.2276 O   0  0  0  0  0  0
  -28.0401  -26.0967   20.2758 O   0  0  0  0  0  0
  -26.5795  -34.8861   22.4768 O   0  0  0  0  0  0
  -23.5702  -32.0951   23.7251 O   0  0  0  0  0  0
  -28.6105  -18.2243   20.4215 C   0  0  0  0  0  0
  -27.3288  -16.9028   21.9803 C   0  0  0  0  0  0
  -26.2831  -18.8070   20.9215 C   0  0  0  0  0  0
  -27.5472  -19.2590   20.4416 C   0  0  0  0  0  0
  -28.4461  -16.9157   21.0843 C   0  0  0  0  0  0
  -26.2933  -17.8672   21.9545 C   0  0  0  0  0  0
  -27.1187  -21.0369   18.8036 C   0  0  0  0  0  0
  -24.4826  -20.2903   23.7119 C   0  0  0  0  0  0
  -25.4649  -19.3772   23.5882 C   0  0  0  0  0  0
  -26.1613  -22.2343   18.6250 C   0  0  0  0  0  0
  -25.8081  -23.0658   19.8703 C   0  0  0  0  0  0
  -27.5911  -21.8037   21.1020 C   0  0  0  0  0  0
  -26.9896  -23.3129   20.8003 C   0  0  1  0  0  0
  -24.9358  -19.3247   20.4297 C   0  0  0  0  0  0
  -24.0763  -17.4327   22.9975 C   0  0  0  0  0  0
  -27.7115  -24.8034   21.0947 C   0  0  0  0  0  0
  -27.5822  -20.7032   20.0405 N   0  0  0  0  0  0
  -29.2204  -15.6078   21.1289 N   0  0  0  0  0  0
  -25.4002  -18.0992   23.0166 N   0  0  0  0  0  0
  -27.3764  -20.3106   17.8237 O   0  0  0  0  0  0
  -31.4815  -12.7625   19.2120 H   0  0  0  0  0  0
  -30.5291  -11.5146   19.9375 H   0  0  0  0  0  0
  -29.8423  -11.6917   17.5698 H   0  0  0  0  0  0
  -29.6517  -13.4335   17.6996 H   0  0  0  0  0  0
  -27.9023  -11.2390   18.8836 H   0  0  0  0  0  0
  -27.4044  -12.4936   17.7742 H   0  0  0  0  0  0
  -27.6525  -14.2096   19.5068 H   0  0  0  0  0  0
  -28.7106  -11.8973   21.2336 H   0  0  0  0  0  0
  -28.3179  -13.4459   21.9120 H   0  0  0  0  0  0
  -25.2646   -9.5583   22.4839 H   0  0  0  0  0  0
  -23.9917   -7.4511   22.7419 H   0  0  0  0  0  0
  -21.0771   -8.8669   19.8980 H   0  0  0  0  0  0
  -22.3543  -10.9623   19.6258 H   0  0  0  0  0  0
  -21.1929   -7.6099   23.9706 H   0  0  0  0  0  0
  -21.1469   -6.0502   25.9106 H   0  0  0  0  0  0
  -22.0627   -2.7556   23.2893 H   0  0  0  0  0  0
  -22.3935  -11.9861   22.4893 H   0  0  0  0  0  0
  -21.1049  -13.1371   22.2810 H   0  0  0  0  0  0
  -24.5717  -15.7541   20.3187 H   0  0  0  0  0  0
  -26.1368  -15.5095   19.7294 H   0  0  0  0  0  0
  -26.7393  -32.5073   23.0905 H   0  0  0  0  0  0
  -24.9691  -33.9577   25.0033 H   0  0  0  0  0  0
  -22.7530  -31.3049   21.3106 H   0  0  0  0  0  0
  -23.3845  -35.9541   23.3518 H   0  0  0  0  0  0
  -24.3472  -36.8847   22.2033 H   0  0  0  0  0  0
  -23.6963  -37.6499   23.6563 H   0  0  0  0  0  0
  -26.1644  -31.6017   20.6785 H   0  0  0  0  0  0
  -26.8632  -30.7876   22.0593 H   0  0  0  0  0  0
  -28.0742  -28.7582   21.2437 H   0  0  0  0  0  0
  -25.8976  -25.8731   19.0483 H   0  0  0  0  0  0
  -23.9837  -27.3550   18.8886 H   0  0  0  0  0  0
  -23.9012  -30.5976   19.3668 H   0  0  0  0  0  0
  -22.7967  -29.2846   19.8525 H   0  0  0  0  0  0
  -25.1328  -36.2168   25.0763 H   0  0  0  0  0  0
  -21.0405  -28.4281   24.0432 H   0  0  0  0  0  0
  -20.5613  -26.3532   23.3061 H   0  0  0  0  0  0
  -21.6798  -26.7536   22.0640 H   0  0  0  0  0  0
  -19.7314  -25.6969   21.0064 H   0  0  0  0  0  0
  -19.6722  -27.3934   20.6035 H   0  0  0  0  0  0
  -17.4432  -26.7209   21.3181 H   0  0  0  0  0  0
  -18.1060  -26.0066   22.7766 H   0  0  0  0  0  0
  -19.8297  -30.6719   24.3108 H   0  0  0  0  0  0
  -17.5401  -31.5852   24.5550 H   0  0  0  0  0  0
  -15.5576  -30.3156   23.6863 H   0  0  0  0  0  0
  -15.9003  -28.0645   22.6902 H   0  0  0  0  0  0
  -24.6225  -30.7228   25.7177 H   0  0  0  0  0  0
  -24.8889  -32.2835   26.4565 H   0  0  0  0  0  0
  -25.7785  -30.8629   27.0106 H   0  0  0  0  0  0
  -26.2903  -29.6861   24.1440 H   0  0  0  0  0  0
  -27.4027  -29.7111   25.4991 H   0  0  0  0  0  0
  -27.9010  -30.3941   23.9617 H   0  0  0  0  0  0
  -27.3213  -33.3666   26.2304 H   0  0  0  0  0  0
  -28.4245  -32.7133   25.0494 H   0  0  0  0  0  0
  -28.1368  -31.8453   26.5397 H   0  0  0  0  0  0
  -28.2822  -37.9972   24.7666 H   0  0  0  0  0  0
  -28.0874  -36.2567   24.6269 H   0  0  0  0  0  0
  -27.2222  -37.1434   25.8866 H   0  0  0  0  0  0
  -20.9955  -30.0001   21.6442 H   0  0  0  0  0  0
  -26.0364  -38.3129   24.1326 H   0  0  0  0  0  0
  -29.5230  -18.4419   19.9158 H   0  0  0  0  0  0
  -27.2226  -16.1419   22.7340 H   0  0  0  0  0  0
  -24.6871  -21.2513   24.1405 H   0  0  0  0  0  0
  -23.4654  -20.1010   23.3934 H   0  0  0  0  0  0
  -26.4606  -19.6122   23.9232 H   0  0  0  0  0  0
  -25.2078  -21.7644   18.3589 H   0  0  0  0  0  0
  -26.3758  -22.8840   17.7789 H   0  0  0  0  0  0
  -25.0490  -22.4900   20.4257 H   0  0  0  0  0  0
  -25.2744  -23.9882   19.6637 H   0  0  0  0  0  0
  -26.9612  -21.4437   21.9094 H   0  0  0  0  0  0
  -28.5846  -21.8229   21.5442 H   0  0  0  0  0  0
  -26.3666  -23.4028   21.6950 H   0  0  0  0  0  0
  -24.5437  -20.2060   20.9612 H   0  0  0  0  0  0
  -24.1887  -18.5273   20.5307 H   0  0  0  0  0  0
  -24.9607  -19.5323   19.3744 H   0  0  0  0  0  0
  -24.1185  -16.4026   22.6406 H   0  0  0  0  0  0
  -23.3294  -17.9815   22.4130 H   0  0  0  0  0  0
  -23.6990  -17.4352   24.0159 H   0  0  0  0  0  0
  -28.6851  -24.4887   21.4732 H   0  0  0  0  0  0
  -27.2464  -25.1575   22.0117 H   0  0  0  0  0  0
  -28.5895  -14.9159   21.4802 H   0  0  0  0  0  0
  1 25  1  0  0  0
  1 30  2  0  0  0
  1 88  1  0  0  0
  2  3  1  0  0  0
  2 25  1  0  0  0
  2 91  1  0  0  0
  2 92  1  0  0  0
  3  4  1  0  0  0
  3 93  1  0  0  0
  3 94  1  0  0  0
  4  5  1  0  0  0
  4 95  1  0  0  0
  4 96  1  0  0  0
  5  6  1  0  0  0
  5 26  1  0  0  0
  5 97  1  0  0  0
  6 25  1  0  0  0
  6 98  1  0  0  0
  6 99  1  0  0  0
  7  8  2  0  0  0
  7 26  1  0  0  0
  7 29  1  0  0  0
  8  9  1  0  0  0
  8 22  1  0  0  0
  9 10  1  0  0  0
  9 27  2  0  0  0
 10 11  2  0  0  0
 10 15  1  0  0  0
 11 12  1  0  0  0
 11100  1  0  0  0
 12 13  2  0  0  0
 12101  1  0  0  0
 13 14  1  0  0  0
 13 31  1  0  0  0
 14 15  2  0  0  0
 14102  1  0  0  0
 15103  1  0  0  0
 16 17  2  0  0  0
 16 21  1  0  0  0
 16 31  1  0  0  0
 17 18  1  0  0  0
 17104  1  0  0  0
 18 19  2  0  0  0
 18105  1  0  0  0
 19 20  1  0  0  0
 19 24  1  0  0  0
 20 21  2  0  0  0
 20106  1  0  0  0
 21 23  1  0  0  0
 22 28  1  0  0  0
 22 32  2  0  0  0
 26 27  1  0  0  0
 28107  1  0  0  0
 28108  1  0  0  0
 29109  1  0  0  0
 29110  1  0  0  0
 33 34  1  0  0  0
 33 66  1  0  0  0
 33 70  2  0  0  0
 34 36  1  0  0  0
 34 59  1  0  0  0
 34111  1  0  0  0
 35 44  2  0  0  0
 35 45  1  0  0  0
 35 68  1  0  0  0
 36 56  1  0  0  0
 36112  1  0  0  0
 37 39  1  0  0  0
 37 47  1  0  0  0
 37 66  1  0  0  0
 37113  1  0  0  0
 38 43  2  0  0  0
 38 46  1  0  0  0
 38 47  1  0  0  0
 39 64  1  0  0  0
 39 67  2  0  0  0
 40 52  1  0  0  0
 40 53  2  0  0  0
 40 58  1  0  0  0
 41114  1  0  0  0
 41115  1  0  0  0
 41116  1  0  0  0
 41 48  1  0  0  0
 42 43  1  0  0  0
 42 66  1  0  0  0
 42117  1  0  0  0
 42118  1  0  0  0
 43 44  1  0  0  0
 44119  1  0  0  0
 45 46  2  0  0  0
 45120  1  0  0  0
 46121  1  0  0  0
 47122  1  0  0  0
 47123  1  0  0  0
 48 56  1  0  0  0
 48 65  1  0  0  0
 48124  1  0  0  0
 49 50  1  0  0  0
 49 53  1  0  0  0
 49 64  1  0  0  0
 49125  1  0  0  0
 50 51  1  0  0  0
 50126  1  0  0  0
 50127  1  0  0  0
 51 52  1  0  0  0
 51128  1  0  0  0
 51129  1  0  0  0
 52130  1  0  0  0
 52131  1  0  0  0
 53 54  1  0  0  0
 54 55  2  0  0  0
 54132  1  0  0  0
 55 57  1  0  0  0
 55133  1  0  0  0
 56 69  2  0  0  0
 57 58  2  0  0  0
 57134  1  0  0  0
 58135  1  0  0  0
 59 60  1  0  0  0
 59 61  1  0  0  0
 59 62  1  0  0  0
 60136  1  0  0  0
 60137  1  0  0  0
 60138  1  0  0  0
 61139  1  0  0  0
 61140  1  0  0  0
 61141  1  0  0  0
 62142  1  0  0  0
 62143  1  0  0  0
 62144  1  0  0  0
 63 65  1  0  0  0
 63145  1  0  0  0
 63146  1  0  0  0
 63147  1  0  0  0
 64148  1  0  0  0
 65149  1  0  0  0
 68 86  1  0  0  0
 71 74  2  0  0  0
 71 75  1  0  0  0
 71150  1  0  0  0
 72 75  2  0  0  0
 72 76  1  0  0  0
 72151  1  0  0  0
 73 74  1  0  0  0
 73 76  2  0  0  0
 73 84  1  0  0  0
 74 87  1  0  0  0
 75 88  1  0  0  0
 76 89  1  0  0  0
 77 80  1  0  0  0
 77 87  1  0  0  0
 77 90  2  0  0  0
 78 79  2  0  0  0
 78152  1  0  0  0
 78153  1  0  0  0
 79 89  1  0  0  0
 79154  1  0  0  0
 80 81  1  0  0  0
 80155  1  0  0  0
 80156  1  0  0  0
 81 83  1  0  0  0
 81157  1  0  0  0
 81158  1  0  0  0
 82 83  1  0  0  0
 82 87  1  0  0  0
 82159  1  0  0  0
 82160  1  0  0  0
 83 86  1  0  0  0
 83161  1  0  0  0
 84162  1  0  0  0
 84163  1  0  0  0
 84164  1  0  0  0
 85 89  1  0  0  0
 85165  1  0  0  0
 85166  1  0  0  0
 85167  1  0  0  0
 86168  1  0  0  0
 86169  1  0  0  0
 88170  1  0  0  0
M  ISO  4   1 100  68 101  86 101  88 100
M  END
> <chiral flag>
0

> <version>
0

> <s_m_source_file>
/data/baiqing/PycharmProjects/Reinvent-master-3.2/result/LINK_invent/BTK/process_docking_weight1_custom_product_contain_oxygen_bond_distance_aromatic_linkinvent_7_9_3/rearranged_h_0065.sdf

> <i_m_source_file_index>
45

> <r_mmod_Potential_Energy-OPLS-2005>
1005.14086914062

> <r_mmod_Stretch_Energy-OPLS-2005>
225.981018066406

> <r_mmod_Bend_Energy-OPLS-2005>
431.613189697266

> <r_mmod_Torsional_Energy-OPLS-2005>
523.997314453125

> <r_mmod_Improper_Torsional_Energy-OPLS-2005>
13.3749227523804

> <r_mmod_Van_der_Waal_Energy-OPLS-2005>
159.331298828125

> <r_mmod_Electrostatic_Energy-OPLS-2005>
-354.365142822266

> <r_mmod_Solvation_Energy-OPLS-2005>
-218.637405395508

> <b_mmod_Minimization_Converged-OPLS-2005>
0

> <r_mmod_RMS_Derivative-OPLS-2005>
37.4591903686523

$$$$
45
                    3D
 Structure written by MMmdl.
161170  0  0  1  0            999 V2000
  -30.5699  -14.7877   20.4528 C   0  0  0  0  0  0
  -30.4384  -12.4893   19.4520 C   0  0  0  0  0  0
  -29.5066  -12.5142   18.2190 C   0  0  0  0  0  0
  -28.0346  -12.3254   18.6445 C   0  0  0  0  0  0
  -27.6368  -13.2285   19.8433 C   0  0  2  0  0  0
  -28.6886  -13.1713   20.9705 C   0  0  0  0  0  0
  -25.2504  -13.8185   20.5703 C   0  0  0  0  0  0
  -24.1806  -13.0435   20.9252 C   0  0  0  0  0  0
  -24.6401  -11.6913   20.8800 C   0  0  0  0  0  0
  -23.9085  -10.4294   21.0462 C   0  0  0  0  0  0
  -24.3635   -9.4198   21.9221 C   0  0  0  0  0  0
  -23.6303   -8.2241   22.0768 C   0  0  0  0  0  0
  -22.4284   -8.0301   21.3560 C   0  0  0  0  0  0
  -21.9933   -9.0278   20.4662 C   0  0  0  0  0  0
  -22.7273  -10.2148   20.3087 C   0  0  0  0  0  0
  -21.6848   -6.0756   22.5286 C   0  0  0  0  0  0
  -21.4003   -6.5646   23.8222 C   0  0  0  0  0  0
  -21.3659   -5.6795   24.9180 C   0  0  0  0  0  0
  -21.6046   -4.3059   24.7226 C   0  0  0  0  0  0
  -21.8814   -3.8155   23.4341 C   0  0  0  0  0  0
  -21.9188   -4.6984   22.3400 C   0  0  0  0  0  0
  -22.7823  -13.5235   21.1899 C   0  0  0  0  0  0
  -22.1663   -4.2165   21.0984 F   0  0  0  0  0  0
  -21.5635   -3.4540   25.7734 F   0  0  0  0  0  0
  -29.9719  -13.5489   20.3701 N   0  0  0  0  0  0
  -26.2926  -12.9378   20.3274 N   0  0  0  0  0  0
  -25.9329  -11.6531   20.5773 N   0  0  0  0  0  0
  -22.0460  -12.8234   22.0442 N   0  0  0  0  0  0
  -25.4124  -15.1925   20.4072 N   0  0  0  0  0  0
  -31.7827  -14.8948   20.2457 O   0  0  0  0  0  0
  -21.6635   -6.8906   21.4250 O   0  0  0  0  0  0
  -22.3516  -14.5544   20.6741 O   0  0  0  0  0  0
  -24.6324  -31.8505   23.1931 C   0  0  0  0  0  0
  -25.9142  -32.4716   23.8266 C   0  0  1  0  0  0
  -27.2201  -27.2432   20.1236 C   0  0  0  0  0  0
  -25.5938  -33.8517   24.2196 N   0  0  0  0  0  0
  -23.4309  -30.4712   21.5360 C   0  0  2  0  0  0
  -24.8805  -28.9148   20.1097 C   0  0  0  0  0  0
  -22.7535  -29.4531   22.4856 C   0  0  0  0  0  0
  -18.0273  -28.1419   22.8466 C   0  0  0  0  0  0
  -24.1487  -36.7272   23.2644 C   0  0  0  0  0  0
  -25.9765  -30.7617   21.3695 C   0  0  0  0  0  0
  -26.0540  -29.3787   20.7198 C   0  0  0  0  0  0
  -27.2292  -28.5554   20.7159 C   0  0  0  0  0  0
  -26.0262  -26.8535   19.4877 C   0  0  0  0  0  0
  -24.8731  -27.6606   19.4831 C   0  0  0  0  0  0
  -23.6538  -29.8037   20.1528 C   0  0  0  0  0  0
  -25.4108  -36.3038   24.0324 C   0  0  1  0  0  0
  -20.5890  -28.3704   23.1278 C   0  0  2  0  0  0
  -20.6775  -26.9415   22.5411 C   0  0  0  0  0  0
  -19.5769  -26.6398   21.5229 C   0  0  0  0  0  0
  -18.1929  -26.7967   22.1612 C   0  0  0  0  0  0
  -19.1540  -28.8876   23.2866 C   0  0  0  0  0  0
  -18.9479  -30.1483   23.8867 C   0  0  0  0  0  0
  -17.6494  -30.6604   24.0591 C   0  0  0  0  0  0
  -25.9048  -34.9419   23.5047 C   0  0  0  0  0  0
  -16.5375  -29.9113   23.6364 C   0  0  0  0  0  0
  -16.7279  -28.6566   23.0308 C   0  0  0  0  0  0
  -26.4508  -31.6540   25.0653 C   0  0  0  0  0  0
  -25.3742  -31.3735   26.1388 C   0  0  0  0  0  0
  -27.0349  -30.2966   24.6105 C   0  0  0  0  0  0
  -27.6044  -32.4272   25.7470 C   0  0  0  0  0  0
  -27.5553  -37.1772   24.8465 C   0  0  0  0  0  0
  -21.4220  -29.3041   22.3668 N   0  0  0  0  0  0
  -26.4260  -37.3754   23.9419 N   0  0  0  0  0  0
  -24.7001  -31.0443   22.0904 N   0  0  0  0  0  0
  -23.4242  -28.8027   23.2907 O   0  0  0  0  0  0
  -28.3058  -26.3344   20.1152 O   0  0  0  0  0  0
  -26.5610  -34.8943   22.4613 O   0  0  0  0  0  0
  -23.5460  -32.1319   23.7196 O   0  0  0  0  0  0
  -30.1795  -18.7293   22.8805 C   0  0  0  0  0  0
  -30.2205  -17.4648   22.2614 C   0  0  0  0  0  0
  -29.4870  -18.5302   20.2014 C   0  0  0  0  0  0
  -29.8251  -19.9103   22.1878 C   0  0  0  0  0  0
  -29.5055  -19.8699   20.7995 C   0  0  0  0  0  0
  -29.8612  -17.3005   20.9088 C   0  0  0  0  0  0
  -30.4036  -22.0079   19.8880 C   0  0  0  0  0  0
  -30.1059  -23.3125   19.7046 C   0  0  0  0  0  0
  -32.0769  -24.5806   20.4133 C   0  0  0  0  0  0
  -31.1028  -24.3455   19.5188 C   0  0  0  0  0  0
  -28.1796  -22.0893   20.2046 C   0  0  0  0  0  0
  -28.6168  -23.5679   19.7267 C   0  0  1  0  0  0
  -29.8301  -21.2107   22.9887 C   0  0  0  0  0  0
  -28.0809  -24.8911   20.5242 C   0  0  0  0  0  0
  -29.3403  -21.1313   20.0760 N   0  0  0  0  0  0
  -29.7335  -15.9026   20.4060 N   0  0  0  0  0  0
  -31.4751  -12.6445   19.1496 H   0  0  0  0  0  0
  -30.4035  -11.5167   19.9439 H   0  0  0  0  0  0
  -29.7961  -11.7381   17.5088 H   0  0  0  0  0  0
  -29.6143  -13.4630   17.6898 H   0  0  0  0  0  0
  -27.9116  -11.2767   18.9171 H   0  0  0  0  0  0
  -27.3660  -12.5014   17.8001 H   0  0  0  0  0  0
  -27.6218  -14.2473   19.4569 H   0  0  0  0  0  0
  -28.7485  -12.1702   21.4015 H   0  0  0  0  0  0
  -28.4269  -13.8509   21.7845 H   0  0  0  0  0  0
  -25.2797   -9.5662   22.4788 H   0  0  0  0  0  0
  -24.0012   -7.4620   22.7483 H   0  0  0  0  0  0
  -21.0866   -8.8820   19.8959 H   0  0  0  0  0  0
  -22.3773  -10.9695   19.6183 H   0  0  0  0  0  0
  -21.1983   -7.6150   23.9735 H   0  0  0  0  0  0
  -21.1492   -6.0523   25.9088 H   0  0  0  0  0  0
  -22.0590   -2.7616   23.2836 H   0  0  0  0  0  0
  -22.4045  -11.9847   22.4776 H   0  0  0  0  0  0
  -21.1088  -13.1257   22.2669 H   0  0  0  0  0  0
  -24.6289  -15.8311   20.5000 H   0  0  0  0  0  0
  -26.2419  -15.6392   20.0379 H   0  0  0  0  0  0
  -26.7192  -32.5376   23.0978 H   0  0  0  0  0  0
  -25.0163  -33.9631   25.0384 H   0  0  0  0  0  0
  -22.7275  -31.2918   21.3817 H   0  0  0  0  0  0
  -23.3747  -35.9604   23.3302 H   0  0  0  0  0  0
  -24.3590  -36.8891   22.2059 H   0  0  0  0  0  0
  -23.7259  -37.6486   23.6669 H   0  0  0  0  0  0
  -26.0907  -31.5150   20.5907 H   0  0  0  0  0  0
  -26.8632  -30.8250   21.9881 H   0  0  0  0  0  0
  -28.1299  -28.9012   21.2039 H   0  0  0  0  0  0
  -25.9784  -25.8928   18.9942 H   0  0  0  0  0  0
  -23.9779  -27.3035   18.9914 H   0  0  0  0  0  0
  -23.7883  -30.5797   19.3986 H   0  0  0  0  0  0
  -22.7741  -29.2413   19.8389 H   0  0  0  0  0  0
  -25.1273  -36.1863   25.0809 H   0  0  0  0  0  0
  -20.9938  -28.3269   24.1408 H   0  0  0  0  0  0
  -20.5718  -26.2286   23.3601 H   0  0  0  0  0  0
  -21.6637  -26.7455   22.1176 H   0  0  0  0  0  0
  -19.6962  -25.6322   21.1205 H   0  0  0  0  0  0
  -19.6731  -27.3243   20.6802 H   0  0  0  0  0  0
  -17.4202  -26.6694   21.4024 H   0  0  0  0  0  0
  -18.0329  -26.0131   22.9029 H   0  0  0  0  0  0
  -19.7973  -30.7294   24.2198 H   0  0  0  0  0  0
  -17.5077  -31.6286   24.5190 H   0  0  0  0  0  0
  -15.5394  -30.3012   23.7757 H   0  0  0  0  0  0
  -15.8674  -28.0942   22.6949 H   0  0  0  0  0  0
  -24.5957  -30.7003   25.7781 H   0  0  0  0  0  0
  -24.8910  -32.2945   26.4696 H   0  0  0  0  0  0
  -25.8101  -30.9056   27.0240 H   0  0  0  0  0  0
  -26.2939  -29.6728   24.1109 H   0  0  0  0  0  0
  -27.4068  -29.7175   25.4587 H   0  0  0  0  0  0
  -27.8783  -30.4237   23.9303 H   0  0  0  0  0  0
  -27.2610  -33.3583   26.1976 H   0  0  0  0  0  0
  -28.3933  -32.6781   25.0361 H   0  0  0  0  0  0
  -28.0614  -31.8425   26.5463 H   0  0  0  0  0  0
  -28.2505  -38.0120   24.7494 H   0  0  0  0  0  0
  -28.1077  -36.2635   24.6256 H   0  0  0  0  0  0
  -27.2271  -37.1370   25.8867 H   0  0  0  0  0  0
  -20.9402  -29.8849   21.6935 H   0  0  0  0  0  0
  -26.0128  -38.2790   24.1531 H   0  0  0  0  0  0
  -30.4300  -18.7845   23.9307 H   0  0  0  0  0  0
  -30.4809  -16.6046   22.8635 H   0  0  0  0  0  0
  -29.2032  -18.4456   19.1619 H   0  0  0  0  0  0
  -31.3982  -21.5816   19.9175 H   0  0  0  0  0  0
  -32.8156  -25.3495   20.2419 H   0  0  0  0  0  0
  -32.1453  -24.0121   21.3296 H   0  0  0  0  0  0
  -31.0666  -24.9407   18.6156 H   0  0  0  0  0  0
  -27.3427  -21.7417   19.5961 H   0  0  0  0  0  0
  -27.8190  -22.1330   21.2293 H   0  0  0  0  0  0
  -28.3215  -23.6780   18.6816 H   0  0  0  0  0  0
  -30.0663  -21.0295   24.0386 H   0  0  0  0  0  0
  -28.8521  -21.6867   22.9783 H   0  0  0  0  0  0
  -30.5696  -21.9155   22.6093 H   0  0  0  0  0  0
  -27.0113  -24.7356   20.6693 H   0  0  0  0  0  0
  -28.4777  -24.8199   21.5351 H   0  0  0  0  0  0
  -28.7909  -15.6556   20.1450 H   0  0  0  0  0  0
  1 25  1  0  0  0
  1 30  2  0  0  0
  1 86  1  0  0  0
  2  3  1  0  0  0
  2 25  1  0  0  0
  2 87  1  0  0  0
  2 88  1  0  0  0
  3  4  1  0  0  0
  3 89  1  0  0  0
  3 90  1  0  0  0
  4  5  1  0  0  0
  4 91  1  0  0  0
  4 92  1  0  0  0
  5  6  1  0  0  0
  5 26  1  0  0  0
  5 93  1  0  0  0
  6 25  1  0  0  0
  6 94  1  0  0  0
  6 95  1  0  0  0
  7  8  2  0  0  0
  7 26  1  0  0  0
  7 29  1  0  0  0
  8  9  1  0  0  0
  8 22  1  0  0  0
  9 10  1  0  0  0
  9 27  2  0  0  0
 10 11  2  0  0  0
 10 15  1  0  0  0
 11 12  1  0  0  0
 11 96  1  0  0  0
 12 13  2  0  0  0
 12 97  1  0  0  0
 13 14  1  0  0  0
 13 31  1  0  0  0
 14 15  2  0  0  0
 14 98  1  0  0  0
 15 99  1  0  0  0
 16 17  2  0  0  0
 16 21  1  0  0  0
 16 31  1  0  0  0
 17 18  1  0  0  0
 17100  1  0  0  0
 18 19  2  0  0  0
 18101  1  0  0  0
 19 20  1  0  0  0
 19 24  1  0  0  0
 20 21  2  0  0  0
 20102  1  0  0  0
 21 23  1  0  0  0
 22 28  1  0  0  0
 22 32  2  0  0  0
 26 27  1  0  0  0
 28103  1  0  0  0
 28104  1  0  0  0
 29105  1  0  0  0
 29106  1  0  0  0
 33 34  1  0  0  0
 33 66  1  0  0  0
 33 70  2  0  0  0
 34 36  1  0  0  0
 34 59  1  0  0  0
 34107  1  0  0  0
 35 44  2  0  0  0
 35 45  1  0  0  0
 35 68  1  0  0  0
 36 56  1  0  0  0
 36108  1  0  0  0
 37 39  1  0  0  0
 37 47  1  0  0  0
 37 66  1  0  0  0
 37109  1  0  0  0
 38 43  2  0  0  0
 38 46  1  0  0  0
 38 47  1  0  0  0
 39 64  1  0  0  0
 39 67  2  0  0  0
 40 52  1  0  0  0
 40 53  2  0  0  0
 40 58  1  0  0  0
 41110  1  0  0  0
 41111  1  0  0  0
 41112  1  0  0  0
 41 48  1  0  0  0
 42 43  1  0  0  0
 42 66  1  0  0  0
 42113  1  0  0  0
 42114  1  0  0  0
 43 44  1  0  0  0
 44115  1  0  0  0
 45 46  2  0  0  0
 45116  1  0  0  0
 46117  1  0  0  0
 47118  1  0  0  0
 47119  1  0  0  0
 48 56  1  0  0  0
 48 65  1  0  0  0
 48120  1  0  0  0
 49 50  1  0  0  0
 49 53  1  0  0  0
 49 64  1  0  0  0
 49121  1  0  0  0
 50 51  1  0  0  0
 50122  1  0  0  0
 50123  1  0  0  0
 51 52  1  0  0  0
 51124  1  0  0  0
 51125  1  0  0  0
 52126  1  0  0  0
 52127  1  0  0  0
 53 54  1  0  0  0
 54 55  2  0  0  0
 54128  1  0  0  0
 55 57  1  0  0  0
 55129  1  0  0  0
 56 69  2  0  0  0
 57 58  2  0  0  0
 57130  1  0  0  0
 58131  1  0  0  0
 59 60  1  0  0  0
 59 61  1  0  0  0
 59 62  1  0  0  0
 60132  1  0  0  0
 60133  1  0  0  0
 60134  1  0  0  0
 61135  1  0  0  0
 61136  1  0  0  0
 61137  1  0  0  0
 62138  1  0  0  0
 62139  1  0  0  0
 62140  1  0  0  0
 63 65  1  0  0  0
 63141  1  0  0  0
 63142  1  0  0  0
 63143  1  0  0  0
 64144  1  0  0  0
 65145  1  0  0  0
 68 84  1  0  0  0
 71 72  2  0  0  0
 71 74  1  0  0  0
 71146  1  0  0  0
 72 76  1  0  0  0
 72147  1  0  0  0
 73 75  1  0  0  0
 73 76  2  0  0  0
 73148  1  0  0  0
 74 75  2  0  0  0
 74 83  1  0  0  0
 75 85  1  0  0  0
 76 86  1  0  0  0
 77 78  2  0  0  0
 77 85  1  0  0  0
 77149  1  0  0  0
 78 80  1  0  0  0
 78 82  1  0  0  0
 79 80  2  0  0  0
 79150  1  0  0  0
 79151  1  0  0  0
 80152  1  0  0  0
 81 82  1  0  0  0
 81 85  1  0  0  0
 81153  1  0  0  0
 81154  1  0  0  0
 82 84  1  0  0  0
 82155  1  0  0  0
 83156  1  0  0  0
 83157  1  0  0  0
 83158  1  0  0  0
 84159  1  0  0  0
 84160  1  0  0  0
 86161  1  0  0  0
M  ISO  4   1 100  68 101  84 101  86 100
M  END
> <chiral flag>
0

> <version>
0

> <s_m_source_file>
/data/baiqing/PycharmProjects/Reinvent-master-3.2/result/LINK_invent/BTK/process_docking_weight1_custom_product_contain_oxygen_bond_distance_aromatic_linkinvent_7_9_3/rearranged_h_0065.sdf

> <i_m_source_file_index>
46

> <r_mmod_Potential_Energy-OPLS-2005>
378.1337890625

> <r_mmod_Stretch_Energy-OPLS-2005>
135.438262939453

> <r_mmod_Bend_Energy-OPLS-2005>
239.572677612305

> <r_mmod_Torsional_Energy-OPLS-2005>
322.97998046875

> <r_mmod_Improper_Torsional_Energy-OPLS-2005>
13.7726726531982

> <r_mmod_Van_der_Waal_Energy-OPLS-2005>
128.754180908203

> <r_mmod_Electrostatic_Energy-OPLS-2005>
-354.754455566406

> <r_mmod_Solvation_Energy-OPLS-2005>
-211.157623291016

> <b_mmod_Minimization_Converged-OPLS-2005>
0

> <r_mmod_RMS_Derivative-OPLS-2005>
4.39265918731689

$$$$
46
                    3D
 Structure written by MMmdl.
168178  0  0  1  0            999 V2000
  -30.5875  -14.6123   20.5890 C   0  0  0  0  0  0
  -30.4593  -12.3932   19.4435 C   0  0  0  0  0  0
  -29.5172  -12.5125   18.2227 C   0  0  0  0  0  0
  -28.0369  -12.3441   18.6290 C   0  0  0  0  0  0
  -27.6630  -13.1957   19.8692 C   0  0  2  0  0  0
  -28.7010  -12.9816   20.9923 C   0  0  0  0  0  0
  -25.2620  -13.8109   20.5575 C   0  0  0  0  0  0
  -24.1867  -13.0432   20.9156 C   0  0  0  0  0  0
  -24.6394  -11.6892   20.8730 C   0  0  0  0  0  0
  -23.9051  -10.4290   21.0417 C   0  0  0  0  0  0
  -24.3612   -9.4205   21.9188 C   0  0  0  0  0  0
  -23.6290   -8.2239   22.0757 C   0  0  0  0  0  0
  -22.4272   -8.0276   21.3544 C   0  0  0  0  0  0
  -21.9895   -9.0257   20.4657 C   0  0  0  0  0  0
  -22.7218  -10.2143   20.3069 C   0  0  0  0  0  0
  -21.6853   -6.0735   22.5281 C   0  0  0  0  0  0
  -21.4014   -6.5640   23.8213 C   0  0  0  0  0  0
  -21.3663   -5.6798   24.9177 C   0  0  0  0  0  0
  -21.6040   -4.3056   24.7226 C   0  0  0  0  0  0
  -21.8815   -3.8145   23.4348 C   0  0  0  0  0  0
  -21.9193   -4.6960   22.3408 C   0  0  0  0  0  0
  -22.7903  -13.5255   21.1849 C   0  0  0  0  0  0
  -22.1660   -4.2137   21.0987 F   0  0  0  0  0  0
  -21.5626   -3.4544   25.7745 F   0  0  0  0  0  0
  -30.0233  -13.3691   20.4597 N   0  0  0  0  0  0
  -26.3030  -12.9248   20.3267 N   0  0  0  0  0  0
  -25.9313  -11.6433   20.5730 N   0  0  0  0  0  0
  -22.0545  -12.8266   22.0430 N   0  0  0  0  0  0
  -25.4409  -15.1792   20.3886 N   0  0  0  0  0  0
  -31.6909  -14.8902   20.1031 O   0  0  0  0  0  0
  -21.6635   -6.8872   21.4239 O   0  0  0  0  0  0
  -22.3573  -14.5540   20.6674 O   0  0  0  0  0  0
  -24.6226  -31.8601   23.2027 C   0  0  0  0  0  0
  -25.9082  -32.4780   23.8350 C   0  0  1  0  0  0
  -27.2368  -27.3410   20.1220 C   0  0  0  0  0  0
  -25.5900  -33.8578   24.2276 N   0  0  0  0  0  0
  -23.4161  -30.4815   21.5439 C   0  0  2  0  0  0
  -24.8666  -28.9364   20.1151 C   0  0  0  0  0  0
  -22.7457  -29.4620   22.4945 C   0  0  0  0  0  0
  -18.0279  -28.1388   22.8474 C   0  0  0  0  0  0
  -24.1489  -36.7297   23.2637 C   0  0  0  0  0  0
  -25.9536  -30.8002   21.3674 C   0  0  0  0  0  0
  -26.0327  -29.4262   20.7169 C   0  0  0  0  0  0
  -27.2210  -28.6402   20.7093 C   0  0  0  0  0  0
  -26.0496  -26.8992   19.4940 C   0  0  0  0  0  0
  -24.8763  -27.6772   19.4945 C   0  0  0  0  0  0
  -23.6309  -29.8112   20.1610 C   0  0  0  0  0  0
  -25.4108  -36.3081   24.0331 C   0  0  1  0  0  0
  -20.5875  -28.3678   23.1289 C   0  0  2  0  0  0
  -20.6757  -26.9402   22.5416 C   0  0  0  0  0  0
  -19.5749  -26.6393   21.5196 C   0  0  0  0  0  0
  -18.1927  -26.7931   22.1608 C   0  0  0  0  0  0
  -19.1532  -28.8850   23.2878 C   0  0  0  0  0  0
  -18.9458  -30.1446   23.8908 C   0  0  0  0  0  0
  -17.6459  -30.6586   24.0566 C   0  0  0  0  0  0
  -25.9043  -34.9451   23.5107 C   0  0  0  0  0  0
  -16.5348  -29.9092   23.6328 C   0  0  0  0  0  0
  -16.7266  -28.6511   23.0344 C   0  0  0  0  0  0
  -26.4502  -31.6581   25.0698 C   0  0  0  0  0  0
  -25.3773  -31.3715   26.1457 C   0  0  0  0  0  0
  -27.0316  -30.3004   24.6114 C   0  0  0  0  0  0
  -27.6092  -32.4308   25.7427 C   0  0  0  0  0  0
  -27.5584  -37.1779   24.8462 C   0  0  0  0  0  0
  -21.4175  -29.3028   22.3684 N   0  0  0  0  0  0
  -26.4291  -37.3770   23.9421 N   0  0  0  0  0  0
  -24.6824  -31.0639   22.0954 N   0  0  0  0  0  0
  -23.4191  -28.8173   23.3026 O   0  0  0  0  0  0
  -28.3771  -26.5290   20.1299 O   0  0  0  0  0  0
  -26.5625  -34.8917   22.4683 O   0  0  0  0  0  0
  -23.5393  -32.1388   23.7367 O   0  0  0  0  0  0
  -28.6716  -19.6041   21.7875 C   0  0  0  0  0  0
  -30.2410  -18.0245   20.7755 C   0  0  0  0  0  0
  -28.3451  -17.2147   22.0594 C   0  0  0  0  0  0
  -29.8236  -19.3924   20.9990 C   0  0  0  0  0  0
  -27.8905  -18.5368   22.2892 C   0  0  0  0  0  0
  -29.5146  -16.9170   21.3227 C   0  0  0  0  0  0
  -25.6441  -18.0097   23.2925 C   0  0  0  0  0  0
  -29.1561  -22.5487   20.2057 C   0  0  0  0  0  0
  -30.7141  -20.5809   20.5918 C   0  0  0  0  0  0
  -24.5158  -18.7320   24.0070 C   0  0  0  0  0  0
  -25.1350  -20.0727   24.3821 C   0  0  0  0  0  0
  -30.7196  -24.3100   20.5826 C   0  0  0  0  0  0
  -26.3831  -20.1836   23.5025 C   0  0  0  0  0  0
  -31.4021  -22.9401   20.4491 C   0  0  0  0  0  0
  -29.3345  -24.0940   19.9850 C   0  0  2  0  0  0
  -28.2237  -25.1040   20.4938 C   0  0  0  0  0  0
  -26.6889  -18.8298   23.0350 N   0  0  0  0  0  0
  -30.3430  -21.9137   20.4556 N   0  0  0  0  0  0
  -29.7957  -15.4870   21.2725 N   0  0  0  0  0  0
  -25.5402  -16.8134   23.0167 O   0  0  0  0  0  0
  -28.0527  -22.0134   20.0788 O   0  0  0  0  0  0
  -31.9056  -20.2881   20.4257 O   0  0  0  0  0  0
  -31.4945  -12.5620   19.1415 H   0  0  0  0  0  0
  -30.4304  -11.3846   19.8586 H   0  0  0  0  0  0
  -29.7836  -11.7645   17.4754 H   0  0  0  0  0  0
  -29.6582  -13.4842   17.7473 H   0  0  0  0  0  0
  -27.8728  -11.2872   18.8461 H   0  0  0  0  0  0
  -27.3838  -12.5843   17.7894 H   0  0  0  0  0  0
  -27.7032  -14.2400   19.5597 H   0  0  0  0  0  0
  -28.7172  -11.9320   21.2903 H   0  0  0  0  0  0
  -28.4174  -13.5235   21.8953 H   0  0  0  0  0  0
  -25.2764   -9.5673   22.4757 H   0  0  0  0  0  0
  -23.9991   -7.4632   22.7482 H   0  0  0  0  0  0
  -21.0812   -8.8791   19.8982 H   0  0  0  0  0  0
  -22.3670  -10.9694   19.6185 H   0  0  0  0  0  0
  -21.2012   -7.6155   23.9714 H   0  0  0  0  0  0
  -21.1486   -6.0533   25.9081 H   0  0  0  0  0  0
  -22.0589   -2.7604   23.2862 H   0  0  0  0  0  0
  -22.4157  -11.9927   22.4824 H   0  0  0  0  0  0
  -21.1190  -13.1339   22.2680 H   0  0  0  0  0  0
  -24.7385  -15.8465   20.6879 H   0  0  0  0  0  0
  -26.3306  -15.6135   20.1851 H   0  0  0  0  0  0
  -26.7146  -32.5473   23.1097 H   0  0  0  0  0  0
  -25.0013  -33.9722   25.0398 H   0  0  0  0  0  0
  -22.7078  -31.2996   21.3984 H   0  0  0  0  0  0
  -23.3742  -35.9639   23.3288 H   0  0  0  0  0  0
  -24.3581  -36.8924   22.2054 H   0  0  0  0  0  0
  -23.7251  -37.6502   23.6659 H   0  0  0  0  0  0
  -26.0743  -31.5603   20.5945 H   0  0  0  0  0  0
  -26.8379  -30.8575   21.9901 H   0  0  0  0  0  0
  -28.1185  -29.0161   21.1802 H   0  0  0  0  0  0
  -26.0149  -25.9467   18.9867 H   0  0  0  0  0  0
  -23.9854  -27.2997   19.0108 H   0  0  0  0  0  0
  -23.7419  -30.5839   19.3995 H   0  0  0  0  0  0
  -22.7539  -29.2327   19.8638 H   0  0  0  0  0  0
  -25.1284  -36.1923   25.0822 H   0  0  0  0  0  0
  -20.9960  -28.3246   24.1413 H   0  0  0  0  0  0
  -20.5619  -26.2290   23.3609 H   0  0  0  0  0  0
  -21.6630  -26.7409   22.1233 H   0  0  0  0  0  0
  -19.6909  -25.6309   21.1210 H   0  0  0  0  0  0
  -19.6701  -27.3217   20.6738 H   0  0  0  0  0  0
  -17.4191  -26.6666   21.4015 H   0  0  0  0  0  0
  -18.0340  -26.0074   22.9012 H   0  0  0  0  0  0
  -19.7934  -30.7248   24.2296 H   0  0  0  0  0  0
  -17.5018  -31.6263   24.5173 H   0  0  0  0  0  0
  -15.5351  -30.3003   23.7651 H   0  0  0  0  0  0
  -15.8659  -28.0837   22.7060 H   0  0  0  0  0  0
  -24.5938  -30.7063   25.7804 H   0  0  0  0  0  0
  -24.8984  -32.2883   26.4904 H   0  0  0  0  0  0
  -25.8141  -30.8887   27.0210 H   0  0  0  0  0  0
  -26.2842  -29.6743   24.1221 H   0  0  0  0  0  0
  -27.4112  -29.7268   25.4580 H   0  0  0  0  0  0
  -27.8680  -30.4283   23.9238 H   0  0  0  0  0  0
  -27.2720  -33.3588   26.2052 H   0  0  0  0  0  0
  -28.3851  -32.6903   25.0213 H   0  0  0  0  0  0
  -28.0823  -31.8411   26.5287 H   0  0  0  0  0  0
  -28.2609  -38.0069   24.7494 H   0  0  0  0  0  0
  -28.1068  -36.2598   24.6285 H   0  0  0  0  0  0
  -27.2309  -37.1428   25.8869 H   0  0  0  0  0  0
  -20.9353  -29.8750   21.6895 H   0  0  0  0  0  0
  -26.0168  -38.2841   24.1444 H   0  0  0  0  0  0
  -28.3943  -20.6160   22.0294 H   0  0  0  0  0  0
  -31.1537  -17.8319   20.2284 H   0  0  0  0  0  0
  -27.8008  -16.3860   22.4844 H   0  0  0  0  0  0
  -24.1704  -18.1735   24.8768 H   0  0  0  0  0  0
  -23.6790  -18.8591   23.3195 H   0  0  0  0  0  0
  -25.4167  -20.0647   25.4357 H   0  0  0  0  0  0
  -24.4475  -20.9054   24.2252 H   0  0  0  0  0  0
  -31.2755  -25.0980   20.0724 H   0  0  0  0  0  0
  -30.6401  -24.5878   21.6355 H   0  0  0  0  0  0
  -27.2166  -20.6153   24.0595 H   0  0  0  0  0  0
  -26.1768  -20.8240   22.6428 H   0  0  0  0  0  0
  -32.1272  -22.7916   21.2533 H   0  0  0  0  0  0
  -31.9492  -22.8849   19.5049 H   0  0  0  0  0  0
  -29.4096  -24.2124   18.9037 H   0  0  0  0  0  0
  -28.1884  -25.0570   21.5828 H   0  0  0  0  0  0
  -27.2635  -24.7084   20.1698 H   0  0  0  0  0  0
  -29.0636  -14.9535   21.7133 H   0  0  0  0  0  0
  1 25  1  0  0  0
  1 30  2  0  0  0
  1 89  1  0  0  0
  2  3  1  0  0  0
  2 25  1  0  0  0
  2 93  1  0  0  0
  2 94  1  0  0  0
  3  4  1  0  0  0
  3 95  1  0  0  0
  3 96  1  0  0  0
  4  5  1  0  0  0
  4 97  1  0  0  0
  4 98  1  0  0  0
  5  6  1  0  0  0
  5 26  1  0  0  0
  5 99  1  0  0  0
  6 25  1  0  0  0
  6100  1  0  0  0
  6101  1  0  0  0
  7  8  2  0  0  0
  7 26  1  0  0  0
  7 29  1  0  0  0
  8  9  1  0  0  0
  8 22  1  0  0  0
  9 10  1  0  0  0
  9 27  2  0  0  0
 10 11  2  0  0  0
 10 15  1  0  0  0
 11 12  1  0  0  0
 11102  1  0  0  0
 12 13  2  0  0  0
 12103  1  0  0  0
 13 14  1  0  0  0
 13 31  1  0  0  0
 14 15  2  0  0  0
 14104  1  0  0  0
 15105  1  0  0  0
 16 17  2  0  0  0
 16 21  1  0  0  0
 16 31  1  0  0  0
 17 18  1  0  0  0
 17106  1  0  0  0
 18 19  2  0  0  0
 18107  1  0  0  0
 19 20  1  0  0  0
 19 24  1  0  0  0
 20 21  2  0  0  0
 20108  1  0  0  0
 21 23  1  0  0  0
 22 28  1  0  0  0
 22 32  2  0  0  0
 26 27  1  0  0  0
 28109  1  0  0  0
 28110  1  0  0  0
 29111  1  0  0  0
 29112  1  0  0  0
 33 34  1  0  0  0
 33 66  1  0  0  0
 33 70  2  0  0  0
 34 36  1  0  0  0
 34 59  1  0  0  0
 34113  1  0  0  0
 35 44  2  0  0  0
 35 45  1  0  0  0
 35 68  1  0  0  0
 36 56  1  0  0  0
 36114  1  0  0  0
 37 39  1  0  0  0
 37 47  1  0  0  0
 37 66  1  0  0  0
 37115  1  0  0  0
 38 43  2  0  0  0
 38 46  1  0  0  0
 38 47  1  0  0  0
 39 64  1  0  0  0
 39 67  2  0  0  0
 40 52  1  0  0  0
 40 53  2  0  0  0
 40 58  1  0  0  0
 41116  1  0  0  0
 41117  1  0  0  0
 41118  1  0  0  0
 41 48  1  0  0  0
 42 43  1  0  0  0
 42 66  1  0  0  0
 42119  1  0  0  0
 42120  1  0  0  0
 43 44  1  0  0  0
 44121  1  0  0  0
 45 46  2  0  0  0
 45122  1  0  0  0
 46123  1  0  0  0
 47124  1  0  0  0
 47125  1  0  0  0
 48 56  1  0  0  0
 48 65  1  0  0  0
 48126  1  0  0  0
 49 50  1  0  0  0
 49 53  1  0  0  0
 49 64  1  0  0  0
 49127  1  0  0  0
 50 51  1  0  0  0
 50128  1  0  0  0
 50129  1  0  0  0
 51 52  1  0  0  0
 51130  1  0  0  0
 51131  1  0  0  0
 52132  1  0  0  0
 52133  1  0  0  0
 53 54  1  0  0  0
 54 55  2  0  0  0
 54134  1  0  0  0
 55 57  1  0  0  0
 55135  1  0  0  0
 56 69  2  0  0  0
 57 58  2  0  0  0
 57136  1  0  0  0
 58137  1  0  0  0
 59 60  1  0  0  0
 59 61  1  0  0  0
 59 62  1  0  0  0
 60138  1  0  0  0
 60139  1  0  0  0
 60140  1  0  0  0
 61141  1  0  0  0
 61142  1  0  0  0
 61143  1  0  0  0
 62144  1  0  0  0
 62145  1  0  0  0
 62146  1  0  0  0
 63 65  1  0  0  0
 63147  1  0  0  0
 63148  1  0  0  0
 63149  1  0  0  0
 64150  1  0  0  0
 65151  1  0  0  0
 68 86  1  0  0  0
 71 74  2  0  0  0
 71 75  1  0  0  0
 71152  1  0  0  0
 72 74  1  0  0  0
 72 76  2  0  0  0
 72153  1  0  0  0
 73 75  2  0  0  0
 73 76  1  0  0  0
 73154  1  0  0  0
 74 79  1  0  0  0
 75 87  1  0  0  0
 76 89  1  0  0  0
 77 80  1  0  0  0
 77 87  1  0  0  0
 77 90  2  0  0  0
 78 85  1  0  0  0
 78 88  1  0  0  0
 78 91  2  0  0  0
 79 88  1  0  0  0
 79 92  2  0  0  0
 80 81  1  0  0  0
 80155  1  0  0  0
 80156  1  0  0  0
 81 83  1  0  0  0
 81157  1  0  0  0
 81158  1  0  0  0
 82 84  1  0  0  0
 82 85  1  0  0  0
 82159  1  0  0  0
 82160  1  0  0  0
 83 87  1  0  0  0
 83161  1  0  0  0
 83162  1  0  0  0
 84 88  1  0  0  0
 84163  1  0  0  0
 84164  1  0  0  0
 85 86  1  0  0  0
 85165  1  0  0  0
 86166  1  0  0  0
 86167  1  0  0  0
 89168  1  0  0  0
M  ISO  4   1 100  68 101  86 101  89 100
M  END
> <chiral flag>
0

> <version>
0

> <s_m_source_file>
/data/baiqing/PycharmProjects/Reinvent-master-3.2/result/LINK_invent/BTK/process_docking_weight1_custom_product_contain_oxygen_bond_distance_aromatic_linkinvent_7_9_3/rearranged_h_0065.sdf

> <i_m_source_file_index>
47

> <r_mmod_Potential_Energy-OPLS-2005>
214.654998779297

> <r_mmod_Stretch_Energy-OPLS-2005>
81.5051116943359

> <r_mmod_Bend_Energy-OPLS-2005>
251.072479248047

> <r_mmod_Torsional_Energy-OPLS-2005>
317.177337646484

> <r_mmod_Improper_Torsional_Energy-OPLS-2005>
5.39876651763916

> <r_mmod_Van_der_Waal_Energy-OPLS-2005>
150.535034179688

> <r_mmod_Electrostatic_Energy-OPLS-2005>
-398.932800292969

> <r_mmod_Solvation_Energy-OPLS-2005>
-232.845367431641

> <b_mmod_Minimization_Converged-OPLS-2005>
0

> <r_mmod_RMS_Derivative-OPLS-2005>
2.11916255950928

$$$$
47
                    3D
 Structure written by MMmdl.
155164  0  0  1  0            999 V2000
  -30.6080  -14.7944   20.4002 C   0  0  0  0  0  0
  -30.4293  -12.4823   19.4792 C   0  0  0  0  0  0
  -29.5017  -12.4796   18.2450 C   0  0  0  0  0  0
  -28.0338  -12.3016   18.6714 C   0  0  0  0  0  0
  -27.6332  -13.2353   19.8464 C   0  0  2  0  0  0
  -28.6810  -13.2212   20.9811 C   0  0  0  0  0  0
  -25.2468  -13.8214   20.5715 C   0  0  0  0  0  0
  -24.1769  -13.0453   20.9229 C   0  0  0  0  0  0
  -24.6374  -11.6939   20.8794 C   0  0  0  0  0  0
  -23.9068  -10.4312   21.0435 C   0  0  0  0  0  0
  -24.3620   -9.4213   21.9200 C   0  0  0  0  0  0
  -23.6301   -8.2245   22.0750 C   0  0  0  0  0  0
  -22.4291   -8.0282   21.3529 C   0  0  0  0  0  0
  -21.9924   -9.0263   20.4640 C   0  0  0  0  0  0
  -22.7254  -10.2149   20.3069 C   0  0  0  0  0  0
  -21.6834   -6.0739   22.5275 C   0  0  0  0  0  0
  -21.4011   -6.5637   23.8213 C   0  0  0  0  0  0
  -21.3661   -5.6788   24.9174 C   0  0  0  0  0  0
  -21.6043   -4.3053   24.7222 C   0  0  0  0  0  0
  -21.8821   -3.8144   23.4346 C   0  0  0  0  0  0
  -21.9198   -4.6964   22.3401 C   0  0  0  0  0  0
  -22.7801  -13.5223   21.1905 C   0  0  0  0  0  0
  -22.1657   -4.2145   21.0978 F   0  0  0  0  0  0
  -21.5636   -3.4543   25.7734 F   0  0  0  0  0  0
  -29.9743  -13.5692   20.3804 N   0  0  0  0  0  0
  -26.2888  -12.9428   20.3326 N   0  0  0  0  0  0
  -25.9297  -11.6566   20.5826 N   0  0  0  0  0  0
  -22.0465  -12.8188   22.0461 N   0  0  0  0  0  0
  -25.4190  -15.1951   20.4093 N   0  0  0  0  0  0
  -31.8171  -14.8259   20.1557 O   0  0  0  0  0  0
  -21.6642   -6.8894   21.4240 O   0  0  0  0  0  0
  -22.3478  -14.5523   20.6758 O   0  0  0  0  0  0
  -24.6281  -31.8522   23.1964 C   0  0  0  0  0  0
  -25.9123  -32.4719   23.8283 C   0  0  1  0  0  0
  -27.2318  -27.2798   20.1187 C   0  0  0  0  0  0
  -25.5909  -33.8525   24.2213 N   0  0  0  0  0  0
  -23.4276  -30.4742   21.5348 C   0  0  2  0  0  0
  -24.8767  -28.9225   20.0977 C   0  0  0  0  0  0
  -22.7505  -29.4584   22.4865 C   0  0  0  0  0  0
  -18.0284  -28.1373   22.8453 C   0  0  0  0  0  0
  -24.1512  -36.7310   23.2647 C   0  0  0  0  0  0
  -25.9655  -30.7757   21.3676 C   0  0  0  0  0  0
  -26.0409  -29.3967   20.7123 C   0  0  0  0  0  0
  -27.2153  -28.5837   20.7202 C   0  0  0  0  0  0
  -26.0474  -26.8648   19.4759 C   0  0  0  0  0  0
  -24.8848  -27.6653   19.4690 C   0  0  0  0  0  0
  -23.6470  -29.8088   20.1484 C   0  0  0  0  0  0
  -25.4119  -36.3054   24.0327 C   0  0  1  0  0  0
  -20.5889  -28.3721   23.1234 C   0  0  2  0  0  0
  -20.6791  -26.9431   22.5420 C   0  0  0  0  0  0
  -19.5753  -26.6378   21.5230 C   0  0  0  0  0  0
  -18.1914  -26.7892   22.1609 C   0  0  0  0  0  0
  -19.1539  -28.8859   23.2833 C   0  0  0  0  0  0
  -18.9481  -30.1444   23.8872 C   0  0  0  0  0  0
  -17.6487  -30.6584   24.0553 C   0  0  0  0  0  0
  -25.9057  -34.9424   23.5081 C   0  0  0  0  0  0
  -16.5369  -29.9091   23.6328 C   0  0  0  0  0  0
  -16.7276  -28.6514   23.0322 C   0  0  0  0  0  0
  -26.4525  -31.6519   25.0653 C   0  0  0  0  0  0
  -25.3787  -31.3656   26.1401 C   0  0  0  0  0  0
  -27.0383  -30.2931   24.6107 C   0  0  0  0  0  0
  -27.6042  -32.4279   25.7441 C   0  0  0  0  0  0
  -27.5569  -37.1782   24.8441 C   0  0  0  0  0  0
  -21.4216  -29.3058   22.3612 N   0  0  0  0  0  0
  -26.4272  -37.3760   23.9416 N   0  0  0  0  0  0
  -24.6934  -31.0531   22.0902 N   0  0  0  0  0  0
  -23.4209  -28.8144   23.2987 O   0  0  0  0  0  0
  -28.3530  -26.4306   20.2227 O   0  0  0  0  0  0
  -26.5673  -34.8888   22.4680 O   0  0  0  0  0  0
  -23.5443  -32.1323   23.7267 O   0  0  0  0  0  0
  -29.3436  -18.5722   20.4259 C   0  0  0  0  0  0
  -30.8722  -20.0850   19.2821 C   0  0  0  0  0  0
  -31.3273  -17.6763   19.3497 C   0  0  0  0  0  0
  -29.6708  -19.9429   20.0140 C   0  0  0  0  0  0
  -30.1662  -17.3968   20.1162 C   0  0  0  0  0  0
  -31.6779  -18.9816   18.9543 C   0  0  0  0  0  0
  -28.7433  -21.7338   21.5292 C   0  0  0  0  0  0
  -28.5293  -23.2700   21.5363 C   0  0  0  0  0  0
  -28.7638  -22.3802   19.3477 C   0  0  0  0  0  0
  -28.1540  -23.6482   20.0985 C   0  0  2  0  0  0
  -28.5229  -25.1211   19.5243 C   0  0  0  0  0  0
  -28.9279  -21.2146   20.2949 N   0  0  0  0  0  0
  -29.8506  -15.9725   20.4923 N   0  0  0  0  0  0
  -28.7177  -21.0788   22.5739 O   0  0  0  0  0  0
  -32.8128  -19.1782   18.2380 F   0  0  0  0  0  0
  -31.4665  -12.6117   19.1595 H   0  0  0  0  0  0
  -30.3950  -11.5249   20.0016 H   0  0  0  0  0  0
  -29.7879  -11.6761   17.5639 H   0  0  0  0  0  0
  -29.6122  -13.4122   17.6914 H   0  0  0  0  0  0
  -27.9059  -11.2604   18.9709 H   0  0  0  0  0  0
  -27.3655  -12.4518   17.8216 H   0  0  0  0  0  0
  -27.6139  -14.2441   19.4295 H   0  0  0  0  0  0
  -28.7331  -12.2408   21.4553 H   0  0  0  0  0  0
  -28.4120  -13.9314   21.7642 H   0  0  0  0  0  0
  -25.2766   -9.5670   22.4771 H   0  0  0  0  0  0
  -24.0003   -7.4625   22.7452 H   0  0  0  0  0  0
  -21.0866   -8.8795   19.8926 H   0  0  0  0  0  0
  -22.3734  -10.9688   19.6175 H   0  0  0  0  0  0
  -21.1993   -7.6143   23.9710 H   0  0  0  0  0  0
  -21.1474   -6.0520   25.9075 H   0  0  0  0  0  0
  -22.0600   -2.7607   23.2845 H   0  0  0  0  0  0
  -22.4124  -11.9847   22.4802 H   0  0  0  0  0  0
  -21.1079  -13.1170   22.2709 H   0  0  0  0  0  0
  -24.6537  -15.8529   20.5104 H   0  0  0  0  0  0
  -26.2684  -15.6277   20.0683 H   0  0  0  0  0  0
  -26.7183  -32.5412   23.1009 H   0  0  0  0  0  0
  -24.9965  -33.9630   25.0289 H   0  0  0  0  0  0
  -22.7235  -31.2956   21.3899 H   0  0  0  0  0  0
  -23.3758  -35.9667   23.3263 H   0  0  0  0  0  0
  -24.3607  -36.8989   22.2078 H   0  0  0  0  0  0
  -23.7276  -37.6493   23.6724 H   0  0  0  0  0  0
  -26.0908  -31.5405   20.5997 H   0  0  0  0  0  0
  -26.8410  -30.8308   22.0000 H   0  0  0  0  0  0
  -28.1031  -28.9363   21.2251 H   0  0  0  0  0  0
  -25.9995  -25.8979   18.9978 H   0  0  0  0  0  0
  -23.9920  -27.2969   18.9799 H   0  0  0  0  0  0
  -23.7724  -30.5878   19.3957 H   0  0  0  0  0  0
  -22.7656  -29.2453   19.8407 H   0  0  0  0  0  0
  -25.1289  -36.1907   25.0817 H   0  0  0  0  0  0
  -20.9943  -28.3384   24.1373 H   0  0  0  0  0  0
  -20.5741  -26.2368   23.3678 H   0  0  0  0  0  0
  -21.6660  -26.7490   22.1179 H   0  0  0  0  0  0
  -19.6961  -25.6308   21.1232 H   0  0  0  0  0  0
  -19.6668  -27.3237   20.6798 H   0  0  0  0  0  0
  -17.4204  -26.6659   21.3982 H   0  0  0  0  0  0
  -18.0261  -26.0034   22.9013 H   0  0  0  0  0  0
  -19.7996  -30.7202   24.2256 H   0  0  0  0  0  0
  -17.5089  -31.6251   24.5187 H   0  0  0  0  0  0
  -15.5370  -30.2990   23.7685 H   0  0  0  0  0  0
  -15.8662  -28.0847   22.7014 H   0  0  0  0  0  0
  -24.5972  -30.6961   25.7754 H   0  0  0  0  0  0
  -24.8957  -32.2824   26.4800 H   0  0  0  0  0  0
  -25.8127  -30.8873   27.0185 H   0  0  0  0  0  0
  -26.2933  -29.6604   24.1245 H   0  0  0  0  0  0
  -27.4211  -29.7243   25.4586 H   0  0  0  0  0  0
  -27.8747  -30.4183   23.9226 H   0  0  0  0  0  0
  -27.2610  -33.3606   26.1937 H   0  0  0  0  0  0
  -28.3891  -32.6784   25.0294 H   0  0  0  0  0  0
  -28.0665  -31.8465   26.5422 H   0  0  0  0  0  0
  -28.2526  -38.0137   24.7520 H   0  0  0  0  0  0
  -28.1104  -36.2649   24.6209 H   0  0  0  0  0  0
  -27.2279  -37.1336   25.8835 H   0  0  0  0  0  0
  -20.9454  -29.8810   21.6808 H   0  0  0  0  0  0
  -26.0154  -38.2822   24.1470 H   0  0  0  0  0  0
  -28.4335  -18.4254   20.9897 H   0  0  0  0  0  0
  -31.2152  -21.0594   18.9728 H   0  0  0  0  0  0
  -31.9953  -16.8931   19.0282 H   0  0  0  0  0  0
  -29.4635  -23.7522   21.8253 H   0  0  0  0  0  0
  -27.7624  -23.5681   22.2521 H   0  0  0  0  0  0
  -29.7238  -22.6495   18.9077 H   0  0  0  0  0  0
  -28.1172  -22.0943   18.5193 H   0  0  0  0  0  0
  -27.0658  -23.5732   20.0450 H   0  0  0  0  0  0
  -28.0935  -25.2066   18.5263 H   0  0  0  0  0  0
  -29.5947  -25.0933   19.3246 H   0  0  0  0  0  0
  -28.8955  -15.8118   20.7775 H   0  0  0  0  0  0
  1 25  1  0  0  0
  1 30  2  0  0  0
  1 83  1  0  0  0
  2  3  1  0  0  0
  2 25  1  0  0  0
  2 86  1  0  0  0
  2 87  1  0  0  0
  3  4  1  0  0  0
  3 88  1  0  0  0
  3 89  1  0  0  0
  4  5  1  0  0  0
  4 90  1  0  0  0
  4 91  1  0  0  0
  5  6  1  0  0  0
  5 26  1  0  0  0
  5 92  1  0  0  0
  6 25  1  0  0  0
  6 93  1  0  0  0
  6 94  1  0  0  0
  7  8  2  0  0  0
  7 26  1  0  0  0
  7 29  1  0  0  0
  8  9  1  0  0  0
  8 22  1  0  0  0
  9 10  1  0  0  0
  9 27  2  0  0  0
 10 11  2  0  0  0
 10 15  1  0  0  0
 11 12  1  0  0  0
 11 95  1  0  0  0
 12 13  2  0  0  0
 12 96  1  0  0  0
 13 14  1  0  0  0
 13 31  1  0  0  0
 14 15  2  0  0  0
 14 97  1  0  0  0
 15 98  1  0  0  0
 16 17  2  0  0  0
 16 21  1  0  0  0
 16 31  1  0  0  0
 17 18  1  0  0  0
 17 99  1  0  0  0
 18 19  2  0  0  0
 18100  1  0  0  0
 19 20  1  0  0  0
 19 24  1  0  0  0
 20 21  2  0  0  0
 20101  1  0  0  0
 21 23  1  0  0  0
 22 28  1  0  0  0
 22 32  2  0  0  0
 26 27  1  0  0  0
 28102  1  0  0  0
 28103  1  0  0  0
 29104  1  0  0  0
 29105  1  0  0  0
 33 34  1  0  0  0
 33 66  1  0  0  0
 33 70  2  0  0  0
 34 36  1  0  0  0
 34 59  1  0  0  0
 34106  1  0  0  0
 35 44  2  0  0  0
 35 45  1  0  0  0
 35 68  1  0  0  0
 36 56  1  0  0  0
 36107  1  0  0  0
 37 39  1  0  0  0
 37 47  1  0  0  0
 37 66  1  0  0  0
 37108  1  0  0  0
 38 43  2  0  0  0
 38 46  1  0  0  0
 38 47  1  0  0  0
 39 64  1  0  0  0
 39 67  2  0  0  0
 40 52  1  0  0  0
 40 53  2  0  0  0
 40 58  1  0  0  0
 41109  1  0  0  0
 41110  1  0  0  0
 41111  1  0  0  0
 41 48  1  0  0  0
 42 43  1  0  0  0
 42 66  1  0  0  0
 42112  1  0  0  0
 42113  1  0  0  0
 43 44  1  0  0  0
 44114  1  0  0  0
 45 46  2  0  0  0
 45115  1  0  0  0
 46116  1  0  0  0
 47117  1  0  0  0
 47118  1  0  0  0
 48 56  1  0  0  0
 48 65  1  0  0  0
 48119  1  0  0  0
 49 50  1  0  0  0
 49 53  1  0  0  0
 49 64  1  0  0  0
 49120  1  0  0  0
 50 51  1  0  0  0
 50121  1  0  0  0
 50122  1  0  0  0
 51 52  1  0  0  0
 51123  1  0  0  0
 51124  1  0  0  0
 52125  1  0  0  0
 52126  1  0  0  0
 53 54  1  0  0  0
 54 55  2  0  0  0
 54127  1  0  0  0
 55 57  1  0  0  0
 55128  1  0  0  0
 56 69  2  0  0  0
 57 58  2  0  0  0
 57129  1  0  0  0
 58130  1  0  0  0
 59 60  1  0  0  0
 59 61  1  0  0  0
 59 62  1  0  0  0
 60131  1  0  0  0
 60132  1  0  0  0
 60133  1  0  0  0
 61134  1  0  0  0
 61135  1  0  0  0
 61136  1  0  0  0
 62137  1  0  0  0
 62138  1  0  0  0
 62139  1  0  0  0
 63 65  1  0  0  0
 63140  1  0  0  0
 63141  1  0  0  0
 63142  1  0  0  0
 64143  1  0  0  0
 65144  1  0  0  0
 68 81  1  0  0  0
 71 74  2  0  0  0
 71 75  1  0  0  0
 71145  1  0  0  0
 72 74  1  0  0  0
 72 76  2  0  0  0
 72146  1  0  0  0
 73 75  2  0  0  0
 73 76  1  0  0  0
 73147  1  0  0  0
 74 82  1  0  0  0
 75 83  1  0  0  0
 76 85  1  0  0  0
 77 78  1  0  0  0
 77 82  1  0  0  0
 77 84  2  0  0  0
 78 80  1  0  0  0
 78148  1  0  0  0
 78149  1  0  0  0
 79 80  1  0  0  0
 79 82  1  0  0  0
 79150  1  0  0  0
 79151  1  0  0  0
 80 81  1  0  0  0
 80152  1  0  0  0
 81153  1  0  0  0
 81154  1  0  0  0
 83155  1  0  0  0
M  ISO  4   1 100  68 101  81 101  83 100
M  END
> <chiral flag>
0

> <version>
0

> <s_m_source_file>
/data/baiqing/PycharmProjects/Reinvent-master-3.2/result/LINK_invent/BTK/process_docking_weight1_custom_product_contain_oxygen_bond_distance_aromatic_linkinvent_7_9_3/rearranged_h_0065.sdf

> <i_m_source_file_index>
48

> <r_mmod_Potential_Energy-OPLS-2005>
297.685882568359

> <r_mmod_Stretch_Energy-OPLS-2005>
131.74560546875

> <r_mmod_Bend_Energy-OPLS-2005>
215.251052856445

> <r_mmod_Torsional_Energy-OPLS-2005>
286.090301513672

> <r_mmod_Improper_Torsional_Energy-OPLS-2005>
5.7955150604248

> <r_mmod_Van_der_Waal_Energy-OPLS-2005>
134.813583374023

> <r_mmod_Electrostatic_Energy-OPLS-2005>
-347.976318359375

> <r_mmod_Solvation_Energy-OPLS-2005>
-223.956085205078

> <b_mmod_Minimization_Converged-OPLS-2005>
0

> <r_mmod_RMS_Derivative-OPLS-2005>
4.19583320617676

$$$$
48
                    3D
 Structure written by MMmdl.
160168  0  0  1  0            999 V2000
  -30.6120  -14.7723   20.5357 C   0  0  0  0  0  0
  -30.4397  -12.4957   19.4681 C   0  0  0  0  0  0
  -29.5097  -12.5475   18.2319 C   0  0  0  0  0  0
  -28.0329  -12.3603   18.6344 C   0  0  0  0  0  0
  -27.6463  -13.2218   19.8639 C   0  0  2  0  0  0
  -28.6934  -13.0513   20.9816 C   0  0  0  0  0  0
  -25.2507  -13.8163   20.5657 C   0  0  0  0  0  0
  -24.1787  -13.0422   20.9170 C   0  0  0  0  0  0
  -24.6368  -11.6895   20.8723 C   0  0  0  0  0  0
  -23.9039  -10.4284   21.0398 C   0  0  0  0  0  0
  -24.3594   -9.4202   21.9180 C   0  0  0  0  0  0
  -23.6270   -8.2237   22.0740 C   0  0  0  0  0  0
  -22.4253   -8.0276   21.3533 C   0  0  0  0  0  0
  -21.9886   -9.0247   20.4637 C   0  0  0  0  0  0
  -22.7209  -10.2127   20.3049 C   0  0  0  0  0  0
  -21.6845   -6.0726   22.5276 C   0  0  0  0  0  0
  -21.4018   -6.5630   23.8205 C   0  0  0  0  0  0
  -21.3658   -5.6782   24.9171 C   0  0  0  0  0  0
  -21.6038   -4.3042   24.7221 C   0  0  0  0  0  0
  -21.8819   -3.8135   23.4347 C   0  0  0  0  0  0
  -21.9190   -4.6952   22.3401 C   0  0  0  0  0  0
  -22.7816  -13.5218   21.1846 C   0  0  0  0  0  0
  -22.1663   -4.2133   21.0983 F   0  0  0  0  0  0
  -21.5615   -3.4533   25.7743 F   0  0  0  0  0  0
  -29.9813  -13.5303   20.4425 N   0  0  0  0  0  0
  -26.2943  -12.9351   20.3312 N   0  0  0  0  0  0
  -25.9300  -11.6501   20.5733 N   0  0  0  0  0  0
  -22.0476  -12.8221   22.0423 N   0  0  0  0  0  0
  -25.4188  -15.1886   20.4029 N   0  0  0  0  0  0
  -31.7468  -14.8449   20.0504 O   0  0  0  0  0  0
  -21.6611   -6.8877   21.4238 O   0  0  0  0  0  0
  -22.3506  -14.5531   20.6706 O   0  0  0  0  0  0
  -24.6313  -31.8553   23.1959 C   0  0  0  0  0  0
  -25.9139  -32.4756   23.8315 C   0  0  1  0  0  0
  -27.2272  -27.2707   20.1262 C   0  0  0  0  0  0
  -25.5929  -33.8557   24.2247 N   0  0  0  0  0  0
  -23.4289  -30.4748   21.5398 C   0  0  2  0  0  0
  -24.8770  -28.9160   20.1156 C   0  0  0  0  0  0
  -22.7509  -29.4603   22.4917 C   0  0  0  0  0  0
  -18.0297  -28.1393   22.8485 C   0  0  0  0  0  0
  -24.1491  -36.7290   23.2637 C   0  0  0  0  0  0
  -25.9733  -30.7704   21.3729 C   0  0  0  0  0  0
  -26.0491  -29.3914   20.7186 C   0  0  0  0  0  0
  -27.2305  -28.5827   20.7078 C   0  0  0  0  0  0
  -26.0324  -26.8523   19.5061 C   0  0  0  0  0  0
  -24.8724  -27.6538   19.4992 C   0  0  0  0  0  0
  -23.6468  -29.8031   20.1583 C   0  0  0  0  0  0
  -25.4115  -36.3074   24.0327 C   0  0  1  0  0  0
  -20.5901  -28.3703   23.1272 C   0  0  2  0  0  0
  -20.6786  -26.9420   22.5408 C   0  0  0  0  0  0
  -19.5757  -26.6384   21.5219 C   0  0  0  0  0  0
  -18.1937  -26.7932   22.1631 C   0  0  0  0  0  0
  -19.1550  -28.8867   23.2872 C   0  0  0  0  0  0
  -18.9469  -30.1466   23.8893 C   0  0  0  0  0  0
  -17.6468  -30.6590   24.0567 C   0  0  0  0  0  0
  -25.9056  -34.9444   23.5093 C   0  0  0  0  0  0
  -16.5362  -29.9086   23.6332 C   0  0  0  0  0  0
  -16.7284  -28.6507   23.0351 C   0  0  0  0  0  0
  -26.4500  -31.6583   25.0711 C   0  0  0  0  0  0
  -25.3706  -31.3746   26.1420 C   0  0  0  0  0  0
  -27.0345  -30.2999   24.6199 C   0  0  0  0  0  0
  -27.6057  -32.4316   25.7483 C   0  0  0  0  0  0
  -27.5588  -37.1792   24.8460 C   0  0  0  0  0  0
  -21.4217  -29.3051   22.3664 N   0  0  0  0  0  0
  -26.4293  -37.3773   23.9414 N   0  0  0  0  0  0
  -24.6970  -31.0512   22.0931 N   0  0  0  0  0  0
  -23.4210  -28.8151   23.3022 O   0  0  0  0  0  0
  -28.3294  -26.3919   20.1095 O   0  0  0  0  0  0
  -26.5633  -34.8924   22.4665 O   0  0  0  0  0  0
  -23.5463  -32.1377   23.7260 O   0  0  0  0  0  0
  -31.2388  -20.1554   20.7772 C   0  0  0  0  0  0
  -29.5431  -18.4694   20.4072 C   0  0  0  0  0  0
  -32.1263  -19.1419   21.1935 C   0  0  0  0  0  0
  -31.7120  -17.7853   21.3000 C   0  0  0  0  0  0
  -29.9075  -19.8824   20.4167 C   0  0  0  0  0  0
  -30.4269  -17.3766   20.8228 C   0  0  0  0  0  0
  -28.6530  -23.7244   19.9081 C   0  0  0  0  0  0
  -33.5467  -19.5561   21.5497 C   0  0  0  0  0  0
  -32.6493  -16.8170   22.0217 C   0  0  0  0  0  0
  -28.8816  -15.9024   21.9719 C   0  0  0  0  0  0
  -29.1095  -22.3925   20.6893 C   0  0  0  0  0  0
  -28.1594  -25.0246   20.7108 C   0  0  0  0  0  0
  -29.0506  -21.0006   20.0552 N   0  0  0  0  0  0
  -29.9631  -15.9560   20.9830 N   0  0  0  0  0  0
  -28.6665  -23.7334   18.6723 O   0  0  0  0  0  0
  -31.4735  -12.6397   19.1513 H   0  0  0  0  0  0
  -30.4234  -11.5006   19.9165 H   0  0  0  0  0  0
  -29.7982  -11.7851   17.5070 H   0  0  0  0  0  0
  -29.6287  -13.5072   17.7252 H   0  0  0  0  0  0
  -27.8818  -11.3044   18.8616 H   0  0  0  0  0  0
  -27.3790  -12.5843   17.7915 H   0  0  0  0  0  0
  -27.6636  -14.2611   19.5348 H   0  0  0  0  0  0
  -28.7661  -11.9950   21.2462 H   0  0  0  0  0  0
  -28.3806  -13.4999   21.9152 H   0  0  0  0  0  0
  -25.2747   -9.5669   22.4744 H   0  0  0  0  0  0
  -23.9977   -7.4623   22.7452 H   0  0  0  0  0  0
  -21.0815   -8.8761   19.8953 H   0  0  0  0  0  0
  -22.3667  -10.9659   19.6150 H   0  0  0  0  0  0
  -21.2020   -7.6142   23.9708 H   0  0  0  0  0  0
  -21.1476   -6.0513   25.9070 H   0  0  0  0  0  0
  -22.0602   -2.7596   23.2841 H   0  0  0  0  0  0
  -22.4087  -11.9895   22.4847 H   0  0  0  0  0  0
  -21.1103  -13.1265   22.2640 H   0  0  0  0  0  0
  -24.6510  -15.8442   20.5010 H   0  0  0  0  0  0
  -26.2712  -15.6243   20.0750 H   0  0  0  0  0  0
  -26.7216  -32.5410   23.1064 H   0  0  0  0  0  0
  -25.0058  -33.9687   25.0382 H   0  0  0  0  0  0
  -22.7257  -31.2966   21.3909 H   0  0  0  0  0  0
  -23.3758  -35.9617   23.3286 H   0  0  0  0  0  0
  -24.3588  -36.8925   22.2056 H   0  0  0  0  0  0
  -23.7241  -37.6485   23.6669 H   0  0  0  0  0  0
  -26.1089  -31.5301   20.6020 H   0  0  0  0  0  0
  -26.8517  -30.8221   22.0043 H   0  0  0  0  0  0
  -28.1341  -28.9463   21.1765 H   0  0  0  0  0  0
  -25.9911  -25.8847   19.0254 H   0  0  0  0  0  0
  -23.9745  -27.2857   19.0218 H   0  0  0  0  0  0
  -23.7717  -30.5760   19.3983 H   0  0  0  0  0  0
  -22.7647  -29.2347   19.8566 H   0  0  0  0  0  0
  -25.1293  -36.1919   25.0820 H   0  0  0  0  0  0
  -20.9993  -28.3282   24.1396 H   0  0  0  0  0  0
  -20.5691  -26.2317   23.3613 H   0  0  0  0  0  0
  -21.6652  -26.7438   22.1205 H   0  0  0  0  0  0
  -19.6911  -25.6292   21.1258 H   0  0  0  0  0  0
  -19.6684  -27.3189   20.6745 H   0  0  0  0  0  0
  -17.4201  -26.6680   21.4037 H   0  0  0  0  0  0
  -18.0331  -26.0078   22.9030 H   0  0  0  0  0  0
  -19.7943  -30.7284   24.2257 H   0  0  0  0  0  0
  -17.5020  -31.6267   24.5168 H   0  0  0  0  0  0
  -15.5362  -30.2985   23.7650 H   0  0  0  0  0  0
  -15.8689  -28.0821   22.7065 H   0  0  0  0  0  0
  -24.5885  -30.7096   25.7742 H   0  0  0  0  0  0
  -24.8889  -32.2919   26.4812 H   0  0  0  0  0  0
  -25.7998  -30.8939   27.0218 H   0  0  0  0  0  0
  -26.2934  -29.6742   24.1212 H   0  0  0  0  0  0
  -27.4019  -29.7268   25.4721 H   0  0  0  0  0  0
  -27.8811  -30.4277   23.9449 H   0  0  0  0  0  0
  -27.2679  -33.3621   26.2053 H   0  0  0  0  0  0
  -28.3870  -32.6862   25.0312 H   0  0  0  0  0  0
  -28.0722  -31.8442   26.5400 H   0  0  0  0  0  0
  -28.2583  -38.0112   24.7539 H   0  0  0  0  0  0
  -28.1107  -36.2646   24.6239 H   0  0  0  0  0  0
  -27.2313  -37.1383   25.8864 H   0  0  0  0  0  0
  -20.9410  -29.8766   21.6856 H   0  0  0  0  0  0
  -26.0172  -38.2846   24.1422 H   0  0  0  0  0  0
  -31.6105  -21.1683   20.7386 H   0  0  0  0  0  0
  -28.5359  -18.2114   20.1133 H   0  0  0  0  0  0
  -33.7766  -20.5582   21.1858 H   0  0  0  0  0  0
  -34.2705  -18.8797   21.0938 H   0  0  0  0  0  0
  -33.6958  -19.5513   22.6298 H   0  0  0  0  0  0
  -33.3811  -16.4006   21.3292 H   0  0  0  0  0  0
  -32.1135  -16.0038   22.5099 H   0  0  0  0  0  0
  -33.1971  -17.3089   22.8240 H   0  0  0  0  0  0
  -27.9373  -15.5999   21.5253 H   0  0  0  0  0  0
  -28.6947  -16.8718   22.4350 H   0  0  0  0  0  0
  -29.1457  -15.2469   22.8029 H   0  0  0  0  0  0
  -28.5151  -22.3515   21.6028 H   0  0  0  0  0  0
  -30.1246  -22.5935   21.0245 H   0  0  0  0  0  0
  -28.6782  -25.0276   21.6699 H   0  0  0  0  0  0
  -27.1087  -24.8661   20.9525 H   0  0  0  0  0  0
  -28.1395  -20.7594   19.6731 H   0  0  0  0  0  0
  1 25  1  0  0  0
  1 30  2  0  0  0
  1 84  1  0  0  0
  2  3  1  0  0  0
  2 25  1  0  0  0
  2 86  1  0  0  0
  2 87  1  0  0  0
  3  4  1  0  0  0
  3 88  1  0  0  0
  3 89  1  0  0  0
  4  5  1  0  0  0
  4 90  1  0  0  0
  4 91  1  0  0  0
  5  6  1  0  0  0
  5 26  1  0  0  0
  5 92  1  0  0  0
  6 25  1  0  0  0
  6 93  1  0  0  0
  6 94  1  0  0  0
  7  8  2  0  0  0
  7 26  1  0  0  0
  7 29  1  0  0  0
  8  9  1  0  0  0
  8 22  1  0  0  0
  9 10  1  0  0  0
  9 27  2  0  0  0
 10 11  2  0  0  0
 10 15  1  0  0  0
 11 12  1  0  0  0
 11 95  1  0  0  0
 12 13  2  0  0  0
 12 96  1  0  0  0
 13 14  1  0  0  0
 13 31  1  0  0  0
 14 15  2  0  0  0
 14 97  1  0  0  0
 15 98  1  0  0  0
 16 17  2  0  0  0
 16 21  1  0  0  0
 16 31  1  0  0  0
 17 18  1  0  0  0
 17 99  1  0  0  0
 18 19  2  0  0  0
 18100  1  0  0  0
 19 20  1  0  0  0
 19 24  1  0  0  0
 20 21  2  0  0  0
 20101  1  0  0  0
 21 23  1  0  0  0
 22 28  1  0  0  0
 22 32  2  0  0  0
 26 27  1  0  0  0
 28102  1  0  0  0
 28103  1  0  0  0
 29104  1  0  0  0
 29105  1  0  0  0
 33 34  1  0  0  0
 33 66  1  0  0  0
 33 70  2  0  0  0
 34 36  1  0  0  0
 34 59  1  0  0  0
 34106  1  0  0  0
 35 44  2  0  0  0
 35 45  1  0  0  0
 35 68  1  0  0  0
 36 56  1  0  0  0
 36107  1  0  0  0
 37 39  1  0  0  0
 37 47  1  0  0  0
 37 66  1  0  0  0
 37108  1  0  0  0
 38 43  2  0  0  0
 38 46  1  0  0  0
 38 47  1  0  0  0
 39 64  1  0  0  0
 39 67  2  0  0  0
 40 52  1  0  0  0
 40 53  2  0  0  0
 40 58  1  0  0  0
 41109  1  0  0  0
 41110  1  0  0  0
 41111  1  0  0  0
 41 48  1  0  0  0
 42 43  1  0  0  0
 42 66  1  0  0  0
 42112  1  0  0  0
 42113  1  0  0  0
 43 44  1  0  0  0
 44114  1  0  0  0
 45 46  2  0  0  0
 45115  1  0  0  0
 46116  1  0  0  0
 47117  1  0  0  0
 47118  1  0  0  0
 48 56  1  0  0  0
 48 65  1  0  0  0
 48119  1  0  0  0
 49 50  1  0  0  0
 49 53  1  0  0  0
 49 64  1  0  0  0
 49120  1  0  0  0
 50 51  1  0  0  0
 50121  1  0  0  0
 50122  1  0  0  0
 51 52  1  0  0  0
 51123  1  0  0  0
 51124  1  0  0  0
 52125  1  0  0  0
 52126  1  0  0  0
 53 54  1  0  0  0
 54 55  2  0  0  0
 54127  1  0  0  0
 55 57  1  0  0  0
 55128  1  0  0  0
 56 69  2  0  0  0
 57 58  2  0  0  0
 57129  1  0  0  0
 58130  1  0  0  0
 59 60  1  0  0  0
 59 61  1  0  0  0
 59 62  1  0  0  0
 60131  1  0  0  0
 60132  1  0  0  0
 60133  1  0  0  0
 61134  1  0  0  0
 61135  1  0  0  0
 61136  1  0  0  0
 62137  1  0  0  0
 62138  1  0  0  0
 62139  1  0  0  0
 63 65  1  0  0  0
 63140  1  0  0  0
 63141  1  0  0  0
 63142  1  0  0  0
 64143  1  0  0  0
 65144  1  0  0  0
 68 82  1  0  0  0
 71 73  2  0  0  0
 71 75  1  0  0  0
 71145  1  0  0  0
 72 75  2  0  0  0
 72 76  1  0  0  0
 72146  1  0  0  0
 73 74  1  0  0  0
 73 78  1  0  0  0
 74 76  2  0  0  0
 74 79  1  0  0  0
 75 83  1  0  0  0
 76 84  1  0  0  0
 77 81  1  0  0  0
 77 82  1  0  0  0
 77 85  2  0  0  0
 78147  1  0  0  0
 78148  1  0  0  0
 78149  1  0  0  0
 79150  1  0  0  0
 79151  1  0  0  0
 79152  1  0  0  0
 80 84  1  0  0  0
 80153  1  0  0  0
 80154  1  0  0  0
 80155  1  0  0  0
 81 83  1  0  0  0
 81156  1  0  0  0
 81157  1  0  0  0
 82158  1  0  0  0
 82159  1  0  0  0
 83160  1  0  0  0
M  ISO  4   1 100  68 101  82 101  84 100
M  END
> <chiral flag>
0

> <version>
0

> <s_m_source_file>
/data/baiqing/PycharmProjects/Reinvent-master-3.2/result/LINK_invent/BTK/process_docking_weight1_custom_product_contain_oxygen_bond_distance_aromatic_linkinvent_7_9_3/rearranged_h_0065.sdf

> <i_m_source_file_index>
49

> <r_mmod_Potential_Energy-OPLS-2005>
426.095092773438

> <r_mmod_Stretch_Energy-OPLS-2005>
147.356918334961

> <r_mmod_Bend_Energy-OPLS-2005>
198.65592956543

> <r_mmod_Torsional_Energy-OPLS-2005>
303.967987060547

> <r_mmod_Improper_Torsional_Energy-OPLS-2005>
7.6275053024292

> <r_mmod_Van_der_Waal_Energy-OPLS-2005>
162.192047119141

> <r_mmod_Electrostatic_Energy-OPLS-2005>
-241.438507080078

> <r_mmod_Solvation_Energy-OPLS-2005>
-230.529571533203

> <b_mmod_Minimization_Converged-OPLS-2005>
0

> <r_mmod_RMS_Derivative-OPLS-2005>
1.69748508930206

$$$$
49
                    3D
 Structure written by MMmdl.
170179  0  0  1  0            999 V2000
  -30.6483  -14.5584   20.4303 C   0  0  0  0  0  0
  -30.4296  -12.2997   19.4812 C   0  0  0  0  0  0
  -29.5202  -12.4082   18.2404 C   0  0  0  0  0  0
  -28.0273  -12.3298   18.6357 C   0  0  0  0  0  0
  -27.6545  -13.2034   19.8666 C   0  0  2  0  0  0
  -28.6967  -13.0636   20.9989 C   0  0  0  0  0  0
  -25.2569  -13.8148   20.5691 C   0  0  0  0  0  0
  -24.1824  -13.0430   20.9195 C   0  0  0  0  0  0
  -24.6375  -11.6899   20.8761 C   0  0  0  0  0  0
  -23.9040  -10.4289   21.0418 C   0  0  0  0  0  0
  -24.3598   -9.4207   21.9194 C   0  0  0  0  0  0
  -23.6288   -8.2240   22.0754 C   0  0  0  0  0  0
  -22.4274   -8.0276   21.3541 C   0  0  0  0  0  0
  -21.9899   -9.0246   20.4645 C   0  0  0  0  0  0
  -22.7215  -10.2134   20.3063 C   0  0  0  0  0  0
  -21.6855   -6.0732   22.5274 C   0  0  0  0  0  0
  -21.4015   -6.5638   23.8206 C   0  0  0  0  0  0
  -21.3660   -5.6793   24.9171 C   0  0  0  0  0  0
  -21.6042   -4.3054   24.7223 C   0  0  0  0  0  0
  -21.8822   -3.8145   23.4345 C   0  0  0  0  0  0
  -21.9196   -4.6961   22.3400 C   0  0  0  0  0  0
  -22.7853  -13.5237   21.1856 C   0  0  0  0  0  0
  -22.1667   -4.2147   21.0979 F   0  0  0  0  0  0
  -21.5626   -3.4540   25.7735 F   0  0  0  0  0  0
  -30.0196  -13.3498   20.4285 N   0  0  0  0  0  0
  -26.2989  -12.9297   20.3345 N   0  0  0  0  0  0
  -25.9300  -11.6469   20.5796 N   0  0  0  0  0  0
  -22.0498  -12.8229   22.0412 N   0  0  0  0  0  0
  -25.4281  -15.1865   20.4083 N   0  0  0  0  0  0
  -31.8332  -14.6822   20.1110 O   0  0  0  0  0  0
  -21.6641   -6.8872   21.4235 O   0  0  0  0  0  0
  -22.3544  -14.5547   20.6706 O   0  0  0  0  0  0
  -24.6143  -31.8661   23.2084 C   0  0  0  0  0  0
  -25.9036  -32.4804   23.8384 C   0  0  1  0  0  0
  -27.2385  -27.4246   20.1095 C   0  0  0  0  0  0
  -25.5892  -33.8603   24.2322 N   0  0  0  0  0  0
  -23.4052  -30.4880   21.5466 C   0  0  2  0  0  0
  -24.8583  -28.9557   20.1066 C   0  0  0  0  0  0
  -22.7423  -29.4629   22.4954 C   0  0  0  0  0  0
  -18.0273  -28.1359   22.8477 C   0  0  0  0  0  0
  -24.1491  -36.7310   23.2640 C   0  0  0  0  0  0
  -25.9335  -30.8317   21.3637 C   0  0  0  0  0  0
  -26.0160  -29.4646   20.7110 C   0  0  0  0  0  0
  -27.2105  -28.7051   20.7149 C   0  0  0  0  0  0
  -26.0730  -26.9388   19.4837 C   0  0  0  0  0  0
  -24.8827  -27.6923   19.4870 C   0  0  0  0  0  0
  -23.6179  -29.8215   20.1599 C   0  0  0  0  0  0
  -25.4108  -36.3096   24.0338 C   0  0  1  0  0  0
  -20.5866  -28.3653   23.1298 C   0  0  2  0  0  0
  -20.6772  -26.9389   22.5409 C   0  0  0  0  0  0
  -19.5755  -26.6370   21.5198 C   0  0  0  0  0  0
  -18.1930  -26.7906   22.1609 C   0  0  0  0  0  0
  -19.1522  -28.8821   23.2887 C   0  0  0  0  0  0
  -18.9456  -30.1428   23.8895 C   0  0  0  0  0  0
  -17.6461  -30.6575   24.0549 C   0  0  0  0  0  0
  -25.9030  -34.9462   23.5126 C   0  0  0  0  0  0
  -16.5350  -29.9074   23.6316 C   0  0  0  0  0  0
  -16.7263  -28.6487   23.0338 C   0  0  0  0  0  0
  -26.4473  -31.6583   25.0710 C   0  0  0  0  0  0
  -25.3731  -31.3700   26.1457 C   0  0  0  0  0  0
  -27.0315  -30.3030   24.6078 C   0  0  0  0  0  0
  -27.6048  -32.4302   25.7478 C   0  0  0  0  0  0
  -27.5583  -37.1805   24.8463 C   0  0  0  0  0  0
  -21.4145  -29.3018   22.3708 N   0  0  0  0  0  0
  -26.4297  -37.3780   23.9413 N   0  0  0  0  0  0
  -24.6691  -31.0761   22.0985 N   0  0  0  0  0  0
  -23.4184  -28.8165   23.2998 O   0  0  0  0  0  0
  -28.3390  -26.5951   20.1838 O   0  0  0  0  0  0
  -26.5591  -34.8919   22.4692 O   0  0  0  0  0  0
  -23.5330  -32.1412   23.7468 O   0  0  0  0  0  0
  -29.0439  -18.8864   20.8286 C   0  0  0  0  0  0
  -29.0482  -20.2851   21.0611 C   0  0  0  0  0  0
  -31.3054  -20.4032   20.2293 C   0  0  0  0  0  0
  -30.1463  -18.2318   20.2272 C   0  0  0  0  0  0
  -31.3102  -19.0087   19.9869 C   0  0  0  0  0  0
  -30.1661  -21.0927   20.7234 C   0  0  0  0  0  0
  -31.1734  -23.4118   20.8181 C   0  0  0  0  0  0
  -30.7227  -24.8545   21.0298 C   0  0  0  0  0  0
  -28.8913  -23.3410   21.0234 C   0  0  0  0  0  0
  -29.3344  -24.6917   21.6495 C   0  0  1  0  0  0
  -32.5691  -18.3987   19.3915 C   0  0  0  0  0  0
  -29.4625  -24.4765   23.1820 C   0  0  0  0  0  0
  -28.8215  -15.9926   17.3828 C   0  0  0  0  0  0
  -28.3854  -25.9229   21.4570 C   0  0  0  0  0  0
  -28.7839  -16.9390   18.5860 C   0  0  0  0  0  0
  -29.9685  -16.8302   19.5837 C   0  0  2  0  0  0
  -30.1285  -22.5472   20.8505 N   0  0  0  0  0  0
  -29.8234  -15.6370   20.4614 N   0  0  0  0  0  0
  -32.3710  -23.1489   20.6745 O   0  0  0  0  0  0
  -31.4790  -12.3840   19.1907 H   0  0  0  0  0  0
  -30.3277  -11.3178   19.9457 H   0  0  0  0  0  0
  -29.7513  -11.6016   17.5431 H   0  0  0  0  0  0
  -29.7488  -13.3254   17.7042 H   0  0  0  0  0  0
  -27.8148  -11.2839   18.8581 H   0  0  0  0  0  0
  -27.3958  -12.5878   17.7847 H   0  0  0  0  0  0
  -27.6659  -14.2380   19.5347 H   0  0  0  0  0  0
  -28.6799  -12.0559   21.4163 H   0  0  0  0  0  0
  -28.4691  -13.7380   21.8262 H   0  0  0  0  0  0
  -25.2743   -9.5694   22.4769 H   0  0  0  0  0  0
  -24.0003   -7.4629   22.7471 H   0  0  0  0  0  0
  -21.0835   -8.8760   19.8949 H   0  0  0  0  0  0
  -22.3670  -10.9675   19.6181 H   0  0  0  0  0  0
  -21.2010   -7.6148   23.9708 H   0  0  0  0  0  0
  -21.1479   -6.0525   25.9072 H   0  0  0  0  0  0
  -22.0602   -2.7607   23.2844 H   0  0  0  0  0  0
  -22.4120  -11.9879   22.4777 H   0  0  0  0  0  0
  -21.1123  -13.1255   22.2640 H   0  0  0  0  0  0
  -24.6576  -15.8374   20.5146 H   0  0  0  0  0  0
  -26.2652  -15.6224   20.0469 H   0  0  0  0  0  0
  -26.7110  -32.5529   23.1148 H   0  0  0  0  0  0
  -25.0062  -33.9754   25.0480 H   0  0  0  0  0  0
  -22.6928  -31.3037   21.4060 H   0  0  0  0  0  0
  -23.3736  -35.9661   23.3307 H   0  0  0  0  0  0
  -24.3600  -36.8918   22.2055 H   0  0  0  0  0  0
  -23.7261  -37.6524   23.6652 H   0  0  0  0  0  0
  -26.0438  -31.5980   20.5951 H   0  0  0  0  0  0
  -26.8206  -30.8859   21.9837 H   0  0  0  0  0  0
  -28.0980  -29.0845   21.2031 H   0  0  0  0  0  0
  -26.0810  -25.9603   19.0238 H   0  0  0  0  0  0
  -23.9932  -27.2934   19.0191 H   0  0  0  0  0  0
  -23.7226  -30.5985   19.4014 H   0  0  0  0  0  0
  -22.7439  -29.2405   19.8636 H   0  0  0  0  0  0
  -25.1277  -36.1960   25.0827 H   0  0  0  0  0  0
  -20.9956  -28.3237   24.1418 H   0  0  0  0  0  0
  -20.5676  -26.2268   23.3599 H   0  0  0  0  0  0
  -21.6646  -26.7426   22.1199 H   0  0  0  0  0  0
  -19.6924  -25.6282   21.1218 H   0  0  0  0  0  0
  -19.6703  -27.3196   20.6736 H   0  0  0  0  0  0
  -17.4205  -26.6643   21.4009 H   0  0  0  0  0  0
  -18.0330  -26.0046   22.8996 H   0  0  0  0  0  0
  -19.7946  -30.7223   24.2286 H   0  0  0  0  0  0
  -17.5028  -31.6258   24.5142 H   0  0  0  0  0  0
  -15.5356  -30.2970   23.7651 H   0  0  0  0  0  0
  -15.8664  -28.0815   22.7042 H   0  0  0  0  0  0
  -24.5900  -30.7048   25.7805 H   0  0  0  0  0  0
  -24.8924  -32.2863   26.4896 H   0  0  0  0  0  0
  -25.8075  -30.8879   27.0228 H   0  0  0  0  0  0
  -26.2873  -29.6781   24.1129 H   0  0  0  0  0  0
  -27.4102  -29.7264   25.4532 H   0  0  0  0  0  0
  -27.8691  -30.4359   23.9225 H   0  0  0  0  0  0
  -27.2662  -33.3596   26.2074 H   0  0  0  0  0  0
  -28.3847  -32.6874   25.0297 H   0  0  0  0  0  0
  -28.0719  -31.8409   26.5376 H   0  0  0  0  0  0
  -28.2579  -38.0120   24.7512 H   0  0  0  0  0  0
  -28.1090  -36.2645   24.6270 H   0  0  0  0  0  0
  -27.2305  -37.1433   25.8867 H   0  0  0  0  0  0
  -20.9309  -29.8755   21.6945 H   0  0  0  0  0  0
  -26.0175  -38.2852   24.1418 H   0  0  0  0  0  0
  -28.1346  -18.3332   21.0212 H   0  0  0  0  0  0
  -28.1486  -20.7235   21.4663 H   0  0  0  0  0  0
  -32.2004  -20.9396   19.9571 H   0  0  0  0  0  0
  -30.6769  -25.3478   20.0584 H   0  0  0  0  0  0
  -31.4132  -25.4093   21.6649 H   0  0  0  0  0  0
  -28.4437  -23.5011   20.0414 H   0  0  0  0  0  0
  -28.1437  -22.8511   21.6447 H   0  0  0  0  0  0
  -33.4251  -19.0661   19.4962 H   0  0  0  0  0  0
  -32.4353  -18.1961   18.3278 H   0  0  0  0  0  0
  -32.8237  -17.4646   19.8940 H   0  0  0  0  0  0
  -30.0998  -23.6303   23.4414 H   0  0  0  0  0  0
  -28.4876  -24.2865   23.6338 H   0  0  0  0  0  0
  -29.8814  -25.3525   23.6792 H   0  0  0  0  0  0
  -28.1587  -16.3536   16.5958 H   0  0  0  0  0  0
  -28.4699  -15.0024   17.6441 H   0  0  0  0  0  0
  -29.8219  -15.9144   16.9560 H   0  0  0  0  0  0
  -28.6680  -26.6884   22.1820 H   0  0  0  0  0  0
  -27.3793  -25.6096   21.7457 H   0  0  0  0  0  0
  -27.8250  -16.8694   19.0990 H   0  0  0  0  0  0
  -28.8030  -17.9411   18.1526 H   0  0  0  0  0  0
  -30.8348  -16.6540   18.9502 H   0  0  0  0  0  0
  -28.8894  -15.4479   20.7883 H   0  0  0  0  0  0
  1 25  1  0  0  0
  1 30  2  0  0  0
  1 88  1  0  0  0
  2  3  1  0  0  0
  2 25  1  0  0  0
  2 90  1  0  0  0
  2 91  1  0  0  0
  3  4  1  0  0  0
  3 92  1  0  0  0
  3 93  1  0  0  0
  4  5  1  0  0  0
  4 94  1  0  0  0
  4 95  1  0  0  0
  5  6  1  0  0  0
  5 26  1  0  0  0
  5 96  1  0  0  0
  6 25  1  0  0  0
  6 97  1  0  0  0
  6 98  1  0  0  0
  7  8  2  0  0  0
  7 26  1  0  0  0
  7 29  1  0  0  0
  8  9  1  0  0  0
  8 22  1  0  0  0
  9 10  1  0  0  0
  9 27  2  0  0  0
 10 11  2  0  0  0
 10 15  1  0  0  0
 11 12  1  0  0  0
 11 99  1  0  0  0
 12 13  2  0  0  0
 12100  1  0  0  0
 13 14  1  0  0  0
 13 31  1  0  0  0
 14 15  2  0  0  0
 14101  1  0  0  0
 15102  1  0  0  0
 16 17  2  0  0  0
 16 21  1  0  0  0
 16 31  1  0  0  0
 17 18  1  0  0  0
 17103  1  0  0  0
 18 19  2  0  0  0
 18104  1  0  0  0
 19 20  1  0  0  0
 19 24  1  0  0  0
 20 21  2  0  0  0
 20105  1  0  0  0
 21 23  1  0  0  0
 22 28  1  0  0  0
 22 32  2  0  0  0
 26 27  1  0  0  0
 28106  1  0  0  0
 28107  1  0  0  0
 29108  1  0  0  0
 29109  1  0  0  0
 33 34  1  0  0  0
 33 66  1  0  0  0
 33 70  2  0  0  0
 34 36  1  0  0  0
 34 59  1  0  0  0
 34110  1  0  0  0
 35 44  2  0  0  0
 35 45  1  0  0  0
 35 68  1  0  0  0
 36 56  1  0  0  0
 36111  1  0  0  0
 37 39  1  0  0  0
 37 47  1  0  0  0
 37 66  1  0  0  0
 37112  1  0  0  0
 38 43  2  0  0  0
 38 46  1  0  0  0
 38 47  1  0  0  0
 39 64  1  0  0  0
 39 67  2  0  0  0
 40 52  1  0  0  0
 40 53  2  0  0  0
 40 58  1  0  0  0
 41113  1  0  0  0
 41114  1  0  0  0
 41115  1  0  0  0
 41 48  1  0  0  0
 42 43  1  0  0  0
 42 66  1  0  0  0
 42116  1  0  0  0
 42117  1  0  0  0
 43 44  1  0  0  0
 44118  1  0  0  0
 45 46  2  0  0  0
 45119  1  0  0  0
 46120  1  0  0  0
 47121  1  0  0  0
 47122  1  0  0  0
 48 56  1  0  0  0
 48 65  1  0  0  0
 48123  1  0  0  0
 49 50  1  0  0  0
 49 53  1  0  0  0
 49 64  1  0  0  0
 49124  1  0  0  0
 50 51  1  0  0  0
 50125  1  0  0  0
 50126  1  0  0  0
 51 52  1  0  0  0
 51127  1  0  0  0
 51128  1  0  0  0
 52129  1  0  0  0
 52130  1  0  0  0
 53 54  1  0  0  0
 54 55  2  0  0  0
 54131  1  0  0  0
 55 57  1  0  0  0
 55132  1  0  0  0
 56 69  2  0  0  0
 57 58  2  0  0  0
 57133  1  0  0  0
 58134  1  0  0  0
 59 60  1  0  0  0
 59 61  1  0  0  0
 59 62  1  0  0  0
 60135  1  0  0  0
 60136  1  0  0  0
 60137  1  0  0  0
 61138  1  0  0  0
 61139  1  0  0  0
 61140  1  0  0  0
 62141  1  0  0  0
 62142  1  0  0  0
 62143  1  0  0  0
 63 65  1  0  0  0
 63144  1  0  0  0
 63145  1  0  0  0
 63146  1  0  0  0
 64147  1  0  0  0
 65148  1  0  0  0
 68 84  1  0  0  0
 71 72  2  0  0  0
 71 74  1  0  0  0
 71149  1  0  0  0
 72 76  1  0  0  0
 72150  1  0  0  0
 73 75  1  0  0  0
 73 76  2  0  0  0
 73151  1  0  0  0
 74 75  2  0  0  0
 74 86  1  0  0  0
 75 81  1  0  0  0
 76 87  1  0  0  0
 77 78  1  0  0  0
 77 87  1  0  0  0
 77 89  2  0  0  0
 78 80  1  0  0  0
 78152  1  0  0  0
 78153  1  0  0  0
 79 80  1  0  0  0
 79 87  1  0  0  0
 79154  1  0  0  0
 79155  1  0  0  0
 80 82  1  0  0  0
 80 84  1  0  0  0
 81156  1  0  0  0
 81157  1  0  0  0
 81158  1  0  0  0
 82159  1  0  0  0
 82160  1  0  0  0
 82161  1  0  0  0
 83 85  1  0  0  0
 83162  1  0  0  0
 83163  1  0  0  0
 83164  1  0  0  0
 84165  1  0  0  0
 84166  1  0  0  0
 85167  1  0  0  0
 85168  1  0  0  0
 85 86  1  0  0  0
 86 88  1  0  0  0
 86169  1  0  0  0
 88170  1  0  0  0
M  ISO  4   1 100  68 101  84 101  88 100
M  END
> <chiral flag>
0

> <version>
0

> <s_m_source_file>
/data/baiqing/PycharmProjects/Reinvent-master-3.2/result/LINK_invent/BTK/process_docking_weight1_custom_product_contain_oxygen_bond_distance_aromatic_linkinvent_7_9_3/rearranged_h_0065.sdf

> <i_m_source_file_index>
50

> <r_mmod_Potential_Energy-OPLS-2005>
109.920440673828

> <r_mmod_Stretch_Energy-OPLS-2005>
52.0324020385742

> <r_mmod_Bend_Energy-OPLS-2005>
156.544570922852

> <r_mmod_Torsional_Energy-OPLS-2005>
321.231567382812

> <r_mmod_Improper_Torsional_Energy-OPLS-2005>
13.1790628433228

> <r_mmod_Van_der_Waal_Energy-OPLS-2005>
155.989334106445

> <r_mmod_Electrostatic_Energy-OPLS-2005>
-405.596923828125

> <r_mmod_Solvation_Energy-OPLS-2005>
-214.459915161133

> <b_mmod_Minimization_Converged-OPLS-2005>
0

> <r_mmod_RMS_Derivative-OPLS-2005>
1.47113561630249

$$$$
50
                    3D
 Structure written by MMmdl.
168177  0  0  1  0            999 V2000
  -30.5246  -15.0056   20.4129 C   0  0  0  0  0  0
  -30.4408  -12.6306   19.4922 C   0  0  0  0  0  0
  -29.5176  -12.5197   18.2565 C   0  0  0  0  0  0
  -28.0580  -12.2888   18.6876 C   0  0  0  0  0  0
  -27.6222  -13.2454   19.8282 C   0  0  2  0  0  0
  -28.6662  -13.3164   20.9614 C   0  0  0  0  0  0
  -25.2446  -13.8199   20.5715 C   0  0  0  0  0  0
  -24.1759  -13.0428   20.9224 C   0  0  0  0  0  0
  -24.6366  -11.6909   20.8763 C   0  0  0  0  0  0
  -23.9060  -10.4282   21.0416 C   0  0  0  0  0  0
  -24.3615   -9.4204   21.9191 C   0  0  0  0  0  0
  -23.6284   -8.2241   22.0761 C   0  0  0  0  0  0
  -22.4267   -8.0276   21.3547 C   0  0  0  0  0  0
  -21.9908   -9.0250   20.4649 C   0  0  0  0  0  0
  -22.7242  -10.2124   20.3062 C   0  0  0  0  0  0
  -21.6858   -6.0727   22.5274 C   0  0  0  0  0  0
  -21.4014   -6.5635   23.8205 C   0  0  0  0  0  0
  -21.3651   -5.6791   24.9168 C   0  0  0  0  0  0
  -21.6048   -4.3056   24.7226 C   0  0  0  0  0  0
  -21.8815   -3.8140   23.4351 C   0  0  0  0  0  0
  -21.9190   -4.6951   22.3405 C   0  0  0  0  0  0
  -22.7785  -13.5208   21.1880 C   0  0  0  0  0  0
  -22.1660   -4.2136   21.0986 F   0  0  0  0  0  0
  -21.5623   -3.4546   25.7741 F   0  0  0  0  0  0
  -29.9275  -13.7432   20.3438 N   0  0  0  0  0  0
  -26.2851  -12.9422   20.3225 N   0  0  0  0  0  0
  -25.9300  -11.6557   20.5746 N   0  0  0  0  0  0
  -22.0442  -12.8194   22.0436 N   0  0  0  0  0  0
  -25.4103  -15.1930   20.4119 N   0  0  0  0  0  0
  -31.7430  -15.0423   20.2075 O   0  0  0  0  0  0
  -21.6642   -6.8869   21.4233 O   0  0  0  0  0  0
  -22.3469  -14.5519   20.6730 O   0  0  0  0  0  0
  -24.6502  -31.8384   23.1880 C   0  0  0  0  0  0
  -25.9248  -32.4666   23.8272 C   0  0  1  0  0  0
  -27.1954  -27.0621   20.1624 C   0  0  0  0  0  0
  -25.5957  -33.8480   24.2162 N   0  0  0  0  0  0
  -23.4567  -30.4603   21.5350 C   0  0  2  0  0  0
  -24.9043  -28.8860   20.1106 C   0  0  0  0  0  0
  -22.7588  -29.4503   22.4835 C   0  0  0  0  0  0
  -18.0296  -28.1403   22.8443 C   0  0  0  0  0  0
  -24.1503  -36.7254   23.2642 C   0  0  0  0  0  0
  -26.0207  -30.6883   21.4015 C   0  0  0  0  0  0
  -26.0841  -29.2938   20.7452 C   0  0  0  0  0  0
  -27.2285  -28.3964   20.7595 C   0  0  0  0  0  0
  -26.0152  -26.8186   19.4270 C   0  0  0  0  0  0
  -24.8868  -27.6622   19.4353 C   0  0  0  0  0  0
  -23.6858  -29.7972   20.1533 C   0  0  0  0  0  0
  -25.4127  -36.3011   24.0307 C   0  0  1  0  0  0
  -20.5909  -28.3719   23.1225 C   0  0  2  0  0  0
  -20.6788  -26.9418   22.5405 C   0  0  0  0  0  0
  -19.5770  -26.6366   21.5216 C   0  0  0  0  0  0
  -18.1935  -26.7927   22.1603 C   0  0  0  0  0  0
  -19.1554  -28.8873   23.2824 C   0  0  0  0  0  0
  -18.9482  -30.1459   23.8855 C   0  0  0  0  0  0
  -17.6482  -30.6591   24.0544 C   0  0  0  0  0  0
  -25.9096  -34.9388   23.5049 C   0  0  0  0  0  0
  -16.5369  -29.9087   23.6343 C   0  0  0  0  0  0
  -16.7277  -28.6514   23.0347 C   0  0  0  0  0  0
  -26.4541  -31.6555   25.0744 C   0  0  0  0  0  0
  -25.3695  -31.3772   26.1416 C   0  0  0  0  0  0
  -27.0428  -30.2940   24.6395 C   0  0  0  0  0  0
  -27.6044  -32.4355   25.7523 C   0  0  0  0  0  0
  -27.5565  -37.1762   24.8455 C   0  0  0  0  0  0
  -21.4269  -29.3041   22.3593 N   0  0  0  0  0  0
  -26.4269  -37.3736   23.9416 N   0  0  0  0  0  0
  -24.7300  -31.0171   22.0958 N   0  0  0  0  0  0
  -23.4194  -28.8021   23.2997 O   0  0  0  0  0  0
  -28.2244  -26.0237   20.1927 O   0  0  0  0  0  0
  -26.5686  -34.8880   22.4638 O   0  0  0  0  0  0
  -23.5594  -32.1304   23.7025 O   0  0  0  0  0  0
  -31.5866  -19.3311   21.6927 C   0  0  0  0  0  0
  -31.2471  -18.0152   21.3216 C   0  0  0  0  0  0
  -29.2386  -18.9509   20.3472 C   0  0  0  0  0  0
  -30.7867  -20.4734   21.4248 C   0  0  0  0  0  0
  -29.5576  -20.3924   20.6862 C   0  0  0  0  0  0
  -30.0475  -17.7154   20.6539 C   0  0  0  0  0  0
  -31.2814  -21.6953   22.0733 C   0  0  0  0  0  0
  -26.3950  -22.4313   20.4670 C   0  0  0  0  0  0
  -26.6620  -23.8800   20.0069 C   0  0  0  0  0  0
  -27.3935  -21.4005   19.9094 C   0  0  0  0  0  0
  -29.1092  -23.1868   20.2332 C   0  0  0  0  0  0
  -28.0080  -24.4650   20.4980 C   0  0  1  0  0  0
  -33.0759  -21.9258   20.3990 C   0  0  0  0  0  0
  -32.8926  -23.5796   22.2959 C   0  0  0  0  0  0
  -28.7399  -21.6477   20.4138 N   0  0  0  0  0  0
  -29.7377  -16.2097   20.4431 N   0  0  0  0  0  0
  -32.3770  -22.3609   21.6300 N   0  0  0  0  0  0
  -30.6415  -22.1450   23.1508 N   0  3  0  0  0  0
  -31.4680  -12.8081   19.1686 H   0  0  0  0  0  0
  -30.4599  -11.6935   20.0520 H   0  0  0  0  0  0
  -29.8505  -11.7095   17.6063 H   0  0  0  0  0  0
  -29.5820  -13.4356   17.6652 H   0  0  0  0  0  0
  -27.9782  -11.2556   19.0283 H   0  0  0  0  0  0
  -27.3861  -12.3799   17.8333 H   0  0  0  0  0  0
  -27.5709  -14.2340   19.3727 H   0  0  0  0  0  0
  -28.7733  -12.3545   21.4632 H   0  0  0  0  0  0
  -28.3559  -14.0349   21.7230 H   0  0  0  0  0  0
  -25.2752   -9.5682   22.4776 H   0  0  0  0  0  0
  -23.9987   -7.4631   22.7490 H   0  0  0  0  0  0
  -21.0841   -8.8762   19.8959 H   0  0  0  0  0  0
  -22.3694  -10.9658   19.6177 H   0  0  0  0  0  0
  -21.2015   -7.6145   23.9702 H   0  0  0  0  0  0
  -21.1479   -6.0530   25.9067 H   0  0  0  0  0  0
  -22.0606   -2.7602   23.2861 H   0  0  0  0  0  0
  -22.4063  -11.9852   22.4817 H   0  0  0  0  0  0
  -21.1058  -13.1203   22.2657 H   0  0  0  0  0  0
  -24.6365  -15.8404   20.5176 H   0  0  0  0  0  0
  -26.2463  -15.6352   20.0549 H   0  0  0  0  0  0
  -26.7283  -32.5231   23.0957 H   0  0  0  0  0  0
  -25.0066  -33.9607   25.0279 H   0  0  0  0  0  0
  -22.7638  -31.2895   21.3780 H   0  0  0  0  0  0
  -23.3773  -35.9579   23.3291 H   0  0  0  0  0  0
  -24.3591  -36.8929   22.2063 H   0  0  0  0  0  0
  -23.7270  -37.6442   23.6713 H   0  0  0  0  0  0
  -26.1896  -31.4400   20.6295 H   0  0  0  0  0  0
  -26.8859  -30.7353   22.0513 H   0  0  0  0  0  0
  -28.1234  -28.7032   21.2799 H   0  0  0  0  0  0
  -25.9321  -25.9391   18.8137 H   0  0  0  0  0  0
  -24.0024  -27.3629   18.8915 H   0  0  0  0  0  0
  -23.8312  -30.5777   19.4060 H   0  0  0  0  0  0
  -22.7971  -29.2504   19.8317 H   0  0  0  0  0  0
  -25.1323  -36.1805   25.0793 H   0  0  0  0  0  0
  -20.9986  -28.3306   24.1355 H   0  0  0  0  0  0
  -20.5728  -26.2319   23.3622 H   0  0  0  0  0  0
  -21.6643  -26.7437   22.1169 H   0  0  0  0  0  0
  -19.6983  -25.6285   21.1241 H   0  0  0  0  0  0
  -19.6737  -27.3160   20.6737 H   0  0  0  0  0  0
  -17.4220  -26.6648   21.3999 H   0  0  0  0  0  0
  -18.0320  -26.0098   22.9023 H   0  0  0  0  0  0
  -19.7973  -30.7261   24.2212 H   0  0  0  0  0  0
  -17.5054  -31.6263   24.5147 H   0  0  0  0  0  0
  -15.5376  -30.2984   23.7710 H   0  0  0  0  0  0
  -15.8666  -28.0826   22.7106 H   0  0  0  0  0  0
  -24.5889  -30.7113   25.7716 H   0  0  0  0  0  0
  -24.8872  -32.2968   26.4736 H   0  0  0  0  0  0
  -25.7928  -30.9001   27.0263 H   0  0  0  0  0  0
  -26.3077  -29.6635   24.1374 H   0  0  0  0  0  0
  -27.3995  -29.7274   25.5001 H   0  0  0  0  0  0
  -27.8999  -30.4186   23.9778 H   0  0  0  0  0  0
  -27.2625  -33.3697   26.1987 H   0  0  0  0  0  0
  -28.3887  -32.6845   25.0366 H   0  0  0  0  0  0
  -28.0676  -31.8576   26.5533 H   0  0  0  0  0  0
  -28.2520  -38.0105   24.7508 H   0  0  0  0  0  0
  -28.1107  -36.2622   24.6255 H   0  0  0  0  0  0
  -27.2280  -37.1377   25.8852 H   0  0  0  0  0  0
  -20.9495  -29.8794   21.6787 H   0  0  0  0  0  0
  -26.0137  -38.2799   24.1445 H   0  0  0  0  0  0
  -32.4944  -19.4554   22.2676 H   0  0  0  0  0  0
  -31.9134  -17.2183   21.6206 H   0  0  0  0  0  0
  -28.3149  -18.7625   19.8227 H   0  0  0  0  0  0
  -25.3936  -22.1407   20.1498 H   0  0  0  0  0  0
  -26.3837  -22.3849   21.5577 H   0  0  0  0  0  0
  -25.8374  -24.4689   20.4030 H   0  0  0  0  0  0
  -26.6168  -23.9123   18.9193 H   0  0  0  0  0  0
  -27.3992  -21.4257   18.8178 H   0  0  0  0  0  0
  -27.0340  -20.4156   20.1990 H   0  0  0  0  0  0
  -29.9912  -23.4438   20.8097 H   0  0  0  0  0  0
  -29.4405  -23.2750   19.1971 H   0  0  0  0  0  0
  -27.9113  -24.4803   21.5844 H   0  0  0  0  0  0
  -33.6415  -21.0103   20.5753 H   0  0  0  0  0  0
  -33.7738  -22.6811   20.0348 H   0  0  0  0  0  0
  -32.3655  -21.7346   19.5920 H   0  0  0  0  0  0
  -33.0650  -23.4079   23.3605 H   0  0  0  0  0  0
  -32.1847  -24.4040   22.1959 H   0  0  0  0  0  0
  -33.8406  -23.9075   21.8676 H   0  0  0  0  0  0
  -28.7534  -16.0156   20.3538 H   0  0  0  0  0  0
  -29.8126  -21.6537   23.4523 H   0  0  0  0  0  0
  -30.9368  -22.9573   23.6616 H   0  0  0  0  0  0
  1 25  1  0  0  0
  1 30  2  0  0  0
  1 86  1  0  0  0
  2  3  1  0  0  0
  2 25  1  0  0  0
  2 89  1  0  0  0
  2 90  1  0  0  0
  3  4  1  0  0  0
  3 91  1  0  0  0
  3 92  1  0  0  0
  4  5  1  0  0  0
  4 93  1  0  0  0
  4 94  1  0  0  0
  5  6  1  0  0  0
  5 26  1  0  0  0
  5 95  1  0  0  0
  6 25  1  0  0  0
  6 96  1  0  0  0
  6 97  1  0  0  0
  7  8  2  0  0  0
  7 26  1  0  0  0
  7 29  1  0  0  0
  8  9  1  0  0  0
  8 22  1  0  0  0
  9 10  1  0  0  0
  9 27  2  0  0  0
 10 11  2  0  0  0
 10 15  1  0  0  0
 11 12  1  0  0  0
 11 98  1  0  0  0
 12 13  2  0  0  0
 12 99  1  0  0  0
 13 14  1  0  0  0
 13 31  1  0  0  0
 14 15  2  0  0  0
 14100  1  0  0  0
 15101  1  0  0  0
 16 17  2  0  0  0
 16 21  1  0  0  0
 16 31  1  0  0  0
 17 18  1  0  0  0
 17102  1  0  0  0
 18 19  2  0  0  0
 18103  1  0  0  0
 19 20  1  0  0  0
 19 24  1  0  0  0
 20 21  2  0  0  0
 20104  1  0  0  0
 21 23  1  0  0  0
 22 28  1  0  0  0
 22 32  2  0  0  0
 26 27  1  0  0  0
 28105  1  0  0  0
 28106  1  0  0  0
 29107  1  0  0  0
 29108  1  0  0  0
 33 34  1  0  0  0
 33 66  1  0  0  0
 33 70  2  0  0  0
 34 36  1  0  0  0
 34 59  1  0  0  0
 34109  1  0  0  0
 35 44  2  0  0  0
 35 45  1  0  0  0
 35 68  1  0  0  0
 36 56  1  0  0  0
 36110  1  0  0  0
 37 39  1  0  0  0
 37 47  1  0  0  0
 37 66  1  0  0  0
 37111  1  0  0  0
 38 43  2  0  0  0
 38 46  1  0  0  0
 38 47  1  0  0  0
 39 64  1  0  0  0
 39 67  2  0  0  0
 40 52  1  0  0  0
 40 53  2  0  0  0
 40 58  1  0  0  0
 41112  1  0  0  0
 41113  1  0  0  0
 41114  1  0  0  0
 41 48  1  0  0  0
 42 43  1  0  0  0
 42 66  1  0  0  0
 42115  1  0  0  0
 42116  1  0  0  0
 43 44  1  0  0  0
 44117  1  0  0  0
 45 46  2  0  0  0
 45118  1  0  0  0
 46119  1  0  0  0
 47120  1  0  0  0
 47121  1  0  0  0
 48 56  1  0  0  0
 48 65  1  0  0  0
 48122  1  0  0  0
 49 50  1  0  0  0
 49 53  1  0  0  0
 49 64  1  0  0  0
 49123  1  0  0  0
 50 51  1  0  0  0
 50124  1  0  0  0
 50125  1  0  0  0
 51 52  1  0  0  0
 51126  1  0  0  0
 51127  1  0  0  0
 52128  1  0  0  0
 52129  1  0  0  0
 53 54  1  0  0  0
 54 55  2  0  0  0
 54130  1  0  0  0
 55 57  1  0  0  0
 55131  1  0  0  0
 56 69  2  0  0  0
 57 58  2  0  0  0
 57132  1  0  0  0
 58133  1  0  0  0
 59 60  1  0  0  0
 59 61  1  0  0  0
 59 62  1  0  0  0
 60134  1  0  0  0
 60135  1  0  0  0
 60136  1  0  0  0
 61137  1  0  0  0
 61138  1  0  0  0
 61139  1  0  0  0
 62140  1  0  0  0
 62141  1  0  0  0
 62142  1  0  0  0
 63 65  1  0  0  0
 63143  1  0  0  0
 63144  1  0  0  0
 63145  1  0  0  0
 64146  1  0  0  0
 65147  1  0  0  0
 68 82  1  0  0  0
 71 72  2  0  0  0
 71 74  1  0  0  0
 71148  1  0  0  0
 72 76  1  0  0  0
 72149  1  0  0  0
 73 75  1  0  0  0
 73 76  2  0  0  0
 73150  1  0  0  0
 74 75  2  0  0  0
 74 77  1  0  0  0
 75 85  1  0  0  0
 76 86  1  0  0  0
 77 87  1  0  0  0
 77 88  2  0  0  0
 78 79  1  0  0  0
 78 80  1  0  0  0
 78151  1  0  0  0
 78152  1  0  0  0
 79 82  1  0  0  0
 79153  1  0  0  0
 79154  1  0  0  0
 80 85  1  0  0  0
 80155  1  0  0  0
 80156  1  0  0  0
 81 82  1  0  0  0
 81 85  1  0  0  0
 81157  1  0  0  0
 81158  1  0  0  0
 82159  1  0  0  0
 83 87  1  0  0  0
 83160  1  0  0  0
 83161  1  0  0  0
 83162  1  0  0  0
 84 87  1  0  0  0
 84163  1  0  0  0
 84164  1  0  0  0
 84165  1  0  0  0
 86166  1  0  0  0
 88167  1  0  0  0
 88168  1  0  0  0
M  CHG  1  88   1
M  ISO  4   1 100  68 101  82 101  86 100
M  END
> <chiral flag>
0

> <version>
0

> <s_m_source_file>
/data/baiqing/PycharmProjects/Reinvent-master-3.2/result/LINK_invent/BTK/process_docking_weight1_custom_product_contain_oxygen_bond_distance_aromatic_linkinvent_7_9_3/rearranged_h_0065.sdf

> <i_m_source_file_index>
51

> <r_mmod_Potential_Energy-OPLS-2005>
679.796875

> <r_mmod_Stretch_Energy-OPLS-2005>
337.0576171875

> <r_mmod_Bend_Energy-OPLS-2005>
307.344787597656

> <r_mmod_Torsional_Energy-OPLS-2005>
276.655303955078

> <r_mmod_Improper_Torsional_Energy-OPLS-2005>
7.54872035980225

> <r_mmod_Van_der_Waal_Energy-OPLS-2005>
161.64338684082

> <r_mmod_Electrostatic_Energy-OPLS-2005>
-255.616180419922

> <r_mmod_Solvation_Energy-OPLS-2005>
-405.355194091797

> <b_mmod_Minimization_Converged-OPLS-2005>
0

> <r_mmod_RMS_Derivative-OPLS-2005>
2.98544192314148

$$$$
51
                    3D
 Structure written by MMmdl.
164173  0  0  1  0            999 V2000
  -30.6457  -14.7562   20.4364 C   0  0  0  0  0  0
  -30.4204  -12.4594   19.4794 C   0  0  0  0  0  0
  -29.5091  -12.5096   18.2348 C   0  0  0  0  0  0
  -28.0346  -12.3381   18.6447 C   0  0  0  0  0  0
  -27.6384  -13.2417   19.8433 C   0  0  2  0  0  0
  -28.6836  -13.2042   20.9794 C   0  0  0  0  0  0
  -25.2487  -13.8218   20.5706 C   0  0  0  0  0  0
  -24.1790  -13.0451   20.9218 C   0  0  0  0  0  0
  -24.6393  -11.6937   20.8751 C   0  0  0  0  0  0
  -23.9072  -10.4301   21.0411 C   0  0  0  0  0  0
  -24.3622   -9.4212   21.9189 C   0  0  0  0  0  0
  -23.6295   -8.2249   22.0758 C   0  0  0  0  0  0
  -22.4277   -8.0282   21.3546 C   0  0  0  0  0  0
  -21.9909   -9.0263   20.4658 C   0  0  0  0  0  0
  -22.7240  -10.2141   20.3063 C   0  0  0  0  0  0
  -21.6853   -6.0738   22.5280 C   0  0  0  0  0  0
  -21.4020   -6.5637   23.8214 C   0  0  0  0  0  0
  -21.3661   -5.6786   24.9174 C   0  0  0  0  0  0
  -21.6038   -4.3048   24.7222 C   0  0  0  0  0  0
  -21.8816   -3.8146   23.4341 C   0  0  0  0  0  0
  -21.9195   -4.6968   22.3401 C   0  0  0  0  0  0
  -22.7802  -13.5237   21.1865 C   0  0  0  0  0  0
  -22.1661   -4.2153   21.0978 F   0  0  0  0  0  0
  -21.5632   -3.4529   25.7738 F   0  0  0  0  0  0
  -29.9830  -13.5462   20.3902 N   0  0  0  0  0  0
  -26.2921  -12.9451   20.3254 N   0  0  0  0  0  0
  -25.9326  -11.6583   20.5742 N   0  0  0  0  0  0
  -22.0436  -12.8235   22.0419 N   0  0  0  0  0  0
  -25.4163  -15.1943   20.4118 N   0  0  0  0  0  0
  -31.8482  -14.7624   20.1727 O   0  0  0  0  0  0
  -21.6638   -6.8882   21.4240 O   0  0  0  0  0  0
  -22.3490  -14.5538   20.6703 O   0  0  0  0  0  0
  -24.6328  -31.8552   23.1978 C   0  0  0  0  0  0
  -25.9147  -32.4748   23.8318 C   0  0  1  0  0  0
  -27.2194  -27.2567   20.1443 C   0  0  0  0  0  0
  -25.5942  -33.8541   24.2247 N   0  0  0  0  0  0
  -23.4291  -30.4770   21.5421 C   0  0  2  0  0  0
  -24.8774  -28.9157   20.1208 C   0  0  0  0  0  0
  -22.7503  -29.4608   22.4923 C   0  0  0  0  0  0
  -18.0295  -28.1384   22.8479 C   0  0  0  0  0  0
  -24.1499  -36.7279   23.2636 C   0  0  0  0  0  0
  -25.9751  -30.7653   21.3796 C   0  0  0  0  0  0
  -26.0492  -29.3823   20.7341 C   0  0  0  0  0  0
  -27.2255  -28.5632   20.7398 C   0  0  0  0  0  0
  -26.0351  -26.8646   19.4953 C   0  0  0  0  0  0
  -24.8737  -27.6615   19.4917 C   0  0  0  0  0  0
  -23.6501  -29.8061   20.1607 C   0  0  0  0  0  0
  -25.4115  -36.3065   24.0334 C   0  0  1  0  0  0
  -20.5899  -28.3696   23.1278 C   0  0  2  0  0  0
  -20.6782  -26.9411   22.5417 C   0  0  0  0  0  0
  -19.5757  -26.6381   21.5214 C   0  0  0  0  0  0
  -18.1935  -26.7926   22.1619 C   0  0  0  0  0  0
  -19.1545  -28.8856   23.2874 C   0  0  0  0  0  0
  -18.9459  -30.1460   23.8884 C   0  0  0  0  0  0
  -17.6454  -30.6579   24.0565 C   0  0  0  0  0  0
  -25.9056  -34.9432   23.5092 C   0  0  0  0  0  0
  -16.5349  -29.9073   23.6336 C   0  0  0  0  0  0
  -16.7282  -28.6501   23.0344 C   0  0  0  0  0  0
  -26.4507  -31.6556   25.0701 C   0  0  0  0  0  0
  -25.3725  -31.3703   26.1422 C   0  0  0  0  0  0
  -27.0344  -30.2973   24.6169 C   0  0  0  0  0  0
  -27.6075  -32.4273   25.7475 C   0  0  0  0  0  0
  -27.5582  -37.1794   24.8460 C   0  0  0  0  0  0
  -21.4209  -29.3046   22.3666 N   0  0  0  0  0  0
  -26.4286  -37.3768   23.9411 N   0  0  0  0  0  0
  -24.6979  -31.0513   22.0960 N   0  0  0  0  0  0
  -23.4201  -28.8158   23.3031 O   0  0  0  0  0  0
  -28.2959  -26.3433   20.1093 O   0  0  0  0  0  0
  -26.5639  -34.8908   22.4667 O   0  0  0  0  0  0
  -23.5478  -32.1369   23.7283 O   0  0  0  0  0  0
  -31.5517  -17.6759   19.6985 C   0  0  0  0  0  0
  -29.4649  -18.5551   20.5544 C   0  0  0  0  0  0
  -31.9756  -18.9903   19.3998 C   0  0  0  0  0  0
  -29.8522  -19.9410   20.2507 C   0  0  0  0  0  0
  -30.3030  -17.3820   20.2987 C   0  0  0  0  0  0
  -31.1422  -20.0964   19.6835 C   0  0  0  0  0  0
  -27.6842  -21.2662   20.4329 C   0  0  0  0  0  0
  -33.3000  -19.2292   18.7690 C   0  0  0  0  0  0
  -29.5251  -22.6313   20.4417 C   0  0  0  0  0  0
  -28.3473  -23.5689   20.9257 C   0  0  2  0  0  0
  -27.1213  -22.7243   20.5028 C   0  0  0  0  0  0
  -26.5828  -23.1217   19.1123 C   0  0  0  0  0  0
  -25.9853  -22.7941   21.5490 C   0  0  0  0  0  0
  -28.3202  -25.2124   21.0891 C   0  0  0  0  0  0
  -34.1110  -18.3384   18.3717 N   0  0  0  0  0  0
  -29.0338  -21.1917   20.4450 N   0  0  0  0  0  0
  -29.9264  -15.9503   20.5780 N   0  0  0  0  0  0
  -26.9247  -20.2941   20.3695 O   0  0  0  0  0  0
  -31.5963  -21.3316   19.3589 F   0  0  0  0  0  0
  -31.4652  -12.5550   19.1826 H   0  0  0  0  0  0
  -30.3405  -11.4906   19.9752 H   0  0  0  0  0  0
  -29.7957  -11.7329   17.5236 H   0  0  0  0  0  0
  -29.6386  -13.4626   17.7180 H   0  0  0  0  0  0
  -27.8888  -11.2906   18.9091 H   0  0  0  0  0  0
  -27.3805  -12.5320   17.7937 H   0  0  0  0  0  0
  -27.6258  -14.2594   19.4519 H   0  0  0  0  0  0
  -28.7196  -12.2175   21.4442 H   0  0  0  0  0  0
  -28.4193  -13.9064   21.7713 H   0  0  0  0  0  0
  -25.2772   -9.5686   22.4755 H   0  0  0  0  0  0
  -24.0010   -7.4637   22.7461 H   0  0  0  0  0  0
  -21.0848   -8.8781   19.8960 H   0  0  0  0  0  0
  -22.3706  -10.9676   19.6163 H   0  0  0  0  0  0
  -21.2016   -7.6149   23.9716 H   0  0  0  0  0  0
  -21.1486   -6.0521   25.9076 H   0  0  0  0  0  0
  -22.0597   -2.7611   23.2837 H   0  0  0  0  0  0
  -22.4051  -11.9914   22.4846 H   0  0  0  0  0  0
  -21.1048  -13.1267   22.2608 H   0  0  0  0  0  0
  -24.6459  -15.8455   20.5180 H   0  0  0  0  0  0
  -26.2610  -15.6332   20.0686 H   0  0  0  0  0  0
  -26.7220  -32.5407   23.1060 H   0  0  0  0  0  0
  -25.0087  -33.9663   25.0398 H   0  0  0  0  0  0
  -22.7267  -31.2998   21.3942 H   0  0  0  0  0  0
  -23.3767  -35.9609   23.3286 H   0  0  0  0  0  0
  -24.3599  -36.8901   22.2052 H   0  0  0  0  0  0
  -23.7241  -37.6472   23.6663 H   0  0  0  0  0  0
  -26.1112  -31.5195   20.6027 H   0  0  0  0  0  0
  -26.8550  -30.8221   22.0086 H   0  0  0  0  0  0
  -28.1250  -28.9183   21.2233 H   0  0  0  0  0  0
  -26.0070  -25.9189   18.9815 H   0  0  0  0  0  0
  -23.9803  -27.2999   19.0001 H   0  0  0  0  0  0
  -23.7786  -30.5793   19.4026 H   0  0  0  0  0  0
  -22.7678  -29.2410   19.8550 H   0  0  0  0  0  0
  -25.1297  -36.1912   25.0832 H   0  0  0  0  0  0
  -20.9988  -28.3275   24.1399 H   0  0  0  0  0  0
  -20.5674  -26.2296   23.3620 H   0  0  0  0  0  0
  -21.6653  -26.7432   22.1221 H   0  0  0  0  0  0
  -19.6913  -25.6291   21.1246 H   0  0  0  0  0  0
  -19.6693  -27.3195   20.6748 H   0  0  0  0  0  0
  -17.4209  -26.6686   21.4022 H   0  0  0  0  0  0
  -18.0329  -26.0059   22.9006 H   0  0  0  0  0  0
  -19.7932  -30.7292   24.2235 H   0  0  0  0  0  0
  -17.5005  -31.6253   24.5171 H   0  0  0  0  0  0
  -15.5346  -30.2969   23.7653 H   0  0  0  0  0  0
  -15.8688  -28.0822   22.7041 H   0  0  0  0  0  0
  -24.5936  -30.7002   25.7759 H   0  0  0  0  0  0
  -24.8870  -32.2866   26.4793 H   0  0  0  0  0  0
  -25.8049  -30.8932   27.0227 H   0  0  0  0  0  0
  -26.2915  -29.6720   24.1201 H   0  0  0  0  0  0
  -27.4043  -29.7225   25.4667 H   0  0  0  0  0  0
  -27.8793  -30.4245   23.9396 H   0  0  0  0  0  0
  -27.2710  -33.3587   26.2037 H   0  0  0  0  0  0
  -28.3904  -32.6781   25.0307 H   0  0  0  0  0  0
  -28.0725  -31.8386   26.5392 H   0  0  0  0  0  0
  -28.2593  -38.0099   24.7527 H   0  0  0  0  0  0
  -28.1083  -36.2629   24.6265 H   0  0  0  0  0  0
  -27.2311  -37.1426   25.8866 H   0  0  0  0  0  0
  -20.9394  -29.8747   21.6853 H   0  0  0  0  0  0
  -26.0167  -38.2846   24.1402 H   0  0  0  0  0  0
  -32.2310  -16.8868   19.4319 H   0  0  0  0  0  0
  -28.4942  -18.3844   20.9969 H   0  0  0  0  0  0
  -33.5846  -20.2769   18.6397 H   0  0  0  0  0  0
  -30.3994  -22.7438   21.0833 H   0  0  0  0  0  0
  -29.8153  -22.9155   19.4293 H   0  0  0  0  0  0
  -28.4045  -23.3482   21.9943 H   0  0  0  0  0  0
  -27.3599  -23.5643   18.4879 H   0  0  0  0  0  0
  -25.7706  -23.8398   19.1970 H   0  0  0  0  0  0
  -26.1744  -22.2675   18.5681 H   0  0  0  0  0  0
  -26.3052  -22.4091   22.5189 H   0  0  0  0  0  0
  -25.1244  -22.2016   21.2348 H   0  0  0  0  0  0
  -25.6402  -23.8167   21.7013 H   0  0  0  0  0  0
  -29.2092  -25.4401   21.6790 H   0  0  0  0  0  0
  -27.5046  -25.4170   21.7855 H   0  0  0  0  0  0
  -33.7566  -17.4010   18.5274 H   0  0  0  0  0  0
  -28.9615  -15.8070   20.8341 H   0  0  0  0  0  0
  1 25  1  0  0  0
  1 30  2  0  0  0
  1 87  1  0  0  0
  2  3  1  0  0  0
  2 25  1  0  0  0
  2 90  1  0  0  0
  2 91  1  0  0  0
  3  4  1  0  0  0
  3 92  1  0  0  0
  3 93  1  0  0  0
  4  5  1  0  0  0
  4 94  1  0  0  0
  4 95  1  0  0  0
  5  6  1  0  0  0
  5 26  1  0  0  0
  5 96  1  0  0  0
  6 25  1  0  0  0
  6 97  1  0  0  0
  6 98  1  0  0  0
  7  8  2  0  0  0
  7 26  1  0  0  0
  7 29  1  0  0  0
  8  9  1  0  0  0
  8 22  1  0  0  0
  9 10  1  0  0  0
  9 27  2  0  0  0
 10 11  2  0  0  0
 10 15  1  0  0  0
 11 12  1  0  0  0
 11 99  1  0  0  0
 12 13  2  0  0  0
 12100  1  0  0  0
 13 14  1  0  0  0
 13 31  1  0  0  0
 14 15  2  0  0  0
 14101  1  0  0  0
 15102  1  0  0  0
 16 17  2  0  0  0
 16 21  1  0  0  0
 16 31  1  0  0  0
 17 18  1  0  0  0
 17103  1  0  0  0
 18 19  2  0  0  0
 18104  1  0  0  0
 19 20  1  0  0  0
 19 24  1  0  0  0
 20 21  2  0  0  0
 20105  1  0  0  0
 21 23  1  0  0  0
 22 28  1  0  0  0
 22 32  2  0  0  0
 26 27  1  0  0  0
 28106  1  0  0  0
 28107  1  0  0  0
 29108  1  0  0  0
 29109  1  0  0  0
 33 34  1  0  0  0
 33 66  1  0  0  0
 33 70  2  0  0  0
 34 36  1  0  0  0
 34 59  1  0  0  0
 34110  1  0  0  0
 35 44  2  0  0  0
 35 45  1  0  0  0
 35 68  1  0  0  0
 36 56  1  0  0  0
 36111  1  0  0  0
 37 39  1  0  0  0
 37 47  1  0  0  0
 37 66  1  0  0  0
 37112  1  0  0  0
 38 43  2  0  0  0
 38 46  1  0  0  0
 38 47  1  0  0  0
 39 64  1  0  0  0
 39 67  2  0  0  0
 40 52  1  0  0  0
 40 53  2  0  0  0
 40 58  1  0  0  0
 41113  1  0  0  0
 41114  1  0  0  0
 41115  1  0  0  0
 41 48  1  0  0  0
 42 43  1  0  0  0
 42 66  1  0  0  0
 42116  1  0  0  0
 42117  1  0  0  0
 43 44  1  0  0  0
 44118  1  0  0  0
 45 46  2  0  0  0
 45119  1  0  0  0
 46120  1  0  0  0
 47121  1  0  0  0
 47122  1  0  0  0
 48 56  1  0  0  0
 48 65  1  0  0  0
 48123  1  0  0  0
 49 50  1  0  0  0
 49 53  1  0  0  0
 49 64  1  0  0  0
 49124  1  0  0  0
 50 51  1  0  0  0
 50125  1  0  0  0
 50126  1  0  0  0
 51 52  1  0  0  0
 51127  1  0  0  0
 51128  1  0  0  0
 52129  1  0  0  0
 52130  1  0  0  0
 53 54  1  0  0  0
 54 55  2  0  0  0
 54131  1  0  0  0
 55 57  1  0  0  0
 55132  1  0  0  0
 56 69  2  0  0  0
 57 58  2  0  0  0
 57133  1  0  0  0
 58134  1  0  0  0
 59 60  1  0  0  0
 59 61  1  0  0  0
 59 62  1  0  0  0
 60135  1  0  0  0
 60136  1  0  0  0
 60137  1  0  0  0
 61138  1  0  0  0
 61139  1  0  0  0
 61140  1  0  0  0
 62141  1  0  0  0
 62142  1  0  0  0
 62143  1  0  0  0
 63 65  1  0  0  0
 63144  1  0  0  0
 63145  1  0  0  0
 63146  1  0  0  0
 64147  1  0  0  0
 65148  1  0  0  0
 68 84  1  0  0  0
 71 73  2  0  0  0
 71 75  1  0  0  0
 71149  1  0  0  0
 72 74  1  0  0  0
 72 75  2  0  0  0
 72150  1  0  0  0
 73 76  1  0  0  0
 73 78  1  0  0  0
 74 76  2  0  0  0
 74 86  1  0  0  0
 75 87  1  0  0  0
 76 89  1  0  0  0
 77 81  1  0  0  0
 77 86  1  0  0  0
 77 88  2  0  0  0
 78 85  2  0  0  0
 78151  1  0  0  0
 79 80  1  0  0  0
 79 86  1  0  0  0
 79152  1  0  0  0
 79153  1  0  0  0
 80 81  1  0  0  0
 80 84  1  0  0  0
 80154  1  0  0  0
 81 82  1  0  0  0
 81 83  1  0  0  0
 82155  1  0  0  0
 82156  1  0  0  0
 82157  1  0  0  0
 83158  1  0  0  0
 83159  1  0  0  0
 83160  1  0  0  0
 84161  1  0  0  0
 84162  1  0  0  0
 85163  1  0  0  0
 87164  1  0  0  0
M  ISO  4   1 100  68 101  84 101  87 100
M  END
> <chiral flag>
0

> <version>
0

> <s_m_source_file>
/data/baiqing/PycharmProjects/Reinvent-master-3.2/result/LINK_invent/BTK/process_docking_weight1_custom_product_contain_oxygen_bond_distance_aromatic_linkinvent_7_9_3/rearranged_h_0065.sdf

> <i_m_source_file_index>
52

> <r_mmod_Potential_Energy-OPLS-2005>
372.241973876953

> <r_mmod_Stretch_Energy-OPLS-2005>
145.470321655273

> <r_mmod_Bend_Energy-OPLS-2005>
269.264495849609

> <r_mmod_Torsional_Energy-OPLS-2005>
303.472473144531

> <r_mmod_Improper_Torsional_Energy-OPLS-2005>
4.66628932952881

> <r_mmod_Van_der_Waal_Energy-OPLS-2005>
153.775680541992

> <r_mmod_Electrostatic_Energy-OPLS-2005>
-372.726165771484

> <r_mmod_Solvation_Energy-OPLS-2005>
-222.1123046875

> <b_mmod_Minimization_Converged-OPLS-2005>
0

> <r_mmod_RMS_Derivative-OPLS-2005>
1.80770361423492

$$$$
52
                    3D
 Structure written by MMmdl.
156164  0  0  1  0            999 V2000
  -30.4977  -14.9060   20.4379 C   0  0  0  0  0  0
  -30.4398  -12.5611   19.4884 C   0  0  0  0  0  0
  -29.5258  -12.5389   18.2414 C   0  0  0  0  0  0
  -28.0455  -12.3406   18.6301 C   0  0  0  0  0  0
  -27.6152  -13.2439   19.8161 C   0  0  2  0  0  0
  -28.6534  -13.2187   20.9506 C   0  0  0  0  0  0
  -25.2350  -13.8176   20.5579 C   0  0  0  0  0  0
  -24.1702  -13.0402   20.9227 C   0  0  0  0  0  0
  -24.6333  -11.6890   20.8737 C   0  0  0  0  0  0
  -23.9024  -10.4261   21.0432 C   0  0  0  0  0  0
  -24.3596   -9.4189   21.9204 C   0  0  0  0  0  0
  -23.6274   -8.2239   22.0749 C   0  0  0  0  0  0
  -22.4261   -8.0283   21.3541 C   0  0  0  0  0  0
  -21.9877   -9.0252   20.4647 C   0  0  0  0  0  0
  -22.7209  -10.2117   20.3081 C   0  0  0  0  0  0
  -21.6837   -6.0720   22.5277 C   0  0  0  0  0  0
  -21.4004   -6.5607   23.8217 C   0  0  0  0  0  0
  -21.3664   -5.6757   24.9179 C   0  0  0  0  0  0
  -21.6048   -4.3020   24.7222 C   0  0  0  0  0  0
  -21.8827   -3.8130   23.4341 C   0  0  0  0  0  0
  -21.9176   -4.6951   22.3405 C   0  0  0  0  0  0
  -22.7720  -13.5195   21.1883 C   0  0  0  0  0  0
  -22.1649   -4.2152   21.0991 F   0  0  0  0  0  0
  -21.5643   -3.4496   25.7717 F   0  0  0  0  0  0
  -29.9284  -13.6446   20.3580 N   0  0  0  0  0  0
  -26.2736  -12.9390   20.3010 N   0  0  0  0  0  0
  -25.9234  -11.6512   20.5602 N   0  0  0  0  0  0
  -22.0358  -12.8243   22.0483 N   0  0  0  0  0  0
  -25.3887  -15.1915   20.3868 N   0  0  0  0  0  0
  -31.7211  -15.0035   20.2698 O   0  0  0  0  0  0
  -21.6633   -6.8884   21.4237 O   0  0  0  0  0  0
  -22.3396  -14.5470   20.6667 O   0  0  0  0  0  0
  -24.6349  -31.8475   23.1922 C   0  0  0  0  0  0
  -25.9174  -32.4698   23.8282 C   0  0  1  0  0  0
  -27.1996  -27.1880   20.1219 C   0  0  0  0  0  0
  -25.5967  -33.8504   24.2186 N   0  0  0  0  0  0
  -23.4332  -30.4702   21.5461 C   0  0  2  0  0  0
  -24.8739  -28.9036   20.1180 C   0  0  0  0  0  0
  -22.7496  -29.4559   22.4949 C   0  0  0  0  0  0
  -18.0298  -28.1376   22.8514 C   0  0  0  0  0  0
  -24.1479  -36.7187   23.2628 C   0  0  0  0  0  0
  -25.9853  -30.7423   21.3782 C   0  0  0  0  0  0
  -26.0551  -29.3605   20.7147 C   0  0  0  0  0  0
  -27.2219  -28.5173   20.6962 C   0  0  0  0  0  0
  -25.9825  -26.8040   19.5243 C   0  0  0  0  0  0
  -24.8451  -27.6335   19.5240 C   0  0  0  0  0  0
  -23.6495  -29.8017   20.1655 C   0  0  0  0  0  0
  -25.4127  -36.3014   24.0307 C   0  0  1  0  0  0
  -20.5895  -28.3656   23.1302 C   0  0  2  0  0  0
  -20.6809  -26.9397   22.5390 C   0  0  0  0  0  0
  -19.5767  -26.6351   21.5221 C   0  0  0  0  0  0
  -18.1943  -26.7925   22.1639 C   0  0  0  0  0  0
  -19.1539  -28.8831   23.2907 C   0  0  0  0  0  0
  -18.9464  -30.1442   23.8913 C   0  0  0  0  0  0
  -17.6471  -30.6554   24.0596 C   0  0  0  0  0  0
  -25.9095  -34.9407   23.5037 C   0  0  0  0  0  0
  -16.5353  -29.9066   23.6349 C   0  0  0  0  0  0
  -16.7275  -28.6499   23.0358 C   0  0  0  0  0  0
  -26.4493  -31.6562   25.0704 C   0  0  0  0  0  0
  -25.3644  -31.3875   26.1394 C   0  0  0  0  0  0
  -27.0276  -30.2927   24.6262 C   0  0  0  0  0  0
  -27.6036  -32.4265   25.7506 C   0  0  0  0  0  0
  -27.5555  -37.1790   24.8464 C   0  0  0  0  0  0
  -21.4192  -29.3006   22.3686 N   0  0  0  0  0  0
  -26.4272  -37.3739   23.9402 N   0  0  0  0  0  0
  -24.7056  -31.0387   22.0934 N   0  0  0  0  0  0
  -23.4178  -28.8097   23.3052 O   0  0  0  0  0  0
  -28.2791  -26.2598   20.1927 O   0  0  0  0  0  0
  -26.5615  -34.8890   22.4590 O   0  0  0  0  0  0
  -23.5477  -32.1355   23.7153 O   0  0  0  0  0  0
  -29.8995  -18.9223   22.7931 C   0  0  0  0  0  0
  -30.0184  -17.6635   22.1632 C   0  0  0  0  0  0
  -29.2265  -18.6959   20.1293 C   0  0  0  0  0  0
  -29.4971  -20.0965   22.1105 C   0  0  0  0  0  0
  -29.6769  -17.4640   20.8127 C   0  0  0  0  0  0
  -29.1638  -20.0455   20.7284 C   0  0  0  0  0  0
  -29.4430  -21.3826   22.9148 C   0  0  0  0  0  0
  -26.7135  -23.1907   20.9014 C   0  0  0  0  0  0
  -28.2936  -24.8229   19.6347 C   0  0  0  0  0  0
  -28.1837  -23.4026   20.4957 C   0  0  2  0  0  0
  -29.6619  -16.0371   20.2978 N   0  0  0  0  0  0
  -30.1727  -22.0240   19.1019 O   0  0  0  0  0  0
  -27.8154  -21.3030   18.7172 O   0  0  0  0  0  0
  -28.8581  -21.6843   19.6840 S   0  0  0  0  0  0
  -31.4726  -12.7375   19.1829 H   0  0  0  0  0  0
  -30.4313  -11.6089   20.0189 H   0  0  0  0  0  0
  -29.8628  -11.7734   17.5417 H   0  0  0  0  0  0
  -29.6177  -13.4920   17.7167 H   0  0  0  0  0  0
  -27.9096  -11.2900   18.8813 H   0  0  0  0  0  0
  -27.4138  -12.5317   17.7625 H   0  0  0  0  0  0
  -27.5828  -14.2585   19.4184 H   0  0  0  0  0  0
  -28.7256  -12.2201   21.3854 H   0  0  0  0  0  0
  -28.3410  -13.8862   21.7535 H   0  0  0  0  0  0
  -25.2759   -9.5637   22.4736 H   0  0  0  0  0  0
  -23.9975   -7.4615   22.7440 H   0  0  0  0  0  0
  -21.0823   -8.8789   19.8953 H   0  0  0  0  0  0
  -22.3712  -10.9650   19.6183 H   0  0  0  0  0  0
  -21.2012   -7.6122   23.9723 H   0  0  0  0  0  0
  -21.1469   -6.0492   25.9087 H   0  0  0  0  0  0
  -22.0601   -2.7601   23.2835 H   0  0  0  0  0  0
  -22.3982  -11.9966   22.4979 H   0  0  0  0  0  0
  -21.0972  -13.1280   22.2668 H   0  0  0  0  0  0
  -24.5926  -15.8163   20.4761 H   0  0  0  0  0  0
  -26.1827  -15.6258   19.9325 H   0  0  0  0  0  0
  -26.7237  -32.5292   23.1016 H   0  0  0  0  0  0
  -25.0247  -33.9693   25.0411 H   0  0  0  0  0  0
  -22.7337  -31.2957   21.3967 H   0  0  0  0  0  0
  -23.3759  -35.9493   23.3276 H   0  0  0  0  0  0
  -24.3560  -36.8793   22.2040 H   0  0  0  0  0  0
  -23.7205  -37.6371   23.6640 H   0  0  0  0  0  0
  -26.1332  -31.5086   20.6157 H   0  0  0  0  0  0
  -26.8562  -30.7802   22.0214 H   0  0  0  0  0  0
  -28.1329  -28.8629   21.1672 H   0  0  0  0  0  0
  -25.8650  -25.8210   19.0930 H   0  0  0  0  0  0
  -23.9210  -27.2622   19.0960 H   0  0  0  0  0  0
  -23.7809  -30.5760   19.4095 H   0  0  0  0  0  0
  -22.7617  -29.2441   19.8537 H   0  0  0  0  0  0
  -25.1317  -36.1853   25.0794 H   0  0  0  0  0  0
  -21.0023  -28.3222   24.1415 H   0  0  0  0  0  0
  -20.5854  -26.2242   23.3573 H   0  0  0  0  0  0
  -21.6670  -26.7529   22.1100 H   0  0  0  0  0  0
  -19.6934  -25.6250   21.1291 H   0  0  0  0  0  0
  -19.6714  -27.3145   20.6737 H   0  0  0  0  0  0
  -17.4249  -26.6706   21.4009 H   0  0  0  0  0  0
  -18.0307  -26.0040   22.9002 H   0  0  0  0  0  0
  -19.7939  -30.7249   24.2306 H   0  0  0  0  0  0
  -17.5013  -31.6262   24.5160 H   0  0  0  0  0  0
  -15.5367  -30.2975   23.7636 H   0  0  0  0  0  0
  -15.8701  -28.0830   22.7055 H   0  0  0  0  0  0
  -24.5966  -30.6997   25.7855 H   0  0  0  0  0  0
  -24.8643  -32.3066   26.4448 H   0  0  0  0  0  0
  -25.7929  -30.9464   27.0399 H   0  0  0  0  0  0
  -26.2905  -29.6784   24.1071 H   0  0  0  0  0  0
  -27.3621  -29.7131   25.4877 H   0  0  0  0  0  0
  -27.8931  -30.4100   23.9728 H   0  0  0  0  0  0
  -27.2701  -33.3672   26.1915 H   0  0  0  0  0  0
  -28.3991  -32.6611   25.0413 H   0  0  0  0  0  0
  -28.0486  -31.8431   26.5583 H   0  0  0  0  0  0
  -28.2569  -38.0093   24.7506 H   0  0  0  0  0  0
  -28.1072  -36.2620   24.6319 H   0  0  0  0  0  0
  -27.2261  -37.1444   25.8867 H   0  0  0  0  0  0
  -20.9319  -29.8737   21.6934 H   0  0  0  0  0  0
  -26.0114  -38.2782   24.1448 H   0  0  0  0  0  0
  -30.1252  -18.9726   23.8495 H   0  0  0  0  0  0
  -30.3235  -16.8216   22.7674 H   0  0  0  0  0  0
  -28.9145  -18.6269   19.0980 H   0  0  0  0  0  0
  -29.7316  -21.2250   23.9604 H   0  0  0  0  0  0
  -28.4293  -21.7937   22.9099 H   0  0  0  0  0  0
  -30.1483  -22.1051   22.5047 H   0  0  0  0  0  0
  -26.3909  -23.8975   21.6675 H   0  0  0  0  0  0
  -26.5530  -22.1815   21.2786 H   0  0  0  0  0  0
  -26.0546  -23.3151   20.0405 H   0  0  0  0  0  0
  -27.6577  -24.7501   18.7474 H   0  0  0  0  0  0
  -29.2828  -24.7651   19.1840 H   0  0  0  0  0  0
  -28.7953  -23.5423   21.3807 H   0  0  0  0  0  0
  -28.8077  -15.7924   19.8247 H   0  0  0  0  0  0
  1 25  1  0  0  0
  1 30  2  0  0  0
  1 81  1  0  0  0
  2  3  1  0  0  0
  2 25  1  0  0  0
  2 85  1  0  0  0
  2 86  1  0  0  0
  3  4  1  0  0  0
  3 87  1  0  0  0
  3 88  1  0  0  0
  4  5  1  0  0  0
  4 89  1  0  0  0
  4 90  1  0  0  0
  5  6  1  0  0  0
  5 26  1  0  0  0
  5 91  1  0  0  0
  6 25  1  0  0  0
  6 92  1  0  0  0
  6 93  1  0  0  0
  7  8  2  0  0  0
  7 26  1  0  0  0
  7 29  1  0  0  0
  8  9  1  0  0  0
  8 22  1  0  0  0
  9 10  1  0  0  0
  9 27  2  0  0  0
 10 11  2  0  0  0
 10 15  1  0  0  0
 11 12  1  0  0  0
 11 94  1  0  0  0
 12 13  2  0  0  0
 12 95  1  0  0  0
 13 14  1  0  0  0
 13 31  1  0  0  0
 14 15  2  0  0  0
 14 96  1  0  0  0
 15 97  1  0  0  0
 16 17  2  0  0  0
 16 21  1  0  0  0
 16 31  1  0  0  0
 17 18  1  0  0  0
 17 98  1  0  0  0
 18 19  2  0  0  0
 18 99  1  0  0  0
 19 20  1  0  0  0
 19 24  1  0  0  0
 20 21  2  0  0  0
 20100  1  0  0  0
 21 23  1  0  0  0
 22 28  1  0  0  0
 22 32  2  0  0  0
 26 27  1  0  0  0
 28101  1  0  0  0
 28102  1  0  0  0
 29103  1  0  0  0
 29104  1  0  0  0
 33 34  1  0  0  0
 33 66  1  0  0  0
 33 70  2  0  0  0
 34 36  1  0  0  0
 34 59  1  0  0  0
 34105  1  0  0  0
 35 44  2  0  0  0
 35 45  1  0  0  0
 35 68  1  0  0  0
 36 56  1  0  0  0
 36106  1  0  0  0
 37 39  1  0  0  0
 37 47  1  0  0  0
 37 66  1  0  0  0
 37107  1  0  0  0
 38 43  2  0  0  0
 38 46  1  0  0  0
 38 47  1  0  0  0
 39 64  1  0  0  0
 39 67  2  0  0  0
 40 52  1  0  0  0
 40 53  2  0  0  0
 40 58  1  0  0  0
 41108  1  0  0  0
 41109  1  0  0  0
 41110  1  0  0  0
 41 48  1  0  0  0
 42 43  1  0  0  0
 42 66  1  0  0  0
 42111  1  0  0  0
 42112  1  0  0  0
 43 44  1  0  0  0
 44113  1  0  0  0
 45 46  2  0  0  0
 45114  1  0  0  0
 46115  1  0  0  0
 47116  1  0  0  0
 47117  1  0  0  0
 48 56  1  0  0  0
 48 65  1  0  0  0
 48118  1  0  0  0
 49 50  1  0  0  0
 49 53  1  0  0  0
 49 64  1  0  0  0
 49119  1  0  0  0
 50 51  1  0  0  0
 50120  1  0  0  0
 50121  1  0  0  0
 51 52  1  0  0  0
 51122  1  0  0  0
 51123  1  0  0  0
 52124  1  0  0  0
 52125  1  0  0  0
 53 54  1  0  0  0
 54 55  2  0  0  0
 54126  1  0  0  0
 55 57  1  0  0  0
 55127  1  0  0  0
 56 69  2  0  0  0
 57 58  2  0  0  0
 57128  1  0  0  0
 58129  1  0  0  0
 59 60  1  0  0  0
 59 61  1  0  0  0
 59 62  1  0  0  0
 60130  1  0  0  0
 60131  1  0  0  0
 60132  1  0  0  0
 61133  1  0  0  0
 61134  1  0  0  0
 61135  1  0  0  0
 62136  1  0  0  0
 62137  1  0  0  0
 62138  1  0  0  0
 63 65  1  0  0  0
 63139  1  0  0  0
 63140  1  0  0  0
 63141  1  0  0  0
 64142  1  0  0  0
 65143  1  0  0  0
 68 79  1  0  0  0
 71 72  2  0  0  0
 71 74  1  0  0  0
 71144  1  0  0  0
 72 75  1  0  0  0
 72145  1  0  0  0
 73 75  2  0  0  0
 73 76  1  0  0  0
 73146  1  0  0  0
 74 76  2  0  0  0
 74 77  1  0  0  0
 75 81  1  0  0  0
 76 84  1  0  0  0
 77147  1  0  0  0
 77148  1  0  0  0
 77149  1  0  0  0
 78150  1  0  0  0
 78151  1  0  0  0
 78152  1  0  0  0
 78 80  1  0  0  0
 79 80  1  0  0  0
 79153  1  0  0  0
 79154  1  0  0  0
 80 84  1  0  0  0
 80155  1  0  0  0
 81156  1  0  0  0
 82 84  2  0  0  0
 83 84  2  0  0  0
M  ISO  4   1 100  68 101  79 101  81 100
M  END
> <chiral flag>
0

> <version>
0

> <s_m_source_file>
/data/baiqing/PycharmProjects/Reinvent-master-3.2/result/LINK_invent/BTK/process_docking_weight1_custom_product_contain_oxygen_bond_distance_aromatic_linkinvent_7_9_3/rearranged_h_0065.sdf

> <i_m_source_file_index>
53

> <r_mmod_Potential_Energy-OPLS-2005>
378.194396972656

> <r_mmod_Stretch_Energy-OPLS-2005>
212.278610229492

> <r_mmod_Bend_Energy-OPLS-2005>
250.928314208984

> <r_mmod_Torsional_Energy-OPLS-2005>
251.959213256836

> <r_mmod_Improper_Torsional_Energy-OPLS-2005>
13.5300903320312

> <r_mmod_Van_der_Waal_Energy-OPLS-2005>
121.478248596191

> <r_mmod_Electrostatic_Energy-OPLS-2005>
-375.017456054688

> <r_mmod_Solvation_Energy-OPLS-2005>
-259.283111572266

> <b_mmod_Minimization_Converged-OPLS-2005>
0

> <r_mmod_RMS_Derivative-OPLS-2005>
8.02316379547119

$$$$
53
                    3D
 Structure written by MMmdl.
166175  0  0  1  0            999 V2000
  -30.6773  -14.4941   20.4252 C   0  0  0  0  0  0
  -30.4166  -12.2716   19.4418 C   0  0  0  0  0  0
  -29.4910  -12.4449   18.2176 C   0  0  0  0  0  0
  -28.0093  -12.3340   18.6285 C   0  0  0  0  0  0
  -27.6530  -13.1905   19.8736 C   0  0  2  0  0  0
  -28.7072  -13.0290   20.9972 C   0  0  0  0  0  0
  -25.2572  -13.8110   20.5707 C   0  0  0  0  0  0
  -24.1820  -13.0401   20.9209 C   0  0  0  0  0  0
  -24.6362  -11.6863   20.8790 C   0  0  0  0  0  0
  -23.9030  -10.4263   21.0447 C   0  0  0  0  0  0
  -24.3592   -9.4182   21.9215 C   0  0  0  0  0  0
  -23.6267   -8.2224   22.0785 C   0  0  0  0  0  0
  -22.4257   -8.0273   21.3560 C   0  0  0  0  0  0
  -21.9897   -9.0240   20.4663 C   0  0  0  0  0  0
  -22.7218  -10.2119   20.3076 C   0  0  0  0  0  0
  -21.6838   -6.0731   22.5275 C   0  0  0  0  0  0
  -21.4000   -6.5637   23.8208 C   0  0  0  0  0  0
  -21.3654   -5.6802   24.9178 C   0  0  0  0  0  0
  -21.6042   -4.3063   24.7230 C   0  0  0  0  0  0
  -21.8818   -3.8151   23.4349 C   0  0  0  0  0  0
  -21.9184   -4.6962   22.3400 C   0  0  0  0  0  0
  -22.7854  -13.5222   21.1845 C   0  0  0  0  0  0
  -22.1662   -4.2147   21.0979 F   0  0  0  0  0  0
  -21.5629   -3.4550   25.7737 F   0  0  0  0  0  0
  -30.0366  -13.2957   20.4251 N   0  0  0  0  0  0
  -26.2988  -12.9242   20.3426 N   0  0  0  0  0  0
  -25.9280  -11.6424   20.5849 N   0  0  0  0  0  0
  -22.0487  -12.8206   22.0387 N   0  0  0  0  0  0
  -25.4261  -15.1826   20.4072 N   0  0  0  0  0  0
  -31.8807  -14.6104   20.1913 O   0  0  0  0  0  0
  -21.6626   -6.8872   21.4237 O   0  0  0  0  0  0
  -22.3553  -14.5537   20.6700 O   0  0  0  0  0  0
  -24.6127  -31.8683   23.2115 C   0  0  0  0  0  0
  -25.9029  -32.4826   23.8399 C   0  0  1  0  0  0
  -27.2341  -27.4407   20.0959 C   0  0  0  0  0  0
  -25.5908  -33.8631   24.2333 N   0  0  0  0  0  0
  -23.3993  -30.4912   21.5532 C   0  0  2  0  0  0
  -24.8456  -28.9604   20.1141 C   0  0  0  0  0  0
  -22.7390  -29.4648   22.5011 C   0  0  0  0  0  0
  -18.0259  -28.1379   22.8496 C   0  0  0  0  0  0
  -24.1480  -36.7296   23.2633 C   0  0  0  0  0  0
  -25.9269  -30.8361   21.3635 C   0  0  0  0  0  0
  -26.0047  -29.4716   20.7103 C   0  0  0  0  0  0
  -27.2004  -28.7191   20.6970 C   0  0  0  0  0  0
  -26.0574  -26.9506   19.4792 C   0  0  0  0  0  0
  -24.8666  -27.7001   19.4943 C   0  0  0  0  0  0
  -23.6052  -29.8230   20.1679 C   0  0  0  0  0  0
  -25.4110  -36.3111   24.0329 C   0  0  1  0  0  0
  -20.5844  -28.3658   23.1342 C   0  0  2  0  0  0
  -20.6745  -26.9394   22.5439 C   0  0  0  0  0  0
  -19.5744  -26.6387   21.5210 C   0  0  0  0  0  0
  -18.1908  -26.7942   22.1587 C   0  0  0  0  0  0
  -19.1509  -28.8833   23.2913 C   0  0  0  0  0  0
  -18.9439  -30.1444   23.8914 C   0  0  0  0  0  0
  -17.6440  -30.6588   24.0567 C   0  0  0  0  0  0
  -25.9049  -34.9482   23.5127 C   0  0  0  0  0  0
  -16.5333  -29.9087   23.6338 C   0  0  0  0  0  0
  -16.7250  -28.6505   23.0359 C   0  0  0  0  0  0
  -26.4466  -31.6599   25.0719 C   0  0  0  0  0  0
  -25.3729  -31.3627   26.1444 C   0  0  0  0  0  0
  -27.0322  -30.3067   24.6067 C   0  0  0  0  0  0
  -27.6034  -32.4308   25.7507 C   0  0  0  0  0  0
  -27.5606  -37.1774   24.8431 C   0  0  0  0  0  0
  -21.4118  -29.3013   22.3748 N   0  0  0  0  0  0
  -26.4270  -37.3820   23.9445 N   0  0  0  0  0  0
  -24.6648  -31.0778   22.1017 N   0  0  0  0  0  0
  -23.4164  -28.8197   23.3057 O   0  0  0  0  0  0
  -28.4095  -26.7159   20.1365 O   0  0  0  0  0  0
  -26.5603  -34.8933   22.4681 O   0  0  0  0  0  0
  -23.5321  -32.1442   23.7512 O   0  0  0  0  0  0
  -31.2407  -18.8196   19.3968 C   0  0  0  0  0  0
  -31.3767  -20.1981   19.6427 C   0  0  0  0  0  0
  -29.4512  -20.1107   21.0873 C   0  0  0  0  0  0
  -30.1603  -18.0597   19.9160 C   0  0  0  0  0  0
  -29.3093  -18.7212   20.8544 C   0  0  0  0  0  0
  -30.4395  -20.8901   20.4415 C   0  0  0  0  0  0
  -30.7968  -24.6002   20.1774 C   0  0  0  0  0  0
  -31.3929  -23.1911   20.1719 C   0  0  0  0  0  0
  -29.1876  -23.0349   20.9421 C   0  0  0  0  0  0
  -29.4250  -24.5538   20.8165 C   0  0  2  0  0  0
  -28.1710  -18.0411   21.6031 C   0  0  0  0  0  0
  -30.7762  -16.3307   18.0905 C   0  0  0  0  0  0
  -28.4580  -16.7062   18.6587 C   0  0  0  0  0  0
  -28.3081  -25.2878   20.0406 C   0  0  0  0  0  0
  -29.8609  -16.6526   19.3111 C   0  0  0  0  0  0
  -30.4171  -22.3309   20.5462 N   0  0  0  0  0  0
  -29.8291  -15.5350   20.2917 N   0  0  0  0  0  0
  -31.3493  -25.6231   19.7506 O   0  0  0  0  0  0
  -32.5772  -22.9450   19.9025 O   0  0  0  0  0  0
  -31.4644  -12.3467   19.1429 H   0  0  0  0  0  0
  -30.2938  -11.2764   19.8723 H   0  0  0  0  0  0
  -29.7236  -11.6929   17.4631 H   0  0  0  0  0  0
  -29.6650  -13.4063   17.7414 H   0  0  0  0  0  0
  -27.8051  -11.2833   18.8357 H   0  0  0  0  0  0
  -27.3663  -12.6073   17.7911 H   0  0  0  0  0  0
  -27.6652  -14.2241   19.5487 H   0  0  0  0  0  0
  -28.6778  -12.0167   21.4049 H   0  0  0  0  0  0
  -28.4970  -13.6981   21.8336 H   0  0  0  0  0  0
  -25.2739   -9.5650   22.4776 H   0  0  0  0  0  0
  -23.9979   -7.4613   22.7510 H   0  0  0  0  0  0
  -21.0844   -8.8750   19.8957 H   0  0  0  0  0  0
  -22.3692  -10.9662   19.6178 H   0  0  0  0  0  0
  -21.1997   -7.6148   23.9706 H   0  0  0  0  0  0
  -21.1479   -6.0539   25.9077 H   0  0  0  0  0  0
  -22.0602   -2.7610   23.2851 H   0  0  0  0  0  0
  -22.4075  -11.9831   22.4723 H   0  0  0  0  0  0
  -21.1110  -13.1254   22.2619 H   0  0  0  0  0  0
  -24.6444  -15.8247   20.4884 H   0  0  0  0  0  0
  -26.2579  -15.6186   20.0347 H   0  0  0  0  0  0
  -26.7090  -32.5547   23.1158 H   0  0  0  0  0  0
  -25.0085  -33.9814   25.0491 H   0  0  0  0  0  0
  -22.6861  -31.3062   21.4146 H   0  0  0  0  0  0
  -23.3805  -35.9554   23.3185 H   0  0  0  0  0  0
  -24.3591  -36.9048   22.2070 H   0  0  0  0  0  0
  -23.7139  -37.6418   23.6738 H   0  0  0  0  0  0
  -26.0345  -31.6018   20.5940 H   0  0  0  0  0  0
  -26.8171  -30.8907   21.9787 H   0  0  0  0  0  0
  -28.0953  -29.1078   21.1627 H   0  0  0  0  0  0
  -26.0426  -25.9925   18.9800 H   0  0  0  0  0  0
  -23.9765  -27.3060   19.0235 H   0  0  0  0  0  0
  -23.7051  -30.5957   19.4054 H   0  0  0  0  0  0
  -22.7304  -29.2364   19.8792 H   0  0  0  0  0  0
  -25.1269  -36.1956   25.0815 H   0  0  0  0  0  0
  -20.9933  -28.3226   24.1461 H   0  0  0  0  0  0
  -20.5638  -26.2249   23.3614 H   0  0  0  0  0  0
  -21.6621  -26.7433   22.1257 H   0  0  0  0  0  0
  -19.6907  -25.6299   21.1238 H   0  0  0  0  0  0
  -19.6726  -27.3194   20.6745 H   0  0  0  0  0  0
  -17.4208  -26.6748   21.3946 H   0  0  0  0  0  0
  -18.0251  -26.0055   22.8943 H   0  0  0  0  0  0
  -19.7918  -30.7253   24.2292 H   0  0  0  0  0  0
  -17.4999  -31.6272   24.5163 H   0  0  0  0  0  0
  -15.5330  -30.2984   23.7667 H   0  0  0  0  0  0
  -15.8652  -28.0824   22.7071 H   0  0  0  0  0  0
  -24.6027  -30.6834   25.7776 H   0  0  0  0  0  0
  -24.8749  -32.2714   26.4817 H   0  0  0  0  0  0
  -25.8109  -30.8900   27.0244 H   0  0  0  0  0  0
  -26.2864  -29.6815   24.1144 H   0  0  0  0  0  0
  -27.4153  -29.7308   25.4502 H   0  0  0  0  0  0
  -27.8659  -30.4436   23.9179 H   0  0  0  0  0  0
  -27.2679  -33.3630   26.2069 H   0  0  0  0  0  0
  -28.3864  -32.6829   25.0345 H   0  0  0  0  0  0
  -28.0667  -31.8425   26.5439 H   0  0  0  0  0  0
  -28.2487  -38.0204   24.7706 H   0  0  0  0  0  0
  -28.1242  -36.2753   24.5985 H   0  0  0  0  0  0
  -27.2351  -37.1098   25.8826 H   0  0  0  0  0  0
  -20.9267  -29.8725   21.6968 H   0  0  0  0  0  0
  -26.0149  -38.2861   24.1595 H   0  0  0  0  0  0
  -31.9637  -18.3943   18.7198 H   0  0  0  0  0  0
  -32.1790  -20.7084   19.1311 H   0  0  0  0  0  0
  -28.7398  -20.5841   21.7488 H   0  0  0  0  0  0
  -28.3649  -22.7059   20.3050 H   0  0  0  0  0  0
  -28.9275  -22.7913   21.9724 H   0  0  0  0  0  0
  -29.5113  -24.9790   21.8164 H   0  0  0  0  0  0
  -28.1260  -18.4103   22.6286 H   0  0  0  0  0  0
  -28.2692  -16.9618   21.6699 H   0  0  0  0  0  0
  -27.2141  -18.2764   21.1358 H   0  0  0  0  0  0
  -30.6752  -17.0834   17.3063 H   0  0  0  0  0  0
  -30.5243  -15.3812   17.6236 H   0  0  0  0  0  0
  -31.8329  -16.2752   18.3496 H   0  0  0  0  0  0
  -28.3866  -17.5265   17.9430 H   0  0  0  0  0  0
  -27.6490  -16.8457   19.3694 H   0  0  0  0  0  0
  -28.2326  -15.7962   18.1013 H   0  0  0  0  0  0
  -27.3663  -24.9459   20.4734 H   0  0  0  0  0  0
  -28.3037  -24.9924   18.9902 H   0  0  0  0  0  0
  -28.9023  -15.3107   20.6120 H   0  0  0  0  0  0
  1 25  1  0  0  0
  1 30  2  0  0  0
  1 87  1  0  0  0
  2  3  1  0  0  0
  2 25  1  0  0  0
  2 90  1  0  0  0
  2 91  1  0  0  0
  3  4  1  0  0  0
  3 92  1  0  0  0
  3 93  1  0  0  0
  4  5  1  0  0  0
  4 94  1  0  0  0
  4 95  1  0  0  0
  5  6  1  0  0  0
  5 26  1  0  0  0
  5 96  1  0  0  0
  6 25  1  0  0  0
  6 97  1  0  0  0
  6 98  1  0  0  0
  7  8  2  0  0  0
  7 26  1  0  0  0
  7 29  1  0  0  0
  8  9  1  0  0  0
  8 22  1  0  0  0
  9 10  1  0  0  0
  9 27  2  0  0  0
 10 11  2  0  0  0
 10 15  1  0  0  0
 11 12  1  0  0  0
 11 99  1  0  0  0
 12 13  2  0  0  0
 12100  1  0  0  0
 13 14  1  0  0  0
 13 31  1  0  0  0
 14 15  2  0  0  0
 14101  1  0  0  0
 15102  1  0  0  0
 16 17  2  0  0  0
 16 21  1  0  0  0
 16 31  1  0  0  0
 17 18  1  0  0  0
 17103  1  0  0  0
 18 19  2  0  0  0
 18104  1  0  0  0
 19 20  1  0  0  0
 19 24  1  0  0  0
 20 21  2  0  0  0
 20105  1  0  0  0
 21 23  1  0  0  0
 22 28  1  0  0  0
 22 32  2  0  0  0
 26 27  1  0  0  0
 28106  1  0  0  0
 28107  1  0  0  0
 29108  1  0  0  0
 29109  1  0  0  0
 33 34  1  0  0  0
 33 66  1  0  0  0
 33 70  2  0  0  0
 34 36  1  0  0  0
 34 59  1  0  0  0
 34110  1  0  0  0
 35 44  2  0  0  0
 35 45  1  0  0  0
 35 68  1  0  0  0
 36 56  1  0  0  0
 36111  1  0  0  0
 37 39  1  0  0  0
 37 47  1  0  0  0
 37 66  1  0  0  0
 37112  1  0  0  0
 38 43  2  0  0  0
 38 46  1  0  0  0
 38 47  1  0  0  0
 39 64  1  0  0  0
 39 67  2  0  0  0
 40 52  1  0  0  0
 40 53  2  0  0  0
 40 58  1  0  0  0
 41113  1  0  0  0
 41114  1  0  0  0
 41115  1  0  0  0
 41 48  1  0  0  0
 42 43  1  0  0  0
 42 66  1  0  0  0
 42116  1  0  0  0
 42117  1  0  0  0
 43 44  1  0  0  0
 44118  1  0  0  0
 45 46  2  0  0  0
 45119  1  0  0  0
 46120  1  0  0  0
 47121  1  0  0  0
 47122  1  0  0  0
 48 56  1  0  0  0
 48 65  1  0  0  0
 48123  1  0  0  0
 49 50  1  0  0  0
 49 53  1  0  0  0
 49 64  1  0  0  0
 49124  1  0  0  0
 50 51  1  0  0  0
 50125  1  0  0  0
 50126  1  0  0  0
 51 52  1  0  0  0
 51127  1  0  0  0
 51128  1  0  0  0
 52129  1  0  0  0
 52130  1  0  0  0
 53 54  1  0  0  0
 54 55  2  0  0  0
 54131  1  0  0  0
 55 57  1  0  0  0
 55132  1  0  0  0
 56 69  2  0  0  0
 57 58  2  0  0  0
 57133  1  0  0  0
 58134  1  0  0  0
 59 60  1  0  0  0
 59 61  1  0  0  0
 59 62  1  0  0  0
 60135  1  0  0  0
 60136  1  0  0  0
 60137  1  0  0  0
 61138  1  0  0  0
 61139  1  0  0  0
 61140  1  0  0  0
 62141  1  0  0  0
 62142  1  0  0  0
 62143  1  0  0  0
 63 65  1  0  0  0
 63144  1  0  0  0
 63145  1  0  0  0
 63146  1  0  0  0
 64147  1  0  0  0
 65148  1  0  0  0
 68 84  1  0  0  0
 71 72  2  0  0  0
 71 74  1  0  0  0
 71149  1  0  0  0
 72 76  1  0  0  0
 72150  1  0  0  0
 73 75  1  0  0  0
 73 76  2  0  0  0
 73151  1  0  0  0
 74 75  2  0  0  0
 74 85  1  0  0  0
 75 81  1  0  0  0
 76 86  1  0  0  0
 77 78  1  0  0  0
 77 80  1  0  0  0
 77 88  2  0  0  0
 78 86  1  0  0  0
 78 89  2  0  0  0
 79 80  1  0  0  0
 79 86  1  0  0  0
 79152  1  0  0  0
 79153  1  0  0  0
 80 84  1  0  0  0
 80154  1  0  0  0
 81155  1  0  0  0
 81156  1  0  0  0
 81157  1  0  0  0
 82158  1  0  0  0
 82159  1  0  0  0
 82160  1  0  0  0
 82 85  1  0  0  0
 83 85  1  0  0  0
 83161  1  0  0  0
 83162  1  0  0  0
 83163  1  0  0  0
 84164  1  0  0  0
 84165  1  0  0  0
 85 87  1  0  0  0
 87166  1  0  0  0
M  ISO  4   1 100  68 101  84 101  87 100
M  END
> <chiral flag>
0

> <version>
0

> <s_m_source_file>
/data/baiqing/PycharmProjects/Reinvent-master-3.2/result/LINK_invent/BTK/process_docking_weight1_custom_product_contain_oxygen_bond_distance_aromatic_linkinvent_7_9_3/rearranged_h_0065.sdf

> <i_m_source_file_index>
54

> <r_mmod_Potential_Energy-OPLS-2005>
100.599220275879

> <r_mmod_Stretch_Energy-OPLS-2005>
46.2269592285156

> <r_mmod_Bend_Energy-OPLS-2005>
144.25813293457

> <r_mmod_Torsional_Energy-OPLS-2005>
270.987243652344

> <r_mmod_Improper_Torsional_Energy-OPLS-2005>
15.0949382781982

> <r_mmod_Van_der_Waal_Energy-OPLS-2005>
174.10578918457

> <r_mmod_Electrostatic_Energy-OPLS-2005>
-323.106964111328

> <r_mmod_Solvation_Energy-OPLS-2005>
-249.9755859375

> <b_mmod_Minimization_Converged-OPLS-2005>
0

> <r_mmod_RMS_Derivative-OPLS-2005>
2.15815377235413

$$$$
54
                    3D
 Structure written by MMmdl.
157166  0  0  1  0            999 V2000
  -30.5939  -14.7499   20.4621 C   0  0  0  0  0  0
  -30.4354  -12.4609   19.4610 C   0  0  0  0  0  0
  -29.5091  -12.5083   18.2267 C   0  0  0  0  0  0
  -28.0350  -12.3298   18.6420 C   0  0  0  0  0  0
  -27.6393  -13.2270   19.8454 C   0  0  2  0  0  0
  -28.6856  -13.1595   20.9774 C   0  0  0  0  0  0
  -25.2520  -13.8190   20.5690 C   0  0  0  0  0  0
  -24.1807  -13.0440   20.9200 C   0  0  0  0  0  0
  -24.6387  -11.6917   20.8739 C   0  0  0  0  0  0
  -23.9064  -10.4296   21.0407 C   0  0  0  0  0  0
  -24.3620   -9.4210   21.9181 C   0  0  0  0  0  0
  -23.6291   -8.2249   22.0758 C   0  0  0  0  0  0
  -22.4273   -8.0285   21.3552 C   0  0  0  0  0  0
  -21.9908   -9.0256   20.4655 C   0  0  0  0  0  0
  -22.7236  -10.2132   20.3061 C   0  0  0  0  0  0
  -21.6855   -6.0732   22.5274 C   0  0  0  0  0  0
  -21.4017   -6.5637   23.8206 C   0  0  0  0  0  0
  -21.3664   -5.6791   24.9170 C   0  0  0  0  0  0
  -21.6048   -4.3053   24.7219 C   0  0  0  0  0  0
  -21.8825   -3.8145   23.4341 C   0  0  0  0  0  0
  -21.9196   -4.6961   22.3397 C   0  0  0  0  0  0
  -22.7832  -13.5227   21.1861 C   0  0  0  0  0  0
  -22.1670   -4.2149   21.0976 F   0  0  0  0  0  0
  -21.5627   -3.4536   25.7730 F   0  0  0  0  0  0
  -29.9799  -13.5206   20.3875 N   0  0  0  0  0  0
  -26.2928  -12.9381   20.3252 N   0  0  0  0  0  0
  -25.9310  -11.6530   20.5728 N   0  0  0  0  0  0
  -22.0484  -12.8215   22.0417 N   0  0  0  0  0  0
  -25.4209  -15.1917   20.4111 N   0  0  0  0  0  0
  -31.7973  -14.8476   20.2021 O   0  0  0  0  0  0
  -21.6646   -6.8875   21.4238 O   0  0  0  0  0  0
  -22.3520  -14.5534   20.6705 O   0  0  0  0  0  0
  -24.6311  -31.8532   23.1957 C   0  0  0  0  0  0
  -25.9133  -32.4741   23.8309 C   0  0  1  0  0  0
  -27.2232  -27.2616   20.1430 C   0  0  0  0  0  0
  -25.5926  -33.8541   24.2240 N   0  0  0  0  0  0
  -23.4280  -30.4726   21.5394 C   0  0  2  0  0  0
  -24.8757  -28.9082   20.1185 C   0  0  0  0  0  0
  -22.7494  -29.4592   22.4922 C   0  0  0  0  0  0
  -18.0291  -28.1390   22.8480 C   0  0  0  0  0  0
  -24.1492  -36.7281   23.2643 C   0  0  0  0  0  0
  -25.9713  -30.7681   21.3721 C   0  0  0  0  0  0
  -26.0458  -29.3866   20.7224 C   0  0  0  0  0  0
  -27.2262  -28.5777   20.7144 C   0  0  0  0  0  0
  -26.0304  -26.8351   19.5274 C   0  0  0  0  0  0
  -24.8721  -27.6411   19.5097 C   0  0  0  0  0  0
  -23.6465  -29.7968   20.1590 C   0  0  0  0  0  0
  -25.4121  -36.3063   24.0324 C   0  0  1  0  0  0
  -20.5888  -28.3700   23.1280 C   0  0  2  0  0  0
  -20.6777  -26.9420   22.5417 C   0  0  0  0  0  0
  -19.5763  -26.6389   21.5211 C   0  0  0  0  0  0
  -18.1938  -26.7936   22.1609 C   0  0  0  0  0  0
  -19.1542  -28.8864   23.2873 C   0  0  0  0  0  0
  -18.9458  -30.1463   23.8894 C   0  0  0  0  0  0
  -17.6458  -30.6593   24.0561 C   0  0  0  0  0  0
  -25.9057  -34.9432   23.5089 C   0  0  0  0  0  0
  -16.5352  -29.9087   23.6330 C   0  0  0  0  0  0
  -16.7277  -28.6503   23.0355 C   0  0  0  0  0  0
  -26.4506  -31.6569   25.0701 C   0  0  0  0  0  0
  -25.3731  -31.3697   26.1419 C   0  0  0  0  0  0
  -27.0361  -30.2995   24.6178 C   0  0  0  0  0  0
  -27.6060  -32.4312   25.7481 C   0  0  0  0  0  0
  -27.5585  -37.1797   24.8459 C   0  0  0  0  0  0
  -21.4202  -29.3040   22.3665 N   0  0  0  0  0  0
  -26.4292  -37.3766   23.9408 N   0  0  0  0  0  0
  -24.6958  -31.0501   22.0925 N   0  0  0  0  0  0
  -23.4192  -28.8142   23.3032 O   0  0  0  0  0  0
  -28.3437  -26.4091   20.1085 O   0  0  0  0  0  0
  -26.5632  -34.8911   22.4659 O   0  0  0  0  0  0
  -23.5464  -32.1346   23.7268 O   0  0  0  0  0  0
  -31.4660  -18.9509   22.0032 C   0  0  0  0  0  0
  -30.7483  -20.0387   21.4663 C   0  0  0  0  0  0
  -31.1579  -17.6185   21.6649 C   0  0  0  0  0  0
  -29.3524  -18.4544   20.2642 C   0  0  0  0  0  0
  -29.6730  -19.8553   20.5647 C   0  0  0  0  0  0
  -30.0962  -17.3101   20.7885 C   0  0  0  0  0  0
  -29.1006  -21.1372   18.5603 C   0  0  0  0  0  0
  -28.7198  -22.2589   20.6328 C   0  0  0  0  0  0
  -28.7384  -22.4202   17.7859 C   0  0  0  0  0  0
  -28.9951  -23.7108   18.5772 C   0  0  0  0  0  0
  -28.2685  -23.6356   19.9157 C   0  0  2  0  0  0
  -28.3163  -25.0413   20.7335 C   0  0  0  0  0  0
  -29.0880  -21.0947   19.9277 N   0  0  0  0  0  0
  -29.7803  -15.8773   20.5436 N   0  0  0  0  0  0
  -29.3944  -20.1580   17.8631 O   0  0  0  0  0  0
  -28.6886  -22.2555   21.8685 O   0  0  0  0  0  0
  -31.4743  -12.5980   19.1567 H   0  0  0  0  0  0
  -30.3887  -11.4835   19.9433 H   0  0  0  0  0  0
  -29.7923  -11.7364   17.5098 H   0  0  0  0  0  0
  -29.6309  -13.4632   17.7132 H   0  0  0  0  0  0
  -27.8923  -11.2803   18.9012 H   0  0  0  0  0  0
  -27.3783  -12.5270   17.7936 H   0  0  0  0  0  0
  -27.6302  -14.2471   19.4628 H   0  0  0  0  0  0
  -28.7275  -12.1600   21.4128 H   0  0  0  0  0  0
  -28.4229  -13.8382   21.7909 H   0  0  0  0  0  0
  -25.2771   -9.5679   22.4748 H   0  0  0  0  0  0
  -24.0003   -7.4642   22.7475 H   0  0  0  0  0  0
  -21.0846   -8.8771   19.8952 H   0  0  0  0  0  0
  -22.3703  -10.9670   19.6165 H   0  0  0  0  0  0
  -21.2014   -7.6146   23.9703 H   0  0  0  0  0  0
  -21.1480   -6.0525   25.9069 H   0  0  0  0  0  0
  -22.0599   -2.7607   23.2837 H   0  0  0  0  0  0
  -22.4111  -11.9874   22.4794 H   0  0  0  0  0  0
  -21.1104  -13.1232   22.2631 H   0  0  0  0  0  0
  -24.6510  -15.8426   20.5225 H   0  0  0  0  0  0
  -26.2612  -15.6338   20.0630 H   0  0  0  0  0  0
  -26.7197  -32.5399   23.1048 H   0  0  0  0  0  0
  -25.0070  -33.9664   25.0385 H   0  0  0  0  0  0
  -22.7248  -31.2940   21.3885 H   0  0  0  0  0  0
  -23.3758  -35.9608   23.3291 H   0  0  0  0  0  0
  -24.3581  -36.8922   22.2059 H   0  0  0  0  0  0
  -23.7240  -37.6474   23.6681 H   0  0  0  0  0  0
  -26.1053  -31.5254   20.5989 H   0  0  0  0  0  0
  -26.8505  -30.8228   22.0024 H   0  0  0  0  0  0
  -28.1323  -28.9453   21.1752 H   0  0  0  0  0  0
  -25.9936  -25.8619   19.0582 H   0  0  0  0  0  0
  -23.9748  -27.2705   19.0331 H   0  0  0  0  0  0
  -23.7703  -30.5672   19.3968 H   0  0  0  0  0  0
  -22.7654  -29.2267   19.8582 H   0  0  0  0  0  0
  -25.1314  -36.1898   25.0817 H   0  0  0  0  0  0
  -20.9976  -28.3279   24.1403 H   0  0  0  0  0  0
  -20.5677  -26.2310   23.3619 H   0  0  0  0  0  0
  -21.6650  -26.7447   22.1220 H   0  0  0  0  0  0
  -19.6929  -25.6298   21.1253 H   0  0  0  0  0  0
  -19.6713  -27.3189   20.6735 H   0  0  0  0  0  0
  -17.4215  -26.6691   21.4003 H   0  0  0  0  0  0
  -18.0329  -26.0081   22.9007 H   0  0  0  0  0  0
  -19.7930  -30.7278   24.2273 H   0  0  0  0  0  0
  -17.5008  -31.6271   24.5165 H   0  0  0  0  0  0
  -15.5352  -30.2983   23.7663 H   0  0  0  0  0  0
  -15.8675  -28.0817   22.7081 H   0  0  0  0  0  0
  -24.5915  -30.7043   25.7731 H   0  0  0  0  0  0
  -24.8910  -32.2855   26.4851 H   0  0  0  0  0  0
  -25.8048  -30.8862   27.0190 H   0  0  0  0  0  0
  -26.2935  -29.6728   24.1224 H   0  0  0  0  0  0
  -27.4079  -29.7272   25.4687 H   0  0  0  0  0  0
  -27.8798  -30.4285   23.9392 H   0  0  0  0  0  0
  -27.2662  -33.3603   26.2069 H   0  0  0  0  0  0
  -28.3865  -32.6884   25.0308 H   0  0  0  0  0  0
  -28.0736  -31.8429   26.5386 H   0  0  0  0  0  0
  -28.2593  -38.0105   24.7527 H   0  0  0  0  0  0
  -28.1096  -36.2639   24.6265 H   0  0  0  0  0  0
  -27.2306  -37.1418   25.8862 H   0  0  0  0  0  0
  -20.9397  -29.8728   21.6832 H   0  0  0  0  0  0
  -26.0170  -38.2837   24.1412 H   0  0  0  0  0  0
  -32.2838  -19.1462   22.6827 H   0  0  0  0  0  0
  -31.0677  -21.0356   21.7379 H   0  0  0  0  0  0
  -31.7437  -16.8269   22.1107 H   0  0  0  0  0  0
  -28.5388  -18.2533   19.5812 H   0  0  0  0  0  0
  -27.6869  -22.3545   17.5038 H   0  0  0  0  0  0
  -29.3064  -22.4460   16.8552 H   0  0  0  0  0  0
  -28.6432  -24.5703   18.0057 H   0  0  0  0  0  0
  -30.0649  -23.8569   18.7351 H   0  0  0  0  0  0
  -27.2128  -23.4900   19.6835 H   0  0  0  0  0  0
  -29.2223  -25.0089   21.3392 H   0  0  0  0  0  0
  -27.5084  -25.0284   21.4665 H   0  0  0  0  0  0
  -28.7976  -15.6675   20.4667 H   0  0  0  0  0  0
  1 25  1  0  0  0
  1 30  2  0  0  0
  1 84  1  0  0  0
  2  3  1  0  0  0
  2 25  1  0  0  0
  2 87  1  0  0  0
  2 88  1  0  0  0
  3  4  1  0  0  0
  3 89  1  0  0  0
  3 90  1  0  0  0
  4  5  1  0  0  0
  4 91  1  0  0  0
  4 92  1  0  0  0
  5  6  1  0  0  0
  5 26  1  0  0  0
  5 93  1  0  0  0
  6 25  1  0  0  0
  6 94  1  0  0  0
  6 95  1  0  0  0
  7  8  2  0  0  0
  7 26  1  0  0  0
  7 29  1  0  0  0
  8  9  1  0  0  0
  8 22  1  0  0  0
  9 10  1  0  0  0
  9 27  2  0  0  0
 10 11  2  0  0  0
 10 15  1  0  0  0
 11 12  1  0  0  0
 11 96  1  0  0  0
 12 13  2  0  0  0
 12 97  1  0  0  0
 13 14  1  0  0  0
 13 31  1  0  0  0
 14 15  2  0  0  0
 14 98  1  0  0  0
 15 99  1  0  0  0
 16 17  2  0  0  0
 16 21  1  0  0  0
 16 31  1  0  0  0
 17 18  1  0  0  0
 17100  1  0  0  0
 18 19  2  0  0  0
 18101  1  0  0  0
 19 20  1  0  0  0
 19 24  1  0  0  0
 20 21  2  0  0  0
 20102  1  0  0  0
 21 23  1  0  0  0
 22 28  1  0  0  0
 22 32  2  0  0  0
 26 27  1  0  0  0
 28103  1  0  0  0
 28104  1  0  0  0
 29105  1  0  0  0
 29106  1  0  0  0
 33 34  1  0  0  0
 33 66  1  0  0  0
 33 70  2  0  0  0
 34 36  1  0  0  0
 34 59  1  0  0  0
 34107  1  0  0  0
 35 44  2  0  0  0
 35 45  1  0  0  0
 35 68  1  0  0  0
 36 56  1  0  0  0
 36108  1  0  0  0
 37 39  1  0  0  0
 37 47  1  0  0  0
 37 66  1  0  0  0
 37109  1  0  0  0
 38 43  2  0  0  0
 38 46  1  0  0  0
 38 47  1  0  0  0
 39 64  1  0  0  0
 39 67  2  0  0  0
 40 52  1  0  0  0
 40 53  2  0  0  0
 40 58  1  0  0  0
 41110  1  0  0  0
 41111  1  0  0  0
 41112  1  0  0  0
 41 48  1  0  0  0
 42 43  1  0  0  0
 42 66  1  0  0  0
 42113  1  0  0  0
 42114  1  0  0  0
 43 44  1  0  0  0
 44115  1  0  0  0
 45 46  2  0  0  0
 45116  1  0  0  0
 46117  1  0  0  0
 47118  1  0  0  0
 47119  1  0  0  0
 48 56  1  0  0  0
 48 65  1  0  0  0
 48120  1  0  0  0
 49 50  1  0  0  0
 49 53  1  0  0  0
 49 64  1  0  0  0
 49121  1  0  0  0
 50 51  1  0  0  0
 50122  1  0  0  0
 50123  1  0  0  0
 51 52  1  0  0  0
 51124  1  0  0  0
 51125  1  0  0  0
 52126  1  0  0  0
 52127  1  0  0  0
 53 54  1  0  0  0
 54 55  2  0  0  0
 54128  1  0  0  0
 55 57  1  0  0  0
 55129  1  0  0  0
 56 69  2  0  0  0
 57 58  2  0  0  0
 57130  1  0  0  0
 58131  1  0  0  0
 59 60  1  0  0  0
 59 61  1  0  0  0
 59 62  1  0  0  0
 60132  1  0  0  0
 60133  1  0  0  0
 60134  1  0  0  0
 61135  1  0  0  0
 61136  1  0  0  0
 61137  1  0  0  0
 62138  1  0  0  0
 62139  1  0  0  0
 62140  1  0  0  0
 63 65  1  0  0  0
 63141  1  0  0  0
 63142  1  0  0  0
 63143  1  0  0  0
 64144  1  0  0  0
 65145  1  0  0  0
 68 82  1  0  0  0
 71 72  2  0  0  0
 71 73  1  0  0  0
 71146  1  0  0  0
 72 75  1  0  0  0
 72147  1  0  0  0
 73 76  2  0  0  0
 73148  1  0  0  0
 74 75  2  0  0  0
 74 76  1  0  0  0
 74149  1  0  0  0
 75 83  1  0  0  0
 76 84  1  0  0  0
 77 79  1  0  0  0
 77 83  1  0  0  0
 77 85  2  0  0  0
 78 81  1  0  0  0
 78 83  1  0  0  0
 78 86  2  0  0  0
 79 80  1  0  0  0
 79150  1  0  0  0
 79151  1  0  0  0
 80 81  1  0  0  0
 80152  1  0  0  0
 80153  1  0  0  0
 81 82  1  0  0  0
 81154  1  0  0  0
 82155  1  0  0  0
 82156  1  0  0  0
 84157  1  0  0  0
M  ISO  4   1 100  68 101  82 101  84 100
M  END
> <chiral flag>
0

> <version>
0

> <s_m_source_file>
/data/baiqing/PycharmProjects/Reinvent-master-3.2/result/LINK_invent/BTK/process_docking_weight1_custom_product_contain_oxygen_bond_distance_aromatic_linkinvent_7_9_3/rearranged_h_0065.sdf

> <i_m_source_file_index>
55

> <r_mmod_Potential_Energy-OPLS-2005>
269.860107421875

> <r_mmod_Stretch_Energy-OPLS-2005>
142.222579956055

> <r_mmod_Bend_Energy-OPLS-2005>
172.74626159668

> <r_mmod_Torsional_Energy-OPLS-2005>
288.926574707031

> <r_mmod_Improper_Torsional_Energy-OPLS-2005>
7.87729978561401

> <r_mmod_Van_der_Waal_Energy-OPLS-2005>
152.12434387207

> <r_mmod_Electrostatic_Energy-OPLS-2005>
-337.301849365234

> <r_mmod_Solvation_Energy-OPLS-2005>
-239.994064331055

> <b_mmod_Minimization_Converged-OPLS-2005>
0

> <r_mmod_RMS_Derivative-OPLS-2005>
0.933505415916443

$$$$
55
                    3D
 Structure written by MMmdl.
157165  0  0  1  0            999 V2000
  -30.6393  -14.7551   20.4536 C   0  0  0  0  0  0
  -30.4281  -12.4559   19.4829 C   0  0  0  0  0  0
  -29.5114  -12.5084   18.2407 C   0  0  0  0  0  0
  -28.0378  -12.3324   18.6565 C   0  0  0  0  0  0
  -27.6429  -13.2376   19.8537 C   0  0  2  0  0  0
  -28.6896  -13.1915   20.9889 C   0  0  0  0  0  0
  -25.2505  -13.8212   20.5726 C   0  0  0  0  0  0
  -24.1798  -13.0438   20.9221 C   0  0  0  0  0  0
  -24.6408  -11.6919   20.8743 C   0  0  0  0  0  0
  -23.9067  -10.4288   21.0383 C   0  0  0  0  0  0
  -24.3611   -9.4220   21.9176 C   0  0  0  0  0  0
  -23.6292   -8.2248   22.0750 C   0  0  0  0  0  0
  -22.4275   -8.0271   21.3535 C   0  0  0  0  0  0
  -21.9901   -9.0245   20.4642 C   0  0  0  0  0  0
  -22.7232  -10.2131   20.3040 C   0  0  0  0  0  0
  -21.6853   -6.0729   22.5274 C   0  0  0  0  0  0
  -21.4028   -6.5631   23.8217 C   0  0  0  0  0  0
  -21.3661   -5.6780   24.9174 C   0  0  0  0  0  0
  -21.6039   -4.3040   24.7221 C   0  0  0  0  0  0
  -21.8822   -3.8138   23.4342 C   0  0  0  0  0  0
  -21.9206   -4.6953   22.3406 C   0  0  0  0  0  0
  -22.7821  -13.5214   21.1857 C   0  0  0  0  0  0
  -22.1666   -4.2126   21.0981 F   0  0  0  0  0  0
  -21.5625   -3.4533   25.7744 F   0  0  0  0  0  0
  -29.9912  -13.5374   20.4019 N   0  0  0  0  0  0
  -26.2950  -12.9439   20.3318 N   0  0  0  0  0  0
  -25.9343  -11.6571   20.5758 N   0  0  0  0  0  0
  -22.0469  -12.8213   22.0423 N   0  0  0  0  0  0
  -25.4177  -15.1943   20.4149 N   0  0  0  0  0  0
  -31.8292  -14.7972   20.1328 O   0  0  0  0  0  0
  -21.6646   -6.8870   21.4227 O   0  0  0  0  0  0
  -22.3512  -14.5528   20.6717 O   0  0  0  0  0  0
  -24.6306  -31.8544   23.1926 C   0  0  0  0  0  0
  -25.9121  -32.4760   23.8294 C   0  0  1  0  0  0
  -27.2217  -27.2611   20.1277 C   0  0  0  0  0  0
  -25.5965  -33.8555   24.2293 N   0  0  0  0  0  0
  -23.4246  -30.4784   21.5349 C   0  0  2  0  0  0
  -24.8709  -28.9167   20.1104 C   0  0  0  0  0  0
  -22.7492  -29.4610   22.4856 C   0  0  0  0  0  0
  -18.0307  -28.1399   22.8498 C   0  0  0  0  0  0
  -24.1498  -36.7272   23.2651 C   0  0  0  0  0  0
  -25.9666  -30.7723   21.3628 C   0  0  0  0  0  0
  -26.0402  -29.3899   20.7147 C   0  0  0  0  0  0
  -27.2130  -28.5728   20.7132 C   0  0  0  0  0  0
  -26.0240  -26.8414   19.5062 C   0  0  0  0  0  0
  -24.8668  -27.6508   19.5013 C   0  0  0  0  0  0
  -23.6434  -29.8086   20.1521 C   0  0  0  0  0  0
  -25.4121  -36.3078   24.0353 C   0  0  1  0  0  0
  -20.5911  -28.3700   23.1245 C   0  0  2  0  0  0
  -20.6777  -26.9402   22.5390 C   0  0  0  0  0  0
  -19.5768  -26.6382   21.5194 C   0  0  0  0  0  0
  -18.1946  -26.7960   22.1598 C   0  0  0  0  0  0
  -19.1564  -28.8851   23.2890 C   0  0  0  0  0  0
  -18.9505  -30.1459   23.8888 C   0  0  0  0  0  0
  -17.6512  -30.6578   24.0567 C   0  0  0  0  0  0
  -25.9056  -34.9435   23.5115 C   0  0  0  0  0  0
  -16.5383  -29.9092   23.6353 C   0  0  0  0  0  0
  -16.7298  -28.6524   23.0337 C   0  0  0  0  0  0
  -26.4495  -31.6568   25.0677 C   0  0  0  0  0  0
  -25.3725  -31.3697   26.1410 C   0  0  0  0  0  0
  -27.0322  -30.3008   24.6089 C   0  0  0  0  0  0
  -27.6104  -32.4222   25.7466 C   0  0  0  0  0  0
  -27.5577  -37.1772   24.8497 C   0  0  0  0  0  0
  -21.4193  -29.3069   22.3630 N   0  0  0  0  0  0
  -26.4298  -37.3791   23.9445 N   0  0  0  0  0  0
  -24.6938  -31.0524   22.0887 N   0  0  0  0  0  0
  -23.4198  -28.8110   23.2923 O   0  0  0  0  0  0
  -28.3551  -26.4211   20.2021 O   0  0  0  0  0  0
  -26.5593  -34.8901   22.4669 O   0  0  0  0  0  0
  -23.5447  -32.1334   23.7239 O   0  0  0  0  0  0
  -31.8794  -19.1574   20.0000 C   0  0  0  0  0  0
  -30.9244  -20.1763   20.1842 C   0  0  0  0  0  0
  -31.5516  -17.7955   20.1624 C   0  0  0  0  0  0
  -29.5873  -19.8747   20.5230 C   0  0  0  0  0  0
  -30.2406  -17.3725   20.5064 C   0  0  0  0  0  0
  -29.2712  -18.4490   20.6806 C   0  0  0  0  0  0
  -28.6222  -21.0654   20.8445 C   0  0  0  0  0  0
  -26.6776  -23.6455   20.9324 C   0  0  0  0  0  0
  -28.8812  -24.0864   22.0670 C   0  0  0  0  0  0
  -28.4373  -24.9886   19.7365 C   0  0  0  0  0  0
  -28.2065  -23.7226   20.7332 C   0  0  0  0  0  0
  -29.9040  -15.9201   20.6746 N   0  0  0  0  0  0
  -28.7938  -22.3486   20.3148 N   0  0  0  0  0  0
  -27.7049  -20.8425   21.6378 O   0  0  0  0  0  0
  -28.0102  -18.0785   21.0102 F   0  0  0  0  0  0
  -31.4709  -12.5522   19.1793 H   0  0  0  0  0  0
  -30.3527  -11.4825   19.9737 H   0  0  0  0  0  0
  -29.7946  -11.7323   17.5286 H   0  0  0  0  0  0
  -29.6400  -13.4617   17.7245 H   0  0  0  0  0  0
  -27.8963  -11.2854   18.9251 H   0  0  0  0  0  0
  -27.3804  -12.5191   17.8085 H   0  0  0  0  0  0
  -27.6345  -14.2579   19.4681 H   0  0  0  0  0  0
  -28.7244  -12.1992   21.4434 H   0  0  0  0  0  0
  -28.4279  -13.8872   21.7875 H   0  0  0  0  0  0
  -25.2757   -9.5696   22.4758 H   0  0  0  0  0  0
  -23.9996   -7.4637   22.7477 H   0  0  0  0  0  0
  -21.0844   -8.8767   19.8944 H   0  0  0  0  0  0
  -22.3691  -10.9663   19.6148 H   0  0  0  0  0  0
  -21.2022   -7.6140   23.9707 H   0  0  0  0  0  0
  -21.1478   -6.0515   25.9077 H   0  0  0  0  0  0
  -22.0601   -2.7584   23.2862 H   0  0  0  0  0  0
  -22.4087  -11.9869   22.4799 H   0  0  0  0  0  0
  -21.1061  -13.1190   22.2594 H   0  0  0  0  0  0
  -24.6488  -15.8425   20.5425 H   0  0  0  0  0  0
  -26.2645  -15.6442   20.0914 H   0  0  0  0  0  0
  -26.7170  -32.5426   23.1012 H   0  0  0  0  0  0
  -25.0218  -33.9710   25.0508 H   0  0  0  0  0  0
  -22.7238  -31.3032   21.3828 H   0  0  0  0  0  0
  -23.3783  -35.9590   23.3334 H   0  0  0  0  0  0
  -24.3602  -36.8860   22.2069 H   0  0  0  0  0  0
  -23.7195  -37.6461   23.6640 H   0  0  0  0  0  0
  -26.0938  -31.5258   20.5828 H   0  0  0  0  0  0
  -26.8487  -30.8393   21.9873 H   0  0  0  0  0  0
  -28.1105  -28.9332   21.1975 H   0  0  0  0  0  0
  -25.9469  -25.8652   19.0522 H   0  0  0  0  0  0
  -23.9622  -27.2807   19.0378 H   0  0  0  0  0  0
  -23.7655  -30.5826   19.3923 H   0  0  0  0  0  0
  -22.7596  -29.2474   19.8478 H   0  0  0  0  0  0
  -25.1281  -36.1945   25.0846 H   0  0  0  0  0  0
  -21.0067  -28.3271   24.1334 H   0  0  0  0  0  0
  -20.5686  -26.2272   23.3568 H   0  0  0  0  0  0
  -21.6643  -26.7391   22.1198 H   0  0  0  0  0  0
  -19.6933  -25.6290   21.1223 H   0  0  0  0  0  0
  -19.6771  -27.3180   20.6704 H   0  0  0  0  0  0
  -17.4234  -26.6721   21.3977 H   0  0  0  0  0  0
  -18.0343  -26.0095   22.8983 H   0  0  0  0  0  0
  -19.7972  -30.7279   24.2248 H   0  0  0  0  0  0
  -17.5061  -31.6272   24.5147 H   0  0  0  0  0  0
  -15.5385  -30.2985   23.7684 H   0  0  0  0  0  0
  -15.8703  -28.0831   22.7032 H   0  0  0  0  0  0
  -24.5974  -30.6947   25.7758 H   0  0  0  0  0  0
  -24.8812  -32.2832   26.4760 H   0  0  0  0  0  0
  -25.8044  -30.8954   27.0226 H   0  0  0  0  0  0
  -26.2877  -29.6838   24.1042 H   0  0  0  0  0  0
  -27.4015  -29.7196   25.4555 H   0  0  0  0  0  0
  -27.8766  -30.4386   23.9331 H   0  0  0  0  0  0
  -27.2804  -33.3556   26.2012 H   0  0  0  0  0  0
  -28.3937  -32.6685   25.0287 H   0  0  0  0  0  0
  -28.0722  -31.8317   26.5385 H   0  0  0  0  0  0
  -28.2587  -38.0079   24.7544 H   0  0  0  0  0  0
  -28.1061  -36.2593   24.6319 H   0  0  0  0  0  0
  -27.2295  -37.1428   25.8903 H   0  0  0  0  0  0
  -20.9345  -29.8846   21.6914 H   0  0  0  0  0  0
  -26.0193  -38.2874   24.1467 H   0  0  0  0  0  0
  -32.8985  -19.4282   19.7557 H   0  0  0  0  0  0
  -31.2442  -21.2056   20.1008 H   0  0  0  0  0  0
  -32.3561  -17.0935   20.0130 H   0  0  0  0  0  0
  -26.2923  -24.6095   21.2684 H   0  0  0  0  0  0
  -26.1639  -23.4019   20.0009 H   0  0  0  0  0  0
  -26.3683  -22.9179   21.6810 H   0  0  0  0  0  0
  -28.5642  -25.0703   22.4195 H   0  0  0  0  0  0
  -29.9673  -24.1141   21.9606 H   0  0  0  0  0  0
  -28.6415  -23.3684   22.8499 H   0  0  0  0  0  0
  -29.4651  -24.9044   19.3827 H   0  0  0  0  0  0
  -27.8448  -24.8576   18.8322 H   0  0  0  0  0  0
  -28.9425  -15.7524   20.9300 H   0  0  0  0  0  0
  -29.5293  -22.4044   19.6226 H   0  0  0  0  0  0
  1 25  1  0  0  0
  1 30  2  0  0  0
  1 82  1  0  0  0
  2  3  1  0  0  0
  2 25  1  0  0  0
  2 86  1  0  0  0
  2 87  1  0  0  0
  3  4  1  0  0  0
  3 88  1  0  0  0
  3 89  1  0  0  0
  4  5  1  0  0  0
  4 90  1  0  0  0
  4 91  1  0  0  0
  5  6  1  0  0  0
  5 26  1  0  0  0
  5 92  1  0  0  0
  6 25  1  0  0  0
  6 93  1  0  0  0
  6 94  1  0  0  0
  7  8  2  0  0  0
  7 26  1  0  0  0
  7 29  1  0  0  0
  8  9  1  0  0  0
  8 22  1  0  0  0
  9 10  1  0  0  0
  9 27  2  0  0  0
 10 11  2  0  0  0
 10 15  1  0  0  0
 11 12  1  0  0  0
 11 95  1  0  0  0
 12 13  2  0  0  0
 12 96  1  0  0  0
 13 14  1  0  0  0
 13 31  1  0  0  0
 14 15  2  0  0  0
 14 97  1  0  0  0
 15 98  1  0  0  0
 16 17  2  0  0  0
 16 21  1  0  0  0
 16 31  1  0  0  0
 17 18  1  0  0  0
 17 99  1  0  0  0
 18 19  2  0  0  0
 18100  1  0  0  0
 19 20  1  0  0  0
 19 24  1  0  0  0
 20 21  2  0  0  0
 20101  1  0  0  0
 21 23  1  0  0  0
 22 28  1  0  0  0
 22 32  2  0  0  0
 26 27  1  0  0  0
 28102  1  0  0  0
 28103  1  0  0  0
 29104  1  0  0  0
 29105  1  0  0  0
 33 34  1  0  0  0
 33 66  1  0  0  0
 33 70  2  0  0  0
 34 36  1  0  0  0
 34 59  1  0  0  0
 34106  1  0  0  0
 35 44  2  0  0  0
 35 45  1  0  0  0
 35 68  1  0  0  0
 36 56  1  0  0  0
 36107  1  0  0  0
 37 39  1  0  0  0
 37 47  1  0  0  0
 37 66  1  0  0  0
 37108  1  0  0  0
 38 43  2  0  0  0
 38 46  1  0  0  0
 38 47  1  0  0  0
 39 64  1  0  0  0
 39 67  2  0  0  0
 40 52  1  0  0  0
 40 53  2  0  0  0
 40 58  1  0  0  0
 41109  1  0  0  0
 41110  1  0  0  0
 41111  1  0  0  0
 41 48  1  0  0  0
 42 43  1  0  0  0
 42 66  1  0  0  0
 42112  1  0  0  0
 42113  1  0  0  0
 43 44  1  0  0  0
 44114  1  0  0  0
 45 46  2  0  0  0
 45115  1  0  0  0
 46116  1  0  0  0
 47117  1  0  0  0
 47118  1  0  0  0
 48 56  1  0  0  0
 48 65  1  0  0  0
 48119  1  0  0  0
 49 50  1  0  0  0
 49 53  1  0  0  0
 49 64  1  0  0  0
 49120  1  0  0  0
 50 51  1  0  0  0
 50121  1  0  0  0
 50122  1  0  0  0
 51 52  1  0  0  0
 51123  1  0  0  0
 51124  1  0  0  0
 52125  1  0  0  0
 52126  1  0  0  0
 53 54  1  0  0  0
 54 55  2  0  0  0
 54127  1  0  0  0
 55 57  1  0  0  0
 55128  1  0  0  0
 56 69  2  0  0  0
 57 58  2  0  0  0
 57129  1  0  0  0
 58130  1  0  0  0
 59 60  1  0  0  0
 59 61  1  0  0  0
 59 62  1  0  0  0
 60131  1  0  0  0
 60132  1  0  0  0
 60133  1  0  0  0
 61134  1  0  0  0
 61135  1  0  0  0
 61136  1  0  0  0
 62137  1  0  0  0
 62138  1  0  0  0
 62139  1  0  0  0
 63 65  1  0  0  0
 63140  1  0  0  0
 63141  1  0  0  0
 63142  1  0  0  0
 64143  1  0  0  0
 65144  1  0  0  0
 68 80  1  0  0  0
 71 72  2  0  0  0
 71 73  1  0  0  0
 71145  1  0  0  0
 72 74  1  0  0  0
 72146  1  0  0  0
 73 75  2  0  0  0
 73147  1  0  0  0
 74 76  2  0  0  0
 74 77  1  0  0  0
 75 76  1  0  0  0
 75 82  1  0  0  0
 76 85  1  0  0  0
 77 83  1  0  0  0
 77 84  2  0  0  0
 78148  1  0  0  0
 78149  1  0  0  0
 78150  1  0  0  0
 78 81  1  0  0  0
 79 81  1  0  0  0
 79151  1  0  0  0
 79152  1  0  0  0
 79153  1  0  0  0
 80 81  1  0  0  0
 80154  1  0  0  0
 80155  1  0  0  0
 81 83  1  0  0  0
 82156  1  0  0  0
 83157  1  0  0  0
M  ISO  4   1 100  68 101  80 101  82 100
M  END
> <chiral flag>
0

> <version>
0

> <s_m_source_file>
/data/baiqing/PycharmProjects/Reinvent-master-3.2/result/LINK_invent/BTK/process_docking_weight1_custom_product_contain_oxygen_bond_distance_aromatic_linkinvent_7_9_3/rearranged_h_0065.sdf

> <i_m_source_file_index>
56

> <r_mmod_Potential_Energy-OPLS-2005>
113.753936767578

> <r_mmod_Stretch_Energy-OPLS-2005>
139.779693603516

> <r_mmod_Bend_Energy-OPLS-2005>
186.625885009766

> <r_mmod_Torsional_Energy-OPLS-2005>
213.902542114258

> <r_mmod_Improper_Torsional_Energy-OPLS-2005>
5.05443811416626

> <r_mmod_Van_der_Waal_Energy-OPLS-2005>
140.125183105469

> <r_mmod_Electrostatic_Energy-OPLS-2005>
-437.108612060547

> <r_mmod_Solvation_Energy-OPLS-2005>
-218.519515991211

> <b_mmod_Minimization_Converged-OPLS-2005>
0

> <r_mmod_RMS_Derivative-OPLS-2005>
4.16930389404297

$$$$
56
                    3D
 Structure written by MMmdl.
158168  0  0  1  0            999 V2000
  -30.6227  -14.7114   20.6256 C   0  0  0  0  0  0
  -30.4485  -12.4769   19.4584 C   0  0  0  0  0  0
  -29.5166  -12.5583   18.2281 C   0  0  0  0  0  0
  -28.0448  -12.3521   18.6345 C   0  0  0  0  0  0
  -27.6521  -13.2225   19.8536 C   0  0  2  0  0  0
  -28.6868  -13.0884   20.9870 C   0  0  0  0  0  0
  -25.2562  -13.8160   20.5659 C   0  0  0  0  0  0
  -24.1835  -13.0416   20.9152 C   0  0  0  0  0  0
  -24.6407  -11.6890   20.8678 C   0  0  0  0  0  0
  -23.9070  -10.4278   21.0371 C   0  0  0  0  0  0
  -24.3620   -9.4205   21.9161 C   0  0  0  0  0  0
  -23.6292   -8.2245   22.0747 C   0  0  0  0  0  0
  -22.4269   -8.0281   21.3544 C   0  0  0  0  0  0
  -21.9901   -9.0249   20.4640 C   0  0  0  0  0  0
  -22.7234  -10.2120   20.3029 C   0  0  0  0  0  0
  -21.6850   -6.0737   22.5276 C   0  0  0  0  0  0
  -21.4010   -6.5639   23.8209 C   0  0  0  0  0  0
  -21.3659   -5.6788   24.9168 C   0  0  0  0  0  0
  -21.6044   -4.3053   24.7223 C   0  0  0  0  0  0
  -21.8820   -3.8146   23.4345 C   0  0  0  0  0  0
  -21.9190   -4.6963   22.3403 C   0  0  0  0  0  0
  -22.7861  -13.5208   21.1854 C   0  0  0  0  0  0
  -22.1662   -4.2149   21.0982 F   0  0  0  0  0  0
  -21.5628   -3.4542   25.7739 F   0  0  0  0  0  0
  -30.0066  -13.4802   20.4571 N   0  0  0  0  0  0
  -26.2984  -12.9349   20.3225 N   0  0  0  0  0  0
  -25.9333  -11.6495   20.5650 N   0  0  0  0  0  0
  -22.0514  -12.8183   22.0407 N   0  0  0  0  0  0
  -25.4268  -15.1883   20.4123 N   0  0  0  0  0  0
  -31.6644  -14.9798   20.0110 O   0  0  0  0  0  0
  -21.6636   -6.8878   21.4236 O   0  0  0  0  0  0
  -22.3542  -14.5532   20.6737 O   0  0  0  0  0  0
  -24.6332  -31.8545   23.1981 C   0  0  0  0  0  0
  -25.9151  -32.4749   23.8325 C   0  0  1  0  0  0
  -27.2179  -27.2441   20.1230 C   0  0  0  0  0  0
  -25.5941  -33.8553   24.2241 N   0  0  0  0  0  0
  -23.4302  -30.4790   21.5431 C   0  0  2  0  0  0
  -24.8769  -28.9284   20.1112 C   0  0  0  0  0  0
  -22.7511  -29.4600   22.4911 C   0  0  0  0  0  0
  -18.0292  -28.1389   22.8480 C   0  0  0  0  0  0
  -24.1495  -36.7285   23.2639 C   0  0  0  0  0  0
  -25.9798  -30.7625   21.3818 C   0  0  0  0  0  0
  -26.0527  -29.3851   20.7205 C   0  0  0  0  0  0
  -27.2264  -28.5581   20.7124 C   0  0  0  0  0  0
  -26.0138  -26.8678   19.4819 C   0  0  0  0  0  0
  -24.8646  -27.6783   19.4806 C   0  0  0  0  0  0
  -23.6491  -29.8172   20.1588 C   0  0  0  0  0  0
  -25.4124  -36.3065   24.0318 C   0  0  1  0  0  0
  -20.5897  -28.3699   23.1267 C   0  0  2  0  0  0
  -20.6785  -26.9418   22.5409 C   0  0  0  0  0  0
  -19.5761  -26.6382   21.5214 C   0  0  0  0  0  0
  -18.1938  -26.7929   22.1625 C   0  0  0  0  0  0
  -19.1546  -28.8863   23.2865 C   0  0  0  0  0  0
  -18.9463  -30.1465   23.8882 C   0  0  0  0  0  0
  -17.6459  -30.6587   24.0560 C   0  0  0  0  0  0
  -25.9066  -34.9436   23.5081 C   0  0  0  0  0  0
  -16.5352  -29.9082   23.6331 C   0  0  0  0  0  0
  -16.7277  -28.6504   23.0346 C   0  0  0  0  0  0
  -26.4507  -31.6582   25.0725 C   0  0  0  0  0  0
  -25.3710  -31.3741   26.1430 C   0  0  0  0  0  0
  -27.0361  -30.2991   24.6240 C   0  0  0  0  0  0
  -27.6045  -32.4335   25.7506 C   0  0  0  0  0  0
  -27.5580  -37.1804   24.8462 C   0  0  0  0  0  0
  -21.4214  -29.3045   22.3656 N   0  0  0  0  0  0
  -26.4296  -37.3765   23.9401 N   0  0  0  0  0  0
  -24.7005  -31.0500   22.0967 N   0  0  0  0  0  0
  -23.4209  -28.8129   23.3003 O   0  0  0  0  0  0
  -28.3034  -26.3255   20.1664 O   0  0  0  0  0  0
  -26.5639  -34.8913   22.4650 O   0  0  0  0  0  0
  -23.5479  -32.1372   23.7269 O   0  0  0  0  0  0
  -28.7006  -18.5995   23.3617 C   0  0  0  0  0  0
  -28.7033  -19.7231   22.5348 C   0  0  0  0  0  0
  -29.3988  -16.1919   23.7350 C   0  0  0  0  0  0
  -29.7852  -18.4024   20.7956 C   0  0  0  0  0  0
  -29.2458  -17.3666   22.9675 C   0  0  0  0  0  0
  -29.7717  -17.1942   21.6410 C   0  0  0  0  0  0
  -29.2782  -19.7137   21.2484 C   0  0  0  0  0  0
  -29.9945  -15.2775   22.9355 C   0  0  0  0  0  0
  -29.7458  -21.4169   19.3668 C   0  0  0  0  0  0
  -29.5076  -22.9142   19.0304 C   0  0  0  0  0  0
  -28.6645  -22.3224   21.1575 C   0  0  0  0  0  0
  -29.0687  -23.6224   20.3351 C   0  0  2  0  0  0
  -27.9922  -24.8434   20.2109 C   0  0  0  0  0  0
  -30.1068  -15.7517   21.6036 N   0  0  0  0  0  0
  -29.2677  -21.0595   20.5749 N   0  0  0  0  0  0
  -30.3144  -20.6629   18.5723 O   0  0  0  0  0  0
  -30.4577  -14.0431   23.2978 O   0  0  0  0  0  0
  -31.4855  -12.6347   19.1577 H   0  0  0  0  0  0
  -30.4174  -11.4785   19.8966 H   0  0  0  0  0  0
  -29.8089  -11.8180   17.4818 H   0  0  0  0  0  0
  -29.6293  -13.5331   17.7514 H   0  0  0  0  0  0
  -27.9095  -11.2972   18.8760 H   0  0  0  0  0  0
  -27.3851  -12.5604   17.7914 H   0  0  0  0  0  0
  -27.6671  -14.2586   19.5122 H   0  0  0  0  0  0
  -28.3545  -13.7020   21.8200 H   0  0  0  0  0  0
  -28.7216  -12.0659   21.3656 H   0  0  0  0  0  0
  -25.2770   -9.5682   22.4732 H   0  0  0  0  0  0
  -24.0001   -7.4634   22.7467 H   0  0  0  0  0  0
  -21.0831   -8.8757   19.8950 H   0  0  0  0  0  0
  -22.3694  -10.9652   19.6131 H   0  0  0  0  0  0
  -21.2001   -7.6148   23.9711 H   0  0  0  0  0  0
  -21.1483   -6.0523   25.9073 H   0  0  0  0  0  0
  -22.0602   -2.7613   23.2843 H   0  0  0  0  0  0
  -22.4105  -11.9802   22.4732 H   0  0  0  0  0  0
  -21.1143  -13.1219   22.2641 H   0  0  0  0  0  0
  -24.6602  -15.8428   20.5244 H   0  0  0  0  0  0
  -26.2845  -15.6324   20.1094 H   0  0  0  0  0  0
  -26.7216  -32.5393   23.1066 H   0  0  0  0  0  0
  -25.0074  -33.9688   25.0374 H   0  0  0  0  0  0
  -22.7271  -31.3019   21.3990 H   0  0  0  0  0  0
  -23.3755  -35.9619   23.3295 H   0  0  0  0  0  0
  -24.3582  -36.8920   22.2055 H   0  0  0  0  0  0
  -23.7256  -37.6484   23.6675 H   0  0  0  0  0  0
  -26.1243  -31.5251   20.6153 H   0  0  0  0  0  0
  -26.8541  -30.8078   22.0187 H   0  0  0  0  0  0
  -28.1252  -28.9050   21.2024 H   0  0  0  0  0  0
  -25.9160  -25.9247   18.9701 H   0  0  0  0  0  0
  -23.9673  -27.3260   18.9910 H   0  0  0  0  0  0
  -23.7764  -30.5958   19.4057 H   0  0  0  0  0  0
  -22.7660  -29.2550   19.8500 H   0  0  0  0  0  0
  -25.1312  -36.1906   25.0811 H   0  0  0  0  0  0
  -20.9987  -28.3280   24.1387 H   0  0  0  0  0  0
  -20.5690  -26.2308   23.3611 H   0  0  0  0  0  0
  -21.6651  -26.7445   22.1197 H   0  0  0  0  0  0
  -19.6921  -25.6287   21.1253 H   0  0  0  0  0  0
  -19.6697  -27.3183   20.6735 H   0  0  0  0  0  0
  -17.4206  -26.6664   21.4030 H   0  0  0  0  0  0
  -18.0344  -26.0077   22.9030 H   0  0  0  0  0  0
  -19.7940  -30.7289   24.2243 H   0  0  0  0  0  0
  -17.5013  -31.6265   24.5166 H   0  0  0  0  0  0
  -15.5354  -30.2976   23.7666 H   0  0  0  0  0  0
  -15.8679  -28.0823   22.7060 H   0  0  0  0  0  0
  -24.5886  -30.7098   25.7744 H   0  0  0  0  0  0
  -24.8903  -32.2915   26.4834 H   0  0  0  0  0  0
  -25.8007  -30.8920   27.0219 H   0  0  0  0  0  0
  -26.2956  -29.6728   24.1254 H   0  0  0  0  0  0
  -27.4013  -29.7275   25.4784 H   0  0  0  0  0  0
  -27.8847  -30.4251   23.9510 H   0  0  0  0  0  0
  -27.2634  -33.3638   26.2061 H   0  0  0  0  0  0
  -28.3866  -32.6896   25.0345 H   0  0  0  0  0  0
  -28.0700  -31.8478   26.5444 H   0  0  0  0  0  0
  -28.2595  -38.0103   24.7504 H   0  0  0  0  0  0
  -28.1080  -36.2633   24.6299 H   0  0  0  0  0  0
  -27.2293  -37.1460   25.8863 H   0  0  0  0  0  0
  -20.9402  -29.8778   21.6866 H   0  0  0  0  0  0
  -26.0170  -38.2838   24.1393 H   0  0  0  0  0  0
  -28.2856  -18.6857   24.3568 H   0  0  0  0  0  0
  -28.2584  -20.6130   22.9540 H   0  0  0  0  0  0
  -29.1421  -16.0897   24.7804 H   0  0  0  0  0  0
  -30.2004  -18.3223   19.8011 H   0  0  0  0  0  0
  -28.7243  -22.9655   18.2739 H   0  0  0  0  0  0
  -30.4047  -23.3683   18.6096 H   0  0  0  0  0  0
  -27.5798  -22.2063   21.1635 H   0  0  0  0  0  0
  -28.9789  -22.4643   22.1918 H   0  0  0  0  0  0
  -29.9632  -24.0316   20.8083 H   0  0  0  0  0  0
  -27.3062  -24.7290   21.0513 H   0  0  0  0  0  0
  -27.4045  -24.5848   19.3337 H   0  0  0  0  0  0
  -30.3048  -13.9350   24.2323 H   0  0  0  0  0  0
  1 25  1  0  0  0
  1 30  2  0  0  0
  1 84  1  0  0  0
  2  3  1  0  0  0
  2 25  1  0  0  0
  2 88  1  0  0  0
  2 89  1  0  0  0
  3  4  1  0  0  0
  3 90  1  0  0  0
  3 91  1  0  0  0
  4  5  1  0  0  0
  4 92  1  0  0  0
  4 93  1  0  0  0
  5  6  1  0  0  0
  5 26  1  0  0  0
  5 94  1  0  0  0
  6 25  1  0  0  0
  6 95  1  0  0  0
  6 96  1  0  0  0
  7  8  2  0  0  0
  7 26  1  0  0  0
  7 29  1  0  0  0
  8  9  1  0  0  0
  8 22  1  0  0  0
  9 10  1  0  0  0
  9 27  2  0  0  0
 10 11  2  0  0  0
 10 15  1  0  0  0
 11 12  1  0  0  0
 11 97  1  0  0  0
 12 13  2  0  0  0
 12 98  1  0  0  0
 13 14  1  0  0  0
 13 31  1  0  0  0
 14 15  2  0  0  0
 14 99  1  0  0  0
 15100  1  0  0  0
 16 17  2  0  0  0
 16 21  1  0  0  0
 16 31  1  0  0  0
 17 18  1  0  0  0
 17101  1  0  0  0
 18 19  2  0  0  0
 18102  1  0  0  0
 19 20  1  0  0  0
 19 24  1  0  0  0
 20 21  2  0  0  0
 20103  1  0  0  0
 21 23  1  0  0  0
 22 28  1  0  0  0
 22 32  2  0  0  0
 26 27  1  0  0  0
 28104  1  0  0  0
 28105  1  0  0  0
 29106  1  0  0  0
 29107  1  0  0  0
 33 34  1  0  0  0
 33 66  1  0  0  0
 33 70  2  0  0  0
 34 36  1  0  0  0
 34 59  1  0  0  0
 34108  1  0  0  0
 35 44  2  0  0  0
 35 45  1  0  0  0
 35 68  1  0  0  0
 36 56  1  0  0  0
 36109  1  0  0  0
 37 39  1  0  0  0
 37 47  1  0  0  0
 37 66  1  0  0  0
 37110  1  0  0  0
 38 43  2  0  0  0
 38 46  1  0  0  0
 38 47  1  0  0  0
 39 64  1  0  0  0
 39 67  2  0  0  0
 40 52  1  0  0  0
 40 53  2  0  0  0
 40 58  1  0  0  0
 41111  1  0  0  0
 41112  1  0  0  0
 41113  1  0  0  0
 41 48  1  0  0  0
 42 43  1  0  0  0
 42 66  1  0  0  0
 42114  1  0  0  0
 42115  1  0  0  0
 43 44  1  0  0  0
 44116  1  0  0  0
 45 46  2  0  0  0
 45117  1  0  0  0
 46118  1  0  0  0
 47119  1  0  0  0
 47120  1  0  0  0
 48 56  1  0  0  0
 48 65  1  0  0  0
 48121  1  0  0  0
 49 50  1  0  0  0
 49 53  1  0  0  0
 49 64  1  0  0  0
 49122  1  0  0  0
 50 51  1  0  0  0
 50123  1  0  0  0
 50124  1  0  0  0
 51 52  1  0  0  0
 51125  1  0  0  0
 51126  1  0  0  0
 52127  1  0  0  0
 52128  1  0  0  0
 53 54  1  0  0  0
 54 55  2  0  0  0
 54129  1  0  0  0
 55 57  1  0  0  0
 55130  1  0  0  0
 56 69  2  0  0  0
 57 58  2  0  0  0
 57131  1  0  0  0
 58132  1  0  0  0
 59 60  1  0  0  0
 59 61  1  0  0  0
 59 62  1  0  0  0
 60133  1  0  0  0
 60134  1  0  0  0
 60135  1  0  0  0
 61136  1  0  0  0
 61137  1  0  0  0
 61138  1  0  0  0
 62139  1  0  0  0
 62140  1  0  0  0
 62141  1  0  0  0
 63 65  1  0  0  0
 63142  1  0  0  0
 63143  1  0  0  0
 63144  1  0  0  0
 64145  1  0  0  0
 65146  1  0  0  0
 68 83  1  0  0  0
 71 72  2  0  0  0
 71 75  1  0  0  0
 71147  1  0  0  0
 72 77  1  0  0  0
 72148  1  0  0  0
 73 75  1  0  0  0
 73 78  2  0  0  0
 73149  1  0  0  0
 74 76  1  0  0  0
 74 77  2  0  0  0
 74150  1  0  0  0
 75 76  2  0  0  0
 76 84  1  0  0  0
 77 85  1  0  0  0
 78 84  1  0  0  0
 78 87  1  0  0  0
 79 80  1  0  0  0
 79 85  1  0  0  0
 79 86  2  0  0  0
 80 82  1  0  0  0
 80151  1  0  0  0
 80152  1  0  0  0
 81 82  1  0  0  0
 81 85  1  0  0  0
 81153  1  0  0  0
 81154  1  0  0  0
 82 83  1  0  0  0
 82155  1  0  0  0
 83156  1  0  0  0
 83157  1  0  0  0
 87158  1  0  0  0
M  ISO  4   1 100  68 101  83 101  84 100
M  END
> <chiral flag>
0

> <version>
0

> <s_m_source_file>
/data/baiqing/PycharmProjects/Reinvent-master-3.2/result/LINK_invent/BTK/process_docking_weight1_custom_product_contain_oxygen_bond_distance_aromatic_linkinvent_7_9_3/rearranged_h_0065.sdf

> <i_m_source_file_index>
57

> <r_mmod_Potential_Energy-OPLS-2005>
413.117095947266

> <r_mmod_Stretch_Energy-OPLS-2005>
162.277252197266

> <r_mmod_Bend_Energy-OPLS-2005>
226.491348266602

> <r_mmod_Torsional_Energy-OPLS-2005>
267.285980224609

> <r_mmod_Improper_Torsional_Energy-OPLS-2005>
2.26505541801453

> <r_mmod_Van_der_Waal_Energy-OPLS-2005>
149.264190673828

> <r_mmod_Electrostatic_Energy-OPLS-2005>
-253.838455200195

> <r_mmod_Solvation_Energy-OPLS-2005>
-226.815658569336

> <b_mmod_Minimization_Converged-OPLS-2005>
0

> <r_mmod_RMS_Derivative-OPLS-2005>
1.23375821113586

$$$$
57
                    3D
 Structure written by MMmdl.
152160  0  0  1  0            999 V2000
  -30.5854  -14.8189   20.4611 C   0  0  0  0  0  0
  -30.4335  -12.5085   19.4809 C   0  0  0  0  0  0
  -29.5126  -12.5195   18.2411 C   0  0  0  0  0  0
  -28.0409  -12.3263   18.6546 C   0  0  0  0  0  0
  -27.6340  -13.2365   19.8441 C   0  0  2  0  0  0
  -28.6775  -13.2058   20.9812 C   0  0  0  0  0  0
  -25.2467  -13.8191   20.5682 C   0  0  0  0  0  0
  -24.1774  -13.0430   20.9218 C   0  0  0  0  0  0
  -24.6374  -11.6909   20.8743 C   0  0  0  0  0  0
  -23.9054  -10.4291   21.0399 C   0  0  0  0  0  0
  -24.3610   -9.4215   21.9182 C   0  0  0  0  0  0
  -23.6296   -8.2245   22.0754 C   0  0  0  0  0  0
  -22.4280   -8.0274   21.3547 C   0  0  0  0  0  0
  -21.9908   -9.0239   20.4645 C   0  0  0  0  0  0
  -22.7223  -10.2124   20.3048 C   0  0  0  0  0  0
  -21.6856   -6.0730   22.5282 C   0  0  0  0  0  0
  -21.4015   -6.5638   23.8214 C   0  0  0  0  0  0
  -21.3658   -5.6793   24.9185 C   0  0  0  0  0  0
  -21.6046   -4.3056   24.7229 C   0  0  0  0  0  0
  -21.8816   -3.8145   23.4353 C   0  0  0  0  0  0
  -21.9191   -4.6960   22.3415 C   0  0  0  0  0  0
  -22.7798  -13.5208   21.1887 C   0  0  0  0  0  0
  -22.1661   -4.2142   21.0992 F   0  0  0  0  0  0
  -21.5626   -3.4545   25.7743 F   0  0  0  0  0  0
  -29.9663  -13.5842   20.3905 N   0  0  0  0  0  0
  -26.2892  -12.9405   20.3250 N   0  0  0  0  0  0
  -25.9301  -11.6545   20.5739 N   0  0  0  0  0  0
  -22.0447  -12.8187   22.0434 N   0  0  0  0  0  0
  -25.4140  -15.1918   20.4085 N   0  0  0  0  0  0
  -31.7857  -14.8851   20.1752 O   0  0  0  0  0  0
  -21.6646   -6.8865   21.4240 O   0  0  0  0  0  0
  -22.3485  -14.5516   20.6735 O   0  0  0  0  0  0
  -24.6341  -31.8538   23.1961 C   0  0  0  0  0  0
  -25.9156  -32.4749   23.8313 C   0  0  1  0  0  0
  -27.2121  -27.2234   20.1482 C   0  0  0  0  0  0
  -25.5939  -33.8546   24.2231 N   0  0  0  0  0  0
  -23.4312  -30.4741   21.5422 C   0  0  2  0  0  0
  -24.8766  -28.9050   20.1215 C   0  0  0  0  0  0
  -22.7510  -29.4595   22.4927 C   0  0  0  0  0  0
  -18.0290  -28.1402   22.8499 C   0  0  0  0  0  0
  -24.1477  -36.7261   23.2641 C   0  0  0  0  0  0
  -25.9798  -30.7529   21.3804 C   0  0  0  0  0  0
  -26.0517  -29.3678   20.7298 C   0  0  0  0  0  0
  -27.2249  -28.5398   20.7302 C   0  0  0  0  0  0
  -26.0158  -26.8306   19.5151 C   0  0  0  0  0  0
  -24.8630  -27.6429   19.5055 C   0  0  0  0  0  0
  -23.6531  -29.8019   20.1614 C   0  0  0  0  0  0
  -25.4115  -36.3053   24.0319 C   0  0  1  0  0  0
  -20.5904  -28.3703   23.1282 C   0  0  2  0  0  0
  -20.6784  -26.9422   22.5417 C   0  0  0  0  0  0
  -19.5746  -26.6390   21.5228 C   0  0  0  0  0  0
  -18.1927  -26.7941   22.1642 C   0  0  0  0  0  0
  -19.1550  -28.8876   23.2874 C   0  0  0  0  0  0
  -18.9462  -30.1483   23.8874 C   0  0  0  0  0  0
  -17.6460  -30.6604   24.0572 C   0  0  0  0  0  0
  -25.9064  -34.9432   23.5084 C   0  0  0  0  0  0
  -16.5354  -29.9096   23.6351 C   0  0  0  0  0  0
  -16.7276  -28.6521   23.0363 C   0  0  0  0  0  0
  -26.4501  -31.6595   25.0730 C   0  0  0  0  0  0
  -25.3707  -31.3787   26.1445 C   0  0  0  0  0  0
  -27.0348  -30.3001   24.6247 C   0  0  0  0  0  0
  -27.6043  -32.4348   25.7505 C   0  0  0  0  0  0
  -27.5565  -37.1801   24.8475 C   0  0  0  0  0  0
  -21.4215  -29.3042   22.3661 N   0  0  0  0  0  0
  -26.4290  -37.3757   23.9401 N   0  0  0  0  0  0
  -24.7013  -31.0462   22.0957 N   0  0  0  0  0  0
  -23.4189  -28.8151   23.3058 O   0  0  0  0  0  0
  -28.2920  -26.3043   20.1259 O   0  0  0  0  0  0
  -26.5628  -34.8915   22.4639 O   0  0  0  0  0  0
  -23.5491  -32.1369   23.7247 O   0  0  0  0  0  0
  -31.8852  -19.0611   21.4617 C   0  0  0  0  0  0
  -31.4503  -17.7366   21.2749 C   0  0  0  0  0  0
  -29.3486  -18.6148   20.4288 C   0  0  0  0  0  0
  -31.0864  -20.1775   21.1332 C   0  0  0  0  0  0
  -30.1784  -17.4358   20.7437 C   0  0  0  0  0  0
  -29.7716  -20.0158   20.6161 C   0  0  0  0  0  0
  -28.7211  -23.7730   20.1529 C   0  0  0  0  0  0
  -28.1510  -24.9624   20.6254 C   0  0  0  0  0  0
  -28.6870  -22.4182   20.8516 C   0  0  0  0  0  0
  -31.7150  -21.5528   21.3113 C   0  0  0  0  0  0
  -29.0684  -21.2674   20.1529 N   0  0  0  0  0  0
  -29.8046  -15.9800   20.6062 N   0  0  0  0  0  0
  -28.3422  -22.3108   22.0304 O   0  0  0  0  0  0
  -31.4704  -12.6494   19.1728 H   0  0  0  0  0  0
  -30.4016  -11.5407   19.9828 H   0  0  0  0  0  0
  -29.8122  -11.7405   17.5385 H   0  0  0  0  0  0
  -29.6241  -13.4679   17.7128 H   0  0  0  0  0  0
  -27.9099  -11.2785   18.9284 H   0  0  0  0  0  0
  -27.3832  -12.5024   17.8027 H   0  0  0  0  0  0
  -27.6162  -14.2514   19.4463 H   0  0  0  0  0  0
  -28.7356  -12.2139   21.4339 H   0  0  0  0  0  0
  -28.3969  -13.8943   21.7808 H   0  0  0  0  0  0
  -25.2749   -9.5706   22.4766 H   0  0  0  0  0  0
  -24.0013   -7.4635   22.7472 H   0  0  0  0  0  0
  -21.0844   -8.8740   19.8949 H   0  0  0  0  0  0
  -22.3667  -10.9656   19.6161 H   0  0  0  0  0  0
  -21.2008   -7.6143   23.9714 H   0  0  0  0  0  0
  -21.1482   -6.0529   25.9084 H   0  0  0  0  0  0
  -22.0590   -2.7602   23.2861 H   0  0  0  0  0  0
  -22.4069  -11.9850   22.4814 H   0  0  0  0  0  0
  -21.1058  -13.1200   22.2637 H   0  0  0  0  0  0
  -24.6375  -15.8380   20.5026 H   0  0  0  0  0  0
  -26.2509  -15.6319   20.0484 H   0  0  0  0  0  0
  -26.7212  -32.5373   23.1043 H   0  0  0  0  0  0
  -25.0100  -33.9673   25.0392 H   0  0  0  0  0  0
  -22.7286  -31.2978   21.3944 H   0  0  0  0  0  0
  -23.3737  -35.9599   23.3349 H   0  0  0  0  0  0
  -24.3557  -36.8837   22.2048 H   0  0  0  0  0  0
  -23.7253  -37.6484   23.6640 H   0  0  0  0  0  0
  -26.1216  -31.5078   20.6059 H   0  0  0  0  0  0
  -26.8573  -30.8062   22.0154 H   0  0  0  0  0  0
  -28.1269  -28.8918   21.2120 H   0  0  0  0  0  0
  -25.9662  -25.8631   19.0365 H   0  0  0  0  0  0
  -23.9603  -27.2765   19.0351 H   0  0  0  0  0  0
  -23.7848  -30.5762   19.4048 H   0  0  0  0  0  0
  -22.7686  -29.2418   19.8541 H   0  0  0  0  0  0
  -25.1308  -36.1889   25.0818 H   0  0  0  0  0  0
  -20.9981  -28.3262   24.1412 H   0  0  0  0  0  0
  -20.5702  -26.2304   23.3614 H   0  0  0  0  0  0
  -21.6647  -26.7453   22.1206 H   0  0  0  0  0  0
  -19.6894  -25.6295   21.1267 H   0  0  0  0  0  0
  -19.6688  -27.3205   20.6762 H   0  0  0  0  0  0
  -17.4210  -26.6712   21.4041 H   0  0  0  0  0  0
  -18.0309  -26.0087   22.9042 H   0  0  0  0  0  0
  -19.7935  -30.7327   24.2209 H   0  0  0  0  0  0
  -17.5017  -31.6274   24.5183 H   0  0  0  0  0  0
  -15.5359  -30.2989   23.7696 H   0  0  0  0  0  0
  -15.8675  -28.0839   22.7070 H   0  0  0  0  0  0
  -24.5846  -30.7163   25.7790 H   0  0  0  0  0  0
  -24.8937  -32.2989   26.4829 H   0  0  0  0  0  0
  -25.8000  -30.8983   27.0244 H   0  0  0  0  0  0
  -26.2947  -29.6760   24.1216 H   0  0  0  0  0  0
  -27.3966  -29.7255   25.4787 H   0  0  0  0  0  0
  -27.8853  -30.4281   23.9541 H   0  0  0  0  0  0
  -27.2629  -33.3672   26.2006 H   0  0  0  0  0  0
  -28.3876  -32.6867   25.0347 H   0  0  0  0  0  0
  -28.0663  -31.8521   26.5478 H   0  0  0  0  0  0
  -28.2618  -38.0060   24.7459 H   0  0  0  0  0  0
  -28.1012  -36.2591   24.6369 H   0  0  0  0  0  0
  -27.2271  -37.1534   25.8876 H   0  0  0  0  0  0
  -20.9404  -29.8740   21.6843 H   0  0  0  0  0  0
  -26.0151  -38.2829   24.1382 H   0  0  0  0  0  0
  -32.8819  -19.2193   21.8539 H   0  0  0  0  0  0
  -32.1306  -16.9464   21.5560 H   0  0  0  0  0  0
  -28.3662  -18.4408   20.0143 H   0  0  0  0  0  0
  -29.2885  -23.8328   19.2364 H   0  0  0  0  0  0
  -27.5432  -24.9613   21.5212 H   0  0  0  0  0  0
  -31.2580  -22.0726   22.1542 H   0  0  0  0  0  0
  -31.5925  -22.1611   20.4152 H   0  0  0  0  0  0
  -32.7856  -21.4851   21.5051 H   0  0  0  0  0  0
  -29.1092  -21.4039   19.1528 H   0  0  0  0  0  0
  -28.8139  -15.7957   20.6419 H   0  0  0  0  0  0
  1 25  1  0  0  0
  1 30  2  0  0  0
  1 82  1  0  0  0
  2  3  1  0  0  0
  2 25  1  0  0  0
  2 84  1  0  0  0
  2 85  1  0  0  0
  3  4  1  0  0  0
  3 86  1  0  0  0
  3 87  1  0  0  0
  4  5  1  0  0  0
  4 88  1  0  0  0
  4 89  1  0  0  0
  5  6  1  0  0  0
  5 26  1  0  0  0
  5 90  1  0  0  0
  6 25  1  0  0  0
  6 91  1  0  0  0
  6 92  1  0  0  0
  7  8  2  0  0  0
  7 26  1  0  0  0
  7 29  1  0  0  0
  8  9  1  0  0  0
  8 22  1  0  0  0
  9 10  1  0  0  0
  9 27  2  0  0  0
 10 11  2  0  0  0
 10 15  1  0  0  0
 11 12  1  0  0  0
 11 93  1  0  0  0
 12 13  2  0  0  0
 12 94  1  0  0  0
 13 14  1  0  0  0
 13 31  1  0  0  0
 14 15  2  0  0  0
 14 95  1  0  0  0
 15 96  1  0  0  0
 16 17  2  0  0  0
 16 21  1  0  0  0
 16 31  1  0  0  0
 17 18  1  0  0  0
 17 97  1  0  0  0
 18 19  2  0  0  0
 18 98  1  0  0  0
 19 20  1  0  0  0
 19 24  1  0  0  0
 20 21  2  0  0  0
 20 99  1  0  0  0
 21 23  1  0  0  0
 22 28  1  0  0  0
 22 32  2  0  0  0
 26 27  1  0  0  0
 28100  1  0  0  0
 28101  1  0  0  0
 29102  1  0  0  0
 29103  1  0  0  0
 33 34  1  0  0  0
 33 66  1  0  0  0
 33 70  2  0  0  0
 34 36  1  0  0  0
 34 59  1  0  0  0
 34104  1  0  0  0
 35 44  2  0  0  0
 35 45  1  0  0  0
 35 68  1  0  0  0
 36 56  1  0  0  0
 36105  1  0  0  0
 37 39  1  0  0  0
 37 47  1  0  0  0
 37 66  1  0  0  0
 37106  1  0  0  0
 38 43  2  0  0  0
 38 46  1  0  0  0
 38 47  1  0  0  0
 39 64  1  0  0  0
 39 67  2  0  0  0
 40 52  1  0  0  0
 40 53  2  0  0  0
 40 58  1  0  0  0
 41107  1  0  0  0
 41108  1  0  0  0
 41109  1  0  0  0
 41 48  1  0  0  0
 42 43  1  0  0  0
 42 66  1  0  0  0
 42110  1  0  0  0
 42111  1  0  0  0
 43 44  1  0  0  0
 44112  1  0  0  0
 45 46  2  0  0  0
 45113  1  0  0  0
 46114  1  0  0  0
 47115  1  0  0  0
 47116  1  0  0  0
 48 56  1  0  0  0
 48 65  1  0  0  0
 48117  1  0  0  0
 49 50  1  0  0  0
 49 53  1  0  0  0
 49 64  1  0  0  0
 49118  1  0  0  0
 50 51  1  0  0  0
 50119  1  0  0  0
 50120  1  0  0  0
 51 52  1  0  0  0
 51121  1  0  0  0
 51122  1  0  0  0
 52123  1  0  0  0
 52124  1  0  0  0
 53 54  1  0  0  0
 54 55  2  0  0  0
 54125  1  0  0  0
 55 57  1  0  0  0
 55126  1  0  0  0
 56 69  2  0  0  0
 57 58  2  0  0  0
 57127  1  0  0  0
 58128  1  0  0  0
 59 60  1  0  0  0
 59 61  1  0  0  0
 59 62  1  0  0  0
 60129  1  0  0  0
 60130  1  0  0  0
 60131  1  0  0  0
 61132  1  0  0  0
 61133  1  0  0  0
 61134  1  0  0  0
 62135  1  0  0  0
 62136  1  0  0  0
 62137  1  0  0  0
 63 65  1  0  0  0
 63138  1  0  0  0
 63139  1  0  0  0
 63140  1  0  0  0
 64141  1  0  0  0
 65142  1  0  0  0
 68 78  1  0  0  0
 71 72  2  0  0  0
 71 74  1  0  0  0
 71143  1  0  0  0
 72 75  1  0  0  0
 72144  1  0  0  0
 73 75  2  0  0  0
 73 76  1  0  0  0
 73145  1  0  0  0
 74 76  2  0  0  0
 74 80  1  0  0  0
 75 82  1  0  0  0
 76 81  1  0  0  0
 77 78  2  0  0  0
 77 79  1  0  0  0
 77146  1  0  0  0
 78147  1  0  0  0
 79 81  1  0  0  0
 79 83  2  0  0  0
 80148  1  0  0  0
 80149  1  0  0  0
 80150  1  0  0  0
 81151  1  0  0  0
 82152  1  0  0  0
M  ISO  4   1 100  68 101  78 101  82 100
M  END
> <chiral flag>
0

> <version>
0

> <s_m_source_file>
/data/baiqing/PycharmProjects/Reinvent-master-3.2/result/LINK_invent/BTK/process_docking_weight1_custom_product_contain_oxygen_bond_distance_aromatic_linkinvent_7_9_3/rearranged_h_0065.sdf

> <i_m_source_file_index>
58

> <r_mmod_Potential_Energy-OPLS-2005>
224.224456787109

> <r_mmod_Stretch_Energy-OPLS-2005>
153.590927124023

> <r_mmod_Bend_Energy-OPLS-2005>
169.149063110352

> <r_mmod_Torsional_Energy-OPLS-2005>
271.826141357422

> <r_mmod_Improper_Torsional_Energy-OPLS-2005>
8.25431823730469

> <r_mmod_Van_der_Waal_Energy-OPLS-2005>
140.354797363281

> <r_mmod_Electrostatic_Energy-OPLS-2005>
-403.116027832031

> <r_mmod_Solvation_Energy-OPLS-2005>
-230.445190429688

> <b_mmod_Minimization_Converged-OPLS-2005>
0

> <r_mmod_RMS_Derivative-OPLS-2005>
2.43646192550659

$$$$
58
                    3D
 Structure written by MMmdl.
162171  0  0  1  0            999 V2000
  -30.6190  -14.7227   20.4451 C   0  0  0  0  0  0
  -30.4314  -12.4316   19.4843 C   0  0  0  0  0  0
  -29.5168  -12.5058   18.2411 C   0  0  0  0  0  0
  -28.0423  -12.3316   18.6553 C   0  0  0  0  0  0
  -27.6489  -13.2282   19.8588 C   0  0  2  0  0  0
  -28.6894  -13.1536   20.9995 C   0  0  0  0  0  0
  -25.2551  -13.8189   20.5737 C   0  0  0  0  0  0
  -24.1812  -13.0451   20.9224 C   0  0  0  0  0  0
  -24.6381  -11.6923   20.8754 C   0  0  0  0  0  0
  -23.9045  -10.4310   21.0407 C   0  0  0  0  0  0
  -24.3593   -9.4224   21.9191 C   0  0  0  0  0  0
  -23.6276   -8.2251   22.0762 C   0  0  0  0  0  0
  -22.4248   -8.0294   21.3571 C   0  0  0  0  0  0
  -21.9870   -9.0265   20.4667 C   0  0  0  0  0  0
  -22.7209  -10.2139   20.3080 C   0  0  0  0  0  0
  -21.6845   -6.0731   22.5286 C   0  0  0  0  0  0
  -21.4012   -6.5635   23.8222 C   0  0  0  0  0  0
  -21.3669   -5.6791   24.9184 C   0  0  0  0  0  0
  -21.6042   -4.3052   24.7228 C   0  0  0  0  0  0
  -21.8818   -3.8148   23.4350 C   0  0  0  0  0  0
  -21.9191   -4.6963   22.3415 C   0  0  0  0  0  0
  -22.7839  -13.5255   21.1866 C   0  0  0  0  0  0
  -22.1666   -4.2159   21.0982 F   0  0  0  0  0  0
  -21.5619   -3.4538   25.7733 F   0  0  0  0  0  0
  -29.9960  -13.4943   20.4222 N   0  0  0  0  0  0
  -26.2968  -12.9390   20.3295 N   0  0  0  0  0  0
  -25.9305  -11.6533   20.5745 N   0  0  0  0  0  0
  -22.0447  -12.8291   22.0418 N   0  0  0  0  0  0
  -25.4285  -15.1907   20.4228 N   0  0  0  0  0  0
  -31.8030  -14.8087   20.1101 O   0  0  0  0  0  0
  -21.6640   -6.8866   21.4243 O   0  0  0  0  0  0
  -22.3556  -14.5574   20.6714 O   0  0  0  0  0  0
  -24.6264  -31.8567   23.1967 C   0  0  0  0  0  0
  -25.9083  -32.4777   23.8315 C   0  0  1  0  0  0
  -27.2218  -27.2717   20.1279 C   0  0  0  0  0  0
  -25.5849  -33.8580   24.2211 N   0  0  0  0  0  0
  -23.4238  -30.4782   21.5430 C   0  0  2  0  0  0
  -24.8730  -28.9294   20.1100 C   0  0  0  0  0  0
  -22.7486  -29.4602   22.4929 C   0  0  0  0  0  0
  -18.0292  -28.1414   22.8505 C   0  0  0  0  0  0
  -24.1482  -36.7314   23.2634 C   0  0  0  0  0  0
  -25.9697  -30.7729   21.3758 C   0  0  0  0  0  0
  -26.0435  -29.3945   20.7222 C   0  0  0  0  0  0
  -27.2191  -28.5765   20.7236 C   0  0  0  0  0  0
  -26.0295  -26.8785   19.4773 C   0  0  0  0  0  0
  -24.8708  -27.6764   19.4788 C   0  0  0  0  0  0
  -23.6398  -29.8101   20.1602 C   0  0  0  0  0  0
  -25.4104  -36.3092   24.0313 C   0  0  1  0  0  0
  -20.5897  -28.3701   23.1303 C   0  0  2  0  0  0
  -20.6788  -26.9421   22.5437 C   0  0  0  0  0  0
  -19.5754  -26.6394   21.5254 C   0  0  0  0  0  0
  -18.1927  -26.7947   22.1655 C   0  0  0  0  0  0
  -19.1545  -28.8875   23.2899 C   0  0  0  0  0  0
  -18.9468  -30.1477   23.8919 C   0  0  0  0  0  0
  -17.6465  -30.6612   24.0575 C   0  0  0  0  0  0
  -25.9044  -34.9461   23.5085 C   0  0  0  0  0  0
  -16.5358  -29.9115   23.6333 C   0  0  0  0  0  0
  -16.7282  -28.6534   23.0357 C   0  0  0  0  0  0
  -26.4416  -31.6611   25.0717 C   0  0  0  0  0  0
  -25.3602  -31.3848   26.1424 C   0  0  0  0  0  0
  -27.0199  -30.2990   24.6227 C   0  0  0  0  0  0
  -27.5965  -32.4345   25.7502 C   0  0  0  0  0  0
  -27.5576  -37.1808   24.8441 C   0  0  0  0  0  0
  -21.4196  -29.3031   22.3670 N   0  0  0  0  0  0
  -26.4279  -37.3784   23.9400 N   0  0  0  0  0  0
  -24.6932  -31.0543   22.0942 N   0  0  0  0  0  0
  -23.4193  -28.8150   23.3033 O   0  0  0  0  0  0
  -28.3186  -26.3797   20.2018 O   0  0  0  0  0  0
  -26.5682  -34.8937   22.4695 O   0  0  0  0  0  0
  -23.5416  -32.1383   23.7263 O   0  0  0  0  0  0
  -30.8495  -18.5619   18.2021 C   0  0  0  0  0  0
  -30.6001  -17.3188   18.8050 C   0  0  0  0  0  0
  -30.5837  -19.7923   18.8464 C   0  0  0  0  0  0
  -29.8946  -19.7955   20.0994 C   0  0  0  0  0  0
  -30.0466  -17.2230   20.0957 C   0  0  0  0  0  0
  -29.6412  -18.4835   20.7042 C   0  0  0  0  0  0
  -30.2381  -21.3765   21.9402 C   0  0  0  0  0  0
  -31.6669  -21.1726   17.0059 C   0  0  0  0  0  0
  -31.1010  -21.0385   18.2218 C   0  0  0  0  0  0
  -30.2615  -22.8057   22.5225 C   0  0  0  0  0  0
  -29.1758  -23.7751   22.0247 C   0  0  0  0  0  0
  -28.7970  -22.2307   20.0979 C   0  0  0  0  0  0
  -29.0900  -23.7674   20.5002 C   0  0  1  0  0  0
  -28.0855  -24.9147   19.9692 C   0  0  0  0  0  0
  -29.6122  -21.1096   20.7576 N   0  0  0  0  0  0
  -29.8628  -15.8646   20.6713 N   0  0  0  0  0  0
  -30.8582  -20.5188   22.5761 O   0  0  0  0  0  0
  -29.0093  -18.4252   21.9019 F   0  0  0  0  0  0
  -31.4786  -12.5350   19.1963 H   0  0  0  0  0  0
  -30.3512  -11.4524   19.9596 H   0  0  0  0  0  0
  -29.7942  -11.7348   17.5189 H   0  0  0  0  0  0
  -29.6546  -13.4635   17.7354 H   0  0  0  0  0  0
  -27.9039  -11.2829   18.9221 H   0  0  0  0  0  0
  -27.3816  -12.5223   17.8108 H   0  0  0  0  0  0
  -27.6518  -14.2522   19.4838 H   0  0  0  0  0  0
  -28.7178  -12.1577   21.4446 H   0  0  0  0  0  0
  -28.4299  -13.8353   21.8106 H   0  0  0  0  0  0
  -25.2738   -9.5698   22.4760 H   0  0  0  0  0  0
  -24.0011   -7.4625   22.7460 H   0  0  0  0  0  0
  -21.0806   -8.8780   19.8966 H   0  0  0  0  0  0
  -22.3676  -10.9673   19.6194 H   0  0  0  0  0  0
  -21.2014   -7.6138   23.9729 H   0  0  0  0  0  0
  -21.1485   -6.0511   25.9080 H   0  0  0  0  0  0
  -22.0583   -2.7602   23.2847 H   0  0  0  0  0  0
  -22.4021  -11.9977   22.4866 H   0  0  0  0  0  0
  -21.1080  -13.1379   22.2594 H   0  0  0  0  0  0
  -24.6610  -15.8437   20.5428 H   0  0  0  0  0  0
  -26.2727  -15.6336   20.0816 H   0  0  0  0  0  0
  -26.7166  -32.5430   23.1080 H   0  0  0  0  0  0
  -24.9830  -33.9714   25.0238 H   0  0  0  0  0  0
  -22.7176  -31.2986   21.3982 H   0  0  0  0  0  0
  -23.3738  -35.9651   23.3276 H   0  0  0  0  0  0
  -24.3582  -36.8973   22.2055 H   0  0  0  0  0  0
  -23.7251  -37.6507   23.6693 H   0  0  0  0  0  0
  -26.1023  -31.5267   20.5977 H   0  0  0  0  0  0
  -26.8487  -30.8296   22.0069 H   0  0  0  0  0  0
  -28.1108  -28.9225   21.2261 H   0  0  0  0  0  0
  -25.9565  -25.9273   18.9717 H   0  0  0  0  0  0
  -23.9740  -27.3137   18.9958 H   0  0  0  0  0  0
  -23.7544  -30.5824   19.3993 H   0  0  0  0  0  0
  -22.7595  -29.2361   19.8636 H   0  0  0  0  0  0
  -25.1291  -36.1929   25.0804 H   0  0  0  0  0  0
  -21.0013  -28.3301   24.1415 H   0  0  0  0  0  0
  -20.5736  -26.2309   23.3639 H   0  0  0  0  0  0
  -21.6645  -26.7470   22.1201 H   0  0  0  0  0  0
  -19.6897  -25.6305   21.1276 H   0  0  0  0  0  0
  -19.6680  -27.3221   20.6795 H   0  0  0  0  0  0
  -17.4192  -26.6720   21.4051 H   0  0  0  0  0  0
  -18.0297  -26.0102   22.9064 H   0  0  0  0  0  0
  -19.7944  -30.7296   24.2290 H   0  0  0  0  0  0
  -17.5026  -31.6296   24.5164 H   0  0  0  0  0  0
  -15.5367  -30.3028   23.7645 H   0  0  0  0  0  0
  -15.8684  -28.0863   22.7065 H   0  0  0  0  0  0
  -24.5777  -30.7183   25.7777 H   0  0  0  0  0  0
  -24.8779  -32.3060   26.4707 H   0  0  0  0  0  0
  -25.7849  -30.9129   27.0289 H   0  0  0  0  0  0
  -26.2768  -29.6836   24.1135 H   0  0  0  0  0  0
  -27.3691  -29.7181   25.4774 H   0  0  0  0  0  0
  -27.8743  -30.4202   23.9568 H   0  0  0  0  0  0
  -27.2537  -33.3640   26.2070 H   0  0  0  0  0  0
  -28.3773  -32.6920   25.0333 H   0  0  0  0  0  0
  -28.0623  -31.8479   26.5434 H   0  0  0  0  0  0
  -28.2578  -38.0121   24.7501 H   0  0  0  0  0  0
  -28.1092  -36.2655   24.6229 H   0  0  0  0  0  0
  -27.2316  -37.1419   25.8853 H   0  0  0  0  0  0
  -20.9378  -29.8731   21.6855 H   0  0  0  0  0  0
  -26.0154  -38.2851   24.1425 H   0  0  0  0  0  0
  -31.3243  -18.5332   17.2354 H   0  0  0  0  0  0
  -30.8669  -16.4300   18.2513 H   0  0  0  0  0  0
  -32.0161  -22.1411   16.6760 H   0  0  0  0  0  0
  -31.8043  -20.3574   16.3096 H   0  0  0  0  0  0
  -31.0516  -21.9416   18.8119 H   0  0  0  0  0  0
  -31.2416  -23.2169   22.2754 H   0  0  0  0  0  0
  -30.2240  -22.7467   23.6117 H   0  0  0  0  0  0
  -29.4054  -24.7839   22.3705 H   0  0  0  0  0  0
  -28.2113  -23.5102   22.4636 H   0  0  0  0  0  0
  -28.8384  -22.1388   19.0138 H   0  0  0  0  0  0
  -27.7542  -22.0192   20.3373 H   0  0  0  0  0  0
  -30.0762  -24.0198   20.1067 H   0  0  0  0  0  0
  -27.1104  -24.6512   20.3799 H   0  0  0  0  0  0
  -28.0002  -24.7849   18.8894 H   0  0  0  0  0  0
  -28.9864  -15.7182   21.1493 H   0  0  0  0  0  0
  1 25  1  0  0  0
  1 30  2  0  0  0
  1 86  1  0  0  0
  2  3  1  0  0  0
  2 25  1  0  0  0
  2 89  1  0  0  0
  2 90  1  0  0  0
  3  4  1  0  0  0
  3 91  1  0  0  0
  3 92  1  0  0  0
  4  5  1  0  0  0
  4 93  1  0  0  0
  4 94  1  0  0  0
  5  6  1  0  0  0
  5 26  1  0  0  0
  5 95  1  0  0  0
  6 25  1  0  0  0
  6 96  1  0  0  0
  6 97  1  0  0  0
  7  8  2  0  0  0
  7 26  1  0  0  0
  7 29  1  0  0  0
  8  9  1  0  0  0
  8 22  1  0  0  0
  9 10  1  0  0  0
  9 27  2  0  0  0
 10 11  2  0  0  0
 10 15  1  0  0  0
 11 12  1  0  0  0
 11 98  1  0  0  0
 12 13  2  0  0  0
 12 99  1  0  0  0
 13 14  1  0  0  0
 13 31  1  0  0  0
 14 15  2  0  0  0
 14100  1  0  0  0
 15101  1  0  0  0
 16 17  2  0  0  0
 16 21  1  0  0  0
 16 31  1  0  0  0
 17 18  1  0  0  0
 17102  1  0  0  0
 18 19  2  0  0  0
 18103  1  0  0  0
 19 20  1  0  0  0
 19 24  1  0  0  0
 20 21  2  0  0  0
 20104  1  0  0  0
 21 23  1  0  0  0
 22 28  1  0  0  0
 22 32  2  0  0  0
 26 27  1  0  0  0
 28105  1  0  0  0
 28106  1  0  0  0
 29107  1  0  0  0
 29108  1  0  0  0
 33 34  1  0  0  0
 33 66  1  0  0  0
 33 70  2  0  0  0
 34 36  1  0  0  0
 34 59  1  0  0  0
 34109  1  0  0  0
 35 44  2  0  0  0
 35 45  1  0  0  0
 35 68  1  0  0  0
 36 56  1  0  0  0
 36110  1  0  0  0
 37 39  1  0  0  0
 37 47  1  0  0  0
 37 66  1  0  0  0
 37111  1  0  0  0
 38 43  2  0  0  0
 38 46  1  0  0  0
 38 47  1  0  0  0
 39 64  1  0  0  0
 39 67  2  0  0  0
 40 52  1  0  0  0
 40 53  2  0  0  0
 40 58  1  0  0  0
 41112  1  0  0  0
 41113  1  0  0  0
 41114  1  0  0  0
 41 48  1  0  0  0
 42 43  1  0  0  0
 42 66  1  0  0  0
 42115  1  0  0  0
 42116  1  0  0  0
 43 44  1  0  0  0
 44117  1  0  0  0
 45 46  2  0  0  0
 45118  1  0  0  0
 46119  1  0  0  0
 47120  1  0  0  0
 47121  1  0  0  0
 48 56  1  0  0  0
 48 65  1  0  0  0
 48122  1  0  0  0
 49 50  1  0  0  0
 49 53  1  0  0  0
 49 64  1  0  0  0
 49123  1  0  0  0
 50 51  1  0  0  0
 50124  1  0  0  0
 50125  1  0  0  0
 51 52  1  0  0  0
 51126  1  0  0  0
 51127  1  0  0  0
 52128  1  0  0  0
 52129  1  0  0  0
 53 54  1  0  0  0
 54 55  2  0  0  0
 54130  1  0  0  0
 55 57  1  0  0  0
 55131  1  0  0  0
 56 69  2  0  0  0
 57 58  2  0  0  0
 57132  1  0  0  0
 58133  1  0  0  0
 59 60  1  0  0  0
 59 61  1  0  0  0
 59 62  1  0  0  0
 60134  1  0  0  0
 60135  1  0  0  0
 60136  1  0  0  0
 61137  1  0  0  0
 61138  1  0  0  0
 61139  1  0  0  0
 62140  1  0  0  0
 62141  1  0  0  0
 62142  1  0  0  0
 63 65  1  0  0  0
 63143  1  0  0  0
 63144  1  0  0  0
 63145  1  0  0  0
 64146  1  0  0  0
 65147  1  0  0  0
 68 84  1  0  0  0
 71 72  2  0  0  0
 71 73  1  0  0  0
 71148  1  0  0  0
 72 75  1  0  0  0
 72149  1  0  0  0
 73 74  2  0  0  0
 73 79  1  0  0  0
 74 76  1  0  0  0
 74 85  1  0  0  0
 75 76  2  0  0  0
 75 86  1  0  0  0
 76 88  1  0  0  0
 77 80  1  0  0  0
 77 85  1  0  0  0
 77 87  2  0  0  0
 78 79  2  0  0  0
 78150  1  0  0  0
 78151  1  0  0  0
 79152  1  0  0  0
 80 81  1  0  0  0
 80153  1  0  0  0
 80154  1  0  0  0
 81 83  1  0  0  0
 81155  1  0  0  0
 81156  1  0  0  0
 82 83  1  0  0  0
 82 85  1  0  0  0
 82157  1  0  0  0
 82158  1  0  0  0
 83 84  1  0  0  0
 83159  1  0  0  0
 84160  1  0  0  0
 84161  1  0  0  0
 86162  1  0  0  0
M  ISO  4   1 100  68 101  84 101  86 100
M  END
> <chiral flag>
0

> <version>
0

> <s_m_source_file>
/data/baiqing/PycharmProjects/Reinvent-master-3.2/result/LINK_invent/BTK/process_docking_weight1_custom_product_contain_oxygen_bond_distance_aromatic_linkinvent_7_9_3/rearranged_h_0065.sdf

> <i_m_source_file_index>
59

> <r_mmod_Potential_Energy-OPLS-2005>
222.729309082031

> <r_mmod_Stretch_Energy-OPLS-2005>
130.924285888672

> <r_mmod_Bend_Energy-OPLS-2005>
160.074554443359

> <r_mmod_Torsional_Energy-OPLS-2005>
303.472534179688

> <r_mmod_Improper_Torsional_Energy-OPLS-2005>
5.629319190979

> <r_mmod_Van_der_Waal_Energy-OPLS-2005>
162.302352905273

> <r_mmod_Electrostatic_Energy-OPLS-2005>
-396.457824707031

> <r_mmod_Solvation_Energy-OPLS-2005>
-221.545791625977

> <b_mmod_Minimization_Converged-OPLS-2005>
0

> <r_mmod_RMS_Derivative-OPLS-2005>
3.70041990280151

$$$$
59
                    3D
 Structure written by MMmdl.
150158  0  0  1  0            999 V2000
  -30.5914  -14.7860   20.4477 C   0  0  0  0  0  0
  -30.4349  -12.4799   19.4689 C   0  0  0  0  0  0
  -29.5103  -12.5029   18.2318 C   0  0  0  0  0  0
  -28.0365  -12.3239   18.6492 C   0  0  0  0  0  0
  -27.6355  -13.2325   19.8419 C   0  0  2  0  0  0
  -28.6826  -13.1873   20.9748 C   0  0  0  0  0  0
  -25.2483  -13.8198   20.5705 C   0  0  0  0  0  0
  -24.1789  -13.0432   20.9221 C   0  0  0  0  0  0
  -24.6385  -11.6913   20.8746 C   0  0  0  0  0  0
  -23.9062  -10.4291   21.0410 C   0  0  0  0  0  0
  -24.3612   -9.4204   21.9182 C   0  0  0  0  0  0
  -23.6288   -8.2236   22.0746 C   0  0  0  0  0  0
  -22.4270   -8.0276   21.3537 C   0  0  0  0  0  0
  -21.9904   -9.0255   20.4643 C   0  0  0  0  0  0
  -22.7233  -10.2133   20.3059 C   0  0  0  0  0  0
  -21.6854   -6.0730   22.5279 C   0  0  0  0  0  0
  -21.4020   -6.5633   23.8213 C   0  0  0  0  0  0
  -21.3662   -5.6786   24.9171 C   0  0  0  0  0  0
  -21.6045   -4.3047   24.7226 C   0  0  0  0  0  0
  -21.8814   -3.8138   23.4346 C   0  0  0  0  0  0
  -21.9190   -4.6958   22.3402 C   0  0  0  0  0  0
  -22.7806  -13.5210   21.1885 C   0  0  0  0  0  0
  -22.1661   -4.2141   21.0974 F   0  0  0  0  0  0
  -21.5628   -3.4532   25.7740 F   0  0  0  0  0  0
  -29.9746  -13.5528   20.3818 N   0  0  0  0  0  0
  -26.2900  -12.9405   20.3243 N   0  0  0  0  0  0
  -25.9308  -11.6543   20.5723 N   0  0  0  0  0  0
  -22.0464  -12.8203   22.0455 N   0  0  0  0  0  0
  -25.4141  -15.1926   20.4131 N   0  0  0  0  0  0
  -31.7953  -14.8681   20.1881 O   0  0  0  0  0  0
  -21.6635   -6.8875   21.4240 O   0  0  0  0  0  0
  -22.3486  -14.5518   20.6735 O   0  0  0  0  0  0
  -24.6332  -31.8527   23.1938 C   0  0  0  0  0  0
  -25.9145  -32.4737   23.8305 C   0  0  1  0  0  0
  -27.2244  -27.2426   20.1384 C   0  0  0  0  0  0
  -25.5922  -33.8540   24.2226 N   0  0  0  0  0  0
  -23.4314  -30.4716   21.5388 C   0  0  2  0  0  0
  -24.8794  -28.9069   20.1159 C   0  0  0  0  0  0
  -22.7512  -29.4588   22.4914 C   0  0  0  0  0  0
  -18.0292  -28.1385   22.8484 C   0  0  0  0  0  0
  -24.1488  -36.7281   23.2639 C   0  0  0  0  0  0
  -25.9782  -30.7589   21.3759 C   0  0  0  0  0  0
  -26.0526  -29.3783   20.7205 C   0  0  0  0  0  0
  -27.2311  -28.5613   20.7124 C   0  0  0  0  0  0
  -26.0284  -26.8338   19.5162 C   0  0  0  0  0  0
  -24.8729  -27.6431   19.5023 C   0  0  0  0  0  0
  -23.6512  -29.7977   20.1585 C   0  0  0  0  0  0
  -25.4114  -36.3058   24.0324 C   0  0  1  0  0  0
  -20.5898  -28.3695   23.1268 C   0  0  2  0  0  0
  -20.6777  -26.9410   22.5409 C   0  0  0  0  0  0
  -19.5752  -26.6378   21.5214 C   0  0  0  0  0  0
  -18.1936  -26.7921   22.1633 C   0  0  0  0  0  0
  -19.1545  -28.8858   23.2870 C   0  0  0  0  0  0
  -18.9466  -30.1458   23.8890 C   0  0  0  0  0  0
  -17.6466  -30.6584   24.0564 C   0  0  0  0  0  0
  -25.9060  -34.9431   23.5083 C   0  0  0  0  0  0
  -16.5359  -29.9083   23.6329 C   0  0  0  0  0  0
  -16.7279  -28.6502   23.0349 C   0  0  0  0  0  0
  -26.4491  -31.6574   25.0712 C   0  0  0  0  0  0
  -25.3701  -31.3750   26.1426 C   0  0  0  0  0  0
  -27.0340  -30.2981   24.6233 C   0  0  0  0  0  0
  -27.6036  -32.4323   25.7488 C   0  0  0  0  0  0
  -27.5585  -37.1782   24.8455 C   0  0  0  0  0  0
  -21.4217  -29.3036   22.3657 N   0  0  0  0  0  0
  -26.4284  -37.3765   23.9417 N   0  0  0  0  0  0
  -24.7001  -31.0469   22.0924 N   0  0  0  0  0  0
  -23.4197  -28.8142   23.3035 O   0  0  0  0  0  0
  -28.3225  -26.3505   20.1217 O   0  0  0  0  0  0
  -26.5649  -34.8917   22.4661 O   0  0  0  0  0  0
  -23.5476  -32.1364   23.7218 O   0  0  0  0  0  0
  -31.6330  -19.1043   21.5879 C   0  0  0  0  0  0
  -30.8108  -20.1648   21.1487 C   0  0  0  0  0  0
  -31.2989  -17.7519   21.3570 C   0  0  0  0  0  0
  -29.2799  -18.5052   20.2405 C   0  0  0  0  0  0
  -29.6080  -19.9204   20.4520 C   0  0  0  0  0  0
  -30.1144  -17.3834   20.6806 C   0  0  0  0  0  0
  -28.8312  -21.1365   19.8306 C   0  0  0  0  0  0
  -28.4477  -23.6515   19.8368 C   0  0  0  0  0  0
  -28.1917  -24.9693   20.7322 C   0  0  0  0  0  0
  -29.7886  -15.9290   20.5323 N   0  0  0  0  0  0
  -28.8451  -22.4213   20.3838 N   0  0  0  0  0  0
  -28.1871  -20.8880   18.8058 O   0  0  0  0  0  0
  -28.2536  -23.7815   18.6220 O   0  0  0  0  0  0
  -31.4735  -12.6176   19.1627 H   0  0  0  0  0  0
  -30.3929  -11.5088   19.9645 H   0  0  0  0  0  0
  -29.7975  -11.7176   17.5305 H   0  0  0  0  0  0
  -29.6307  -13.4476   17.6992 H   0  0  0  0  0  0
  -27.8984  -11.2774   18.9221 H   0  0  0  0  0  0
  -27.3769  -12.5050   17.8001 H   0  0  0  0  0  0
  -27.6215  -14.2482   19.4476 H   0  0  0  0  0  0
  -28.7307  -12.1943   21.4241 H   0  0  0  0  0  0
  -28.4142  -13.8757   21.7783 H   0  0  0  0  0  0
  -25.2765   -9.5680   22.4749 H   0  0  0  0  0  0
  -24.0006   -7.4623   22.7459 H   0  0  0  0  0  0
  -21.0837   -8.8768   19.8954 H   0  0  0  0  0  0
  -22.3692  -10.9663   19.6166 H   0  0  0  0  0  0
  -21.2022   -7.6138   23.9712 H   0  0  0  0  0  0
  -21.1495   -6.0513   25.9069 H   0  0  0  0  0  0
  -22.0596   -2.7600   23.2840 H   0  0  0  0  0  0
  -22.4090  -11.9868   22.4844 H   0  0  0  0  0  0
  -21.1082  -13.1213   22.2670 H   0  0  0  0  0  0
  -24.6395  -15.8379   20.5255 H   0  0  0  0  0  0
  -26.2498  -15.6398   20.0605 H   0  0  0  0  0  0
  -26.7216  -32.5372   23.1048 H   0  0  0  0  0  0
  -25.0021  -33.9666   25.0339 H   0  0  0  0  0  0
  -22.7285  -31.2937   21.3879 H   0  0  0  0  0  0
  -23.3757  -35.9606   23.3279 H   0  0  0  0  0  0
  -24.3591  -36.8931   22.2060 H   0  0  0  0  0  0
  -23.7237  -37.6472   23.6685 H   0  0  0  0  0  0
  -26.1218  -31.5178   20.6056 H   0  0  0  0  0  0
  -26.8537  -30.8075   22.0123 H   0  0  0  0  0  0
  -28.1356  -28.9241   21.1802 H   0  0  0  0  0  0
  -25.9846  -25.8632   19.0421 H   0  0  0  0  0  0
  -23.9746  -27.2754   19.0251 H   0  0  0  0  0  0
  -23.7779  -30.5697   19.3986 H   0  0  0  0  0  0
  -22.7685  -29.2313   19.8557 H   0  0  0  0  0  0
  -25.1293  -36.1894   25.0818 H   0  0  0  0  0  0
  -20.9987  -28.3274   24.1392 H   0  0  0  0  0  0
  -20.5676  -26.2305   23.3618 H   0  0  0  0  0  0
  -21.6647  -26.7431   22.1208 H   0  0  0  0  0  0
  -19.6914  -25.6287   21.1251 H   0  0  0  0  0  0
  -19.6683  -27.3185   20.6742 H   0  0  0  0  0  0
  -17.4199  -26.6655   21.4046 H   0  0  0  0  0  0
  -18.0347  -26.0073   22.9041 H   0  0  0  0  0  0
  -19.7942  -30.7275   24.2258 H   0  0  0  0  0  0
  -17.5019  -31.6260   24.5169 H   0  0  0  0  0  0
  -15.5357  -30.2982   23.7653 H   0  0  0  0  0  0
  -15.8681  -28.0820   22.7063 H   0  0  0  0  0  0
  -24.5825  -30.7167   25.7740 H   0  0  0  0  0  0
  -24.8953  -32.2936   26.4883 H   0  0  0  0  0  0
  -25.7983  -30.8872   27.0190 H   0  0  0  0  0  0
  -26.2934  -29.6719   24.1242 H   0  0  0  0  0  0
  -27.3982  -29.7257   25.4775 H   0  0  0  0  0  0
  -27.8829  -30.4236   23.9509 H   0  0  0  0  0  0
  -27.2628  -33.3613   26.2072 H   0  0  0  0  0  0
  -28.3838  -32.6905   25.0316 H   0  0  0  0  0  0
  -28.0718  -31.8453   26.5398 H   0  0  0  0  0  0
  -28.2564  -38.0116   24.7553 H   0  0  0  0  0  0
  -28.1117  -36.2651   24.6207 H   0  0  0  0  0  0
  -27.2317  -37.1343   25.8859 H   0  0  0  0  0  0
  -20.9412  -29.8740   21.6842 H   0  0  0  0  0  0
  -26.0156  -38.2832   24.1441 H   0  0  0  0  0  0
  -32.5535  -19.3344   22.1072 H   0  0  0  0  0  0
  -31.1415  -21.1795   21.3208 H   0  0  0  0  0  0
  -31.9735  -16.9928   21.7253 H   0  0  0  0  0  0
  -28.3716  -18.2812   19.6990 H   0  0  0  0  0  0
  -28.8886  -24.9280   21.5682 H   0  0  0  0  0  0
  -27.2020  -24.8639   21.1768 H   0  0  0  0  0  0
  -28.8027  -15.7207   20.5043 H   0  0  0  0  0  0
  -29.1810  -22.4641   21.3326 H   0  0  0  0  0  0
  1 25  1  0  0  0
  1 30  2  0  0  0
  1 80  1  0  0  0
  2  3  1  0  0  0
  2 25  1  0  0  0
  2 84  1  0  0  0
  2 85  1  0  0  0
  3  4  1  0  0  0
  3 86  1  0  0  0
  3 87  1  0  0  0
  4  5  1  0  0  0
  4 88  1  0  0  0
  4 89  1  0  0  0
  5  6  1  0  0  0
  5 26  1  0  0  0
  5 90  1  0  0  0
  6 25  1  0  0  0
  6 91  1  0  0  0
  6 92  1  0  0  0
  7  8  2  0  0  0
  7 26  1  0  0  0
  7 29  1  0  0  0
  8  9  1  0  0  0
  8 22  1  0  0  0
  9 10  1  0  0  0
  9 27  2  0  0  0
 10 11  2  0  0  0
 10 15  1  0  0  0
 11 12  1  0  0  0
 11 93  1  0  0  0
 12 13  2  0  0  0
 12 94  1  0  0  0
 13 14  1  0  0  0
 13 31  1  0  0  0
 14 15  2  0  0  0
 14 95  1  0  0  0
 15 96  1  0  0  0
 16 17  2  0  0  0
 16 21  1  0  0  0
 16 31  1  0  0  0
 17 18  1  0  0  0
 17 97  1  0  0  0
 18 19  2  0  0  0
 18 98  1  0  0  0
 19 20  1  0  0  0
 19 24  1  0  0  0
 20 21  2  0  0  0
 20 99  1  0  0  0
 21 23  1  0  0  0
 22 28  1  0  0  0
 22 32  2  0  0  0
 26 27  1  0  0  0
 28100  1  0  0  0
 28101  1  0  0  0
 29102  1  0  0  0
 29103  1  0  0  0
 33 34  1  0  0  0
 33 66  1  0  0  0
 33 70  2  0  0  0
 34 36  1  0  0  0
 34 59  1  0  0  0
 34104  1  0  0  0
 35 44  2  0  0  0
 35 45  1  0  0  0
 35 68  1  0  0  0
 36 56  1  0  0  0
 36105  1  0  0  0
 37 39  1  0  0  0
 37 47  1  0  0  0
 37 66  1  0  0  0
 37106  1  0  0  0
 38 43  2  0  0  0
 38 46  1  0  0  0
 38 47  1  0  0  0
 39 64  1  0  0  0
 39 67  2  0  0  0
 40 52  1  0  0  0
 40 53  2  0  0  0
 40 58  1  0  0  0
 41107  1  0  0  0
 41108  1  0  0  0
 41109  1  0  0  0
 41 48  1  0  0  0
 42 43  1  0  0  0
 42 66  1  0  0  0
 42110  1  0  0  0
 42111  1  0  0  0
 43 44  1  0  0  0
 44112  1  0  0  0
 45 46  2  0  0  0
 45113  1  0  0  0
 46114  1  0  0  0
 47115  1  0  0  0
 47116  1  0  0  0
 48 56  1  0  0  0
 48 65  1  0  0  0
 48117  1  0  0  0
 49 50  1  0  0  0
 49 53  1  0  0  0
 49 64  1  0  0  0
 49118  1  0  0  0
 50 51  1  0  0  0
 50119  1  0  0  0
 50120  1  0  0  0
 51 52  1  0  0  0
 51121  1  0  0  0
 51122  1  0  0  0
 52123  1  0  0  0
 52124  1  0  0  0
 53 54  1  0  0  0
 54 55  2  0  0  0
 54125  1  0  0  0
 55 57  1  0  0  0
 55126  1  0  0  0
 56 69  2  0  0  0
 57 58  2  0  0  0
 57127  1  0  0  0
 58128  1  0  0  0
 59 60  1  0  0  0
 59 61  1  0  0  0
 59 62  1  0  0  0
 60129  1  0  0  0
 60130  1  0  0  0
 60131  1  0  0  0
 61132  1  0  0  0
 61133  1  0  0  0
 61134  1  0  0  0
 62135  1  0  0  0
 62136  1  0  0  0
 62137  1  0  0  0
 63 65  1  0  0  0
 63138  1  0  0  0
 63139  1  0  0  0
 63140  1  0  0  0
 64141  1  0  0  0
 65142  1  0  0  0
 68 79  1  0  0  0
 71 72  2  0  0  0
 71 73  1  0  0  0
 71143  1  0  0  0
 72 75  1  0  0  0
 72144  1  0  0  0
 73 76  2  0  0  0
 73145  1  0  0  0
 74 75  2  0  0  0
 74 76  1  0  0  0
 74146  1  0  0  0
 75 77  1  0  0  0
 76 80  1  0  0  0
 77 81  1  0  0  0
 77 82  2  0  0  0
 78 79  1  0  0  0
 78 81  1  0  0  0
 78 83  2  0  0  0
 79147  1  0  0  0
 79148  1  0  0  0
 80149  1  0  0  0
 81150  1  0  0  0
M  ISO  4   1 100  68 101  79 101  80 100
M  END
> <chiral flag>
0

> <version>
0

> <s_m_source_file>
/data/baiqing/PycharmProjects/Reinvent-master-3.2/result/LINK_invent/BTK/process_docking_weight1_custom_product_contain_oxygen_bond_distance_aromatic_linkinvent_7_9_3/rearranged_h_0065.sdf

> <i_m_source_file_index>
60

> <r_mmod_Potential_Energy-OPLS-2005>
52.3647346496582

> <r_mmod_Stretch_Energy-OPLS-2005>
140.091857910156

> <r_mmod_Bend_Energy-OPLS-2005>
167.388031005859

> <r_mmod_Torsional_Energy-OPLS-2005>
257.554473876953

> <r_mmod_Improper_Torsional_Energy-OPLS-2005>
7.16265296936035

> <r_mmod_Van_der_Waal_Energy-OPLS-2005>
134.887222290039

> <r_mmod_Electrostatic_Energy-OPLS-2005>
-471.244171142578

> <r_mmod_Solvation_Energy-OPLS-2005>
-283.080017089844

> <b_mmod_Minimization_Converged-OPLS-2005>
0

> <r_mmod_RMS_Derivative-OPLS-2005>
1.41116499900818

$$$$
60
                    3D
 Structure written by MMmdl.
151159  0  0  1  0            999 V2000
  -30.6154  -14.7290   20.4305 C   0  0  0  0  0  0
  -30.4260  -12.4369   19.4787 C   0  0  0  0  0  0
  -29.5097  -12.5027   18.2374 C   0  0  0  0  0  0
  -28.0335  -12.3371   18.6453 C   0  0  0  0  0  0
  -27.6402  -13.2348   19.8492 C   0  0  2  0  0  0
  -28.6824  -13.1664   20.9864 C   0  0  0  0  0  0
  -25.2496  -13.8212   20.5690 C   0  0  0  0  0  0
  -24.1792  -13.0447   20.9204 C   0  0  0  0  0  0
  -24.6384  -11.6927   20.8739 C   0  0  0  0  0  0
  -23.9065  -10.4300   21.0403 C   0  0  0  0  0  0
  -24.3620   -9.4216   21.9179 C   0  0  0  0  0  0
  -23.6298   -8.2248   22.0752 C   0  0  0  0  0  0
  -22.4279   -8.0280   21.3545 C   0  0  0  0  0  0
  -21.9906   -9.0252   20.4649 C   0  0  0  0  0  0
  -22.7232  -10.2136   20.3058 C   0  0  0  0  0  0
  -21.6857   -6.0734   22.5278 C   0  0  0  0  0  0
  -21.4017   -6.5637   23.8210 C   0  0  0  0  0  0
  -21.3662   -5.6791   24.9172 C   0  0  0  0  0  0
  -21.6045   -4.3052   24.7222 C   0  0  0  0  0  0
  -21.8821   -3.8144   23.4343 C   0  0  0  0  0  0
  -21.9195   -4.6961   22.3400 C   0  0  0  0  0  0
  -22.7813  -13.5224   21.1862 C   0  0  0  0  0  0
  -22.1665   -4.2147   21.0976 F   0  0  0  0  0  0
  -21.5628   -3.4536   25.7735 F   0  0  0  0  0  0
  -29.9876  -13.5041   20.4079 N   0  0  0  0  0  0
  -26.2921  -12.9421   20.3265 N   0  0  0  0  0  0
  -25.9314  -11.6560   20.5738 N   0  0  0  0  0  0
  -22.0458  -12.8221   22.0424 N   0  0  0  0  0  0
  -25.4192  -15.1938   20.4118 N   0  0  0  0  0  0
  -31.8123  -14.7952   20.1361 O   0  0  0  0  0  0
  -21.6645   -6.8877   21.4240 O   0  0  0  0  0  0
  -22.3489  -14.5518   20.6694 O   0  0  0  0  0  0
  -24.6307  -31.8547   23.1978 C   0  0  0  0  0  0
  -25.9141  -32.4742   23.8316 C   0  0  1  0  0  0
  -27.2195  -27.2670   20.1182 C   0  0  0  0  0  0
  -25.5943  -33.8548   24.2231 N   0  0  0  0  0  0
  -23.4249  -30.4784   21.5405 C   0  0  2  0  0  0
  -24.8697  -28.9245   20.1080 C   0  0  0  0  0  0
  -22.7486  -29.4603   22.4904 C   0  0  0  0  0  0
  -18.0287  -28.1381   22.8478 C   0  0  0  0  0  0
  -24.1490  -36.7287   23.2632 C   0  0  0  0  0  0
  -25.9708  -30.7685   21.3765 C   0  0  0  0  0  0
  -26.0402  -29.3927   20.7153 C   0  0  0  0  0  0
  -27.2137  -28.5751   20.7102 C   0  0  0  0  0  0
  -26.0177  -26.8579   19.4968 C   0  0  0  0  0  0
  -24.8630  -27.6651   19.4903 C   0  0  0  0  0  0
  -23.6409  -29.8114   20.1559 C   0  0  0  0  0  0
  -25.4117  -36.3061   24.0312 C   0  0  1  0  0  0
  -20.5888  -28.3687   23.1272 C   0  0  2  0  0  0
  -20.6769  -26.9407   22.5404 C   0  0  0  0  0  0
  -19.5746  -26.6376   21.5206 C   0  0  0  0  0  0
  -18.1930  -26.7920   22.1625 C   0  0  0  0  0  0
  -19.1540  -28.8854   23.2867 C   0  0  0  0  0  0
  -18.9466  -30.1460   23.8874 C   0  0  0  0  0  0
  -17.6465  -30.6582   24.0561 C   0  0  0  0  0  0
  -25.9069  -34.9435   23.5074 C   0  0  0  0  0  0
  -16.5356  -29.9078   23.6332 C   0  0  0  0  0  0
  -16.7276  -28.6502   23.0342 C   0  0  0  0  0  0
  -26.4500  -31.6577   25.0715 C   0  0  0  0  0  0
  -25.3728  -31.3743   26.1441 C   0  0  0  0  0  0
  -27.0342  -30.2978   24.6234 C   0  0  0  0  0  0
  -27.6033  -32.4336   25.7503 C   0  0  0  0  0  0
  -27.5584  -37.1789   24.8450 C   0  0  0  0  0  0
  -21.4195  -29.3034   22.3656 N   0  0  0  0  0  0
  -26.4277  -37.3774   23.9420 N   0  0  0  0  0  0
  -24.6944  -31.0524   22.0943 N   0  0  0  0  0  0
  -23.4192  -28.8148   23.3003 O   0  0  0  0  0  0
  -28.3459  -26.4166   20.1951 O   0  0  0  0  0  0
  -26.5650  -34.8919   22.4648 O   0  0  0  0  0  0
  -23.5466  -32.1367   23.7292 O   0  0  0  0  0  0
  -31.1160  -18.6623   18.3377 C   0  0  0  0  0  0
  -30.5111  -19.8283   18.8366 C   0  0  0  0  0  0
  -30.8936  -17.4078   18.9313 C   0  0  0  0  0  0
  -29.4311  -18.4826   20.5515 C   0  0  0  0  0  0
  -29.6340  -19.7993   19.9461 C   0  0  0  0  0  0
  -30.0627  -17.2551   20.0656 C   0  0  0  0  0  0
  -28.8867  -22.3038   19.7739 C   0  0  0  0  0  0
  -28.5431  -23.6821   20.5165 C   0  0  0  0  0  0
  -28.4173  -25.0294   19.6202 C   0  0  0  0  0  0
  -29.0679  -21.0906   20.4375 N   0  0  0  0  0  0
  -29.8531  -15.8805   20.6082 N   0  0  0  0  0  0
  -28.9458  -22.3524   18.5432 O   0  0  0  0  0  0
  -31.4692  -12.5484   19.1781 H   0  0  0  0  0  0
  -30.3587  -11.4602   19.9609 H   0  0  0  0  0  0
  -29.7883  -11.7297   17.5198 H   0  0  0  0  0  0
  -29.6469  -13.4586   17.7298 H   0  0  0  0  0  0
  -27.8806  -11.2882   18.9012 H   0  0  0  0  0  0
  -27.3824  -12.5412   17.7943 H   0  0  0  0  0  0
  -27.6357  -14.2575   19.4711 H   0  0  0  0  0  0
  -28.7077  -12.1705   21.4309 H   0  0  0  0  0  0
  -28.4212  -13.8553   21.7906 H   0  0  0  0  0  0
  -25.2769   -9.5692   22.4748 H   0  0  0  0  0  0
  -24.0012   -7.4638   22.7468 H   0  0  0  0  0  0
  -21.0838   -8.8767   19.8954 H   0  0  0  0  0  0
  -22.3688  -10.9672   19.6165 H   0  0  0  0  0  0
  -21.2014   -7.6147   23.9713 H   0  0  0  0  0  0
  -21.1481   -6.0522   25.9076 H   0  0  0  0  0  0
  -22.0600   -2.7607   23.2843 H   0  0  0  0  0  0
  -22.4081  -11.9904   22.4848 H   0  0  0  0  0  0
  -21.1070  -13.1241   22.2606 H   0  0  0  0  0  0
  -24.6515  -15.8481   20.5201 H   0  0  0  0  0  0
  -26.2652  -15.6324   20.0706 H   0  0  0  0  0  0
  -26.7207  -32.5383   23.1058 H   0  0  0  0  0  0
  -25.0057  -33.9676   25.0352 H   0  0  0  0  0  0
  -22.7220  -31.3013   21.3948 H   0  0  0  0  0  0
  -23.3754  -35.9614   23.3254 H   0  0  0  0  0  0
  -24.3583  -36.8959   22.2054 H   0  0  0  0  0  0
  -23.7239  -37.6470   23.6695 H   0  0  0  0  0  0
  -26.1161  -31.5331   20.6118 H   0  0  0  0  0  0
  -26.8463  -30.8109   22.0126 H   0  0  0  0  0  0
  -28.1115  -28.9286   21.1966 H   0  0  0  0  0  0
  -25.9175  -25.8911   19.0328 H   0  0  0  0  0  0
  -23.9625  -27.2969   19.0193 H   0  0  0  0  0  0
  -23.7671  -30.5870   19.3990 H   0  0  0  0  0  0
  -22.7585  -29.2454   19.8512 H   0  0  0  0  0  0
  -25.1300  -36.1875   25.0800 H   0  0  0  0  0  0
  -20.9986  -28.3258   24.1393 H   0  0  0  0  0  0
  -20.5655  -26.2299   23.3605 H   0  0  0  0  0  0
  -21.6642  -26.7423   22.1216 H   0  0  0  0  0  0
  -19.6903  -25.6284   21.1245 H   0  0  0  0  0  0
  -19.6685  -27.3179   20.6731 H   0  0  0  0  0  0
  -17.4198  -26.6664   21.4028 H   0  0  0  0  0  0
  -18.0337  -26.0062   22.9027 H   0  0  0  0  0  0
  -19.7945  -30.7288   24.2218 H   0  0  0  0  0  0
  -17.5021  -31.6259   24.5172 H   0  0  0  0  0  0
  -15.5357  -30.2977   23.7668 H   0  0  0  0  0  0
  -15.8676  -28.0828   22.7046 H   0  0  0  0  0  0
  -24.5896  -30.7092   25.7780 H   0  0  0  0  0  0
  -24.8941  -32.2928   26.4853 H   0  0  0  0  0  0
  -25.8060  -30.8934   27.0221 H   0  0  0  0  0  0
  -26.2930  -29.6722   24.1245 H   0  0  0  0  0  0
  -27.3964  -29.7253   25.4782 H   0  0  0  0  0  0
  -27.8840  -30.4206   23.9515 H   0  0  0  0  0  0
  -27.2598  -33.3623   26.2074 H   0  0  0  0  0  0
  -28.3860  -32.6919   25.0358 H   0  0  0  0  0  0
  -28.0685  -31.8474   26.5437 H   0  0  0  0  0  0
  -28.2559  -38.0129   24.7562 H   0  0  0  0  0  0
  -28.1131  -36.2667   24.6192 H   0  0  0  0  0  0
  -27.2324  -37.1333   25.8856 H   0  0  0  0  0  0
  -20.9367  -29.8768   21.6880 H   0  0  0  0  0  0
  -26.0140  -38.2833   24.1459 H   0  0  0  0  0  0
  -31.7690  -18.7316   17.4788 H   0  0  0  0  0  0
  -30.7544  -20.7569   18.3420 H   0  0  0  0  0  0
  -31.3800  -16.5582   18.4753 H   0  0  0  0  0  0
  -28.7772  -18.4145   21.4089 H   0  0  0  0  0  0
  -29.3215  -23.8395   21.2628 H   0  0  0  0  0  0
  -27.6184  -23.5413   21.0761 H   0  0  0  0  0  0
  -27.6605  -24.8633   18.8596 H   0  0  0  0  0  0
  -29.3319  -25.0626   19.0287 H   0  0  0  0  0  0
  -28.8205  -21.1081   21.4181 H   0  0  0  0  0  0
  -28.9523  -15.7181   21.0328 H   0  0  0  0  0  0
  1 25  1  0  0  0
  1 30  2  0  0  0
  1 81  1  0  0  0
  2  3  1  0  0  0
  2 25  1  0  0  0
  2 83  1  0  0  0
  2 84  1  0  0  0
  3  4  1  0  0  0
  3 85  1  0  0  0
  3 86  1  0  0  0
  4  5  1  0  0  0
  4 87  1  0  0  0
  4 88  1  0  0  0
  5  6  1  0  0  0
  5 26  1  0  0  0
  5 89  1  0  0  0
  6 25  1  0  0  0
  6 90  1  0  0  0
  6 91  1  0  0  0
  7  8  2  0  0  0
  7 26  1  0  0  0
  7 29  1  0  0  0
  8  9  1  0  0  0
  8 22  1  0  0  0
  9 10  1  0  0  0
  9 27  2  0  0  0
 10 11  2  0  0  0
 10 15  1  0  0  0
 11 12  1  0  0  0
 11 92  1  0  0  0
 12 13  2  0  0  0
 12 93  1  0  0  0
 13 14  1  0  0  0
 13 31  1  0  0  0
 14 15  2  0  0  0
 14 94  1  0  0  0
 15 95  1  0  0  0
 16 17  2  0  0  0
 16 21  1  0  0  0
 16 31  1  0  0  0
 17 18  1  0  0  0
 17 96  1  0  0  0
 18 19  2  0  0  0
 18 97  1  0  0  0
 19 20  1  0  0  0
 19 24  1  0  0  0
 20 21  2  0  0  0
 20 98  1  0  0  0
 21 23  1  0  0  0
 22 28  1  0  0  0
 22 32  2  0  0  0
 26 27  1  0  0  0
 28 99  1  0  0  0
 28100  1  0  0  0
 29101  1  0  0  0
 29102  1  0  0  0
 33 34  1  0  0  0
 33 66  1  0  0  0
 33 70  2  0  0  0
 34 36  1  0  0  0
 34 59  1  0  0  0
 34103  1  0  0  0
 35 44  2  0  0  0
 35 45  1  0  0  0
 35 68  1  0  0  0
 36 56  1  0  0  0
 36104  1  0  0  0
 37 39  1  0  0  0
 37 47  1  0  0  0
 37 66  1  0  0  0
 37105  1  0  0  0
 38 43  2  0  0  0
 38 46  1  0  0  0
 38 47  1  0  0  0
 39 64  1  0  0  0
 39 67  2  0  0  0
 40 52  1  0  0  0
 40 53  2  0  0  0
 40 58  1  0  0  0
 41106  1  0  0  0
 41107  1  0  0  0
 41108  1  0  0  0
 41 48  1  0  0  0
 42 43  1  0  0  0
 42 66  1  0  0  0
 42109  1  0  0  0
 42110  1  0  0  0
 43 44  1  0  0  0
 44111  1  0  0  0
 45 46  2  0  0  0
 45112  1  0  0  0
 46113  1  0  0  0
 47114  1  0  0  0
 47115  1  0  0  0
 48 56  1  0  0  0
 48 65  1  0  0  0
 48116  1  0  0  0
 49 50  1  0  0  0
 49 53  1  0  0  0
 49 64  1  0  0  0
 49117  1  0  0  0
 50 51  1  0  0  0
 50118  1  0  0  0
 50119  1  0  0  0
 51 52  1  0  0  0
 51120  1  0  0  0
 51121  1  0  0  0
 52122  1  0  0  0
 52123  1  0  0  0
 53 54  1  0  0  0
 54 55  2  0  0  0
 54124  1  0  0  0
 55 57  1  0  0  0
 55125  1  0  0  0
 56 69  2  0  0  0
 57 58  2  0  0  0
 57126  1  0  0  0
 58127  1  0  0  0
 59 60  1  0  0  0
 59 61  1  0  0  0
 59 62  1  0  0  0
 60128  1  0  0  0
 60129  1  0  0  0
 60130  1  0  0  0
 61131  1  0  0  0
 61132  1  0  0  0
 61133  1  0  0  0
 62134  1  0  0  0
 62135  1  0  0  0
 62136  1  0  0  0
 63 65  1  0  0  0
 63137  1  0  0  0
 63138  1  0  0  0
 63139  1  0  0  0
 64140  1  0  0  0
 65141  1  0  0  0
 68 79  1  0  0  0
 71 72  2  0  0  0
 71 73  1  0  0  0
 71142  1  0  0  0
 72 75  1  0  0  0
 72143  1  0  0  0
 73 76  2  0  0  0
 73144  1  0  0  0
 74 75  2  0  0  0
 74 76  1  0  0  0
 74145  1  0  0  0
 75 80  1  0  0  0
 76 81  1  0  0  0
 77 78  1  0  0  0
 77 80  1  0  0  0
 77 82  2  0  0  0
 78 79  1  0  0  0
 78146  1  0  0  0
 78147  1  0  0  0
 79148  1  0  0  0
 79149  1  0  0  0
 80150  1  0  0  0
 81151  1  0  0  0
M  ISO  4   1 100  68 101  79 101  81 100
M  END
> <chiral flag>
0

> <version>
0

> <s_m_source_file>
/data/baiqing/PycharmProjects/Reinvent-master-3.2/result/LINK_invent/BTK/process_docking_weight1_custom_product_contain_oxygen_bond_distance_aromatic_linkinvent_7_9_3/rearranged_h_0065.sdf

> <i_m_source_file_index>
61

> <r_mmod_Potential_Energy-OPLS-2005>
140.410675048828

> <r_mmod_Stretch_Energy-OPLS-2005>
126.903961181641

> <r_mmod_Bend_Energy-OPLS-2005>
167.898818969727

> <r_mmod_Torsional_Energy-OPLS-2005>
232.681365966797

> <r_mmod_Improper_Torsional_Energy-OPLS-2005>
4.74691677093506

> <r_mmod_Van_der_Waal_Energy-OPLS-2005>
149.580291748047

> <r_mmod_Electrostatic_Energy-OPLS-2005>
-385.980712890625

> <r_mmod_Solvation_Energy-OPLS-2005>
-234.019821166992

> <b_mmod_Minimization_Converged-OPLS-2005>
0

> <r_mmod_RMS_Derivative-OPLS-2005>
1.03019344806671

$$$$
61
                    3D
 Structure written by MMmdl.
157165  0  0  1  0            999 V2000
  -30.7040  -14.4555   20.5198 C   0  0  0  0  0  0
  -30.4199  -12.2788   19.4259 C   0  0  0  0  0  0
  -29.4989  -12.4943   18.2069 C   0  0  0  0  0  0
  -28.0168  -12.3715   18.6157 C   0  0  0  0  0  0
  -27.6662  -13.2082   19.8757 C   0  0  2  0  0  0
  -28.7083  -12.9914   20.9976 C   0  0  0  0  0  0
  -25.2616  -13.8166   20.5664 C   0  0  0  0  0  0
  -24.1855  -13.0448   20.9148 C   0  0  0  0  0  0
  -24.6407  -11.6914   20.8712 C   0  0  0  0  0  0
  -23.9062  -10.4301   21.0392 C   0  0  0  0  0  0
  -24.3616   -9.4215   21.9170 C   0  0  0  0  0  0
  -23.6289   -8.2252   22.0755 C   0  0  0  0  0  0
  -22.4265   -8.0287   21.3551 C   0  0  0  0  0  0
  -21.9902   -9.0267   20.4652 C   0  0  0  0  0  0
  -22.7235  -10.2138   20.3047 C   0  0  0  0  0  0
  -21.6856   -6.0730   22.5272 C   0  0  0  0  0  0
  -21.4027   -6.5641   23.8203 C   0  0  0  0  0  0
  -21.3657   -5.6790   24.9164 C   0  0  0  0  0  0
  -21.6037   -4.3049   24.7218 C   0  0  0  0  0  0
  -21.8819   -3.8145   23.4338 C   0  0  0  0  0  0
  -21.9203   -4.6964   22.3390 C   0  0  0  0  0  0
  -22.7871  -13.5253   21.1816 C   0  0  0  0  0  0
  -22.1662   -4.2150   21.0965 F   0  0  0  0  0  0
  -21.5630   -3.4525   25.7730 F   0  0  0  0  0  0
  -30.0443  -13.2696   20.4446 N   0  0  0  0  0  0
  -26.3059  -12.9343   20.3357 N   0  0  0  0  0  0
  -25.9338  -11.6506   20.5762 N   0  0  0  0  0  0
  -22.0505  -12.8253   22.0374 N   0  0  0  0  0  0
  -25.4356  -15.1882   20.4076 N   0  0  0  0  0  0
  -31.8504  -14.6225   20.0945 O   0  0  0  0  0  0
  -21.6641   -6.8873   21.4230 O   0  0  0  0  0  0
  -22.3549  -14.5553   20.6661 O   0  0  0  0  0  0
  -24.6134  -31.8683   23.2104 C   0  0  0  0  0  0
  -25.9031  -32.4827   23.8395 C   0  0  1  0  0  0
  -27.2350  -27.4540   20.0956 C   0  0  0  0  0  0
  -25.5894  -33.8625   24.2333 N   0  0  0  0  0  0
  -23.4011  -30.4910   21.5498 C   0  0  2  0  0  0
  -24.8481  -28.9539   20.1173 C   0  0  0  0  0  0
  -22.7403  -29.4663   22.4994 C   0  0  0  0  0  0
  -18.0271  -28.1381   22.8498 C   0  0  0  0  0  0
  -24.1485  -36.7328   23.2639 C   0  0  0  0  0  0
  -25.9268  -30.8389   21.3599 C   0  0  0  0  0  0
  -26.0052  -29.4720   20.7137 C   0  0  0  0  0  0
  -27.2043  -28.7273   20.7022 C   0  0  0  0  0  0
  -26.0670  -26.9399   19.4979 C   0  0  0  0  0  0
  -24.8715  -27.6852   19.5088 C   0  0  0  0  0  0
  -23.6096  -29.8196   20.1655 C   0  0  0  0  0  0
  -25.4104  -36.3120   24.0340 C   0  0  1  0  0  0
  -20.5863  -28.3664   23.1330 C   0  0  2  0  0  0
  -20.6761  -26.9401   22.5423 C   0  0  0  0  0  0
  -19.5739  -26.6390   21.5219 C   0  0  0  0  0  0
  -18.1916  -26.7930   22.1627 C   0  0  0  0  0  0
  -19.1522  -28.8838   23.2912 C   0  0  0  0  0  0
  -18.9447  -30.1445   23.8920 C   0  0  0  0  0  0
  -17.6448  -30.6587   24.0569 C   0  0  0  0  0  0
  -25.9031  -34.9482   23.5136 C   0  0  0  0  0  0
  -16.5341  -29.9093   23.6323 C   0  0  0  0  0  0
  -16.7260  -28.6513   23.0342 C   0  0  0  0  0  0
  -26.4464  -31.6605   25.0720 C   0  0  0  0  0  0
  -25.3736  -31.3708   26.1481 C   0  0  0  0  0  0
  -27.0298  -30.3054   24.6079 C   0  0  0  0  0  0
  -27.6050  -32.4317   25.7479 C   0  0  0  0  0  0
  -27.5582  -37.1814   24.8460 C   0  0  0  0  0  0
  -21.4131  -29.3038   22.3740 N   0  0  0  0  0  0
  -26.4293  -37.3798   23.9412 N   0  0  0  0  0  0
  -24.6656  -31.0801   22.0991 N   0  0  0  0  0  0
  -23.4183  -28.8197   23.3025 O   0  0  0  0  0  0
  -28.3932  -26.7196   20.0741 O   0  0  0  0  0  0
  -26.5591  -34.8931   22.4693 O   0  0  0  0  0  0
  -23.5332  -32.1420   23.7511 O   0  0  0  0  0  0
  -29.7093  -17.9358   18.0669 C   0  0  0  0  0  0
  -29.7364  -16.7318   18.7897 C   0  0  0  0  0  0
  -30.0407  -17.9727   20.8608 C   0  0  0  0  0  0
  -29.8643  -19.1748   18.7230 C   0  0  0  0  0  0
  -29.9269  -16.7355   20.1898 C   0  0  0  0  0  0
  -30.0219  -19.1900   20.1367 C   0  0  0  0  0  0
  -28.5638  -24.2752   20.3311 C   0  0  0  0  0  0
  -29.8707  -20.4355   17.8731 C   0  0  0  0  0  0
  -28.8885  -23.0814   21.2330 C   0  0  0  0  0  0
  -28.4048  -25.6421   21.0192 C   0  0  0  0  0  0
  -29.9590  -15.5042   20.9078 N   0  0  0  0  0  0
  -29.0296  -21.8010   20.5182 N   0  0  0  0  0  0
  -28.4478  -24.1266   19.1077 O   0  0  0  0  0  0
  -29.9474  -20.4774   22.4942 O   0  0  0  0  0  0
  -31.5341  -21.3319   20.7079 O   0  0  0  0  0  0
  -30.2450  -20.7249   21.0742 S   0  0  0  0  0  0
  -31.4684  -12.3532   19.1319 H   0  0  0  0  0  0
  -30.2957  -11.2691   19.8202 H   0  0  0  0  0  0
  -29.7334  -11.7707   17.4246 H   0  0  0  0  0  0
  -29.6819  -13.4762   17.7698 H   0  0  0  0  0  0
  -27.8113  -11.3170   18.8025 H   0  0  0  0  0  0
  -27.3717  -12.6628   17.7862 H   0  0  0  0  0  0
  -27.7100  -14.2550   19.5760 H   0  0  0  0  0  0
  -28.6721  -11.9643   21.3627 H   0  0  0  0  0  0
  -28.4847  -13.6154   21.8645 H   0  0  0  0  0  0
  -25.2759   -9.5707   22.4739 H   0  0  0  0  0  0
  -24.0008   -7.4652   22.7474 H   0  0  0  0  0  0
  -21.0834   -8.8797   19.8960 H   0  0  0  0  0  0
  -22.3699  -10.9685   19.6154 H   0  0  0  0  0  0
  -21.2031   -7.6150   23.9707 H   0  0  0  0  0  0
  -21.1469   -6.0513   25.9065 H   0  0  0  0  0  0
  -22.0609   -2.7610   23.2823 H   0  0  0  0  0  0
  -22.4115  -11.9916   22.4779 H   0  0  0  0  0  0
  -21.1132  -13.1311   22.2584 H   0  0  0  0  0  0
  -24.6690  -15.8442   20.5079 H   0  0  0  0  0  0
  -26.2933  -15.6280   20.0980 H   0  0  0  0  0  0
  -26.7109  -32.5552   23.1166 H   0  0  0  0  0  0
  -25.0062  -33.9780   25.0492 H   0  0  0  0  0  0
  -22.6896  -31.3073   21.4100 H   0  0  0  0  0  0
  -23.3742  -35.9667   23.3304 H   0  0  0  0  0  0
  -24.3583  -36.8939   22.2054 H   0  0  0  0  0  0
  -23.7241  -37.6537   23.6645 H   0  0  0  0  0  0
  -26.0315  -31.6008   20.5862 H   0  0  0  0  0  0
  -26.8184  -30.8998   21.9725 H   0  0  0  0  0  0
  -28.0999  -29.1210   21.1624 H   0  0  0  0  0  0
  -26.0837  -25.9688   19.0219 H   0  0  0  0  0  0
  -23.9822  -27.2818   19.0451 H   0  0  0  0  0  0
  -23.7189  -30.5916   19.4029 H   0  0  0  0  0  0
  -22.7347  -29.2372   19.8710 H   0  0  0  0  0  0
  -25.1277  -36.1985   25.0833 H   0  0  0  0  0  0
  -20.9956  -28.3227   24.1449 H   0  0  0  0  0  0
  -20.5675  -26.2266   23.3604 H   0  0  0  0  0  0
  -21.6631  -26.7448   22.1211 H   0  0  0  0  0  0
  -19.6896  -25.6302   21.1244 H   0  0  0  0  0  0
  -19.6685  -27.3210   20.6755 H   0  0  0  0  0  0
  -17.4186  -26.6686   21.4022 H   0  0  0  0  0  0
  -18.0310  -26.0068   22.9021 H   0  0  0  0  0  0
  -19.7923  -30.7258   24.2297 H   0  0  0  0  0  0
  -17.5006  -31.6267   24.5170 H   0  0  0  0  0  0
  -15.5343  -30.3002   23.7631 H   0  0  0  0  0  0
  -15.8661  -28.0845   22.7033 H   0  0  0  0  0  0
  -24.5881  -30.7091   25.7811 H   0  0  0  0  0  0
  -24.8964  -32.2875   26.4967 H   0  0  0  0  0  0
  -25.8095  -30.8836   27.0213 H   0  0  0  0  0  0
  -26.2835  -29.6819   24.1144 H   0  0  0  0  0  0
  -27.4097  -29.7287   25.4522 H   0  0  0  0  0  0
  -27.8656  -30.4394   23.9204 H   0  0  0  0  0  0
  -27.2680  -33.3604   26.2097 H   0  0  0  0  0  0
  -28.3838  -32.6899   25.0289 H   0  0  0  0  0  0
  -28.0746  -31.8417   26.5360 H   0  0  0  0  0  0
  -28.2593  -38.0116   24.7516 H   0  0  0  0  0  0
  -28.1080  -36.2649   24.6265 H   0  0  0  0  0  0
  -27.2309  -37.1450   25.8865 H   0  0  0  0  0  0
  -20.9280  -29.8776   21.6984 H   0  0  0  0  0  0
  -26.0186  -38.2882   24.1401 H   0  0  0  0  0  0
  -29.5802  -17.8985   16.9935 H   0  0  0  0  0  0
  -29.6173  -15.8030   18.2503 H   0  0  0  0  0  0
  -30.1725  -17.9979   21.9327 H   0  0  0  0  0  0
  -30.0700  -20.2010   16.8271 H   0  0  0  0  0  0
  -30.6449  -21.1344   18.1895 H   0  0  0  0  0  0
  -28.9017  -20.9332   17.9147 H   0  0  0  0  0  0
  -28.1160  -22.9833   21.9962 H   0  0  0  0  0  0
  -29.8183  -23.3107   21.7547 H   0  0  0  0  0  0
  -29.2368  -25.7878   21.7083 H   0  0  0  0  0  0
  -27.4970  -25.6278   21.6250 H   0  0  0  0  0  0
  -29.1156  -15.2689   21.4106 H   0  0  0  0  0  0
  -29.1682  -21.9926   19.5232 H   0  0  0  0  0  0
  1 25  1  0  0  0
  1 30  2  0  0  0
  1 81  1  0  0  0
  2  3  1  0  0  0
  2 25  1  0  0  0
  2 87  1  0  0  0
  2 88  1  0  0  0
  3  4  1  0  0  0
  3 89  1  0  0  0
  3 90  1  0  0  0
  4  5  1  0  0  0
  4 91  1  0  0  0
  4 92  1  0  0  0
  5  6  1  0  0  0
  5 26  1  0  0  0
  5 93  1  0  0  0
  6 25  1  0  0  0
  6 94  1  0  0  0
  6 95  1  0  0  0
  7  8  2  0  0  0
  7 26  1  0  0  0
  7 29  1  0  0  0
  8  9  1  0  0  0
  8 22  1  0  0  0
  9 10  1  0  0  0
  9 27  2  0  0  0
 10 11  2  0  0  0
 10 15  1  0  0  0
 11 12  1  0  0  0
 11 96  1  0  0  0
 12 13  2  0  0  0
 12 97  1  0  0  0
 13 14  1  0  0  0
 13 31  1  0  0  0
 14 15  2  0  0  0
 14 98  1  0  0  0
 15 99  1  0  0  0
 16 17  2  0  0  0
 16 21  1  0  0  0
 16 31  1  0  0  0
 17 18  1  0  0  0
 17100  1  0  0  0
 18 19  2  0  0  0
 18101  1  0  0  0
 19 20  1  0  0  0
 19 24  1  0  0  0
 20 21  2  0  0  0
 20102  1  0  0  0
 21 23  1  0  0  0
 22 28  1  0  0  0
 22 32  2  0  0  0
 26 27  1  0  0  0
 28103  1  0  0  0
 28104  1  0  0  0
 29105  1  0  0  0
 29106  1  0  0  0
 33 34  1  0  0  0
 33 66  1  0  0  0
 33 70  2  0  0  0
 34 36  1  0  0  0
 34 59  1  0  0  0
 34107  1  0  0  0
 35 44  2  0  0  0
 35 45  1  0  0  0
 35 68  1  0  0  0
 36 56  1  0  0  0
 36108  1  0  0  0
 37 39  1  0  0  0
 37 47  1  0  0  0
 37 66  1  0  0  0
 37109  1  0  0  0
 38 43  2  0  0  0
 38 46  1  0  0  0
 38 47  1  0  0  0
 39 64  1  0  0  0
 39 67  2  0  0  0
 40 52  1  0  0  0
 40 53  2  0  0  0
 40 58  1  0  0  0
 41110  1  0  0  0
 41111  1  0  0  0
 41112  1  0  0  0
 41 48  1  0  0  0
 42 43  1  0  0  0
 42 66  1  0  0  0
 42113  1  0  0  0
 42114  1  0  0  0
 43 44  1  0  0  0
 44115  1  0  0  0
 45 46  2  0  0  0
 45116  1  0  0  0
 46117  1  0  0  0
 47118  1  0  0  0
 47119  1  0  0  0
 48 56  1  0  0  0
 48 65  1  0  0  0
 48120  1  0  0  0
 49 50  1  0  0  0
 49 53  1  0  0  0
 49 64  1  0  0  0
 49121  1  0  0  0
 50 51  1  0  0  0
 50122  1  0  0  0
 50123  1  0  0  0
 51 52  1  0  0  0
 51124  1  0  0  0
 51125  1  0  0  0
 52126  1  0  0  0
 52127  1  0  0  0
 53 54  1  0  0  0
 54 55  2  0  0  0
 54128  1  0  0  0
 55 57  1  0  0  0
 55129  1  0  0  0
 56 69  2  0  0  0
 57 58  2  0  0  0
 57130  1  0  0  0
 58131  1  0  0  0
 59 60  1  0  0  0
 59 61  1  0  0  0
 59 62  1  0  0  0
 60132  1  0  0  0
 60133  1  0  0  0
 60134  1  0  0  0
 61135  1  0  0  0
 61136  1  0  0  0
 61137  1  0  0  0
 62138  1  0  0  0
 62139  1  0  0  0
 62140  1  0  0  0
 63 65  1  0  0  0
 63141  1  0  0  0
 63142  1  0  0  0
 63143  1  0  0  0
 64144  1  0  0  0
 65145  1  0  0  0
 68 80  1  0  0  0
 71 72  2  0  0  0
 71 74  1  0  0  0
 71146  1  0  0  0
 72 75  1  0  0  0
 72147  1  0  0  0
 73 75  2  0  0  0
 73 76  1  0  0  0
 73148  1  0  0  0
 74 76  2  0  0  0
 74 78  1  0  0  0
 75 81  1  0  0  0
 76 86  1  0  0  0
 77 79  1  0  0  0
 77 80  1  0  0  0
 77 83  2  0  0  0
 78149  1  0  0  0
 78150  1  0  0  0
 78151  1  0  0  0
 79 82  1  0  0  0
 79152  1  0  0  0
 79153  1  0  0  0
 80154  1  0  0  0
 80155  1  0  0  0
 81156  1  0  0  0
 82157  1  0  0  0
 82 86  1  0  0  0
 84 86  2  0  0  0
 85 86  2  0  0  0
M  ISO  4   1 100  68 101  80 101  81 100
M  END
> <chiral flag>
0

> <version>
0

> <s_m_source_file>
/data/baiqing/PycharmProjects/Reinvent-master-3.2/result/LINK_invent/BTK/process_docking_weight1_custom_product_contain_oxygen_bond_distance_aromatic_linkinvent_7_9_3/rearranged_h_0065.sdf

> <i_m_source_file_index>
62

> <r_mmod_Potential_Energy-OPLS-2005>
-135.96826171875

> <r_mmod_Stretch_Energy-OPLS-2005>
34.9798889160156

> <r_mmod_Bend_Energy-OPLS-2005>
89.3571243286133

> <r_mmod_Torsional_Energy-OPLS-2005>
291.265197753906

> <r_mmod_Improper_Torsional_Energy-OPLS-2005>
12.247483253479

> <r_mmod_Van_der_Waal_Energy-OPLS-2005>
140.768295288086

> <r_mmod_Electrostatic_Energy-OPLS-2005>
-459.781860351562

> <r_mmod_Solvation_Energy-OPLS-2005>
-256.780181884766

> <b_mmod_Minimization_Converged-OPLS-2005>
0

> <r_mmod_RMS_Derivative-OPLS-2005>
1.87053716182709

$$$$
62
                    3D
 Structure written by MMmdl.
159168  0  0  1  0            999 V2000
  -30.5924  -14.8047   20.4496 C   0  0  0  0  0  0
  -30.4353  -12.4975   19.4679 C   0  0  0  0  0  0
  -29.5095  -12.5088   18.2320 C   0  0  0  0  0  0
  -28.0387  -12.3213   18.6524 C   0  0  0  0  0  0
  -27.6348  -13.2341   19.8407 C   0  0  2  0  0  0
  -28.6829  -13.2037   20.9726 C   0  0  0  0  0  0
  -25.2488  -13.8194   20.5706 C   0  0  0  0  0  0
  -24.1785  -13.0435   20.9218 C   0  0  0  0  0  0
  -24.6380  -11.6915   20.8753 C   0  0  0  0  0  0
  -23.9058  -10.4291   21.0409 C   0  0  0  0  0  0
  -24.3611   -9.4203   21.9181 C   0  0  0  0  0  0
  -23.6287   -8.2239   22.0752 C   0  0  0  0  0  0
  -22.4269   -8.0279   21.3542 C   0  0  0  0  0  0
  -21.9901   -9.0253   20.4648 C   0  0  0  0  0  0
  -22.7230  -10.2130   20.3057 C   0  0  0  0  0  0
  -21.6857   -6.0732   22.5276 C   0  0  0  0  0  0
  -21.4021   -6.5637   23.8208 C   0  0  0  0  0  0
  -21.3657   -5.6791   24.9170 C   0  0  0  0  0  0
  -21.6041   -4.3052   24.7223 C   0  0  0  0  0  0
  -21.8820   -3.8142   23.4347 C   0  0  0  0  0  0
  -21.9195   -4.6960   22.3403 C   0  0  0  0  0  0
  -22.7807  -13.5217   21.1869 C   0  0  0  0  0  0
  -22.1663   -4.2146   21.0982 F   0  0  0  0  0  0
  -21.5621   -3.4537   25.7736 F   0  0  0  0  0  0
  -29.9698  -13.5744   20.3736 N   0  0  0  0  0  0
  -26.2906  -12.9403   20.3255 N   0  0  0  0  0  0
  -25.9308  -11.6542   20.5737 N   0  0  0  0  0  0
  -22.0456  -12.8215   22.0433 N   0  0  0  0  0  0
  -25.4146  -15.1926   20.4134 N   0  0  0  0  0  0
  -31.8000  -14.8744   20.2031 O   0  0  0  0  0  0
  -21.6636   -6.8875   21.4237 O   0  0  0  0  0  0
  -22.3493  -14.5523   20.6712 O   0  0  0  0  0  0
  -24.6341  -31.8520   23.1949 C   0  0  0  0  0  0
  -25.9152  -32.4737   23.8309 C   0  0  1  0  0  0
  -27.2216  -27.2326   20.1432 C   0  0  0  0  0  0
  -25.5932  -33.8540   24.2233 N   0  0  0  0  0  0
  -23.4330  -30.4716   21.5395 C   0  0  2  0  0  0
  -24.8824  -28.9069   20.1180 C   0  0  0  0  0  0
  -22.7517  -29.4577   22.4911 C   0  0  0  0  0  0
  -18.0295  -28.1386   22.8484 C   0  0  0  0  0  0
  -24.1489  -36.7278   23.2640 C   0  0  0  0  0  0
  -25.9807  -30.7558   21.3790 C   0  0  0  0  0  0
  -26.0554  -29.3726   20.7279 C   0  0  0  0  0  0
  -27.2314  -28.5488   20.7263 C   0  0  0  0  0  0
  -26.0262  -26.8347   19.5133 C   0  0  0  0  0  0
  -24.8733  -27.6462   19.4999 C   0  0  0  0  0  0
  -23.6548  -29.7994   20.1589 C   0  0  0  0  0  0
  -25.4116  -36.3057   24.0322 C   0  0  1  0  0  0
  -20.5900  -28.3695   23.1268 C   0  0  2  0  0  0
  -20.6781  -26.9410   22.5412 C   0  0  0  0  0  0
  -19.5758  -26.6380   21.5215 C   0  0  0  0  0  0
  -18.1937  -26.7928   22.1625 C   0  0  0  0  0  0
  -19.1549  -28.8859   23.2871 C   0  0  0  0  0  0
  -18.9467  -30.1460   23.8888 C   0  0  0  0  0  0
  -17.6465  -30.6584   24.0560 C   0  0  0  0  0  0
  -25.9058  -34.9430   23.5083 C   0  0  0  0  0  0
  -16.5358  -29.9079   23.6331 C   0  0  0  0  0  0
  -16.7282  -28.6499   23.0352 C   0  0  0  0  0  0
  -26.4503  -31.6576   25.0714 C   0  0  0  0  0  0
  -25.3716  -31.3743   26.1428 C   0  0  0  0  0  0
  -27.0357  -30.2988   24.6224 C   0  0  0  0  0  0
  -27.6047  -32.4327   25.7494 C   0  0  0  0  0  0
  -27.5578  -37.1792   24.8461 C   0  0  0  0  0  0
  -21.4222  -29.3036   22.3654 N   0  0  0  0  0  0
  -26.4286  -37.3761   23.9407 N   0  0  0  0  0  0
  -24.7018  -31.0458   22.0939 N   0  0  0  0  0  0
  -23.4201  -28.8129   23.3030 O   0  0  0  0  0  0
  -28.3036  -26.3191   20.1084 O   0  0  0  0  0  0
  -26.5640  -34.8913   22.4657 O   0  0  0  0  0  0
  -23.5483  -32.1355   23.7224 O   0  0  0  0  0  0
  -31.6240  -18.9368   22.0284 C   0  0  0  0  0  0
  -31.2540  -17.6350   21.6459 C   0  0  0  0  0  0
  -29.4417  -18.6035   20.3477 C   0  0  0  0  0  0
  -30.9395  -20.0881   21.5807 C   0  0  0  0  0  0
  -29.8089  -19.9809   20.7200 C   0  0  0  0  0  0
  -30.1580  -17.3967   20.7940 C   0  0  0  0  0  0
  -28.5875  -23.7513   20.2697 C   0  0  0  0  0  0
  -29.5104  -21.8241   19.0355 C   0  0  0  0  0  0
  -28.1935  -25.0219   20.7094 C   0  0  0  0  0  0
  -28.5575  -22.3800   21.0460 C   0  0  0  0  0  0
  -29.1406  -23.3311   18.9263 C   0  0  2  0  0  0
  -31.5034  -21.4292   22.0332 C   0  0  0  0  0  0
  -30.3185  -24.2035   18.4573 C   0  0  0  0  0  0
  -29.1791  -21.2603   20.2232 N   0  0  0  0  0  0
  -29.8048  -15.9636   20.5179 N   0  0  0  0  0  0
  -30.0472  -21.2252   18.0973 O   0  0  0  0  0  0
  -31.4722  -12.6397   19.1589 H   0  0  0  0  0  0
  -30.4005  -11.5308   19.9731 H   0  0  0  0  0  0
  -29.8015  -11.7243   17.5325 H   0  0  0  0  0  0
  -29.6214  -13.4535   17.6971 H   0  0  0  0  0  0
  -27.9094  -11.2752   18.9322 H   0  0  0  0  0  0
  -27.3778  -12.4921   17.8020 H   0  0  0  0  0  0
  -27.6148  -14.2470   19.4389 H   0  0  0  0  0  0
  -28.7393  -12.2154   21.4308 H   0  0  0  0  0  0
  -28.4113  -13.9002   21.7682 H   0  0  0  0  0  0
  -25.2756   -9.5676   22.4751 H   0  0  0  0  0  0
  -23.9998   -7.4627   22.7466 H   0  0  0  0  0  0
  -21.0827   -8.8764   19.8958 H   0  0  0  0  0  0
  -22.3680  -10.9664   19.6165 H   0  0  0  0  0  0
  -21.2020   -7.6146   23.9711 H   0  0  0  0  0  0
  -21.1476   -6.0521   25.9072 H   0  0  0  0  0  0
  -22.0602   -2.7603   23.2848 H   0  0  0  0  0  0
  -22.4086  -11.9890   22.4828 H   0  0  0  0  0  0
  -21.1071  -13.1232   22.2641 H   0  0  0  0  0  0
  -24.6397  -15.8388   20.5203 H   0  0  0  0  0  0
  -26.2532  -15.6380   20.0654 H   0  0  0  0  0  0
  -26.7219  -32.5381   23.1053 H   0  0  0  0  0  0
  -25.0057  -33.9669   25.0361 H   0  0  0  0  0  0
  -22.7307  -31.2940   21.3886 H   0  0  0  0  0  0
  -23.3751  -35.9611   23.3295 H   0  0  0  0  0  0
  -24.3581  -36.8913   22.2056 H   0  0  0  0  0  0
  -23.7248  -37.6476   23.6676 H   0  0  0  0  0  0
  -26.1203  -31.5115   20.6046 H   0  0  0  0  0  0
  -26.8575  -30.8100   22.0128 H   0  0  0  0  0  0
  -28.1346  -28.9028   21.2031 H   0  0  0  0  0  0
  -25.9822  -25.8644   19.0389 H   0  0  0  0  0  0
  -23.9758  -27.2829   19.0187 H   0  0  0  0  0  0
  -23.7834  -30.5722   19.4002 H   0  0  0  0  0  0
  -22.7726  -29.2341   19.8535 H   0  0  0  0  0  0
  -25.1300  -36.1893   25.0815 H   0  0  0  0  0  0
  -20.9991  -28.3275   24.1389 H   0  0  0  0  0  0
  -20.5674  -26.2305   23.3618 H   0  0  0  0  0  0
  -21.6650  -26.7425   22.1209 H   0  0  0  0  0  0
  -19.6916  -25.6289   21.1248 H   0  0  0  0  0  0
  -19.6695  -27.3188   20.6743 H   0  0  0  0  0  0
  -17.4206  -26.6675   21.4028 H   0  0  0  0  0  0
  -18.0335  -26.0072   22.9022 H   0  0  0  0  0  0
  -19.7942  -30.7283   24.2251 H   0  0  0  0  0  0
  -17.5016  -31.6263   24.5164 H   0  0  0  0  0  0
  -15.5357  -30.2973   23.7660 H   0  0  0  0  0  0
  -15.8685  -28.0813   22.7069 H   0  0  0  0  0  0
  -24.5889  -30.7095   25.7757 H   0  0  0  0  0  0
  -24.8909  -32.2919   26.4828 H   0  0  0  0  0  0
  -25.8017  -30.8934   27.0222 H   0  0  0  0  0  0
  -26.2951  -29.6732   24.1228 H   0  0  0  0  0  0
  -27.4006  -29.7256   25.4757 H   0  0  0  0  0  0
  -27.8840  -30.4254   23.9496 H   0  0  0  0  0  0
  -27.2643  -33.3633   26.2048 H   0  0  0  0  0  0
  -28.3867  -32.6880   25.0332 H   0  0  0  0  0  0
  -28.0703  -31.8471   26.5431 H   0  0  0  0  0  0
  -28.2585  -38.0098   24.7511 H   0  0  0  0  0  0
  -28.1084  -36.2630   24.6277 H   0  0  0  0  0  0
  -27.2301  -37.1430   25.8866 H   0  0  0  0  0  0
  -20.9417  -29.8748   21.6846 H   0  0  0  0  0  0
  -26.0160  -38.2830   24.1411 H   0  0  0  0  0  0
  -32.4761  -19.0470   22.6848 H   0  0  0  0  0  0
  -31.8275  -16.8088   22.0415 H   0  0  0  0  0  0
  -28.5919  -18.4745   19.6925 H   0  0  0  0  0  0
  -27.7956  -25.1284   21.7094 H   0  0  0  0  0  0
  -27.5184  -22.1193   21.2477 H   0  0  0  0  0  0
  -29.0420  -22.4940   22.0134 H   0  0  0  0  0  0
  -28.3297  -23.4066   18.2014 H   0  0  0  0  0  0
  -32.5697  -21.3477   22.2459 H   0  0  0  0  0  0
  -31.0129  -21.7581   22.9495 H   0  0  0  0  0  0
  -31.4008  -22.2079   21.2787 H   0  0  0  0  0  0
  -31.1280  -24.2043   19.1878 H   0  0  0  0  0  0
  -30.0051  -25.2364   18.3048 H   0  0  0  0  0  0
  -30.7237  -23.8452   17.5103 H   0  0  0  0  0  0
  -28.8178  -15.7846   20.4193 H   0  0  0  0  0  0
  1 25  1  0  0  0
  1 30  2  0  0  0
  1 85  1  0  0  0
  2  3  1  0  0  0
  2 25  1  0  0  0
  2 87  1  0  0  0
  2 88  1  0  0  0
  3  4  1  0  0  0
  3 89  1  0  0  0
  3 90  1  0  0  0
  4  5  1  0  0  0
  4 91  1  0  0  0
  4 92  1  0  0  0
  5  6  1  0  0  0
  5 26  1  0  0  0
  5 93  1  0  0  0
  6 25  1  0  0  0
  6 94  1  0  0  0
  6 95  1  0  0  0
  7  8  2  0  0  0
  7 26  1  0  0  0
  7 29  1  0  0  0
  8  9  1  0  0  0
  8 22  1  0  0  0
  9 10  1  0  0  0
  9 27  2  0  0  0
 10 11  2  0  0  0
 10 15  1  0  0  0
 11 12  1  0  0  0
 11 96  1  0  0  0
 12 13  2  0  0  0
 12 97  1  0  0  0
 13 14  1  0  0  0
 13 31  1  0  0  0
 14 15  2  0  0  0
 14 98  1  0  0  0
 15 99  1  0  0  0
 16 17  2  0  0  0
 16 21  1  0  0  0
 16 31  1  0  0  0
 17 18  1  0  0  0
 17100  1  0  0  0
 18 19  2  0  0  0
 18101  1  0  0  0
 19 20  1  0  0  0
 19 24  1  0  0  0
 20 21  2  0  0  0
 20102  1  0  0  0
 21 23  1  0  0  0
 22 28  1  0  0  0
 22 32  2  0  0  0
 26 27  1  0  0  0
 28103  1  0  0  0
 28104  1  0  0  0
 29105  1  0  0  0
 29106  1  0  0  0
 33 34  1  0  0  0
 33 66  1  0  0  0
 33 70  2  0  0  0
 34 36  1  0  0  0
 34 59  1  0  0  0
 34107  1  0  0  0
 35 44  2  0  0  0
 35 45  1  0  0  0
 35 68  1  0  0  0
 36 56  1  0  0  0
 36108  1  0  0  0
 37 39  1  0  0  0
 37 47  1  0  0  0
 37 66  1  0  0  0
 37109  1  0  0  0
 38 43  2  0  0  0
 38 46  1  0  0  0
 38 47  1  0  0  0
 39 64  1  0  0  0
 39 67  2  0  0  0
 40 52  1  0  0  0
 40 53  2  0  0  0
 40 58  1  0  0  0
 41110  1  0  0  0
 41111  1  0  0  0
 41112  1  0  0  0
 41 48  1  0  0  0
 42 43  1  0  0  0
 42 66  1  0  0  0
 42113  1  0  0  0
 42114  1  0  0  0
 43 44  1  0  0  0
 44115  1  0  0  0
 45 46  2  0  0  0
 45116  1  0  0  0
 46117  1  0  0  0
 47118  1  0  0  0
 47119  1  0  0  0
 48 56  1  0  0  0
 48 65  1  0  0  0
 48120  1  0  0  0
 49 50  1  0  0  0
 49 53  1  0  0  0
 49 64  1  0  0  0
 49121  1  0  0  0
 50 51  1  0  0  0
 50122  1  0  0  0
 50123  1  0  0  0
 51 52  1  0  0  0
 51124  1  0  0  0
 51125  1  0  0  0
 52126  1  0  0  0
 52127  1  0  0  0
 53 54  1  0  0  0
 54 55  2  0  0  0
 54128  1  0  0  0
 55 57  1  0  0  0
 55129  1  0  0  0
 56 69  2  0  0  0
 57 58  2  0  0  0
 57130  1  0  0  0
 58131  1  0  0  0
 59 60  1  0  0  0
 59 61  1  0  0  0
 59 62  1  0  0  0
 60132  1  0  0  0
 60133  1  0  0  0
 60134  1  0  0  0
 61135  1  0  0  0
 61136  1  0  0  0
 61137  1  0  0  0
 62138  1  0  0  0
 62139  1  0  0  0
 62140  1  0  0  0
 63 65  1  0  0  0
 63141  1  0  0  0
 63142  1  0  0  0
 63143  1  0  0  0
 64144  1  0  0  0
 65145  1  0  0  0
 68 79  1  0  0  0
 71 72  2  0  0  0
 71 74  1  0  0  0
 71146  1  0  0  0
 72 76  1  0  0  0
 72147  1  0  0  0
 73 75  1  0  0  0
 73 76  2  0  0  0
 73148  1  0  0  0
 74 75  2  0  0  0
 74 82  1  0  0  0
 75 84  1  0  0  0
 76 85  1  0  0  0
 77 79  2  0  0  0
 77 80  1  0  0  0
 77 81  1  0  0  0
 78 81  1  0  0  0
 78 84  1  0  0  0
 78 86  2  0  0  0
 79149  1  0  0  0
 80 84  1  0  0  0
 80150  1  0  0  0
 80151  1  0  0  0
 81 83  1  0  0  0
 81152  1  0  0  0
 82153  1  0  0  0
 82154  1  0  0  0
 82155  1  0  0  0
 83156  1  0  0  0
 83157  1  0  0  0
 83158  1  0  0  0
 85159  1  0  0  0
M  ISO  4   1 100  68 101  79 101  85 100
M  END
> <chiral flag>
0

> <version>
0

> <s_m_source_file>
/data/baiqing/PycharmProjects/Reinvent-master-3.2/result/LINK_invent/BTK/process_docking_weight1_custom_product_contain_oxygen_bond_distance_aromatic_linkinvent_7_9_3/rearranged_h_0065.sdf

> <i_m_source_file_index>
63

> <r_mmod_Potential_Energy-OPLS-2005>
333.414703369141

> <r_mmod_Stretch_Energy-OPLS-2005>
143.149368286133

> <r_mmod_Bend_Energy-OPLS-2005>
201.131072998047

> <r_mmod_Torsional_Energy-OPLS-2005>
303.269622802734

> <r_mmod_Improper_Torsional_Energy-OPLS-2005>
8.19668483734131

> <r_mmod_Van_der_Waal_Energy-OPLS-2005>
128.448989868164

> <r_mmod_Electrostatic_Energy-OPLS-2005>
-339.991027832031

> <r_mmod_Solvation_Energy-OPLS-2005>
-219.975067138672

> <b_mmod_Minimization_Converged-OPLS-2005>
0

> <r_mmod_RMS_Derivative-OPLS-2005>
0.854923605918884

$$$$
63
                    3D
 Structure written by MMmdl.
161170  0  0  1  0            999 V2000
  -30.6158  -14.6414   20.5029 C   0  0  0  0  0  0
  -30.4435  -12.3944   19.4489 C   0  0  0  0  0  0
  -29.5094  -12.5070   18.2228 C   0  0  0  0  0  0
  -28.0319  -12.3436   18.6350 C   0  0  0  0  0  0
  -27.6545  -13.2130   19.8633 C   0  0  2  0  0  0
  -28.7006  -13.0633   20.9917 C   0  0  0  0  0  0
  -25.2566  -13.8156   20.5672 C   0  0  0  0  0  0
  -24.1834  -13.0432   20.9200 C   0  0  0  0  0  0
  -24.6397  -11.6901   20.8747 C   0  0  0  0  0  0
  -23.9063  -10.4287   21.0410 C   0  0  0  0  0  0
  -24.3615   -9.4202   21.9186 C   0  0  0  0  0  0
  -23.6288   -8.2240   22.0755 C   0  0  0  0  0  0
  -22.4271   -8.0280   21.3546 C   0  0  0  0  0  0
  -21.9904   -9.0255   20.4649 C   0  0  0  0  0  0
  -22.7235  -10.2133   20.3058 C   0  0  0  0  0  0
  -21.6851   -6.0733   22.5278 C   0  0  0  0  0  0
  -21.4014   -6.5637   23.8211 C   0  0  0  0  0  0
  -21.3658   -5.6790   24.9173 C   0  0  0  0  0  0
  -21.6043   -4.3053   24.7224 C   0  0  0  0  0  0
  -21.8821   -3.8145   23.4345 C   0  0  0  0  0  0
  -21.9193   -4.6961   22.3401 C   0  0  0  0  0  0
  -22.7856  -13.5230   21.1853 C   0  0  0  0  0  0
  -22.1663   -4.2147   21.0979 F   0  0  0  0  0  0
  -21.5626   -3.4538   25.7738 F   0  0  0  0  0  0
  -30.0159  -13.4111   20.4293 N   0  0  0  0  0  0
  -26.2995  -12.9331   20.3313 N   0  0  0  0  0  0
  -25.9324  -11.6491   20.5759 N   0  0  0  0  0  0
  -22.0493  -12.8230   22.0411 N   0  0  0  0  0  0
  -25.4269  -15.1873   20.4040 N   0  0  0  0  0  0
  -31.7828  -14.8117   20.1361 O   0  0  0  0  0  0
  -21.6637   -6.8876   21.4240 O   0  0  0  0  0  0
  -22.3545  -14.5534   20.6695 O   0  0  0  0  0  0
  -24.6266  -31.8605   23.2036 C   0  0  0  0  0  0
  -25.9115  -32.4781   23.8361 C   0  0  1  0  0  0
  -27.2228  -27.3213   20.1129 C   0  0  0  0  0  0
  -25.5932  -33.8581   24.2288 N   0  0  0  0  0  0
  -23.4198  -30.4859   21.5467 C   0  0  2  0  0  0
  -24.8656  -28.9449   20.1112 C   0  0  0  0  0  0
  -22.7477  -29.4629   22.4936 C   0  0  0  0  0  0
  -18.0289  -28.1384   22.8484 C   0  0  0  0  0  0
  -24.1491  -36.7296   23.2636 C   0  0  0  0  0  0
  -25.9622  -30.7923   21.3752 C   0  0  0  0  0  0
  -26.0364  -29.4214   20.7144 C   0  0  0  0  0  0
  -27.2189  -28.6224   20.7043 C   0  0  0  0  0  0
  -26.0252  -26.9004   19.4865 C   0  0  0  0  0  0
  -24.8620  -27.6895   19.4886 C   0  0  0  0  0  0
  -23.6342  -29.8250   20.1609 C   0  0  0  0  0  0
  -25.4113  -36.3084   24.0329 C   0  0  1  0  0  0
  -20.5889  -28.3689   23.1282 C   0  0  2  0  0  0
  -20.6780  -26.9411   22.5409 C   0  0  0  0  0  0
  -19.5756  -26.6382   21.5211 C   0  0  0  0  0  0
  -18.1935  -26.7927   22.1622 C   0  0  0  0  0  0
  -19.1541  -28.8853   23.2879 C   0  0  0  0  0  0
  -18.9462  -30.1455   23.8896 C   0  0  0  0  0  0
  -17.6462  -30.6584   24.0564 C   0  0  0  0  0  0
  -25.9051  -34.9452   23.5107 C   0  0  0  0  0  0
  -16.5354  -29.9083   23.6328 C   0  0  0  0  0  0
  -16.7276  -28.6501   23.0347 C   0  0  0  0  0  0
  -26.4497  -31.6586   25.0728 C   0  0  0  0  0  0
  -25.3731  -31.3728   26.1457 C   0  0  0  0  0  0
  -27.0334  -30.3006   24.6184 C   0  0  0  0  0  0
  -27.6058  -32.4318   25.7499 C   0  0  0  0  0  0
  -27.5582  -37.1801   24.8460 C   0  0  0  0  0  0
  -21.4190  -29.3043   22.3676 N   0  0  0  0  0  0
  -26.4291  -37.3778   23.9408 N   0  0  0  0  0  0
  -24.6884  -31.0623   22.0986 N   0  0  0  0  0  0
  -23.4202  -28.8163   23.3010 O   0  0  0  0  0  0
  -28.3363  -26.4646   20.1617 O   0  0  0  0  0  0
  -26.5615  -34.8918   22.4670 O   0  0  0  0  0  0
  -23.5430  -32.1402   23.7367 O   0  0  0  0  0  0
  -28.6727  -19.2975   20.3571 C   0  0  0  0  0  0
  -28.6769  -17.8789   20.4885 C   0  0  0  0  0  0
  -31.0610  -17.8920   20.7586 C   0  0  0  0  0  0
  -31.0647  -19.3213   20.6615 C   0  0  0  0  0  0
  -29.8627  -20.0693   20.4084 C   0  0  0  0  0  0
  -29.8693  -17.1292   20.6669 C   0  0  0  0  0  0
  -30.5780  -22.2476   19.3563 C   0  0  0  0  0  0
  -30.2188  -23.7395   19.3344 C   0  0  0  0  0  0
  -28.7215  -22.4453   20.6567 C   0  0  0  0  0  0
  -29.2056  -23.9453   20.4747 C   0  0  1  0  0  0
  -32.3995  -20.0124   20.8943 C   0  0  0  0  0  0
  -29.9163  -24.3912   21.7696 C   0  0  0  0  0  0
  -28.0678  -25.0067   20.1261 C   0  0  0  0  0  0
  -29.8106  -21.5339   20.2097 N   0  0  0  0  0  0
  -29.7783  -15.6776   20.8235 N   0  0  0  0  0  0
  -31.4675  -21.8016   18.6260 O   0  0  0  0  0  0
  -31.4831  -12.5284   19.1445 H   0  0  0  0  0  0
  -30.3864  -11.3975   19.8886 H   0  0  0  0  0  0
  -29.7736  -11.7556   17.4777 H   0  0  0  0  0  0
  -29.6506  -13.4763   17.7418 H   0  0  0  0  0  0
  -27.8683  -11.2902   18.8654 H   0  0  0  0  0  0
  -27.3777  -12.5747   17.7936 H   0  0  0  0  0  0
  -27.6727  -14.2481   19.5225 H   0  0  0  0  0  0
  -28.7137  -12.0393   21.3679 H   0  0  0  0  0  0
  -28.4464  -13.6894   21.8485 H   0  0  0  0  0  0
  -25.2760   -9.5676   22.4760 H   0  0  0  0  0  0
  -23.9997   -7.4628   22.7472 H   0  0  0  0  0  0
  -21.0834   -8.8776   19.8955 H   0  0  0  0  0  0
  -22.3696  -10.9674   19.6169 H   0  0  0  0  0  0
  -21.2009   -7.6146   23.9713 H   0  0  0  0  0  0
  -21.1477   -6.0521   25.9075 H   0  0  0  0  0  0
  -22.0602   -2.7607   23.2848 H   0  0  0  0  0  0
  -22.4100  -11.9894   22.4810 H   0  0  0  0  0  0
  -21.1113  -13.1264   22.2611 H   0  0  0  0  0  0
  -24.6523  -15.8358   20.4942 H   0  0  0  0  0  0
  -26.2553  -15.6145   20.0120 H   0  0  0  0  0  0
  -26.7184  -32.5451   23.1111 H   0  0  0  0  0  0
  -25.0086  -33.9726   25.0437 H   0  0  0  0  0  0
  -22.7136  -31.3068   21.4058 H   0  0  0  0  0  0
  -23.3751  -35.9630   23.3297 H   0  0  0  0  0  0
  -24.3586  -36.8916   22.2051 H   0  0  0  0  0  0
  -23.7246  -37.6499   23.6659 H   0  0  0  0  0  0
  -26.0959  -31.5581   20.6098 H   0  0  0  0  0  0
  -26.8419  -30.8379   22.0056 H   0  0  0  0  0  0
  -28.1167  -28.9831   21.1864 H   0  0  0  0  0  0
  -25.9511  -25.9444   18.9924 H   0  0  0  0  0  0
  -23.9651  -27.3186   19.0116 H   0  0  0  0  0  0
  -23.7548  -30.6036   19.4068 H   0  0  0  0  0  0
  -22.7536  -29.2563   19.8563 H   0  0  0  0  0  0
  -25.1291  -36.1938   25.0822 H   0  0  0  0  0  0
  -20.9982  -28.3265   24.1402 H   0  0  0  0  0  0
  -20.5685  -26.2295   23.3607 H   0  0  0  0  0  0
  -21.6650  -26.7444   22.1201 H   0  0  0  0  0  0
  -19.6918  -25.6294   21.1240 H   0  0  0  0  0  0
  -19.6692  -27.3192   20.6742 H   0  0  0  0  0  0
  -17.4204  -26.6672   21.4026 H   0  0  0  0  0  0
  -18.0335  -26.0070   22.9019 H   0  0  0  0  0  0
  -19.7938  -30.7271   24.2264 H   0  0  0  0  0  0
  -17.5016  -31.6263   24.5167 H   0  0  0  0  0  0
  -15.5355  -30.2984   23.7652 H   0  0  0  0  0  0
  -15.8676  -28.0822   22.7059 H   0  0  0  0  0  0
  -24.5906  -30.7074   25.7792 H   0  0  0  0  0  0
  -24.8922  -32.2897   26.4877 H   0  0  0  0  0  0
  -25.8057  -30.8913   27.0235 H   0  0  0  0  0  0
  -26.2906  -29.6760   24.1206 H   0  0  0  0  0  0
  -27.4024  -29.7257   25.4688 H   0  0  0  0  0  0
  -27.8781  -30.4284   23.9411 H   0  0  0  0  0  0
  -27.2667  -33.3613   26.2084 H   0  0  0  0  0  0
  -28.3864  -32.6886   25.0326 H   0  0  0  0  0  0
  -28.0731  -31.8438   26.5409 H   0  0  0  0  0  0
  -28.2593  -38.0105   24.7517 H   0  0  0  0  0  0
  -28.1086  -36.2638   24.6272 H   0  0  0  0  0  0
  -27.2304  -37.1434   25.8864 H   0  0  0  0  0  0
  -20.9365  -29.8770   21.6892 H   0  0  0  0  0  0
  -26.0174  -38.2852   24.1413 H   0  0  0  0  0  0
  -27.7257  -19.7928   20.1947 H   0  0  0  0  0  0
  -27.7289  -17.3630   20.4374 H   0  0  0  0  0  0
  -31.9943  -17.3779   20.9419 H   0  0  0  0  0  0
  -29.7778  -23.9649   18.3633 H   0  0  0  0  0  0
  -31.1073  -24.3611   19.4468 H   0  0  0  0  0  0
  -27.8436  -22.2568   20.0365 H   0  0  0  0  0  0
  -28.4348  -22.2292   21.6865 H   0  0  0  0  0  0
  -33.0204  -19.4347   21.5799 H   0  0  0  0  0  0
  -32.2723  -20.9991   21.3395 H   0  0  0  0  0  0
  -32.9490  -20.1148   19.9587 H   0  0  0  0  0  0
  -30.7052  -23.6979   22.0638 H   0  0  0  0  0  0
  -29.2125  -24.4581   22.6002 H   0  0  0  0  0  0
  -30.3720  -25.3751   21.6513 H   0  0  0  0  0  0
  -27.2430  -24.8166   20.8155 H   0  0  0  0  0  0
  -27.6963  -24.7485   19.1344 H   0  0  0  0  0  0
  -28.8555  -15.3459   21.0574 H   0  0  0  0  0  0
  1 25  1  0  0  0
  1 30  2  0  0  0
  1 85  1  0  0  0
  2  3  1  0  0  0
  2 25  1  0  0  0
  2 87  1  0  0  0
  2 88  1  0  0  0
  3  4  1  0  0  0
  3 89  1  0  0  0
  3 90  1  0  0  0
  4  5  1  0  0  0
  4 91  1  0  0  0
  4 92  1  0  0  0
  5  6  1  0  0  0
  5 26  1  0  0  0
  5 93  1  0  0  0
  6 25  1  0  0  0
  6 94  1  0  0  0
  6 95  1  0  0  0
  7  8  2  0  0  0
  7 26  1  0  0  0
  7 29  1  0  0  0
  8  9  1  0  0  0
  8 22  1  0  0  0
  9 10  1  0  0  0
  9 27  2  0  0  0
 10 11  2  0  0  0
 10 15  1  0  0  0
 11 12  1  0  0  0
 11 96  1  0  0  0
 12 13  2  0  0  0
 12 97  1  0  0  0
 13 14  1  0  0  0
 13 31  1  0  0  0
 14 15  2  0  0  0
 14 98  1  0  0  0
 15 99  1  0  0  0
 16 17  2  0  0  0
 16 21  1  0  0  0
 16 31  1  0  0  0
 17 18  1  0  0  0
 17100  1  0  0  0
 18 19  2  0  0  0
 18101  1  0  0  0
 19 20  1  0  0  0
 19 24  1  0  0  0
 20 21  2  0  0  0
 20102  1  0  0  0
 21 23  1  0  0  0
 22 28  1  0  0  0
 22 32  2  0  0  0
 26 27  1  0  0  0
 28103  1  0  0  0
 28104  1  0  0  0
 29105  1  0  0  0
 29106  1  0  0  0
 33 34  1  0  0  0
 33 66  1  0  0  0
 33 70  2  0  0  0
 34 36  1  0  0  0
 34 59  1  0  0  0
 34107  1  0  0  0
 35 44  2  0  0  0
 35 45  1  0  0  0
 35 68  1  0  0  0
 36 56  1  0  0  0
 36108  1  0  0  0
 37 39  1  0  0  0
 37 47  1  0  0  0
 37 66  1  0  0  0
 37109  1  0  0  0
 38 43  2  0  0  0
 38 46  1  0  0  0
 38 47  1  0  0  0
 39 64  1  0  0  0
 39 67  2  0  0  0
 40 52  1  0  0  0
 40 53  2  0  0  0
 40 58  1  0  0  0
 41110  1  0  0  0
 41111  1  0  0  0
 41112  1  0  0  0
 41 48  1  0  0  0
 42 43  1  0  0  0
 42 66  1  0  0  0
 42113  1  0  0  0
 42114  1  0  0  0
 43 44  1  0  0  0
 44115  1  0  0  0
 45 46  2  0  0  0
 45116  1  0  0  0
 46117  1  0  0  0
 47118  1  0  0  0
 47119  1  0  0  0
 48 56  1  0  0  0
 48 65  1  0  0  0
 48120  1  0  0  0
 49 50  1  0  0  0
 49 53  1  0  0  0
 49 64  1  0  0  0
 49121  1  0  0  0
 50 51  1  0  0  0
 50122  1  0  0  0
 50123  1  0  0  0
 51 52  1  0  0  0
 51124  1  0  0  0
 51125  1  0  0  0
 52126  1  0  0  0
 52127  1  0  0  0
 53 54  1  0  0  0
 54 55  2  0  0  0
 54128  1  0  0  0
 55 57  1  0  0  0
 55129  1  0  0  0
 56 69  2  0  0  0
 57 58  2  0  0  0
 57130  1  0  0  0
 58131  1  0  0  0
 59 60  1  0  0  0
 59 61  1  0  0  0
 59 62  1  0  0  0
 60132  1  0  0  0
 60133  1  0  0  0
 60134  1  0  0  0
 61135  1  0  0  0
 61136  1  0  0  0
 61137  1  0  0  0
 62138  1  0  0  0
 62139  1  0  0  0
 62140  1  0  0  0
 63 65  1  0  0  0
 63141  1  0  0  0
 63142  1  0  0  0
 63143  1  0  0  0
 64144  1  0  0  0
 65145  1  0  0  0
 68 83  1  0  0  0
 71 72  2  0  0  0
 71 75  1  0  0  0
 71146  1  0  0  0
 72 76  1  0  0  0
 72147  1  0  0  0
 73 74  1  0  0  0
 73 76  2  0  0  0
 73148  1  0  0  0
 74 75  2  0  0  0
 74 81  1  0  0  0
 75 84  1  0  0  0
 76 85  1  0  0  0
 77 78  1  0  0  0
 77 84  1  0  0  0
 77 86  2  0  0  0
 78 80  1  0  0  0
 78149  1  0  0  0
 78150  1  0  0  0
 79 80  1  0  0  0
 79 84  1  0  0  0
 79151  1  0  0  0
 79152  1  0  0  0
 80 82  1  0  0  0
 80 83  1  0  0  0
 81153  1  0  0  0
 81154  1  0  0  0
 81155  1  0  0  0
 82156  1  0  0  0
 82157  1  0  0  0
 82158  1  0  0  0
 83159  1  0  0  0
 83160  1  0  0  0
 85161  1  0  0  0
M  ISO  4   1 100  68 101  83 101  85 100
M  END
> <chiral flag>
0

> <version>
0

> <s_m_source_file>
/data/baiqing/PycharmProjects/Reinvent-master-3.2/result/LINK_invent/BTK/process_docking_weight1_custom_product_contain_oxygen_bond_distance_aromatic_linkinvent_7_9_3/rearranged_h_0065.sdf

> <i_m_source_file_index>
64

> <r_mmod_Potential_Energy-OPLS-2005>
152.436569213867

> <r_mmod_Stretch_Energy-OPLS-2005>
81.3562774658203

> <r_mmod_Bend_Energy-OPLS-2005>
164.196914672852

> <r_mmod_Torsional_Energy-OPLS-2005>
288.173248291016

> <r_mmod_Improper_Torsional_Energy-OPLS-2005>
5.64258003234863

> <r_mmod_Van_der_Waal_Energy-OPLS-2005>
144.045608520508

> <r_mmod_Electrostatic_Energy-OPLS-2005>
-357.372985839844

> <r_mmod_Solvation_Energy-OPLS-2005>
-222.777954101562

> <b_mmod_Minimization_Converged-OPLS-2005>
0

> <r_mmod_RMS_Derivative-OPLS-2005>
0.348473399877548

$$$$
64
                    3D
 Structure written by MMmdl.
152160  0  0  1  0            999 V2000
  -30.5856  -14.8225   20.4523 C   0  0  0  0  0  0
  -30.4393  -12.5096   19.4729 C   0  0  0  0  0  0
  -29.5114  -12.5030   18.2382 C   0  0  0  0  0  0
  -28.0424  -12.3080   18.6622 C   0  0  0  0  0  0
  -27.6342  -13.2328   19.8391 C   0  0  2  0  0  0
  -28.6811  -13.2160   20.9719 C   0  0  0  0  0  0
  -25.2490  -13.8192   20.5697 C   0  0  0  0  0  0
  -24.1788  -13.0434   20.9220 C   0  0  0  0  0  0
  -24.6382  -11.6914   20.8757 C   0  0  0  0  0  0
  -23.9065  -10.4290   21.0414 C   0  0  0  0  0  0
  -24.3614   -9.4207   21.9196 C   0  0  0  0  0  0
  -23.6290   -8.2239   22.0758 C   0  0  0  0  0  0
  -22.4277   -8.0276   21.3538 C   0  0  0  0  0  0
  -21.9914   -9.0252   20.4639 C   0  0  0  0  0  0
  -22.7241  -10.2131   20.3056 C   0  0  0  0  0  0
  -21.6852   -6.0729   22.5277 C   0  0  0  0  0  0
  -21.4014   -6.5637   23.8208 C   0  0  0  0  0  0
  -21.3659   -5.6792   24.9170 C   0  0  0  0  0  0
  -21.6046   -4.3053   24.7226 C   0  0  0  0  0  0
  -21.8817   -3.8142   23.4348 C   0  0  0  0  0  0
  -21.9193   -4.6958   22.3401 C   0  0  0  0  0  0
  -22.7808  -13.5218   21.1885 C   0  0  0  0  0  0
  -22.1660   -4.2146   21.0976 F   0  0  0  0  0  0
  -21.5632   -3.4533   25.7736 F   0  0  0  0  0  0
  -29.9666  -13.5896   20.3708 N   0  0  0  0  0  0
  -26.2905  -12.9395   20.3252 N   0  0  0  0  0  0
  -25.9312  -11.6543   20.5762 N   0  0  0  0  0  0
  -22.0449  -12.8192   22.0425 N   0  0  0  0  0  0
  -25.4161  -15.1916   20.4093 N   0  0  0  0  0  0
  -31.7960  -14.8981   20.2233 O   0  0  0  0  0  0
  -21.6636   -6.8873   21.4239 O   0  0  0  0  0  0
  -22.3488  -14.5523   20.6739 O   0  0  0  0  0  0
  -24.6347  -31.8527   23.1944 C   0  0  0  0  0  0
  -25.9155  -32.4743   23.8309 C   0  0  1  0  0  0
  -27.2236  -27.2279   20.1426 C   0  0  0  0  0  0
  -25.5933  -33.8548   24.2248 N   0  0  0  0  0  0
  -23.4345  -30.4718   21.5381 C   0  0  2  0  0  0
  -24.8847  -28.9086   20.1154 C   0  0  0  0  0  0
  -22.7521  -29.4580   22.4892 C   0  0  0  0  0  0
  -18.0295  -28.1385   22.8492 C   0  0  0  0  0  0
  -24.1487  -36.7264   23.2640 C   0  0  0  0  0  0
  -25.9822  -30.7559   21.3791 C   0  0  0  0  0  0
  -26.0573  -29.3722   20.7271 C   0  0  0  0  0  0
  -27.2309  -28.5442   20.7287 C   0  0  0  0  0  0
  -26.0289  -26.8374   19.5055 C   0  0  0  0  0  0
  -24.8763  -27.6500   19.4933 C   0  0  0  0  0  0
  -23.6568  -29.8003   20.1570 C   0  0  0  0  0  0
  -25.4114  -36.3066   24.0334 C   0  0  1  0  0  0
  -20.5914  -28.3703   23.1272 C   0  0  2  0  0  0
  -20.6788  -26.9419   22.5413 C   0  0  0  0  0  0
  -19.5755  -26.6390   21.5224 C   0  0  0  0  0  0
  -18.1932  -26.7928   22.1628 C   0  0  0  0  0  0
  -19.1555  -28.8856   23.2875 C   0  0  0  0  0  0
  -18.9469  -30.1454   23.8895 C   0  0  0  0  0  0
  -17.6466  -30.6580   24.0567 C   0  0  0  0  0  0
  -25.9060  -34.9441   23.5098 C   0  0  0  0  0  0
  -16.5356  -29.9079   23.6337 C   0  0  0  0  0  0
  -16.7284  -28.6500   23.0353 C   0  0  0  0  0  0
  -26.4520  -31.6567   25.0702 C   0  0  0  0  0  0
  -25.3733  -31.3711   26.1408 C   0  0  0  0  0  0
  -27.0383  -30.2990   24.6195 C   0  0  0  0  0  0
  -27.6060  -32.4310   25.7484 C   0  0  0  0  0  0
  -27.5578  -37.1784   24.8465 C   0  0  0  0  0  0
  -21.4223  -29.3044   22.3644 N   0  0  0  0  0  0
  -26.4286  -37.3771   23.9416 N   0  0  0  0  0  0
  -24.7034  -31.0458   22.0934 N   0  0  0  0  0  0
  -23.4206  -28.8137   23.3010 O   0  0  0  0  0  0
  -28.3063  -26.3086   20.1285 O   0  0  0  0  0  0
  -26.5634  -34.8927   22.4667 O   0  0  0  0  0  0
  -23.5487  -32.1360   23.7214 O   0  0  0  0  0  0
  -29.4786  -18.6314   20.3134 C   0  0  0  0  0  0
  -31.0148  -17.6142   21.8976 C   0  0  0  0  0  0
  -30.7005  -20.0689   21.8668 C   0  0  0  0  0  0
  -30.0979  -17.4063   20.8495 C   0  0  0  0  0  0
  -29.7559  -19.9955   20.7997 C   0  0  0  0  0  0
  -31.3005  -18.8991   22.3958 C   0  0  0  0  0  0
  -28.8059  -23.7848   20.1470 C   0  0  0  0  0  0
  -28.1342  -24.9439   20.5563 C   0  0  0  0  0  0
  -28.6484  -22.4032   20.7715 C   0  0  0  0  0  0
  -31.1354  -21.4057   22.4578 C   0  0  0  0  0  0
  -29.2749  -21.2928   20.1923 N   0  0  0  0  0  0
  -29.7916  -15.9793   20.4858 N   0  0  0  0  0  0
  -27.9768  -22.2356   21.7918 O   0  0  0  0  0  0
  -32.1882  -19.0000   23.4151 F   0  0  0  0  0  0
  -31.4732  -12.6597   19.1597 H   0  0  0  0  0  0
  -30.4137  -11.5471   19.9861 H   0  0  0  0  0  0
  -29.8088  -11.7130   17.5470 H   0  0  0  0  0  0
  -29.6135  -13.4427   17.6933 H   0  0  0  0  0  0
  -27.9262  -11.2653   18.9602 H   0  0  0  0  0  0
  -27.3759  -12.4555   17.8117 H   0  0  0  0  0  0
  -27.6108  -14.2424   19.4288 H   0  0  0  0  0  0
  -28.7410  -12.2324   21.4388 H   0  0  0  0  0  0
  -28.4049  -13.9179   21.7607 H   0  0  0  0  0  0
  -25.2757   -9.5682   22.4774 H   0  0  0  0  0  0
  -23.9995   -7.4627   22.7476 H   0  0  0  0  0  0
  -21.0850   -8.8769   19.8934 H   0  0  0  0  0  0
  -22.3710  -10.9668   19.6159 H   0  0  0  0  0  0
  -21.2005   -7.6144   23.9713 H   0  0  0  0  0  0
  -21.1485   -6.0517   25.9073 H   0  0  0  0  0  0
  -22.0599   -2.7605   23.2845 H   0  0  0  0  0  0
  -22.4063  -11.9839   22.4783 H   0  0  0  0  0  0
  -21.1067  -13.1199   22.2641 H   0  0  0  0  0  0
  -24.6451  -15.8421   20.5147 H   0  0  0  0  0  0
  -26.2567  -15.6321   20.0611 H   0  0  0  0  0  0
  -26.7226  -32.5396   23.1050 H   0  0  0  0  0  0
  -25.0092  -33.9672   25.0408 H   0  0  0  0  0  0
  -22.7342  -31.2957   21.3870 H   0  0  0  0  0  0
  -23.3770  -35.9573   23.3288 H   0  0  0  0  0  0
  -24.3585  -36.8903   22.2057 H   0  0  0  0  0  0
  -23.7217  -37.6449   23.6674 H   0  0  0  0  0  0
  -26.1206  -31.5130   20.6058 H   0  0  0  0  0  0
  -26.8596  -30.8110   22.0117 H   0  0  0  0  0  0
  -28.1304  -28.8944   21.2161 H   0  0  0  0  0  0
  -25.9818  -25.8712   19.0240 H   0  0  0  0  0  0
  -23.9790  -27.2883   19.0099 H   0  0  0  0  0  0
  -23.7844  -30.5733   19.3990 H   0  0  0  0  0  0
  -22.7758  -29.2332   19.8507 H   0  0  0  0  0  0
  -25.1294  -36.1907   25.0828 H   0  0  0  0  0  0
  -21.0001  -28.3270   24.1395 H   0  0  0  0  0  0
  -20.5708  -26.2295   23.3613 H   0  0  0  0  0  0
  -21.6648  -26.7455   22.1186 H   0  0  0  0  0  0
  -19.6926  -25.6309   21.1228 H   0  0  0  0  0  0
  -19.6691  -27.3222   20.6776 H   0  0  0  0  0  0
  -17.4213  -26.6703   21.4015 H   0  0  0  0  0  0
  -18.0312  -26.0062   22.9015 H   0  0  0  0  0  0
  -19.7944  -30.7274   24.2257 H   0  0  0  0  0  0
  -17.5021  -31.6264   24.5158 H   0  0  0  0  0  0
  -15.5357  -30.2972   23.7663 H   0  0  0  0  0  0
  -15.8690  -28.0818   22.7060 H   0  0  0  0  0  0
  -24.5945  -30.7023   25.7731 H   0  0  0  0  0  0
  -24.8882  -32.2870   26.4785 H   0  0  0  0  0  0
  -25.8045  -30.8926   27.0212 H   0  0  0  0  0  0
  -26.2981  -29.6704   24.1233 H   0  0  0  0  0  0
  -27.4092  -29.7278   25.4716 H   0  0  0  0  0  0
  -27.8842  -30.4273   23.9437 H   0  0  0  0  0  0
  -27.2683  -33.3655   26.1973 H   0  0  0  0  0  0
  -28.3917  -32.6785   25.0334 H   0  0  0  0  0  0
  -28.0665  -31.8475   26.5463 H   0  0  0  0  0  0
  -28.2571  -38.0104   24.7537 H   0  0  0  0  0  0
  -28.1095  -36.2630   24.6259 H   0  0  0  0  0  0
  -27.2292  -37.1399   25.8866 H   0  0  0  0  0  0
  -20.9402  -29.8752   21.6842 H   0  0  0  0  0  0
  -26.0160  -38.2840   24.1431 H   0  0  0  0  0  0
  -28.7763  -18.5240   19.4987 H   0  0  0  0  0  0
  -31.5053  -16.7743   22.3658 H   0  0  0  0  0  0
  -29.5279  -23.8879   19.3509 H   0  0  0  0  0  0
  -27.3866  -24.8878   21.3360 H   0  0  0  0  0  0
  -30.3425  -21.8205   23.0805 H   0  0  0  0  0  0
  -31.3821  -22.1237   21.6756 H   0  0  0  0  0  0
  -32.0202  -21.3141   23.0870 H   0  0  0  0  0  0
  -29.6124  -21.4623   19.2544 H   0  0  0  0  0  0
  -28.8134  -15.7901   20.3338 H   0  0  0  0  0  0
  1 25  1  0  0  0
  1 30  2  0  0  0
  1 82  1  0  0  0
  2  3  1  0  0  0
  2 25  1  0  0  0
  2 85  1  0  0  0
  2 86  1  0  0  0
  3  4  1  0  0  0
  3 87  1  0  0  0
  3 88  1  0  0  0
  4  5  1  0  0  0
  4 89  1  0  0  0
  4 90  1  0  0  0
  5  6  1  0  0  0
  5 26  1  0  0  0
  5 91  1  0  0  0
  6 25  1  0  0  0
  6 92  1  0  0  0
  6 93  1  0  0  0
  7  8  2  0  0  0
  7 26  1  0  0  0
  7 29  1  0  0  0
  8  9  1  0  0  0
  8 22  1  0  0  0
  9 10  1  0  0  0
  9 27  2  0  0  0
 10 11  2  0  0  0
 10 15  1  0  0  0
 11 12  1  0  0  0
 11 94  1  0  0  0
 12 13  2  0  0  0
 12 95  1  0  0  0
 13 14  1  0  0  0
 13 31  1  0  0  0
 14 15  2  0  0  0
 14 96  1  0  0  0
 15 97  1  0  0  0
 16 17  2  0  0  0
 16 21  1  0  0  0
 16 31  1  0  0  0
 17 18  1  0  0  0
 17 98  1  0  0  0
 18 19  2  0  0  0
 18 99  1  0  0  0
 19 20  1  0  0  0
 19 24  1  0  0  0
 20 21  2  0  0  0
 20100  1  0  0  0
 21 23  1  0  0  0
 22 28  1  0  0  0
 22 32  2  0  0  0
 26 27  1  0  0  0
 28101  1  0  0  0
 28102  1  0  0  0
 29103  1  0  0  0
 29104  1  0  0  0
 33 34  1  0  0  0
 33 66  1  0  0  0
 33 70  2  0  0  0
 34 36  1  0  0  0
 34 59  1  0  0  0
 34105  1  0  0  0
 35 44  2  0  0  0
 35 45  1  0  0  0
 35 68  1  0  0  0
 36 56  1  0  0  0
 36106  1  0  0  0
 37 39  1  0  0  0
 37 47  1  0  0  0
 37 66  1  0  0  0
 37107  1  0  0  0
 38 43  2  0  0  0
 38 46  1  0  0  0
 38 47  1  0  0  0
 39 64  1  0  0  0
 39 67  2  0  0  0
 40 52  1  0  0  0
 40 53  2  0  0  0
 40 58  1  0  0  0
 41108  1  0  0  0
 41109  1  0  0  0
 41110  1  0  0  0
 41 48  1  0  0  0
 42 43  1  0  0  0
 42 66  1  0  0  0
 42111  1  0  0  0
 42112  1  0  0  0
 43 44  1  0  0  0
 44113  1  0  0  0
 45 46  2  0  0  0
 45114  1  0  0  0
 46115  1  0  0  0
 47116  1  0  0  0
 47117  1  0  0  0
 48 56  1  0  0  0
 48 65  1  0  0  0
 48118  1  0  0  0
 49 50  1  0  0  0
 49 53  1  0  0  0
 49 64  1  0  0  0
 49119  1  0  0  0
 50 51  1  0  0  0
 50120  1  0  0  0
 50121  1  0  0  0
 51 52  1  0  0  0
 51122  1  0  0  0
 51123  1  0  0  0
 52124  1  0  0  0
 52125  1  0  0  0
 53 54  1  0  0  0
 54 55  2  0  0  0
 54126  1  0  0  0
 55 57  1  0  0  0
 55127  1  0  0  0
 56 69  2  0  0  0
 57 58  2  0  0  0
 57128  1  0  0  0
 58129  1  0  0  0
 59 60  1  0  0  0
 59 61  1  0  0  0
 59 62  1  0  0  0
 60130  1  0  0  0
 60131  1  0  0  0
 60132  1  0  0  0
 61133  1  0  0  0
 61134  1  0  0  0
 61135  1  0  0  0
 62136  1  0  0  0
 62137  1  0  0  0
 62138  1  0  0  0
 63 65  1  0  0  0
 63139  1  0  0  0
 63140  1  0  0  0
 63141  1  0  0  0
 64142  1  0  0  0
 65143  1  0  0  0
 68 78  1  0  0  0
 71 74  2  0  0  0
 71 75  1  0  0  0
 71144  1  0  0  0
 72 74  1  0  0  0
 72 76  2  0  0  0
 72145  1  0  0  0
 73 75  2  0  0  0
 73 76  1  0  0  0
 73 80  1  0  0  0
 74 82  1  0  0  0
 75 81  1  0  0  0
 76 84  1  0  0  0
 77 78  2  0  0  0
 77 79  1  0  0  0
 77146  1  0  0  0
 78147  1  0  0  0
 79 81  1  0  0  0
 79 83  2  0  0  0
 80148  1  0  0  0
 80149  1  0  0  0
 80150  1  0  0  0
 81151  1  0  0  0
 82152  1  0  0  0
M  ISO  4   1 100  68 101  78 101  82 100
M  END
> <chiral flag>
0

> <version>
0

> <s_m_source_file>
/data/baiqing/PycharmProjects/Reinvent-master-3.2/result/LINK_invent/BTK/process_docking_weight1_custom_product_contain_oxygen_bond_distance_aromatic_linkinvent_7_9_3/rearranged_h_0065.sdf

> <i_m_source_file_index>
65

> <r_mmod_Potential_Energy-OPLS-2005>
248.461059570312

> <r_mmod_Stretch_Energy-OPLS-2005>
152.740753173828

> <r_mmod_Bend_Energy-OPLS-2005>
166.643112182617

> <r_mmod_Torsional_Energy-OPLS-2005>
272.050750732422

> <r_mmod_Improper_Torsional_Energy-OPLS-2005>
9.12741756439209

> <r_mmod_Van_der_Waal_Energy-OPLS-2005>
139.477172851562

> <r_mmod_Electrostatic_Energy-OPLS-2005>
-379.645385742188

> <r_mmod_Solvation_Energy-OPLS-2005>
-229.201797485352

> <b_mmod_Minimization_Converged-OPLS-2005>
0

> <r_mmod_RMS_Derivative-OPLS-2005>
1.48711609840393

$$$$
65
                    3D
 Structure written by MMmdl.
161170  0  0  1  0            999 V2000
  -30.6267  -14.6326   20.5139 C   0  0  0  0  0  0
  -30.4388  -12.3899   19.4554 C   0  0  0  0  0  0
  -29.5091  -12.5125   18.2271 C   0  0  0  0  0  0
  -28.0311  -12.3515   18.6359 C   0  0  0  0  0  0
  -27.6555  -13.2171   19.8681 C   0  0  2  0  0  0
  -28.6987  -13.0621   20.9980 C   0  0  0  0  0  0
  -25.2550  -13.8161   20.5653 C   0  0  0  0  0  0
  -24.1827  -13.0431   20.9187 C   0  0  0  0  0  0
  -24.6400  -11.6905   20.8744 C   0  0  0  0  0  0
  -23.9070  -10.4288   21.0411 C   0  0  0  0  0  0
  -24.3617   -9.4205   21.9189 C   0  0  0  0  0  0
  -23.6291   -8.2241   22.0759 C   0  0  0  0  0  0
  -22.4274   -8.0281   21.3546 C   0  0  0  0  0  0
  -21.9912   -9.0254   20.4647 C   0  0  0  0  0  0
  -22.7243  -10.2133   20.3058 C   0  0  0  0  0  0
  -21.6851   -6.0737   22.5280 C   0  0  0  0  0  0
  -21.4012   -6.5640   23.8214 C   0  0  0  0  0  0
  -21.3656   -5.6793   24.9175 C   0  0  0  0  0  0
  -21.6044   -4.3056   24.7224 C   0  0  0  0  0  0
  -21.8819   -3.8149   23.4345 C   0  0  0  0  0  0
  -21.9192   -4.6966   22.3402 C   0  0  0  0  0  0
  -22.7849  -13.5227   21.1845 C   0  0  0  0  0  0
  -22.1661   -4.2153   21.0979 F   0  0  0  0  0  0
  -21.5627   -3.4541   25.7737 F   0  0  0  0  0  0
  -30.0172  -13.4064   20.4408 N   0  0  0  0  0  0
  -26.2997  -12.9352   20.3333 N   0  0  0  0  0  0
  -25.9333  -11.6507   20.5775 N   0  0  0  0  0  0
  -22.0484  -12.8221   22.0396 N   0  0  0  0  0  0
  -25.4220  -15.1870   20.3982 N   0  0  0  0  0  0
  -31.7778  -14.7984   20.0989 O   0  0  0  0  0  0
  -21.6637   -6.8879   21.4242 O   0  0  0  0  0  0
  -22.3538  -14.5537   20.6694 O   0  0  0  0  0  0
  -24.6261  -31.8608   23.2036 C   0  0  0  0  0  0
  -25.9115  -32.4783   23.8354 C   0  0  1  0  0  0
  -27.2230  -27.3232   20.1125 C   0  0  0  0  0  0
  -25.5936  -33.8582   24.2288 N   0  0  0  0  0  0
  -23.4185  -30.4858   21.5466 C   0  0  2  0  0  0
  -24.8647  -28.9450   20.1101 C   0  0  0  0  0  0
  -22.7470  -29.4629   22.4940 C   0  0  0  0  0  0
  -18.0288  -28.1379   22.8481 C   0  0  0  0  0  0
  -24.1490  -36.7285   23.2636 C   0  0  0  0  0  0
  -25.9601  -30.7936   21.3733 C   0  0  0  0  0  0
  -26.0347  -29.4221   20.7144 C   0  0  0  0  0  0
  -27.2167  -28.6231   20.7067 C   0  0  0  0  0  0
  -26.0280  -26.9040   19.4795 C   0  0  0  0  0  0
  -24.8631  -27.6909   19.4844 C   0  0  0  0  0  0
  -23.6325  -29.8235   20.1610 C   0  0  0  0  0  0
  -25.4113  -36.3081   24.0332 C   0  0  1  0  0  0
  -20.5888  -28.3681   23.1285 C   0  0  2  0  0  0
  -20.6780  -26.9406   22.5406 C   0  0  0  0  0  0
  -19.5756  -26.6382   21.5207 C   0  0  0  0  0  0
  -18.1935  -26.7922   22.1619 C   0  0  0  0  0  0
  -19.1540  -28.8846   23.2878 C   0  0  0  0  0  0
  -18.9467  -30.1448   23.8897 C   0  0  0  0  0  0
  -17.6468  -30.6583   24.0560 C   0  0  0  0  0  0
  -25.9056  -34.9452   23.5108 C   0  0  0  0  0  0
  -16.5358  -29.9082   23.6332 C   0  0  0  0  0  0
  -16.7275  -28.6500   23.0351 C   0  0  0  0  0  0
  -26.4505  -31.6581   25.0714 C   0  0  0  0  0  0
  -25.3741  -31.3702   26.1437 C   0  0  0  0  0  0
  -27.0353  -30.3016   24.6140 C   0  0  0  0  0  0
  -27.6060  -32.4309   25.7499 C   0  0  0  0  0  0
  -27.5577  -37.1798   24.8465 C   0  0  0  0  0  0
  -21.4186  -29.3041   22.3684 N   0  0  0  0  0  0
  -26.4288  -37.3776   23.9414 N   0  0  0  0  0  0
  -24.6872  -31.0625   22.0984 N   0  0  0  0  0  0
  -23.4198  -28.8167   23.3013 O   0  0  0  0  0  0
  -28.3359  -26.4659   20.1719 O   0  0  0  0  0  0
  -26.5612  -34.8919   22.4667 O   0  0  0  0  0  0
  -23.5429  -32.1401   23.7372 O   0  0  0  0  0  0
  -30.7914  -19.2086   19.7556 C   0  0  0  0  0  0
  -30.8204  -17.7937   19.9285 C   0  0  0  0  0  0
  -28.9396  -19.3786   21.2648 C   0  0  0  0  0  0
  -28.9618  -17.9594   21.4475 C   0  0  0  0  0  0
  -29.8552  -20.0598   20.4186 C   0  0  0  0  0  0
  -29.9054  -17.1224   20.7787 C   0  0  0  0  0  0
  -30.8070  -22.3158   19.7441 C   0  0  0  0  0  0
  -28.6745  -22.4261   20.5681 C   0  0  0  0  0  0
  -30.3928  -23.7929   19.5977 C   0  0  1  0  0  0
  -29.1535  -23.9302   20.4888 C   0  0  1  0  0  0
  -27.9405  -17.3407   22.3878 C   0  0  0  0  0  0
  -31.5206  -24.7793   19.9536 C   0  0  0  0  0  0
  -28.0832  -25.0130   20.0274 C   0  0  0  0  0  0
  -29.8207  -21.5319   20.2419 N   0  0  0  0  0  0
  -29.8419  -15.6671   20.9523 N   0  0  0  0  0  0
  -31.9482  -21.9513   19.4434 O   0  0  0  0  0  0
  -31.4802  -12.5139   19.1537 H   0  0  0  0  0  0
  -30.3727  -11.3916   19.8910 H   0  0  0  0  0  0
  -29.7728  -11.7652   17.4773 H   0  0  0  0  0  0
  -29.6528  -13.4848   17.7532 H   0  0  0  0  0  0
  -27.8634  -11.2974   18.8604 H   0  0  0  0  0  0
  -27.3785  -12.5895   17.7948 H   0  0  0  0  0  0
  -27.6773  -14.2550   19.5353 H   0  0  0  0  0  0
  -28.7077  -12.0368   21.3710 H   0  0  0  0  0  0
  -28.4414  -13.6843   21.8563 H   0  0  0  0  0  0
  -25.2762   -9.5681   22.4765 H   0  0  0  0  0  0
  -23.9999   -7.4634   22.7481 H   0  0  0  0  0  0
  -21.0844   -8.8773   19.8952 H   0  0  0  0  0  0
  -22.3704  -10.9671   19.6165 H   0  0  0  0  0  0
  -21.2004   -7.6147   23.9718 H   0  0  0  0  0  0
  -21.1477   -6.0522   25.9077 H   0  0  0  0  0  0
  -22.0599   -2.7613   23.2844 H   0  0  0  0  0  0
  -22.4091  -11.9874   22.4775 H   0  0  0  0  0  0
  -21.1105  -13.1254   22.2597 H   0  0  0  0  0  0
  -24.6465  -15.8340   20.4876 H   0  0  0  0  0  0
  -26.2568  -15.6200   20.0246 H   0  0  0  0  0  0
  -26.7177  -32.5461   23.1098 H   0  0  0  0  0  0
  -25.0102  -33.9731   25.0445 H   0  0  0  0  0  0
  -22.7119  -31.3063   21.4048 H   0  0  0  0  0  0
  -23.3762  -35.9606   23.3292 H   0  0  0  0  0  0
  -24.3583  -36.8909   22.2051 H   0  0  0  0  0  0
  -23.7231  -37.6481   23.6661 H   0  0  0  0  0  0
  -26.0881  -31.5578   20.6054 H   0  0  0  0  0  0
  -26.8423  -30.8434   21.9997 H   0  0  0  0  0  0
  -28.1126  -28.9828   21.1929 H   0  0  0  0  0  0
  -25.9583  -25.9485   18.9824 H   0  0  0  0  0  0
  -23.9669  -27.3200   19.0063 H   0  0  0  0  0  0
  -23.7498  -30.6011   19.4057 H   0  0  0  0  0  0
  -22.7531  -29.2522   19.8580 H   0  0  0  0  0  0
  -25.1291  -36.1929   25.0824 H   0  0  0  0  0  0
  -20.9977  -28.3250   24.1406 H   0  0  0  0  0  0
  -20.5688  -26.2286   23.3599 H   0  0  0  0  0  0
  -21.6649  -26.7439   22.1196 H   0  0  0  0  0  0
  -19.6926  -25.6294   21.1232 H   0  0  0  0  0  0
  -19.6703  -27.3196   20.6740 H   0  0  0  0  0  0
  -17.4205  -26.6669   21.4020 H   0  0  0  0  0  0
  -18.0337  -26.0059   22.9012 H   0  0  0  0  0  0
  -19.7945  -30.7259   24.2269 H   0  0  0  0  0  0
  -17.5027  -31.6267   24.5153 H   0  0  0  0  0  0
  -15.5360  -30.2986   23.7661 H   0  0  0  0  0  0
  -15.8672  -28.0822   22.7069 H   0  0  0  0  0  0
  -24.5936  -30.7032   25.7760 H   0  0  0  0  0  0
  -24.8915  -32.2862   26.4854 H   0  0  0  0  0  0
  -25.8072  -30.8888   27.0214 H   0  0  0  0  0  0
  -26.2920  -29.6763   24.1183 H   0  0  0  0  0  0
  -27.4099  -29.7267   25.4620 H   0  0  0  0  0  0
  -27.8765  -30.4326   23.9328 H   0  0  0  0  0  0
  -27.2676  -33.3621   26.2051 H   0  0  0  0  0  0
  -28.3896  -32.6840   25.0345 H   0  0  0  0  0  0
  -28.0693  -31.8441   26.5438 H   0  0  0  0  0  0
  -28.2578  -38.0111   24.7528 H   0  0  0  0  0  0
  -28.1091  -36.2642   24.6272 H   0  0  0  0  0  0
  -27.2297  -37.1419   25.8867 H   0  0  0  0  0  0
  -20.9359  -29.8766   21.6901 H   0  0  0  0  0  0
  -26.0169  -38.2848   24.1428 H   0  0  0  0  0  0
  -31.5147  -19.6208   19.0689 H   0  0  0  0  0  0
  -31.5559  -17.2300   19.3730 H   0  0  0  0  0  0
  -28.1992  -19.9537   21.8019 H   0  0  0  0  0  0
  -27.8828  -22.2398   19.8416 H   0  0  0  0  0  0
  -28.2682  -22.2089   21.5557 H   0  0  0  0  0  0
  -30.1056  -23.9347   18.5551 H   0  0  0  0  0  0
  -29.4801  -24.2076   21.4925 H   0  0  0  0  0  0
  -27.3275  -18.1003   22.8736 H   0  0  0  0  0  0
  -28.4363  -16.7664   23.1709 H   0  0  0  0  0  0
  -27.2718  -16.6753   21.8439 H   0  0  0  0  0  0
  -31.9108  -24.5968   20.9555 H   0  0  0  0  0  0
  -31.1659  -25.8093   19.9164 H   0  0  0  0  0  0
  -32.3527  -24.6936   19.2538 H   0  0  0  0  0  0
  -27.1802  -24.7838   20.5958 H   0  0  0  0  0  0
  -27.8445  -24.8125   18.9820 H   0  0  0  0  0  0
  -28.9857  -15.3417   21.3730 H   0  0  0  0  0  0
  1 25  1  0  0  0
  1 30  2  0  0  0
  1 85  1  0  0  0
  2  3  1  0  0  0
  2 25  1  0  0  0
  2 87  1  0  0  0
  2 88  1  0  0  0
  3  4  1  0  0  0
  3 89  1  0  0  0
  3 90  1  0  0  0
  4  5  1  0  0  0
  4 91  1  0  0  0
  4 92  1  0  0  0
  5  6  1  0  0  0
  5 26  1  0  0  0
  5 93  1  0  0  0
  6 25  1  0  0  0
  6 94  1  0  0  0
  6 95  1  0  0  0
  7  8  2  0  0  0
  7 26  1  0  0  0
  7 29  1  0  0  0
  8  9  1  0  0  0
  8 22  1  0  0  0
  9 10  1  0  0  0
  9 27  2  0  0  0
 10 11  2  0  0  0
 10 15  1  0  0  0
 11 12  1  0  0  0
 11 96  1  0  0  0
 12 13  2  0  0  0
 12 97  1  0  0  0
 13 14  1  0  0  0
 13 31  1  0  0  0
 14 15  2  0  0  0
 14 98  1  0  0  0
 15 99  1  0  0  0
 16 17  2  0  0  0
 16 21  1  0  0  0
 16 31  1  0  0  0
 17 18  1  0  0  0
 17100  1  0  0  0
 18 19  2  0  0  0
 18101  1  0  0  0
 19 20  1  0  0  0
 19 24  1  0  0  0
 20 21  2  0  0  0
 20102  1  0  0  0
 21 23  1  0  0  0
 22 28  1  0  0  0
 22 32  2  0  0  0
 26 27  1  0  0  0
 28103  1  0  0  0
 28104  1  0  0  0
 29105  1  0  0  0
 29106  1  0  0  0
 33 34  1  0  0  0
 33 66  1  0  0  0
 33 70  2  0  0  0
 34 36  1  0  0  0
 34 59  1  0  0  0
 34107  1  0  0  0
 35 44  2  0  0  0
 35 45  1  0  0  0
 35 68  1  0  0  0
 36 56  1  0  0  0
 36108  1  0  0  0
 37 39  1  0  0  0
 37 47  1  0  0  0
 37 66  1  0  0  0
 37109  1  0  0  0
 38 43  2  0  0  0
 38 46  1  0  0  0
 38 47  1  0  0  0
 39 64  1  0  0  0
 39 67  2  0  0  0
 40 52  1  0  0  0
 40 53  2  0  0  0
 40 58  1  0  0  0
 41110  1  0  0  0
 41111  1  0  0  0
 41112  1  0  0  0
 41 48  1  0  0  0
 42 43  1  0  0  0
 42 66  1  0  0  0
 42113  1  0  0  0
 42114  1  0  0  0
 43 44  1  0  0  0
 44115  1  0  0  0
 45 46  2  0  0  0
 45116  1  0  0  0
 46117  1  0  0  0
 47118  1  0  0  0
 47119  1  0  0  0
 48 56  1  0  0  0
 48 65  1  0  0  0
 48120  1  0  0  0
 49 50  1  0  0  0
 49 53  1  0  0  0
 49 64  1  0  0  0
 49121  1  0  0  0
 50 51  1  0  0  0
 50122  1  0  0  0
 50123  1  0  0  0
 51 52  1  0  0  0
 51124  1  0  0  0
 51125  1  0  0  0
 52126  1  0  0  0
 52127  1  0  0  0
 53 54  1  0  0  0
 54 55  2  0  0  0
 54128  1  0  0  0
 55 57  1  0  0  0
 55129  1  0  0  0
 56 69  2  0  0  0
 57 58  2  0  0  0
 57130  1  0  0  0
 58131  1  0  0  0
 59 60  1  0  0  0
 59 61  1  0  0  0
 59 62  1  0  0  0
 60132  1  0  0  0
 60133  1  0  0  0
 60134  1  0  0  0
 61135  1  0  0  0
 61136  1  0  0  0
 61137  1  0  0  0
 62138  1  0  0  0
 62139  1  0  0  0
 62140  1  0  0  0
 63 65  1  0  0  0
 63141  1  0  0  0
 63142  1  0  0  0
 63143  1  0  0  0
 64144  1  0  0  0
 65145  1  0  0  0
 68 83  1  0  0  0
 71 72  2  0  0  0
 71 75  1  0  0  0
 71146  1  0  0  0
 72 76  1  0  0  0
 72147  1  0  0  0
 73 74  1  0  0  0
 73 75  2  0  0  0
 73148  1  0  0  0
 74 76  2  0  0  0
 74 81  1  0  0  0
 75 84  1  0  0  0
 76 85  1  0  0  0
 77 79  1  0  0  0
 77 84  1  0  0  0
 77 86  2  0  0  0
 78 80  1  0  0  0
 78 84  1  0  0  0
 78149  1  0  0  0
 78150  1  0  0  0
 79 80  1  0  0  0
 79 82  1  0  0  0
 79151  1  0  0  0
 80 83  1  0  0  0
 80152  1  0  0  0
 81153  1  0  0  0
 81154  1  0  0  0
 81155  1  0  0  0
 82156  1  0  0  0
 82157  1  0  0  0
 82158  1  0  0  0
 83159  1  0  0  0
 83160  1  0  0  0
 85161  1  0  0  0
M  ISO  4   1 100  68 101  83 101  85 100
M  END
> <chiral flag>
0

> <version>
0

> <s_m_source_file>
/data/baiqing/PycharmProjects/Reinvent-master-3.2/result/LINK_invent/BTK/process_docking_weight1_custom_product_contain_oxygen_bond_distance_aromatic_linkinvent_7_9_3/rearranged_h_0065.sdf

> <i_m_source_file_index>
66

> <r_mmod_Potential_Energy-OPLS-2005>
112.929344177246

> <r_mmod_Stretch_Energy-OPLS-2005>
81.7473602294922

> <r_mmod_Bend_Energy-OPLS-2005>
162.682983398438

> <r_mmod_Torsional_Energy-OPLS-2005>
262.573516845703

> <r_mmod_Improper_Torsional_Energy-OPLS-2005>
3.60976147651672

> <r_mmod_Van_der_Waal_Energy-OPLS-2005>
149.541595458984

> <r_mmod_Electrostatic_Energy-OPLS-2005>
-374.6103515625

> <r_mmod_Solvation_Energy-OPLS-2005>
-219.274017333984

> <b_mmod_Minimization_Converged-OPLS-2005>
0

> <r_mmod_RMS_Derivative-OPLS-2005>
0.581917881965637

$$$$
66
                    3D
 Structure written by MMmdl.
161170  0  0  1  0            999 V2000
  -30.6810  -14.4901   20.5360 C   0  0  0  0  0  0
  -30.4309  -12.3036   19.4322 C   0  0  0  0  0  0
  -29.5018  -12.4894   18.2123 C   0  0  0  0  0  0
  -28.0199  -12.3612   18.6211 C   0  0  0  0  0  0
  -27.6645  -13.2032   19.8761 C   0  0  2  0  0  0
  -28.7068  -12.9888   20.9978 C   0  0  0  0  0  0
  -25.2619  -13.8146   20.5686 C   0  0  0  0  0  0
  -24.1855  -13.0436   20.9167 C   0  0  0  0  0  0
  -24.6392  -11.6900   20.8731 C   0  0  0  0  0  0
  -23.9048  -10.4296   21.0402 C   0  0  0  0  0  0
  -24.3605   -9.4215   21.9175 C   0  0  0  0  0  0
  -23.6293   -8.2242   22.0742 C   0  0  0  0  0  0
  -22.4272   -8.0274   21.3535 C   0  0  0  0  0  0
  -21.9903   -9.0240   20.4628 C   0  0  0  0  0  0
  -22.7221  -10.2129   20.3043 C   0  0  0  0  0  0
  -21.6851   -6.0731   22.5278 C   0  0  0  0  0  0
  -21.4008   -6.5637   23.8210 C   0  0  0  0  0  0
  -21.3662   -5.6790   24.9173 C   0  0  0  0  0  0
  -21.6057   -4.3052   24.7224 C   0  0  0  0  0  0
  -21.8818   -3.8141   23.4342 C   0  0  0  0  0  0
  -21.9195   -4.6959   22.3400 C   0  0  0  0  0  0
  -22.7883  -13.5249   21.1850 C   0  0  0  0  0  0
  -22.1666   -4.2144   21.0976 F   0  0  0  0  0  0
  -21.5638   -3.4534   25.7736 F   0  0  0  0  0  0
  -30.0379  -13.2941   20.4451 N   0  0  0  0  0  0
  -26.3047  -12.9309   20.3377 N   0  0  0  0  0  0
  -25.9321  -11.6472   20.5767 N   0  0  0  0  0  0
  -22.0519  -12.8234   22.0401 N   0  0  0  0  0  0
  -25.4371  -15.1859   20.4097 N   0  0  0  0  0  0
  -31.8325  -14.6628   20.1255 O   0  0  0  0  0  0
  -21.6643   -6.8866   21.4233 O   0  0  0  0  0  0
  -22.3572  -14.5566   20.6714 O   0  0  0  0  0  0
  -24.6139  -31.8671   23.2114 C   0  0  0  0  0  0
  -25.9032  -32.4818   23.8406 C   0  0  1  0  0  0
  -27.2456  -27.4473   20.0863 C   0  0  0  0  0  0
  -25.5888  -33.8619   24.2331 N   0  0  0  0  0  0
  -23.4039  -30.4893   21.5505 C   0  0  2  0  0  0
  -24.8553  -28.9598   20.1112 C   0  0  0  0  0  0
  -22.7417  -29.4644   22.4993 C   0  0  0  0  0  0
  -18.0267  -28.1380   22.8499 C   0  0  0  0  0  0
  -24.1478  -36.7319   23.2639 C   0  0  0  0  0  0
  -25.9322  -30.8348   21.3650 C   0  0  0  0  0  0
  -26.0141  -29.4713   20.7110 C   0  0  0  0  0  0
  -27.2116  -28.7179   20.7062 C   0  0  0  0  0  0
  -26.0658  -26.9416   19.4984 C   0  0  0  0  0  0
  -24.8750  -27.6919   19.5036 C   0  0  0  0  0  0
  -23.6138  -29.8217   20.1646 C   0  0  0  0  0  0
  -25.4104  -36.3115   24.0337 C   0  0  1  0  0  0
  -20.5860  -28.3663   23.1325 C   0  0  2  0  0  0
  -20.6762  -26.9399   22.5423 C   0  0  0  0  0  0
  -19.5741  -26.6383   21.5223 C   0  0  0  0  0  0
  -18.1917  -26.7927   22.1626 C   0  0  0  0  0  0
  -19.1517  -28.8839   23.2906 C   0  0  0  0  0  0
  -18.9443  -30.1451   23.8910 C   0  0  0  0  0  0
  -17.6442  -30.6584   24.0570 C   0  0  0  0  0  0
  -25.9031  -34.9475   23.5134 C   0  0  0  0  0  0
  -16.5335  -29.9088   23.6330 C   0  0  0  0  0  0
  -16.7254  -28.6506   23.0346 C   0  0  0  0  0  0
  -26.4467  -31.6595   25.0728 C   0  0  0  0  0  0
  -25.3740  -31.3685   26.1478 C   0  0  0  0  0  0
  -27.0288  -30.3036   24.6095 C   0  0  0  0  0  0
  -27.6035  -32.4320   25.7494 C   0  0  0  0  0  0
  -27.5580  -37.1813   24.8468 C   0  0  0  0  0  0
  -21.4143  -29.3029   22.3733 N   0  0  0  0  0  0
  -26.4295  -37.3800   23.9407 N   0  0  0  0  0  0
  -24.6678  -31.0771   22.1012 N   0  0  0  0  0  0
  -23.4184  -28.8179   23.3026 O   0  0  0  0  0  0
  -28.3591  -26.6384   20.1448 O   0  0  0  0  0  0
  -26.5595  -34.8926   22.4698 O   0  0  0  0  0  0
  -23.5332  -32.1417   23.7510 O   0  0  0  0  0  0
  -29.8134  -19.1864   21.6914 C   0  0  0  0  0  0
  -29.7877  -17.7808   21.8346 C   0  0  0  0  0  0
  -30.3781  -18.9260   19.3517 C   0  0  0  0  0  0
  -30.3283  -17.5163   19.4769 C   0  0  0  0  0  0
  -30.1206  -19.7856   20.4469 C   0  0  0  0  0  0
  -30.0593  -16.9223   20.7449 C   0  0  0  0  0  0
  -31.0524  -21.9037   19.5990 C   0  0  0  0  0  0
  -28.5717  -23.2806   20.2649 C   0  0  0  0  0  0
  -29.0907  -26.4101   19.0405 C   0  0  0  0  0  0
  -30.8464  -23.4143   19.3527 C   0  0  0  0  0  0
  -29.0145  -21.9753   20.9562 C   0  0  0  0  0  0
  -30.5066  -16.6995   18.2075 C   0  0  0  0  0  0
  -29.0297  -24.9619   18.5100 C   0  0  0  0  0  0
  -30.0970  -21.2234   20.2865 N   0  0  0  0  0  0
  -29.4568  -23.9004   19.4536 N   0  0  0  0  0  0
  -29.9134  -15.5128   20.9660 N   0  0  0  0  0  0
  -32.0802  -21.3803   19.1563 O   0  0  0  0  0  0
  -27.4168  -23.6823   20.4238 O   0  0  0  0  0  0
  -29.6872  -27.2905   18.4153 O   0  0  0  0  0  0
  -31.4752  -12.4083   19.1332 H   0  0  0  0  0  0
  -30.3382  -11.2950   19.8375 H   0  0  0  0  0  0
  -29.7405  -11.7503   17.4463 H   0  0  0  0  0  0
  -29.6759  -13.4652   17.7572 H   0  0  0  0  0  0
  -27.8241  -11.3066   18.8159 H   0  0  0  0  0  0
  -27.3741  -12.6398   17.7876 H   0  0  0  0  0  0
  -27.7076  -14.2497   19.5749 H   0  0  0  0  0  0
  -28.6846  -11.9549   21.3457 H   0  0  0  0  0  0
  -28.4714  -13.5942   21.8742 H   0  0  0  0  0  0
  -25.2740   -9.5706   22.4752 H   0  0  0  0  0  0
  -24.0009   -7.4634   22.7461 H   0  0  0  0  0  0
  -21.0836   -8.8741   19.8934 H   0  0  0  0  0  0
  -22.3660  -10.9663   19.6151 H   0  0  0  0  0  0
  -21.1985   -7.6141   23.9710 H   0  0  0  0  0  0
  -21.1497   -6.0519   25.9079 H   0  0  0  0  0  0
  -22.0598   -2.7601   23.2840 H   0  0  0  0  0  0
  -22.4125  -11.9876   22.4769 H   0  0  0  0  0  0
  -21.1131  -13.1251   22.2606 H   0  0  0  0  0  0
  -24.6737  -15.8453   20.5139 H   0  0  0  0  0  0
  -26.2974  -15.6229   20.1033 H   0  0  0  0  0  0
  -26.7105  -32.5539   23.1175 H   0  0  0  0  0  0
  -25.0034  -33.9784   25.0472 H   0  0  0  0  0  0
  -22.6929  -31.3058   21.4116 H   0  0  0  0  0  0
  -23.3738  -35.9655   23.3311 H   0  0  0  0  0  0
  -24.3568  -36.8932   22.2054 H   0  0  0  0  0  0
  -23.7231  -37.6528   23.6645 H   0  0  0  0  0  0
  -26.0435  -31.6004   20.5960 H   0  0  0  0  0  0
  -26.8207  -30.8896   21.9821 H   0  0  0  0  0  0
  -28.1010  -29.0994   21.1873 H   0  0  0  0  0  0
  -26.0611  -25.9551   19.0562 H   0  0  0  0  0  0
  -23.9812  -27.2845   19.0499 H   0  0  0  0  0  0
  -23.7162  -30.5968   19.4044 H   0  0  0  0  0  0
  -22.7400  -29.2363   19.8719 H   0  0  0  0  0  0
  -25.1280  -36.1987   25.0833 H   0  0  0  0  0  0
  -20.9949  -28.3221   24.1444 H   0  0  0  0  0  0
  -20.5673  -26.2265   23.3607 H   0  0  0  0  0  0
  -21.6629  -26.7447   22.1203 H   0  0  0  0  0  0
  -19.6898  -25.6296   21.1242 H   0  0  0  0  0  0
  -19.6687  -27.3202   20.6761 H   0  0  0  0  0  0
  -17.4191  -26.6687   21.4019 H   0  0  0  0  0  0
  -18.0309  -26.0065   22.9012 H   0  0  0  0  0  0
  -19.7915  -30.7273   24.2279 H   0  0  0  0  0  0
  -17.4991  -31.6266   24.5167 H   0  0  0  0  0  0
  -15.5332  -30.2989   23.7656 H   0  0  0  0  0  0
  -15.8654  -28.0835   22.7049 H   0  0  0  0  0  0
  -24.5920  -30.7025   25.7814 H   0  0  0  0  0  0
  -24.8920  -32.2828   26.4946 H   0  0  0  0  0  0
  -25.8103  -30.8842   27.0220 H   0  0  0  0  0  0
  -26.2817  -29.6809   24.1155 H   0  0  0  0  0  0
  -27.4061  -29.7266   25.4547 H   0  0  0  0  0  0
  -27.8658  -30.4346   23.9234 H   0  0  0  0  0  0
  -27.2636  -33.3599   26.2102 H   0  0  0  0  0  0
  -28.3828  -32.6914   25.0318 H   0  0  0  0  0  0
  -28.0716  -31.8429   26.5390 H   0  0  0  0  0  0
  -28.2607  -38.0101   24.7514 H   0  0  0  0  0  0
  -28.1064  -36.2637   24.6286 H   0  0  0  0  0  0
  -27.2295  -37.1455   25.8870 H   0  0  0  0  0  0
  -20.9302  -29.8756   21.6964 H   0  0  0  0  0  0
  -26.0186  -38.2880   24.1409 H   0  0  0  0  0  0
  -29.5930  -19.7990   22.5539 H   0  0  0  0  0  0
  -29.5413  -17.3631   22.8008 H   0  0  0  0  0  0
  -30.5787  -19.3548   18.3792 H   0  0  0  0  0  0
  -31.2660  -23.6522   18.3753 H   0  0  0  0  0  0
  -31.4491  -23.9534   20.0845 H   0  0  0  0  0  0
  -28.1351  -21.3374   21.0482 H   0  0  0  0  0  0
  -29.3326  -22.2212   21.9700 H   0  0  0  0  0  0
  -30.2740  -17.2927   17.3228 H   0  0  0  0  0  0
  -29.8409  -15.8379   18.1929 H   0  0  0  0  0  0
  -31.5367  -16.3562   18.1138 H   0  0  0  0  0  0
  -29.6266  -24.9116   17.6000 H   0  0  0  0  0  0
  -28.0094  -24.7759   18.1727 H   0  0  0  0  0  0
  -29.0651  -15.2314   21.4328 H   0  0  0  0  0  0
  1 25  1  0  0  0
  1 30  2  0  0  0
  1 86  1  0  0  0
  2  3  1  0  0  0
  2 25  1  0  0  0
  2 90  1  0  0  0
  2 91  1  0  0  0
  3  4  1  0  0  0
  3 92  1  0  0  0
  3 93  1  0  0  0
  4  5  1  0  0  0
  4 94  1  0  0  0
  4 95  1  0  0  0
  5  6  1  0  0  0
  5 26  1  0  0  0
  5 96  1  0  0  0
  6 25  1  0  0  0
  6 97  1  0  0  0
  6 98  1  0  0  0
  7  8  2  0  0  0
  7 26  1  0  0  0
  7 29  1  0  0  0
  8  9  1  0  0  0
  8 22  1  0  0  0
  9 10  1  0  0  0
  9 27  2  0  0  0
 10 11  2  0  0  0
 10 15  1  0  0  0
 11 12  1  0  0  0
 11 99  1  0  0  0
 12 13  2  0  0  0
 12100  1  0  0  0
 13 14  1  0  0  0
 13 31  1  0  0  0
 14 15  2  0  0  0
 14101  1  0  0  0
 15102  1  0  0  0
 16 17  2  0  0  0
 16 21  1  0  0  0
 16 31  1  0  0  0
 17 18  1  0  0  0
 17103  1  0  0  0
 18 19  2  0  0  0
 18104  1  0  0  0
 19 20  1  0  0  0
 19 24  1  0  0  0
 20 21  2  0  0  0
 20105  1  0  0  0
 21 23  1  0  0  0
 22 28  1  0  0  0
 22 32  2  0  0  0
 26 27  1  0  0  0
 28106  1  0  0  0
 28107  1  0  0  0
 29108  1  0  0  0
 29109  1  0  0  0
 33 34  1  0  0  0
 33 66  1  0  0  0
 33 70  2  0  0  0
 34 36  1  0  0  0
 34 59  1  0  0  0
 34110  1  0  0  0
 35 44  2  0  0  0
 35 45  1  0  0  0
 35 68  1  0  0  0
 36 56  1  0  0  0
 36111  1  0  0  0
 37 39  1  0  0  0
 37 47  1  0  0  0
 37 66  1  0  0  0
 37112  1  0  0  0
 38 43  2  0  0  0
 38 46  1  0  0  0
 38 47  1  0  0  0
 39 64  1  0  0  0
 39 67  2  0  0  0
 40 52  1  0  0  0
 40 53  2  0  0  0
 40 58  1  0  0  0
 41113  1  0  0  0
 41114  1  0  0  0
 41115  1  0  0  0
 41 48  1  0  0  0
 42 43  1  0  0  0
 42 66  1  0  0  0
 42116  1  0  0  0
 42117  1  0  0  0
 43 44  1  0  0  0
 44118  1  0  0  0
 45 46  2  0  0  0
 45119  1  0  0  0
 46120  1  0  0  0
 47121  1  0  0  0
 47122  1  0  0  0
 48 56  1  0  0  0
 48 65  1  0  0  0
 48123  1  0  0  0
 49 50  1  0  0  0
 49 53  1  0  0  0
 49 64  1  0  0  0
 49124  1  0  0  0
 50 51  1  0  0  0
 50125  1  0  0  0
 50126  1  0  0  0
 51 52  1  0  0  0
 51127  1  0  0  0
 51128  1  0  0  0
 52129  1  0  0  0
 52130  1  0  0  0
 53 54  1  0  0  0
 54 55  2  0  0  0
 54131  1  0  0  0
 55 57  1  0  0  0
 55132  1  0  0  0
 56 69  2  0  0  0
 57 58  2  0  0  0
 57133  1  0  0  0
 58134  1  0  0  0
 59 60  1  0  0  0
 59 61  1  0  0  0
 59 62  1  0  0  0
 60135  1  0  0  0
 60136  1  0  0  0
 60137  1  0  0  0
 61138  1  0  0  0
 61139  1  0  0  0
 61140  1  0  0  0
 62141  1  0  0  0
 62142  1  0  0  0
 62143  1  0  0  0
 63 65  1  0  0  0
 63144  1  0  0  0
 63145  1  0  0  0
 63146  1  0  0  0
 64147  1  0  0  0
 65148  1  0  0  0
 68 79  1  0  0  0
 71 72  2  0  0  0
 71 75  1  0  0  0
 71149  1  0  0  0
 72 76  1  0  0  0
 72150  1  0  0  0
 73 74  1  0  0  0
 73 75  2  0  0  0
 73151  1  0  0  0
 74 76  2  0  0  0
 74 82  1  0  0  0
 75 84  1  0  0  0
 76 86  1  0  0  0
 77 80  1  0  0  0
 77 84  1  0  0  0
 77 87  2  0  0  0
 78 81  1  0  0  0
 78 85  1  0  0  0
 78 88  2  0  0  0
 79 83  1  0  0  0
 79 89  2  0  0  0
 80 85  1  0  0  0
 80152  1  0  0  0
 80153  1  0  0  0
 81 84  1  0  0  0
 81154  1  0  0  0
 81155  1  0  0  0
 82156  1  0  0  0
 82157  1  0  0  0
 82158  1  0  0  0
 83 85  1  0  0  0
 83159  1  0  0  0
 83160  1  0  0  0
 86161  1  0  0  0
M  ISO  4   1 100  68 101  79 101  86 100
M  END
> <chiral flag>
0

> <version>
0

> <s_m_source_file>
/data/baiqing/PycharmProjects/Reinvent-master-3.2/result/LINK_invent/BTK/process_docking_weight1_custom_product_contain_oxygen_bond_distance_aromatic_linkinvent_7_9_3/rearranged_h_0065.sdf

> <i_m_source_file_index>
67

> <r_mmod_Potential_Energy-OPLS-2005>
-64.0766677856445

> <r_mmod_Stretch_Energy-OPLS-2005>
45.7874603271484

> <r_mmod_Bend_Energy-OPLS-2005>
107.250991821289

> <r_mmod_Torsional_Energy-OPLS-2005>
302.296752929688

> <r_mmod_Improper_Torsional_Energy-OPLS-2005>
5.88007831573486

> <r_mmod_Van_der_Waal_Energy-OPLS-2005>
169.581237792969

> <r_mmod_Electrostatic_Energy-OPLS-2005>
-450.656494140625

> <r_mmod_Solvation_Energy-OPLS-2005>
-260.289916992188

> <b_mmod_Minimization_Converged-OPLS-2005>
0

> <r_mmod_RMS_Derivative-OPLS-2005>
1.2937148809433

$$$$
67
                    3D
 Structure written by MMmdl.
151159  0  0  1  0            999 V2000
  -30.6219  -14.7379   20.4307 C   0  0  0  0  0  0
  -30.4253  -12.4552   19.4619 C   0  0  0  0  0  0
  -29.4914  -12.5052   18.2329 C   0  0  0  0  0  0
  -28.0138  -12.3620   18.6469 C   0  0  0  0  0  0
  -27.6370  -13.2489   19.8621 C   0  0  2  0  0  0
  -28.6877  -13.1749   20.9885 C   0  0  0  0  0  0
  -25.2457  -13.8265   20.5781 C   0  0  0  0  0  0
  -24.1730  -13.0457   20.9253 C   0  0  0  0  0  0
  -24.6381  -11.6956   20.8752 C   0  0  0  0  0  0
  -23.9080  -10.4311   21.0374 C   0  0  0  0  0  0
  -24.3634   -9.4216   21.9140 C   0  0  0  0  0  0
  -23.6300   -8.2256   22.0697 C   0  0  0  0  0  0
  -22.4265   -8.0318   21.3516 C   0  0  0  0  0  0
  -21.9929   -9.0288   20.4608 C   0  0  0  0  0  0
  -22.7258  -10.2170   20.3025 C   0  0  0  0  0  0
  -21.6863   -6.0758   22.5292 C   0  0  0  0  0  0
  -21.4006   -6.5642   23.8234 C   0  0  0  0  0  0
  -21.3653   -5.6786   24.9189 C   0  0  0  0  0  0
  -21.6077   -4.3058   24.7223 C   0  0  0  0  0  0
  -21.8816   -3.8164   23.4332 C   0  0  0  0  0  0
  -21.9184   -4.6988   22.3405 C   0  0  0  0  0  0
  -22.7733  -13.5167   21.1906 C   0  0  0  0  0  0
  -22.1637   -4.2170   21.0979 F   0  0  0  0  0  0
  -21.5655   -3.4527   25.7725 F   0  0  0  0  0  0
  -29.9837  -13.5196   20.3914 N   0  0  0  0  0  0
  -26.2905  -12.9507   20.3409 N   0  0  0  0  0  0
  -25.9339  -11.6632   20.5842 N   0  0  0  0  0  0
  -22.0406  -12.8140   22.0484 N   0  0  0  0  0  0
  -25.4171  -15.1995   20.4234 N   0  0  0  0  0  0
  -31.8212  -14.7830   20.1528 O   0  0  0  0  0  0
  -21.6630   -6.8909   21.4246 O   0  0  0  0  0  0
  -22.3373  -14.5439   20.6778 O   0  0  0  0  0  0
  -24.6343  -31.8488   23.1932 C   0  0  0  0  0  0
  -25.9169  -32.4701   23.8271 C   0  0  1  0  0  0
  -27.2233  -27.2665   20.1258 C   0  0  0  0  0  0
  -25.5957  -33.8505   24.2196 N   0  0  0  0  0  0
  -23.4283  -30.4750   21.5324 C   0  0  2  0  0  0
  -24.8773  -28.9140   20.1112 C   0  0  0  0  0  0
  -22.7492  -29.4577   22.4808 C   0  0  0  0  0  0
  -18.0314  -28.1372   22.8459 C   0  0  0  0  0  0
  -24.1489  -36.7259   23.2643 C   0  0  0  0  0  0
  -25.9774  -30.7717   21.3683 C   0  0  0  0  0  0
  -26.0517  -29.3955   20.7067 C   0  0  0  0  0  0
  -27.2334  -28.5887   20.6890 C   0  0  0  0  0  0
  -26.0314  -26.8473   19.5045 C   0  0  0  0  0  0
  -24.8711  -27.6492   19.5002 C   0  0  0  0  0  0
  -23.6488  -29.8039   20.1509 C   0  0  0  0  0  0
  -25.4127  -36.3023   24.0297 C   0  0  1  0  0  0
  -20.5909  -28.3664   23.1224 C   0  0  2  0  0  0
  -20.6756  -26.9349   22.5404 C   0  0  0  0  0  0
  -19.5742  -26.6353   21.5190 C   0  0  0  0  0  0
  -18.1941  -26.7899   22.1603 C   0  0  0  0  0  0
  -19.1564  -28.8834   23.2843 C   0  0  0  0  0  0
  -18.9482  -30.1442   23.8849 C   0  0  0  0  0  0
  -17.6483  -30.6553   24.0550 C   0  0  0  0  0  0
  -25.9057  -34.9395   23.5039 C   0  0  0  0  0  0
  -16.5377  -29.9044   23.6344 C   0  0  0  0  0  0
  -16.7305  -28.6478   23.0337 C   0  0  0  0  0  0
  -26.4555  -31.6544   25.0671 C   0  0  0  0  0  0
  -25.3793  -31.3736   26.1397 C   0  0  0  0  0  0
  -27.0460  -30.2958   24.6250 C   0  0  0  0  0  0
  -27.6076  -32.4341   25.7475 C   0  0  0  0  0  0
  -27.5565  -37.1783   24.8466 C   0  0  0  0  0  0
  -21.4193  -29.3029   22.3591 N   0  0  0  0  0  0
  -26.4279  -37.3726   23.9393 N   0  0  0  0  0  0
  -24.6988  -31.0499   22.0871 N   0  0  0  0  0  0
  -23.4196  -28.8119   23.2899 O   0  0  0  0  0  0
  -28.3296  -26.3929   20.1173 O   0  0  0  0  0  0
  -26.5639  -34.8875   22.4616 O   0  0  0  0  0  0
  -23.5502  -32.1302   23.7263 O   0  0  0  0  0  0
  -31.9422  -19.0951   20.2231 C   0  0  0  0  0  0
  -30.9789  -20.1199   20.1619 C   0  0  0  0  0  0
  -31.5705  -17.7453   20.3534 C   0  0  0  0  0  0
  -29.5949  -19.8440   20.2351 C   0  0  0  0  0  0
  -30.2112  -17.3434   20.4188 C   0  0  0  0  0  0
  -29.2335  -18.4257   20.3559 C   0  0  0  0  0  0
  -28.6041  -21.0389   20.0303 C   0  0  0  0  0  0
  -28.4362  -23.6597   19.7582 C   0  0  0  0  0  0
  -28.2141  -24.9927   20.6592 C   0  0  0  0  0  0
  -29.8549  -15.8953   20.5469 N   0  0  0  0  0  0
  -28.9481  -22.3420   20.3593 N   0  0  0  0  0  0
  -27.5085  -20.8227   19.5062 O   0  0  0  0  0  0
  -27.9241  -18.0690   20.3936 F   0  0  0  0  0  0
  -31.4541  -12.5949   19.1264 H   0  0  0  0  0  0
  -30.4068  -11.4833   19.9581 H   0  0  0  0  0  0
  -29.7595  -11.7269   17.5186 H   0  0  0  0  0  0
  -29.6172  -13.4582   17.7158 H   0  0  0  0  0  0
  -27.8284  -11.3133   18.8832 H   0  0  0  0  0  0
  -27.3624  -12.6097   17.8056 H   0  0  0  0  0  0
  -27.6283  -14.2746   19.4934 H   0  0  0  0  0  0
  -28.7223  -12.1752   21.4245 H   0  0  0  0  0  0
  -28.4366  -13.8551   21.8066 H   0  0  0  0  0  0
  -25.2771   -9.5721   22.4695 H   0  0  0  0  0  0
  -24.0055   -7.4624   22.7359 H   0  0  0  0  0  0
  -21.0890   -8.8807   19.8848 H   0  0  0  0  0  0
  -22.3709  -10.9724   19.6138 H   0  0  0  0  0  0
  -21.1967   -7.6133   23.9759 H   0  0  0  0  0  0
  -21.1469   -6.0481   25.9102 H   0  0  0  0  0  0
  -22.0600   -2.7625   23.2813 H   0  0  0  0  0  0
  -22.4115  -11.9842   22.4881 H   0  0  0  0  0  0
  -21.1030  -13.1154   22.2677 H   0  0  0  0  0  0
  -24.6677  -15.8681   20.5678 H   0  0  0  0  0  0
  -26.2789  -15.6428   20.1315 H   0  0  0  0  0  0
  -26.7218  -32.5347   23.0982 H   0  0  0  0  0  0
  -25.0139  -33.9617   25.0372 H   0  0  0  0  0  0
  -22.7275  -31.2984   21.3776 H   0  0  0  0  0  0
  -23.3721  -35.9621   23.3323 H   0  0  0  0  0  0
  -24.3573  -36.8898   22.2057 H   0  0  0  0  0  0
  -23.7298  -37.6474   23.6688 H   0  0  0  0  0  0
  -26.1287  -31.5404   20.6090 H   0  0  0  0  0  0
  -26.8455  -30.8071   22.0134 H   0  0  0  0  0  0
  -28.1445  -28.9642   21.1345 H   0  0  0  0  0  0
  -26.0013  -25.8850   19.0152 H   0  0  0  0  0  0
  -23.9726  -27.2751   19.0313 H   0  0  0  0  0  0
  -23.7749  -30.5753   19.3902 H   0  0  0  0  0  0
  -22.7704  -29.2369   19.8411 H   0  0  0  0  0  0
  -25.1327  -36.1826   25.0789 H   0  0  0  0  0  0
  -21.0052  -28.3235   24.1310 H   0  0  0  0  0  0
  -20.5593  -26.2260   23.3606 H   0  0  0  0  0  0
  -21.6630  -26.7314   22.1221 H   0  0  0  0  0  0
  -19.6872  -25.6266   21.1217 H   0  0  0  0  0  0
  -19.6688  -27.3146   20.6692 H   0  0  0  0  0  0
  -17.4196  -26.6654   21.4026 H   0  0  0  0  0  0
  -18.0331  -26.0070   22.9013 H   0  0  0  0  0  0
  -19.7973  -30.7293   24.2156 H   0  0  0  0  0  0
  -17.5034  -31.6229   24.5166 H   0  0  0  0  0  0
  -15.5358  -30.2925   23.7692 H   0  0  0  0  0  0
  -15.8703  -28.0798   22.7018 H   0  0  0  0  0  0
  -24.5920  -30.7131   25.7740 H   0  0  0  0  0  0
  -24.9057  -32.2930   26.4837 H   0  0  0  0  0  0
  -25.8101  -30.8909   27.0170 H   0  0  0  0  0  0
  -26.3081  -29.6609   24.1334 H   0  0  0  0  0  0
  -27.4158  -29.7319   25.4825 H   0  0  0  0  0  0
  -27.8928  -30.4193   23.9500 H   0  0  0  0  0  0
  -27.2618  -33.3627   26.2035 H   0  0  0  0  0  0
  -28.3902  -32.6948   25.0331 H   0  0  0  0  0  0
  -28.0728  -31.8505   26.5429 H   0  0  0  0  0  0
  -28.2584  -38.0070   24.7476 H   0  0  0  0  0  0
  -28.1043  -36.2599   24.6326 H   0  0  0  0  0  0
  -27.2262  -37.1465   25.8859 H   0  0  0  0  0  0
  -20.9322  -29.8809   21.6874 H   0  0  0  0  0  0
  -26.0133  -38.2787   24.1396 H   0  0  0  0  0  0
  -32.9929  -19.3429   20.1491 H   0  0  0  0  0  0
  -31.3320  -21.1305   20.0126 H   0  0  0  0  0  0
  -32.3762  -17.0320   20.3898 H   0  0  0  0  0  0
  -29.1774  -23.9037   18.9986 H   0  0  0  0  0  0
  -27.5164  -23.4632   19.2072 H   0  0  0  0  0  0
  -28.9609  -24.9653   21.4516 H   0  0  0  0  0  0
  -27.2694  -24.8907   21.1954 H   0  0  0  0  0  0
  -28.8759  -15.7130   20.6900 H   0  0  0  0  0  0
  -29.7946  -22.4236   20.9038 H   0  0  0  0  0  0
  1 25  1  0  0  0
  1 30  2  0  0  0
  1 80  1  0  0  0
  2  3  1  0  0  0
  2 25  1  0  0  0
  2 84  1  0  0  0
  2 85  1  0  0  0
  3  4  1  0  0  0
  3 86  1  0  0  0
  3 87  1  0  0  0
  4  5  1  0  0  0
  4 88  1  0  0  0
  4 89  1  0  0  0
  5  6  1  0  0  0
  5 26  1  0  0  0
  5 90  1  0  0  0
  6 25  1  0  0  0
  6 91  1  0  0  0
  6 92  1  0  0  0
  7  8  2  0  0  0
  7 26  1  0  0  0
  7 29  1  0  0  0
  8  9  1  0  0  0
  8 22  1  0  0  0
  9 10  1  0  0  0
  9 27  2  0  0  0
 10 11  2  0  0  0
 10 15  1  0  0  0
 11 12  1  0  0  0
 11 93  1  0  0  0
 12 13  2  0  0  0
 12 94  1  0  0  0
 13 14  1  0  0  0
 13 31  1  0  0  0
 14 15  2  0  0  0
 14 95  1  0  0  0
 15 96  1  0  0  0
 16 17  2  0  0  0
 16 21  1  0  0  0
 16 31  1  0  0  0
 17 18  1  0  0  0
 17 97  1  0  0  0
 18 19  2  0  0  0
 18 98  1  0  0  0
 19 20  1  0  0  0
 19 24  1  0  0  0
 20 21  2  0  0  0
 20 99  1  0  0  0
 21 23  1  0  0  0
 22 28  1  0  0  0
 22 32  2  0  0  0
 26 27  1  0  0  0
 28100  1  0  0  0
 28101  1  0  0  0
 29102  1  0  0  0
 29103  1  0  0  0
 33 34  1  0  0  0
 33 66  1  0  0  0
 33 70  2  0  0  0
 34 36  1  0  0  0
 34 59  1  0  0  0
 34104  1  0  0  0
 35 44  2  0  0  0
 35 45  1  0  0  0
 35 68  1  0  0  0
 36 56  1  0  0  0
 36105  1  0  0  0
 37 39  1  0  0  0
 37 47  1  0  0  0
 37 66  1  0  0  0
 37106  1  0  0  0
 38 43  2  0  0  0
 38 46  1  0  0  0
 38 47  1  0  0  0
 39 64  1  0  0  0
 39 67  2  0  0  0
 40 52  1  0  0  0
 40 53  2  0  0  0
 40 58  1  0  0  0
 41107  1  0  0  0
 41108  1  0  0  0
 41109  1  0  0  0
 41 48  1  0  0  0
 42 43  1  0  0  0
 42 66  1  0  0  0
 42110  1  0  0  0
 42111  1  0  0  0
 43 44  1  0  0  0
 44112  1  0  0  0
 45 46  2  0  0  0
 45113  1  0  0  0
 46114  1  0  0  0
 47115  1  0  0  0
 47116  1  0  0  0
 48 56  1  0  0  0
 48 65  1  0  0  0
 48117  1  0  0  0
 49 50  1  0  0  0
 49 53  1  0  0  0
 49 64  1  0  0  0
 49118  1  0  0  0
 50 51  1  0  0  0
 50119  1  0  0  0
 50120  1  0  0  0
 51 52  1  0  0  0
 51121  1  0  0  0
 51122  1  0  0  0
 52123  1  0  0  0
 52124  1  0  0  0
 53 54  1  0  0  0
 54 55  2  0  0  0
 54125  1  0  0  0
 55 57  1  0  0  0
 55126  1  0  0  0
 56 69  2  0  0  0
 57 58  2  0  0  0
 57127  1  0  0  0
 58128  1  0  0  0
 59 60  1  0  0  0
 59 61  1  0  0  0
 59 62  1  0  0  0
 60129  1  0  0  0
 60130  1  0  0  0
 60131  1  0  0  0
 61132  1  0  0  0
 61133  1  0  0  0
 61134  1  0  0  0
 62135  1  0  0  0
 62136  1  0  0  0
 62137  1  0  0  0
 63 65  1  0  0  0
 63138  1  0  0  0
 63139  1  0  0  0
 63140  1  0  0  0
 64141  1  0  0  0
 65142  1  0  0  0
 68 79  1  0  0  0
 71 72  2  0  0  0
 71 73  1  0  0  0
 71143  1  0  0  0
 72 74  1  0  0  0
 72144  1  0  0  0
 73 75  2  0  0  0
 73145  1  0  0  0
 74 76  2  0  0  0
 74 77  1  0  0  0
 75 76  1  0  0  0
 75 80  1  0  0  0
 76 83  1  0  0  0
 77 81  1  0  0  0
 77 82  2  0  0  0
 78 79  1  0  0  0
 78 81  1  0  0  0
 78146  1  0  0  0
 78147  1  0  0  0
 79148  1  0  0  0
 79149  1  0  0  0
 80150  1  0  0  0
 81151  1  0  0  0
M  ISO  4   1 100  68 101  79 101  80 100
M  END
> <chiral flag>
0

> <version>
0

> <s_m_source_file>
/data/baiqing/PycharmProjects/Reinvent-master-3.2/result/LINK_invent/BTK/process_docking_weight1_custom_product_contain_oxygen_bond_distance_aromatic_linkinvent_7_9_3/rearranged_h_0065.sdf

> <i_m_source_file_index>
68

> <r_mmod_Potential_Energy-OPLS-2005>
95.6926040649414

> <r_mmod_Stretch_Energy-OPLS-2005>
127.643707275391

> <r_mmod_Bend_Energy-OPLS-2005>
166.139923095703

> <r_mmod_Torsional_Energy-OPLS-2005>
250.989944458008

> <r_mmod_Improper_Torsional_Energy-OPLS-2005>
6.69608068466187

> <r_mmod_Van_der_Waal_Energy-OPLS-2005>
140.443344116211

> <r_mmod_Electrostatic_Energy-OPLS-2005>
-449.250762939453

> <r_mmod_Solvation_Energy-OPLS-2005>
-227.786651611328

> <b_mmod_Minimization_Converged-OPLS-2005>
0

> <r_mmod_RMS_Derivative-OPLS-2005>
5.32715082168579

$$$$
68
                    3D
 Structure written by MMmdl.
158167  0  0  1  0            999 V2000
  -30.6443  -14.7467   20.4556 C   0  0  0  0  0  0
  -30.4285  -12.4609   19.4584 C   0  0  0  0  0  0
  -29.4976  -12.4692   18.2280 C   0  0  0  0  0  0
  -28.0273  -12.2960   18.6554 C   0  0  0  0  0  0
  -27.6289  -13.2287   19.8307 C   0  0  2  0  0  0
  -28.6802  -13.2197   20.9614 C   0  0  0  0  0  0
  -25.2469  -13.8211   20.5747 C   0  0  0  0  0  0
  -24.1731  -13.0442   20.9233 C   0  0  0  0  0  0
  -24.6338  -11.6935   20.8750 C   0  0  0  0  0  0
  -23.9012  -10.4295   21.0387 C   0  0  0  0  0  0
  -24.3575   -9.4218   21.9167 C   0  0  0  0  0  0
  -23.6263   -8.2248   22.0738 C   0  0  0  0  0  0
  -22.4256   -8.0270   21.3534 C   0  0  0  0  0  0
  -21.9881   -9.0243   20.4646 C   0  0  0  0  0  0
  -22.7186  -10.2131   20.3051 C   0  0  0  0  0  0
  -21.6851   -6.0718   22.5265 C   0  0  0  0  0  0
  -21.4029   -6.5624   23.8205 C   0  0  0  0  0  0
  -21.3655   -5.6781   24.9166 C   0  0  0  0  0  0
  -21.6039   -4.3050   24.7220 C   0  0  0  0  0  0
  -21.8805   -3.8142   23.4336 C   0  0  0  0  0  0
  -21.9205   -4.6955   22.3394 C   0  0  0  0  0  0
  -22.7787  -13.5248   21.1918 C   0  0  0  0  0  0
  -22.1673   -4.2138   21.0979 F   0  0  0  0  0  0
  -21.5616   -3.4536   25.7727 F   0  0  0  0  0  0
  -29.9777  -13.5453   20.3537 N   0  0  0  0  0  0
  -26.2870  -12.9410   20.3264 N   0  0  0  0  0  0
  -25.9263  -11.6563   20.5767 N   0  0  0  0  0  0
  -22.0417  -12.8239   22.0475 N   0  0  0  0  0  0
  -25.4211  -15.1930   20.4254 N   0  0  0  0  0  0
  -31.8602  -14.7945   20.2505 O   0  0  0  0  0  0
  -21.6644   -6.8857   21.4224 O   0  0  0  0  0  0
  -22.3475  -14.5542   20.6762 O   0  0  0  0  0  0
  -24.6376  -31.8483   23.1919 C   0  0  0  0  0  0
  -25.9164  -32.4702   23.8301 C   0  0  1  0  0  0
  -27.2203  -27.2210   20.1385 C   0  0  0  0  0  0
  -25.5933  -33.8506   24.2221 N   0  0  0  0  0  0
  -23.4378  -30.4691   21.5355 C   0  0  2  0  0  0
  -24.8859  -28.9025   20.1171 C   0  0  0  0  0  0
  -22.7531  -29.4583   22.4880 C   0  0  0  0  0  0
  -18.0298  -28.1320   22.8462 C   0  0  0  0  0  0
  -24.1500  -36.7278   23.2638 C   0  0  0  0  0  0
  -25.9887  -30.7449   21.3835 C   0  0  0  0  0  0
  -26.0591  -29.3634   20.7314 C   0  0  0  0  0  0
  -27.2281  -28.5320   20.7324 C   0  0  0  0  0  0
  -26.0298  -26.8414   19.4798 C   0  0  0  0  0  0
  -24.8773  -27.6506   19.4827 C   0  0  0  0  0  0
  -23.6625  -29.7955   20.1568 C   0  0  0  0  0  0
  -25.4108  -36.3049   24.0342 C   0  0  1  0  0  0
  -20.5875  -28.3698   23.1149 C   0  0  2  0  0  0
  -20.6838  -26.9449   22.5226 C   0  0  0  0  0  0
  -19.5693  -26.6191   21.5229 C   0  0  0  0  0  0
  -18.1931  -26.7811   22.1709 C   0  0  0  0  0  0
  -19.1541  -28.8822   23.2802 C   0  0  0  0  0  0
  -18.9449  -30.1408   23.8832 C   0  0  0  0  0  0
  -17.6448  -30.6529   24.0507 C   0  0  0  0  0  0
  -25.9056  -34.9421   23.5089 C   0  0  0  0  0  0
  -16.5345  -29.9027   23.6260 C   0  0  0  0  0  0
  -16.7288  -28.6426   23.0325 C   0  0  0  0  0  0
  -26.4516  -31.6546   25.0713 C   0  0  0  0  0  0
  -25.3731  -31.3739   26.1433 C   0  0  0  0  0  0
  -27.0337  -30.2942   24.6249 C   0  0  0  0  0  0
  -27.6055  -32.4312   25.7490 C   0  0  0  0  0  0
  -27.5580  -37.1799   24.8482 C   0  0  0  0  0  0
  -21.4233  -29.3119   22.3665 N   0  0  0  0  0  0
  -26.4287  -37.3741   23.9423 N   0  0  0  0  0  0
  -24.7073  -31.0421   22.0910 N   0  0  0  0  0  0
  -23.4192  -28.8066   23.2950 O   0  0  0  0  0  0
  -28.3055  -26.3044   20.1574 O   0  0  0  0  0  0
  -26.5641  -34.8903   22.4648 O   0  0  0  0  0  0
  -23.5514  -32.1357   23.7172 O   0  0  0  0  0  0
  -30.8338  -19.8370   22.1065 C   0  0  0  0  0  0
  -31.0511  -17.3878   22.0808 C   0  0  0  0  0  0
  -29.7296  -18.5310   20.3825 C   0  0  0  0  0  0
  -31.3406  -18.6414   22.6618 C   0  0  0  0  0  0
  -30.0095  -19.8454   20.9521 C   0  0  0  0  0  0
  -30.2390  -17.2788   20.9299 C   0  0  0  0  0  0
  -29.3632  -22.3926   21.0240 C   0  0  0  0  0  0
  -28.4477  -22.6953   18.9031 C   0  0  0  0  0  0
  -29.2337  -21.3553   18.9886 C   0  0  0  0  0  0
  -28.9893  -23.5840   20.0420 C   0  0  1  0  0  0
  -32.2099  -18.7162   23.9098 C   0  0  0  0  0  0
  -28.0548  -24.8451   20.5140 C   0  0  0  0  0  0
  -29.5417  -21.1609   20.4062 N   0  0  0  0  0  0
  -29.9015  -15.9177   20.4474 N   0  0  0  0  0  0
  -29.4647  -22.5893   22.2407 O   0  0  0  0  0  0
  -31.4645  -12.5945   19.1417 H   0  0  0  0  0  0
  -30.3840  -11.5042   19.9807 H   0  0  0  0  0  0
  -29.7797  -11.6679   17.5430 H   0  0  0  0  0  0
  -29.6175  -13.4006   17.6751 H   0  0  0  0  0  0
  -27.8956  -11.2562   18.9567 H   0  0  0  0  0  0
  -27.3598  -12.4554   17.8073 H   0  0  0  0  0  0
  -27.6066  -14.2326   19.4077 H   0  0  0  0  0  0
  -28.7145  -12.2531   21.4662 H   0  0  0  0  0  0
  -28.4206  -13.9630   21.7198 H   0  0  0  0  0  0
  -25.2700   -9.5728   22.4772 H   0  0  0  0  0  0
  -23.9967   -7.4665   22.7477 H   0  0  0  0  0  0
  -21.0803   -8.8763   19.8975 H   0  0  0  0  0  0
  -22.3603  -10.9681   19.6200 H   0  0  0  0  0  0
  -21.2031   -7.6144   23.9707 H   0  0  0  0  0  0
  -21.1487   -6.0501   25.9059 H   0  0  0  0  0  0
  -22.0588   -2.7606   23.2839 H   0  0  0  0  0  0
  -22.4006  -11.9873   22.4825 H   0  0  0  0  0  0
  -21.1058  -13.1282   22.2740 H   0  0  0  0  0  0
  -24.6686  -15.8527   20.5946 H   0  0  0  0  0  0
  -26.2902  -15.6473   20.1748 H   0  0  0  0  0  0
  -26.7215  -32.5363   23.1018 H   0  0  0  0  0  0
  -25.0093  -33.9610   25.0396 H   0  0  0  0  0  0
  -22.7417  -31.2962   21.3820 H   0  0  0  0  0  0
  -23.3738  -35.9630   23.3305 H   0  0  0  0  0  0
  -24.3620  -36.8880   22.2050 H   0  0  0  0  0  0
  -23.7280  -37.6502   23.6644 H   0  0  0  0  0  0
  -26.1426  -31.4957   20.6057 H   0  0  0  0  0  0
  -26.8550  -30.7909   22.0314 H   0  0  0  0  0  0
  -28.1205  -28.8693   21.2413 H   0  0  0  0  0  0
  -25.9772  -25.8944   18.9602 H   0  0  0  0  0  0
  -23.9862  -27.2941   18.9840 H   0  0  0  0  0  0
  -23.7868  -30.5617   19.3925 H   0  0  0  0  0  0
  -22.7847  -29.2283   19.8533 H   0  0  0  0  0  0
  -25.1277  -36.1894   25.0838 H   0  0  0  0  0  0
  -20.9948  -28.3148   24.1280 H   0  0  0  0  0  0
  -21.6605  -26.7615   22.0702 H   0  0  0  0  0  0
  -20.6086  -26.2289   23.3426 H   0  0  0  0  0  0
  -19.6829  -25.5976   21.1575 H   0  0  0  0  0  0
  -19.6518  -27.2773   20.6583 H   0  0  0  0  0  0
  -17.4158  -26.6433   21.4169 H   0  0  0  0  0  0
  -18.0342  -26.0032   22.9192 H   0  0  0  0  0  0
  -19.7934  -30.7240   24.2173 H   0  0  0  0  0  0
  -17.5017  -31.6213   24.5075 H   0  0  0  0  0  0
  -15.5348  -30.2924   23.7535 H   0  0  0  0  0  0
  -15.8723  -28.0688   22.7064 H   0  0  0  0  0  0
  -24.5896  -30.7070   25.7811 H   0  0  0  0  0  0
  -24.8910  -32.2905   26.4865 H   0  0  0  0  0  0
  -25.8025  -30.8957   27.0237 H   0  0  0  0  0  0
  -26.2911  -29.6701   24.1251 H   0  0  0  0  0  0
  -27.3950  -29.7220   25.4811 H   0  0  0  0  0  0
  -27.8835  -30.4180   23.9515 H   0  0  0  0  0  0
  -27.2622  -33.3603   26.2061 H   0  0  0  0  0  0
  -28.3831  -32.6889   25.0281 H   0  0  0  0  0  0
  -28.0738  -31.8448   26.5415 H   0  0  0  0  0  0
  -28.2598  -38.0102   24.7462 H   0  0  0  0  0  0
  -28.1061  -36.2607   24.6334 H   0  0  0  0  0  0
  -27.2303  -37.1480   25.8897 H   0  0  0  0  0  0
  -20.9387  -29.9110   21.7102 H   0  0  0  0  0  0
  -26.0173  -38.2822   24.1380 H   0  0  0  0  0  0
  -31.1106  -20.7647   22.5876 H   0  0  0  0  0  0
  -31.4468  -16.4953   22.5440 H   0  0  0  0  0  0
  -29.0984  -18.4859   19.5068 H   0  0  0  0  0  0
  -27.3952  -22.4697   19.0758 H   0  0  0  0  0  0
  -28.5112  -23.1648   17.9204 H   0  0  0  0  0  0
  -30.1768  -21.4301   18.4410 H   0  0  0  0  0  0
  -28.6766  -20.5184   18.5646 H   0  0  0  0  0  0
  -29.9425  -24.0092   19.7280 H   0  0  0  0  0  0
  -33.1870  -19.1371   23.6693 H   0  0  0  0  0  0
  -32.3760  -17.7363   24.3570 H   0  0  0  0  0  0
  -31.7399  -19.3482   24.6662 H   0  0  0  0  0  0
  -28.0340  -24.8371   21.6018 H   0  0  0  0  0  0
  -27.0388  -24.5645   20.2488 H   0  0  0  0  0  0
  -28.9547  -15.8017   20.1182 H   0  0  0  0  0  0
  1 25  1  0  0  0
  1 30  2  0  0  0
  1 84  1  0  0  0
  2  3  1  0  0  0
  2 25  1  0  0  0
  2 86  1  0  0  0
  2 87  1  0  0  0
  3  4  1  0  0  0
  3 88  1  0  0  0
  3 89  1  0  0  0
  4  5  1  0  0  0
  4 90  1  0  0  0
  4 91  1  0  0  0
  5  6  1  0  0  0
  5 26  1  0  0  0
  5 92  1  0  0  0
  6 25  1  0  0  0
  6 93  1  0  0  0
  6 94  1  0  0  0
  7  8  2  0  0  0
  7 26  1  0  0  0
  7 29  1  0  0  0
  8  9  1  0  0  0
  8 22  1  0  0  0
  9 10  1  0  0  0
  9 27  2  0  0  0
 10 11  2  0  0  0
 10 15  1  0  0  0
 11 12  1  0  0  0
 11 95  1  0  0  0
 12 13  2  0  0  0
 12 96  1  0  0  0
 13 14  1  0  0  0
 13 31  1  0  0  0
 14 15  2  0  0  0
 14 97  1  0  0  0
 15 98  1  0  0  0
 16 17  2  0  0  0
 16 21  1  0  0  0
 16 31  1  0  0  0
 17 18  1  0  0  0
 17 99  1  0  0  0
 18 19  2  0  0  0
 18100  1  0  0  0
 19 20  1  0  0  0
 19 24  1  0  0  0
 20 21  2  0  0  0
 20101  1  0  0  0
 21 23  1  0  0  0
 22 28  1  0  0  0
 22 32  2  0  0  0
 26 27  1  0  0  0
 28102  1  0  0  0
 28103  1  0  0  0
 29104  1  0  0  0
 29105  1  0  0  0
 33 34  1  0  0  0
 33 66  1  0  0  0
 33 70  2  0  0  0
 34 36  1  0  0  0
 34 59  1  0  0  0
 34106  1  0  0  0
 35 44  2  0  0  0
 35 45  1  0  0  0
 35 68  1  0  0  0
 36 56  1  0  0  0
 36107  1  0  0  0
 37 39  1  0  0  0
 37 47  1  0  0  0
 37 66  1  0  0  0
 37108  1  0  0  0
 38 43  2  0  0  0
 38 46  1  0  0  0
 38 47  1  0  0  0
 39 64  1  0  0  0
 39 67  2  0  0  0
 40 52  1  0  0  0
 40 53  2  0  0  0
 40 58  1  0  0  0
 41109  1  0  0  0
 41110  1  0  0  0
 41111  1  0  0  0
 41 48  1  0  0  0
 42 43  1  0  0  0
 42 66  1  0  0  0
 42112  1  0  0  0
 42113  1  0  0  0
 43 44  1  0  0  0
 44114  1  0  0  0
 45 46  2  0  0  0
 45115  1  0  0  0
 46116  1  0  0  0
 47117  1  0  0  0
 47118  1  0  0  0
 48 56  1  0  0  0
 48 65  1  0  0  0
 48119  1  0  0  0
 49 50  1  0  0  0
 49 53  1  0  0  0
 49 64  1  0  0  0
 49120  1  0  0  0
 50 51  1  0  0  0
 50121  1  0  0  0
 50122  1  0  0  0
 51 52  1  0  0  0
 51123  1  0  0  0
 51124  1  0  0  0
 52125  1  0  0  0
 52126  1  0  0  0
 53 54  1  0  0  0
 54 55  2  0  0  0
 54127  1  0  0  0
 55 57  1  0  0  0
 55128  1  0  0  0
 56 69  2  0  0  0
 57 58  2  0  0  0
 57129  1  0  0  0
 58130  1  0  0  0
 59 60  1  0  0  0
 59 61  1  0  0  0
 59 62  1  0  0  0
 60131  1  0  0  0
 60132  1  0  0  0
 60133  1  0  0  0
 61134  1  0  0  0
 61135  1  0  0  0
 61136  1  0  0  0
 62137  1  0  0  0
 62138  1  0  0  0
 62139  1  0  0  0
 63 65  1  0  0  0
 63140  1  0  0  0
 63141  1  0  0  0
 63142  1  0  0  0
 64143  1  0  0  0
 65144  1  0  0  0
 68 82  1  0  0  0
 71 74  2  0  0  0
 71 75  1  0  0  0
 71145  1  0  0  0
 72 74  1  0  0  0
 72 76  2  0  0  0
 72146  1  0  0  0
 73 75  2  0  0  0
 73 76  1  0  0  0
 73147  1  0  0  0
 74 81  1  0  0  0
 75 83  1  0  0  0
 76 84  1  0  0  0
 77 80  1  0  0  0
 77 83  1  0  0  0
 77 85  2  0  0  0
 78 79  1  0  0  0
 78 80  1  0  0  0
 78148  1  0  0  0
 78149  1  0  0  0
 79 83  1  0  0  0
 79150  1  0  0  0
 79151  1  0  0  0
 80 82  1  0  0  0
 80152  1  0  0  0
 81153  1  0  0  0
 81154  1  0  0  0
 81155  1  0  0  0
 82156  1  0  0  0
 82157  1  0  0  0
 84158  1  0  0  0
M  ISO  4   1 100  68 101  82 101  84 100
M  END
> <chiral flag>
0

> <version>
0

> <s_m_source_file>
/data/baiqing/PycharmProjects/Reinvent-master-3.2/result/LINK_invent/BTK/process_docking_weight1_custom_product_contain_oxygen_bond_distance_aromatic_linkinvent_7_9_3/rearranged_h_0065.sdf

> <i_m_source_file_index>
69

> <r_mmod_Potential_Energy-OPLS-2005>
321.921020507812

> <r_mmod_Stretch_Energy-OPLS-2005>
132.321075439453

> <r_mmod_Bend_Energy-OPLS-2005>
199.551559448242

> <r_mmod_Torsional_Energy-OPLS-2005>
293.741119384766

> <r_mmod_Improper_Torsional_Energy-OPLS-2005>
8.44763565063477

> <r_mmod_Van_der_Waal_Energy-OPLS-2005>
136.091339111328

> <r_mmod_Electrostatic_Energy-OPLS-2005>
-328.690399169922

> <r_mmod_Solvation_Energy-OPLS-2005>
-224.831726074219

> <b_mmod_Minimization_Converged-OPLS-2005>
0

> <r_mmod_RMS_Derivative-OPLS-2005>
6.09579181671143

$$$$
69
                    3D
 Structure written by MMmdl.
169178  0  0  1  0            999 V2000
  -30.6309  -14.7780   20.4303 C   0  0  0  0  0  0
  -30.4189  -12.4713   19.4859 C   0  0  0  0  0  0
  -29.5085  -12.5030   18.2406 C   0  0  0  0  0  0
  -28.0343  -12.3300   18.6529 C   0  0  0  0  0  0
  -27.6334  -13.2436   19.8425 C   0  0  2  0  0  0
  -28.6781  -13.2197   20.9791 C   0  0  0  0  0  0
  -25.2474  -13.8228   20.5716 C   0  0  0  0  0  0
  -24.1781  -13.0449   20.9227 C   0  0  0  0  0  0
  -24.6392  -11.6935   20.8761 C   0  0  0  0  0  0
  -23.9070  -10.4300   21.0414 C   0  0  0  0  0  0
  -24.3625   -9.4218   21.9191 C   0  0  0  0  0  0
  -23.6304   -8.2249   22.0761 C   0  0  0  0  0  0
  -22.4288   -8.0281   21.3545 C   0  0  0  0  0  0
  -21.9923   -9.0250   20.4645 C   0  0  0  0  0  0
  -22.7249  -10.2126   20.3058 C   0  0  0  0  0  0
  -21.6851   -6.0745   22.5282 C   0  0  0  0  0  0
  -21.4007   -6.5651   23.8220 C   0  0  0  0  0  0
  -21.3663   -5.6793   24.9184 C   0  0  0  0  0  0
  -21.6043   -4.3055   24.7227 C   0  0  0  0  0  0
  -21.8821   -3.8158   23.4345 C   0  0  0  0  0  0
  -21.9186   -4.6972   22.3401 C   0  0  0  0  0  0
  -22.7793  -13.5206   21.1867 C   0  0  0  0  0  0
  -22.1662   -4.2157   21.0975 F   0  0  0  0  0  0
  -21.5628   -3.4536   25.7740 F   0  0  0  0  0  0
  -29.9736  -13.5649   20.3850 N   0  0  0  0  0  0
  -26.2906  -12.9454   20.3270 N   0  0  0  0  0  0
  -25.9322  -11.6579   20.5760 N   0  0  0  0  0  0
  -22.0432  -12.8202   22.0418 N   0  0  0  0  0  0
  -25.4123  -15.1966   20.4171 N   0  0  0  0  0  0
  -31.8302  -14.7781   20.1437 O   0  0  0  0  0  0
  -21.6644   -6.8890   21.4247 O   0  0  0  0  0  0
  -22.3474  -14.5509   20.6720 O   0  0  0  0  0  0
  -24.6333  -31.8533   23.1943 C   0  0  0  0  0  0
  -25.9153  -32.4742   23.8311 C   0  0  1  0  0  0
  -27.2163  -27.2460   20.1343 C   0  0  0  0  0  0
  -25.5958  -33.8547   24.2229 N   0  0  0  0  0  0
  -23.4286  -30.4728   21.5415 C   0  0  2  0  0  0
  -24.8746  -28.9043   20.1204 C   0  0  0  0  0  0
  -22.7499  -29.4608   22.4961 C   0  0  0  0  0  0
  -18.0286  -28.1413   22.8502 C   0  0  0  0  0  0
  -24.1481  -36.7279   23.2632 C   0  0  0  0  0  0
  -25.9745  -30.7601   21.3726 C   0  0  0  0  0  0
  -26.0464  -29.3758   20.7264 C   0  0  0  0  0  0
  -27.2242  -28.5598   20.7182 C   0  0  0  0  0  0
  -26.0208  -26.8318   19.5178 C   0  0  0  0  0  0
  -24.8656  -27.6414   19.5053 C   0  0  0  0  0  0
  -23.6432  -29.7918   20.1629 C   0  0  0  0  0  0
  -25.4110  -36.3055   24.0307 C   0  0  1  0  0  0
  -20.5887  -28.3711   23.1296 C   0  0  2  0  0  0
  -20.6782  -26.9439   22.5423 C   0  0  0  0  0  0
  -19.5745  -26.6398   21.5240 C   0  0  0  0  0  0
  -18.1916  -26.7970   22.1627 C   0  0  0  0  0  0
  -19.1537  -28.8886   23.2889 C   0  0  0  0  0  0
  -18.9466  -30.1501   23.8889 C   0  0  0  0  0  0
  -17.6461  -30.6615   24.0567 C   0  0  0  0  0  0
  -25.9061  -34.9432   23.5056 C   0  0  0  0  0  0
  -16.5351  -29.9110   23.6347 C   0  0  0  0  0  0
  -16.7271  -28.6530   23.0363 C   0  0  0  0  0  0
  -26.4504  -31.6592   25.0721 C   0  0  0  0  0  0
  -25.3707  -31.3769   26.1425 C   0  0  0  0  0  0
  -27.0356  -30.3009   24.6225 C   0  0  0  0  0  0
  -27.6055  -32.4342   25.7495 C   0  0  0  0  0  0
  -27.5576  -37.1775   24.8450 C   0  0  0  0  0  0
  -21.4213  -29.3063   22.3704 N   0  0  0  0  0  0
  -26.4274  -37.3770   23.9416 N   0  0  0  0  0  0
  -24.6988  -31.0482   22.0923 N   0  0  0  0  0  0
  -23.4196  -28.8165   23.3073 O   0  0  0  0  0  0
  -28.3207  -26.3702   20.0763 O   0  0  0  0  0  0
  -26.5633  -34.8920   22.4631 O   0  0  0  0  0  0
  -23.5486  -32.1371   23.7233 O   0  0  0  0  0  0
  -32.2032  -19.0283   20.3593 C   0  0  0  0  0  0
  -31.7244  -17.7141   20.3941 C   0  0  0  0  0  0
  -31.3590  -20.1560   20.4358 C   0  0  0  0  0  0
  -29.9293  -20.0022   20.4400 C   0  0  0  0  0  0
  -30.3479  -17.4177   20.4835 C   0  0  0  0  0  0
  -29.4697  -18.5972   20.4941 C   0  0  0  0  0  0
  -29.0980  -22.4747   19.8890 C   0  0  0  0  0  0
  -32.1344  -21.4309   20.5428 C   0  0  0  0  0  0
  -27.3539  -22.6948   21.4424 C   0  0  0  0  0  0
  -27.7871  -21.2160   21.2634 C   0  0  0  0  0  0
  -27.9973  -23.5381   20.3212 C   0  0  1  0  0  0
  -32.4766  -20.9337   23.0364 C   0  0  0  0  0  0
  -33.7141  -22.8282   21.9674 C   0  0  0  0  0  0
  -31.2594  -23.0120   22.3340 C   0  0  0  0  0  0
  -28.3218  -25.0692   20.8296 C   0  0  0  0  0  0
  -32.3856  -22.0350   21.9583 C   0  0  0  0  0  0
  -29.0181  -21.2147   20.4827 N   0  0  0  0  0  0
  -29.9130  -15.9758   20.5698 N   0  0  0  0  0  0
  -29.9061  -22.7722   19.0092 O   0  0  0  0  0  0
  -32.6682  -21.9446   19.5547 O   0  0  0  0  0  0
  -28.1374  -18.3578   20.5559 F   0  0  0  0  0  0
  -31.4646  -12.5705   19.1872 H   0  0  0  0  0  0
  -30.3498  -11.5059   19.9913 H   0  0  0  0  0  0
  -29.7987  -11.7205   17.5376 H   0  0  0  0  0  0
  -29.6357  -13.4501   17.7146 H   0  0  0  0  0  0
  -27.8974  -11.2840   18.9290 H   0  0  0  0  0  0
  -27.3780  -12.5086   17.8006 H   0  0  0  0  0  0
  -27.6133  -14.2577   19.4415 H   0  0  0  0  0  0
  -28.7207  -12.2379   21.4524 H   0  0  0  0  0  0
  -28.4141  -13.9317   21.7621 H   0  0  0  0  0  0
  -25.2765   -9.5694   22.4764 H   0  0  0  0  0  0
  -24.0013   -7.4639   22.7479 H   0  0  0  0  0  0
  -21.0855   -8.8765   19.8938 H   0  0  0  0  0  0
  -22.3717  -10.9669   19.6164 H   0  0  0  0  0  0
  -21.2004   -7.6159   23.9730 H   0  0  0  0  0  0
  -21.1480   -6.0525   25.9083 H   0  0  0  0  0  0
  -22.0594   -2.7618   23.2835 H   0  0  0  0  0  0
  -22.4026  -11.9851   22.4811 H   0  0  0  0  0  0
  -21.1044  -13.1224   22.2594 H   0  0  0  0  0  0
  -24.6440  -15.8474   20.5402 H   0  0  0  0  0  0
  -26.2601  -15.6458   20.0969 H   0  0  0  0  0  0
  -26.7225  -32.5367   23.1061 H   0  0  0  0  0  0
  -25.0128  -33.9708   25.0387 H   0  0  0  0  0  0
  -22.7270  -31.2955   21.3891 H   0  0  0  0  0  0
  -23.3769  -35.9581   23.3254 H   0  0  0  0  0  0
  -24.3590  -36.8960   22.2059 H   0  0  0  0  0  0
  -23.7206  -37.6453   23.6699 H   0  0  0  0  0  0
  -26.1048  -31.5117   20.5932 H   0  0  0  0  0  0
  -26.8587  -30.8219   21.9962 H   0  0  0  0  0  0
  -28.1294  -28.9220   21.1841 H   0  0  0  0  0  0
  -25.9781  -25.8606   19.0458 H   0  0  0  0  0  0
  -23.9672  -27.2765   19.0267 H   0  0  0  0  0  0
  -23.7569  -30.5578   19.3963 H   0  0  0  0  0  0
  -22.7628  -29.2174   19.8680 H   0  0  0  0  0  0
  -25.1291  -36.1863   25.0796 H   0  0  0  0  0  0
  -20.9968  -28.3264   24.1419 H   0  0  0  0  0  0
  -20.5728  -26.2319   23.3626 H   0  0  0  0  0  0
  -21.6639  -26.7491   22.1165 H   0  0  0  0  0  0
  -19.6906  -25.6307   21.1271 H   0  0  0  0  0  0
  -19.6678  -27.3209   20.6772 H   0  0  0  0  0  0
  -17.4203  -26.6769   21.4013 H   0  0  0  0  0  0
  -18.0266  -26.0113   22.9008 H   0  0  0  0  0  0
  -19.7935  -30.7333   24.2241 H   0  0  0  0  0  0
  -17.5000  -31.6295   24.5177 H   0  0  0  0  0  0
  -15.5350  -30.2993   23.7713 H   0  0  0  0  0  0
  -15.8663  -28.0848   22.7078 H   0  0  0  0  0  0
  -24.5887  -30.7112   25.7747 H   0  0  0  0  0  0
  -24.8896  -32.2961   26.4780 H   0  0  0  0  0  0
  -25.7995  -30.8985   27.0236 H   0  0  0  0  0  0
  -26.2951  -29.6758   24.1224 H   0  0  0  0  0  0
  -27.4027  -29.7262   25.4738 H   0  0  0  0  0  0
  -27.8820  -30.4313   23.9479 H   0  0  0  0  0  0
  -27.2671  -33.3681   26.1995 H   0  0  0  0  0  0
  -28.3902  -32.6839   25.0339 H   0  0  0  0  0  0
  -28.0678  -31.8508   26.5475 H   0  0  0  0  0  0
  -28.2532  -38.0133   24.7557 H   0  0  0  0  0  0
  -28.1127  -36.2662   24.6167 H   0  0  0  0  0  0
  -27.2312  -37.1276   25.8856 H   0  0  0  0  0  0
  -20.9415  -29.8769   21.6884 H   0  0  0  0  0  0
  -26.0132  -38.2821   24.1481 H   0  0  0  0  0  0
  -33.2762  -19.1666   20.3245 H   0  0  0  0  0  0
  -32.4842  -16.9523   20.3788 H   0  0  0  0  0  0
  -27.7057  -23.0433   22.4145 H   0  0  0  0  0  0
  -26.2670  -22.7897   21.4479 H   0  0  0  0  0  0
  -27.0227  -20.6574   20.7206 H   0  0  0  0  0  0
  -27.9338  -20.7297   22.2288 H   0  0  0  0  0  0
  -27.2828  -23.5970   19.5003 H   0  0  0  0  0  0
  -33.2771  -20.2258   22.8160 H   0  0  0  0  0  0
  -31.5493  -20.3663   23.1267 H   0  0  0  0  0  0
  -32.6831  -21.3612   24.0181 H   0  0  0  0  0  0
  -34.5700  -22.1842   21.7605 H   0  0  0  0  0  0
  -33.8900  -23.2987   22.9352 H   0  0  0  0  0  0
  -33.7163  -23.6272   21.2238 H   0  0  0  0  0  0
  -30.3248  -22.4950   22.5475 H   0  0  0  0  0  0
  -31.0919  -23.7247   21.5281 H   0  0  0  0  0  0
  -31.5109  -23.5911   23.2227 H   0  0  0  0  0  0
  -29.3137  -25.0346   21.2761 H   0  0  0  0  0  0
  -27.6689  -25.2552   21.6823 H   0  0  0  0  0  0
  -28.9224  -15.8532   20.7201 H   0  0  0  0  0  0
  1 25  1  0  0  0
  1 30  2  0  0  0
  1 88  1  0  0  0
  2  3  1  0  0  0
  2 25  1  0  0  0
  2 92  1  0  0  0
  2 93  1  0  0  0
  3  4  1  0  0  0
  3 94  1  0  0  0
  3 95  1  0  0  0
  4  5  1  0  0  0
  4 96  1  0  0  0
  4 97  1  0  0  0
  5  6  1  0  0  0
  5 26  1  0  0  0
  5 98  1  0  0  0
  6 25  1  0  0  0
  6 99  1  0  0  0
  6100  1  0  0  0
  7  8  2  0  0  0
  7 26  1  0  0  0
  7 29  1  0  0  0
  8  9  1  0  0  0
  8 22  1  0  0  0
  9 10  1  0  0  0
  9 27  2  0  0  0
 10 11  2  0  0  0
 10 15  1  0  0  0
 11 12  1  0  0  0
 11101  1  0  0  0
 12 13  2  0  0  0
 12102  1  0  0  0
 13 14  1  0  0  0
 13 31  1  0  0  0
 14 15  2  0  0  0
 14103  1  0  0  0
 15104  1  0  0  0
 16 17  2  0  0  0
 16 21  1  0  0  0
 16 31  1  0  0  0
 17 18  1  0  0  0
 17105  1  0  0  0
 18 19  2  0  0  0
 18106  1  0  0  0
 19 20  1  0  0  0
 19 24  1  0  0  0
 20 21  2  0  0  0
 20107  1  0  0  0
 21 23  1  0  0  0
 22 28  1  0  0  0
 22 32  2  0  0  0
 26 27  1  0  0  0
 28108  1  0  0  0
 28109  1  0  0  0
 29110  1  0  0  0
 29111  1  0  0  0
 33 34  1  0  0  0
 33 66  1  0  0  0
 33 70  2  0  0  0
 34 36  1  0  0  0
 34 59  1  0  0  0
 34112  1  0  0  0
 35 44  2  0  0  0
 35 45  1  0  0  0
 35 68  1  0  0  0
 36 56  1  0  0  0
 36113  1  0  0  0
 37 39  1  0  0  0
 37 47  1  0  0  0
 37 66  1  0  0  0
 37114  1  0  0  0
 38 43  2  0  0  0
 38 46  1  0  0  0
 38 47  1  0  0  0
 39 64  1  0  0  0
 39 67  2  0  0  0
 40 52  1  0  0  0
 40 53  2  0  0  0
 40 58  1  0  0  0
 41115  1  0  0  0
 41116  1  0  0  0
 41117  1  0  0  0
 41 48  1  0  0  0
 42 43  1  0  0  0
 42 66  1  0  0  0
 42118  1  0  0  0
 42119  1  0  0  0
 43 44  1  0  0  0
 44120  1  0  0  0
 45 46  2  0  0  0
 45121  1  0  0  0
 46122  1  0  0  0
 47123  1  0  0  0
 47124  1  0  0  0
 48 56  1  0  0  0
 48 65  1  0  0  0
 48125  1  0  0  0
 49 50  1  0  0  0
 49 53  1  0  0  0
 49 64  1  0  0  0
 49126  1  0  0  0
 50 51  1  0  0  0
 50127  1  0  0  0
 50128  1  0  0  0
 51 52  1  0  0  0
 51129  1  0  0  0
 51130  1  0  0  0
 52131  1  0  0  0
 52132  1  0  0  0
 53 54  1  0  0  0
 54 55  2  0  0  0
 54133  1  0  0  0
 55 57  1  0  0  0
 55134  1  0  0  0
 56 69  2  0  0  0
 57 58  2  0  0  0
 57135  1  0  0  0
 58136  1  0  0  0
 59 60  1  0  0  0
 59 61  1  0  0  0
 59 62  1  0  0  0
 60137  1  0  0  0
 60138  1  0  0  0
 60139  1  0  0  0
 61140  1  0  0  0
 61141  1  0  0  0
 61142  1  0  0  0
 62143  1  0  0  0
 62144  1  0  0  0
 62145  1  0  0  0
 63 65  1  0  0  0
 63146  1  0  0  0
 63147  1  0  0  0
 63148  1  0  0  0
 64149  1  0  0  0
 65150  1  0  0  0
 68 85  1  0  0  0
 71 72  2  0  0  0
 71 73  1  0  0  0
 71151  1  0  0  0
 72 75  1  0  0  0
 72152  1  0  0  0
 73 74  2  0  0  0
 73 78  1  0  0  0
 74 76  1  0  0  0
 74 87  1  0  0  0
 75 76  2  0  0  0
 75 88  1  0  0  0
 76 91  1  0  0  0
 77 81  1  0  0  0
 77 87  1  0  0  0
 77 89  2  0  0  0
 78 86  1  0  0  0
 78 90  2  0  0  0
 79 80  1  0  0  0
 79 81  1  0  0  0
 79153  1  0  0  0
 79154  1  0  0  0
 80 87  1  0  0  0
 80155  1  0  0  0
 80156  1  0  0  0
 81 85  1  0  0  0
 81157  1  0  0  0
 82158  1  0  0  0
 82159  1  0  0  0
 82160  1  0  0  0
 82 86  1  0  0  0
 83 86  1  0  0  0
 83161  1  0  0  0
 83162  1  0  0  0
 83163  1  0  0  0
 84 86  1  0  0  0
 84164  1  0  0  0
 84165  1  0  0  0
 84166  1  0  0  0
 85167  1  0  0  0
 85168  1  0  0  0
 88169  1  0  0  0
M  ISO  4   1 100  68 101  85 101  88 100
M  END
> <chiral flag>
0

> <version>
0

> <s_m_source_file>
/data/baiqing/PycharmProjects/Reinvent-master-3.2/result/LINK_invent/BTK/process_docking_weight1_custom_product_contain_oxygen_bond_distance_aromatic_linkinvent_7_9_3/rearranged_h_0065.sdf

> <i_m_source_file_index>
70

> <r_mmod_Potential_Energy-OPLS-2005>
415.923583984375

> <r_mmod_Stretch_Energy-OPLS-2005>
159.041107177734

> <r_mmod_Bend_Energy-OPLS-2005>
245.26383972168

> <r_mmod_Torsional_Energy-OPLS-2005>
344.913879394531

> <r_mmod_Improper_Torsional_Energy-OPLS-2005>
6.68901109695435

> <r_mmod_Van_der_Waal_Energy-OPLS-2005>
144.300842285156

> <r_mmod_Electrostatic_Energy-OPLS-2005>
-350.514678955078

> <r_mmod_Solvation_Energy-OPLS-2005>
-228.73551940918

> <b_mmod_Minimization_Converged-OPLS-2005>
0

> <r_mmod_RMS_Derivative-OPLS-2005>
2.68567633628845

$$$$
70
                    3D
 Structure written by MMmdl.
155163  0  0  1  0            999 V2000
  -30.6327  -14.6571   20.5101 C   0  0  0  0  0  0
  -30.4393  -12.4062   19.4600 C   0  0  0  0  0  0
  -29.5096  -12.5073   18.2298 C   0  0  0  0  0  0
  -28.0319  -12.3486   18.6391 C   0  0  0  0  0  0
  -27.6535  -13.2228   19.8644 C   0  0  2  0  0  0
  -28.6980  -13.0875   20.9958 C   0  0  0  0  0  0
  -25.2550  -13.8181   20.5690 C   0  0  0  0  0  0
  -24.1827  -13.0440   20.9204 C   0  0  0  0  0  0
  -24.6406  -11.6916   20.8746 C   0  0  0  0  0  0
  -23.9079  -10.4293   21.0416 C   0  0  0  0  0  0
  -24.3632   -9.4207   21.9191 C   0  0  0  0  0  0
  -23.6302   -8.2243   22.0751 C   0  0  0  0  0  0
  -22.4280   -8.0287   21.3542 C   0  0  0  0  0  0
  -21.9927   -9.0261   20.4641 C   0  0  0  0  0  0
  -22.7261  -10.2135   20.3054 C   0  0  0  0  0  0
  -21.6850   -6.0743   22.5282 C   0  0  0  0  0  0
  -21.4017   -6.5643   23.8220 C   0  0  0  0  0  0
  -21.3653   -5.6794   24.9177 C   0  0  0  0  0  0
  -21.6042   -4.3059   24.7227 C   0  0  0  0  0  0
  -21.8819   -3.8152   23.4347 C   0  0  0  0  0  0
  -21.9196   -4.6970   22.3404 C   0  0  0  0  0  0
  -22.7848  -13.5225   21.1858 C   0  0  0  0  0  0
  -22.1662   -4.2160   21.0981 F   0  0  0  0  0  0
  -21.5625   -3.4535   25.7735 F   0  0  0  0  0  0
  -30.0144  -13.4329   20.4354 N   0  0  0  0  0  0
  -26.2992  -12.9378   20.3326 N   0  0  0  0  0  0
  -25.9342  -11.6526   20.5771 N   0  0  0  0  0  0
  -22.0484  -12.8201   22.0400 N   0  0  0  0  0  0
  -25.4242  -15.1903   20.4098 N   0  0  0  0  0  0
  -31.7880  -14.8059   20.1011 O   0  0  0  0  0  0
  -21.6637   -6.8889   21.4244 O   0  0  0  0  0  0
  -22.3536  -14.5538   20.6713 O   0  0  0  0  0  0
  -24.6246  -31.8605   23.2060 C   0  0  0  0  0  0
  -25.9099  -32.4783   23.8375 C   0  0  1  0  0  0
  -27.2136  -27.3041   20.1306 C   0  0  0  0  0  0
  -25.5918  -33.8583   24.2293 N   0  0  0  0  0  0
  -23.4182  -30.4866   21.5473 C   0  0  2  0  0  0
  -24.8670  -28.9474   20.1112 C   0  0  0  0  0  0
  -22.7467  -29.4623   22.4932 C   0  0  0  0  0  0
  -18.0277  -28.1415   22.8491 C   0  0  0  0  0  0
  -24.1472  -36.7284   23.2637 C   0  0  0  0  0  0
  -25.9615  -30.7841   21.3843 C   0  0  0  0  0  0
  -26.0335  -29.4086   20.7345 C   0  0  0  0  0  0
  -27.2090  -28.5956   20.7462 C   0  0  0  0  0  0
  -26.0481  -26.9413   19.4210 C   0  0  0  0  0  0
  -24.8765  -27.7158   19.4433 C   0  0  0  0  0  0
  -23.6353  -29.8277   20.1606 C   0  0  0  0  0  0
  -25.4100  -36.3081   24.0331 C   0  0  1  0  0  0
  -20.5872  -28.3709   23.1291 C   0  0  2  0  0  0
  -20.6763  -26.9434   22.5407 C   0  0  0  0  0  0
  -19.5733  -26.6418   21.5209 C   0  0  0  0  0  0
  -18.1914  -26.7958   22.1628 C   0  0  0  0  0  0
  -19.1532  -28.8887   23.2887 C   0  0  0  0  0  0
  -18.9460  -30.1490   23.8904 C   0  0  0  0  0  0
  -17.6465  -30.6615   24.0593 C   0  0  0  0  0  0
  -25.9051  -34.9449   23.5107 C   0  0  0  0  0  0
  -16.5351  -29.9121   23.6351 C   0  0  0  0  0  0
  -16.7271  -28.6541   23.0362 C   0  0  0  0  0  0
  -26.4489  -31.6583   25.0727 C   0  0  0  0  0  0
  -25.3732  -31.3731   26.1463 C   0  0  0  0  0  0
  -27.0324  -30.2998   24.6181 C   0  0  0  0  0  0
  -27.6047  -32.4317   25.7498 C   0  0  0  0  0  0
  -27.5566  -37.1806   24.8467 C   0  0  0  0  0  0
  -21.4179  -29.3061   22.3691 N   0  0  0  0  0  0
  -26.4271  -37.3781   23.9416 N   0  0  0  0  0  0
  -24.6870  -31.0616   22.1020 N   0  0  0  0  0  0
  -23.4182  -28.8154   23.3013 O   0  0  0  0  0  0
  -28.3121  -26.4239   20.1434 O   0  0  0  0  0  0
  -26.5620  -34.8915   22.4676 O   0  0  0  0  0  0
  -23.5414  -32.1397   23.7394 O   0  0  0  0  0  0
  -29.1718  -19.4772   21.3617 C   0  0  0  0  0  0
  -29.1039  -18.0487   21.4624 C   0  0  0  0  0  0
  -30.9528  -17.8319   19.9564 C   0  0  0  0  0  0
  -30.1373  -20.1353   20.5536 C   0  0  0  0  0  0
  -29.9996  -17.1755   20.7789 C   0  0  0  0  0  0
  -31.0185  -19.2547   19.8444 C   0  0  0  0  0  0
  -30.3093  -21.6581   20.5050 C   0  0  0  0  0  0
  -29.4378  -24.1083   20.4576 C   0  0  0  0  0  0
  -26.8815  -24.2450   20.3898 C   0  0  0  0  0  0
  -28.1737  -25.0356   20.7095 C   0  0  2  0  0  0
  -29.8605  -15.7154   20.9243 N   0  0  0  0  0  0
  -29.3123  -22.6202   20.5626 N   0  0  0  0  0  0
  -31.5732  -22.0911   20.4221 N   0  3  0  0  0  0
  -30.5329  -24.6278   20.2047 O   0  0  0  0  0  0
  -31.9868  -19.7710   19.0458 F   0  0  0  0  0  0
  -31.4789  -12.5333   19.1528 H   0  0  0  0  0  0
  -30.3825  -11.4130   19.9080 H   0  0  0  0  0  0
  -29.7755  -11.7485   17.4926 H   0  0  0  0  0  0
  -29.6526  -13.4712   17.7400 H   0  0  0  0  0  0
  -27.8663  -11.2965   18.8740 H   0  0  0  0  0  0
  -27.3797  -12.5774   17.7948 H   0  0  0  0  0  0
  -27.6697  -14.2572   19.5216 H   0  0  0  0  0  0
  -28.7097  -12.0674   21.3837 H   0  0  0  0  0  0
  -28.4385  -13.7251   21.8424 H   0  0  0  0  0  0
  -25.2778   -9.5671   22.4765 H   0  0  0  0  0  0
  -24.0008   -7.4630   22.7467 H   0  0  0  0  0  0
  -21.0860   -8.8784   19.8942 H   0  0  0  0  0  0
  -22.3733  -10.9675   19.6153 H   0  0  0  0  0  0
  -21.2009   -7.6151   23.9726 H   0  0  0  0  0  0
  -21.1471   -6.0521   25.9082 H   0  0  0  0  0  0
  -22.0602   -2.7617   23.2842 H   0  0  0  0  0  0
  -22.4096  -11.9855   22.4785 H   0  0  0  0  0  0
  -21.1093  -13.1204   22.2586 H   0  0  0  0  0  0
  -24.6524  -15.8401   20.5153 H   0  0  0  0  0  0
  -26.2613  -15.6270   20.0451 H   0  0  0  0  0  0
  -26.7158  -32.5472   23.1128 H   0  0  0  0  0  0
  -25.0047  -33.9727   25.0427 H   0  0  0  0  0  0
  -22.7135  -31.3093   21.4091 H   0  0  0  0  0  0
  -23.3727  -35.9626   23.3305 H   0  0  0  0  0  0
  -24.3557  -36.8900   22.2049 H   0  0  0  0  0  0
  -23.7225  -37.6486   23.6662 H   0  0  0  0  0  0
  -26.0937  -31.5411   20.6094 H   0  0  0  0  0  0
  -26.8431  -30.8381   22.0110 H   0  0  0  0  0  0
  -28.0989  -28.9414   21.2536 H   0  0  0  0  0  0
  -26.0247  -26.0400   18.8297 H   0  0  0  0  0  0
  -23.9967  -27.3732   18.9145 H   0  0  0  0  0  0
  -23.7576  -30.6071   19.4061 H   0  0  0  0  0  0
  -22.7556  -29.2581   19.8551 H   0  0  0  0  0  0
  -25.1286  -36.1919   25.0826 H   0  0  0  0  0  0
  -20.9988  -28.3271   24.1405 H   0  0  0  0  0  0
  -20.5663  -26.2317   23.3598 H   0  0  0  0  0  0
  -21.6633  -26.7475   22.1202 H   0  0  0  0  0  0
  -19.6875  -25.6334   21.1228 H   0  0  0  0  0  0
  -19.6660  -27.3255   20.6751 H   0  0  0  0  0  0
  -17.4182  -26.6722   21.4021 H   0  0  0  0  0  0
  -18.0313  -26.0107   22.9037 H   0  0  0  0  0  0
  -19.7937  -30.7310   24.2257 H   0  0  0  0  0  0
  -17.5027  -31.6292   24.5208 H   0  0  0  0  0  0
  -15.5362  -30.3042   23.7679 H   0  0  0  0  0  0
  -15.8659  -28.0885   22.7067 H   0  0  0  0  0  0
  -24.5931  -30.7034   25.7817 H   0  0  0  0  0  0
  -24.8898  -32.2901   26.4846 H   0  0  0  0  0  0
  -25.8081  -30.8959   27.0256 H   0  0  0  0  0  0
  -26.2888  -29.6755   24.1208 H   0  0  0  0  0  0
  -27.4001  -29.7246   25.4690 H   0  0  0  0  0  0
  -27.8780  -30.4260   23.9410 H   0  0  0  0  0  0
  -27.2657  -33.3637   26.2038 H   0  0  0  0  0  0
  -28.3884  -32.6843   25.0341 H   0  0  0  0  0  0
  -28.0676  -31.8454   26.5446 H   0  0  0  0  0  0
  -28.2608  -38.0087   24.7523 H   0  0  0  0  0  0
  -28.1047  -36.2624   24.6296 H   0  0  0  0  0  0
  -27.2294  -37.1466   25.8875 H   0  0  0  0  0  0
  -20.9346  -29.8798   21.6920 H   0  0  0  0  0  0
  -26.0138  -38.2846   24.1439 H   0  0  0  0  0  0
  -28.4791  -20.0662   21.9457 H   0  0  0  0  0  0
  -28.3430  -17.6241   22.1018 H   0  0  0  0  0  0
  -31.6640  -17.2502   19.3899 H   0  0  0  0  0  0
  -26.8534  -23.2786   20.8904 H   0  0  0  0  0  0
  -26.7760  -24.0563   19.3210 H   0  0  0  0  0  0
  -25.9921  -24.7574   20.7535 H   0  0  0  0  0  0
  -28.1671  -25.1894   21.7895 H   0  0  0  0  0  0
  -28.9890  -15.4195   21.3350 H   0  0  0  0  0  0
  -28.4064  -22.2060   20.7147 H   0  0  0  0  0  0
  -32.3171  -21.4279   20.2532 H   0  0  0  0  0  0
  -31.7496  -23.0846   20.3327 H   0  0  0  0  0  0
  1 25  1  0  0  0
  1 30  2  0  0  0
  1 81  1  0  0  0
  2  3  1  0  0  0
  2 25  1  0  0  0
  2 86  1  0  0  0
  2 87  1  0  0  0
  3  4  1  0  0  0
  3 88  1  0  0  0
  3 89  1  0  0  0
  4  5  1  0  0  0
  4 90  1  0  0  0
  4 91  1  0  0  0
  5  6  1  0  0  0
  5 26  1  0  0  0
  5 92  1  0  0  0
  6 25  1  0  0  0
  6 93  1  0  0  0
  6 94  1  0  0  0
  7  8  2  0  0  0
  7 26  1  0  0  0
  7 29  1  0  0  0
  8  9  1  0  0  0
  8 22  1  0  0  0
  9 10  1  0  0  0
  9 27  2  0  0  0
 10 11  2  0  0  0
 10 15  1  0  0  0
 11 12  1  0  0  0
 11 95  1  0  0  0
 12 13  2  0  0  0
 12 96  1  0  0  0
 13 14  1  0  0  0
 13 31  1  0  0  0
 14 15  2  0  0  0
 14 97  1  0  0  0
 15 98  1  0  0  0
 16 17  2  0  0  0
 16 21  1  0  0  0
 16 31  1  0  0  0
 17 18  1  0  0  0
 17 99  1  0  0  0
 18 19  2  0  0  0
 18100  1  0  0  0
 19 20  1  0  0  0
 19 24  1  0  0  0
 20 21  2  0  0  0
 20101  1  0  0  0
 21 23  1  0  0  0
 22 28  1  0  0  0
 22 32  2  0  0  0
 26 27  1  0  0  0
 28102  1  0  0  0
 28103  1  0  0  0
 29104  1  0  0  0
 29105  1  0  0  0
 33 34  1  0  0  0
 33 66  1  0  0  0
 33 70  2  0  0  0
 34 36  1  0  0  0
 34 59  1  0  0  0
 34106  1  0  0  0
 35 44  2  0  0  0
 35 45  1  0  0  0
 35 68  1  0  0  0
 36 56  1  0  0  0
 36107  1  0  0  0
 37 39  1  0  0  0
 37 47  1  0  0  0
 37 66  1  0  0  0
 37108  1  0  0  0
 38 43  2  0  0  0
 38 46  1  0  0  0
 38 47  1  0  0  0
 39 64  1  0  0  0
 39 67  2  0  0  0
 40 52  1  0  0  0
 40 53  2  0  0  0
 40 58  1  0  0  0
 41109  1  0  0  0
 41110  1  0  0  0
 41111  1  0  0  0
 41 48  1  0  0  0
 42 43  1  0  0  0
 42 66  1  0  0  0
 42112  1  0  0  0
 42113  1  0  0  0
 43 44  1  0  0  0
 44114  1  0  0  0
 45 46  2  0  0  0
 45115  1  0  0  0
 46116  1  0  0  0
 47117  1  0  0  0
 47118  1  0  0  0
 48 56  1  0  0  0
 48 65  1  0  0  0
 48119  1  0  0  0
 49 50  1  0  0  0
 49 53  1  0  0  0
 49 64  1  0  0  0
 49120  1  0  0  0
 50 51  1  0  0  0
 50121  1  0  0  0
 50122  1  0  0  0
 51 52  1  0  0  0
 51123  1  0  0  0
 51124  1  0  0  0
 52125  1  0  0  0
 52126  1  0  0  0
 53 54  1  0  0  0
 54 55  2  0  0  0
 54127  1  0  0  0
 55 57  1  0  0  0
 55128  1  0  0  0
 56 69  2  0  0  0
 57 58  2  0  0  0
 57129  1  0  0  0
 58130  1  0  0  0
 59 60  1  0  0  0
 59 61  1  0  0  0
 59 62  1  0  0  0
 60131  1  0  0  0
 60132  1  0  0  0
 60133  1  0  0  0
 61134  1  0  0  0
 61135  1  0  0  0
 61136  1  0  0  0
 62137  1  0  0  0
 62138  1  0  0  0
 62139  1  0  0  0
 63 65  1  0  0  0
 63140  1  0  0  0
 63141  1  0  0  0
 63142  1  0  0  0
 64143  1  0  0  0
 65144  1  0  0  0
 68 80  1  0  0  0
 71 72  2  0  0  0
 71 74  1  0  0  0
 71145  1  0  0  0
 72 75  1  0  0  0
 72146  1  0  0  0
 73 75  2  0  0  0
 73 76  1  0  0  0
 73147  1  0  0  0
 74 76  2  0  0  0
 74 77  1  0  0  0
 75 81  1  0  0  0
 76 85  1  0  0  0
 77 82  1  0  0  0
 77 83  2  0  0  0
 78 80  1  0  0  0
 78 82  1  0  0  0
 78 84  2  0  0  0
 79148  1  0  0  0
 79149  1  0  0  0
 79150  1  0  0  0
 79 80  1  0  0  0
 80151  1  0  0  0
 81152  1  0  0  0
 82153  1  0  0  0
 83154  1  0  0  0
 83155  1  0  0  0
M  CHG  1  83   1
M  ISO  4   1 100  68 101  80 101  81 100
M  END
> <chiral flag>
0

> <version>
0

> <s_m_source_file>
/data/baiqing/PycharmProjects/Reinvent-master-3.2/result/LINK_invent/BTK/process_docking_weight1_custom_product_contain_oxygen_bond_distance_aromatic_linkinvent_7_9_3/rearranged_h_0065.sdf

> <i_m_source_file_index>
71

> <r_mmod_Potential_Energy-OPLS-2005>
-132.703750610352

> <r_mmod_Stretch_Energy-OPLS-2005>
98.5612030029297

> <r_mmod_Bend_Energy-OPLS-2005>
157.135879516602

> <r_mmod_Torsional_Energy-OPLS-2005>
236.107040405273

> <r_mmod_Improper_Torsional_Energy-OPLS-2005>
4.30102396011353

> <r_mmod_Van_der_Waal_Energy-OPLS-2005>
168.679946899414

> <r_mmod_Electrostatic_Energy-OPLS-2005>
-396.68017578125

> <r_mmod_Solvation_Energy-OPLS-2005>
-456.171478271484

> <b_mmod_Minimization_Converged-OPLS-2005>
0

> <r_mmod_RMS_Derivative-OPLS-2005>
1.94908595085144

$$$$
71
                    3D
 Structure written by MMmdl.
159167  0  0  1  0            999 V2000
  -30.5365  -14.7154   20.4673 C   0  0  0  0  0  0
  -30.4596  -12.4440   19.4475 C   0  0  0  0  0  0
  -29.5154  -12.5014   18.2227 C   0  0  0  0  0  0
  -28.0379  -12.3359   18.6417 C   0  0  0  0  0  0
  -27.6561  -13.2051   19.8694 C   0  0  2  0  0  0
  -28.7039  -13.0560   20.9941 C   0  0  0  0  0  0
  -25.2590  -13.8154   20.5686 C   0  0  0  0  0  0
  -24.1852  -13.0442   20.9255 C   0  0  0  0  0  0
  -24.6407  -11.6910   20.8792 C   0  0  0  0  0  0
  -23.9057  -10.4300   21.0442 C   0  0  0  0  0  0
  -24.3611   -9.4203   21.9220 C   0  0  0  0  0  0
  -23.6287   -8.2233   22.0774 C   0  0  0  0  0  0
  -22.4276   -8.0289   21.3559 C   0  0  0  0  0  0
  -21.9903   -9.0270   20.4666 C   0  0  0  0  0  0
  -22.7230  -10.2143   20.3080 C   0  0  0  0  0  0
  -21.6854   -6.0741   22.5292 C   0  0  0  0  0  0
  -21.4001   -6.5631   23.8232 C   0  0  0  0  0  0
  -21.3645   -5.6782   24.9186 C   0  0  0  0  0  0
  -21.6069   -4.3062   24.7232 C   0  0  0  0  0  0
  -21.8821   -3.8149   23.4355 C   0  0  0  0  0  0
  -21.9186   -4.6962   22.3410 C   0  0  0  0  0  0
  -22.7866  -13.5248   21.1908 C   0  0  0  0  0  0
  -22.1661   -4.2144   21.0989 F   0  0  0  0  0  0
  -21.5618   -3.4543   25.7738 F   0  0  0  0  0  0
  -30.0018  -13.4497   20.4278 N   0  0  0  0  0  0
  -26.3012  -12.9305   20.3365 N   0  0  0  0  0  0
  -25.9339  -11.6491   20.5819 N   0  0  0  0  0  0
  -22.0464  -12.8273   22.0433 N   0  0  0  0  0  0
  -25.4323  -15.1869   20.4041 N   0  0  0  0  0  0
  -31.6908  -14.9224   20.0830 O   0  0  0  0  0  0
  -21.6648   -6.8880   21.4258 O   0  0  0  0  0  0
  -22.3581  -14.5550   20.6708 O   0  0  0  0  0  0
  -24.6220  -31.8579   23.1969 C   0  0  0  0  0  0
  -25.9082  -32.4775   23.8310 C   0  0  1  0  0  0
  -27.2411  -27.3132   20.1114 C   0  0  0  0  0  0
  -25.5931  -33.8607   24.2223 N   0  0  0  0  0  0
  -23.4172  -30.4705   21.5408 C   0  0  2  0  0  0
  -24.8692  -28.9197   20.1052 C   0  0  0  0  0  0
  -22.7450  -29.4572   22.4952 C   0  0  0  0  0  0
  -18.0270  -28.1364   22.8505 C   0  0  0  0  0  0
  -24.1483  -36.7290   23.2637 C   0  0  0  0  0  0
  -25.9575  -30.7785   21.3690 C   0  0  0  0  0  0
  -26.0315  -29.4024   20.7184 C   0  0  0  0  0  0
  -27.2147  -28.6081   20.7174 C   0  0  0  0  0  0
  -26.0655  -26.8869   19.4629 C   0  0  0  0  0  0
  -24.8883  -27.6675   19.4659 C   0  0  0  0  0  0
  -23.6316  -29.7959   20.1565 C   0  0  0  0  0  0
  -25.4136  -36.3110   24.0303 C   0  0  1  0  0  0
  -20.5872  -28.3659   23.1311 C   0  0  2  0  0  0
  -20.6775  -26.9381   22.5444 C   0  0  0  0  0  0
  -19.5743  -26.6367   21.5245 C   0  0  0  0  0  0
  -18.1921  -26.7915   22.1627 C   0  0  0  0  0  0
  -19.1524  -28.8840   23.2885 C   0  0  0  0  0  0
  -18.9453  -30.1475   23.8855 C   0  0  0  0  0  0
  -17.6449  -30.6581   24.0584 C   0  0  0  0  0  0
  -25.9100  -34.9477   23.5066 C   0  0  0  0  0  0
  -16.5342  -29.9087   23.6338 C   0  0  0  0  0  0
  -16.7255  -28.6512   23.0331 C   0  0  0  0  0  0
  -26.4486  -31.6591   25.0667 C   0  0  0  0  0  0
  -25.3722  -31.3730   26.1386 C   0  0  0  0  0  0
  -27.0359  -30.3029   24.6127 C   0  0  0  0  0  0
  -27.6047  -32.4327   25.7421 C   0  0  0  0  0  0
  -27.5594  -37.1815   24.8481 C   0  0  0  0  0  0
  -21.4168  -29.3003   22.3712 N   0  0  0  0  0  0
  -26.4311  -37.3797   23.9409 N   0  0  0  0  0  0
  -24.6850  -31.0544   22.0925 N   0  0  0  0  0  0
  -23.4180  -28.8124   23.3044 O   0  0  0  0  0  0
  -28.3930  -26.5149   20.1728 O   0  0  0  0  0  0
  -26.5667  -34.8940   22.4624 O   0  0  0  0  0  0
  -23.5379  -32.1392   23.7281 O   0  0  0  0  0  0
  -29.6077  -19.2149   19.1910 C   0  0  0  0  0  0
  -28.8796  -17.9913   21.5706 C   0  0  0  0  0  0
  -28.9498  -20.0448   20.1510 C   0  0  0  0  0  0
  -29.5404  -17.1616   20.6145 C   0  0  0  0  0  0
  -29.8896  -17.8217   19.4031 C   0  0  0  0  0  0
  -28.6100  -19.3820   21.3621 C   0  0  0  0  0  0
  -28.5444  -21.4882   19.8436 C   0  0  0  0  0  0
  -26.3846  -23.8208   20.7090 C   0  0  0  0  0  0
  -28.2343  -24.4662   22.2402 C   0  0  0  0  0  0
  -28.4548  -25.0728   19.8015 C   0  0  0  0  0  0
  -27.9179  -23.9487   20.8177 C   0  0  0  0  0  0
  -28.1394  -21.7685   18.6026 N   0  0  0  0  0  0
  -29.6665  -15.7098   20.8676 N   0  0  0  0  0  0
  -28.5209  -22.5318   20.7459 N   0  3  0  0  0  0
  -30.4343  -17.1049   18.3934 F   0  0  0  0  0  0
  -27.9811  -20.0787   22.3415 F   0  0  0  0  0  0
  -31.4848  -12.6269   19.1259 H   0  0  0  0  0  0
  -30.4634  -11.4476   19.8899 H   0  0  0  0  0  0
  -29.7923  -11.7211   17.5110 H   0  0  0  0  0  0
  -29.6499  -13.4471   17.6972 H   0  0  0  0  0  0
  -27.8933  -11.2836   18.8832 H   0  0  0  0  0  0
  -27.3731  -12.5445   17.8026 H   0  0  0  0  0  0
  -27.6729  -14.2417   19.5381 H   0  0  0  0  0  0
  -28.7497  -12.0247   21.3509 H   0  0  0  0  0  0
  -28.4413  -13.6562   21.8673 H   0  0  0  0  0  0
  -25.2759   -9.5652   22.4809 H   0  0  0  0  0  0
  -23.9999   -7.4607   22.7483 H   0  0  0  0  0  0
  -21.0830   -8.8804   19.8971 H   0  0  0  0  0  0
  -22.3731  -10.9697   19.6180 H   0  0  0  0  0  0
  -21.2010   -7.6139   23.9724 H   0  0  0  0  0  0
  -21.1456   -6.0519   25.9085 H   0  0  0  0  0  0
  -22.0613   -2.7615   23.2865 H   0  0  0  0  0  0
  -22.3982  -11.9913   22.4841 H   0  0  0  0  0  0
  -21.1084  -13.1328   22.2578 H   0  0  0  0  0  0
  -24.6616  -15.8373   20.5108 H   0  0  0  0  0  0
  -26.2511  -15.6196   19.9936 H   0  0  0  0  0  0
  -26.7153  -32.5408   23.1061 H   0  0  0  0  0  0
  -25.0163  -33.9835   25.0424 H   0  0  0  0  0  0
  -22.7114  -31.2900   21.3936 H   0  0  0  0  0  0
  -23.3767  -35.9600   23.3315 H   0  0  0  0  0  0
  -24.3606  -36.8896   22.2059 H   0  0  0  0  0  0
  -23.7206  -37.6473   23.6662 H   0  0  0  0  0  0
  -26.0885  -31.5294   20.5888 H   0  0  0  0  0  0
  -26.8405  -30.8381   21.9958 H   0  0  0  0  0  0
  -28.1071  -28.9723   21.2048 H   0  0  0  0  0  0
  -26.0430  -25.9393   18.9485 H   0  0  0  0  0  0
  -24.0038  -27.2946   18.9644 H   0  0  0  0  0  0
  -23.7422  -30.5712   19.3974 H   0  0  0  0  0  0
  -22.7530  -29.2213   19.8550 H   0  0  0  0  0  0
  -25.1329  -36.1952   25.0793 H   0  0  0  0  0  0
  -20.9990  -28.3201   24.1419 H   0  0  0  0  0  0
  -20.5721  -26.2238   23.3621 H   0  0  0  0  0  0
  -21.6631  -26.7467   22.1182 H   0  0  0  0  0  0
  -19.6911  -25.6292   21.1236 H   0  0  0  0  0  0
  -19.6661  -27.3223   20.6801 H   0  0  0  0  0  0
  -17.4206  -26.6680   21.4014 H   0  0  0  0  0  0
  -18.0308  -26.0052   22.8994 H   0  0  0  0  0  0
  -19.7934  -30.7341   24.2141 H   0  0  0  0  0  0
  -17.4991  -31.6256   24.5199 H   0  0  0  0  0  0
  -15.5340  -30.2963   23.7731 H   0  0  0  0  0  0
  -15.8642  -28.0877   22.6986 H   0  0  0  0  0  0
  -24.5906  -30.7087   25.7678 H   0  0  0  0  0  0
  -24.8907  -32.2888   26.4803 H   0  0  0  0  0  0
  -25.8026  -30.8894   27.0143 H   0  0  0  0  0  0
  -26.2942  -29.6724   24.1208 H   0  0  0  0  0  0
  -27.4132  -29.7348   25.4629 H   0  0  0  0  0  0
  -27.8747  -30.4338   23.9301 H   0  0  0  0  0  0
  -27.2709  -33.3660   26.1962 H   0  0  0  0  0  0
  -28.3864  -32.6823   25.0243 H   0  0  0  0  0  0
  -28.0688  -31.8451   26.5349 H   0  0  0  0  0  0
  -28.2637  -38.0100   24.7558 H   0  0  0  0  0  0
  -28.1064  -36.2637   24.6271 H   0  0  0  0  0  0
  -27.2324  -37.1417   25.8889 H   0  0  0  0  0  0
  -20.9330  -29.8729   21.6939 H   0  0  0  0  0  0
  -26.0170  -38.2849   24.1417 H   0  0  0  0  0  0
  -29.8817  -19.6397   18.2361 H   0  0  0  0  0  0
  -28.5382  -17.5517   22.4952 H   0  0  0  0  0  0
  -25.8768  -24.6715   21.1659 H   0  0  0  0  0  0
  -26.0153  -22.9307   21.2209 H   0  0  0  0  0  0
  -26.0531  -23.7535   19.6727 H   0  0  0  0  0  0
  -27.8827  -25.4899   22.3882 H   0  0  0  0  0  0
  -29.3049  -24.4632   22.4547 H   0  0  0  0  0  0
  -27.7422  -23.8720   23.0101 H   0  0  0  0  0  0
  -28.0274  -24.9356   18.8090 H   0  0  0  0  0  0
  -29.5189  -24.8793   19.6476 H   0  0  0  0  0  0
  -28.0452  -21.0220   17.9301 H   0  0  0  0  0  0
  -27.8718  -22.6960   18.3235 H   0  0  0  0  0  0
  -28.8676  -15.3243   21.3457 H   0  0  0  0  0  0
  -28.7562  -22.1851   21.6669 H   0  0  0  0  0  0
  1 25  1  0  0  0
  1 30  2  0  0  0
  1 83  1  0  0  0
  2  3  1  0  0  0
  2 25  1  0  0  0
  2 87  1  0  0  0
  2 88  1  0  0  0
  3  4  1  0  0  0
  3 89  1  0  0  0
  3 90  1  0  0  0
  4  5  1  0  0  0
  4 91  1  0  0  0
  4 92  1  0  0  0
  5  6  1  0  0  0
  5 26  1  0  0  0
  5 93  1  0  0  0
  6 25  1  0  0  0
  6 94  1  0  0  0
  6 95  1  0  0  0
  7  8  2  0  0  0
  7 26  1  0  0  0
  7 29  1  0  0  0
  8  9  1  0  0  0
  8 22  1  0  0  0
  9 10  1  0  0  0
  9 27  2  0  0  0
 10 11  2  0  0  0
 10 15  1  0  0  0
 11 12  1  0  0  0
 11 96  1  0  0  0
 12 13  2  0  0  0
 12 97  1  0  0  0
 13 14  1  0  0  0
 13 31  1  0  0  0
 14 15  2  0  0  0
 14 98  1  0  0  0
 15 99  1  0  0  0
 16 17  2  0  0  0
 16 21  1  0  0  0
 16 31  1  0  0  0
 17 18  1  0  0  0
 17100  1  0  0  0
 18 19  2  0  0  0
 18101  1  0  0  0
 19 20  1  0  0  0
 19 24  1  0  0  0
 20 21  2  0  0  0
 20102  1  0  0  0
 21 23  1  0  0  0
 22 28  1  0  0  0
 22 32  2  0  0  0
 26 27  1  0  0  0
 28103  1  0  0  0
 28104  1  0  0  0
 29105  1  0  0  0
 29106  1  0  0  0
 33 34  1  0  0  0
 33 66  1  0  0  0
 33 70  2  0  0  0
 34 36  1  0  0  0
 34 59  1  0  0  0
 34107  1  0  0  0
 35 44  2  0  0  0
 35 45  1  0  0  0
 35 68  1  0  0  0
 36 56  1  0  0  0
 36108  1  0  0  0
 37 39  1  0  0  0
 37 47  1  0  0  0
 37 66  1  0  0  0
 37109  1  0  0  0
 38 43  2  0  0  0
 38 46  1  0  0  0
 38 47  1  0  0  0
 39 64  1  0  0  0
 39 67  2  0  0  0
 40 52  1  0  0  0
 40 53  2  0  0  0
 40 58  1  0  0  0
 41110  1  0  0  0
 41111  1  0  0  0
 41112  1  0  0  0
 41 48  1  0  0  0
 42 43  1  0  0  0
 42 66  1  0  0  0
 42113  1  0  0  0
 42114  1  0  0  0
 43 44  1  0  0  0
 44115  1  0  0  0
 45 46  2  0  0  0
 45116  1  0  0  0
 46117  1  0  0  0
 47118  1  0  0  0
 47119  1  0  0  0
 48 56  1  0  0  0
 48 65  1  0  0  0
 48120  1  0  0  0
 49 50  1  0  0  0
 49 53  1  0  0  0
 49 64  1  0  0  0
 49121  1  0  0  0
 50 51  1  0  0  0
 50122  1  0  0  0
 50123  1  0  0  0
 51 52  1  0  0  0
 51124  1  0  0  0
 51125  1  0  0  0
 52126  1  0  0  0
 52127  1  0  0  0
 53 54  1  0  0  0
 54 55  2  0  0  0
 54128  1  0  0  0
 55 57  1  0  0  0
 55129  1  0  0  0
 56 69  2  0  0  0
 57 58  2  0  0  0
 57130  1  0  0  0
 58131  1  0  0  0
 59 60  1  0  0  0
 59 61  1  0  0  0
 59 62  1  0  0  0
 60132  1  0  0  0
 60133  1  0  0  0
 60134  1  0  0  0
 61135  1  0  0  0
 61136  1  0  0  0
 61137  1  0  0  0
 62138  1  0  0  0
 62139  1  0  0  0
 62140  1  0  0  0
 63 65  1  0  0  0
 63141  1  0  0  0
 63142  1  0  0  0
 63143  1  0  0  0
 64144  1  0  0  0
 65145  1  0  0  0
 68 80  1  0  0  0
 71 73  2  0  0  0
 71 75  1  0  0  0
 71146  1  0  0  0
 72 74  1  0  0  0
 72 76  2  0  0  0
 72147  1  0  0  0
 73 76  1  0  0  0
 73 77  1  0  0  0
 74 75  2  0  0  0
 74 83  1  0  0  0
 75 85  1  0  0  0
 76 86  1  0  0  0
 77 82  1  0  0  0
 77 84  2  0  0  0
 78148  1  0  0  0
 78149  1  0  0  0
 78150  1  0  0  0
 78 81  1  0  0  0
 79 81  1  0  0  0
 79151  1  0  0  0
 79152  1  0  0  0
 79153  1  0  0  0
 80 81  1  0  0  0
 80154  1  0  0  0
 80155  1  0  0  0
 81 84  1  0  0  0
 82156  1  0  0  0
 82157  1  0  0  0
 83158  1  0  0  0
 84159  1  0  0  0
M  CHG  1  84   1
M  ISO  4   1 100  68 101  80 101  83 100
M  END
> <chiral flag>
0

> <version>
0

> <s_m_source_file>
/data/baiqing/PycharmProjects/Reinvent-master-3.2/result/LINK_invent/BTK/process_docking_weight1_custom_product_contain_oxygen_bond_distance_aromatic_linkinvent_7_9_3/rearranged_h_0065.sdf

> <i_m_source_file_index>
72

> <r_mmod_Potential_Energy-OPLS-2005>
-149.615036010742

> <r_mmod_Stretch_Energy-OPLS-2005>
98.3313827514648

> <r_mmod_Bend_Energy-OPLS-2005>
183.364517211914

> <r_mmod_Torsional_Energy-OPLS-2005>
227.684677124023

> <r_mmod_Improper_Torsional_Energy-OPLS-2005>
4.98731708526611

> <r_mmod_Van_der_Waal_Energy-OPLS-2005>
133.842758178711

> <r_mmod_Electrostatic_Energy-OPLS-2005>
-432.41259765625

> <r_mmod_Solvation_Energy-OPLS-2005>
-430.80810546875

> <b_mmod_Minimization_Converged-OPLS-2005>
0

> <r_mmod_RMS_Derivative-OPLS-2005>
5.32451677322388

$$$$
72
                    3D
 Structure written by MMmdl.
161170  0  0  1  0            999 V2000
  -30.6601  -14.7244   20.4500 C   0  0  0  0  0  0
  -30.4283  -12.4447   19.4504 C   0  0  0  0  0  0
  -29.5014  -12.4919   18.2182 C   0  0  0  0  0  0
  -28.0251  -12.3238   18.6339 C   0  0  0  0  0  0
  -27.6367  -13.2346   19.8312 C   0  0  2  0  0  0
  -28.6933  -13.1876   20.9568 C   0  0  0  0  0  0
  -25.2468  -13.8237   20.5642 C   0  0  0  0  0  0
  -24.1735  -13.0459   20.9216 C   0  0  0  0  0  0
  -24.6358  -11.6973   20.8746 C   0  0  0  0  0  0
  -23.9027  -10.4324   21.0355 C   0  0  0  0  0  0
  -24.3582   -9.4253   21.9125 C   0  0  0  0  0  0
  -23.6286   -8.2267   22.0704 C   0  0  0  0  0  0
  -22.4267   -8.0270   21.3508 C   0  0  0  0  0  0
  -21.9870   -9.0242   20.4622 C   0  0  0  0  0  0
  -22.7183  -10.2144   20.3032 C   0  0  0  0  0  0
  -21.6868   -6.0689   22.5248 C   0  0  0  0  0  0
  -21.4039   -6.5592   23.8185 C   0  0  0  0  0  0
  -21.3677   -5.6754   24.9148 C   0  0  0  0  0  0
  -21.6028   -4.3016   24.7191 C   0  0  0  0  0  0
  -21.8833   -3.8104   23.4328 C   0  0  0  0  0  0
  -21.9211   -4.6910   22.3384 C   0  0  0  0  0  0
  -22.7767  -13.5240   21.1851 C   0  0  0  0  0  0
  -22.1663   -4.2114   21.0938 F   0  0  0  0  0  0
  -21.5643   -3.4500   25.7691 F   0  0  0  0  0  0
  -29.9919  -13.5247   20.3599 N   0  0  0  0  0  0
  -26.2895  -12.9444   20.3203 N   0  0  0  0  0  0
  -25.9291  -11.6608   20.5749 N   0  0  0  0  0  0
  -22.0381  -12.8290   22.0450 N   0  0  0  0  0  0
  -25.4079  -15.1949   20.3982 N   0  0  0  0  0  0
  -31.8677  -14.7738   20.2096 O   0  0  0  0  0  0
  -21.6669   -6.8834   21.4200 O   0  0  0  0  0  0
  -22.3447  -14.5483   20.6609 O   0  0  0  0  0  0
  -24.6288  -31.8506   23.1979 C   0  0  0  0  0  0
  -25.9103  -32.4758   23.8278 C   0  0  1  0  0  0
  -27.2473  -27.2785   20.1486 C   0  0  0  0  0  0
  -25.5904  -33.8549   24.2229 N   0  0  0  0  0  0
  -23.4284  -30.4652   21.5404 C   0  0  2  0  0  0
  -24.8871  -28.8977   20.1284 C   0  0  0  0  0  0
  -22.7455  -29.4581   22.4942 C   0  0  0  0  0  0
  -18.0245  -28.1383   22.8518 C   0  0  0  0  0  0
  -24.1484  -36.7309   23.2633 C   0  0  0  0  0  0
  -25.9688  -30.7675   21.3770 C   0  0  0  0  0  0
  -26.0521  -29.3846   20.7343 C   0  0  0  0  0  0
  -27.2365  -28.5859   20.7357 C   0  0  0  0  0  0
  -26.0651  -26.8462   19.5158 C   0  0  0  0  0  0
  -24.8972  -27.6370   19.5080 C   0  0  0  0  0  0
  -23.6530  -29.7778   20.1656 C   0  0  0  0  0  0
  -25.4130  -36.3108   24.0314 C   0  0  1  0  0  0
  -20.5836  -28.3720   23.1303 C   0  0  2  0  0  0
  -20.6760  -26.9437   22.5452 C   0  0  0  0  0  0
  -19.5751  -26.6403   21.5238 C   0  0  0  0  0  0
  -18.1915  -26.7929   22.1631 C   0  0  0  0  0  0
  -19.1494  -28.8864   23.2900 C   0  0  0  0  0  0
  -18.9430  -30.1454   23.8937 C   0  0  0  0  0  0
  -17.6439  -30.6617   24.0577 C   0  0  0  0  0  0
  -25.9071  -34.9450   23.5106 C   0  0  0  0  0  0
  -16.5319  -29.9119   23.6328 C   0  0  0  0  0  0
  -16.7226  -28.6507   23.0391 C   0  0  0  0  0  0
  -26.4484  -31.6580   25.0667 C   0  0  0  0  0  0
  -25.3719  -31.3734   26.1402 C   0  0  0  0  0  0
  -27.0301  -30.2995   24.6167 C   0  0  0  0  0  0
  -27.6037  -32.4315   25.7446 C   0  0  0  0  0  0
  -27.5599  -37.1824   24.8441 C   0  0  0  0  0  0
  -21.4166  -29.3056   22.3697 N   0  0  0  0  0  0
  -26.4310  -37.3821   23.9393 N   0  0  0  0  0  0
  -24.6948  -31.0431   22.0975 N   0  0  0  0  0  0
  -23.4148  -28.8130   23.3057 O   0  0  0  0  0  0
  -28.3704  -26.4305   20.1221 O   0  0  0  0  0  0
  -26.5650  -34.8916   22.4685 O   0  0  0  0  0  0
  -23.5450  -32.1274   23.7317 O   0  0  0  0  0  0
  -31.7873  -18.7553   22.1153 C   0  0  0  0  0  0
  -31.3687  -17.4712   21.7405 C   0  0  0  0  0  0
  -29.7279  -18.5016   20.2728 C   0  0  0  0  0  0
  -31.2045  -19.9303   21.5839 C   0  0  0  0  0  0
  -30.1218  -19.8678   20.6435 C   0  0  0  0  0  0
  -30.3359  -17.2855   20.8049 C   0  0  0  0  0  0
  -29.5752  -21.2296   18.6606 C   0  0  0  0  0  0
  -29.8416  -22.5900   17.9631 C   0  0  0  0  0  0
  -29.5805  -23.8963   18.7789 C   0  0  0  0  0  0
  -29.1563  -22.4070   20.7693 C   0  0  0  0  0  0
  -28.6068  -23.6897   19.9385 C   0  0  1  0  0  0
  -31.8619  -21.2217   22.0462 C   0  0  0  0  0  0
  -28.3079  -25.0706   20.7407 C   0  0  0  0  0  0
  -29.5643  -21.1295   20.0158 N   0  0  0  0  0  0
  -29.9158  -15.8944   20.5075 N   0  0  0  0  0  0
  -29.3892  -20.2558   17.9242 O   0  0  0  0  0  0
  -31.4709  -12.5458   19.1461 H   0  0  0  0  0  0
  -30.3590  -11.4805   19.9557 H   0  0  0  0  0  0
  -29.7792  -11.7171   17.5021 H   0  0  0  0  0  0
  -29.6209  -13.4453   17.7025 H   0  0  0  0  0  0
  -27.8730  -11.2769   18.8981 H   0  0  0  0  0  0
  -27.3672  -12.5103   17.7839 H   0  0  0  0  0  0
  -27.6196  -14.2506   19.4362 H   0  0  0  0  0  0
  -28.7282  -12.1929   21.4039 H   0  0  0  0  0  0
  -28.4351  -13.8797   21.7613 H   0  0  0  0  0  0
  -25.2715   -9.5760   22.4699 H   0  0  0  0  0  0
  -24.0008   -7.4659   22.7416 H   0  0  0  0  0  0
  -21.0789   -8.8733   19.8943 H   0  0  0  0  0  0
  -22.3574  -10.9654   19.6152 H   0  0  0  0  0  0
  -21.2039   -7.6106   23.9681 H   0  0  0  0  0  0
  -21.1485   -6.0460   25.9041 H   0  0  0  0  0  0
  -22.0612   -2.7565   23.2813 H   0  0  0  0  0  0
  -22.4011  -12.0091   22.5058 H   0  0  0  0  0  0
  -21.0948  -13.1260   22.2480 H   0  0  0  0  0  0
  -24.6217  -15.8329   20.4639 H   0  0  0  0  0  0
  -26.2303  -15.6301   19.9963 H   0  0  0  0  0  0
  -26.7150  -32.5442   23.0984 H   0  0  0  0  0  0
  -25.0016  -33.9628   25.0351 H   0  0  0  0  0  0
  -22.7322  -31.2918   21.3832 H   0  0  0  0  0  0
  -23.3767  -35.9617   23.3280 H   0  0  0  0  0  0
  -24.3570  -36.8990   22.2057 H   0  0  0  0  0  0
  -23.7196  -37.6497   23.6653 H   0  0  0  0  0  0
  -26.0853  -31.5235   20.5987 H   0  0  0  0  0  0
  -26.8503  -30.8367   22.0030 H   0  0  0  0  0  0
  -28.1286  -28.9550   21.2257 H   0  0  0  0  0  0
  -26.0475  -25.8842   19.0219 H   0  0  0  0  0  0
  -24.0071  -27.2601   19.0234 H   0  0  0  0  0  0
  -23.7699  -30.5324   19.3869 H   0  0  0  0  0  0
  -22.7792  -29.1918   19.8794 H   0  0  0  0  0  0
  -25.1324  -36.1994   25.0811 H   0  0  0  0  0  0
  -20.9876  -28.3287   24.1437 H   0  0  0  0  0  0
  -20.5681  -26.2300   23.3647 H   0  0  0  0  0  0
  -21.6636  -26.7506   22.1240 H   0  0  0  0  0  0
  -19.6922  -25.6308   21.1292 H   0  0  0  0  0  0
  -19.6705  -27.3183   20.6739 H   0  0  0  0  0  0
  -17.4205  -26.6664   21.4014 H   0  0  0  0  0  0
  -18.0319  -26.0041   22.8992 H   0  0  0  0  0  0
  -19.7907  -30.7254   24.2344 H   0  0  0  0  0  0
  -17.5005  -31.6309   24.5195 H   0  0  0  0  0  0
  -15.5328  -30.3081   23.7665 H   0  0  0  0  0  0
  -15.8588  -28.0865   22.7139 H   0  0  0  0  0  0
  -24.5793  -30.7226   25.7681 H   0  0  0  0  0  0
  -24.9017  -32.2935   26.4916 H   0  0  0  0  0  0
  -25.8025  -30.8782   27.0126 H   0  0  0  0  0  0
  -26.2850  -29.6779   24.1204 H   0  0  0  0  0  0
  -27.3960  -29.7263   25.4698 H   0  0  0  0  0  0
  -27.8742  -30.4236   23.9374 H   0  0  0  0  0  0
  -27.2577  -33.3522   26.2160 H   0  0  0  0  0  0
  -28.3763  -32.7092   25.0241 H   0  0  0  0  0  0
  -28.0788  -31.8382   26.5282 H   0  0  0  0  0  0
  -28.2650  -38.0104   24.7575 H   0  0  0  0  0  0
  -28.1100  -36.2679   24.6205 H   0  0  0  0  0  0
  -27.2314  -37.1392   25.8838 H   0  0  0  0  0  0
  -20.9340  -29.8775   21.6907 H   0  0  0  0  0  0
  -26.0227  -38.2915   24.1425 H   0  0  0  0  0  0
  -32.6028  -18.8200   22.8270 H   0  0  0  0  0  0
  -31.8634  -16.6265   22.1951 H   0  0  0  0  0  0
  -28.9531  -18.3766   19.5305 H   0  0  0  0  0  0
  -29.2705  -22.5990   17.0242 H   0  0  0  0  0  0
  -30.8940  -22.5648   17.6612 H   0  0  0  0  0  0
  -29.1763  -24.6799   18.1237 H   0  0  0  0  0  0
  -30.5172  -24.2989   19.1842 H   0  0  0  0  0  0
  -28.4094  -22.1328   21.5138 H   0  0  0  0  0  0
  -30.0028  -22.7722   21.3392 H   0  0  0  0  0  0
  -27.6490  -23.4025   19.4960 H   0  0  0  0  0  0
  -32.8222  -21.0199   22.5277 H   0  0  0  0  0  0
  -31.2422  -21.7226   22.7879 H   0  0  0  0  0  0
  -32.0706  -21.8794   21.2028 H   0  0  0  0  0  0
  -27.3510  -24.9652   21.2552 H   0  0  0  0  0  0
  -29.0372  -25.1255   21.5479 H   0  0  0  0  0  0
  -28.9266  -15.7613   20.3781 H   0  0  0  0  0  0
  1 25  1  0  0  0
  1 30  2  0  0  0
  1 85  1  0  0  0
  2  3  1  0  0  0
  2 25  1  0  0  0
  2 87  1  0  0  0
  2 88  1  0  0  0
  3  4  1  0  0  0
  3 89  1  0  0  0
  3 90  1  0  0  0
  4  5  1  0  0  0
  4 91  1  0  0  0
  4 92  1  0  0  0
  5  6  1  0  0  0
  5 26  1  0  0  0
  5 93  1  0  0  0
  6 25  1  0  0  0
  6 94  1  0  0  0
  6 95  1  0  0  0
  7  8  2  0  0  0
  7 26  1  0  0  0
  7 29  1  0  0  0
  8  9  1  0  0  0
  8 22  1  0  0  0
  9 10  1  0  0  0
  9 27  2  0  0  0
 10 11  2  0  0  0
 10 15  1  0  0  0
 11 12  1  0  0  0
 11 96  1  0  0  0
 12 13  2  0  0  0
 12 97  1  0  0  0
 13 14  1  0  0  0
 13 31  1  0  0  0
 14 15  2  0  0  0
 14 98  1  0  0  0
 15 99  1  0  0  0
 16 17  2  0  0  0
 16 21  1  0  0  0
 16 31  1  0  0  0
 17 18  1  0  0  0
 17100  1  0  0  0
 18 19  2  0  0  0
 18101  1  0  0  0
 19 20  1  0  0  0
 19 24  1  0  0  0
 20 21  2  0  0  0
 20102  1  0  0  0
 21 23  1  0  0  0
 22 28  1  0  0  0
 22 32  2  0  0  0
 26 27  1  0  0  0
 28103  1  0  0  0
 28104  1  0  0  0
 29105  1  0  0  0
 29106  1  0  0  0
 33 34  1  0  0  0
 33 66  1  0  0  0
 33 70  2  0  0  0
 34 36  1  0  0  0
 34 59  1  0  0  0
 34107  1  0  0  0
 35 44  2  0  0  0
 35 45  1  0  0  0
 35 68  1  0  0  0
 36 56  1  0  0  0
 36108  1  0  0  0
 37 39  1  0  0  0
 37 47  1  0  0  0
 37 66  1  0  0  0
 37109  1  0  0  0
 38 43  2  0  0  0
 38 46  1  0  0  0
 38 47  1  0  0  0
 39 64  1  0  0  0
 39 67  2  0  0  0
 40 52  1  0  0  0
 40 53  2  0  0  0
 40 58  1  0  0  0
 41110  1  0  0  0
 41111  1  0  0  0
 41112  1  0  0  0
 41 48  1  0  0  0
 42 43  1  0  0  0
 42 66  1  0  0  0
 42113  1  0  0  0
 42114  1  0  0  0
 43 44  1  0  0  0
 44115  1  0  0  0
 45 46  2  0  0  0
 45116  1  0  0  0
 46117  1  0  0  0
 47118  1  0  0  0
 47119  1  0  0  0
 48 56  1  0  0  0
 48 65  1  0  0  0
 48120  1  0  0  0
 49 50  1  0  0  0
 49 53  1  0  0  0
 49 64  1  0  0  0
 49121  1  0  0  0
 50 51  1  0  0  0
 50122  1  0  0  0
 50123  1  0  0  0
 51 52  1  0  0  0
 51124  1  0  0  0
 51125  1  0  0  0
 52126  1  0  0  0
 52127  1  0  0  0
 53 54  1  0  0  0
 54 55  2  0  0  0
 54128  1  0  0  0
 55 57  1  0  0  0
 55129  1  0  0  0
 56 69  2  0  0  0
 57 58  2  0  0  0
 57130  1  0  0  0
 58131  1  0  0  0
 59 60  1  0  0  0
 59 61  1  0  0  0
 59 62  1  0  0  0
 60132  1  0  0  0
 60133  1  0  0  0
 60134  1  0  0  0
 61135  1  0  0  0
 61136  1  0  0  0
 61137  1  0  0  0
 62138  1  0  0  0
 62139  1  0  0  0
 62140  1  0  0  0
 63 65  1  0  0  0
 63141  1  0  0  0
 63142  1  0  0  0
 63143  1  0  0  0
 64144  1  0  0  0
 65145  1  0  0  0
 68 83  1  0  0  0
 71 72  2  0  0  0
 71 74  1  0  0  0
 71146  1  0  0  0
 72 76  1  0  0  0
 72147  1  0  0  0
 73 75  1  0  0  0
 73 76  2  0  0  0
 73148  1  0  0  0
 74 75  2  0  0  0
 74 82  1  0  0  0
 75 84  1  0  0  0
 76 85  1  0  0  0
 77 78  1  0  0  0
 77 84  1  0  0  0
 77 86  2  0  0  0
 78 79  1  0  0  0
 78149  1  0  0  0
 78150  1  0  0  0
 79 81  1  0  0  0
 79151  1  0  0  0
 79152  1  0  0  0
 80 81  1  0  0  0
 80 84  1  0  0  0
 80153  1  0  0  0
 80154  1  0  0  0
 81 83  1  0  0  0
 81155  1  0  0  0
 82156  1  0  0  0
 82157  1  0  0  0
 82158  1  0  0  0
 83159  1  0  0  0
 83160  1  0  0  0
 85161  1  0  0  0
M  ISO  4   1 100  68 101  83 101  85 100
M  END
> <chiral flag>
0

> <version>
0

> <s_m_source_file>
/data/baiqing/PycharmProjects/Reinvent-master-3.2/result/LINK_invent/BTK/process_docking_weight1_custom_product_contain_oxygen_bond_distance_aromatic_linkinvent_7_9_3/rearranged_h_0065.sdf

> <i_m_source_file_index>
73

> <r_mmod_Potential_Energy-OPLS-2005>
318.340942382812

> <r_mmod_Stretch_Energy-OPLS-2005>
139.152084350586

> <r_mmod_Bend_Energy-OPLS-2005>
173.173645019531

> <r_mmod_Torsional_Energy-OPLS-2005>
338.375518798828

> <r_mmod_Improper_Torsional_Energy-OPLS-2005>
8.4428014755249

> <r_mmod_Van_der_Waal_Energy-OPLS-2005>
149.371109008789

> <r_mmod_Electrostatic_Energy-OPLS-2005>
-347.951721191406

> <r_mmod_Solvation_Energy-OPLS-2005>
-220.120315551758

> <b_mmod_Minimization_Converged-OPLS-2005>
0

> <r_mmod_RMS_Derivative-OPLS-2005>
6.59098815917969

$$$$
73
                    3D
 Structure written by MMmdl.
157166  0  0  1  0            999 V2000
  -30.6284  -14.7207   20.4774 C   0  0  0  0  0  0
  -30.4169  -12.4445   19.4765 C   0  0  0  0  0  0
  -29.4988  -12.5592   18.2381 C   0  0  0  0  0  0
  -28.0280  -12.3625   18.6476 C   0  0  0  0  0  0
  -27.6458  -13.2318   19.8765 C   0  0  2  0  0  0
  -28.6926  -13.1422   21.0126 C   0  0  0  0  0  0
  -25.2489  -13.8190   20.5685 C   0  0  0  0  0  0
  -24.1767  -13.0453   20.9148 C   0  0  0  0  0  0
  -24.6361  -11.6928   20.8686 C   0  0  0  0  0  0
  -23.9057  -10.4298   21.0325 C   0  0  0  0  0  0
  -24.3622   -9.4231   21.9109 C   0  0  0  0  0  0
  -23.6286   -8.2282   22.0712 C   0  0  0  0  0  0
  -22.4254   -8.0305   21.3507 C   0  0  0  0  0  0
  -21.9882   -9.0257   20.4579 C   0  0  0  0  0  0
  -22.7226  -10.2140   20.2975 C   0  0  0  0  0  0
  -21.6878   -6.0733   22.5238 C   0  0  0  0  0  0
  -21.4058   -6.5641   23.8175 C   0  0  0  0  0  0
  -21.3672   -5.6797   24.9130 C   0  0  0  0  0  0
  -21.6055   -4.3067   24.7198 C   0  0  0  0  0  0
  -21.8817   -3.8153   23.4318 C   0  0  0  0  0  0
  -21.9177   -4.6952   22.3371 C   0  0  0  0  0  0
  -22.7785  -13.5215   21.1847 C   0  0  0  0  0  0
  -22.1610   -4.2130   21.0947 F   0  0  0  0  0  0
  -21.5639   -3.4567   25.7731 F   0  0  0  0  0  0
  -30.0023  -13.4903   20.4424 N   0  0  0  0  0  0
  -26.2943  -12.9410   20.3399 N   0  0  0  0  0  0
  -25.9310  -11.6560   20.5791 N   0  0  0  0  0  0
  -22.0518  -12.8128   22.0413 N   0  0  0  0  0  0
  -25.4226  -15.1916   20.4104 N   0  0  0  0  0  0
  -31.7803  -14.8360   20.0503 O   0  0  0  0  0  0
  -21.6636   -6.8892   21.4203 O   0  0  0  0  0  0
  -22.3444  -14.5536   20.6752 O   0  0  0  0  0  0
  -24.6325  -31.8584   23.1983 C   0  0  0  0  0  0
  -25.9107  -32.4798   23.8353 C   0  0  1  0  0  0
  -27.2118  -27.2306   20.1105 C   0  0  0  0  0  0
  -25.5872  -33.8598   24.2241 N   0  0  0  0  0  0
  -23.4306  -30.4829   21.5498 C   0  0  2  0  0  0
  -24.8709  -28.9300   20.1133 C   0  0  0  0  0  0
  -22.7473  -29.4640   22.4928 C   0  0  0  0  0  0
  -18.0292  -28.1415   22.8534 C   0  0  0  0  0  0
  -24.1487  -36.7338   23.2651 C   0  0  0  0  0  0
  -25.9792  -30.7550   21.3854 C   0  0  0  0  0  0
  -26.0479  -29.3751   20.7259 C   0  0  0  0  0  0
  -27.2120  -28.5368   20.7210 C   0  0  0  0  0  0
  -26.0077  -26.8686   19.4571 C   0  0  0  0  0  0
  -24.8582  -27.6815   19.4764 C   0  0  0  0  0  0
  -23.6450  -29.8238   20.1655 C   0  0  0  0  0  0
  -25.4134  -36.3127   24.0308 C   0  0  1  0  0  0
  -20.5891  -28.3743   23.1294 C   0  0  2  0  0  0
  -20.6793  -26.9456   22.5440 C   0  0  0  0  0  0
  -19.5734  -26.6397   21.5282 C   0  0  0  0  0  0
  -18.1902  -26.7961   22.1677 C   0  0  0  0  0  0
  -19.1548  -28.8899   23.2905 C   0  0  0  0  0  0
  -18.9457  -30.1503   23.8922 C   0  0  0  0  0  0
  -17.6455  -30.6619   24.0582 C   0  0  0  0  0  0
  -25.9048  -34.9483   23.5096 C   0  0  0  0  0  0
  -16.5358  -29.9130   23.6324 C   0  0  0  0  0  0
  -16.7281  -28.6540   23.0382 C   0  0  0  0  0  0
  -26.4440  -31.6661   25.0774 C   0  0  0  0  0  0
  -25.3609  -31.3839   26.1468 C   0  0  0  0  0  0
  -27.0339  -30.3101   24.6271 C   0  0  0  0  0  0
  -27.5971  -32.4451   25.7549 C   0  0  0  0  0  0
  -27.5607  -37.1824   24.8446 C   0  0  0  0  0  0
  -21.4177  -29.3095   22.3672 N   0  0  0  0  0  0
  -26.4330  -37.3812   23.9380 N   0  0  0  0  0  0
  -24.7023  -31.0465   22.1015 N   0  0  0  0  0  0
  -23.4149  -28.8166   23.3028 O   0  0  0  0  0  0
  -28.3182  -26.3360   20.1876 O   0  0  0  0  0  0
  -26.5614  -34.8946   22.4665 O   0  0  0  0  0  0
  -23.5453  -32.1474   23.7178 O   0  0  0  0  0  0
  -28.8356  -19.3701   18.6155 C   0  0  0  0  0  0
  -29.2253  -16.9614   18.8326 C   0  0  0  0  0  0
  -29.7442  -18.4673   20.6846 C   0  0  0  0  0  0
  -28.7977  -18.0666   18.0786 C   0  0  0  0  0  0
  -29.3261  -19.6383   19.9136 C   0  0  0  0  0  0
  -29.6938  -17.1029   20.1563 C   0  0  0  0  0  0
  -30.1171  -23.2616   20.8952 C   0  0  0  0  0  0
  -30.3760  -21.7125   20.9297 C   0  0  0  0  0  0
  -28.4250  -22.1476   19.7624 C   0  0  0  0  0  0
  -28.6781  -23.5576   20.4634 C   0  0  2  0  0  0
  -28.2530  -17.8442   16.6808 C   0  0  0  0  0  0
  -28.3428  -24.9228   19.6228 C   0  0  0  0  0  0
  -29.3470  -21.0801   20.3156 N   0  0  0  0  0  0
  -29.9184  -15.8371   20.8882 N   0  0  0  0  0  0
  -30.9555  -24.1266   21.1857 O   0  0  0  0  0  0
  -31.3744  -21.1835   21.4388 O   0  0  0  0  0  0
  -31.4625  -12.5415   19.1789 H   0  0  0  0  0  0
  -30.3278  -11.4548   19.9320 H   0  0  0  0  0  0
  -29.7878  -11.8322   17.4794 H   0  0  0  0  0  0
  -29.6245  -13.5418   17.7768 H   0  0  0  0  0  0
  -27.8758  -11.3061   18.8786 H   0  0  0  0  0  0
  -27.3677  -12.5842   17.8066 H   0  0  0  0  0  0
  -27.6477  -14.2638   19.5291 H   0  0  0  0  0  0
  -28.7234  -12.1355   21.4334 H   0  0  0  0  0  0
  -28.4303  -13.8086   21.8364 H   0  0  0  0  0  0
  -25.2775   -9.5780   22.4673 H   0  0  0  0  0  0
  -23.9963   -7.4694   22.7475 H   0  0  0  0  0  0
  -21.0798   -8.8809   19.8891 H   0  0  0  0  0  0
  -22.3633  -10.9671   19.6110 H   0  0  0  0  0  0
  -21.2092   -7.6143   23.9706 H   0  0  0  0  0  0
  -21.1493   -6.0508   25.9025 H   0  0  0  0  0  0
  -22.0584   -2.7609   23.2835 H   0  0  0  0  0  0
  -22.4228  -11.9715   22.4590 H   0  0  0  0  0  0
  -21.1187  -13.1103   22.2881 H   0  0  0  0  0  0
  -24.6670  -15.8569   20.5210 H   0  0  0  0  0  0
  -26.2878  -15.6263   20.1175 H   0  0  0  0  0  0
  -26.7173  -32.5414   23.1093 H   0  0  0  0  0  0
  -24.9980  -33.9800   25.0358 H   0  0  0  0  0  0
  -22.7318  -31.3092   21.4053 H   0  0  0  0  0  0
  -23.3777  -35.9641   23.3298 H   0  0  0  0  0  0
  -24.3552  -36.9000   22.2072 H   0  0  0  0  0  0
  -23.7224  -37.6522   23.6708 H   0  0  0  0  0  0
  -26.1116  -31.5069   20.6066 H   0  0  0  0  0  0
  -26.8581  -30.8144   22.0155 H   0  0  0  0  0  0
  -28.1101  -28.8658   21.2258 H   0  0  0  0  0  0
  -25.8815  -25.9398   18.9254 H   0  0  0  0  0  0
  -23.9563  -27.3316   18.9956 H   0  0  0  0  0  0
  -23.7640  -30.6066   19.4137 H   0  0  0  0  0  0
  -22.7538  -29.2681   19.8652 H   0  0  0  0  0  0
  -25.1305  -36.2034   25.0792 H   0  0  0  0  0  0
  -21.0004  -28.3371   24.1415 H   0  0  0  0  0  0
  -20.5807  -26.2342   23.3669 H   0  0  0  0  0  0
  -21.6641  -26.7509   22.1190 H   0  0  0  0  0  0
  -19.6887  -25.6312   21.1310 H   0  0  0  0  0  0
  -19.6652  -27.3203   20.6822 H   0  0  0  0  0  0
  -17.4186  -26.6801   21.4050 H   0  0  0  0  0  0
  -18.0190  -26.0099   22.9047 H   0  0  0  0  0  0
  -19.7931  -30.7314   24.2298 H   0  0  0  0  0  0
  -17.5015  -31.6307   24.5190 H   0  0  0  0  0  0
  -15.5361  -30.3048   23.7640 H   0  0  0  0  0  0
  -15.8685  -28.0860   22.7098 H   0  0  0  0  0  0
  -24.5752  -30.7222   25.7777 H   0  0  0  0  0  0
  -24.8806  -32.3032   26.4847 H   0  0  0  0  0  0
  -25.7854  -30.9039   27.0297 H   0  0  0  0  0  0
  -26.2986  -29.6839   24.1205 H   0  0  0  0  0  0
  -27.3978  -29.7359   25.4797 H   0  0  0  0  0  0
  -27.8835  -30.4421   23.9567 H   0  0  0  0  0  0
  -27.2557  -33.3785   26.2046 H   0  0  0  0  0  0
  -28.3816  -32.6999   25.0406 H   0  0  0  0  0  0
  -28.0605  -31.8650   26.5543 H   0  0  0  0  0  0
  -28.2594  -38.0159   24.7551 H   0  0  0  0  0  0
  -28.1153  -36.2682   24.6244 H   0  0  0  0  0  0
  -27.2272  -37.1418   25.8834 H   0  0  0  0  0  0
  -20.9340  -29.8874   21.6938 H   0  0  0  0  0  0
  -26.0226  -38.2884   24.1432 H   0  0  0  0  0  0
  -28.4896  -20.1822   17.9925 H   0  0  0  0  0  0
  -29.1451  -15.9763   18.3939 H   0  0  0  0  0  0
  -30.0924  -18.6189   21.6977 H   0  0  0  0  0  0
  -28.6121  -22.2513   18.6919 H   0  0  0  0  0  0
  -27.3824  -21.8390   19.8692 H   0  0  0  0  0  0
  -28.0937  -23.5752   21.3856 H   0  0  0  0  0  0
  -27.8309  -18.7592   16.2621 H   0  0  0  0  0  0
  -27.4666  -17.0902   16.7038 H   0  0  0  0  0  0
  -29.0353  -17.4891   16.0096 H   0  0  0  0  0  0
  -27.4185  -24.6809   19.1013 H   0  0  0  0  0  0
  -29.0692  -24.9657   18.8071 H   0  0  0  0  0  0
  -29.1408  -15.5908   21.4825 H   0  0  0  0  0  0
  1 25  1  0  0  0
  1 30  2  0  0  0
  1 84  1  0  0  0
  2  3  1  0  0  0
  2 25  1  0  0  0
  2 87  1  0  0  0
  2 88  1  0  0  0
  3  4  1  0  0  0
  3 89  1  0  0  0
  3 90  1  0  0  0
  4  5  1  0  0  0
  4 91  1  0  0  0
  4 92  1  0  0  0
  5  6  1  0  0  0
  5 26  1  0  0  0
  5 93  1  0  0  0
  6 25  1  0  0  0
  6 94  1  0  0  0
  6 95  1  0  0  0
  7  8  2  0  0  0
  7 26  1  0  0  0
  7 29  1  0  0  0
  8  9  1  0  0  0
  8 22  1  0  0  0
  9 10  1  0  0  0
  9 27  2  0  0  0
 10 11  2  0  0  0
 10 15  1  0  0  0
 11 12  1  0  0  0
 11 96  1  0  0  0
 12 13  2  0  0  0
 12 97  1  0  0  0
 13 14  1  0  0  0
 13 31  1  0  0  0
 14 15  2  0  0  0
 14 98  1  0  0  0
 15 99  1  0  0  0
 16 17  2  0  0  0
 16 21  1  0  0  0
 16 31  1  0  0  0
 17 18  1  0  0  0
 17100  1  0  0  0
 18 19  2  0  0  0
 18101  1  0  0  0
 19 20  1  0  0  0
 19 24  1  0  0  0
 20 21  2  0  0  0
 20102  1  0  0  0
 21 23  1  0  0  0
 22 28  1  0  0  0
 22 32  2  0  0  0
 26 27  1  0  0  0
 28103  1  0  0  0
 28104  1  0  0  0
 29105  1  0  0  0
 29106  1  0  0  0
 33 34  1  0  0  0
 33 66  1  0  0  0
 33 70  2  0  0  0
 34 36  1  0  0  0
 34 59  1  0  0  0
 34107  1  0  0  0
 35 44  2  0  0  0
 35 45  1  0  0  0
 35 68  1  0  0  0
 36 56  1  0  0  0
 36108  1  0  0  0
 37 39  1  0  0  0
 37 47  1  0  0  0
 37 66  1  0  0  0
 37109  1  0  0  0
 38 43  2  0  0  0
 38 46  1  0  0  0
 38 47  1  0  0  0
 39 64  1  0  0  0
 39 67  2  0  0  0
 40 52  1  0  0  0
 40 53  2  0  0  0
 40 58  1  0  0  0
 41110  1  0  0  0
 41111  1  0  0  0
 41112  1  0  0  0
 41 48  1  0  0  0
 42 43  1  0  0  0
 42 66  1  0  0  0
 42113  1  0  0  0
 42114  1  0  0  0
 43 44  1  0  0  0
 44115  1  0  0  0
 45 46  2  0  0  0
 45116  1  0  0  0
 46117  1  0  0  0
 47118  1  0  0  0
 47119  1  0  0  0
 48 56  1  0  0  0
 48 65  1  0  0  0
 48120  1  0  0  0
 49 50  1  0  0  0
 49 53  1  0  0  0
 49 64  1  0  0  0
 49121  1  0  0  0
 50 51  1  0  0  0
 50122  1  0  0  0
 50123  1  0  0  0
 51 52  1  0  0  0
 51124  1  0  0  0
 51125  1  0  0  0
 52126  1  0  0  0
 52127  1  0  0  0
 53 54  1  0  0  0
 54 55  2  0  0  0
 54128  1  0  0  0
 55 57  1  0  0  0
 55129  1  0  0  0
 56 69  2  0  0  0
 57 58  2  0  0  0
 57130  1  0  0  0
 58131  1  0  0  0
 59 60  1  0  0  0
 59 61  1  0  0  0
 59 62  1  0  0  0
 60132  1  0  0  0
 60133  1  0  0  0
 60134  1  0  0  0
 61135  1  0  0  0
 61136  1  0  0  0
 61137  1  0  0  0
 62138  1  0  0  0
 62139  1  0  0  0
 62140  1  0  0  0
 63 65  1  0  0  0
 63141  1  0  0  0
 63142  1  0  0  0
 63143  1  0  0  0
 64144  1  0  0  0
 65145  1  0  0  0
 68 82  1  0  0  0
 71 74  2  0  0  0
 71 75  1  0  0  0
 71146  1  0  0  0
 72 74  1  0  0  0
 72 76  2  0  0  0
 72147  1  0  0  0
 73 75  2  0  0  0
 73 76  1  0  0  0
 73148  1  0  0  0
 74 81  1  0  0  0
 75 83  1  0  0  0
 76 84  1  0  0  0
 77 78  1  0  0  0
 77 80  1  0  0  0
 77 85  2  0  0  0
 78 83  1  0  0  0
 78 86  2  0  0  0
 79 80  1  0  0  0
 79 83  1  0  0  0
 79149  1  0  0  0
 79150  1  0  0  0
 80 82  1  0  0  0
 80151  1  0  0  0
 81152  1  0  0  0
 81153  1  0  0  0
 81154  1  0  0  0
 82155  1  0  0  0
 82156  1  0  0  0
 84157  1  0  0  0
M  ISO  4   1 100  68 101  82 101  84 100
M  END
> <chiral flag>
0

> <version>
0

> <s_m_source_file>
/data/baiqing/PycharmProjects/Reinvent-master-3.2/result/LINK_invent/BTK/process_docking_weight1_custom_product_contain_oxygen_bond_distance_aromatic_linkinvent_7_9_3/rearranged_h_0065.sdf

> <i_m_source_file_index>
74

> <r_mmod_Potential_Energy-OPLS-2005>
310.313690185547

> <r_mmod_Stretch_Energy-OPLS-2005>
135.1181640625

> <r_mmod_Bend_Energy-OPLS-2005>
217.78840637207

> <r_mmod_Torsional_Energy-OPLS-2005>
272.505981445312

> <r_mmod_Improper_Torsional_Energy-OPLS-2005>
6.48063230514526

> <r_mmod_Van_der_Waal_Energy-OPLS-2005>
132.44384765625

> <r_mmod_Electrostatic_Energy-OPLS-2005>
-278.308959960938

> <r_mmod_Solvation_Energy-OPLS-2005>
-260.559753417969

> <b_mmod_Minimization_Converged-OPLS-2005>
0

> <r_mmod_RMS_Derivative-OPLS-2005>
5.10128545761108

$$$$
74
                    3D
 Structure written by MMmdl.
171180  0  0  1  0            999 V2000
  -30.6154  -14.7694   20.4140 C   0  0  0  0  0  0
  -30.4124  -12.4614   19.4920 C   0  0  0  0  0  0
  -29.5066  -12.5073   18.2437 C   0  0  0  0  0  0
  -28.0355  -12.3156   18.6547 C   0  0  0  0  0  0
  -27.6276  -13.2347   19.8375 C   0  0  2  0  0  0
  -28.6658  -13.2203   20.9800 C   0  0  0  0  0  0
  -25.2448  -13.8177   20.5713 C   0  0  0  0  0  0
  -24.1766  -13.0432   20.9175 C   0  0  0  0  0  0
  -24.6361  -11.6893   20.8713 C   0  0  0  0  0  0
  -23.9062  -10.4288   21.0393 C   0  0  0  0  0  0
  -24.3616   -9.4212   21.9192 C   0  0  0  0  0  0
  -23.6283   -8.2244   22.0760 C   0  0  0  0  0  0
  -22.4275   -8.0271   21.3541 C   0  0  0  0  0  0
  -21.9910   -9.0242   20.4651 C   0  0  0  0  0  0
  -22.7217  -10.2123   20.3056 C   0  0  0  0  0  0
  -21.6853   -6.0732   22.5268 C   0  0  0  0  0  0
  -21.4020   -6.5646   23.8198 C   0  0  0  0  0  0
  -21.3666   -5.6801   24.9173 C   0  0  0  0  0  0
  -21.6041   -4.3059   24.7230 C   0  0  0  0  0  0
  -21.8818   -3.8147   23.4347 C   0  0  0  0  0  0
  -21.9192   -4.6961   22.3400 C   0  0  0  0  0  0
  -22.7793  -13.5195   21.1870 C   0  0  0  0  0  0
  -22.1659   -4.2147   21.0973 F   0  0  0  0  0  0
  -21.5632   -3.4546   25.7747 F   0  0  0  0  0  0
  -29.9652  -13.5537   20.3874 N   0  0  0  0  0  0
  -26.2852  -12.9397   20.3213 N   0  0  0  0  0  0
  -25.9279  -11.6535   20.5696 N   0  0  0  0  0  0
  -22.0475  -12.8178   22.0422 N   0  0  0  0  0  0
  -25.4190  -15.1931   20.4240 N   0  0  0  0  0  0
  -31.8325  -14.7741   20.2199 O   0  0  0  0  0  0
  -21.6628   -6.8871   21.4226 O   0  0  0  0  0  0
  -22.3480  -14.5522   20.6738 O   0  0  0  0  0  0
  -24.6213  -31.8608   23.1967 C   0  0  0  0  0  0
  -25.9076  -32.4804   23.8310 C   0  0  1  0  0  0
  -27.2191  -27.2652   20.1437 C   0  0  0  0  0  0
  -25.5897  -33.8597   24.2222 N   0  0  0  0  0  0
  -23.4183  -30.4796   21.5338 C   0  0  2  0  0  0
  -24.8789  -28.9326   20.1037 C   0  0  0  0  0  0
  -22.7451  -29.4607   22.4853 C   0  0  0  0  0  0
  -18.0251  -28.1392   22.8476 C   0  0  0  0  0  0
  -24.1518  -36.7321   23.2644 C   0  0  0  0  0  0
  -25.9609  -30.7895   21.3678 C   0  0  0  0  0  0
  -26.0445  -29.4035   20.7215 C   0  0  0  0  0  0
  -27.2124  -28.5735   20.7448 C   0  0  0  0  0  0
  -26.0305  -26.8660   19.4952 C   0  0  0  0  0  0
  -24.8771  -27.6753   19.4812 C   0  0  0  0  0  0
  -23.6431  -29.8118   20.1507 C   0  0  0  0  0  0
  -25.4129  -36.3080   24.0312 C   0  0  1  0  0  0
  -20.5851  -28.3698   23.1302 C   0  0  2  0  0  0
  -20.6739  -26.9404   22.5439 C   0  0  0  0  0  0
  -19.5728  -26.6354   21.5225 C   0  0  0  0  0  0
  -18.1876  -26.7939   22.1585 C   0  0  0  0  0  0
  -19.1509  -28.8851   23.2885 C   0  0  0  0  0  0
  -18.9458  -30.1448   23.8913 C   0  0  0  0  0  0
  -17.6474  -30.6606   24.0568 C   0  0  0  0  0  0
  -25.9044  -34.9464   23.5057 C   0  0  0  0  0  0
  -16.5351  -29.9114   23.6341 C   0  0  0  0  0  0
  -16.7252  -28.6531   23.0355 C   0  0  0  0  0  0
  -26.4474  -31.6646   25.0705 C   0  0  0  0  0  0
  -25.3657  -31.3859   26.1421 C   0  0  0  0  0  0
  -27.0342  -30.3064   24.6160 C   0  0  0  0  0  0
  -27.6065  -32.4371   25.7456 C   0  0  0  0  0  0
  -27.5595  -37.1755   24.8408 C   0  0  0  0  0  0
  -21.4147  -29.3076   22.3718 N   0  0  0  0  0  0
  -26.4294  -37.3777   23.9405 N   0  0  0  0  0  0
  -24.6849  -31.0589   22.0928 N   0  0  0  0  0  0
  -23.4213  -28.8119   23.2884 O   0  0  0  0  0  0
  -28.3226  -26.3875   20.2539 O   0  0  0  0  0  0
  -26.5636  -34.8952   22.4629 O   0  0  0  0  0  0
  -23.5371  -32.1461   23.7266 O   0  0  0  0  0  0
  -29.5625  -18.6178   20.3743 C   0  0  0  0  0  0
  -31.4896  -17.5708   19.3994 C   0  0  0  0  0  0
  -31.3444  -20.0499   19.4119 C   0  0  0  0  0  0
  -30.0297  -19.9625   20.0071 C   0  0  0  0  0  0
  -30.2853  -17.3764   20.0962 C   0  0  0  0  0  0
  -32.0624  -18.8320   19.1469 C   0  0  0  0  0  0
  -29.3772  -21.8149   21.5620 C   0  0  0  0  0  0
  -28.9634  -23.3030   21.5808 C   0  0  0  0  0  0
  -28.7022  -22.2827   19.4289 C   0  0  0  0  0  0
  -28.2392  -23.5764   20.2565 C   0  0  2  0  0  0
  -32.2821  -21.7086   17.6257 C   0  0  0  0  0  0
  -33.0051  -21.9307   20.1572 C   0  0  0  0  0  0
  -33.5223  -18.0666   16.7721 C   0  0  0  0  0  0
  -28.4379  -25.0474   19.5813 C   0  0  0  0  0  0
  -31.9795  -21.4326   19.1170 C   0  0  0  0  0  0
  -34.4871  -17.4420   19.1854 N   0  0  0  0  0  0
  -29.2759  -21.2204   20.3519 N   0  0  0  0  0  0
  -29.8779  -15.9659   20.4416 N   0  0  0  0  0  0
  -29.7570  -21.2517   22.5942 O   0  0  0  0  0  0
  -34.4936  -19.9184   18.4250 O   0  0  0  0  0  0
  -33.7620  -18.6443   18.4851 S   0  0  2  0  0  0
  -31.4599  -12.5589   19.2009 H   0  0  0  0  0  0
  -30.3252  -11.4953   19.9920 H   0  0  0  0  0  0
  -29.8047  -11.7433   17.5244 H   0  0  0  0  0  0
  -29.6222  -13.4679   17.7387 H   0  0  0  0  0  0
  -27.9114  -11.2713   18.9402 H   0  0  0  0  0  0
  -27.3793  -12.4752   17.7993 H   0  0  0  0  0  0
  -27.6067  -14.2458   19.4286 H   0  0  0  0  0  0
  -28.6977  -12.2442   21.4680 H   0  0  0  0  0  0
  -28.3902  -13.9431   21.7509 H   0  0  0  0  0  0
  -25.2777   -9.5696   22.4760 H   0  0  0  0  0  0
  -24.0004   -7.4650   22.7497 H   0  0  0  0  0  0
  -21.0846   -8.8748   19.8963 H   0  0  0  0  0  0
  -22.3674  -10.9663   19.6167 H   0  0  0  0  0  0
  -21.2008   -7.6156   23.9703 H   0  0  0  0  0  0
  -21.1495   -6.0540   25.9076 H   0  0  0  0  0  0
  -22.0591   -2.7608   23.2846 H   0  0  0  0  0  0
  -22.4095  -11.9799   22.4739 H   0  0  0  0  0  0
  -21.1122  -13.1218   22.2729 H   0  0  0  0  0  0
  -24.6554  -15.8471   20.5550 H   0  0  0  0  0  0
  -26.2819  -15.6443   20.1487 H   0  0  0  0  0  0
  -26.7149  -32.5530   23.1085 H   0  0  0  0  0  0
  -25.0072  -33.9784   25.0366 H   0  0  0  0  0  0
  -22.7072  -31.2924   21.3732 H   0  0  0  0  0  0
  -23.3831  -35.9586   23.3182 H   0  0  0  0  0  0
  -24.3621  -36.9118   22.2086 H   0  0  0  0  0  0
  -23.7224  -37.6438   23.6805 H   0  0  0  0  0  0
  -26.0598  -31.5577   20.5975 H   0  0  0  0  0  0
  -26.8512  -30.8702   21.9810 H   0  0  0  0  0  0
  -28.0989  -28.9076   21.2710 H   0  0  0  0  0  0
  -25.9538  -25.8948   19.0334 H   0  0  0  0  0  0
  -23.9829  -27.3117   18.9950 H   0  0  0  0  0  0
  -23.7523  -30.5847   19.3870 H   0  0  0  0  0  0
  -22.7655  -29.2304   19.8593 H   0  0  0  0  0  0
  -25.1286  -36.1911   25.0796 H   0  0  0  0  0  0
  -20.9903  -28.3329   24.1436 H   0  0  0  0  0  0
  -20.5643  -26.2285   23.3642 H   0  0  0  0  0  0
  -21.6613  -26.7424   22.1220 H   0  0  0  0  0  0
  -19.6930  -25.6247   21.1307 H   0  0  0  0  0  0
  -19.6774  -27.3133   20.6738 H   0  0  0  0  0  0
  -17.4161  -26.6770   21.3958 H   0  0  0  0  0  0
  -18.0192  -26.0070   22.8956 H   0  0  0  0  0  0
  -19.7965  -30.7195   24.2344 H   0  0  0  0  0  0
  -17.5071  -31.6313   24.5117 H   0  0  0  0  0  0
  -15.5366  -30.3042   23.7661 H   0  0  0  0  0  0
  -15.8633  -28.0880   22.7059 H   0  0  0  0  0  0
  -24.5790  -30.7263   25.7730 H   0  0  0  0  0  0
  -24.8903  -32.3093   26.4761 H   0  0  0  0  0  0
  -25.7912  -30.9071   27.0255 H   0  0  0  0  0  0
  -26.2935  -29.6729   24.1277 H   0  0  0  0  0  0
  -27.4167  -29.7405   25.4662 H   0  0  0  0  0  0
  -27.8722  -30.4357   23.9299 H   0  0  0  0  0  0
  -27.2774  -33.3804   26.1829 H   0  0  0  0  0  0
  -28.3998  -32.6696   25.0331 H   0  0  0  0  0  0
  -28.0578  -31.8587   26.5537 H   0  0  0  0  0  0
  -28.2453  -38.0204   24.7576 H   0  0  0  0  0  0
  -28.1242  -36.2709   24.6042 H   0  0  0  0  0  0
  -27.2325  -37.1147   25.8813 H   0  0  0  0  0  0
  -20.9244  -29.9003   21.7167 H   0  0  0  0  0  0
  -26.0182  -38.2815   24.1565 H   0  0  0  0  0  0
  -28.6183  -18.5505   20.8923 H   0  0  0  0  0  0
  -32.0534  -16.7252   19.0540 H   0  0  0  0  0  0
  -29.8637  -23.9129   21.6483 H   0  0  0  0  0  0
  -28.3407  -23.5262   22.4495 H   0  0  0  0  0  0
  -29.3977  -22.6048   18.6594 H   0  0  0  0  0  0
  -27.8596  -21.8656   18.8776 H   0  0  0  0  0  0
  -27.1713  -23.4538   20.4499 H   0  0  0  0  0  0
  -31.3544  -21.8760   17.0794 H   0  0  0  0  0  0
  -32.7876  -20.9075   17.0989 H   0  0  0  0  0  0
  -32.8991  -22.5984   17.4952 H   0  0  0  0  0  0
  -32.5273  -22.0212   21.1338 H   0  0  0  0  0  0
  -33.3646  -22.9298   19.9015 H   0  0  0  0  0  0
  -33.8775  -21.2997   20.2917 H   0  0  0  0  0  0
  -33.0174  -17.1024   16.7662 H   0  0  0  0  0  0
  -34.4906  -17.9756   16.2891 H   0  0  0  0  0  0
  -32.9152  -18.7843   16.2245 H   0  0  0  0  0  0
  -27.8626  -25.0738   18.6594 H   0  0  0  0  0  0
  -29.4671  -25.0439   19.2289 H   0  0  0  0  0  0
  -31.2443  -22.1915   19.3009 H   0  0  0  0  0  0
  -33.9064  -16.5917   19.2107 H   0  0  0  0  0  0
  -28.9011  -15.8423   20.6634 H   0  0  0  0  0  0
  1 25  1  0  0  0
  1 30  2  0  0  0
  1 88  1  0  0  0
  2  3  1  0  0  0
  2 25  1  0  0  0
  2 92  1  0  0  0
  2 93  1  0  0  0
  3  4  1  0  0  0
  3 94  1  0  0  0
  3 95  1  0  0  0
  4  5  1  0  0  0
  4 96  1  0  0  0
  4 97  1  0  0  0
  5  6  1  0  0  0
  5 26  1  0  0  0
  5 98  1  0  0  0
  6 25  1  0  0  0
  6 99  1  0  0  0
  6100  1  0  0  0
  7  8  2  0  0  0
  7 26  1  0  0  0
  7 29  1  0  0  0
  8  9  1  0  0  0
  8 22  1  0  0  0
  9 10  1  0  0  0
  9 27  2  0  0  0
 10 11  2  0  0  0
 10 15  1  0  0  0
 11 12  1  0  0  0
 11101  1  0  0  0
 12 13  2  0  0  0
 12102  1  0  0  0
 13 14  1  0  0  0
 13 31  1  0  0  0
 14 15  2  0  0  0
 14103  1  0  0  0
 15104  1  0  0  0
 16 17  2  0  0  0
 16 21  1  0  0  0
 16 31  1  0  0  0
 17 18  1  0  0  0
 17105  1  0  0  0
 18 19  2  0  0  0
 18106  1  0  0  0
 19 20  1  0  0  0
 19 24  1  0  0  0
 20 21  2  0  0  0
 20107  1  0  0  0
 21 23  1  0  0  0
 22 28  1  0  0  0
 22 32  2  0  0  0
 26 27  1  0  0  0
 28108  1  0  0  0
 28109  1  0  0  0
 29110  1  0  0  0
 29111  1  0  0  0
 33 34  1  0  0  0
 33 66  1  0  0  0
 33 70  2  0  0  0
 34 36  1  0  0  0
 34 59  1  0  0  0
 34112  1  0  0  0
 35 44  2  0  0  0
 35 45  1  0  0  0
 35 68  1  0  0  0
 36 56  1  0  0  0
 36113  1  0  0  0
 37 39  1  0  0  0
 37 47  1  0  0  0
 37 66  1  0  0  0
 37114  1  0  0  0
 38 43  2  0  0  0
 38 46  1  0  0  0
 38 47  1  0  0  0
 39 64  1  0  0  0
 39 67  2  0  0  0
 40 52  1  0  0  0
 40 53  2  0  0  0
 40 58  1  0  0  0
 41115  1  0  0  0
 41116  1  0  0  0
 41117  1  0  0  0
 41 48  1  0  0  0
 42 43  1  0  0  0
 42 66  1  0  0  0
 42118  1  0  0  0
 42119  1  0  0  0
 43 44  1  0  0  0
 44120  1  0  0  0
 45 46  2  0  0  0
 45121  1  0  0  0
 46122  1  0  0  0
 47123  1  0  0  0
 47124  1  0  0  0
 48 56  1  0  0  0
 48 65  1  0  0  0
 48125  1  0  0  0
 49 50  1  0  0  0
 49 53  1  0  0  0
 49 64  1  0  0  0
 49126  1  0  0  0
 50 51  1  0  0  0
 50127  1  0  0  0
 50128  1  0  0  0
 51 52  1  0  0  0
 51129  1  0  0  0
 51130  1  0  0  0
 52131  1  0  0  0
 52132  1  0  0  0
 53 54  1  0  0  0
 54 55  2  0  0  0
 54133  1  0  0  0
 55 57  1  0  0  0
 55134  1  0  0  0
 56 69  2  0  0  0
 57 58  2  0  0  0
 57135  1  0  0  0
 58136  1  0  0  0
 59 60  1  0  0  0
 59 61  1  0  0  0
 59 62  1  0  0  0
 60137  1  0  0  0
 60138  1  0  0  0
 60139  1  0  0  0
 61140  1  0  0  0
 61141  1  0  0  0
 61142  1  0  0  0
 62143  1  0  0  0
 62144  1  0  0  0
 62145  1  0  0  0
 63 65  1  0  0  0
 63146  1  0  0  0
 63147  1  0  0  0
 63148  1  0  0  0
 64149  1  0  0  0
 65150  1  0  0  0
 68 84  1  0  0  0
 71 74  2  0  0  0
 71 75  1  0  0  0
 71151  1  0  0  0
 72 75  2  0  0  0
 72 76  1  0  0  0
 72152  1  0  0  0
 73 74  1  0  0  0
 73 76  2  0  0  0
 73 85  1  0  0  0
 74 87  1  0  0  0
 75 88  1  0  0  0
 76 91  1  0  0  0
 77 78  1  0  0  0
 77 87  1  0  0  0
 77 89  2  0  0  0
 78 80  1  0  0  0
 78153  1  0  0  0
 78154  1  0  0  0
 79 80  1  0  0  0
 79 87  1  0  0  0
 79155  1  0  0  0
 79156  1  0  0  0
 80 84  1  0  0  0
 80157  1  0  0  0
 81158  1  0  0  0
 81159  1  0  0  0
 81160  1  0  0  0
 81 85  1  0  0  0
 82 85  1  0  0  0
 82161  1  0  0  0
 82162  1  0  0  0
 82163  1  0  0  0
 83164  1  0  0  0
 83165  1  0  0  0
 83166  1  0  0  0
 83 91  1  0  0  0
 84167  1  0  0  0
 84168  1  0  0  0
 85169  1  0  0  0
 86 91  2  0  0  0
 86170  1  0  0  0
 88171  1  0  0  0
 90 91  2  0  0  0
M  ISO  4   1 100  68 101  84 101  88 100
M  END
> <chiral flag>
0

> <version>
0

> <s_m_source_file>
/data/baiqing/PycharmProjects/Reinvent-master-3.2/result/LINK_invent/BTK/process_docking_weight1_custom_product_contain_oxygen_bond_distance_aromatic_linkinvent_7_9_3/rearranged_h_0065.sdf

> <i_m_source_file_index>
75

> <r_mmod_Potential_Energy-OPLS-2005>
181.624313354492

> <r_mmod_Stretch_Energy-OPLS-2005>
155.901672363281

> <r_mmod_Bend_Energy-OPLS-2005>
254.305221557617

> <r_mmod_Torsional_Energy-OPLS-2005>
312.502593994141

> <r_mmod_Improper_Torsional_Energy-OPLS-2005>
6.03944826126099

> <r_mmod_Van_der_Waal_Energy-OPLS-2005>
148.557434082031

> <r_mmod_Electrostatic_Energy-OPLS-2005>
-511.308441162109

> <r_mmod_Solvation_Energy-OPLS-2005>
-280.786529541016

> <b_mmod_Minimization_Converged-OPLS-2005>
0

> <r_mmod_RMS_Derivative-OPLS-2005>
5.98738098144531

$$$$
75
                    3D
 Structure written by MMmdl.
156164  0  0  1  0            999 V2000
  -30.6501  -14.6435   20.4560 C   0  0  0  0  0  0
  -30.4226  -12.3847   19.4674 C   0  0  0  0  0  0
  -29.5134  -12.5118   18.2269 C   0  0  0  0  0  0
  -28.0307  -12.3613   18.6262 C   0  0  0  0  0  0
  -27.6480  -13.2310   19.8560 C   0  0  2  0  0  0
  -28.6908  -13.1208   20.9894 C   0  0  0  0  0  0
  -25.2520  -13.8214   20.5671 C   0  0  0  0  0  0
  -24.1816  -13.0459   20.9192 C   0  0  0  0  0  0
  -24.6399  -11.6943   20.8729 C   0  0  0  0  0  0
  -23.9078  -10.4321   21.0408 C   0  0  0  0  0  0
  -24.3633   -9.4235   21.9183 C   0  0  0  0  0  0
  -23.6310   -8.2271   22.0752 C   0  0  0  0  0  0
  -22.4278   -8.0308   21.3567 C   0  0  0  0  0  0
  -21.9915   -9.0282   20.4674 C   0  0  0  0  0  0
  -22.7242  -10.2159   20.3070 C   0  0  0  0  0  0
  -21.6849   -6.0755   22.5280 C   0  0  0  0  0  0
  -21.4018   -6.5648   23.8215 C   0  0  0  0  0  0
  -21.3667   -5.6795   24.9171 C   0  0  0  0  0  0
  -21.6037   -4.3058   24.7219 C   0  0  0  0  0  0
  -21.8818   -3.8158   23.4335 C   0  0  0  0  0  0
  -21.9190   -4.6987   22.3396 C   0  0  0  0  0  0
  -22.7821  -13.5251   21.1844 C   0  0  0  0  0  0
  -22.1650   -4.2182   21.0976 F   0  0  0  0  0  0
  -21.5629   -3.4538   25.7731 F   0  0  0  0  0  0
  -30.0066  -13.4349   20.4191 N   0  0  0  0  0  0
  -26.2959  -12.9420   20.3276 N   0  0  0  0  0  0
  -25.9327  -11.6556   20.5721 N   0  0  0  0  0  0
  -22.0459  -12.8269   22.0419 N   0  0  0  0  0  0
  -25.4204  -15.1933   20.4046 N   0  0  0  0  0  0
  -31.8463  -14.7121   20.1640 O   0  0  0  0  0  0
  -21.6643   -6.8901   21.4246 O   0  0  0  0  0  0
  -22.3513  -14.5556   20.6695 O   0  0  0  0  0  0
  -24.6257  -31.8590   23.2013 C   0  0  0  0  0  0
  -25.9113  -32.4778   23.8360 C   0  0  1  0  0  0
  -27.2223  -27.3213   20.1282 C   0  0  0  0  0  0
  -25.5920  -33.8577   24.2273 N   0  0  0  0  0  0
  -23.4195  -30.4798   21.5436 C   0  0  2  0  0  0
  -24.8649  -28.9238   20.1192 C   0  0  0  0  0  0
  -22.7481  -29.4624   22.4957 C   0  0  0  0  0  0
  -18.0295  -28.1385   22.8479 C   0  0  0  0  0  0
  -24.1487  -36.7296   23.2640 C   0  0  0  0  0  0
  -25.9594  -30.7876   21.3733 C   0  0  0  0  0  0
  -26.0322  -29.4136   20.7191 C   0  0  0  0  0  0
  -27.2170  -28.6240   20.7082 C   0  0  0  0  0  0
  -26.0365  -26.8674   19.5179 C   0  0  0  0  0  0
  -24.8672  -27.6561   19.5121 C   0  0  0  0  0  0
  -23.6349  -29.8076   20.1614 C   0  0  0  0  0  0
  -25.4107  -36.3079   24.0327 C   0  0  1  0  0  0
  -20.5893  -28.3689   23.1293 C   0  0  2  0  0  0
  -20.6774  -26.9405   22.5431 C   0  0  0  0  0  0
  -19.5760  -26.6379   21.5216 C   0  0  0  0  0  0
  -18.1931  -26.7940   22.1602 C   0  0  0  0  0  0
  -19.1544  -28.8855   23.2888 C   0  0  0  0  0  0
  -18.9465  -30.1448   23.8918 C   0  0  0  0  0  0
  -17.6458  -30.6579   24.0560 C   0  0  0  0  0  0
  -25.9042  -34.9452   23.5093 C   0  0  0  0  0  0
  -16.5355  -29.9070   23.6322 C   0  0  0  0  0  0
  -16.7276  -28.6491   23.0344 C   0  0  0  0  0  0
  -26.4473  -31.6613   25.0758 C   0  0  0  0  0  0
  -25.3705  -31.3757   26.1493 C   0  0  0  0  0  0
  -27.0298  -30.3034   24.6223 C   0  0  0  0  0  0
  -27.6037  -32.4363   25.7512 C   0  0  0  0  0  0
  -27.5583  -37.1797   24.8445 C   0  0  0  0  0  0
  -21.4201  -29.3038   22.3693 N   0  0  0  0  0  0
  -26.4281  -37.3783   23.9403 N   0  0  0  0  0  0
  -24.6865  -31.0608   22.0959 N   0  0  0  0  0  0
  -23.4202  -28.8179   23.3055 O   0  0  0  0  0  0
  -28.3603  -26.5169   20.1018 O   0  0  0  0  0  0
  -26.5633  -34.8913   22.4674 O   0  0  0  0  0  0
  -23.5427  -32.1404   23.7346 O   0  0  0  0  0  0
  -29.2804  -18.2771   20.4934 C   0  0  0  0  0  0
  -31.0912  -17.4002   19.1446 C   0  0  0  0  0  0
  -30.4133  -19.7501   18.9003 C   0  0  0  0  0  0
  -29.4204  -19.5961   19.9086 C   0  0  0  0  0  0
  -30.0983  -17.1458   20.1204 C   0  0  0  0  0  0
  -31.2478  -18.6650   18.5500 C   0  0  0  0  0  0
  -30.5581  -21.0314   18.1393 C   0  0  0  0  0  0
  -28.4244  -20.7777   20.2463 C   0  0  0  0  0  0
  -28.3258  -25.1826   20.7444 C   0  0  0  0  0  0
  -29.8231  -21.1250   17.0372 N   0  0  0  0  0  0
  -29.8888  -15.7791   20.6393 N   0  0  0  0  0  0
  -28.9103  -22.2126   20.3993 N   0  0  0  0  0  0
  -31.2519  -21.9552   18.5627 O   0  0  0  0  0  0
  -28.3925  -23.7788   18.3756 O   0  0  0  0  0  0
  -26.5504  -23.2336   20.0145 O   0  0  0  0  0  0
  -32.2036  -18.8130   17.5996 F   0  0  0  0  0  0
  -27.9592  -23.5812   19.7678 S   0  0  0  0  0  0
  -31.4717  -12.4732   19.1768 H   0  0  0  0  0  0
  -30.3199  -11.3977   19.9212 H   0  0  0  0  0  0
  -29.7780  -11.7639   17.4790 H   0  0  0  0  0  0
  -29.6753  -13.4801   17.7517 H   0  0  0  0  0  0
  -27.8537  -11.3087   18.8456 H   0  0  0  0  0  0
  -27.3915  -12.6109   17.7778 H   0  0  0  0  0  0
  -27.6572  -14.2626   19.5045 H   0  0  0  0  0  0
  -28.6961  -12.1174   21.4175 H   0  0  0  0  0  0
  -28.4457  -13.7978   21.8098 H   0  0  0  0  0  0
  -25.2791   -9.5691   22.4745 H   0  0  0  0  0  0
  -24.0036   -7.4635   22.7423 H   0  0  0  0  0  0
  -21.0857   -8.8787   19.8975 H   0  0  0  0  0  0
  -22.3703  -10.9687   19.6165 H   0  0  0  0  0  0
  -21.2029   -7.6156   23.9724 H   0  0  0  0  0  0
  -21.1472   -6.0526   25.9071 H   0  0  0  0  0  0
  -22.0599   -2.7626   23.2811 H   0  0  0  0  0  0
  -22.4056  -11.9973   22.4885 H   0  0  0  0  0  0
  -21.1066  -13.1283   22.2604 H   0  0  0  0  0  0
  -24.6470  -15.8442   20.4952 H   0  0  0  0  0  0
  -26.2641  -15.6298   20.0575 H   0  0  0  0  0  0
  -26.7203  -32.5422   23.1123 H   0  0  0  0  0  0
  -25.0039  -33.9736   25.0397 H   0  0  0  0  0  0
  -22.7131  -31.2993   21.3974 H   0  0  0  0  0  0
  -23.3756  -35.9621   23.3284 H   0  0  0  0  0  0
  -24.3583  -36.8945   22.2057 H   0  0  0  0  0  0
  -23.7240  -37.6484   23.6688 H   0  0  0  0  0  0
  -26.1001  -31.5506   20.6068 H   0  0  0  0  0  0
  -26.8370  -30.8331   22.0067 H   0  0  0  0  0  0
  -28.1212  -28.9973   21.1680 H   0  0  0  0  0  0
  -26.0119  -25.8979   19.0406 H   0  0  0  0  0  0
  -23.9701  -27.2749   19.0447 H   0  0  0  0  0  0
  -23.7593  -30.5800   19.4013 H   0  0  0  0  0  0
  -22.7541  -29.2379   19.8601 H   0  0  0  0  0  0
  -25.1292  -36.1913   25.0825 H   0  0  0  0  0  0
  -20.9985  -28.3255   24.1411 H   0  0  0  0  0  0
  -20.5635  -26.2296   23.3630 H   0  0  0  0  0  0
  -21.6644  -26.7398   22.1250 H   0  0  0  0  0  0
  -19.6901  -25.6284   21.1252 H   0  0  0  0  0  0
  -19.6701  -27.3181   20.6739 H   0  0  0  0  0  0
  -17.4211  -26.6722   21.3985 H   0  0  0  0  0  0
  -18.0288  -26.0073   22.8979 H   0  0  0  0  0  0
  -19.7934  -30.7263   24.2302 H   0  0  0  0  0  0
  -17.5001  -31.6262   24.5148 H   0  0  0  0  0  0
  -15.5347  -30.2954   23.7642 H   0  0  0  0  0  0
  -15.8688  -28.0788   22.7054 H   0  0  0  0  0  0
  -24.5879  -30.7098   25.7833 H   0  0  0  0  0  0
  -24.8893  -32.2922   26.4928 H   0  0  0  0  0  0
  -25.8037  -30.8937   27.0270 H   0  0  0  0  0  0
  -26.2866  -29.6833   24.1196 H   0  0  0  0  0  0
  -27.3925  -29.7256   25.4734 H   0  0  0  0  0  0
  -27.8780  -30.4319   23.9496 H   0  0  0  0  0  0
  -27.2634  -33.3635   26.2135 H   0  0  0  0  0  0
  -28.3799  -32.6982   25.0313 H   0  0  0  0  0  0
  -28.0774  -31.8490   26.5387 H   0  0  0  0  0  0
  -28.2581  -38.0112   24.7524 H   0  0  0  0  0  0
  -28.1104  -36.2657   24.6209 H   0  0  0  0  0  0
  -27.2337  -37.1390   25.8858 H   0  0  0  0  0  0
  -20.9385  -29.8740   21.6883 H   0  0  0  0  0  0
  -26.0158  -38.2852   24.1421 H   0  0  0  0  0  0
  -28.4987  -18.1254   21.2262 H   0  0  0  0  0  0
  -31.7455  -16.6238   18.7814 H   0  0  0  0  0  0
  -27.8709  -20.5150   21.1483 H   0  0  0  0  0  0
  -27.6768  -20.7697   19.4506 H   0  0  0  0  0  0
  -29.3080  -25.0242   21.1857 H   0  0  0  0  0  0
  -27.6455  -25.1844   21.5947 H   0  0  0  0  0  0
  -29.2394  -20.3542   16.7455 H   0  0  0  0  0  0
  -29.8191  -21.9787   16.4996 H   0  0  0  0  0  0
  -28.9778  -15.6043   21.0379 H   0  0  0  0  0  0
  -29.8800  -22.3031   20.0778 H   0  0  0  0  0  0
  1 25  1  0  0  0
  1 30  2  0  0  0
  1 81  1  0  0  0
  2  3  1  0  0  0
  2 25  1  0  0  0
  2 88  1  0  0  0
  2 89  1  0  0  0
  3  4  1  0  0  0
  3 90  1  0  0  0
  3 91  1  0  0  0
  4  5  1  0  0  0
  4 92  1  0  0  0
  4 93  1  0  0  0
  5  6  1  0  0  0
  5 26  1  0  0  0
  5 94  1  0  0  0
  6 25  1  0  0  0
  6 95  1  0  0  0
  6 96  1  0  0  0
  7  8  2  0  0  0
  7 26  1  0  0  0
  7 29  1  0  0  0
  8  9  1  0  0  0
  8 22  1  0  0  0
  9 10  1  0  0  0
  9 27  2  0  0  0
 10 11  2  0  0  0
 10 15  1  0  0  0
 11 12  1  0  0  0
 11 97  1  0  0  0
 12 13  2  0  0  0
 12 98  1  0  0  0
 13 14  1  0  0  0
 13 31  1  0  0  0
 14 15  2  0  0  0
 14 99  1  0  0  0
 15100  1  0  0  0
 16 17  2  0  0  0
 16 21  1  0  0  0
 16 31  1  0  0  0
 17 18  1  0  0  0
 17101  1  0  0  0
 18 19  2  0  0  0
 18102  1  0  0  0
 19 20  1  0  0  0
 19 24  1  0  0  0
 20 21  2  0  0  0
 20103  1  0  0  0
 21 23  1  0  0  0
 22 28  1  0  0  0
 22 32  2  0  0  0
 26 27  1  0  0  0
 28104  1  0  0  0
 28105  1  0  0  0
 29106  1  0  0  0
 29107  1  0  0  0
 33 34  1  0  0  0
 33 66  1  0  0  0
 33 70  2  0  0  0
 34 36  1  0  0  0
 34 59  1  0  0  0
 34108  1  0  0  0
 35 44  2  0  0  0
 35 45  1  0  0  0
 35 68  1  0  0  0
 36 56  1  0  0  0
 36109  1  0  0  0
 37 39  1  0  0  0
 37 47  1  0  0  0
 37 66  1  0  0  0
 37110  1  0  0  0
 38 43  2  0  0  0
 38 46  1  0  0  0
 38 47  1  0  0  0
 39 64  1  0  0  0
 39 67  2  0  0  0
 40 52  1  0  0  0
 40 53  2  0  0  0
 40 58  1  0  0  0
 41111  1  0  0  0
 41112  1  0  0  0
 41113  1  0  0  0
 41 48  1  0  0  0
 42 43  1  0  0  0
 42 66  1  0  0  0
 42114  1  0  0  0
 42115  1  0  0  0
 43 44  1  0  0  0
 44116  1  0  0  0
 45 46  2  0  0  0
 45117  1  0  0  0
 46118  1  0  0  0
 47119  1  0  0  0
 47120  1  0  0  0
 48 56  1  0  0  0
 48 65  1  0  0  0
 48121  1  0  0  0
 49 50  1  0  0  0
 49 53  1  0  0  0
 49 64  1  0  0  0
 49122  1  0  0  0
 50 51  1  0  0  0
 50123  1  0  0  0
 50124  1  0  0  0
 51 52  1  0  0  0
 51125  1  0  0  0
 51126  1  0  0  0
 52127  1  0  0  0
 52128  1  0  0  0
 53 54  1  0  0  0
 54 55  2  0  0  0
 54129  1  0  0  0
 55 57  1  0  0  0
 55130  1  0  0  0
 56 69  2  0  0  0
 57 58  2  0  0  0
 57131  1  0  0  0
 58132  1  0  0  0
 59 60  1  0  0  0
 59 61  1  0  0  0
 59 62  1  0  0  0
 60133  1  0  0  0
 60134  1  0  0  0
 60135  1  0  0  0
 61136  1  0  0  0
 61137  1  0  0  0
 61138  1  0  0  0
 62139  1  0  0  0
 62140  1  0  0  0
 62141  1  0  0  0
 63 65  1  0  0  0
 63142  1  0  0  0
 63143  1  0  0  0
 63144  1  0  0  0
 64145  1  0  0  0
 65146  1  0  0  0
 68 79  1  0  0  0
 71 74  2  0  0  0
 71 75  1  0  0  0
 71147  1  0  0  0
 72 75  2  0  0  0
 72 76  1  0  0  0
 72148  1  0  0  0
 73 74  1  0  0  0
 73 76  2  0  0  0
 73 77  1  0  0  0
 74 78  1  0  0  0
 75 81  1  0  0  0
 76 86  1  0  0  0
 77 80  1  0  0  0
 77 83  2  0  0  0
 78 82  1  0  0  0
 78149  1  0  0  0
 78150  1  0  0  0
 79151  1  0  0  0
 79152  1  0  0  0
 79 87  1  0  0  0
 80153  1  0  0  0
 80154  1  0  0  0
 81155  1  0  0  0
 82 87  1  0  0  0
 82156  1  0  0  0
 84 87  2  0  0  0
 85 87  2  0  0  0
M  ISO  4   1 100  68 101  79 101  81 100
M  END
> <chiral flag>
0

> <version>
0

> <s_m_source_file>
/data/baiqing/PycharmProjects/Reinvent-master-3.2/result/LINK_invent/BTK/process_docking_weight1_custom_product_contain_oxygen_bond_distance_aromatic_linkinvent_7_9_3/rearranged_h_0065.sdf

> <i_m_source_file_index>
76

> <r_mmod_Potential_Energy-OPLS-2005>
-227.195449829102

> <r_mmod_Stretch_Energy-OPLS-2005>
85.3449478149414

> <r_mmod_Bend_Energy-OPLS-2005>
135.992141723633

> <r_mmod_Torsional_Energy-OPLS-2005>
285.580841064453

> <r_mmod_Improper_Torsional_Energy-OPLS-2005>
10.898211479187

> <r_mmod_Van_der_Waal_Energy-OPLS-2005>
137.640701293945

> <r_mmod_Electrostatic_Energy-OPLS-2005>
-653.206604003906

> <r_mmod_Solvation_Energy-OPLS-2005>
-277.791015625

> <b_mmod_Minimization_Converged-OPLS-2005>
0

> <r_mmod_RMS_Derivative-OPLS-2005>
2.9774751663208

$$$$
76
                    3D
 Structure written by MMmdl.
173182  0  0  1  0            999 V2000
  -30.6057  -14.7567   20.4609 C   0  0  0  0  0  0
  -30.4382  -12.4691   19.4564 C   0  0  0  0  0  0
  -29.5102  -12.5085   18.2240 C   0  0  0  0  0  0
  -28.0370  -12.3287   18.6428 C   0  0  0  0  0  0
  -27.6398  -13.2295   19.8428 C   0  0  2  0  0  0
  -28.6891  -13.1711   20.9725 C   0  0  0  0  0  0
  -25.2509  -13.8181   20.5694 C   0  0  0  0  0  0
  -24.1802  -13.0426   20.9201 C   0  0  0  0  0  0
  -24.6394  -11.6903   20.8735 C   0  0  0  0  0  0
  -23.9069  -10.4280   21.0393 C   0  0  0  0  0  0
  -24.3617   -9.4194   21.9170 C   0  0  0  0  0  0
  -23.6285   -8.2235   22.0744 C   0  0  0  0  0  0
  -22.4266   -8.0273   21.3539 C   0  0  0  0  0  0
  -21.9905   -9.0248   20.4639 C   0  0  0  0  0  0
  -22.7241  -10.2124   20.3039 C   0  0  0  0  0  0
  -21.6856   -6.0725   22.5269 C   0  0  0  0  0  0
  -21.4023   -6.5630   23.8204 C   0  0  0  0  0  0
  -21.3662   -5.6786   24.9164 C   0  0  0  0  0  0
  -21.6041   -4.3045   24.7217 C   0  0  0  0  0  0
  -21.8825   -3.8138   23.4340 C   0  0  0  0  0  0
  -21.9197   -4.6957   22.3393 C   0  0  0  0  0  0
  -22.7820  -13.5205   21.1852 C   0  0  0  0  0  0
  -22.1661   -4.2139   21.0972 F   0  0  0  0  0  0
  -21.5627   -3.4533   25.7734 F   0  0  0  0  0  0
  -29.9801  -13.5331   20.3761 N   0  0  0  0  0  0
  -26.2931  -12.9383   20.3255 N   0  0  0  0  0  0
  -25.9323  -11.6526   20.5729 N   0  0  0  0  0  0
  -22.0461  -12.8206   22.0413 N   0  0  0  0  0  0
  -25.4179  -15.1912   20.4122 N   0  0  0  0  0  0
  -31.8125  -14.8428   20.2176 O   0  0  0  0  0  0
  -21.6630   -6.8869   21.4232 O   0  0  0  0  0  0
  -22.3496  -14.5504   20.6691 O   0  0  0  0  0  0
  -24.6319  -31.8537   23.1951 C   0  0  0  0  0  0
  -25.9149  -32.4743   23.8308 C   0  0  1  0  0  0
  -27.2267  -27.2560   20.1387 C   0  0  0  0  0  0
  -25.5936  -33.8541   24.2242 N   0  0  0  0  0  0
  -23.4290  -30.4730   21.5390 C   0  0  2  0  0  0
  -24.8786  -28.9097   20.1163 C   0  0  0  0  0  0
  -22.7502  -29.4597   22.4923 C   0  0  0  0  0  0
  -18.0296  -28.1403   22.8485 C   0  0  0  0  0  0
  -24.1481  -36.7265   23.2633 C   0  0  0  0  0  0
  -25.9734  -30.7664   21.3715 C   0  0  0  0  0  0
  -26.0502  -29.3850   20.7210 C   0  0  0  0  0  0
  -27.2303  -28.5724   20.7137 C   0  0  0  0  0  0
  -26.0328  -26.8404   19.5157 C   0  0  0  0  0  0
  -24.8750  -27.6456   19.5023 C   0  0  0  0  0  0
  -23.6487  -29.7981   20.1585 C   0  0  0  0  0  0
  -25.4108  -36.3052   24.0318 C   0  0  1  0  0  0
  -20.5895  -28.3707   23.1273 C   0  0  2  0  0  0
  -20.6782  -26.9425   22.5409 C   0  0  0  0  0  0
  -19.5758  -26.6401   21.5210 C   0  0  0  0  0  0
  -18.1937  -26.7951   22.1618 C   0  0  0  0  0  0
  -19.1548  -28.8876   23.2875 C   0  0  0  0  0  0
  -18.9470  -30.1475   23.8895 C   0  0  0  0  0  0
  -17.6467  -30.6598   24.0571 C   0  0  0  0  0  0
  -25.9058  -34.9429   23.5089 C   0  0  0  0  0  0
  -16.5362  -29.9096   23.6334 C   0  0  0  0  0  0
  -16.7278  -28.6516   23.0350 C   0  0  0  0  0  0
  -26.4516  -31.6564   25.0694 C   0  0  0  0  0  0
  -25.3740  -31.3726   26.1414 C   0  0  0  0  0  0
  -27.0350  -30.2977   24.6165 C   0  0  0  0  0  0
  -27.6074  -32.4289   25.7485 C   0  0  0  0  0  0
  -27.5577  -37.1781   24.8457 C   0  0  0  0  0  0
  -21.4211  -29.3049   22.3659 N   0  0  0  0  0  0
  -26.4275  -37.3761   23.9420 N   0  0  0  0  0  0
  -24.6976  -31.0494   22.0925 N   0  0  0  0  0  0
  -23.4195  -28.8151   23.3036 O   0  0  0  0  0  0
  -28.3324  -26.3775   20.1249 O   0  0  0  0  0  0
  -26.5637  -34.8913   22.4658 O   0  0  0  0  0  0
  -23.5472  -32.1367   23.7236 O   0  0  0  0  0  0
  -31.2939  -18.7201   22.5349 C   0  0  0  0  0  0
  -31.0096  -17.4523   22.0042 C   0  0  0  0  0  0
  -29.5599  -18.5279   20.3683 C   0  0  0  0  0  0
  -30.7438  -19.9061   22.0016 C   0  0  0  0  0  0
  -29.8595  -19.8677   20.8826 C   0  0  0  0  0  0
  -30.1333  -17.2948   20.9142 C   0  0  0  0  0  0
  -30.2190  -21.8265   19.3962 C   0  0  0  0  0  0
  -28.5316  -22.2289   20.8636 C   0  0  0  0  0  0
  -28.5693  -23.5692   19.9829 C   0  0  2  0  0  0
  -29.9298  -23.3648   19.2432 C   0  0  1  0  0  0
  -31.1836  -21.2074   22.6548 C   0  0  0  0  0  0
  -32.4978  -24.0167   19.5303 C   0  0  0  0  0  0
  -28.9100  -22.9044   16.8445 C   0  0  0  0  0  0
  -29.5962  -25.2409   17.4375 C   0  0  0  0  0  0
  -28.2117  -24.9953   20.7129 C   0  0  0  0  0  0
  -31.0385  -24.1711   20.0010 C   0  0  0  0  0  0
  -29.8728  -23.7507   17.7142 C   0  0  0  0  0  0
  -29.4272  -21.1708   20.2728 N   0  0  0  0  0  0
  -29.8101  -15.8995   20.5147 N   0  0  0  0  0  0
  -31.0944  -21.2667   18.7246 O   0  0  0  0  0  0
  -31.4752  -12.6110   19.1489 H   0  0  0  0  0  0
  -30.3976  -11.4944   19.9458 H   0  0  0  0  0  0
  -29.7948  -11.7344   17.5097 H   0  0  0  0  0  0
  -29.6322  -13.4615   17.7066 H   0  0  0  0  0  0
  -27.9004  -11.2800   18.9089 H   0  0  0  0  0  0
  -27.3789  -12.5176   17.7938 H   0  0  0  0  0  0
  -27.6289  -14.2491   19.4577 H   0  0  0  0  0  0
  -28.7353  -12.1746   21.4138 H   0  0  0  0  0  0
  -28.4273  -13.8568   21.7799 H   0  0  0  0  0  0
  -25.2767   -9.5665   22.4737 H   0  0  0  0  0  0
  -23.9996   -7.4623   22.7463 H   0  0  0  0  0  0
  -21.0836   -8.8764   19.8941 H   0  0  0  0  0  0
  -22.3702  -10.9654   19.6134 H   0  0  0  0  0  0
  -21.2018   -7.6139   23.9702 H   0  0  0  0  0  0
  -21.1477   -6.0513   25.9067 H   0  0  0  0  0  0
  -22.0606   -2.7601   23.2841 H   0  0  0  0  0  0
  -22.4079  -11.9880   22.4820 H   0  0  0  0  0  0
  -21.1063  -13.1217   22.2575 H   0  0  0  0  0  0
  -24.6482  -15.8415   20.5236 H   0  0  0  0  0  0
  -26.2625  -15.6379   20.0810 H   0  0  0  0  0  0
  -26.7210  -32.5404   23.1046 H   0  0  0  0  0  0
  -25.0086  -33.9670   25.0389 H   0  0  0  0  0  0
  -22.7256  -31.2938   21.3877 H   0  0  0  0  0  0
  -23.3754  -35.9584   23.3268 H   0  0  0  0  0  0
  -24.3576  -36.8918   22.2053 H   0  0  0  0  0  0
  -23.7218  -37.6448   23.6679 H   0  0  0  0  0  0
  -26.1022  -31.5207   20.5940 H   0  0  0  0  0  0
  -26.8542  -30.8263   21.9991 H   0  0  0  0  0  0
  -28.1341  -28.9358   21.1826 H   0  0  0  0  0  0
  -25.9936  -25.8683   19.0435 H   0  0  0  0  0  0
  -23.9777  -27.2758   19.0257 H   0  0  0  0  0  0
  -23.7731  -30.5684   19.3964 H   0  0  0  0  0  0
  -22.7676  -29.2282   19.8579 H   0  0  0  0  0  0
  -25.1282  -36.1890   25.0808 H   0  0  0  0  0  0
  -20.9991  -28.3296   24.1390 H   0  0  0  0  0  0
  -20.5677  -26.2319   23.3615 H   0  0  0  0  0  0
  -21.6652  -26.7451   22.1207 H   0  0  0  0  0  0
  -19.6914  -25.6311   21.1236 H   0  0  0  0  0  0
  -19.6694  -27.3215   20.6742 H   0  0  0  0  0  0
  -17.4207  -26.6708   21.4020 H   0  0  0  0  0  0
  -18.0328  -26.0097   22.9014 H   0  0  0  0  0  0
  -19.7947  -30.7299   24.2260 H   0  0  0  0  0  0
  -17.5021  -31.6276   24.5181 H   0  0  0  0  0  0
  -15.5361  -30.2991   23.7668 H   0  0  0  0  0  0
  -15.8682  -28.0830   22.7065 H   0  0  0  0  0  0
  -24.5930  -30.7048   25.7757 H   0  0  0  0  0  0
  -24.8914  -32.2898   26.4796 H   0  0  0  0  0  0
  -25.8059  -30.8946   27.0214 H   0  0  0  0  0  0
  -26.2920  -29.6732   24.1190 H   0  0  0  0  0  0
  -27.4040  -29.7232   25.4672 H   0  0  0  0  0  0
  -27.8793  -30.4246   23.9385 H   0  0  0  0  0  0
  -27.2700  -33.3617   26.2014 H   0  0  0  0  0  0
  -28.3931  -32.6790   25.0344 H   0  0  0  0  0  0
  -28.0680  -31.8427   26.5448 H   0  0  0  0  0  0
  -28.2560  -38.0111   24.7540 H   0  0  0  0  0  0
  -28.1105  -36.2643   24.6222 H   0  0  0  0  0  0
  -27.2306  -37.1363   25.8861 H   0  0  0  0  0  0
  -20.9407  -29.8755   21.6844 H   0  0  0  0  0  0
  -26.0144  -38.2819   24.1460 H   0  0  0  0  0  0
  -31.9685  -18.7747   23.3791 H   0  0  0  0  0  0
  -31.4577  -16.5884   22.4742 H   0  0  0  0  0  0
  -28.8906  -18.4492   19.5232 H   0  0  0  0  0  0
  -27.5127  -21.8489   20.9404 H   0  0  0  0  0  0
  -28.8510  -22.4550   21.8779 H   0  0  0  0  0  0
  -27.7785  -23.4449   19.2462 H   0  0  0  0  0  0
  -32.0142  -21.0451   23.3420 H   0  0  0  0  0  0
  -30.3733  -21.6459   23.2356 H   0  0  0  0  0  0
  -31.5354  -21.9246   21.9181 H   0  0  0  0  0  0
  -33.1588  -24.6298   20.1446 H   0  0  0  0  0  0
  -32.6299  -24.3401   18.4987 H   0  0  0  0  0  0
  -32.8533  -22.9900   19.6139 H   0  0  0  0  0  0
  -29.1091  -21.8348   16.9093 H   0  0  0  0  0  0
  -29.0156  -23.1669   15.7914 H   0  0  0  0  0  0
  -27.8642  -23.0637   17.1030 H   0  0  0  0  0  0
  -30.2877  -25.9019   17.9570 H   0  0  0  0  0  0
  -28.5827  -25.5176   17.7243 H   0  0  0  0  0  0
  -29.7014  -25.4619   16.3745 H   0  0  0  0  0  0
  -28.8261  -25.0410   21.6118 H   0  0  0  0  0  0
  -27.1989  -24.8929   21.1048 H   0  0  0  0  0  0
  -31.0035  -23.9136   21.0590 H   0  0  0  0  0  0
  -30.8036  -25.2338   19.9840 H   0  0  0  0  0  0
  -30.8648  -23.5520   17.3085 H   0  0  0  0  0  0
  -28.8293  -15.7186   20.3729 H   0  0  0  0  0  0
  1 25  1  0  0  0
  1 30  2  0  0  0
  1 89  1  0  0  0
  2  3  1  0  0  0
  2 25  1  0  0  0
  2 91  1  0  0  0
  2 92  1  0  0  0
  3  4  1  0  0  0
  3 93  1  0  0  0
  3 94  1  0  0  0
  4  5  1  0  0  0
  4 95  1  0  0  0
  4 96  1  0  0  0
  5  6  1  0  0  0
  5 26  1  0  0  0
  5 97  1  0  0  0
  6 25  1  0  0  0
  6 98  1  0  0  0
  6 99  1  0  0  0
  7  8  2  0  0  0
  7 26  1  0  0  0
  7 29  1  0  0  0
  8  9  1  0  0  0
  8 22  1  0  0  0
  9 10  1  0  0  0
  9 27  2  0  0  0
 10 11  2  0  0  0
 10 15  1  0  0  0
 11 12  1  0  0  0
 11100  1  0  0  0
 12 13  2  0  0  0
 12101  1  0  0  0
 13 14  1  0  0  0
 13 31  1  0  0  0
 14 15  2  0  0  0
 14102  1  0  0  0
 15103  1  0  0  0
 16 17  2  0  0  0
 16 21  1  0  0  0
 16 31  1  0  0  0
 17 18  1  0  0  0
 17104  1  0  0  0
 18 19  2  0  0  0
 18105  1  0  0  0
 19 20  1  0  0  0
 19 24  1  0  0  0
 20 21  2  0  0  0
 20106  1  0  0  0
 21 23  1  0  0  0
 22 28  1  0  0  0
 22 32  2  0  0  0
 26 27  1  0  0  0
 28107  1  0  0  0
 28108  1  0  0  0
 29109  1  0  0  0
 29110  1  0  0  0
 33 34  1  0  0  0
 33 66  1  0  0  0
 33 70  2  0  0  0
 34 36  1  0  0  0
 34 59  1  0  0  0
 34111  1  0  0  0
 35 44  2  0  0  0
 35 45  1  0  0  0
 35 68  1  0  0  0
 36 56  1  0  0  0
 36112  1  0  0  0
 37 39  1  0  0  0
 37 47  1  0  0  0
 37 66  1  0  0  0
 37113  1  0  0  0
 38 43  2  0  0  0
 38 46  1  0  0  0
 38 47  1  0  0  0
 39 64  1  0  0  0
 39 67  2  0  0  0
 40 52  1  0  0  0
 40 53  2  0  0  0
 40 58  1  0  0  0
 41114  1  0  0  0
 41115  1  0  0  0
 41116  1  0  0  0
 41 48  1  0  0  0
 42 43  1  0  0  0
 42 66  1  0  0  0
 42117  1  0  0  0
 42118  1  0  0  0
 43 44  1  0  0  0
 44119  1  0  0  0
 45 46  2  0  0  0
 45120  1  0  0  0
 46121  1  0  0  0
 47122  1  0  0  0
 47123  1  0  0  0
 48 56  1  0  0  0
 48 65  1  0  0  0
 48124  1  0  0  0
 49 50  1  0  0  0
 49 53  1  0  0  0
 49 64  1  0  0  0
 49125  1  0  0  0
 50 51  1  0  0  0
 50126  1  0  0  0
 50127  1  0  0  0
 51 52  1  0  0  0
 51128  1  0  0  0
 51129  1  0  0  0
 52130  1  0  0  0
 52131  1  0  0  0
 53 54  1  0  0  0
 54 55  2  0  0  0
 54132  1  0  0  0
 55 57  1  0  0  0
 55133  1  0  0  0
 56 69  2  0  0  0
 57 58  2  0  0  0
 57134  1  0  0  0
 58135  1  0  0  0
 59 60  1  0  0  0
 59 61  1  0  0  0
 59 62  1  0  0  0
 60136  1  0  0  0
 60137  1  0  0  0
 60138  1  0  0  0
 61139  1  0  0  0
 61140  1  0  0  0
 61141  1  0  0  0
 62142  1  0  0  0
 62143  1  0  0  0
 62144  1  0  0  0
 63 65  1  0  0  0
 63145  1  0  0  0
 63146  1  0  0  0
 63147  1  0  0  0
 64148  1  0  0  0
 65149  1  0  0  0
 68 85  1  0  0  0
 71 72  2  0  0  0
 71 74  1  0  0  0
 71150  1  0  0  0
 72 76  1  0  0  0
 72151  1  0  0  0
 73 75  1  0  0  0
 73 76  2  0  0  0
 73152  1  0  0  0
 74 75  2  0  0  0
 74 81  1  0  0  0
 75 88  1  0  0  0
 76 89  1  0  0  0
 77 80  1  0  0  0
 77 88  1  0  0  0
 77 90  2  0  0  0
 78 79  1  0  0  0
 78 88  1  0  0  0
 78153  1  0  0  0
 78154  1  0  0  0
 79 80  1  0  0  0
 79 85  1  0  0  0
 79155  1  0  0  0
 80 86  1  0  0  0
 80 87  1  0  0  0
 81156  1  0  0  0
 81157  1  0  0  0
 81158  1  0  0  0
 82 86  1  0  0  0
 82159  1  0  0  0
 82160  1  0  0  0
 82161  1  0  0  0
 83162  1  0  0  0
 83163  1  0  0  0
 83164  1  0  0  0
 83 87  1  0  0  0
 84 87  1  0  0  0
 84165  1  0  0  0
 84166  1  0  0  0
 84167  1  0  0  0
 85168  1  0  0  0
 85169  1  0  0  0
 86170  1  0  0  0
 86171  1  0  0  0
 87172  1  0  0  0
 89173  1  0  0  0
M  ISO  4   1 100  68 101  85 101  89 100
M  END
> <chiral flag>
0

> <version>
0

> <s_m_source_file>
/data/baiqing/PycharmProjects/Reinvent-master-3.2/result/LINK_invent/BTK/process_docking_weight1_custom_product_contain_oxygen_bond_distance_aromatic_linkinvent_7_9_3/rearranged_h_0065.sdf

> <i_m_source_file_index>
77

> <r_mmod_Potential_Energy-OPLS-2005>
423.052642822266

> <r_mmod_Stretch_Energy-OPLS-2005>
141.307983398438

> <r_mmod_Bend_Energy-OPLS-2005>
212.072418212891

> <r_mmod_Torsional_Energy-OPLS-2005>
347.875061035156

> <r_mmod_Improper_Torsional_Energy-OPLS-2005>
9.61454772949219

> <r_mmod_Van_der_Waal_Energy-OPLS-2005>
134.843811035156

> <r_mmod_Electrostatic_Energy-OPLS-2005>
-294.527313232422

> <r_mmod_Solvation_Energy-OPLS-2005>
-217.081634521484

> <b_mmod_Minimization_Converged-OPLS-2005>
0

> <r_mmod_RMS_Derivative-OPLS-2005>
1.39557647705078

$$$$
77
                    3D
 Structure written by MMmdl.
162171  0  0  1  0            999 V2000
  -30.6441  -14.8370   20.5332 C   0  0  0  0  0  0
  -30.4149  -12.5405   19.5097 C   0  0  0  0  0  0
  -29.5102  -12.5379   18.2599 C   0  0  0  0  0  0
  -28.0462  -12.3228   18.6728 C   0  0  0  0  0  0
  -27.6310  -13.2377   19.8528 C   0  0  2  0  0  0
  -28.6659  -13.2504   21.0020 C   0  0  0  0  0  0
  -25.2295  -13.7856   20.5280 C   0  0  0  0  0  0
  -24.1707  -13.0231   20.9208 C   0  0  0  0  0  0
  -24.6399  -11.6765   20.8853 C   0  0  0  0  0  0
  -23.9069  -10.4186   21.0476 C   0  0  0  0  0  0
  -24.3611   -9.4100   21.9233 C   0  0  0  0  0  0
  -23.6268   -8.2156   22.0763 C   0  0  0  0  0  0
  -22.4257   -8.0233   21.3534 C   0  0  0  0  0  0
  -21.9905   -9.0216   20.4647 C   0  0  0  0  0  0
  -22.7253  -10.2082   20.3089 C   0  0  0  0  0  0
  -21.6829   -6.0715   22.5278 C   0  0  0  0  0  0
  -21.3997   -6.5626   23.8208 C   0  0  0  0  0  0
  -21.3645   -5.6782   24.9172 C   0  0  0  0  0  0
  -21.6037   -4.3046   24.7224 C   0  0  0  0  0  0
  -21.8823   -3.8133   23.4351 C   0  0  0  0  0  0
  -21.9185   -4.6945   22.3403 C   0  0  0  0  0  0
  -22.7757  -13.5086   21.1871 C   0  0  0  0  0  0
  -22.1666   -4.2133   21.0982 F   0  0  0  0  0  0
  -21.5623   -3.4535   25.7741 F   0  0  0  0  0  0
  -29.9581  -13.6318   20.4241 N   0  0  0  0  0  0
  -26.2875  -12.9235   20.3252 N   0  0  0  0  0  0
  -25.9366  -11.6401   20.5924 N   0  0  0  0  0  0
  -22.0428  -12.8144   22.0501 N   0  0  0  0  0  0
  -25.3701  -15.1311   20.2747 N   0  0  0  0  0  0
  -31.7850  -14.8789   20.0664 O   0  0  0  0  0  0
  -21.6602   -6.8851   21.4239 O   0  0  0  0  0  0
  -22.3455  -14.5392   20.6716 O   0  0  0  0  0  0
  -24.6325  -31.8533   23.1960 C   0  0  0  0  0  0
  -25.9136  -32.4750   23.8319 C   0  0  1  0  0  0
  -27.2366  -27.2356   20.1656 C   0  0  0  0  0  0
  -25.5927  -33.8550   24.2246 N   0  0  0  0  0  0
  -23.4332  -30.4701   21.5394 C   0  0  2  0  0  0
  -24.8879  -28.8997   20.1303 C   0  0  0  0  0  0
  -22.7509  -29.4584   22.4919 C   0  0  0  0  0  0
  -18.0298  -28.1378   22.8467 C   0  0  0  0  0  0
  -24.1492  -36.7279   23.2639 C   0  0  0  0  0  0
  -25.9797  -30.7577   21.3813 C   0  0  0  0  0  0
  -26.0582  -29.3693   20.7428 C   0  0  0  0  0  0
  -27.2378  -28.5509   20.7481 C   0  0  0  0  0  0
  -26.0443  -26.8316   19.5325 C   0  0  0  0  0  0
  -24.8847  -27.6360   19.5168 C   0  0  0  0  0  0
  -23.6597  -29.7923   20.1618 C   0  0  0  0  0  0
  -25.4120  -36.3061   24.0322 C   0  0  1  0  0  0
  -20.5899  -28.3701   23.1267 C   0  0  2  0  0  0
  -20.6796  -26.9421   22.5408 C   0  0  0  0  0  0
  -19.5777  -26.6376   21.5209 C   0  0  0  0  0  0
  -18.1955  -26.7920   22.1609 C   0  0  0  0  0  0
  -19.1546  -28.8858   23.2858 C   0  0  0  0  0  0
  -18.9458  -30.1458   23.8882 C   0  0  0  0  0  0
  -17.6452  -30.6576   24.0547 C   0  0  0  0  0  0
  -25.9059  -34.9434   23.5090 C   0  0  0  0  0  0
  -16.5350  -29.9065   23.6313 C   0  0  0  0  0  0
  -16.7281  -28.6484   23.0338 C   0  0  0  0  0  0
  -26.4499  -31.6577   25.0712 C   0  0  0  0  0  0
  -25.3713  -31.3738   26.1427 C   0  0  0  0  0  0
  -27.0351  -30.2989   24.6208 C   0  0  0  0  0  0
  -27.6048  -32.4323   25.7487 C   0  0  0  0  0  0
  -27.5576  -37.1797   24.8463 C   0  0  0  0  0  0
  -21.4212  -29.3049   22.3662 N   0  0  0  0  0  0
  -26.4290  -37.3763   23.9402 N   0  0  0  0  0  0
  -24.7008  -31.0463   22.0958 N   0  0  0  0  0  0
  -23.4187  -28.8136   23.3041 O   0  0  0  0  0  0
  -28.3487  -26.3724   20.0218 O   0  0  0  0  0  0
  -26.5634  -34.8913   22.4661 O   0  0  0  0  0  0
  -23.5464  -32.1366   23.7229 O   0  0  0  0  0  0
  -27.9390  -17.0389   21.0397 C   0  0  0  0  0  0
  -29.7693  -18.6015   20.8764 C   0  0  0  0  0  0
  -27.0346  -18.1358   21.0355 C   0  0  0  0  0  0
  -27.4743  -19.4730   20.8188 C   0  0  0  0  0  0
  -28.8679  -19.7677   20.8226 C   0  0  0  0  0  0
  -29.3329  -17.1949   20.9210 C   0  0  0  0  0  0
  -29.1905  -21.6709   22.3390 C   0  0  0  0  0  0
  -25.6090  -17.8777   21.4332 C   0  0  0  0  0  0
  -28.8753  -23.1705   22.4520 C   0  0  0  0  0  0
  -29.0829  -22.4682   20.2084 C   0  0  0  0  0  0
  -28.4379  -23.6824   21.0617 C   0  0  2  0  0  0
  -26.4452  -20.6143   20.7654 C   0  0  0  0  0  0
  -28.7466  -25.3032   20.9945 C   0  0  0  0  0  0
  -29.2391  -21.2102   21.0721 N   0  0  0  0  0  0
  -25.4428  -17.4715   22.6830 N   0  0  0  0  0  0
  -30.1956  -15.9893   21.2038 N   0  0  0  0  0  0
  -29.3797  -20.9879   23.3507 O   0  0  0  0  0  0
  -24.6650  -18.0280   20.6584 O   0  0  0  0  0  0
  -31.4568  -12.6512   19.2058 H   0  0  0  0  0  0
  -30.3664  -11.5771   20.0194 H   0  0  0  0  0  0
  -29.8221  -11.7593   17.5630 H   0  0  0  0  0  0
  -29.6096  -13.4852   17.7283 H   0  0  0  0  0  0
  -27.9354  -11.2770   18.9613 H   0  0  0  0  0  0
  -27.3846  -12.4758   17.8196 H   0  0  0  0  0  0
  -27.6070  -14.2472   19.4426 H   0  0  0  0  0  0
  -28.7290  -12.2735   21.4836 H   0  0  0  0  0  0
  -28.3715  -13.9574   21.7785 H   0  0  0  0  0  0
  -25.2751   -9.5563   22.4819 H   0  0  0  0  0  0
  -23.9953   -7.4536   22.7481 H   0  0  0  0  0  0
  -21.0830   -8.8758   19.8957 H   0  0  0  0  0  0
  -22.3728  -10.9641   19.6212 H   0  0  0  0  0  0
  -21.1998   -7.6139   23.9704 H   0  0  0  0  0  0
  -21.1455   -6.0519   25.9070 H   0  0  0  0  0  0
  -22.0617   -2.7599   23.2859 H   0  0  0  0  0  0
  -22.4051  -11.9820   22.4909 H   0  0  0  0  0  0
  -21.1072  -13.1217   22.2752 H   0  0  0  0  0  0
  -24.6025  -15.7903   20.3681 H   0  0  0  0  0  0
  -26.1858  -15.5410   19.8418 H   0  0  0  0  0  0
  -26.7202  -32.5405   23.1061 H   0  0  0  0  0  0
  -25.0056  -33.9684   25.0377 H   0  0  0  0  0  0
  -22.7312  -31.2922   21.3838 H   0  0  0  0  0  0
  -23.3752  -35.9613   23.3300 H   0  0  0  0  0  0
  -24.3582  -36.8904   22.2053 H   0  0  0  0  0  0
  -23.7252  -37.6481   23.6670 H   0  0  0  0  0  0
  -26.1139  -31.5083   20.6009 H   0  0  0  0  0  0
  -26.8583  -30.8202   22.0115 H   0  0  0  0  0  0
  -28.1458  -28.9208   21.2043 H   0  0  0  0  0  0
  -26.0133  -25.8689   19.0418 H   0  0  0  0  0  0
  -23.9908  -27.2701   19.0304 H   0  0  0  0  0  0
  -23.7915  -30.5625   19.4008 H   0  0  0  0  0  0
  -22.7787  -29.2257   19.8544 H   0  0  0  0  0  0
  -25.1304  -36.1903   25.0814 H   0  0  0  0  0  0
  -20.9976  -28.3282   24.1392 H   0  0  0  0  0  0
  -20.5706  -26.2309   23.3615 H   0  0  0  0  0  0
  -21.6665  -26.7454   22.1199 H   0  0  0  0  0  0
  -19.6946  -25.6280   21.1258 H   0  0  0  0  0  0
  -19.6722  -27.3171   20.6729 H   0  0  0  0  0  0
  -17.4227  -26.6651   21.4009 H   0  0  0  0  0  0
  -18.0354  -26.0072   22.9016 H   0  0  0  0  0  0
  -19.7927  -30.7278   24.2253 H   0  0  0  0  0  0
  -17.4997  -31.6254   24.5153 H   0  0  0  0  0  0
  -15.5347  -30.2957   23.7640 H   0  0  0  0  0  0
  -15.8684  -28.0791   22.7062 H   0  0  0  0  0  0
  -24.5887  -30.7092   25.7747 H   0  0  0  0  0  0
  -24.8905  -32.2913   26.4826 H   0  0  0  0  0  0
  -25.8017  -30.8925   27.0215 H   0  0  0  0  0  0
  -26.2940  -29.6733   24.1219 H   0  0  0  0  0  0
  -27.4011  -29.7254   25.4733 H   0  0  0  0  0  0
  -27.8823  -30.4252   23.9467 H   0  0  0  0  0  0
  -27.2649  -33.3625   26.2050 H   0  0  0  0  0  0
  -28.3866  -32.6885   25.0326 H   0  0  0  0  0  0
  -28.0707  -31.8459   26.5416 H   0  0  0  0  0  0
  -28.2597  -38.0092   24.7500 H   0  0  0  0  0  0
  -28.1074  -36.2620   24.6305 H   0  0  0  0  0  0
  -27.2292  -37.1458   25.8868 H   0  0  0  0  0  0
  -20.9408  -29.8771   21.6858 H   0  0  0  0  0  0
  -26.0166  -38.2833   24.1407 H   0  0  0  0  0  0
  -27.5555  -16.0543   21.2545 H   0  0  0  0  0  0
  -30.8288  -18.8013   20.9526 H   0  0  0  0  0  0
  -29.7827  -23.6712   22.7899 H   0  0  0  0  0  0
  -28.1049  -23.3462   23.2036 H   0  0  0  0  0  0
  -30.0853  -22.7590   19.8907 H   0  0  0  0  0  0
  -28.5342  -22.2735   19.2877 H   0  0  0  0  0  0
  -27.3542  -23.5744   21.0037 H   0  0  0  0  0  0
  -25.4760  -20.3130   20.3773 H   0  0  0  0  0  0
  -26.7396  -21.4057   20.0863 H   0  0  0  0  0  0
  -26.2902  -21.0434   21.7558 H   0  0  0  0  0  0
  -29.8323  -25.3945   21.0415 H   0  0  0  0  0  0
  -28.4137  -25.7025   21.9537 H   0  0  0  0  0  0
  -26.2454  -17.3647   23.2843 H   0  0  0  0  0  0
  -24.5204  -17.2652   23.0340 H   0  0  0  0  0  0
  -31.0523  -16.3406   21.6051 H   0  0  0  0  0  0
  1 25  1  0  0  0
  1 30  2  0  0  0
  1 86  1  0  0  0
  2  3  1  0  0  0
  2 25  1  0  0  0
  2 89  1  0  0  0
  2 90  1  0  0  0
  3  4  1  0  0  0
  3 91  1  0  0  0
  3 92  1  0  0  0
  4  5  1  0  0  0
  4 93  1  0  0  0
  4 94  1  0  0  0
  5  6  1  0  0  0
  5 26  1  0  0  0
  5 95  1  0  0  0
  6 25  1  0  0  0
  6 96  1  0  0  0
  6 97  1  0  0  0
  7  8  2  0  0  0
  7 26  1  0  0  0
  7 29  1  0  0  0
  8  9  1  0  0  0
  8 22  1  0  0  0
  9 10  1  0  0  0
  9 27  2  0  0  0
 10 11  2  0  0  0
 10 15  1  0  0  0
 11 12  1  0  0  0
 11 98  1  0  0  0
 12 13  2  0  0  0
 12 99  1  0  0  0
 13 14  1  0  0  0
 13 31  1  0  0  0
 14 15  2  0  0  0
 14100  1  0  0  0
 15101  1  0  0  0
 16 17  2  0  0  0
 16 21  1  0  0  0
 16 31  1  0  0  0
 17 18  1  0  0  0
 17102  1  0  0  0
 18 19  2  0  0  0
 18103  1  0  0  0
 19 20  1  0  0  0
 19 24  1  0  0  0
 20 21  2  0  0  0
 20104  1  0  0  0
 21 23  1  0  0  0
 22 28  1  0  0  0
 22 32  2  0  0  0
 26 27  1  0  0  0
 28105  1  0  0  0
 28106  1  0  0  0
 29107  1  0  0  0
 29108  1  0  0  0
 33 34  1  0  0  0
 33 66  1  0  0  0
 33 70  2  0  0  0
 34 36  1  0  0  0
 34 59  1  0  0  0
 34109  1  0  0  0
 35 44  2  0  0  0
 35 45  1  0  0  0
 35 68  1  0  0  0
 36 56  1  0  0  0
 36110  1  0  0  0
 37 39  1  0  0  0
 37 47  1  0  0  0
 37 66  1  0  0  0
 37111  1  0  0  0
 38 43  2  0  0  0
 38 46  1  0  0  0
 38 47  1  0  0  0
 39 64  1  0  0  0
 39 67  2  0  0  0
 40 52  1  0  0  0
 40 53  2  0  0  0
 40 58  1  0  0  0
 41112  1  0  0  0
 41113  1  0  0  0
 41114  1  0  0  0
 41 48  1  0  0  0
 42 43  1  0  0  0
 42 66  1  0  0  0
 42115  1  0  0  0
 42116  1  0  0  0
 43 44  1  0  0  0
 44117  1  0  0  0
 45 46  2  0  0  0
 45118  1  0  0  0
 46119  1  0  0  0
 47120  1  0  0  0
 47121  1  0  0  0
 48 56  1  0  0  0
 48 65  1  0  0  0
 48122  1  0  0  0
 49 50  1  0  0  0
 49 53  1  0  0  0
 49 64  1  0  0  0
 49123  1  0  0  0
 50 51  1  0  0  0
 50124  1  0  0  0
 50125  1  0  0  0
 51 52  1  0  0  0
 51126  1  0  0  0
 51127  1  0  0  0
 52128  1  0  0  0
 52129  1  0  0  0
 53 54  1  0  0  0
 54 55  2  0  0  0
 54130  1  0  0  0
 55 57  1  0  0  0
 55131  1  0  0  0
 56 69  2  0  0  0
 57 58  2  0  0  0
 57132  1  0  0  0
 58133  1  0  0  0
 59 60  1  0  0  0
 59 61  1  0  0  0
 59 62  1  0  0  0
 60134  1  0  0  0
 60135  1  0  0  0
 60136  1  0  0  0
 61137  1  0  0  0
 61138  1  0  0  0
 61139  1  0  0  0
 62140  1  0  0  0
 62141  1  0  0  0
 62142  1  0  0  0
 63 65  1  0  0  0
 63143  1  0  0  0
 63144  1  0  0  0
 63145  1  0  0  0
 64146  1  0  0  0
 65147  1  0  0  0
 68 83  1  0  0  0
 71 73  2  0  0  0
 71 76  1  0  0  0
 71148  1  0  0  0
 72 75  1  0  0  0
 72 76  2  0  0  0
 72149  1  0  0  0
 73 74  1  0  0  0
 73 78  1  0  0  0
 74 75  2  0  0  0
 74 82  1  0  0  0
 75 84  1  0  0  0
 76 86  1  0  0  0
 77 79  1  0  0  0
 77 84  1  0  0  0
 77 87  2  0  0  0
 78 85  1  0  0  0
 78 88  2  0  0  0
 79 81  1  0  0  0
 79150  1  0  0  0
 79151  1  0  0  0
 80 81  1  0  0  0
 80 84  1  0  0  0
 80152  1  0  0  0
 80153  1  0  0  0
 81 83  1  0  0  0
 81154  1  0  0  0
 82155  1  0  0  0
 82156  1  0  0  0
 82157  1  0  0  0
 83158  1  0  0  0
 83159  1  0  0  0
 85160  1  0  0  0
 85161  1  0  0  0
 86162  1  0  0  0
M  ISO  4   1 100  68 101  83 101  86 100
M  END
> <chiral flag>
0

> <version>
0

> <s_m_source_file>
/data/baiqing/PycharmProjects/Reinvent-master-3.2/result/LINK_invent/BTK/process_docking_weight1_custom_product_contain_oxygen_bond_distance_aromatic_linkinvent_7_9_3/rearranged_h_0065.sdf

> <i_m_source_file_index>
78

> <r_mmod_Potential_Energy-OPLS-2005>
410.488250732422

> <r_mmod_Stretch_Energy-OPLS-2005>
165.938354492188

> <r_mmod_Bend_Energy-OPLS-2005>
325.922424316406

> <r_mmod_Torsional_Energy-OPLS-2005>
410.464141845703

> <r_mmod_Improper_Torsional_Energy-OPLS-2005>
15.4161138534546

> <r_mmod_Van_der_Waal_Energy-OPLS-2005>
143.464553833008

> <r_mmod_Electrostatic_Energy-OPLS-2005>
-527.015014648438

> <r_mmod_Solvation_Energy-OPLS-2005>
-237.013122558594

> <b_mmod_Minimization_Converged-OPLS-2005>
0

> <r_mmod_RMS_Derivative-OPLS-2005>
1.13370764255524

$$$$
78
                    3D
 Structure written by MMmdl.
163172  0  0  1  0            999 V2000
  -30.6694  -14.5220   20.5844 C   0  0  0  0  0  0
  -30.4223  -12.3394   19.4392 C   0  0  0  0  0  0
  -29.5062  -12.5303   18.2117 C   0  0  0  0  0  0
  -28.0299  -12.3712   18.6214 C   0  0  0  0  0  0
  -27.6599  -13.2151   19.8726 C   0  0  2  0  0  0
  -28.6933  -13.0053   21.0031 C   0  0  0  0  0  0
  -25.2546  -13.8137   20.5630 C   0  0  0  0  0  0
  -24.1804  -13.0426   20.9165 C   0  0  0  0  0  0
  -24.6350  -11.6888   20.8676 C   0  0  0  0  0  0
  -23.8986  -10.4296   21.0408 C   0  0  0  0  0  0
  -24.3572   -9.4213   21.9176 C   0  0  0  0  0  0
  -23.6254   -8.2237   22.0755 C   0  0  0  0  0  0
  -22.4235   -8.0270   21.3546 C   0  0  0  0  0  0
  -21.9855   -9.0241   20.4663 C   0  0  0  0  0  0
  -22.7174  -10.2123   20.3049 C   0  0  0  0  0  0
  -21.6844   -6.0698   22.5274 C   0  0  0  0  0  0
  -21.4023   -6.5608   23.8198 C   0  0  0  0  0  0
  -21.3659   -5.6755   24.9181 C   0  0  0  0  0  0
  -21.6053   -4.3023   24.7238 C   0  0  0  0  0  0
  -21.8809   -3.8116   23.4352 C   0  0  0  0  0  0
  -21.9184   -4.6923   22.3413 C   0  0  0  0  0  0
  -22.7846  -13.5237   21.1872 C   0  0  0  0  0  0
  -22.1665   -4.2107   21.0996 F   0  0  0  0  0  0
  -21.5643   -3.4516   25.7748 F   0  0  0  0  0  0
  -30.0184  -13.3284   20.4530 N   0  0  0  0  0  0
  -26.2986  -12.9332   20.3241 N   0  0  0  0  0  0
  -25.9264  -11.6483   20.5627 N   0  0  0  0  0  0
  -22.0426  -12.8287   22.0438 N   0  0  0  0  0  0
  -25.4289  -15.1855   20.4126 N   0  0  0  0  0  0
  -31.8049  -14.6881   20.1279 O   0  0  0  0  0  0
  -21.6644   -6.8851   21.4215 O   0  0  0  0  0  0
  -22.3514  -14.5527   20.6703 O   0  0  0  0  0  0
  -24.6169  -31.8576   23.1979 C   0  0  0  0  0  0
  -25.9015  -32.4775   23.8298 C   0  0  1  0  0  0
  -27.2755  -27.3920   20.1108 C   0  0  0  0  0  0
  -25.5830  -33.8586   24.2246 N   0  0  0  0  0  0
  -23.4139  -30.4682   21.5401 C   0  0  2  0  0  0
  -24.8704  -28.9185   20.1123 C   0  0  0  0  0  0
  -22.7421  -29.4599   22.4991 C   0  0  0  0  0  0
  -18.0278  -28.1376   22.8513 C   0  0  0  0  0  0
  -24.1458  -36.7301   23.2635 C   0  0  0  0  0  0
  -25.9422  -30.8035   21.3657 C   0  0  0  0  0  0
  -26.0230  -29.4325   20.7167 C   0  0  0  0  0  0
  -27.2181  -28.6746   20.7146 C   0  0  0  0  0  0
  -26.1053  -26.8961   19.4947 C   0  0  0  0  0  0
  -24.9095  -27.6502   19.4995 C   0  0  0  0  0  0
  -23.6244  -29.7783   20.1613 C   0  0  0  0  0  0
  -25.4071  -36.3106   24.0346 C   0  0  1  0  0  0
  -20.5867  -28.3684   23.1309 C   0  0  2  0  0  0
  -20.6762  -26.9429   22.5411 C   0  0  0  0  0  0
  -19.5708  -26.6397   21.5222 C   0  0  0  0  0  0
  -18.1909  -26.7914   22.1664 C   0  0  0  0  0  0
  -19.1532  -28.8844   23.2896 C   0  0  0  0  0  0
  -18.9450  -30.1457   23.8904 C   0  0  0  0  0  0
  -17.6448  -30.6604   24.0570 C   0  0  0  0  0  0
  -25.9019  -34.9469   23.5112 C   0  0  0  0  0  0
  -16.5346  -29.9116   23.6327 C   0  0  0  0  0  0
  -16.7266  -28.6524   23.0359 C   0  0  0  0  0  0
  -26.4398  -31.6602   25.0697 C   0  0  0  0  0  0
  -25.3649  -31.3802   26.1469 C   0  0  0  0  0  0
  -27.0204  -30.3001   24.6183 C   0  0  0  0  0  0
  -27.5954  -32.4361   25.7450 C   0  0  0  0  0  0
  -27.5595  -37.1760   24.8439 C   0  0  0  0  0  0
  -21.4152  -29.3017   22.3730 N   0  0  0  0  0  0
  -26.4255  -37.3807   23.9459 N   0  0  0  0  0  0
  -24.6757  -31.0585   22.0942 N   0  0  0  0  0  0
  -23.4144  -28.8204   23.3130 O   0  0  0  0  0  0
  -28.4707  -26.6870   20.1985 O   0  0  0  0  0  0
  -26.5635  -34.8954   22.4720 O   0  0  0  0  0  0
  -23.5334  -32.1378   23.7308 O   0  0  0  0  0  0
  -31.0857  -19.6927   21.1702 C   0  0  0  0  0  0
  -31.6033  -17.3241   21.5811 C   0  0  0  0  0  0
  -29.3969  -17.9750   20.7942 C   0  0  0  0  0  0
  -28.5105  -23.8217   21.4678 C   0  0  0  0  0  0
  -31.9994  -18.6817   21.5576 C   0  0  0  0  0  0
  -29.7742  -19.3538   20.7668 C   0  0  0  0  0  0
  -28.7891  -24.1345   20.1013 C   0  0  0  0  0  0
  -30.3118  -16.9422   21.1622 C   0  0  0  0  0  0
  -28.5606  -22.4574   21.6281 C   0  0  0  0  0  0
  -29.0439  -22.9056   19.5227 C   0  0  0  0  0  0
  -33.6795  -19.5914   23.2414 C   0  0  0  0  0  0
  -33.4496  -19.0327   21.8342 C   0  0  0  0  0  0
  -28.8261  -20.3873   20.0977 C   0  0  0  0  0  0
  -28.7855  -25.5179   19.4020 C   0  0  0  0  0  0
  -28.8680  -21.8448   20.4245 N   0  0  0  0  0  0
  -29.9352  -15.5512   21.0845 N   0  0  0  0  0  0
  -28.3105  -21.7120   22.7408 O   0  0  0  0  0  0
  -29.3783  -22.6413   18.2252 O   0  0  0  0  0  0
  -31.4746  -12.4394   19.1618 H   0  0  0  0  0  0
  -30.3069  -11.3285   19.8383 H   0  0  0  0  0  0
  -29.7754  -11.8014   17.4438 H   0  0  0  0  0  0
  -29.6700  -13.5163   17.7713 H   0  0  0  0  0  0
  -27.8636  -11.3183   18.8325 H   0  0  0  0  0  0
  -27.3722  -12.6332   17.7885 H   0  0  0  0  0  0
  -27.7036  -14.2613   19.5717 H   0  0  0  0  0  0
  -28.6778  -11.9686   21.3423 H   0  0  0  0  0  0
  -28.4334  -13.5986   21.8834 H   0  0  0  0  0  0
  -25.2723   -9.5714   22.4740 H   0  0  0  0  0  0
  -23.9988   -7.4630   22.7460 H   0  0  0  0  0  0
  -21.0795   -8.8739   19.8985 H   0  0  0  0  0  0
  -22.3617  -10.9651   19.6151 H   0  0  0  0  0  0
  -21.2034   -7.6126   23.9693 H   0  0  0  0  0  0
  -21.1489   -6.0515   25.9069 H   0  0  0  0  0  0
  -22.0595   -2.7577   23.2872 H   0  0  0  0  0  0
  -22.4008  -11.9964   22.4886 H   0  0  0  0  0  0
  -21.1034  -13.1363   22.2571 H   0  0  0  0  0  0
  -24.6621  -15.8405   20.5269 H   0  0  0  0  0  0
  -26.2769  -15.6245   20.0769 H   0  0  0  0  0  0
  -26.7108  -32.5456   23.1065 H   0  0  0  0  0  0
  -24.9910  -33.9709   25.0350 H   0  0  0  0  0  0
  -22.7119  -31.2884   21.3822 H   0  0  0  0  0  0
  -23.3764  -35.9582   23.3208 H   0  0  0  0  0  0
  -24.3574  -36.9016   22.2069 H   0  0  0  0  0  0
  -23.7128  -37.6448   23.6698 H   0  0  0  0  0  0
  -26.0606  -31.5635   20.5930 H   0  0  0  0  0  0
  -26.8284  -30.8564   21.9859 H   0  0  0  0  0  0
  -28.1103  -29.0594   21.1904 H   0  0  0  0  0  0
  -26.0961  -25.9184   19.0354 H   0  0  0  0  0  0
  -24.0285  -27.2356   19.0320 H   0  0  0  0  0  0
  -23.7221  -30.5355   19.3831 H   0  0  0  0  0  0
  -22.7566  -29.1753   19.8857 H   0  0  0  0  0  0
  -25.1225  -36.1954   25.0834 H   0  0  0  0  0  0
  -20.9941  -28.3234   24.1418 H   0  0  0  0  0  0
  -20.5694  -26.2281   23.3593 H   0  0  0  0  0  0
  -21.6631  -26.7489   22.1170 H   0  0  0  0  0  0
  -19.6880  -25.6300   21.1250 H   0  0  0  0  0  0
  -19.6627  -27.3221   20.6743 H   0  0  0  0  0  0
  -17.4171  -26.6669   21.4084 H   0  0  0  0  0  0
  -18.0348  -26.0056   22.9073 H   0  0  0  0  0  0
  -19.7937  -30.7287   24.2270 H   0  0  0  0  0  0
  -17.5018  -31.6277   24.5182 H   0  0  0  0  0  0
  -15.5362  -30.3023   23.7616 H   0  0  0  0  0  0
  -15.8661  -28.0848   22.7037 H   0  0  0  0  0  0
  -24.5752  -30.7221   25.7836 H   0  0  0  0  0  0
  -24.8912  -32.3006   26.4892 H   0  0  0  0  0  0
  -25.7973  -30.8967   27.0244 H   0  0  0  0  0  0
  -26.2778  -29.6822   24.1130 H   0  0  0  0  0  0
  -27.3767  -29.7203   25.4710 H   0  0  0  0  0  0
  -27.8696  -30.4239   23.9468 H   0  0  0  0  0  0
  -27.2523  -33.3659   26.2000 H   0  0  0  0  0  0
  -28.3727  -32.6956   25.0256 H   0  0  0  0  0  0
  -28.0647  -31.8524   26.5382 H   0  0  0  0  0  0
  -28.2518  -38.0158   24.7677 H   0  0  0  0  0  0
  -28.1190  -36.2717   24.5997 H   0  0  0  0  0  0
  -27.2370  -37.1099   25.8846 H   0  0  0  0  0  0
  -20.9368  -29.8645   21.6849 H   0  0  0  0  0  0
  -26.0150  -38.2869   24.1554 H   0  0  0  0  0  0
  -31.4200  -20.7226   21.1263 H   0  0  0  0  0  0
  -32.3192  -16.5727   21.8830 H   0  0  0  0  0  0
  -28.4101  -17.6983   20.4539 H   0  0  0  0  0  0
  -28.2623  -24.5269   22.2484 H   0  0  0  0  0  0
  -34.7275  -19.8571   23.3619 H   0  0  0  0  0  0
  -33.4315  -18.8529   24.0038 H   0  0  0  0  0  0
  -33.0922  -20.4879   23.4334 H   0  0  0  0  0  0
  -33.7864  -19.7451   21.0779 H   0  0  0  0  0  0
  -34.0664  -18.1427   21.6940 H   0  0  0  0  0  0
  -27.7949  -20.0608   20.2501 H   0  0  0  0  0  0
  -29.0065  -20.2799   19.0274 H   0  0  0  0  0  0
  -28.2132  -25.4721   18.4774 H   0  0  0  0  0  0
  -29.8132  -25.6744   19.0728 H   0  0  0  0  0  0
  -28.9726  -15.3343   21.2873 H   0  0  0  0  0  0
  -28.2030  -22.3093   23.4733 H   0  0  0  0  0  0
  -29.8304  -23.3992   17.8670 H   0  0  0  0  0  0
  1 25  1  0  0  0
  1 30  2  0  0  0
  1 86  1  0  0  0
  2  3  1  0  0  0
  2 25  1  0  0  0
  2 89  1  0  0  0
  2 90  1  0  0  0
  3  4  1  0  0  0
  3 91  1  0  0  0
  3 92  1  0  0  0
  4  5  1  0  0  0
  4 93  1  0  0  0
  4 94  1  0  0  0
  5  6  1  0  0  0
  5 26  1  0  0  0
  5 95  1  0  0  0
  6 25  1  0  0  0
  6 96  1  0  0  0
  6 97  1  0  0  0
  7  8  2  0  0  0
  7 26  1  0  0  0
  7 29  1  0  0  0
  8  9  1  0  0  0
  8 22  1  0  0  0
  9 10  1  0  0  0
  9 27  2  0  0  0
 10 11  2  0  0  0
 10 15  1  0  0  0
 11 12  1  0  0  0
 11 98  1  0  0  0
 12 13  2  0  0  0
 12 99  1  0  0  0
 13 14  1  0  0  0
 13 31  1  0  0  0
 14 15  2  0  0  0
 14100  1  0  0  0
 15101  1  0  0  0
 16 17  2  0  0  0
 16 21  1  0  0  0
 16 31  1  0  0  0
 17 18  1  0  0  0
 17102  1  0  0  0
 18 19  2  0  0  0
 18103  1  0  0  0
 19 20  1  0  0  0
 19 24  1  0  0  0
 20 21  2  0  0  0
 20104  1  0  0  0
 21 23  1  0  0  0
 22 28  1  0  0  0
 22 32  2  0  0  0
 26 27  1  0  0  0
 28105  1  0  0  0
 28106  1  0  0  0
 29107  1  0  0  0
 29108  1  0  0  0
 33 34  1  0  0  0
 33 66  1  0  0  0
 33 70  2  0  0  0
 34 36  1  0  0  0
 34 59  1  0  0  0
 34109  1  0  0  0
 35 44  2  0  0  0
 35 45  1  0  0  0
 35 68  1  0  0  0
 36 56  1  0  0  0
 36110  1  0  0  0
 37 39  1  0  0  0
 37 47  1  0  0  0
 37 66  1  0  0  0
 37111  1  0  0  0
 38 43  2  0  0  0
 38 46  1  0  0  0
 38 47  1  0  0  0
 39 64  1  0  0  0
 39 67  2  0  0  0
 40 52  1  0  0  0
 40 53  2  0  0  0
 40 58  1  0  0  0
 41112  1  0  0  0
 41113  1  0  0  0
 41114  1  0  0  0
 41 48  1  0  0  0
 42 43  1  0  0  0
 42 66  1  0  0  0
 42115  1  0  0  0
 42116  1  0  0  0
 43 44  1  0  0  0
 44117  1  0  0  0
 45 46  2  0  0  0
 45118  1  0  0  0
 46119  1  0  0  0
 47120  1  0  0  0
 47121  1  0  0  0
 48 56  1  0  0  0
 48 65  1  0  0  0
 48122  1  0  0  0
 49 50  1  0  0  0
 49 53  1  0  0  0
 49 64  1  0  0  0
 49123  1  0  0  0
 50 51  1  0  0  0
 50124  1  0  0  0
 50125  1  0  0  0
 51 52  1  0  0  0
 51126  1  0  0  0
 51127  1  0  0  0
 52128  1  0  0  0
 52129  1  0  0  0
 53 54  1  0  0  0
 54 55  2  0  0  0
 54130  1  0  0  0
 55 57  1  0  0  0
 55131  1  0  0  0
 56 69  2  0  0  0
 57 58  2  0  0  0
 57132  1  0  0  0
 58133  1  0  0  0
 59 60  1  0  0  0
 59 61  1  0  0  0
 59 62  1  0  0  0
 60134  1  0  0  0
 60135  1  0  0  0
 60136  1  0  0  0
 61137  1  0  0  0
 61138  1  0  0  0
 61139  1  0  0  0
 62140  1  0  0  0
 62141  1  0  0  0
 62142  1  0  0  0
 63 65  1  0  0  0
 63143  1  0  0  0
 63144  1  0  0  0
 63145  1  0  0  0
 64146  1  0  0  0
 65147  1  0  0  0
 68 84  1  0  0  0
 71 75  2  0  0  0
 71 76  1  0  0  0
 71148  1  0  0  0
 72 75  1  0  0  0
 72 78  2  0  0  0
 72149  1  0  0  0
 73 76  2  0  0  0
 73 78  1  0  0  0
 73150  1  0  0  0
 74 77  1  0  0  0
 74 79  2  0  0  0
 74151  1  0  0  0
 75 82  1  0  0  0
 76 83  1  0  0  0
 77 80  2  0  0  0
 77 84  1  0  0  0
 78 86  1  0  0  0
 79 85  1  0  0  0
 79 87  1  0  0  0
 80 85  1  0  0  0
 80 88  1  0  0  0
 81 82  1  0  0  0
 81152  1  0  0  0
 81153  1  0  0  0
 81154  1  0  0  0
 82155  1  0  0  0
 82156  1  0  0  0
 83 85  1  0  0  0
 83157  1  0  0  0
 83158  1  0  0  0
 84159  1  0  0  0
 84160  1  0  0  0
 86161  1  0  0  0
 87162  1  0  0  0
 88163  1  0  0  0
M  ISO  4   1 100  68 101  84 101  86 100
M  END
> <chiral flag>
0

> <version>
0

> <s_m_source_file>
/data/baiqing/PycharmProjects/Reinvent-master-3.2/result/LINK_invent/BTK/process_docking_weight1_custom_product_contain_oxygen_bond_distance_aromatic_linkinvent_7_9_3/rearranged_h_0065.sdf

> <i_m_source_file_index>
79

> <r_mmod_Potential_Energy-OPLS-2005>
-10.5136022567749

> <r_mmod_Stretch_Energy-OPLS-2005>
54.0789222717285

> <r_mmod_Bend_Energy-OPLS-2005>
135.978485107422

> <r_mmod_Torsional_Energy-OPLS-2005>
240.282531738281

> <r_mmod_Improper_Torsional_Energy-OPLS-2005>
6.56747531890869

> <r_mmod_Van_der_Waal_Energy-OPLS-2005>
135.939544677734

> <r_mmod_Electrostatic_Energy-OPLS-2005>
-372.379699707031

> <r_mmod_Solvation_Energy-OPLS-2005>
-234.110794067383

> <b_mmod_Minimization_Converged-OPLS-2005>
0

> <r_mmod_RMS_Derivative-OPLS-2005>
7.69049501419067

$$$$
79
                    3D
 Structure written by MMmdl.
161170  0  0  1  0            999 V2000
  -30.6354  -14.7565   20.4398 C   0  0  0  0  0  0
  -30.4281  -12.4586   19.4847 C   0  0  0  0  0  0
  -29.5153  -12.5124   18.2411 C   0  0  0  0  0  0
  -28.0393  -12.3409   18.6487 C   0  0  0  0  0  0
  -27.6428  -13.2415   19.8491 C   0  0  2  0  0  0
  -28.6874  -13.1923   20.9861 C   0  0  0  0  0  0
  -25.2509  -13.8231   20.5699 C   0  0  0  0  0  0
  -24.1802  -13.0469   20.9209 C   0  0  0  0  0  0
  -24.6406  -11.6947   20.8757 C   0  0  0  0  0  0
  -23.9084  -10.4312   21.0413 C   0  0  0  0  0  0
  -24.3625   -9.4219   21.9198 C   0  0  0  0  0  0
  -23.6295   -8.2253   22.0766 C   0  0  0  0  0  0
  -22.4266   -8.0298   21.3565 C   0  0  0  0  0  0
  -21.9913   -9.0270   20.4664 C   0  0  0  0  0  0
  -22.7256  -10.2149   20.3072 C   0  0  0  0  0  0
  -21.6856   -6.0739   22.5281 C   0  0  0  0  0  0
  -21.4017   -6.5635   23.8211 C   0  0  0  0  0  0
  -21.3660   -5.6789   24.9171 C   0  0  0  0  0  0
  -21.6033   -4.3046   24.7219 C   0  0  0  0  0  0
  -21.8817   -3.8149   23.4338 C   0  0  0  0  0  0
  -21.9188   -4.6973   22.3403 C   0  0  0  0  0  0
  -22.7811  -13.5243   21.1848 C   0  0  0  0  0  0
  -22.1656   -4.2160   21.0980 F   0  0  0  0  0  0
  -21.5631   -3.4531   25.7730 F   0  0  0  0  0  0
  -29.9885  -13.5379   20.4027 N   0  0  0  0  0  0
  -26.2939  -12.9461   20.3268 N   0  0  0  0  0  0
  -25.9335  -11.6589   20.5740 N   0  0  0  0  0  0
  -22.0441  -12.8249   22.0403 N   0  0  0  0  0  0
  -25.4192  -15.1956   20.4141 N   0  0  0  0  0  0
  -31.8345  -14.7932   20.1540 O   0  0  0  0  0  0
  -21.6633   -6.8891   21.4245 O   0  0  0  0  0  0
  -22.3501  -14.5535   20.6669 O   0  0  0  0  0  0
  -24.6336  -31.8544   23.1994 C   0  0  0  0  0  0
  -25.9155  -32.4745   23.8328 C   0  0  1  0  0  0
  -27.2019  -27.2328   20.1350 C   0  0  0  0  0  0
  -25.5939  -33.8549   24.2254 N   0  0  0  0  0  0
  -23.4296  -30.4827   21.5427 C   0  0  2  0  0  0
  -24.8767  -28.9387   20.1028 C   0  0  0  0  0  0
  -22.7506  -29.4603   22.4870 C   0  0  0  0  0  0
  -18.0295  -28.1382   22.8474 C   0  0  0  0  0  0
  -24.1498  -36.7287   23.2638 C   0  0  0  0  0  0
  -25.9805  -30.7578   21.3880 C   0  0  0  0  0  0
  -26.0492  -29.3807   20.7286 C   0  0  0  0  0  0
  -27.2125  -28.5380   20.7431 C   0  0  0  0  0  0
  -26.0150  -26.8946   19.4384 C   0  0  0  0  0  0
  -24.8686  -27.7051   19.4438 C   0  0  0  0  0  0
  -23.6491  -29.8279   20.1551 C   0  0  0  0  0  0
  -25.4121  -36.3065   24.0321 C   0  0  1  0  0  0
  -20.5904  -28.3701   23.1250 C   0  0  2  0  0  0
  -20.6789  -26.9411   22.5404 C   0  0  0  0  0  0
  -19.5759  -26.6377   21.5207 C   0  0  0  0  0  0
  -18.1938  -26.7926   22.1618 C   0  0  0  0  0  0
  -19.1552  -28.8854   23.2864 C   0  0  0  0  0  0
  -18.9476  -30.1453   23.8880 C   0  0  0  0  0  0
  -17.6474  -30.6585   24.0557 C   0  0  0  0  0  0
  -25.9056  -34.9432   23.5087 C   0  0  0  0  0  0
  -16.5363  -29.9080   23.6334 C   0  0  0  0  0  0
  -16.7282  -28.6506   23.0345 C   0  0  0  0  0  0
  -26.4518  -31.6564   25.0713 C   0  0  0  0  0  0
  -25.3741  -31.3719   26.1431 C   0  0  0  0  0  0
  -27.0356  -30.2970   24.6213 C   0  0  0  0  0  0
  -27.6049  -32.4312   25.7501 C   0  0  0  0  0  0
  -27.5580  -37.1801   24.8459 C   0  0  0  0  0  0
  -21.4208  -29.3048   22.3624 N   0  0  0  0  0  0
  -26.4293  -37.3766   23.9403 N   0  0  0  0  0  0
  -24.6998  -31.0499   22.0982 N   0  0  0  0  0  0
  -23.4207  -28.8111   23.2949 O   0  0  0  0  0  0
  -28.2457  -26.2692   20.2515 O   0  0  0  0  0  0
  -26.5632  -34.8911   22.4662 O   0  0  0  0  0  0
  -23.5481  -32.1365   23.7285 O   0  0  0  0  0  0
  -30.8435  -19.9437   19.1124 C   0  0  0  0  0  0
  -31.1392  -17.5208   19.1232 C   0  0  0  0  0  0
  -28.9513  -23.1260   21.7642 C   0  0  0  0  0  0
  -29.5562  -18.5639   20.6499 C   0  0  0  0  0  0
  -31.4778  -18.7917   18.6101 C   0  0  0  0  0  0
  -28.6200  -23.4995   20.4203 C   0  0  0  0  0  0
  -29.8676  -19.8948   20.1255 C   0  0  0  0  0  0
  -30.1969  -17.3359   20.1656 C   0  0  0  0  0  0
  -29.3701  -21.8088   21.8015 C   0  0  0  0  0  0
  -28.8812  -22.3086   19.7236 C   0  0  0  0  0  0
  -32.3488  -19.8270   16.5473 C   0  0  0  0  0  0
  -32.4893  -18.9312   17.5414 C   0  0  0  0  0  0
  -33.7338  -18.0675   17.6438 C   0  0  0  0  0  0
  -27.9041  -24.8362   19.8996 C   0  0  0  0  0  0
  -29.3538  -21.2319   20.5362 N   0  0  0  0  0  0
  -29.9029  -15.9344   20.6194 N   0  0  0  0  0  0
  -29.7863  -21.0872   22.8793 O   0  0  0  0  0  0
  -28.7055  -22.0834   18.3903 O   0  0  0  0  0  0
  -31.4720  -12.5628   19.1846 H   0  0  0  0  0  0
  -30.3588  -11.4872   19.9760 H   0  0  0  0  0  0
  -29.8018  -11.7399   17.5264 H   0  0  0  0  0  0
  -29.6494  -13.4667   17.7284 H   0  0  0  0  0  0
  -27.8875  -11.2937   18.9113 H   0  0  0  0  0  0
  -27.3881  -12.5399   17.7977 H   0  0  0  0  0  0
  -27.6350  -14.2618   19.4626 H   0  0  0  0  0  0
  -28.7239  -12.2028   21.4423 H   0  0  0  0  0  0
  -28.4263  -13.8900   21.7838 H   0  0  0  0  0  0
  -25.2783   -9.5666   22.4768 H   0  0  0  0  0  0
  -24.0003   -7.4624   22.7475 H   0  0  0  0  0  0
  -21.0849   -8.8794   19.8956 H   0  0  0  0  0  0
  -22.3740  -10.9675   19.6162 H   0  0  0  0  0  0
  -21.2015   -7.6146   23.9720 H   0  0  0  0  0  0
  -21.1486   -6.0517   25.9072 H   0  0  0  0  0  0
  -22.0598   -2.7608   23.2834 H   0  0  0  0  0  0
  -22.4037  -11.9931   22.4832 H   0  0  0  0  0  0
  -21.1055  -13.1286   22.2588 H   0  0  0  0  0  0
  -24.6507  -15.8486   20.5252 H   0  0  0  0  0  0
  -26.2637  -15.6341   20.0700 H   0  0  0  0  0  0
  -26.7198  -32.5394   23.1041 H   0  0  0  0  0  0
  -25.0079  -33.9680   25.0394 H   0  0  0  0  0  0
  -22.7269  -31.3065   21.4017 H   0  0  0  0  0  0
  -23.3752  -35.9626   23.3296 H   0  0  0  0  0  0
  -24.3590  -36.8920   22.2052 H   0  0  0  0  0  0
  -23.7264  -37.6490   23.6671 H   0  0  0  0  0  0
  -26.1262  -31.5149   20.6166 H   0  0  0  0  0  0
  -26.8564  -30.8046   22.0232 H   0  0  0  0  0  0
  -28.0980  -28.8611   21.2722 H   0  0  0  0  0  0
  -25.9166  -25.9700   18.8906 H   0  0  0  0  0  0
  -23.9796  -27.3687   18.9285 H   0  0  0  0  0  0
  -23.7751  -30.6098   19.4049 H   0  0  0  0  0  0
  -22.7660  -29.2657   19.8454 H   0  0  0  0  0  0
  -25.1307  -36.1904   25.0812 H   0  0  0  0  0  0
  -21.0012  -28.3299   24.1364 H   0  0  0  0  0  0
  -20.5689  -26.2305   23.3614 H   0  0  0  0  0  0
  -21.6658  -26.7426   22.1197 H   0  0  0  0  0  0
  -19.6920  -25.6284   21.1244 H   0  0  0  0  0  0
  -19.6705  -27.3185   20.6735 H   0  0  0  0  0  0
  -17.4209  -26.6662   21.4021 H   0  0  0  0  0  0
  -18.0340  -26.0073   22.9021 H   0  0  0  0  0  0
  -19.7954  -30.7276   24.2241 H   0  0  0  0  0  0
  -17.5032  -31.6270   24.5150 H   0  0  0  0  0  0
  -15.5364  -30.2977   23.7672 H   0  0  0  0  0  0
  -15.8684  -28.0824   22.7061 H   0  0  0  0  0  0
  -24.5912  -30.7065   25.7777 H   0  0  0  0  0  0
  -24.8934  -32.2886   26.4852 H   0  0  0  0  0  0
  -25.8062  -30.8904   27.0210 H   0  0  0  0  0  0
  -26.2930  -29.6711   24.1243 H   0  0  0  0  0  0
  -27.4029  -29.7245   25.4741 H   0  0  0  0  0  0
  -27.8825  -30.4230   23.9463 H   0  0  0  0  0  0
  -27.2625  -33.3616   26.2054 H   0  0  0  0  0  0
  -28.3878  -32.6866   25.0344 H   0  0  0  0  0  0
  -28.0684  -31.8443   26.5445 H   0  0  0  0  0  0
  -28.2588  -38.0107   24.7509 H   0  0  0  0  0  0
  -28.1086  -36.2635   24.6281 H   0  0  0  0  0  0
  -27.2293  -37.1446   25.8861 H   0  0  0  0  0  0
  -20.9369  -29.8793   21.6861 H   0  0  0  0  0  0
  -26.0166  -38.2837   24.1405 H   0  0  0  0  0  0
  -31.1275  -20.9090   18.7194 H   0  0  0  0  0  0
  -31.6190  -16.6672   18.6728 H   0  0  0  0  0  0
  -28.8539  -23.7644   22.6316 H   0  0  0  0  0  0
  -28.8207  -18.4920   21.4376 H   0  0  0  0  0  0
  -31.4784  -20.4635   16.4717 H   0  0  0  0  0  0
  -33.1040  -19.9422   15.7834 H   0  0  0  0  0  0
  -34.2124  -18.2092   18.6140 H   0  0  0  0  0  0
  -34.4596  -18.3242   16.8714 H   0  0  0  0  0  0
  -33.4937  -17.0112   17.5285 H   0  0  0  0  0  0
  -26.8885  -24.6486   20.2493 H   0  0  0  0  0  0
  -27.8709  -24.7741   18.8118 H   0  0  0  0  0  0
  -28.9799  -15.7892   20.9983 H   0  0  0  0  0  0
  -29.7449  -21.6564   23.6419 H   0  0  0  0  0  0
  -28.3934  -22.8865   17.9882 H   0  0  0  0  0  0
  1 25  1  0  0  0
  1 30  2  0  0  0
  1 86  1  0  0  0
  2  3  1  0  0  0
  2 25  1  0  0  0
  2 89  1  0  0  0
  2 90  1  0  0  0
  3  4  1  0  0  0
  3 91  1  0  0  0
  3 92  1  0  0  0
  4  5  1  0  0  0
  4 93  1  0  0  0
  4 94  1  0  0  0
  5  6  1  0  0  0
  5 26  1  0  0  0
  5 95  1  0  0  0
  6 25  1  0  0  0
  6 96  1  0  0  0
  6 97  1  0  0  0
  7  8  2  0  0  0
  7 26  1  0  0  0
  7 29  1  0  0  0
  8  9  1  0  0  0
  8 22  1  0  0  0
  9 10  1  0  0  0
  9 27  2  0  0  0
 10 11  2  0  0  0
 10 15  1  0  0  0
 11 12  1  0  0  0
 11 98  1  0  0  0
 12 13  2  0  0  0
 12 99  1  0  0  0
 13 14  1  0  0  0
 13 31  1  0  0  0
 14 15  2  0  0  0
 14100  1  0  0  0
 15101  1  0  0  0
 16 17  2  0  0  0
 16 21  1  0  0  0
 16 31  1  0  0  0
 17 18  1  0  0  0
 17102  1  0  0  0
 18 19  2  0  0  0
 18103  1  0  0  0
 19 20  1  0  0  0
 19 24  1  0  0  0
 20 21  2  0  0  0
 20104  1  0  0  0
 21 23  1  0  0  0
 22 28  1  0  0  0
 22 32  2  0  0  0
 26 27  1  0  0  0
 28105  1  0  0  0
 28106  1  0  0  0
 29107  1  0  0  0
 29108  1  0  0  0
 33 34  1  0  0  0
 33 66  1  0  0  0
 33 70  2  0  0  0
 34 36  1  0  0  0
 34 59  1  0  0  0
 34109  1  0  0  0
 35 44  2  0  0  0
 35 45  1  0  0  0
 35 68  1  0  0  0
 36 56  1  0  0  0
 36110  1  0  0  0
 37 39  1  0  0  0
 37 47  1  0  0  0
 37 66  1  0  0  0
 37111  1  0  0  0
 38 43  2  0  0  0
 38 46  1  0  0  0
 38 47  1  0  0  0
 39 64  1  0  0  0
 39 67  2  0  0  0
 40 52  1  0  0  0
 40 53  2  0  0  0
 40 58  1  0  0  0
 41112  1  0  0  0
 41113  1  0  0  0
 41114  1  0  0  0
 41 48  1  0  0  0
 42 43  1  0  0  0
 42 66  1  0  0  0
 42115  1  0  0  0
 42116  1  0  0  0
 43 44  1  0  0  0
 44117  1  0  0  0
 45 46  2  0  0  0
 45118  1  0  0  0
 46119  1  0  0  0
 47120  1  0  0  0
 47121  1  0  0  0
 48 56  1  0  0  0
 48 65  1  0  0  0
 48122  1  0  0  0
 49 50  1  0  0  0
 49 53  1  0  0  0
 49 64  1  0  0  0
 49123  1  0  0  0
 50 51  1  0  0  0
 50124  1  0  0  0
 50125  1  0  0  0
 51 52  1  0  0  0
 51126  1  0  0  0
 51127  1  0  0  0
 52128  1  0  0  0
 52129  1  0  0  0
 53 54  1  0  0  0
 54 55  2  0  0  0
 54130  1  0  0  0
 55 57  1  0  0  0
 55131  1  0  0  0
 56 69  2  0  0  0
 57 58  2  0  0  0
 57132  1  0  0  0
 58133  1  0  0  0
 59 60  1  0  0  0
 59 61  1  0  0  0
 59 62  1  0  0  0
 60134  1  0  0  0
 60135  1  0  0  0
 60136  1  0  0  0
 61137  1  0  0  0
 61138  1  0  0  0
 61139  1  0  0  0
 62140  1  0  0  0
 62141  1  0  0  0
 62142  1  0  0  0
 63 65  1  0  0  0
 63143  1  0  0  0
 63144  1  0  0  0
 63145  1  0  0  0
 64146  1  0  0  0
 65147  1  0  0  0
 68 84  1  0  0  0
 71 75  2  0  0  0
 71 77  1  0  0  0
 71148  1  0  0  0
 72 75  1  0  0  0
 72 78  2  0  0  0
 72149  1  0  0  0
 73 76  1  0  0  0
 73 79  2  0  0  0
 73150  1  0  0  0
 74 77  2  0  0  0
 74 78  1  0  0  0
 74151  1  0  0  0
 75 82  1  0  0  0
 76 80  2  0  0  0
 76 84  1  0  0  0
 77 85  1  0  0  0
 78 86  1  0  0  0
 79 85  1  0  0  0
 79 87  1  0  0  0
 80 85  1  0  0  0
 80 88  1  0  0  0
 81 82  2  0  0  0
 81152  1  0  0  0
 81153  1  0  0  0
 82 83  1  0  0  0
 83154  1  0  0  0
 83155  1  0  0  0
 83156  1  0  0  0
 84157  1  0  0  0
 84158  1  0  0  0
 86159  1  0  0  0
 87160  1  0  0  0
 88161  1  0  0  0
M  ISO  4   1 100  68 101  84 101  86 100
M  END
> <chiral flag>
0

> <version>
0

> <s_m_source_file>
/data/baiqing/PycharmProjects/Reinvent-master-3.2/result/LINK_invent/BTK/process_docking_weight1_custom_product_contain_oxygen_bond_distance_aromatic_linkinvent_7_9_3/rearranged_h_0065.sdf

> <i_m_source_file_index>
80

> <r_mmod_Potential_Energy-OPLS-2005>
252.869323730469

> <r_mmod_Stretch_Energy-OPLS-2005>
135.975143432617

> <r_mmod_Bend_Energy-OPLS-2005>
181.133041381836

> <r_mmod_Torsional_Energy-OPLS-2005>
250.567474365234

> <r_mmod_Improper_Torsional_Energy-OPLS-2005>
6.64298248291016

> <r_mmod_Van_der_Waal_Energy-OPLS-2005>
152.200988769531

> <r_mmod_Electrostatic_Energy-OPLS-2005>
-346.496337890625

> <r_mmod_Solvation_Energy-OPLS-2005>
-232.453216552734

> <b_mmod_Minimization_Converged-OPLS-2005>
0

> <r_mmod_RMS_Derivative-OPLS-2005>
2.13671112060547

$$$$
80
                    3D
 Structure written by MMmdl.
166174  0  0  1  0            999 V2000
  -30.5947  -14.7472   20.4499 C   0  0  0  0  0  0
  -30.4340  -12.4494   19.4787 C   0  0  0  0  0  0
  -29.5111  -12.5109   18.2398 C   0  0  0  0  0  0
  -28.0371  -12.3368   18.6530 C   0  0  0  0  0  0
  -27.6480  -13.2314   19.8592 C   0  0  2  0  0  0
  -28.6917  -13.1476   20.9959 C   0  0  0  0  0  0
  -25.2540  -13.8202   20.5710 C   0  0  0  0  0  0
  -24.1819  -13.0439   20.9196 C   0  0  0  0  0  0
  -24.6405  -11.6919   20.8744 C   0  0  0  0  0  0
  -23.9088  -10.4291   21.0407 C   0  0  0  0  0  0
  -24.3637   -9.4203   21.9188 C   0  0  0  0  0  0
  -23.6309   -8.2239   22.0761 C   0  0  0  0  0  0
  -22.4288   -8.0286   21.3550 C   0  0  0  0  0  0
  -21.9924   -9.0256   20.4646 C   0  0  0  0  0  0
  -22.7260  -10.2131   20.3054 C   0  0  0  0  0  0
  -21.6852   -6.0736   22.5274 C   0  0  0  0  0  0
  -21.4018   -6.5637   23.8209 C   0  0  0  0  0  0
  -21.3662   -5.6790   24.9171 C   0  0  0  0  0  0
  -21.6044   -4.3055   24.7221 C   0  0  0  0  0  0
  -21.8827   -3.8145   23.4344 C   0  0  0  0  0  0
  -21.9195   -4.6962   22.3398 C   0  0  0  0  0  0
  -22.7844  -13.5227   21.1848 C   0  0  0  0  0  0
  -22.1663   -4.2144   21.0978 F   0  0  0  0  0  0
  -21.5624   -3.4542   25.7738 F   0  0  0  0  0  0
  -29.9981  -13.5046   20.4268 N   0  0  0  0  0  0
  -26.2977  -12.9409   20.3331 N   0  0  0  0  0  0
  -25.9344  -11.6545   20.5773 N   0  0  0  0  0  0
  -22.0485  -12.8210   22.0399 N   0  0  0  0  0  0
  -25.4217  -15.1928   20.4154 N   0  0  0  0  0  0
  -31.7485  -14.8784   20.0321 O   0  0  0  0  0  0
  -21.6650   -6.8885   21.4240 O   0  0  0  0  0  0
  -22.3513  -14.5526   20.6693 O   0  0  0  0  0  0
  -24.6352  -31.8519   23.1963 C   0  0  0  0  0  0
  -25.9156  -32.4742   23.8317 C   0  0  1  0  0  0
  -27.2224  -27.2416   20.1038 C   0  0  0  0  0  0
  -25.5939  -33.8544   24.2254 N   0  0  0  0  0  0
  -23.4344  -30.4760   21.5423 C   0  0  2  0  0  0
  -24.8774  -28.9198   20.1099 C   0  0  0  0  0  0
  -22.7534  -29.4596   22.4895 C   0  0  0  0  0  0
  -18.0331  -28.1385   22.8458 C   0  0  0  0  0  0
  -24.1498  -36.7284   23.2642 C   0  0  0  0  0  0
  -25.9826  -30.7529   21.3837 C   0  0  0  0  0  0
  -26.0513  -29.3756   20.7207 C   0  0  0  0  0  0
  -27.2217  -28.5475   20.7098 C   0  0  0  0  0  0
  -26.0251  -26.8684   19.4533 C   0  0  0  0  0  0
  -24.8693  -27.6724   19.4700 C   0  0  0  0  0  0
  -23.6522  -29.8125   20.1591 C   0  0  0  0  0  0
  -25.4123  -36.3073   24.0338 C   0  0  1  0  0  0
  -20.5927  -28.3718   23.1258 C   0  0  2  0  0  0
  -20.6850  -26.9451   22.5336 C   0  0  0  0  0  0
  -19.5801  -26.6387   21.5153 C   0  0  0  0  0  0
  -18.1966  -26.7948   22.1526 C   0  0  0  0  0  0
  -19.1569  -28.8857   23.2874 C   0  0  0  0  0  0
  -18.9469  -30.1446   23.8928 C   0  0  0  0  0  0
  -17.6448  -30.6552   24.0575 C   0  0  0  0  0  0
  -25.9061  -34.9442   23.5103 C   0  0  0  0  0  0
  -16.5356  -29.9068   23.6289 C   0  0  0  0  0  0
  -16.7318  -28.6496   23.0299 C   0  0  0  0  0  0
  -26.4513  -31.6567   25.0721 C   0  0  0  0  0  0
  -25.3719  -31.3714   26.1434 C   0  0  0  0  0  0
  -27.0375  -30.2983   24.6231 C   0  0  0  0  0  0
  -27.6069  -32.4312   25.7487 C   0  0  0  0  0  0
  -27.5586  -37.1802   24.8466 C   0  0  0  0  0  0
  -21.4225  -29.3109   22.3671 N   0  0  0  0  0  0
  -26.4303  -37.3774   23.9407 N   0  0  0  0  0  0
  -24.7033  -31.0457   22.0959 N   0  0  0  0  0  0
  -23.4212  -28.8082   23.2965 O   0  0  0  0  0  0
  -28.3320  -26.3568   20.1802 O   0  0  0  0  0  0
  -26.5633  -34.8928   22.4673 O   0  0  0  0  0  0
  -23.5490  -32.1345   23.7251 O   0  0  0  0  0  0
  -28.8244  -19.5498   18.7634 C   0  0  0  0  0  0
  -29.6526  -18.4772   20.7864 C   0  0  0  0  0  0
  -29.1589  -17.1080   18.8424 C   0  0  0  0  0  0
  -29.2679  -19.7071   20.0949 C   0  0  0  0  0  0
  -28.7570  -18.2757   18.1542 C   0  0  0  0  0  0
  -29.6203  -17.1525   20.1761 C   0  0  0  0  0  0
  -29.3835  -21.1447   20.7001 C   0  0  0  0  0  0
  -28.2199  -18.1461   16.7423 C   0  0  0  0  0  0
  -27.3429  -22.3943   22.8378 C   0  0  0  0  0  0
  -27.3930  -24.8572   22.8200 C   0  0  0  0  0  0
  -25.9178  -23.5964   21.2134 C   0  0  0  0  0  0
  -28.3097  -24.8890   19.7876 C   0  0  0  0  0  0
  -28.4615  -23.6356   20.8325 C   0  0  1  0  0  0
  -27.2978  -23.6227   21.8994 C   0  0  0  0  0  0
  -29.8548  -15.8508   20.8559 N   0  0  0  0  0  0
  -28.6371  -22.2223   20.2335 N   0  0  0  0  0  0
  -30.1497  -21.2960   21.6525 O   0  0  0  0  0  0
  -31.4746  -12.5687   19.1744 H   0  0  0  0  0  0
  -30.3764  -11.4671   19.9502 H   0  0  0  0  0  0
  -29.7889  -11.7354   17.5238 H   0  0  0  0  0  0
  -29.6412  -13.4646   17.7254 H   0  0  0  0  0  0
  -27.8903  -11.2887   18.9139 H   0  0  0  0  0  0
  -27.3789  -12.5329   17.8052 H   0  0  0  0  0  0
  -27.6495  -14.2565   19.4887 H   0  0  0  0  0  0
  -28.7265  -12.1443   21.4208 H   0  0  0  0  0  0
  -28.4237  -13.8104   21.8202 H   0  0  0  0  0  0
  -25.2776   -9.5672   22.4772 H   0  0  0  0  0  0
  -24.0003   -7.4630   22.7486 H   0  0  0  0  0  0
  -21.0851   -8.8793   19.8959 H   0  0  0  0  0  0
  -22.3728  -10.9680   19.6169 H   0  0  0  0  0  0
  -21.2018   -7.6145   23.9713 H   0  0  0  0  0  0
  -21.1474   -6.0519   25.9071 H   0  0  0  0  0  0
  -22.0606   -2.7610   23.2845 H   0  0  0  0  0  0
  -22.4115  -11.9870   22.4782 H   0  0  0  0  0  0
  -21.1102  -13.1231   22.2606 H   0  0  0  0  0  0
  -24.6548  -15.8466   20.5309 H   0  0  0  0  0  0
  -26.2762  -15.6364   20.1021 H   0  0  0  0  0  0
  -26.7193  -32.5377   23.1022 H   0  0  0  0  0  0
  -25.0081  -33.9654   25.0397 H   0  0  0  0  0  0
  -22.7335  -31.3007   21.3967 H   0  0  0  0  0  0
  -23.3775  -35.9600   23.3300 H   0  0  0  0  0  0
  -24.3593  -36.8901   22.2050 H   0  0  0  0  0  0
  -23.7233  -37.6485   23.6666 H   0  0  0  0  0  0
  -26.1340  -31.5142   20.6172 H   0  0  0  0  0  0
  -26.8560  -30.7955   22.0227 H   0  0  0  0  0  0
  -28.1198  -28.8877   21.2049 H   0  0  0  0  0  0
  -25.9298  -25.9310   18.9312 H   0  0  0  0  0  0
  -23.9723  -27.3161   18.9828 H   0  0  0  0  0  0
  -23.7888  -30.5916   19.4084 H   0  0  0  0  0  0
  -22.7669  -29.2538   19.8498 H   0  0  0  0  0  0
  -25.1306  -36.1933   25.0833 H   0  0  0  0  0  0
  -21.0054  -28.3267   24.1368 H   0  0  0  0  0  0
  -20.5895  -26.2281   23.3502 H   0  0  0  0  0  0
  -21.6710  -26.7605   22.1041 H   0  0  0  0  0  0
  -19.6955  -25.6281   21.1222 H   0  0  0  0  0  0
  -19.6777  -27.3139   20.6633 H   0  0  0  0  0  0
  -17.4265  -26.6758   21.3882 H   0  0  0  0  0  0
  -18.0309  -26.0033   22.8837 H   0  0  0  0  0  0
  -19.7912  -30.7297   24.2325 H   0  0  0  0  0  0
  -17.5003  -31.6221   24.5177 H   0  0  0  0  0  0
  -15.5340  -30.2968   23.7540 H   0  0  0  0  0  0
  -15.8743  -28.0811   22.6948 H   0  0  0  0  0  0
  -24.5914  -30.7050   25.7750 H   0  0  0  0  0  0
  -24.8892  -32.2874   26.4844 H   0  0  0  0  0  0
  -25.8019  -30.8890   27.0219 H   0  0  0  0  0  0
  -26.2968  -29.6701   24.1274 H   0  0  0  0  0  0
  -27.4065  -29.7285   25.4768 H   0  0  0  0  0  0
  -27.8847  -30.4268   23.9495 H   0  0  0  0  0  0
  -27.2692  -33.3625   26.2051 H   0  0  0  0  0  0
  -28.3882  -32.6832   25.0304 H   0  0  0  0  0  0
  -28.0745  -31.8437   26.5399 H   0  0  0  0  0  0
  -28.2612  -38.0088   24.7526 H   0  0  0  0  0  0
  -28.1076  -36.2630   24.6298 H   0  0  0  0  0  0
  -27.2305  -37.1454   25.8866 H   0  0  0  0  0  0
  -20.9382  -29.8953   21.6991 H   0  0  0  0  0  0
  -26.0188  -38.2859   24.1388 H   0  0  0  0  0  0
  -28.5328  -20.4226   18.1950 H   0  0  0  0  0  0
  -29.9811  -18.5617   21.8145 H   0  0  0  0  0  0
  -29.0692  -16.1538   18.3402 H   0  0  0  0  0  0
  -27.3071  -17.5519   16.7425 H   0  0  0  0  0  0
  -28.9481  -17.6532   16.0977 H   0  0  0  0  0  0
  -27.9819  -19.1188   16.3085 H   0  0  0  0  0  0
  -26.6090  -22.4791   23.6408 H   0  0  0  0  0  0
  -28.3197  -22.2791   23.3071 H   0  0  0  0  0  0
  -27.1035  -21.4687   22.3153 H   0  0  0  0  0  0
  -26.6137  -24.8527   23.5815 H   0  0  0  0  0  0
  -27.2747  -25.7929   22.2854 H   0  0  0  0  0  0
  -28.3548  -24.8979   23.3318 H   0  0  0  0  0  0
  -25.1161  -23.4268   21.9331 H   0  0  0  0  0  0
  -25.8540  -22.8063   20.4641 H   0  0  0  0  0  0
  -25.6894  -24.5393   20.7229 H   0  0  0  0  0  0
  -27.4868  -24.6600   19.1180 H   0  0  0  0  0  0
  -29.1739  -24.8051   19.1280 H   0  0  0  0  0  0
  -29.3916  -23.8258   21.3702 H   0  0  0  0  0  0
  -29.1007  -15.5913   21.4749 H   0  0  0  0  0  0
  -28.0333  -22.0143   19.4513 H   0  0  0  0  0  0
  1 25  1  0  0  0
  1 30  2  0  0  0
  1 85  1  0  0  0
  2  3  1  0  0  0
  2 25  1  0  0  0
  2 88  1  0  0  0
  2 89  1  0  0  0
  3  4  1  0  0  0
  3 90  1  0  0  0
  3 91  1  0  0  0
  4  5  1  0  0  0
  4 92  1  0  0  0
  4 93  1  0  0  0
  5  6  1  0  0  0
  5 26  1  0  0  0
  5 94  1  0  0  0
  6 25  1  0  0  0
  6 95  1  0  0  0
  6 96  1  0  0  0
  7  8  2  0  0  0
  7 26  1  0  0  0
  7 29  1  0  0  0
  8  9  1  0  0  0
  8 22  1  0  0  0
  9 10  1  0  0  0
  9 27  2  0  0  0
 10 11  2  0  0  0
 10 15  1  0  0  0
 11 12  1  0  0  0
 11 97  1  0  0  0
 12 13  2  0  0  0
 12 98  1  0  0  0
 13 14  1  0  0  0
 13 31  1  0  0  0
 14 15  2  0  0  0
 14 99  1  0  0  0
 15100  1  0  0  0
 16 17  2  0  0  0
 16 21  1  0  0  0
 16 31  1  0  0  0
 17 18  1  0  0  0
 17101  1  0  0  0
 18 19  2  0  0  0
 18102  1  0  0  0
 19 20  1  0  0  0
 19 24  1  0  0  0
 20 21  2  0  0  0
 20103  1  0  0  0
 21 23  1  0  0  0
 22 28  1  0  0  0
 22 32  2  0  0  0
 26 27  1  0  0  0
 28104  1  0  0  0
 28105  1  0  0  0
 29106  1  0  0  0
 29107  1  0  0  0
 33 34  1  0  0  0
 33 66  1  0  0  0
 33 70  2  0  0  0
 34 36  1  0  0  0
 34 59  1  0  0  0
 34108  1  0  0  0
 35 44  2  0  0  0
 35 45  1  0  0  0
 35 68  1  0  0  0
 36 56  1  0  0  0
 36109  1  0  0  0
 37 39  1  0  0  0
 37 47  1  0  0  0
 37 66  1  0  0  0
 37110  1  0  0  0
 38 43  2  0  0  0
 38 46  1  0  0  0
 38 47  1  0  0  0
 39 64  1  0  0  0
 39 67  2  0  0  0
 40 52  1  0  0  0
 40 53  2  0  0  0
 40 58  1  0  0  0
 41111  1  0  0  0
 41112  1  0  0  0
 41113  1  0  0  0
 41 48  1  0  0  0
 42 43  1  0  0  0
 42 66  1  0  0  0
 42114  1  0  0  0
 42115  1  0  0  0
 43 44  1  0  0  0
 44116  1  0  0  0
 45 46  2  0  0  0
 45117  1  0  0  0
 46118  1  0  0  0
 47119  1  0  0  0
 47120  1  0  0  0
 48 56  1  0  0  0
 48 65  1  0  0  0
 48121  1  0  0  0
 49 50  1  0  0  0
 49 53  1  0  0  0
 49 64  1  0  0  0
 49122  1  0  0  0
 50 51  1  0  0  0
 50123  1  0  0  0
 50124  1  0  0  0
 51 52  1  0  0  0
 51125  1  0  0  0
 51126  1  0  0  0
 52127  1  0  0  0
 52128  1  0  0  0
 53 54  1  0  0  0
 54 55  2  0  0  0
 54129  1  0  0  0
 55 57  1  0  0  0
 55130  1  0  0  0
 56 69  2  0  0  0
 57 58  2  0  0  0
 57131  1  0  0  0
 58132  1  0  0  0
 59 60  1  0  0  0
 59 61  1  0  0  0
 59 62  1  0  0  0
 60133  1  0  0  0
 60134  1  0  0  0
 60135  1  0  0  0
 61136  1  0  0  0
 61137  1  0  0  0
 61138  1  0  0  0
 62139  1  0  0  0
 62140  1  0  0  0
 62141  1  0  0  0
 63 65  1  0  0  0
 63142  1  0  0  0
 63143  1  0  0  0
 63144  1  0  0  0
 64145  1  0  0  0
 65146  1  0  0  0
 68 82  1  0  0  0
 71 74  2  0  0  0
 71 75  1  0  0  0
 71147  1  0  0  0
 72 74  1  0  0  0
 72 76  2  0  0  0
 72148  1  0  0  0
 73 75  2  0  0  0
 73 76  1  0  0  0
 73149  1  0  0  0
 74 77  1  0  0  0
 75 78  1  0  0  0
 76 85  1  0  0  0
 77 86  1  0  0  0
 77 87  2  0  0  0
 78150  1  0  0  0
 78151  1  0  0  0
 78152  1  0  0  0
 79153  1  0  0  0
 79154  1  0  0  0
 79155  1  0  0  0
 79 84  1  0  0  0
 80 84  1  0  0  0
 80156  1  0  0  0
 80157  1  0  0  0
 80158  1  0  0  0
 81 84  1  0  0  0
 81159  1  0  0  0
 81160  1  0  0  0
 81161  1  0  0  0
 82162  1  0  0  0
 82163  1  0  0  0
 82 83  1  0  0  0
 83 84  1  0  0  0
 83 86  1  0  0  0
 83164  1  0  0  0
 85165  1  0  0  0
 86166  1  0  0  0
M  ISO  4   1 100  68 101  82 101  85 100
M  END
> <chiral flag>
0

> <version>
0

> <s_m_source_file>
/data/baiqing/PycharmProjects/Reinvent-master-3.2/result/LINK_invent/BTK/process_docking_weight1_custom_product_contain_oxygen_bond_distance_aromatic_linkinvent_7_9_3/rearranged_h_0065.sdf

> <i_m_source_file_index>
81

> <r_mmod_Potential_Energy-OPLS-2005>
142.779388427734

> <r_mmod_Stretch_Energy-OPLS-2005>
139.75227355957

> <r_mmod_Bend_Energy-OPLS-2005>
185.247970581055

> <r_mmod_Torsional_Energy-OPLS-2005>
272.060302734375

> <r_mmod_Improper_Torsional_Energy-OPLS-2005>
5.44558382034302

> <r_mmod_Van_der_Waal_Energy-OPLS-2005>
139.194869995117

> <r_mmod_Electrostatic_Energy-OPLS-2005>
-462.653076171875

> <r_mmod_Solvation_Energy-OPLS-2005>
-225.585159301758

> <b_mmod_Minimization_Converged-OPLS-2005>
0

> <r_mmod_RMS_Derivative-OPLS-2005>
2.56956577301025

$$$$
81
                    3D
 Structure written by MMmdl.
154162  0  0  1  0            999 V2000
  -30.7062  -14.4879   20.5600 C   0  0  0  0  0  0
  -30.4197  -12.3139   19.4274 C   0  0  0  0  0  0
  -29.4927  -12.5015   18.2092 C   0  0  0  0  0  0
  -28.0150  -12.3602   18.6227 C   0  0  0  0  0  0
  -27.6586  -13.2107   19.8718 C   0  0  2  0  0  0
  -28.7018  -13.0122   20.9953 C   0  0  0  0  0  0
  -25.2578  -13.8177   20.5687 C   0  0  0  0  0  0
  -24.1829  -13.0444   20.9164 C   0  0  0  0  0  0
  -24.6388  -11.6913   20.8725 C   0  0  0  0  0  0
  -23.9058  -10.4294   21.0396 C   0  0  0  0  0  0
  -24.3613   -9.4213   21.9178 C   0  0  0  0  0  0
  -23.6290   -8.2247   22.0753 C   0  0  0  0  0  0
  -22.4273   -8.0279   21.3542 C   0  0  0  0  0  0
  -21.9905   -9.0251   20.4646 C   0  0  0  0  0  0
  -22.7230  -10.2131   20.3049 C   0  0  0  0  0  0
  -21.6852   -6.0734   22.5277 C   0  0  0  0  0  0
  -21.4014   -6.5639   23.8210 C   0  0  0  0  0  0
  -21.3660   -5.6792   24.9173 C   0  0  0  0  0  0
  -21.6043   -4.3055   24.7223 C   0  0  0  0  0  0
  -21.8820   -3.8146   23.4345 C   0  0  0  0  0  0
  -21.9195   -4.6962   22.3401 C   0  0  0  0  0  0
  -22.7852  -13.5236   21.1834 C   0  0  0  0  0  0
  -22.1661   -4.2149   21.0976 F   0  0  0  0  0  0
  -21.5630   -3.4538   25.7737 F   0  0  0  0  0  0
  -30.0306  -13.3117   20.4376 N   0  0  0  0  0  0
  -26.3013  -12.9350   20.3366 N   0  0  0  0  0  0
  -25.9318  -11.6506   20.5770 N   0  0  0  0  0  0
  -22.0500  -12.8225   22.0395 N   0  0  0  0  0  0
  -25.4308  -15.1901   20.4134 N   0  0  0  0  0  0
  -31.8435  -14.6384   20.1060 O   0  0  0  0  0  0
  -21.6639   -6.8876   21.4238 O   0  0  0  0  0  0
  -22.3529  -14.5543   20.6690 O   0  0  0  0  0  0
  -24.6154  -31.8666   23.2087 C   0  0  0  0  0  0
  -25.9044  -32.4817   23.8385 C   0  0  1  0  0  0
  -27.2317  -27.4257   20.1072 C   0  0  0  0  0  0
  -25.5899  -33.8614   24.2324 N   0  0  0  0  0  0
  -23.4040  -30.4897   21.5486 C   0  0  2  0  0  0
  -24.8524  -28.9554   20.1121 C   0  0  0  0  0  0
  -22.7416  -29.4652   22.4978 C   0  0  0  0  0  0
  -18.0276  -28.1378   22.8494 C   0  0  0  0  0  0
  -24.1487  -36.7307   23.2640 C   0  0  0  0  0  0
  -25.9331  -30.8327   21.3603 C   0  0  0  0  0  0
  -26.0131  -29.4666   20.7077 C   0  0  0  0  0  0
  -27.2097  -28.7109   20.6981 C   0  0  0  0  0  0
  -26.0586  -26.9332   19.4980 C   0  0  0  0  0  0
  -24.8707  -27.6889   19.5014 C   0  0  0  0  0  0
  -23.6132  -29.8214   20.1632 C   0  0  0  0  0  0
  -25.4105  -36.3103   24.0344 C   0  0  1  0  0  0
  -20.5867  -28.3660   23.1316 C   0  0  2  0  0  0
  -20.6765  -26.9395   22.5416 C   0  0  0  0  0  0
  -19.5744  -26.6386   21.5213 C   0  0  0  0  0  0
  -18.1922  -26.7929   22.1623 C   0  0  0  0  0  0
  -19.1526  -28.8837   23.2905 C   0  0  0  0  0  0
  -18.9456  -30.1447   23.8909 C   0  0  0  0  0  0
  -17.6457  -30.6583   24.0567 C   0  0  0  0  0  0
  -25.9030  -34.9471   23.5129 C   0  0  0  0  0  0
  -16.5346  -29.9083   23.6331 C   0  0  0  0  0  0
  -16.7265  -28.6504   23.0346 C   0  0  0  0  0  0
  -26.4472  -31.6591   25.0708 C   0  0  0  0  0  0
  -25.3745  -31.3692   26.1461 C   0  0  0  0  0  0
  -27.0302  -30.3039   24.6066 C   0  0  0  0  0  0
  -27.6052  -32.4302   25.7473 C   0  0  0  0  0  0
  -27.5579  -37.1805   24.8470 C   0  0  0  0  0  0
  -21.4143  -29.3029   22.3721 N   0  0  0  0  0  0
  -26.4292  -37.3786   23.9412 N   0  0  0  0  0  0
  -24.6692  -31.0769   22.0979 N   0  0  0  0  0  0
  -23.4190  -28.8195   23.3018 O   0  0  0  0  0  0
  -28.3707  -26.6478   20.1269 O   0  0  0  0  0  0
  -26.5590  -34.8927   22.4689 O   0  0  0  0  0  0
  -23.5347  -32.1414   23.7481 O   0  0  0  0  0  0
  -31.9647  -18.7455   21.2567 C   0  0  0  0  0  0
  -30.9443  -19.6929   21.0458 C   0  0  0  0  0  0
  -31.6707  -17.3680   21.2678 C   0  0  0  0  0  0
  -29.6113  -19.2723   20.8468 C   0  0  0  0  0  0
  -30.3472  -16.9148   21.0547 C   0  0  0  0  0  0
  -29.3228  -17.8779   20.8638 C   0  0  0  0  0  0
  -28.4761  -22.8107   20.8476 C   0  0  0  0  0  0
  -28.4810  -20.2945   20.6476 C   0  0  0  0  0  0
  -28.7777  -24.1539   20.1343 C   0  0  0  0  0  0
  -28.2396  -25.4154   20.8721 C   0  0  0  0  0  0
  -29.9985  -15.5225   21.0627 N   0  0  0  0  0  0
  -28.8742  -21.6665   20.2539 N   0  0  0  0  0  0
  -27.8586  -22.8024   21.9145 O   0  0  0  0  0  0
  -28.0488  -17.4491   20.6860 F   0  0  0  0  0  0
  -31.4641  -12.4052   19.1246 H   0  0  0  0  0  0
  -30.3182  -11.3072   19.8359 H   0  0  0  0  0  0
  -29.7346  -11.7714   17.4356 H   0  0  0  0  0  0
  -29.6582  -13.4848   17.7655 H   0  0  0  0  0  0
  -27.8301  -11.3051   18.8278 H   0  0  0  0  0  0
  -27.3629  -12.6241   17.7893 H   0  0  0  0  0  0
  -27.6956  -14.2557   19.5616 H   0  0  0  0  0  0
  -28.6802  -11.9828   21.3556 H   0  0  0  0  0  0
  -28.4651  -13.6298   21.8630 H   0  0  0  0  0  0
  -25.2760   -9.5689   22.4749 H   0  0  0  0  0  0
  -24.0001   -7.4639   22.7472 H   0  0  0  0  0  0
  -21.0839   -8.8762   19.8951 H   0  0  0  0  0  0
  -22.3686  -10.9665   19.6155 H   0  0  0  0  0  0
  -21.2002   -7.6148   23.9713 H   0  0  0  0  0  0
  -21.1481   -6.0523   25.9075 H   0  0  0  0  0  0
  -22.0601   -2.7609   23.2843 H   0  0  0  0  0  0
  -22.4117  -11.9877   22.4765 H   0  0  0  0  0  0
  -21.1120  -13.1248   22.2615 H   0  0  0  0  0  0
  -24.6688  -15.8472   20.5398 H   0  0  0  0  0  0
  -26.2979  -15.6414   20.1483 H   0  0  0  0  0  0
  -26.7114  -32.5529   23.1147 H   0  0  0  0  0  0
  -25.0069  -33.9775   25.0484 H   0  0  0  0  0  0
  -22.6928  -31.3063   21.4084 H   0  0  0  0  0  0
  -23.3747  -35.9644   23.3314 H   0  0  0  0  0  0
  -24.3579  -36.8902   22.2052 H   0  0  0  0  0  0
  -23.7246  -37.6521   23.6639 H   0  0  0  0  0  0
  -26.0422  -31.5983   20.5908 H   0  0  0  0  0  0
  -26.8218  -30.8884   21.9770 H   0  0  0  0  0  0
  -28.1052  -29.0994   21.1629 H   0  0  0  0  0  0
  -26.0626  -25.9584   19.0305 H   0  0  0  0  0  0
  -23.9791  -27.2898   19.0373 H   0  0  0  0  0  0
  -23.7195  -30.5961   19.4029 H   0  0  0  0  0  0
  -22.7380  -29.2391   19.8680 H   0  0  0  0  0  0
  -25.1282  -36.1965   25.0837 H   0  0  0  0  0  0
  -20.9959  -28.3218   24.1436 H   0  0  0  0  0  0
  -20.5670  -26.2261   23.3597 H   0  0  0  0  0  0
  -21.6634  -26.7439   22.1198 H   0  0  0  0  0  0
  -19.6902  -25.6304   21.1223 H   0  0  0  0  0  0
  -19.6689  -27.3215   20.6759 H   0  0  0  0  0  0
  -17.4194  -26.6687   21.4023 H   0  0  0  0  0  0
  -18.0317  -26.0065   22.9013 H   0  0  0  0  0  0
  -19.7934  -30.7262   24.2274 H   0  0  0  0  0  0
  -17.5013  -31.6266   24.5164 H   0  0  0  0  0  0
  -15.5346  -30.2987   23.7657 H   0  0  0  0  0  0
  -15.8665  -28.0832   22.7043 H   0  0  0  0  0  0
  -24.5922  -30.7034   25.7798 H   0  0  0  0  0  0
  -24.8939  -32.2851   26.4910 H   0  0  0  0  0  0
  -25.8108  -30.8862   27.0215 H   0  0  0  0  0  0
  -26.2839  -29.6795   24.1137 H   0  0  0  0  0  0
  -27.4112  -29.7265   25.4500 H   0  0  0  0  0  0
  -27.8652  -30.4370   23.9183 H   0  0  0  0  0  0
  -27.2675  -33.3595   26.2068 H   0  0  0  0  0  0
  -28.3855  -32.6861   25.0295 H   0  0  0  0  0  0
  -28.0722  -31.8411   26.5375 H   0  0  0  0  0  0
  -28.2598  -38.0098   24.7499 H   0  0  0  0  0  0
  -28.1068  -36.2627   24.6306 H   0  0  0  0  0  0
  -27.2295  -37.1466   25.8873 H   0  0  0  0  0  0
  -20.9297  -29.8753   21.6950 H   0  0  0  0  0  0
  -26.0181  -38.2868   24.1406 H   0  0  0  0  0  0
  -32.9810  -19.0778   21.4185 H   0  0  0  0  0  0
  -31.1943  -20.7447   21.0542 H   0  0  0  0  0  0
  -32.4753  -16.6699   21.4479 H   0  0  0  0  0  0
  -27.8863  -20.3038   21.5625 H   0  0  0  0  0  0
  -27.8170  -19.9148   19.8704 H   0  0  0  0  0  0
  -28.3322  -24.1094   19.1405 H   0  0  0  0  0  0
  -29.8546  -24.2449   19.9914 H   0  0  0  0  0  0
  -28.7963  -25.5453   21.8012 H   0  0  0  0  0  0
  -27.2067  -25.2417   21.1810 H   0  0  0  0  0  0
  -29.0359  -15.3193   21.2843 H   0  0  0  0  0  0
  -29.3875  -21.7506   19.3866 H   0  0  0  0  0  0
  1 25  1  0  0  0
  1 30  2  0  0  0
  1 81  1  0  0  0
  2  3  1  0  0  0
  2 25  1  0  0  0
  2 85  1  0  0  0
  2 86  1  0  0  0
  3  4  1  0  0  0
  3 87  1  0  0  0
  3 88  1  0  0  0
  4  5  1  0  0  0
  4 89  1  0  0  0
  4 90  1  0  0  0
  5  6  1  0  0  0
  5 26  1  0  0  0
  5 91  1  0  0  0
  6 25  1  0  0  0
  6 92  1  0  0  0
  6 93  1  0  0  0
  7  8  2  0  0  0
  7 26  1  0  0  0
  7 29  1  0  0  0
  8  9  1  0  0  0
  8 22  1  0  0  0
  9 10  1  0  0  0
  9 27  2  0  0  0
 10 11  2  0  0  0
 10 15  1  0  0  0
 11 12  1  0  0  0
 11 94  1  0  0  0
 12 13  2  0  0  0
 12 95  1  0  0  0
 13 14  1  0  0  0
 13 31  1  0  0  0
 14 15  2  0  0  0
 14 96  1  0  0  0
 15 97  1  0  0  0
 16 17  2  0  0  0
 16 21  1  0  0  0
 16 31  1  0  0  0
 17 18  1  0  0  0
 17 98  1  0  0  0
 18 19  2  0  0  0
 18 99  1  0  0  0
 19 20  1  0  0  0
 19 24  1  0  0  0
 20 21  2  0  0  0
 20100  1  0  0  0
 21 23  1  0  0  0
 22 28  1  0  0  0
 22 32  2  0  0  0
 26 27  1  0  0  0
 28101  1  0  0  0
 28102  1  0  0  0
 29103  1  0  0  0
 29104  1  0  0  0
 33 34  1  0  0  0
 33 66  1  0  0  0
 33 70  2  0  0  0
 34 36  1  0  0  0
 34 59  1  0  0  0
 34105  1  0  0  0
 35 44  2  0  0  0
 35 45  1  0  0  0
 35 68  1  0  0  0
 36 56  1  0  0  0
 36106  1  0  0  0
 37 39  1  0  0  0
 37 47  1  0  0  0
 37 66  1  0  0  0
 37107  1  0  0  0
 38 43  2  0  0  0
 38 46  1  0  0  0
 38 47  1  0  0  0
 39 64  1  0  0  0
 39 67  2  0  0  0
 40 52  1  0  0  0
 40 53  2  0  0  0
 40 58  1  0  0  0
 41108  1  0  0  0
 41109  1  0  0  0
 41110  1  0  0  0
 41 48  1  0  0  0
 42 43  1  0  0  0
 42 66  1  0  0  0
 42111  1  0  0  0
 42112  1  0  0  0
 43 44  1  0  0  0
 44113  1  0  0  0
 45 46  2  0  0  0
 45114  1  0  0  0
 46115  1  0  0  0
 47116  1  0  0  0
 47117  1  0  0  0
 48 56  1  0  0  0
 48 65  1  0  0  0
 48118  1  0  0  0
 49 50  1  0  0  0
 49 53  1  0  0  0
 49 64  1  0  0  0
 49119  1  0  0  0
 50 51  1  0  0  0
 50120  1  0  0  0
 50121  1  0  0  0
 51 52  1  0  0  0
 51122  1  0  0  0
 51123  1  0  0  0
 52124  1  0  0  0
 52125  1  0  0  0
 53 54  1  0  0  0
 54 55  2  0  0  0
 54126  1  0  0  0
 55 57  1  0  0  0
 55127  1  0  0  0
 56 69  2  0  0  0
 57 58  2  0  0  0
 57128  1  0  0  0
 58129  1  0  0  0
 59 60  1  0  0  0
 59 61  1  0  0  0
 59 62  1  0  0  0
 60130  1  0  0  0
 60131  1  0  0  0
 60132  1  0  0  0
 61133  1  0  0  0
 61134  1  0  0  0
 61135  1  0  0  0
 62136  1  0  0  0
 62137  1  0  0  0
 62138  1  0  0  0
 63 65  1  0  0  0
 63139  1  0  0  0
 63140  1  0  0  0
 63141  1  0  0  0
 64142  1  0  0  0
 65143  1  0  0  0
 68 80  1  0  0  0
 71 72  2  0  0  0
 71 73  1  0  0  0
 71144  1  0  0  0
 72 74  1  0  0  0
 72145  1  0  0  0
 73 75  2  0  0  0
 73146  1  0  0  0
 74 76  2  0  0  0
 74 78  1  0  0  0
 75 76  1  0  0  0
 75 81  1  0  0  0
 76 84  1  0  0  0
 77 79  1  0  0  0
 77 82  1  0  0  0
 77 83  2  0  0  0
 78 82  1  0  0  0
 78147  1  0  0  0
 78148  1  0  0  0
 79 80  1  0  0  0
 79149  1  0  0  0
 79150  1  0  0  0
 80151  1  0  0  0
 80152  1  0  0  0
 81153  1  0  0  0
 82154  1  0  0  0
M  ISO  4   1 100  68 101  80 101  81 100
M  END
> <chiral flag>
0

> <version>
0

> <s_m_source_file>
/data/baiqing/PycharmProjects/Reinvent-master-3.2/result/LINK_invent/BTK/process_docking_weight1_custom_product_contain_oxygen_bond_distance_aromatic_linkinvent_7_9_3/rearranged_h_0065.sdf

> <i_m_source_file_index>
82

> <r_mmod_Potential_Energy-OPLS-2005>
-152.260009765625

> <r_mmod_Stretch_Energy-OPLS-2005>
41.3422317504883

> <r_mmod_Bend_Energy-OPLS-2005>
93.5896530151367

> <r_mmod_Torsional_Energy-OPLS-2005>
229.679168701172

> <r_mmod_Improper_Torsional_Energy-OPLS-2005>
4.12260484695435

> <r_mmod_Van_der_Waal_Energy-OPLS-2005>
155.417114257812

> <r_mmod_Electrostatic_Energy-OPLS-2005>
-468.451019287109

> <r_mmod_Solvation_Energy-OPLS-2005>
-223.498947143555

> <b_mmod_Minimization_Converged-OPLS-2005>
0

> <r_mmod_RMS_Derivative-OPLS-2005>
0.716017723083496

$$$$
82
                    3D
 Structure written by MMmdl.
165174  0  0  1  0            999 V2000
  -30.5772  -14.7662   20.4550 C   0  0  0  0  0  0
  -30.4203  -12.4661   19.4952 C   0  0  0  0  0  0
  -29.5154  -12.5510   18.2470 C   0  0  0  0  0  0
  -28.0355  -12.3697   18.6421 C   0  0  0  0  0  0
  -27.6356  -13.2473   19.8580 C   0  0  2  0  0  0
  -28.6699  -13.1710   21.0011 C   0  0  0  0  0  0
  -25.2409  -13.8234   20.5665 C   0  0  0  0  0  0
  -24.1734  -13.0438   20.9181 C   0  0  0  0  0  0
  -24.6372  -11.6928   20.8738 C   0  0  0  0  0  0
  -23.9055  -10.4295   21.0393 C   0  0  0  0  0  0
  -24.3613   -9.4215   21.9165 C   0  0  0  0  0  0
  -23.6290   -8.2258   22.0753 C   0  0  0  0  0  0
  -22.4278   -8.0292   21.3538 C   0  0  0  0  0  0
  -21.9901   -9.0256   20.4635 C   0  0  0  0  0  0
  -22.7236  -10.2126   20.3037 C   0  0  0  0  0  0
  -21.6849   -6.0729   22.5278 C   0  0  0  0  0  0
  -21.4016   -6.5628   23.8213 C   0  0  0  0  0  0
  -21.3668   -5.6781   24.9173 C   0  0  0  0  0  0
  -21.6058   -4.3048   24.7219 C   0  0  0  0  0  0
  -21.8810   -3.8131   23.4342 C   0  0  0  0  0  0
  -21.9185   -4.6953   22.3400 C   0  0  0  0  0  0
  -22.7751  -13.5187   21.1866 C   0  0  0  0  0  0
  -22.1648   -4.2135   21.0974 F   0  0  0  0  0  0
  -21.5636   -3.4535   25.7734 F   0  0  0  0  0  0
  -29.9754  -13.5265   20.4337 N   0  0  0  0  0  0
  -26.2869  -12.9478   20.3287 N   0  0  0  0  0  0
  -25.9296  -11.6602   20.5728 N   0  0  0  0  0  0
  -22.0406  -12.8184   22.0441 N   0  0  0  0  0  0
  -25.4039  -15.1976   20.4056 N   0  0  0  0  0  0
  -31.7659  -14.8507   20.1294 O   0  0  0  0  0  0
  -21.6644   -6.8881   21.4248 O   0  0  0  0  0  0
  -22.3432  -14.5487   20.6720 O   0  0  0  0  0  0
  -24.6286  -31.8543   23.2021 C   0  0  0  0  0  0
  -25.9118  -32.4730   23.8352 C   0  0  1  0  0  0
  -27.1978  -27.2702   20.1293 C   0  0  0  0  0  0
  -25.5930  -33.8557   24.2276 N   0  0  0  0  0  0
  -23.4210  -30.4814   21.5459 C   0  0  2  0  0  0
  -24.8626  -28.9314   20.1064 C   0  0  0  0  0  0
  -22.7475  -29.4599   22.4913 C   0  0  0  0  0  0
  -18.0294  -28.1365   22.8491 C   0  0  0  0  0  0
  -24.1502  -36.7250   23.2639 C   0  0  0  0  0  0
  -25.9691  -30.7699   21.3812 C   0  0  0  0  0  0
  -26.0319  -29.3973   20.7150 C   0  0  0  0  0  0
  -27.2028  -28.5788   20.7188 C   0  0  0  0  0  0
  -26.0018  -26.8552   19.5066 C   0  0  0  0  0  0
  -24.8493  -27.6655   19.4971 C   0  0  0  0  0  0
  -23.6398  -29.8254   20.1554 C   0  0  0  0  0  0
  -25.4116  -36.3055   24.0344 C   0  0  1  0  0  0
  -20.5886  -28.3666   23.1280 C   0  0  2  0  0  0
  -20.6784  -26.9386   22.5400 C   0  0  0  0  0  0
  -19.5759  -26.6368   21.5201 C   0  0  0  0  0  0
  -18.1932  -26.7918   22.1599 C   0  0  0  0  0  0
  -19.1544  -28.8840   23.2880 C   0  0  0  0  0  0
  -18.9481  -30.1451   23.8888 C   0  0  0  0  0  0
  -17.6477  -30.6574   24.0570 C   0  0  0  0  0  0
  -25.9037  -34.9429   23.5103 C   0  0  0  0  0  0
  -16.5366  -29.9079   23.6323 C   0  0  0  0  0  0
  -16.7272  -28.6490   23.0341 C   0  0  0  0  0  0
  -26.4506  -31.6549   25.0743 C   0  0  0  0  0  0
  -25.3724  -31.3743   26.1459 C   0  0  0  0  0  0
  -27.0322  -30.2952   24.6202 C   0  0  0  0  0  0
  -27.6034  -32.4303   25.7517 C   0  0  0  0  0  0
  -27.5585  -37.1780   24.8463 C   0  0  0  0  0  0
  -21.4182  -29.3044   22.3679 N   0  0  0  0  0  0
  -26.4292  -37.3751   23.9430 N   0  0  0  0  0  0
  -24.6924  -31.0519   22.0990 N   0  0  0  0  0  0
  -23.4202  -28.8080   23.2960 O   0  0  0  0  0  0
  -28.2990  -26.4000   20.2178 O   0  0  0  0  0  0
  -26.5603  -34.8910   22.4660 O   0  0  0  0  0  0
  -23.5445  -32.1391   23.7303 O   0  0  0  0  0  0
  -30.9474  -18.8507   18.5592 C   0  0  0  0  0  0
  -30.1082  -19.9117   18.9268 C   0  0  0  0  0  0
  -30.8471  -17.5867   19.1645 C   0  0  0  0  0  0
  -29.0574  -18.4452   20.5811 C   0  0  0  0  0  0
  -29.1346  -19.7796   19.9427 C   0  0  0  0  0  0
  -29.9056  -17.3110   20.1847 C   0  0  0  0  0  0
  -28.7057  -22.3244   20.1952 C   0  0  0  0  0  0
  -26.9183  -20.7429   20.1252 C   0  0  0  0  0  0
  -28.3393  -17.9388   22.9209 C   0  0  0  0  0  0
  -28.0566  -18.2111   21.6366 C   0  0  0  0  0  0
  -26.9250  -23.8179   21.3320 C   0  0  0  0  0  0
  -27.7664  -23.6382   20.0590 C   0  0  1  0  0  0
  -26.0018  -21.1643   21.3048 C   0  0  2  0  0  0
  -24.7804  -20.2206   21.4403 C   0  0  0  0  0  0
  -28.3736  -25.0638   19.5377 C   0  0  0  0  0  0
  -28.2531  -20.9860   20.1729 N   0  0  0  0  0  0
  -29.7948  -15.9022   20.6947 N   0  0  0  0  0  0
  -29.9133  -22.5531   20.3273 O   0  0  0  0  0  0
  -26.4115  -20.1505   19.1643 O   0  0  0  0  0  0
  -25.3830  -22.8723   21.2211 S   0  0  0  0  0  0
  -31.4659  -12.5796   19.2092 H   0  0  0  0  0  0
  -30.3440  -11.4833   19.9616 H   0  0  0  0  0  0
  -29.8103  -11.8057   17.5069 H   0  0  0  0  0  0
  -29.6509  -13.5253   17.7720 H   0  0  0  0  0  0
  -27.8778  -11.3157   18.8740 H   0  0  0  0  0  0
  -27.3936  -12.5964   17.7893 H   0  0  0  0  0  0
  -27.6297  -14.2769   19.4970 H   0  0  0  0  0  0
  -28.6961  -12.1713   21.4370 H   0  0  0  0  0  0
  -28.3951  -13.8508   21.8100 H   0  0  0  0  0  0
  -25.2764   -9.5698   22.4734 H   0  0  0  0  0  0
  -23.9998   -7.4650   22.7474 H   0  0  0  0  0  0
  -21.0840   -8.8770   19.8941 H   0  0  0  0  0  0
  -22.3703  -10.9654   19.6137 H   0  0  0  0  0  0
  -21.2013   -7.6142   23.9711 H   0  0  0  0  0  0
  -21.1501   -6.0512   25.9073 H   0  0  0  0  0  0
  -22.0582   -2.7597   23.2841 H   0  0  0  0  0  0
  -22.4006  -11.9833   22.4813 H   0  0  0  0  0  0
  -21.1013  -13.1197   22.2621 H   0  0  0  0  0  0
  -24.6189  -15.8366   20.4711 H   0  0  0  0  0  0
  -26.2492  -15.6425   20.0724 H   0  0  0  0  0  0
  -26.7161  -32.5340   23.1066 H   0  0  0  0  0  0
  -25.0211  -33.9730   25.0519 H   0  0  0  0  0  0
  -22.7169  -31.3042   21.4013 H   0  0  0  0  0  0
  -23.3795  -35.9544   23.3262 H   0  0  0  0  0  0
  -24.3631  -36.8900   22.2064 H   0  0  0  0  0  0
  -23.7231  -37.6444   23.6673 H   0  0  0  0  0  0
  -26.1213  -31.5387   20.6218 H   0  0  0  0  0  0
  -26.8449  -30.8001   22.0202 H   0  0  0  0  0  0
  -28.0992  -28.9325   21.2101 H   0  0  0  0  0  0
  -25.9240  -25.8715   19.0692 H   0  0  0  0  0  0
  -23.9429  -27.2870   19.0439 H   0  0  0  0  0  0
  -23.7859  -30.6142   19.4163 H   0  0  0  0  0  0
  -22.7521  -29.2775   19.8297 H   0  0  0  0  0  0
  -25.1303  -36.1894   25.0839 H   0  0  0  0  0  0
  -20.9966  -28.3203   24.1397 H   0  0  0  0  0  0
  -20.5669  -26.2256   23.3585 H   0  0  0  0  0  0
  -21.6643  -26.7398   22.1176 H   0  0  0  0  0  0
  -19.6917  -25.6279   21.1211 H   0  0  0  0  0  0
  -19.6709  -27.3204   20.6763 H   0  0  0  0  0  0
  -17.4199  -26.6681   21.4006 H   0  0  0  0  0  0
  -18.0311  -26.0095   22.9007 H   0  0  0  0  0  0
  -19.7984  -30.7266   24.2215 H   0  0  0  0  0  0
  -17.5061  -31.6263   24.5167 H   0  0  0  0  0  0
  -15.5365  -30.2987   23.7694 H   0  0  0  0  0  0
  -15.8658  -28.0830   22.7021 H   0  0  0  0  0  0
  -24.5929  -30.7018   25.7857 H   0  0  0  0  0  0
  -24.8876  -32.2933   26.4754 H   0  0  0  0  0  0
  -25.8058  -30.9071   27.0296 H   0  0  0  0  0  0
  -26.2907  -29.6726   24.1185 H   0  0  0  0  0  0
  -27.3993  -29.7173   25.4681 H   0  0  0  0  0  0
  -27.8784  -30.4256   23.9462 H   0  0  0  0  0  0
  -27.2640  -33.3657   26.1985 H   0  0  0  0  0  0
  -28.3922  -32.6748   25.0390 H   0  0  0  0  0  0
  -28.0601  -31.8485   26.5547 H   0  0  0  0  0  0
  -28.2524  -38.0142   24.7518 H   0  0  0  0  0  0
  -28.1150  -36.2655   24.6247 H   0  0  0  0  0  0
  -27.2305  -37.1361   25.8867 H   0  0  0  0  0  0
  -20.9285  -29.8896   21.7045 H   0  0  0  0  0  0
  -26.0147  -38.2810   24.1462 H   0  0  0  0  0  0
  -31.6732  -19.0003   17.7723 H   0  0  0  0  0  0
  -30.2072  -20.8406   18.3806 H   0  0  0  0  0  0
  -31.5068  -16.8255   18.7855 H   0  0  0  0  0  0
  -27.5471  -17.7677   23.6371 H   0  0  0  0  0  0
  -29.3552  -17.8858   23.2833 H   0  0  0  0  0  0
  -27.0222  -18.2406   21.3356 H   0  0  0  0  0  0
  -26.6425  -24.8609   21.4688 H   0  0  0  0  0  0
  -27.4825  -23.5399   22.2268 H   0  0  0  0  0  0
  -27.0737  -23.3917   19.2511 H   0  0  0  0  0  0
  -26.5865  -21.0708   22.2228 H   0  0  0  0  0  0
  -24.1323  -20.2667   20.5619 H   0  0  0  0  0  0
  -24.1674  -20.4813   22.3025 H   0  0  0  0  0  0
  -25.0678  -19.1788   21.5690 H   0  0  0  0  0  0
  -28.0021  -25.2262   18.5262 H   0  0  0  0  0  0
  -29.4412  -24.9264   19.3742 H   0  0  0  0  0  0
  -28.9323  -15.7097   21.1841 H   0  0  0  0  0  0
  1 25  1  0  0  0
  1 30  2  0  0  0
  1 87  1  0  0  0
  2  3  1  0  0  0
  2 25  1  0  0  0
  2 91  1  0  0  0
  2 92  1  0  0  0
  3  4  1  0  0  0
  3 93  1  0  0  0
  3 94  1  0  0  0
  4  5  1  0  0  0
  4 95  1  0  0  0
  4 96  1  0  0  0
  5  6  1  0  0  0
  5 26  1  0  0  0
  5 97  1  0  0  0
  6 25  1  0  0  0
  6 98  1  0  0  0
  6 99  1  0  0  0
  7  8  2  0  0  0
  7 26  1  0  0  0
  7 29  1  0  0  0
  8  9  1  0  0  0
  8 22  1  0  0  0
  9 10  1  0  0  0
  9 27  2  0  0  0
 10 11  2  0  0  0
 10 15  1  0  0  0
 11 12  1  0  0  0
 11100  1  0  0  0
 12 13  2  0  0  0
 12101  1  0  0  0
 13 14  1  0  0  0
 13 31  1  0  0  0
 14 15  2  0  0  0
 14102  1  0  0  0
 15103  1  0  0  0
 16 17  2  0  0  0
 16 21  1  0  0  0
 16 31  1  0  0  0
 17 18  1  0  0  0
 17104  1  0  0  0
 18 19  2  0  0  0
 18105  1  0  0  0
 19 20  1  0  0  0
 19 24  1  0  0  0
 20 21  2  0  0  0
 20106  1  0  0  0
 21 23  1  0  0  0
 22 28  1  0  0  0
 22 32  2  0  0  0
 26 27  1  0  0  0
 28107  1  0  0  0
 28108  1  0  0  0
 29109  1  0  0  0
 29110  1  0  0  0
 33 34  1  0  0  0
 33 66  1  0  0  0
 33 70  2  0  0  0
 34 36  1  0  0  0
 34 59  1  0  0  0
 34111  1  0  0  0
 35 44  2  0  0  0
 35 45  1  0  0  0
 35 68  1  0  0  0
 36 56  1  0  0  0
 36112  1  0  0  0
 37 39  1  0  0  0
 37 47  1  0  0  0
 37 66  1  0  0  0
 37113  1  0  0  0
 38 43  2  0  0  0
 38 46  1  0  0  0
 38 47  1  0  0  0
 39 64  1  0  0  0
 39 67  2  0  0  0
 40 52  1  0  0  0
 40 53  2  0  0  0
 40 58  1  0  0  0
 41114  1  0  0  0
 41115  1  0  0  0
 41116  1  0  0  0
 41 48  1  0  0  0
 42 43  1  0  0  0
 42 66  1  0  0  0
 42117  1  0  0  0
 42118  1  0  0  0
 43 44  1  0  0  0
 44119  1  0  0  0
 45 46  2  0  0  0
 45120  1  0  0  0
 46121  1  0  0  0
 47122  1  0  0  0
 47123  1  0  0  0
 48 56  1  0  0  0
 48 65  1  0  0  0
 48124  1  0  0  0
 49 50  1  0  0  0
 49 53  1  0  0  0
 49 64  1  0  0  0
 49125  1  0  0  0
 50 51  1  0  0  0
 50126  1  0  0  0
 50127  1  0  0  0
 51 52  1  0  0  0
 51128  1  0  0  0
 51129  1  0  0  0
 52130  1  0  0  0
 52131  1  0  0  0
 53 54  1  0  0  0
 54 55  2  0  0  0
 54132  1  0  0  0
 55 57  1  0  0  0
 55133  1  0  0  0
 56 69  2  0  0  0
 57 58  2  0  0  0
 57134  1  0  0  0
 58135  1  0  0  0
 59 60  1  0  0  0
 59 61  1  0  0  0
 59 62  1  0  0  0
 60136  1  0  0  0
 60137  1  0  0  0
 60138  1  0  0  0
 61139  1  0  0  0
 61140  1  0  0  0
 61141  1  0  0  0
 62142  1  0  0  0
 62143  1  0  0  0
 62144  1  0  0  0
 63 65  1  0  0  0
 63145  1  0  0  0
 63146  1  0  0  0
 63147  1  0  0  0
 64148  1  0  0  0
 65149  1  0  0  0
 68 85  1  0  0  0
 71 72  2  0  0  0
 71 73  1  0  0  0
 71150  1  0  0  0
 72 75  1  0  0  0
 72151  1  0  0  0
 73 76  2  0  0  0
 73152  1  0  0  0
 74 75  2  0  0  0
 74 76  1  0  0  0
 74 80  1  0  0  0
 75 86  1  0  0  0
 76 87  1  0  0  0
 77 82  1  0  0  0
 77 86  1  0  0  0
 77 88  2  0  0  0
 78 83  1  0  0  0
 78 86  1  0  0  0
 78 89  2  0  0  0
 79 80  2  0  0  0
 79153  1  0  0  0
 79154  1  0  0  0
 80155  1  0  0  0
 81 82  1  0  0  0
 81 90  1  0  0  0
 81156  1  0  0  0
 81157  1  0  0  0
 82 85  1  0  0  0
 82158  1  0  0  0
 83 84  1  0  0  0
 83 90  1  0  0  0
 83159  1  0  0  0
 84160  1  0  0  0
 84161  1  0  0  0
 84162  1  0  0  0
 85163  1  0  0  0
 85164  1  0  0  0
 87165  1  0  0  0
M  ISO  4   1 100  68 101  85 101  87 100
M  END
> <chiral flag>
0

> <version>
0

> <s_m_source_file>
/data/baiqing/PycharmProjects/Reinvent-master-3.2/result/LINK_invent/BTK/process_docking_weight1_custom_product_contain_oxygen_bond_distance_aromatic_linkinvent_7_9_3/rearranged_h_0065.sdf

> <i_m_source_file_index>
83

> <r_mmod_Potential_Energy-OPLS-2005>
343.489593505859

> <r_mmod_Stretch_Energy-OPLS-2005>
157.894836425781

> <r_mmod_Bend_Energy-OPLS-2005>
197.851104736328

> <r_mmod_Torsional_Energy-OPLS-2005>
354.863311767578

> <r_mmod_Improper_Torsional_Energy-OPLS-2005>
5.01332139968872

> <r_mmod_Van_der_Waal_Energy-OPLS-2005>
146.915573120117

> <r_mmod_Electrostatic_Energy-OPLS-2005>
-383.11328125

> <r_mmod_Solvation_Energy-OPLS-2005>
-224.830444335938

> <b_mmod_Minimization_Converged-OPLS-2005>
0

> <r_mmod_RMS_Derivative-OPLS-2005>
5.25419664382935

$$$$
83
                    3D
 Structure written by MMmdl.
159168  0  0  1  0            999 V2000
  -30.5914  -14.7252   20.3977 C   0  0  0  0  0  0
  -30.4268  -12.4222   19.4806 C   0  0  0  0  0  0
  -29.5148  -12.5087   18.2358 C   0  0  0  0  0  0
  -28.0328  -12.3481   18.6342 C   0  0  0  0  0  0
  -27.6433  -13.2310   19.8511 C   0  0  2  0  0  0
  -28.6896  -13.1447   20.9855 C   0  0  0  0  0  0
  -25.2517  -13.8200   20.5692 C   0  0  0  0  0  0
  -24.1805  -13.0467   20.9182 C   0  0  0  0  0  0
  -24.6378  -11.6930   20.8730 C   0  0  0  0  0  0
  -23.9045  -10.4325   21.0388 C   0  0  0  0  0  0
  -24.3610   -9.4243   21.9179 C   0  0  0  0  0  0
  -23.6298   -8.2258   22.0757 C   0  0  0  0  0  0
  -22.4281   -8.0284   21.3527 C   0  0  0  0  0  0
  -21.9898   -9.0258   20.4632 C   0  0  0  0  0  0
  -22.7214  -10.2146   20.3043 C   0  0  0  0  0  0
  -21.6856   -6.0742   22.5279 C   0  0  0  0  0  0
  -21.4017   -6.5631   23.8216 C   0  0  0  0  0  0
  -21.3676   -5.6771   24.9173 C   0  0  0  0  0  0
  -21.6063   -4.3044   24.7214 C   0  0  0  0  0  0
  -21.8817   -3.8138   23.4326 C   0  0  0  0  0  0
  -21.9194   -4.6965   22.3395 C   0  0  0  0  0  0
  -22.7819  -13.5242   21.1822 C   0  0  0  0  0  0
  -22.1643   -4.2137   21.0979 F   0  0  0  0  0  0
  -21.5650   -3.4542   25.7742 F   0  0  0  0  0  0
  -29.9969  -13.4865   20.4134 N   0  0  0  0  0  0
  -26.2938  -12.9405   20.3282 N   0  0  0  0  0  0
  -25.9316  -11.6543   20.5744 N   0  0  0  0  0  0
  -22.0417  -12.8283   22.0386 N   0  0  0  0  0  0
  -25.4263  -15.1947   20.4141 N   0  0  0  0  0  0
  -31.7719  -14.8429   20.0552 O   0  0  0  0  0  0
  -21.6643   -6.8880   21.4237 O   0  0  0  0  0  0
  -22.3518  -14.5548   20.6656 O   0  0  0  0  0  0
  -24.6304  -31.8581   23.2000 C   0  0  0  0  0  0
  -25.9156  -32.4745   23.8312 C   0  0  1  0  0  0
  -27.1949  -27.2739   20.0951 C   0  0  0  0  0  0
  -25.5978  -33.8545   24.2255 N   0  0  0  0  0  0
  -23.4207  -30.4874   21.5465 C   0  0  2  0  0  0
  -24.8571  -28.9441   20.1025 C   0  0  0  0  0  0
  -22.7505  -29.4625   22.4931 C   0  0  0  0  0  0
  -18.0286  -28.1399   22.8464 C   0  0  0  0  0  0
  -24.1508  -36.7298   23.2624 C   0  0  0  0  0  0
  -25.9658  -30.7737   21.3731 C   0  0  0  0  0  0
  -26.0322  -29.3972   20.7148 C   0  0  0  0  0  0
  -27.2029  -28.5721   20.7081 C   0  0  0  0  0  0
  -25.9989  -26.9034   19.4357 C   0  0  0  0  0  0
  -24.8445  -27.7043   19.4539 C   0  0  0  0  0  0
  -23.6318  -29.8337   20.1571 C   0  0  0  0  0  0
  -25.4125  -36.3054   24.0310 C   0  0  1  0  0  0
  -20.5887  -28.3705   23.1267 C   0  0  2  0  0  0
  -20.6789  -26.9429   22.5403 C   0  0  0  0  0  0
  -19.5768  -26.6374   21.5208 C   0  0  0  0  0  0
  -18.1938  -26.7931   22.1616 C   0  0  0  0  0  0
  -19.1538  -28.8868   23.2855 C   0  0  0  0  0  0
  -18.9463  -30.1472   23.8866 C   0  0  0  0  0  0
  -17.6463  -30.6585   24.0552 C   0  0  0  0  0  0
  -25.9077  -34.9428   23.5085 C   0  0  0  0  0  0
  -16.5352  -29.9082   23.6314 C   0  0  0  0  0  0
  -16.7277  -28.6510   23.0312 C   0  0  0  0  0  0
  -26.4524  -31.6538   25.0694 C   0  0  0  0  0  0
  -25.3754  -31.3665   26.1412 C   0  0  0  0  0  0
  -27.0340  -30.2959   24.6118 C   0  0  0  0  0  0
  -27.6094  -32.4236   25.7472 C   0  0  0  0  0  0
  -27.5589  -37.1789   24.8440 C   0  0  0  0  0  0
  -21.4213  -29.3063   22.3681 N   0  0  0  0  0  0
  -26.4288  -37.3767   23.9402 N   0  0  0  0  0  0
  -24.6920  -31.0562   22.0970 N   0  0  0  0  0  0
  -23.4237  -28.8143   23.2979 O   0  0  0  0  0  0
  -28.2798  -26.3677   20.1527 O   0  0  0  0  0  0
  -26.5635  -34.8904   22.4653 O   0  0  0  0  0  0
  -23.5468  -32.1416   23.7314 O   0  0  0  0  0  0
  -29.6454  -18.4439   20.4254 C   0  0  0  0  0  0
  -29.6902  -17.0404   18.4493 C   0  0  0  0  0  0
  -29.5307  -19.4986   18.2212 C   0  0  0  0  0  0
  -29.5385  -19.6784   19.6446 C   0  0  0  0  0  0
  -29.7587  -17.1129   19.8540 C   0  0  0  0  0  0
  -29.5708  -18.1962   17.6579 C   0  0  0  0  0  0
  -30.5109  -21.3415   21.1708 C   0  0  0  0  0  0
  -31.3569  -22.6262   21.0390 C   0  0  0  0  0  0
  -28.6175  -22.2079   19.8676 C   0  0  0  0  0  0
  -28.9561  -23.7135   20.3459 C   0  0  2  0  0  0
  -29.5673  -20.6521   17.2195 C   0  0  0  0  0  0
  -28.0409  -24.9247   19.8040 C   0  0  0  0  0  0
  -29.5579  -21.0558   20.2467 N   0  0  0  0  0  0
  -29.7964  -15.8392   20.6096 N   0  0  0  0  0  0
  -30.7225  -20.6191   22.1495 O   0  0  0  0  0  0
  -29.5142  -18.0410   16.3101 F   0  0  0  0  0  0
  -30.7022  -23.9618   19.9695 S   0  0  0  0  0  0
  -31.4751  -12.5259   19.1925 H   0  0  0  0  0  0
  -30.3445  -11.4419   19.9546 H   0  0  0  0  0  0
  -29.7993  -11.7498   17.5071 H   0  0  0  0  0  0
  -29.6577  -13.4712   17.7441 H   0  0  0  0  0  0
  -27.8644  -11.2987   18.8721 H   0  0  0  0  0  0
  -27.3852  -12.5696   17.7835 H   0  0  0  0  0  0
  -27.6407  -14.2548   19.4797 H   0  0  0  0  0  0
  -28.7168  -12.1427   21.4110 H   0  0  0  0  0  0
  -28.4395  -13.8195   21.8060 H   0  0  0  0  0  0
  -25.2749   -9.5744   22.4767 H   0  0  0  0  0  0
  -24.0031   -7.4659   22.7488 H   0  0  0  0  0  0
  -21.0823   -8.8750   19.8963 H   0  0  0  0  0  0
  -22.3640  -10.9680   19.6160 H   0  0  0  0  0  0
  -21.1987   -7.6132   23.9721 H   0  0  0  0  0  0
  -21.1509   -6.0498   25.9084 H   0  0  0  0  0  0
  -22.0582   -2.7598   23.2829 H   0  0  0  0  0  0
  -22.3955  -11.9940   22.4839 H   0  0  0  0  0  0
  -21.1043  -13.1388   22.2521 H   0  0  0  0  0  0
  -24.6723  -15.8618   20.5367 H   0  0  0  0  0  0
  -26.2888  -15.6301   20.1183 H   0  0  0  0  0  0
  -26.7226  -32.5397   23.1049 H   0  0  0  0  0  0
  -25.0103  -33.9669   25.0383 H   0  0  0  0  0  0
  -22.7151  -31.3098   21.4105 H   0  0  0  0  0  0
  -23.3769  -35.9629   23.3208 H   0  0  0  0  0  0
  -24.3621  -36.9011   22.2061 H   0  0  0  0  0  0
  -23.7255  -37.6469   23.6711 H   0  0  0  0  0  0
  -26.0964  -31.5299   20.5965 H   0  0  0  0  0  0
  -26.8509  -30.8263   21.9968 H   0  0  0  0  0  0
  -28.0995  -28.9113   21.2085 H   0  0  0  0  0  0
  -25.9094  -25.9740   18.8948 H   0  0  0  0  0  0
  -23.9464  -27.3635   18.9539 H   0  0  0  0  0  0
  -23.7572  -30.6163   19.4064 H   0  0  0  0  0  0
  -22.7447  -29.2754   19.8510 H   0  0  0  0  0  0
  -25.1298  -36.1884   25.0793 H   0  0  0  0  0  0
  -20.9969  -28.3278   24.1397 H   0  0  0  0  0  0
  -20.5703  -26.2324   23.3605 H   0  0  0  0  0  0
  -21.6658  -26.7466   22.1183 H   0  0  0  0  0  0
  -19.6925  -25.6278   21.1256 H   0  0  0  0  0  0
  -19.6691  -27.3168   20.6726 H   0  0  0  0  0  0
  -17.4215  -26.6664   21.4010 H   0  0  0  0  0  0
  -18.0331  -26.0084   22.9021 H   0  0  0  0  0  0
  -19.7940  -30.7294   24.2213 H   0  0  0  0  0  0
  -17.5011  -31.6256   24.5181 H   0  0  0  0  0  0
  -15.5349  -30.2980   23.7637 H   0  0  0  0  0  0
  -15.8683  -28.0835   22.7005 H   0  0  0  0  0  0
  -24.5891  -30.7081   25.7706 H   0  0  0  0  0  0
  -24.9007  -32.2837   26.4912 H   0  0  0  0  0  0
  -25.8066  -30.8744   27.0148 H   0  0  0  0  0  0
  -26.2888  -29.6695   24.1215 H   0  0  0  0  0  0
  -27.4129  -29.7207   25.4580 H   0  0  0  0  0  0
  -27.8725  -30.4220   23.9264 H   0  0  0  0  0  0
  -27.2737  -33.3541   26.2061 H   0  0  0  0  0  0
  -28.3933  -32.6776   25.0322 H   0  0  0  0  0  0
  -28.0750  -31.8342   26.5390 H   0  0  0  0  0  0
  -28.2534  -38.0154   24.7561 H   0  0  0  0  0  0
  -28.1155  -36.2688   24.6162 H   0  0  0  0  0  0
  -27.2318  -37.1305   25.8840 H   0  0  0  0  0  0
  -20.9399  -29.8859   21.6949 H   0  0  0  0  0  0
  -26.0149  -38.2821   24.1447 H   0  0  0  0  0  0
  -29.6593  -18.5091   21.5026 H   0  0  0  0  0  0
  -29.7154  -16.0824   17.9517 H   0  0  0  0  0  0
  -32.3382  -22.3291   20.6608 H   0  0  0  0  0  0
  -31.5322  -23.0294   22.0403 H   0  0  0  0  0  0
  -28.4648  -22.2507   18.7958 H   0  0  0  0  0  0
  -27.6389  -21.9405   20.2655 H   0  0  0  0  0  0
  -28.8645  -23.7431   21.4331 H   0  0  0  0  0  0
  -30.1436  -21.5053   17.5761 H   0  0  0  0  0  0
  -28.5578  -20.9768   16.9605 H   0  0  0  0  0  0
  -30.0433  -20.3504   16.2852 H   0  0  0  0  0  0
  -27.0412  -24.6603   20.1494 H   0  0  0  0  0  0
  -28.0107  -24.8649   18.7144 H   0  0  0  0  0  0
  -28.9377  -15.6211   21.0894 H   0  0  0  0  0  0
  1 25  1  0  0  0
  1 30  2  0  0  0
  1 84  1  0  0  0
  2  3  1  0  0  0
  2 25  1  0  0  0
  2 88  1  0  0  0
  2 89  1  0  0  0
  3  4  1  0  0  0
  3 90  1  0  0  0
  3 91  1  0  0  0
  4  5  1  0  0  0
  4 92  1  0  0  0
  4 93  1  0  0  0
  5  6  1  0  0  0
  5 26  1  0  0  0
  5 94  1  0  0  0
  6 25  1  0  0  0
  6 95  1  0  0  0
  6 96  1  0  0  0
  7  8  2  0  0  0
  7 26  1  0  0  0
  7 29  1  0  0  0
  8  9  1  0  0  0
  8 22  1  0  0  0
  9 10  1  0  0  0
  9 27  2  0  0  0
 10 11  2  0  0  0
 10 15  1  0  0  0
 11 12  1  0  0  0
 11 97  1  0  0  0
 12 13  2  0  0  0
 12 98  1  0  0  0
 13 14  1  0  0  0
 13 31  1  0  0  0
 14 15  2  0  0  0
 14 99  1  0  0  0
 15100  1  0  0  0
 16 17  2  0  0  0
 16 21  1  0  0  0
 16 31  1  0  0  0
 17 18  1  0  0  0
 17101  1  0  0  0
 18 19  2  0  0  0
 18102  1  0  0  0
 19 20  1  0  0  0
 19 24  1  0  0  0
 20 21  2  0  0  0
 20103  1  0  0  0
 21 23  1  0  0  0
 22 28  1  0  0  0
 22 32  2  0  0  0
 26 27  1  0  0  0
 28104  1  0  0  0
 28105  1  0  0  0
 29106  1  0  0  0
 29107  1  0  0  0
 33 34  1  0  0  0
 33 66  1  0  0  0
 33 70  2  0  0  0
 34 36  1  0  0  0
 34 59  1  0  0  0
 34108  1  0  0  0
 35 44  2  0  0  0
 35 45  1  0  0  0
 35 68  1  0  0  0
 36 56  1  0  0  0
 36109  1  0  0  0
 37 39  1  0  0  0
 37 47  1  0  0  0
 37 66  1  0  0  0
 37110  1  0  0  0
 38 43  2  0  0  0
 38 46  1  0  0  0
 38 47  1  0  0  0
 39 64  1  0  0  0
 39 67  2  0  0  0
 40 52  1  0  0  0
 40 53  2  0  0  0
 40 58  1  0  0  0
 41111  1  0  0  0
 41112  1  0  0  0
 41113  1  0  0  0
 41 48  1  0  0  0
 42 43  1  0  0  0
 42 66  1  0  0  0
 42114  1  0  0  0
 42115  1  0  0  0
 43 44  1  0  0  0
 44116  1  0  0  0
 45 46  2  0  0  0
 45117  1  0  0  0
 46118  1  0  0  0
 47119  1  0  0  0
 47120  1  0  0  0
 48 56  1  0  0  0
 48 65  1  0  0  0
 48121  1  0  0  0
 49 50  1  0  0  0
 49 53  1  0  0  0
 49 64  1  0  0  0
 49122  1  0  0  0
 50 51  1  0  0  0
 50123  1  0  0  0
 50124  1  0  0  0
 51 52  1  0  0  0
 51125  1  0  0  0
 51126  1  0  0  0
 52127  1  0  0  0
 52128  1  0  0  0
 53 54  1  0  0  0
 54 55  2  0  0  0
 54129  1  0  0  0
 55 57  1  0  0  0
 55130  1  0  0  0
 56 69  2  0  0  0
 57 58  2  0  0  0
 57131  1  0  0  0
 58132  1  0  0  0
 59 60  1  0  0  0
 59 61  1  0  0  0
 59 62  1  0  0  0
 60133  1  0  0  0
 60134  1  0  0  0
 60135  1  0  0  0
 61136  1  0  0  0
 61137  1  0  0  0
 61138  1  0  0  0
 62139  1  0  0  0
 62140  1  0  0  0
 62141  1  0  0  0
 63 65  1  0  0  0
 63142  1  0  0  0
 63143  1  0  0  0
 63144  1  0  0  0
 64145  1  0  0  0
 65146  1  0  0  0
 68 82  1  0  0  0
 71 74  2  0  0  0
 71 75  1  0  0  0
 71147  1  0  0  0
 72 75  2  0  0  0
 72 76  1  0  0  0
 72148  1  0  0  0
 73 74  1  0  0  0
 73 76  2  0  0  0
 73 81  1  0  0  0
 74 83  1  0  0  0
 75 84  1  0  0  0
 76 86  1  0  0  0
 77 78  1  0  0  0
 77 83  1  0  0  0
 77 85  2  0  0  0
 78 87  1  0  0  0
 78149  1  0  0  0
 78150  1  0  0  0
 79 80  1  0  0  0
 79 83  1  0  0  0
 79151  1  0  0  0
 79152  1  0  0  0
 80 82  1  0  0  0
 80 87  1  0  0  0
 80153  1  0  0  0
 81154  1  0  0  0
 81155  1  0  0  0
 81156  1  0  0  0
 82157  1  0  0  0
 82158  1  0  0  0
 84159  1  0  0  0
M  ISO  4   1 100  68 101  82 101  84 100
M  END
> <chiral flag>
0

> <version>
0

> <s_m_source_file>
/data/baiqing/PycharmProjects/Reinvent-master-3.2/result/LINK_invent/BTK/process_docking_weight1_custom_product_contain_oxygen_bond_distance_aromatic_linkinvent_7_9_3/rearranged_h_0065.sdf

> <i_m_source_file_index>
84

> <r_mmod_Potential_Energy-OPLS-2005>
331.927337646484

> <r_mmod_Stretch_Energy-OPLS-2005>
128.925643920898

> <r_mmod_Bend_Energy-OPLS-2005>
163.2734375

> <r_mmod_Torsional_Energy-OPLS-2005>
337.209503173828

> <r_mmod_Improper_Torsional_Energy-OPLS-2005>
6.32308053970337

> <r_mmod_Van_der_Waal_Energy-OPLS-2005>
154.85205078125

> <r_mmod_Electrostatic_Energy-OPLS-2005>
-308.332489013672

> <r_mmod_Solvation_Energy-OPLS-2005>
-232.035018920898

> <b_mmod_Minimization_Converged-OPLS-2005>
0

> <r_mmod_RMS_Derivative-OPLS-2005>
5.55805349349976

$$$$
84
                    3D
 Structure written by MMmdl.
159168  0  0  1  0            999 V2000
  -30.6205  -14.7136   20.4347 C   0  0  0  0  0  0
  -30.4306  -12.4303   19.4730 C   0  0  0  0  0  0
  -29.5110  -12.5048   18.2341 C   0  0  0  0  0  0
  -28.0358  -12.3378   18.6454 C   0  0  0  0  0  0
  -27.6441  -13.2325   19.8506 C   0  0  2  0  0  0
  -28.6876  -13.1537   20.9867 C   0  0  0  0  0  0
  -25.2513  -13.8201   20.5689 C   0  0  0  0  0  0
  -24.1797  -13.0448   20.9188 C   0  0  0  0  0  0
  -24.6394  -11.6926   20.8738 C   0  0  0  0  0  0
  -23.9072  -10.4299   21.0397 C   0  0  0  0  0  0
  -24.3614   -9.4212   21.9179 C   0  0  0  0  0  0
  -23.6277   -8.2255   22.0765 C   0  0  0  0  0  0
  -22.4256   -8.0298   21.3556 C   0  0  0  0  0  0
  -21.9894   -9.0277   20.4657 C   0  0  0  0  0  0
  -22.7238  -10.2146   20.3054 C   0  0  0  0  0  0
  -21.6853   -6.0732   22.5270 C   0  0  0  0  0  0
  -21.4018   -6.5630   23.8205 C   0  0  0  0  0  0
  -21.3664   -5.6781   24.9169 C   0  0  0  0  0  0
  -21.6041   -4.3047   24.7210 C   0  0  0  0  0  0
  -21.8822   -3.8141   23.4334 C   0  0  0  0  0  0
  -21.9194   -4.6961   22.3392 C   0  0  0  0  0  0
  -22.7816  -13.5243   21.1831 C   0  0  0  0  0  0
  -22.1660   -4.2149   21.0970 F   0  0  0  0  0  0
  -21.5631   -3.4534   25.7725 F   0  0  0  0  0  0
  -29.9965  -13.4897   20.4120 N   0  0  0  0  0  0
  -26.2947  -12.9415   20.3268 N   0  0  0  0  0  0
  -25.9326  -11.6557   20.5719 N   0  0  0  0  0  0
  -22.0436  -12.8273   22.0394 N   0  0  0  0  0  0
  -25.4194  -15.1928   20.4146 N   0  0  0  0  0  0
  -31.8076  -14.8015   20.1015 O   0  0  0  0  0  0
  -21.6634   -6.8885   21.4234 O   0  0  0  0  0  0
  -22.3510  -14.5544   20.6663 O   0  0  0  0  0  0
  -24.6292  -31.8574   23.1984 C   0  0  0  0  0  0
  -25.9112  -32.4770   23.8323 C   0  0  1  0  0  0
  -27.2048  -27.2681   20.1262 C   0  0  0  0  0  0
  -25.5899  -33.8572   24.2239 N   0  0  0  0  0  0
  -23.4248  -30.4828   21.5441 C   0  0  2  0  0  0
  -24.8660  -28.9350   20.1101 C   0  0  0  0  0  0
  -22.7499  -29.4621   22.4924 C   0  0  0  0  0  0
  -18.0294  -28.1429   22.8459 C   0  0  0  0  0  0
  -24.1487  -36.7303   23.2631 C   0  0  0  0  0  0
  -25.9705  -30.7742   21.3739 C   0  0  0  0  0  0
  -26.0403  -29.3974   20.7174 C   0  0  0  0  0  0
  -27.2134  -28.5769   20.7140 C   0  0  0  0  0  0
  -26.0043  -26.8758   19.4883 C   0  0  0  0  0  0
  -24.8527  -27.6827   19.4830 C   0  0  0  0  0  0
  -23.6387  -29.8218   20.1586 C   0  0  0  0  0  0
  -25.4113  -36.3087   24.0322 C   0  0  1  0  0  0
  -20.5893  -28.3727   23.1270 C   0  0  2  0  0  0
  -20.6800  -26.9451   22.5414 C   0  0  0  0  0  0
  -19.5769  -26.6411   21.5227 C   0  0  0  0  0  0
  -18.1947  -26.7961   22.1624 C   0  0  0  0  0  0
  -19.1546  -28.8896   23.2857 C   0  0  0  0  0  0
  -18.9476  -30.1502   23.8870 C   0  0  0  0  0  0
  -17.6476  -30.6619   24.0579 C   0  0  0  0  0  0
  -25.9059  -34.9456   23.5094 C   0  0  0  0  0  0
  -16.5365  -29.9123   23.6342 C   0  0  0  0  0  0
  -16.7283  -28.6558   23.0319 C   0  0  0  0  0  0
  -26.4465  -31.6585   25.0715 C   0  0  0  0  0  0
  -25.3681  -31.3757   26.1438 C   0  0  0  0  0  0
  -27.0268  -30.2984   24.6191 C   0  0  0  0  0  0
  -27.6016  -32.4312   25.7505 C   0  0  0  0  0  0
  -27.5584  -37.1809   24.8457 C   0  0  0  0  0  0
  -21.4208  -29.3063   22.3661 N   0  0  0  0  0  0
  -26.4284  -37.3793   23.9417 N   0  0  0  0  0  0
  -24.6951  -31.0557   22.0953 N   0  0  0  0  0  0
  -23.4213  -28.8155   23.3011 O   0  0  0  0  0  0
  -28.2928  -26.3668   20.1895 O   0  0  0  0  0  0
  -26.5663  -34.8935   22.4683 O   0  0  0  0  0  0
  -23.5450  -32.1378   23.7301 O   0  0  0  0  0  0
  -29.5540  -18.4419   20.7247 C   0  0  0  0  0  0
  -30.6761  -17.3816   18.8603 C   0  0  0  0  0  0
  -30.4503  -19.8387   18.9294 C   0  0  0  0  0  0
  -29.7459  -19.7828   20.1675 C   0  0  0  0  0  0
  -30.0444  -17.2208   20.1122 C   0  0  0  0  0  0
  -30.8687  -18.6515   18.2853 C   0  0  0  0  0  0
  -29.5217  -21.1642   22.2335 C   0  0  0  0  0  0
  -28.5925  -22.2025   20.1499 C   0  0  0  0  0  0
  -29.5941  -23.8962   21.8403 C   0  0  0  0  0  0
  -29.0526  -23.7336   20.4112 C   0  0  2  0  0  0
  -30.8428  -21.1573   18.2729 C   0  0  0  0  0  0
  -28.0047  -24.9000   20.0316 C   0  0  0  0  0  0
  -29.3241  -21.0506   20.8424 N   0  0  0  0  0  0
  -29.8612  -15.8514   20.6568 N   0  0  0  0  0  0
  -30.0572  -20.3309   22.9696 O   0  0  0  0  0  0
  -31.4937  -18.7254   17.0849 F   0  0  0  0  0  0
  -28.9119  -22.6923   23.0177 S   0  0  0  0  0  0
  -31.4723  -12.5426   19.1697 H   0  0  0  0  0  0
  -30.3674  -11.4505   19.9499 H   0  0  0  0  0  0
  -29.7868  -11.7384   17.5089 H   0  0  0  0  0  0
  -29.6445  -13.4636   17.7298 H   0  0  0  0  0  0
  -27.8805  -11.2888   18.8997 H   0  0  0  0  0  0
  -27.3830  -12.5437   17.7958 H   0  0  0  0  0  0
  -27.6431  -14.2553   19.4737 H   0  0  0  0  0  0
  -28.7089  -12.1542   21.4228 H   0  0  0  0  0  0
  -28.4292  -13.8363   21.7975 H   0  0  0  0  0  0
  -25.2762   -9.5673   22.4756 H   0  0  0  0  0  0
  -23.9982   -7.4634   22.7484 H   0  0  0  0  0  0
  -21.0825   -8.8800   19.8952 H   0  0  0  0  0  0
  -22.3706  -10.9687   19.6165 H   0  0  0  0  0  0
  -21.2016   -7.6140   23.9707 H   0  0  0  0  0  0
  -21.1481   -6.0511   25.9068 H   0  0  0  0  0  0
  -22.0596   -2.7607   23.2827 H   0  0  0  0  0  0
  -22.4028  -11.9958   22.4835 H   0  0  0  0  0  0
  -21.1060  -13.1350   22.2567 H   0  0  0  0  0  0
  -24.6491  -15.8414   20.5335 H   0  0  0  0  0  0
  -26.2640  -15.6390   20.0817 H   0  0  0  0  0  0
  -26.7189  -32.5434   23.1080 H   0  0  0  0  0  0
  -24.9952  -33.9699   25.0319 H   0  0  0  0  0  0
  -22.7209  -31.3063   21.4050 H   0  0  0  0  0  0
  -23.3753  -35.9631   23.3277 H   0  0  0  0  0  0
  -24.3578  -36.8948   22.2051 H   0  0  0  0  0  0
  -23.7244  -37.6499   23.6672 H   0  0  0  0  0  0
  -26.1022  -31.5293   20.5982 H   0  0  0  0  0  0
  -26.8510  -30.8300   22.0010 H   0  0  0  0  0  0
  -28.1109  -28.9220   21.2076 H   0  0  0  0  0  0
  -25.9138  -25.9169   19.0016 H   0  0  0  0  0  0
  -23.9527  -27.3232   19.0016 H   0  0  0  0  0  0
  -23.7619  -30.6006   19.4049 H   0  0  0  0  0  0
  -22.7557  -29.2567   19.8544 H   0  0  0  0  0  0
  -25.1295  -36.1925   25.0814 H   0  0  0  0  0  0
  -20.9973  -28.3324   24.1398 H   0  0  0  0  0  0
  -20.5741  -26.2337   23.3619 H   0  0  0  0  0  0
  -21.6671  -26.7509   22.1189 H   0  0  0  0  0  0
  -19.6940  -25.6314   21.1273 H   0  0  0  0  0  0
  -19.6714  -27.3211   20.6747 H   0  0  0  0  0  0
  -17.4213  -26.6667   21.4039 H   0  0  0  0  0  0
  -18.0355  -26.0139   22.9057 H   0  0  0  0  0  0
  -19.7959  -30.7334   24.2199 H   0  0  0  0  0  0
  -17.5044  -31.6288   24.5206 H   0  0  0  0  0  0
  -15.5372  -30.3032   23.7703 H   0  0  0  0  0  0
  -15.8672  -28.0922   22.6991 H   0  0  0  0  0  0
  -24.5864  -30.7090   25.7783 H   0  0  0  0  0  0
  -24.8862  -32.2937   26.4814 H   0  0  0  0  0  0
  -25.7989  -30.8980   27.0247 H   0  0  0  0  0  0
  -26.2825  -29.6788   24.1174 H   0  0  0  0  0  0
  -27.3876  -29.7205   25.4710 H   0  0  0  0  0  0
  -27.8750  -30.4226   23.9454 H   0  0  0  0  0  0
  -27.2603  -33.3611   26.2071 H   0  0  0  0  0  0
  -28.3841  -32.6867   25.0347 H   0  0  0  0  0  0
  -28.0655  -31.8436   26.5440 H   0  0  0  0  0  0
  -28.2585  -38.0124   24.7536 H   0  0  0  0  0  0
  -28.1099  -36.2661   24.6235 H   0  0  0  0  0  0
  -27.2312  -37.1408   25.8861 H   0  0  0  0  0  0
  -20.9398  -29.8777   21.6855 H   0  0  0  0  0  0
  -26.0156  -38.2859   24.1451 H   0  0  0  0  0  0
  -29.0338  -18.3474   21.6676 H   0  0  0  0  0  0
  -31.0302  -16.5248   18.3068 H   0  0  0  0  0  0
  -28.4997  -22.0215   19.0830 H   0  0  0  0  0  0
  -27.5598  -22.1182   20.4915 H   0  0  0  0  0  0
  -29.4148  -24.9038   22.2151 H   0  0  0  0  0  0
  -30.6767  -23.7639   21.8402 H   0  0  0  0  0  0
  -29.9061  -23.9083   19.7554 H   0  0  0  0  0  0
  -30.0386  -21.5219   17.6356 H   0  0  0  0  0  0
  -31.7242  -21.0446   17.6405 H   0  0  0  0  0  0
  -31.0941  -21.9154   19.0142 H   0  0  0  0  0  0
  -27.0933  -24.6800   20.5888 H   0  0  0  0  0  0
  -27.7594  -24.7432   18.9805 H   0  0  0  0  0  0
  -28.9753  -15.6838   21.1100 H   0  0  0  0  0  0
  1 25  1  0  0  0
  1 30  2  0  0  0
  1 84  1  0  0  0
  2  3  1  0  0  0
  2 25  1  0  0  0
  2 88  1  0  0  0
  2 89  1  0  0  0
  3  4  1  0  0  0
  3 90  1  0  0  0
  3 91  1  0  0  0
  4  5  1  0  0  0
  4 92  1  0  0  0
  4 93  1  0  0  0
  5  6  1  0  0  0
  5 26  1  0  0  0
  5 94  1  0  0  0
  6 25  1  0  0  0
  6 95  1  0  0  0
  6 96  1  0  0  0
  7  8  2  0  0  0
  7 26  1  0  0  0
  7 29  1  0  0  0
  8  9  1  0  0  0
  8 22  1  0  0  0
  9 10  1  0  0  0
  9 27  2  0  0  0
 10 11  2  0  0  0
 10 15  1  0  0  0
 11 12  1  0  0  0
 11 97  1  0  0  0
 12 13  2  0  0  0
 12 98  1  0  0  0
 13 14  1  0  0  0
 13 31  1  0  0  0
 14 15  2  0  0  0
 14 99  1  0  0  0
 15100  1  0  0  0
 16 17  2  0  0  0
 16 21  1  0  0  0
 16 31  1  0  0  0
 17 18  1  0  0  0
 17101  1  0  0  0
 18 19  2  0  0  0
 18102  1  0  0  0
 19 20  1  0  0  0
 19 24  1  0  0  0
 20 21  2  0  0  0
 20103  1  0  0  0
 21 23  1  0  0  0
 22 28  1  0  0  0
 22 32  2  0  0  0
 26 27  1  0  0  0
 28104  1  0  0  0
 28105  1  0  0  0
 29106  1  0  0  0
 29107  1  0  0  0
 33 34  1  0  0  0
 33 66  1  0  0  0
 33 70  2  0  0  0
 34 36  1  0  0  0
 34 59  1  0  0  0
 34108  1  0  0  0
 35 44  2  0  0  0
 35 45  1  0  0  0
 35 68  1  0  0  0
 36 56  1  0  0  0
 36109  1  0  0  0
 37 39  1  0  0  0
 37 47  1  0  0  0
 37 66  1  0  0  0
 37110  1  0  0  0
 38 43  2  0  0  0
 38 46  1  0  0  0
 38 47  1  0  0  0
 39 64  1  0  0  0
 39 67  2  0  0  0
 40 52  1  0  0  0
 40 53  2  0  0  0
 40 58  1  0  0  0
 41111  1  0  0  0
 41112  1  0  0  0
 41113  1  0  0  0
 41 48  1  0  0  0
 42 43  1  0  0  0
 42 66  1  0  0  0
 42114  1  0  0  0
 42115  1  0  0  0
 43 44  1  0  0  0
 44116  1  0  0  0
 45 46  2  0  0  0
 45117  1  0  0  0
 46118  1  0  0  0
 47119  1  0  0  0
 47120  1  0  0  0
 48 56  1  0  0  0
 48 65  1  0  0  0
 48121  1  0  0  0
 49 50  1  0  0  0
 49 53  1  0  0  0
 49 64  1  0  0  0
 49122  1  0  0  0
 50 51  1  0  0  0
 50123  1  0  0  0
 50124  1  0  0  0
 51 52  1  0  0  0
 51125  1  0  0  0
 51126  1  0  0  0
 52127  1  0  0  0
 52128  1  0  0  0
 53 54  1  0  0  0
 54 55  2  0  0  0
 54129  1  0  0  0
 55 57  1  0  0  0
 55130  1  0  0  0
 56 69  2  0  0  0
 57 58  2  0  0  0
 57131  1  0  0  0
 58132  1  0  0  0
 59 60  1  0  0  0
 59 61  1  0  0  0
 59 62  1  0  0  0
 60133  1  0  0  0
 60134  1  0  0  0
 60135  1  0  0  0
 61136  1  0  0  0
 61137  1  0  0  0
 61138  1  0  0  0
 62139  1  0  0  0
 62140  1  0  0  0
 62141  1  0  0  0
 63 65  1  0  0  0
 63142  1  0  0  0
 63143  1  0  0  0
 63144  1  0  0  0
 64145  1  0  0  0
 65146  1  0  0  0
 68 82  1  0  0  0
 71 74  2  0  0  0
 71 75  1  0  0  0
 71147  1  0  0  0
 72 75  2  0  0  0
 72 76  1  0  0  0
 72148  1  0  0  0
 73 74  1  0  0  0
 73 76  2  0  0  0
 73 81  1  0  0  0
 74 83  1  0  0  0
 75 84  1  0  0  0
 76 86  1  0  0  0
 77 83  1  0  0  0
 77 85  2  0  0  0
 77 87  1  0  0  0
 78 80  1  0  0  0
 78 83  1  0  0  0
 78149  1  0  0  0
 78150  1  0  0  0
 79 80  1  0  0  0
 79 87  1  0  0  0
 79151  1  0  0  0
 79152  1  0  0  0
 80 82  1  0  0  0
 80153  1  0  0  0
 81154  1  0  0  0
 81155  1  0  0  0
 81156  1  0  0  0
 82157  1  0  0  0
 82158  1  0  0  0
 84159  1  0  0  0
M  ISO  4   1 100  68 101  82 101  84 100
M  END
> <chiral flag>
0

> <version>
0

> <s_m_source_file>
/data/baiqing/PycharmProjects/Reinvent-master-3.2/result/LINK_invent/BTK/process_docking_weight1_custom_product_contain_oxygen_bond_distance_aromatic_linkinvent_7_9_3/rearranged_h_0065.sdf

> <i_m_source_file_index>
85

> <r_mmod_Potential_Energy-OPLS-2005>
246.204483032227

> <r_mmod_Stretch_Energy-OPLS-2005>
125.836090087891

> <r_mmod_Bend_Energy-OPLS-2005>
154.258148193359

> <r_mmod_Torsional_Energy-OPLS-2005>
297.4619140625

> <r_mmod_Improper_Torsional_Energy-OPLS-2005>
4.83852434158325

> <r_mmod_Van_der_Waal_Energy-OPLS-2005>
161.857009887695

> <r_mmod_Electrostatic_Energy-OPLS-2005>
-341.298004150391

> <r_mmod_Solvation_Energy-OPLS-2005>
-235.317184448242

> <b_mmod_Minimization_Converged-OPLS-2005>
0

> <r_mmod_RMS_Derivative-OPLS-2005>
2.32392358779907

$$$$
85
                    3D
 Structure written by MMmdl.
154162  0  0  1  0            999 V2000
  -30.6699  -14.7433   20.4160 C   0  0  0  0  0  0
  -30.4223  -12.4510   19.4740 C   0  0  0  0  0  0
  -29.5060  -12.4969   18.2336 C   0  0  0  0  0  0
  -28.0334  -12.3281   18.6516 C   0  0  0  0  0  0
  -27.6399  -13.2431   19.8422 C   0  0  2  0  0  0
  -28.6906  -13.2209   20.9746 C   0  0  0  0  0  0
  -25.2506  -13.8228   20.5708 C   0  0  0  0  0  0
  -24.1811  -13.0457   20.9221 C   0  0  0  0  0  0
  -24.6428  -11.6935   20.8773 C   0  0  0  0  0  0
  -23.9105  -10.4294   21.0415 C   0  0  0  0  0  0
  -24.3644   -9.4205   21.9196 C   0  0  0  0  0  0
  -23.6308   -8.2243   22.0758 C   0  0  0  0  0  0
  -22.4289   -8.0291   21.3554 C   0  0  0  0  0  0
  -21.9937   -9.0263   20.4650 C   0  0  0  0  0  0
  -22.7275  -10.2140   20.3060 C   0  0  0  0  0  0
  -21.6857   -6.0750   22.5283 C   0  0  0  0  0  0
  -21.4016   -6.5657   23.8216 C   0  0  0  0  0  0
  -21.3658   -5.6801   24.9177 C   0  0  0  0  0  0
  -21.6044   -4.3060   24.7223 C   0  0  0  0  0  0
  -21.8820   -3.8163   23.4339 C   0  0  0  0  0  0
  -21.9188   -4.6978   22.3399 C   0  0  0  0  0  0
  -22.7823  -13.5218   21.1876 C   0  0  0  0  0  0
  -22.1662   -4.2163   21.0978 F   0  0  0  0  0  0
  -21.5622   -3.4544   25.7739 F   0  0  0  0  0  0
  -29.9914  -13.5445   20.3767 N   0  0  0  0  0  0
  -26.2950  -12.9463   20.3288 N   0  0  0  0  0  0
  -25.9371  -11.6597   20.5779 N   0  0  0  0  0  0
  -22.0470  -12.8188   22.0420 N   0  0  0  0  0  0
  -25.4182  -15.1948   20.4113 N   0  0  0  0  0  0
  -31.8769  -14.7370   20.1764 O   0  0  0  0  0  0
  -21.6654   -6.8895   21.4248 O   0  0  0  0  0  0
  -22.3497  -14.5520   20.6723 O   0  0  0  0  0  0
  -24.6317  -31.8553   23.1990 C   0  0  0  0  0  0
  -25.9141  -32.4738   23.8335 C   0  0  1  0  0  0
  -27.2174  -27.2688   20.1233 C   0  0  0  0  0  0
  -25.5943  -33.8548   24.2267 N   0  0  0  0  0  0
  -23.4255  -30.4802   21.5430 C   0  0  2  0  0  0
  -24.8711  -28.9328   20.1060 C   0  0  0  0  0  0
  -22.7512  -29.4588   22.4912 C   0  0  0  0  0  0
  -18.0299  -28.1382   22.8482 C   0  0  0  0  0  0
  -24.1485  -36.7283   23.2641 C   0  0  0  0  0  0
  -25.9722  -30.7684   21.3795 C   0  0  0  0  0  0
  -26.0401  -29.3930   20.7225 C   0  0  0  0  0  0
  -27.2108  -28.5700   20.7273 C   0  0  0  0  0  0
  -26.0286  -26.8894   19.4524 C   0  0  0  0  0  0
  -24.8709  -27.6884   19.4613 C   0  0  0  0  0  0
  -23.6415  -29.8181   20.1578 C   0  0  0  0  0  0
  -25.4104  -36.3069   24.0335 C   0  0  1  0  0  0
  -20.5901  -28.3678   23.1281 C   0  0  2  0  0  0
  -20.6780  -26.9396   22.5427 C   0  0  0  0  0  0
  -19.5753  -26.6378   21.5229 C   0  0  0  0  0  0
  -18.1931  -26.7925   22.1636 C   0  0  0  0  0  0
  -19.1553  -28.8850   23.2870 C   0  0  0  0  0  0
  -18.9475  -30.1462   23.8876 C   0  0  0  0  0  0
  -17.6464  -30.6573   24.0565 C   0  0  0  0  0  0
  -25.9056  -34.9436   23.5103 C   0  0  0  0  0  0
  -16.5353  -29.9071   23.6332 C   0  0  0  0  0  0
  -16.7287  -28.6494   23.0341 C   0  0  0  0  0  0
  -26.4511  -31.6571   25.0728 C   0  0  0  0  0  0
  -25.3738  -31.3744   26.1453 C   0  0  0  0  0  0
  -27.0352  -30.2977   24.6205 C   0  0  0  0  0  0
  -27.6054  -32.4328   25.7494 C   0  0  0  0  0  0
  -27.5575  -37.1792   24.8467 C   0  0  0  0  0  0
  -21.4214  -29.3037   22.3677 N   0  0  0  0  0  0
  -26.4275  -37.3775   23.9413 N   0  0  0  0  0  0
  -24.6962  -31.0535   22.0961 N   0  0  0  0  0  0
  -23.4221  -28.8131   23.3005 O   0  0  0  0  0  0
  -28.3208  -26.3867   20.2193 O   0  0  0  0  0  0
  -26.5629  -34.8904   22.4674 O   0  0  0  0  0  0
  -23.5469  -32.1377   23.7299 O   0  0  0  0  0  0
  -32.0504  -18.8485   19.1404 C   0  0  0  0  0  0
  -31.5532  -17.5607   19.4058 C   0  0  0  0  0  0
  -29.6801  -18.5636   20.5712 C   0  0  0  0  0  0
  -31.3941  -20.0098   19.5922 C   0  0  0  0  0  0
  -30.3913  -17.3457   20.1888 C   0  0  0  0  0  0
  -30.1305  -19.9175   20.2465 C   0  0  0  0  0  0
  -29.2005  -22.3326   19.9536 C   0  0  0  0  0  0
  -32.1377  -21.3282   19.4033 C   0  0  0  0  0  0
  -28.9361  -23.7478   20.6542 C   0  0  0  0  0  0
  -28.2190  -24.9372   19.8242 C   0  0  0  0  0  0
  -29.4441  -21.1683   20.6704 N   0  0  0  0  0  0
  -29.9686  -15.9455   20.5181 N   0  0  0  0  0  0
  -29.1770  -22.2979   18.7210 O   0  0  0  0  0  0
  -31.4650  -12.5418   19.1669 H   0  0  0  0  0  0
  -30.3446  -11.4863   19.9784 H   0  0  0  0  0  0
  -29.7846  -11.7156   17.5259 H   0  0  0  0  0  0
  -29.6359  -13.4461   17.7099 H   0  0  0  0  0  0
  -27.8908  -11.2826   18.9275 H   0  0  0  0  0  0
  -27.3743  -12.5103   17.8019 H   0  0  0  0  0  0
  -27.6205  -14.2569   19.4408 H   0  0  0  0  0  0
  -28.7257  -12.2452   21.4601 H   0  0  0  0  0  0
  -28.4348  -13.9447   21.7501 H   0  0  0  0  0  0
  -25.2788   -9.5679   22.4777 H   0  0  0  0  0  0
  -24.0018   -7.4637   22.7476 H   0  0  0  0  0  0
  -21.0873   -8.8794   19.8947 H   0  0  0  0  0  0
  -22.3745  -10.9688   19.6168 H   0  0  0  0  0  0
  -21.2017   -7.6163   23.9724 H   0  0  0  0  0  0
  -21.1479   -6.0534   25.9079 H   0  0  0  0  0  0
  -22.0596   -2.7624   23.2840 H   0  0  0  0  0  0
  -22.4094  -11.9845   22.4797 H   0  0  0  0  0  0
  -21.1086  -13.1201   22.2632 H   0  0  0  0  0  0
  -24.6490  -15.8474   20.5122 H   0  0  0  0  0  0
  -26.2649  -15.6328   20.0732 H   0  0  0  0  0  0
  -26.7193  -32.5372   23.1062 H   0  0  0  0  0  0
  -25.0106  -33.9688   25.0423 H   0  0  0  0  0  0
  -22.7217  -31.3028   21.3999 H   0  0  0  0  0  0
  -23.3740  -35.9630   23.3314 H   0  0  0  0  0  0
  -24.3589  -36.8898   22.2061 H   0  0  0  0  0  0
  -23.7245  -37.6492   23.6652 H   0  0  0  0  0  0
  -26.1149  -31.5251   20.6076 H   0  0  0  0  0  0
  -26.8511  -30.8153   22.0107 H   0  0  0  0  0  0
  -28.1007  -28.9122   21.2354 H   0  0  0  0  0  0
  -25.9498  -25.9601   18.9108 H   0  0  0  0  0  0
  -23.9786  -27.3391   18.9590 H   0  0  0  0  0  0
  -23.7633  -30.5959   19.4039 H   0  0  0  0  0  0
  -22.7569  -29.2540   19.8526 H   0  0  0  0  0  0
  -25.1282  -36.1919   25.0830 H   0  0  0  0  0  0
  -20.9993  -28.3243   24.1398 H   0  0  0  0  0  0
  -20.5697  -26.2279   23.3623 H   0  0  0  0  0  0
  -21.6634  -26.7418   22.1196 H   0  0  0  0  0  0
  -19.6900  -25.6302   21.1232 H   0  0  0  0  0  0
  -19.6674  -27.3209   20.6781 H   0  0  0  0  0  0
  -17.4206  -26.6701   21.4022 H   0  0  0  0  0  0
  -18.0284  -26.0069   22.9030 H   0  0  0  0  0  0
  -19.7954  -30.7300   24.2198 H   0  0  0  0  0  0
  -17.5022  -31.6245   24.5190 H   0  0  0  0  0  0
  -15.5356  -30.2967   23.7666 H   0  0  0  0  0  0
  -15.8695  -28.0825   22.7034 H   0  0  0  0  0  0
  -24.5901  -30.7081   25.7829 H   0  0  0  0  0  0
  -24.8919  -32.2928   26.4832 H   0  0  0  0  0  0
  -25.8056  -30.8982   27.0262 H   0  0  0  0  0  0
  -26.2930  -29.6720   24.1220 H   0  0  0  0  0  0
  -27.4050  -29.7244   25.4723 H   0  0  0  0  0  0
  -27.8811  -30.4276   23.9441 H   0  0  0  0  0  0
  -27.2641  -33.3653   26.2015 H   0  0  0  0  0  0
  -28.3880  -32.6855   25.0323 H   0  0  0  0  0  0
  -28.0692  -31.8486   26.5458 H   0  0  0  0  0  0
  -28.2592  -38.0091   24.7518 H   0  0  0  0  0  0
  -28.1075  -36.2624   24.6278 H   0  0  0  0  0  0
  -27.2311  -37.1435   25.8879 H   0  0  0  0  0  0
  -20.9399  -29.8780   21.6903 H   0  0  0  0  0  0
  -26.0155  -38.2853   24.1411 H   0  0  0  0  0  0
  -32.9832  -18.9376   18.5992 H   0  0  0  0  0  0
  -32.1266  -16.7444   18.9978 H   0  0  0  0  0  0
  -28.7648  -18.4616   21.1380 H   0  0  0  0  0  0
  -33.2131  -21.1641   19.3234 H   0  0  0  0  0  0
  -31.9973  -21.9937   20.2552 H   0  0  0  0  0  0
  -31.8145  -21.8390   18.4973 H   0  0  0  0  0  0
  -29.9124  -24.1091   20.9767 H   0  0  0  0  0  0
  -28.3724  -23.5735   21.5700 H   0  0  0  0  0  0
  -27.1805  -24.6180   19.8029 H   0  0  0  0  0  0
  -28.5597  -24.8944   18.7896 H   0  0  0  0  0  0
  -29.2228  -21.2216   21.6567 H   0  0  0  0  0  0
  -29.0012  -15.8383   20.7811 H   0  0  0  0  0  0
  1 25  1  0  0  0
  1 30  2  0  0  0
  1 82  1  0  0  0
  2  3  1  0  0  0
  2 25  1  0  0  0
  2 84  1  0  0  0
  2 85  1  0  0  0
  3  4  1  0  0  0
  3 86  1  0  0  0
  3 87  1  0  0  0
  4  5  1  0  0  0
  4 88  1  0  0  0
  4 89  1  0  0  0
  5  6  1  0  0  0
  5 26  1  0  0  0
  5 90  1  0  0  0
  6 25  1  0  0  0
  6 91  1  0  0  0
  6 92  1  0  0  0
  7  8  2  0  0  0
  7 26  1  0  0  0
  7 29  1  0  0  0
  8  9  1  0  0  0
  8 22  1  0  0  0
  9 10  1  0  0  0
  9 27  2  0  0  0
 10 11  2  0  0  0
 10 15  1  0  0  0
 11 12  1  0  0  0
 11 93  1  0  0  0
 12 13  2  0  0  0
 12 94  1  0  0  0
 13 14  1  0  0  0
 13 31  1  0  0  0
 14 15  2  0  0  0
 14 95  1  0  0  0
 15 96  1  0  0  0
 16 17  2  0  0  0
 16 21  1  0  0  0
 16 31  1  0  0  0
 17 18  1  0  0  0
 17 97  1  0  0  0
 18 19  2  0  0  0
 18 98  1  0  0  0
 19 20  1  0  0  0
 19 24  1  0  0  0
 20 21  2  0  0  0
 20 99  1  0  0  0
 21 23  1  0  0  0
 22 28  1  0  0  0
 22 32  2  0  0  0
 26 27  1  0  0  0
 28100  1  0  0  0
 28101  1  0  0  0
 29102  1  0  0  0
 29103  1  0  0  0
 33 34  1  0  0  0
 33 66  1  0  0  0
 33 70  2  0  0  0
 34 36  1  0  0  0
 34 59  1  0  0  0
 34104  1  0  0  0
 35 44  2  0  0  0
 35 45  1  0  0  0
 35 68  1  0  0  0
 36 56  1  0  0  0
 36105  1  0  0  0
 37 39  1  0  0  0
 37 47  1  0  0  0
 37 66  1  0  0  0
 37106  1  0  0  0
 38 43  2  0  0  0
 38 46  1  0  0  0
 38 47  1  0  0  0
 39 64  1  0  0  0
 39 67  2  0  0  0
 40 52  1  0  0  0
 40 53  2  0  0  0
 40 58  1  0  0  0
 41107  1  0  0  0
 41108  1  0  0  0
 41109  1  0  0  0
 41 48  1  0  0  0
 42 43  1  0  0  0
 42 66  1  0  0  0
 42110  1  0  0  0
 42111  1  0  0  0
 43 44  1  0  0  0
 44112  1  0  0  0
 45 46  2  0  0  0
 45113  1  0  0  0
 46114  1  0  0  0
 47115  1  0  0  0
 47116  1  0  0  0
 48 56  1  0  0  0
 48 65  1  0  0  0
 48117  1  0  0  0
 49 50  1  0  0  0
 49 53  1  0  0  0
 49 64  1  0  0  0
 49118  1  0  0  0
 50 51  1  0  0  0
 50119  1  0  0  0
 50120  1  0  0  0
 51 52  1  0  0  0
 51121  1  0  0  0
 51122  1  0  0  0
 52123  1  0  0  0
 52124  1  0  0  0
 53 54  1  0  0  0
 54 55  2  0  0  0
 54125  1  0  0  0
 55 57  1  0  0  0
 55126  1  0  0  0
 56 69  2  0  0  0
 57 58  2  0  0  0
 57127  1  0  0  0
 58128  1  0  0  0
 59 60  1  0  0  0
 59 61  1  0  0  0
 59 62  1  0  0  0
 60129  1  0  0  0
 60130  1  0  0  0
 60131  1  0  0  0
 61132  1  0  0  0
 61133  1  0  0  0
 61134  1  0  0  0
 62135  1  0  0  0
 62136  1  0  0  0
 62137  1  0  0  0
 63 65  1  0  0  0
 63138  1  0  0  0
 63139  1  0  0  0
 63140  1  0  0  0
 64141  1  0  0  0
 65142  1  0  0  0
 68 80  1  0  0  0
 71 72  2  0  0  0
 71 74  1  0  0  0
 71143  1  0  0  0
 72 75  1  0  0  0
 72144  1  0  0  0
 73 75  2  0  0  0
 73 76  1  0  0  0
 73145  1  0  0  0
 74 76  2  0  0  0
 74 78  1  0  0  0
 75 82  1  0  0  0
 76 81  1  0  0  0
 77 79  1  0  0  0
 77 81  1  0  0  0
 77 83  2  0  0  0
 78146  1  0  0  0
 78147  1  0  0  0
 78148  1  0  0  0
 79 80  1  0  0  0
 79149  1  0  0  0
 79150  1  0  0  0
 80151  1  0  0  0
 80152  1  0  0  0
 81153  1  0  0  0
 82154  1  0  0  0
M  ISO  4   1 100  68 101  80 101  82 100
M  END
> <chiral flag>
0

> <version>
0

> <s_m_source_file>
/data/baiqing/PycharmProjects/Reinvent-master-3.2/result/LINK_invent/BTK/process_docking_weight1_custom_product_contain_oxygen_bond_distance_aromatic_linkinvent_7_9_3/rearranged_h_0065.sdf

> <i_m_source_file_index>
86

> <r_mmod_Potential_Energy-OPLS-2005>
157.177947998047

> <r_mmod_Stretch_Energy-OPLS-2005>
127.791641235352

> <r_mmod_Bend_Energy-OPLS-2005>
164.056900024414

> <r_mmod_Torsional_Energy-OPLS-2005>
252.723739624023

> <r_mmod_Improper_Torsional_Energy-OPLS-2005>
5.17714500427246

> <r_mmod_Van_der_Waal_Energy-OPLS-2005>
155.772583007812

> <r_mmod_Electrostatic_Energy-OPLS-2005>
-403.130828857422

> <r_mmod_Solvation_Energy-OPLS-2005>
-234.143692016602

> <b_mmod_Minimization_Converged-OPLS-2005>
0

> <r_mmod_RMS_Derivative-OPLS-2005>
2.58430528640747

$$$$
86
                    3D
 Structure written by MMmdl.
157166  0  0  1  0            999 V2000
  -30.6059  -14.7313   20.4640 C   0  0  0  0  0  0
  -30.4284  -12.4445   19.4842 C   0  0  0  0  0  0
  -29.5112  -12.5280   18.2431 C   0  0  0  0  0  0
  -28.0364  -12.3497   18.6498 C   0  0  0  0  0  0
  -27.6454  -13.2328   19.8649 C   0  0  2  0  0  0
  -28.6871  -13.1453   21.0030 C   0  0  0  0  0  0
  -25.2513  -13.8205   20.5698 C   0  0  0  0  0  0
  -24.1796  -13.0452   20.9170 C   0  0  0  0  0  0
  -24.6386  -11.6924   20.8712 C   0  0  0  0  0  0
  -23.9065  -10.4298   21.0372 C   0  0  0  0  0  0
  -24.3619   -9.4218   21.9156 C   0  0  0  0  0  0
  -23.6286   -8.2260   22.0747 C   0  0  0  0  0  0
  -22.4270   -8.0288   21.3540 C   0  0  0  0  0  0
  -21.9903   -9.0259   20.4639 C   0  0  0  0  0  0
  -22.7232  -10.2133   20.3028 C   0  0  0  0  0  0
  -21.6856   -6.0730   22.5263 C   0  0  0  0  0  0
  -21.4033   -6.5639   23.8198 C   0  0  0  0  0  0
  -21.3666   -5.6792   24.9161 C   0  0  0  0  0  0
  -21.6040   -4.3055   24.7216 C   0  0  0  0  0  0
  -21.8823   -3.8144   23.4341 C   0  0  0  0  0  0
  -21.9196   -4.6956   22.3391 C   0  0  0  0  0  0
  -22.7823  -13.5229   21.1844 C   0  0  0  0  0  0
  -22.1653   -4.2141   21.0965 F   0  0  0  0  0  0
  -21.5627   -3.4548   25.7735 F   0  0  0  0  0  0
  -29.9971  -13.4955   20.4371 N   0  0  0  0  0  0
  -26.2950  -12.9411   20.3340 N   0  0  0  0  0  0
  -25.9324  -11.6551   20.5760 N   0  0  0  0  0  0
  -22.0491  -12.8199   22.0402 N   0  0  0  0  0  0
  -25.4237  -15.1926   20.4117 N   0  0  0  0  0  0
  -31.7630  -14.8552   20.0506 O   0  0  0  0  0  0
  -21.6638   -6.8880   21.4229 O   0  0  0  0  0  0
  -22.3502  -14.5540   20.6700 O   0  0  0  0  0  0
  -24.6329  -31.8563   23.1986 C   0  0  0  0  0  0
  -25.9143  -32.4765   23.8340 C   0  0  1  0  0  0
  -27.2119  -27.2450   20.1216 C   0  0  0  0  0  0
  -25.5931  -33.8567   24.2258 N   0  0  0  0  0  0
  -23.4295  -30.4797   21.5448 C   0  0  2  0  0  0
  -24.8745  -28.9299   20.1081 C   0  0  0  0  0  0
  -22.7502  -29.4606   22.4920 C   0  0  0  0  0  0
  -18.0294  -28.1398   22.8496 C   0  0  0  0  0  0
  -24.1485  -36.7295   23.2642 C   0  0  0  0  0  0
  -25.9779  -30.7598   21.3850 C   0  0  0  0  0  0
  -26.0474  -29.3823   20.7253 C   0  0  0  0  0  0
  -27.2153  -28.5495   20.7279 C   0  0  0  0  0  0
  -26.0223  -26.8850   19.4445 C   0  0  0  0  0  0
  -24.8686  -27.6888   19.4585 C   0  0  0  0  0  0
  -23.6465  -29.8185   20.1597 C   0  0  0  0  0  0
  -25.4117  -36.3085   24.0319 C   0  0  1  0  0  0
  -20.5892  -28.3714   23.1269 C   0  0  2  0  0  0
  -20.6780  -26.9435   22.5414 C   0  0  0  0  0  0
  -19.5751  -26.6391   21.5224 C   0  0  0  0  0  0
  -18.1930  -26.7940   22.1629 C   0  0  0  0  0  0
  -19.1546  -28.8877   23.2871 C   0  0  0  0  0  0
  -18.9464  -30.1472   23.8893 C   0  0  0  0  0  0
  -17.6465  -30.6601   24.0565 C   0  0  0  0  0  0
  -25.9059  -34.9449   23.5098 C   0  0  0  0  0  0
  -16.5356  -29.9101   23.6333 C   0  0  0  0  0  0
  -16.7280  -28.6513   23.0366 C   0  0  0  0  0  0
  -26.4496  -31.6608   25.0751 C   0  0  0  0  0  0
  -25.3697  -31.3759   26.1460 C   0  0  0  0  0  0
  -27.0359  -30.3023   24.6256 C   0  0  0  0  0  0
  -27.6041  -32.4360   25.7524 C   0  0  0  0  0  0
  -27.5584  -37.1808   24.8464 C   0  0  0  0  0  0
  -21.4207  -29.3060   22.3657 N   0  0  0  0  0  0
  -26.4298  -37.3779   23.9405 N   0  0  0  0  0  0
  -24.6995  -31.0491   22.0991 N   0  0  0  0  0  0
  -23.4194  -28.8147   23.3025 O   0  0  0  0  0  0
  -28.2906  -26.3234   20.2128 O   0  0  0  0  0  0
  -26.5626  -34.8923   22.4665 O   0  0  0  0  0  0
  -23.5468  -32.1410   23.7251 O   0  0  0  0  0  0
  -29.2767  -16.9993   18.7500 C   0  0  0  0  0  0
  -29.6699  -18.4716   20.6500 C   0  0  0  0  0  0
  -28.9179  -18.1205   17.9694 C   0  0  0  0  0  0
  -29.3212  -19.6557   19.8676 C   0  0  0  0  0  0
  -29.6632  -17.1176   20.1010 C   0  0  0  0  0  0
  -28.9544  -19.4230   18.5198 C   0  0  0  0  0  0
  -30.2601  -23.3050   20.3454 C   0  0  0  0  0  0
  -30.5441  -21.7670   20.3465 C   0  0  0  0  0  0
  -28.2636  -22.1033   20.2022 C   0  0  0  0  0  0
  -28.7790  -23.5730   20.5633 C   0  0  2  0  0  0
  -28.0833  -24.8650   19.8575 C   0  0  0  0  0  0
  -28.4714  -17.9295   16.5241 C   0  0  0  0  0  0
  -29.3782  -21.0829   20.3085 N   0  0  0  0  0  0
  -29.8673  -15.8455   20.8388 N   0  0  0  0  0  0
  -31.1148  -24.1894   20.2099 O   0  0  0  0  0  0
  -31.6800  -21.2733   20.3878 O   0  0  0  0  0  0
  -28.6606  -20.4783   17.7219 F   0  0  0  0  0  0
  -28.4609  -16.6437   16.1665 F   0  0  0  0  0  0
  -27.2359  -18.4069   16.3675 F   0  0  0  0  0  0
  -29.2936  -18.5774   15.6983 F   0  0  0  0  0  0
  -31.4722  -12.5572   19.1886 H   0  0  0  0  0  0
  -30.3561  -11.4607   19.9505 H   0  0  0  0  0  0
  -29.7925  -11.7715   17.5095 H   0  0  0  0  0  0
  -29.6432  -13.4942   17.7525 H   0  0  0  0  0  0
  -27.8843  -11.2974   18.8935 H   0  0  0  0  0  0
  -27.3826  -12.5633   17.8031 H   0  0  0  0  0  0
  -27.6462  -14.2603   19.5023 H   0  0  0  0  0  0
  -28.7137  -12.1403   21.4256 H   0  0  0  0  0  0
  -28.4203  -13.8107   21.8249 H   0  0  0  0  0  0
  -25.2764   -9.5708   22.4725 H   0  0  0  0  0  0
  -23.9992   -7.4658   22.7477 H   0  0  0  0  0  0
  -21.0834   -8.8779   19.8943 H   0  0  0  0  0  0
  -22.3678  -10.9673   19.6141 H   0  0  0  0  0  0
  -21.2041   -7.6148   23.9707 H   0  0  0  0  0  0
  -21.1480   -6.0517   25.9060 H   0  0  0  0  0  0
  -22.0595   -2.7608   23.2836 H   0  0  0  0  0  0
  -22.4143  -11.9840   22.4725 H   0  0  0  0  0  0
  -21.1127  -13.1219   22.2691 H   0  0  0  0  0  0
  -24.6574  -15.8488   20.5150 H   0  0  0  0  0  0
  -26.2798  -15.6305   20.0977 H   0  0  0  0  0  0
  -26.7217  -32.5400   23.1087 H   0  0  0  0  0  0
  -25.0079  -33.9719   25.0400 H   0  0  0  0  0  0
  -22.7272  -31.3028   21.4008 H   0  0  0  0  0  0
  -23.3757  -35.9619   23.3301 H   0  0  0  0  0  0
  -24.3570  -36.8934   22.2060 H   0  0  0  0  0  0
  -23.7231  -37.6489   23.6674 H   0  0  0  0  0  0
  -26.1185  -31.5169   20.6123 H   0  0  0  0  0  0
  -26.8554  -30.8086   22.0187 H   0  0  0  0  0  0
  -28.1073  -28.8837   21.2386 H   0  0  0  0  0  0
  -25.9384  -25.9587   18.8975 H   0  0  0  0  0  0
  -23.9761  -27.3416   18.9559 H   0  0  0  0  0  0
  -23.7713  -30.5986   19.4074 H   0  0  0  0  0  0
  -22.7629  -29.2565   19.8540 H   0  0  0  0  0  0
  -25.1295  -36.1944   25.0809 H   0  0  0  0  0  0
  -20.9982  -28.3313   24.1389 H   0  0  0  0  0  0
  -20.5704  -26.2334   23.3624 H   0  0  0  0  0  0
  -21.6645  -26.7469   22.1197 H   0  0  0  0  0  0
  -19.6910  -25.6298   21.1268 H   0  0  0  0  0  0
  -19.6680  -27.3183   20.6738 H   0  0  0  0  0  0
  -17.4200  -26.6706   21.4030 H   0  0  0  0  0  0
  -18.0306  -26.0082   22.9025 H   0  0  0  0  0  0
  -19.7941  -30.7286   24.2266 H   0  0  0  0  0  0
  -17.5025  -31.6281   24.5172 H   0  0  0  0  0  0
  -15.5361  -30.3006   23.7656 H   0  0  0  0  0  0
  -15.8678  -28.0825   22.7095 H   0  0  0  0  0  0
  -24.5875  -30.7106   25.7787 H   0  0  0  0  0  0
  -24.8875  -32.2930   26.4857 H   0  0  0  0  0  0
  -25.7995  -30.8963   27.0264 H   0  0  0  0  0  0
  -26.2967  -29.6764   24.1244 H   0  0  0  0  0  0
  -27.4011  -29.7285   25.4786 H   0  0  0  0  0  0
  -27.8846  -30.4307   23.9531 H   0  0  0  0  0  0
  -27.2648  -33.3675   26.2055 H   0  0  0  0  0  0
  -28.3865  -32.6906   25.0366 H   0  0  0  0  0  0
  -28.0689  -31.8525   26.5482 H   0  0  0  0  0  0
  -28.2597  -38.0111   24.7525 H   0  0  0  0  0  0
  -28.1091  -36.2648   24.6280 H   0  0  0  0  0  0
  -27.2296  -37.1432   25.8864 H   0  0  0  0  0  0
  -20.9397  -29.8804   21.6874 H   0  0  0  0  0  0
  -26.0184  -38.2856   24.1411 H   0  0  0  0  0  0
  -29.2191  -16.0208   18.2984 H   0  0  0  0  0  0
  -29.9420  -18.6076   21.6876 H   0  0  0  0  0  0
  -27.8438  -22.1053   19.1964 H   0  0  0  0  0  0
  -27.4532  -21.8139   20.8704 H   0  0  0  0  0  0
  -28.6670  -23.6995   21.6398 H   0  0  0  0  0  0
  -27.0343  -24.6338   20.0307 H   0  0  0  0  0  0
  -28.2251  -24.7815   18.7793 H   0  0  0  0  0  0
  -29.0913  -15.6067   21.4401 H   0  0  0  0  0  0
  1 25  1  0  0  0
  1 30  2  0  0  0
  1 84  1  0  0  0
  2  3  1  0  0  0
  2 25  1  0  0  0
  2 91  1  0  0  0
  2 92  1  0  0  0
  3  4  1  0  0  0
  3 93  1  0  0  0
  3 94  1  0  0  0
  4  5  1  0  0  0
  4 95  1  0  0  0
  4 96  1  0  0  0
  5  6  1  0  0  0
  5 26  1  0  0  0
  5 97  1  0  0  0
  6 25  1  0  0  0
  6 98  1  0  0  0
  6 99  1  0  0  0
  7  8  2  0  0  0
  7 26  1  0  0  0
  7 29  1  0  0  0
  8  9  1  0  0  0
  8 22  1  0  0  0
  9 10  1  0  0  0
  9 27  2  0  0  0
 10 11  2  0  0  0
 10 15  1  0  0  0
 11 12  1  0  0  0
 11100  1  0  0  0
 12 13  2  0  0  0
 12101  1  0  0  0
 13 14  1  0  0  0
 13 31  1  0  0  0
 14 15  2  0  0  0
 14102  1  0  0  0
 15103  1  0  0  0
 16 17  2  0  0  0
 16 21  1  0  0  0
 16 31  1  0  0  0
 17 18  1  0  0  0
 17104  1  0  0  0
 18 19  2  0  0  0
 18105  1  0  0  0
 19 20  1  0  0  0
 19 24  1  0  0  0
 20 21  2  0  0  0
 20106  1  0  0  0
 21 23  1  0  0  0
 22 28  1  0  0  0
 22 32  2  0  0  0
 26 27  1  0  0  0
 28107  1  0  0  0
 28108  1  0  0  0
 29109  1  0  0  0
 29110  1  0  0  0
 33 34  1  0  0  0
 33 66  1  0  0  0
 33 70  2  0  0  0
 34 36  1  0  0  0
 34 59  1  0  0  0
 34111  1  0  0  0
 35 44  2  0  0  0
 35 45  1  0  0  0
 35 68  1  0  0  0
 36 56  1  0  0  0
 36112  1  0  0  0
 37 39  1  0  0  0
 37 47  1  0  0  0
 37 66  1  0  0  0
 37113  1  0  0  0
 38 43  2  0  0  0
 38 46  1  0  0  0
 38 47  1  0  0  0
 39 64  1  0  0  0
 39 67  2  0  0  0
 40 52  1  0  0  0
 40 53  2  0  0  0
 40 58  1  0  0  0
 41114  1  0  0  0
 41115  1  0  0  0
 41116  1  0  0  0
 41 48  1  0  0  0
 42 43  1  0  0  0
 42 66  1  0  0  0
 42117  1  0  0  0
 42118  1  0  0  0
 43 44  1  0  0  0
 44119  1  0  0  0
 45 46  2  0  0  0
 45120  1  0  0  0
 46121  1  0  0  0
 47122  1  0  0  0
 47123  1  0  0  0
 48 56  1  0  0  0
 48 65  1  0  0  0
 48124  1  0  0  0
 49 50  1  0  0  0
 49 53  1  0  0  0
 49 64  1  0  0  0
 49125  1  0  0  0
 50 51  1  0  0  0
 50126  1  0  0  0
 50127  1  0  0  0
 51 52  1  0  0  0
 51128  1  0  0  0
 51129  1  0  0  0
 52130  1  0  0  0
 52131  1  0  0  0
 53 54  1  0  0  0
 54 55  2  0  0  0
 54132  1  0  0  0
 55 57  1  0  0  0
 55133  1  0  0  0
 56 69  2  0  0  0
 57 58  2  0  0  0
 57134  1  0  0  0
 58135  1  0  0  0
 59 60  1  0  0  0
 59 61  1  0  0  0
 59 62  1  0  0  0
 60136  1  0  0  0
 60137  1  0  0  0
 60138  1  0  0  0
 61139  1  0  0  0
 61140  1  0  0  0
 61141  1  0  0  0
 62142  1  0  0  0
 62143  1  0  0  0
 62144  1  0  0  0
 63 65  1  0  0  0
 63145  1  0  0  0
 63146  1  0  0  0
 63147  1  0  0  0
 64148  1  0  0  0
 65149  1  0  0  0
 68 81  1  0  0  0
 71 73  2  0  0  0
 71 75  1  0  0  0
 71150  1  0  0  0
 72 74  1  0  0  0
 72 75  2  0  0  0
 72151  1  0  0  0
 73 76  1  0  0  0
 73 82  1  0  0  0
 74 76  2  0  0  0
 74 83  1  0  0  0
 75 84  1  0  0  0
 76 87  1  0  0  0
 77 78  1  0  0  0
 77 80  1  0  0  0
 77 85  2  0  0  0
 78 83  1  0  0  0
 78 86  2  0  0  0
 79 80  1  0  0  0
 79 83  1  0  0  0
 79152  1  0  0  0
 79153  1  0  0  0
 80 81  1  0  0  0
 80154  1  0  0  0
 81155  1  0  0  0
 81156  1  0  0  0
 82 88  1  0  0  0
 82 89  1  0  0  0
 82 90  1  0  0  0
 84157  1  0  0  0
M  ISO  4   1 100  68 101  81 101  84 100
M  END
> <chiral flag>
0

> <version>
0

> <s_m_source_file>
/data/baiqing/PycharmProjects/Reinvent-master-3.2/result/LINK_invent/BTK/process_docking_weight1_custom_product_contain_oxygen_bond_distance_aromatic_linkinvent_7_9_3/rearranged_h_0065.sdf

> <i_m_source_file_index>
87

> <r_mmod_Potential_Energy-OPLS-2005>
306.754577636719

> <r_mmod_Stretch_Energy-OPLS-2005>
129.650543212891

> <r_mmod_Bend_Energy-OPLS-2005>
202.36491394043

> <r_mmod_Torsional_Energy-OPLS-2005>
296.495819091797

> <r_mmod_Improper_Torsional_Energy-OPLS-2005>
7.00942802429199

> <r_mmod_Van_der_Waal_Energy-OPLS-2005>
136.418838500977

> <r_mmod_Electrostatic_Energy-OPLS-2005>
-293.153350830078

> <r_mmod_Solvation_Energy-OPLS-2005>
-260.616912841797

> <b_mmod_Minimization_Converged-OPLS-2005>
0

> <r_mmod_RMS_Derivative-OPLS-2005>
1.60860586166382

$$$$
88
                    3D
 Structure written by MMmdl.
162171  0  0  1  0            999 V2000
  -30.6510  -14.5305   20.4464 C   0  0  0  0  0  0
  -30.4195  -12.2873   19.4685 C   0  0  0  0  0  0
  -29.5103  -12.4886   18.2335 C   0  0  0  0  0  0
  -28.0240  -12.3635   18.6244 C   0  0  0  0  0  0
  -27.6590  -13.2118   19.8709 C   0  0  2  0  0  0
  -28.6994  -13.0312   21.0024 C   0  0  0  0  0  0
  -25.2547  -13.8171   20.5639 C   0  0  0  0  0  0
  -24.1815  -13.0446   20.9177 C   0  0  0  0  0  0
  -24.6387  -11.6916   20.8737 C   0  0  0  0  0  0
  -23.9065  -10.4301   21.0413 C   0  0  0  0  0  0
  -24.3620   -9.4228   21.9207 C   0  0  0  0  0  0
  -23.6303   -8.2258   22.0771 C   0  0  0  0  0  0
  -22.4278   -8.0294   21.3561 C   0  0  0  0  0  0
  -21.9905   -9.0272   20.4660 C   0  0  0  0  0  0
  -22.7238  -10.2148   20.3070 C   0  0  0  0  0  0
  -21.6852   -6.0751   22.5290 C   0  0  0  0  0  0
  -21.4009   -6.5665   23.8221 C   0  0  0  0  0  0
  -21.3644   -5.6822   24.9187 C   0  0  0  0  0  0
  -21.6035   -4.3084   24.7240 C   0  0  0  0  0  0
  -21.8812   -3.8165   23.4363 C   0  0  0  0  0  0
  -21.9185   -4.6978   22.3414 C   0  0  0  0  0  0
  -22.7837  -13.5234   21.1875 C   0  0  0  0  0  0
  -22.1666   -4.2163   21.0993 F   0  0  0  0  0  0
  -21.5615   -3.4567   25.7754 F   0  0  0  0  0  0
  -30.0438  -13.3076   20.4666 N   0  0  0  0  0  0
  -26.3002  -12.9354   20.3331 N   0  0  0  0  0  0
  -25.9312  -11.6504   20.5746 N   0  0  0  0  0  0
  -22.0489  -12.8200   22.0431 N   0  0  0  0  0  0
  -25.4219  -15.1876   20.3980 N   0  0  0  0  0  0
  -31.8305  -14.5881   20.0969 O   0  0  0  0  0  0
  -21.6654   -6.8881   21.4241 O   0  0  0  0  0  0
  -22.3496  -14.5546   20.6755 O   0  0  0  0  0  0
  -24.6133  -31.8686   23.2089 C   0  0  0  0  0  0
  -25.9028  -32.4831   23.8391 C   0  0  1  0  0  0
  -27.2387  -27.4403   20.1112 C   0  0  0  0  0  0
  -25.5886  -33.8630   24.2318 N   0  0  0  0  0  0
  -23.4030  -30.4915   21.5455 C   0  0  2  0  0  0
  -24.8555  -28.9576   20.1111 C   0  0  0  0  0  0
  -22.7411  -29.4669   22.4947 C   0  0  0  0  0  0
  -18.0280  -28.1387   22.8491 C   0  0  0  0  0  0
  -24.1487  -36.7310   23.2638 C   0  0  0  0  0  0
  -25.9309  -30.8381   21.3617 C   0  0  0  0  0  0
  -26.0123  -29.4725   20.7110 C   0  0  0  0  0  0
  -27.2089  -28.7192   20.7124 C   0  0  0  0  0  0
  -26.0736  -26.9406   19.4975 C   0  0  0  0  0  0
  -24.8802  -27.6900   19.5015 C   0  0  0  0  0  0
  -23.6150  -29.8219   20.1604 C   0  0  0  0  0  0
  -25.4105  -36.3115   24.0342 C   0  0  1  0  0  0
  -20.5869  -28.3676   23.1303 C   0  0  2  0  0  0
  -20.6768  -26.9405   22.5414 C   0  0  0  0  0  0
  -19.5747  -26.6389   21.5216 C   0  0  0  0  0  0
  -18.1924  -26.7935   22.1624 C   0  0  0  0  0  0
  -19.1523  -28.8847   23.2904 C   0  0  0  0  0  0
  -18.9458  -30.1451   23.8919 C   0  0  0  0  0  0
  -17.6462  -30.6591   24.0574 C   0  0  0  0  0  0
  -25.9034  -34.9483   23.5129 C   0  0  0  0  0  0
  -16.5354  -29.9095   23.6330 C   0  0  0  0  0  0
  -16.7267  -28.6511   23.0349 C   0  0  0  0  0  0
  -26.4459  -31.6613   25.0719 C   0  0  0  0  0  0
  -25.3731  -31.3720   26.1470 C   0  0  0  0  0  0
  -27.0273  -30.3052   24.6086 C   0  0  0  0  0  0
  -27.6027  -32.4335   25.7488 C   0  0  0  0  0  0
  -27.5585  -37.1799   24.8458 C   0  0  0  0  0  0
  -21.4137  -29.3047   22.3697 N   0  0  0  0  0  0
  -26.4287  -37.3801   23.9421 N   0  0  0  0  0  0
  -24.6667  -31.0797   22.0975 N   0  0  0  0  0  0
  -23.4182  -28.8210   23.2991 O   0  0  0  0  0  0
  -28.3609  -26.6444   20.1592 O   0  0  0  0  0  0
  -26.5598  -34.8932   22.4690 O   0  0  0  0  0  0
  -23.5325  -32.1421   23.7492 O   0  0  0  0  0  0
  -30.7926  -20.5703   20.6695 C   0  0  0  0  0  0
  -30.8594  -19.2362   20.2130 C   0  0  0  0  0  0
  -28.5504  -20.1567   21.5085 C   0  0  0  0  0  0
  -28.6024  -18.8187   21.0416 C   0  0  0  0  0  0
  -29.6272  -21.0492   21.3018 C   0  0  0  0  0  0
  -29.7623  -18.3507   20.3592 C   0  0  0  0  0  0
  -29.7220  -24.3670   22.9354 C   0  0  0  0  0  0
  -29.7339  -22.8388   22.9696 C   0  0  0  0  0  0
  -29.3262  -23.5188   20.7510 C   0  0  0  0  0  0
  -29.5868  -24.8634   21.4939 C   0  0  2  0  0  0
  -27.3802  -17.9409   21.2492 C   0  0  0  0  0  0
  -30.9224  -25.5061   21.0577 C   0  0  0  0  0  0
  -28.4371  -25.9157   21.3979 C   0  0  0  0  0  0
  -29.8519  -15.6202   20.5773 N   0  5  0  0  0  0
  -29.5434  -22.4188   21.7077 N   0  0  0  0  0  0
  -29.8433  -25.1035   23.9236 O   0  0  0  0  0  0
  -29.8947  -22.1492   23.9868 O   0  0  0  0  0  0
  -28.5657  -16.7154   18.6694 O   0  0  0  0  0  0
  -31.0469  -16.8539   18.6012 O   0  0  0  0  0  0
  -29.8280  -16.7678   19.4279 S   0  0  0  0  0  0
  -31.4712  -12.3421   19.1821 H   0  0  0  0  0  0
  -30.2830  -11.2882   19.8855 H   0  0  0  0  0  0
  -29.7536  -11.7543   17.4654 H   0  0  0  0  0  0
  -29.6932  -13.4693   17.7908 H   0  0  0  0  0  0
  -27.8187  -11.3092   18.8155 H   0  0  0  0  0  0
  -27.3884  -12.6475   17.7848 H   0  0  0  0  0  0
  -27.6827  -14.2533   19.5555 H   0  0  0  0  0  0
  -28.6668  -12.0141   21.3976 H   0  0  0  0  0  0
  -28.4710  -13.6892   21.8426 H   0  0  0  0  0  0
  -25.2753   -9.5724   22.4799 H   0  0  0  0  0  0
  -24.0022   -7.4639   22.7479 H   0  0  0  0  0  0
  -21.0842   -8.8775   19.8964 H   0  0  0  0  0  0
  -22.3693  -10.9690   19.6180 H   0  0  0  0  0  0
  -21.2014   -7.6175   23.9728 H   0  0  0  0  0  0
  -21.1457   -6.0565   25.9088 H   0  0  0  0  0  0
  -22.0595   -2.7627   23.2876 H   0  0  0  0  0  0
  -22.4147  -11.9846   22.4748 H   0  0  0  0  0  0
  -21.1115  -13.1204   22.2701 H   0  0  0  0  0  0
  -24.6569  -15.8435   20.5028 H   0  0  0  0  0  0
  -26.2775  -15.6180   20.0645 H   0  0  0  0  0  0
  -26.7107  -32.5551   23.1162 H   0  0  0  0  0  0
  -25.0058  -33.9803   25.0476 H   0  0  0  0  0  0
  -22.6912  -31.3075   21.4033 H   0  0  0  0  0  0
  -23.3760  -35.9633   23.3301 H   0  0  0  0  0  0
  -24.3584  -36.8920   22.2051 H   0  0  0  0  0  0
  -23.7227  -37.6511   23.6648 H   0  0  0  0  0  0
  -26.0417  -31.6047   20.5933 H   0  0  0  0  0  0
  -26.8193  -30.8937   21.9797 H   0  0  0  0  0  0
  -28.0989  -29.1068   21.1874 H   0  0  0  0  0  0
  -26.0853  -25.9616   19.0397 H   0  0  0  0  0  0
  -23.9894  -27.2839   19.0426 H   0  0  0  0  0  0
  -23.7229  -30.5966   19.4006 H   0  0  0  0  0  0
  -22.7412  -29.2407   19.8626 H   0  0  0  0  0  0
  -25.1280  -36.1977   25.0836 H   0  0  0  0  0  0
  -20.9984  -28.3259   24.1416 H   0  0  0  0  0  0
  -20.5676  -26.2290   23.3610 H   0  0  0  0  0  0
  -21.6637  -26.7447   22.1203 H   0  0  0  0  0  0
  -19.6908  -25.6303   21.1241 H   0  0  0  0  0  0
  -19.6694  -27.3208   20.6754 H   0  0  0  0  0  0
  -17.4196  -26.6699   21.4022 H   0  0  0  0  0  0
  -18.0314  -26.0070   22.9010 H   0  0  0  0  0  0
  -19.7942  -30.7259   24.2297 H   0  0  0  0  0  0
  -17.5024  -31.6275   24.5169 H   0  0  0  0  0  0
  -15.5356  -30.3010   23.7645 H   0  0  0  0  0  0
  -15.8670  -28.0847   22.7051 H   0  0  0  0  0  0
  -24.5916  -30.7047   25.7812 H   0  0  0  0  0  0
  -24.8915  -32.2882   26.4904 H   0  0  0  0  0  0
  -25.8098  -30.8909   27.0234 H   0  0  0  0  0  0
  -26.2808  -29.6840   24.1121 H   0  0  0  0  0  0
  -27.4015  -29.7257   25.4535 H   0  0  0  0  0  0
  -27.8657  -30.4356   23.9239 H   0  0  0  0  0  0
  -27.2634  -33.3628   26.2076 H   0  0  0  0  0  0
  -28.3838  -32.6912   25.0325 H   0  0  0  0  0  0
  -28.0693  -31.8462   26.5406 H   0  0  0  0  0  0
  -28.2578  -38.0122   24.7549 H   0  0  0  0  0  0
  -28.1106  -36.2655   24.6224 H   0  0  0  0  0  0
  -27.2315  -37.1374   25.8863 H   0  0  0  0  0  0
  -20.9285  -29.8763   21.6924 H   0  0  0  0  0  0
  -26.0179  -38.2873   24.1457 H   0  0  0  0  0  0
  -31.6356  -21.2323   20.5145 H   0  0  0  0  0  0
  -31.7456  -18.9116   19.6866 H   0  0  0  0  0  0
  -27.6562  -20.5149   22.0004 H   0  0  0  0  0  0
  -29.9810  -23.3963   19.8882 H   0  0  0  0  0  0
  -28.3014  -23.4654   20.3818 H   0  0  0  0  0  0
  -27.6669  -16.9521   21.6072 H   0  0  0  0  0  0
  -26.8231  -17.8290   20.3181 H   0  0  0  0  0  0
  -26.6998  -18.3663   21.9876 H   0  0  0  0  0  0
  -31.7708  -24.8403   21.2238 H   0  0  0  0  0  0
  -31.1187  -26.4270   21.6100 H   0  0  0  0  0  0
  -30.9057  -25.7591   19.9979 H   0  0  0  0  0  0
  -28.5605  -26.6543   22.1937 H   0  0  0  0  0  0
  -27.4819  -25.4227   21.5946 H   0  0  0  0  0  0
  1 25  1  0  0  0
  1 30  2  0  0  0
  1 84  1  0  0  0
  2  3  1  0  0  0
  2 25  1  0  0  0
  2 91  1  0  0  0
  2 92  1  0  0  0
  3  4  1  0  0  0
  3 93  1  0  0  0
  3 94  1  0  0  0
  4  5  1  0  0  0
  4 95  1  0  0  0
  4 96  1  0  0  0
  5  6  1  0  0  0
  5 26  1  0  0  0
  5 97  1  0  0  0
  6 25  1  0  0  0
  6 98  1  0  0  0
  6 99  1  0  0  0
  7  8  2  0  0  0
  7 26  1  0  0  0
  7 29  1  0  0  0
  8  9  1  0  0  0
  8 22  1  0  0  0
  9 10  1  0  0  0
  9 27  2  0  0  0
 10 11  2  0  0  0
 10 15  1  0  0  0
 11 12  1  0  0  0
 11100  1  0  0  0
 12 13  2  0  0  0
 12101  1  0  0  0
 13 14  1  0  0  0
 13 31  1  0  0  0
 14 15  2  0  0  0
 14102  1  0  0  0
 15103  1  0  0  0
 16 17  2  0  0  0
 16 21  1  0  0  0
 16 31  1  0  0  0
 17 18  1  0  0  0
 17104  1  0  0  0
 18 19  2  0  0  0
 18105  1  0  0  0
 19 20  1  0  0  0
 19 24  1  0  0  0
 20 21  2  0  0  0
 20106  1  0  0  0
 21 23  1  0  0  0
 22 28  1  0  0  0
 22 32  2  0  0  0
 26 27  1  0  0  0
 28107  1  0  0  0
 28108  1  0  0  0
 29109  1  0  0  0
 29110  1  0  0  0
 33 34  1  0  0  0
 33 66  1  0  0  0
 33 70  2  0  0  0
 34 36  1  0  0  0
 34 59  1  0  0  0
 34111  1  0  0  0
 35 44  2  0  0  0
 35 45  1  0  0  0
 35 68  1  0  0  0
 36 56  1  0  0  0
 36112  1  0  0  0
 37 39  1  0  0  0
 37 47  1  0  0  0
 37 66  1  0  0  0
 37113  1  0  0  0
 38 43  2  0  0  0
 38 46  1  0  0  0
 38 47  1  0  0  0
 39 64  1  0  0  0
 39 67  2  0  0  0
 40 52  1  0  0  0
 40 53  2  0  0  0
 40 58  1  0  0  0
 41114  1  0  0  0
 41115  1  0  0  0
 41116  1  0  0  0
 41 48  1  0  0  0
 42 43  1  0  0  0
 42 66  1  0  0  0
 42117  1  0  0  0
 42118  1  0  0  0
 43 44  1  0  0  0
 44119  1  0  0  0
 45 46  2  0  0  0
 45120  1  0  0  0
 46121  1  0  0  0
 47122  1  0  0  0
 47123  1  0  0  0
 48 56  1  0  0  0
 48 65  1  0  0  0
 48124  1  0  0  0
 49 50  1  0  0  0
 49 53  1  0  0  0
 49 64  1  0  0  0
 49125  1  0  0  0
 50 51  1  0  0  0
 50126  1  0  0  0
 50127  1  0  0  0
 51 52  1  0  0  0
 51128  1  0  0  0
 51129  1  0  0  0
 52130  1  0  0  0
 52131  1  0  0  0
 53 54  1  0  0  0
 54 55  2  0  0  0
 54132  1  0  0  0
 55 57  1  0  0  0
 55133  1  0  0  0
 56 69  2  0  0  0
 57 58  2  0  0  0
 57134  1  0  0  0
 58135  1  0  0  0
 59 60  1  0  0  0
 59 61  1  0  0  0
 59 62  1  0  0  0
 60136  1  0  0  0
 60137  1  0  0  0
 60138  1  0  0  0
 61139  1  0  0  0
 61140  1  0  0  0
 61141  1  0  0  0
 62142  1  0  0  0
 62143  1  0  0  0
 62144  1  0  0  0
 63 65  1  0  0  0
 63145  1  0  0  0
 63146  1  0  0  0
 63147  1  0  0  0
 64148  1  0  0  0
 65149  1  0  0  0
 68 83  1  0  0  0
 71 72  2  0  0  0
 71 75  1  0  0  0
 71150  1  0  0  0
 72 76  1  0  0  0
 72151  1  0  0  0
 73 74  1  0  0  0
 73 75  2  0  0  0
 73152  1  0  0  0
 74 76  2  0  0  0
 74 81  1  0  0  0
 75 85  1  0  0  0
 76 90  1  0  0  0
 77 78  1  0  0  0
 77 80  1  0  0  0
 77 86  2  0  0  0
 78 85  1  0  0  0
 78 87  2  0  0  0
 79 80  1  0  0  0
 79 85  1  0  0  0
 79153  1  0  0  0
 79154  1  0  0  0
 80 82  1  0  0  0
 80 83  1  0  0  0
 81155  1  0  0  0
 81156  1  0  0  0
 81157  1  0  0  0
 82158  1  0  0  0
 82159  1  0  0  0
 82160  1  0  0  0
 83161  1  0  0  0
 83162  1  0  0  0
 84 90  1  0  0  0
 88 90  2  0  0  0
 89 90  2  0  0  0
M  CHG  1  84  -1
M  ISO  4   1 100  68 101  83 101  84 100
M  END
> <chiral flag>
0

> <version>
0

> <s_m_source_file>
/data/baiqing/PycharmProjects/Reinvent-master-3.2/result/LINK_invent/BTK/process_docking_weight1_custom_product_contain_oxygen_bond_distance_aromatic_linkinvent_7_9_3/rearranged_h_0065.sdf

> <i_m_source_file_index>
88

> <r_mmod_Potential_Energy-OPLS-2005>
-37.5778923034668

> <r_mmod_Stretch_Energy-OPLS-2005>
44.0954818725586

> <r_mmod_Bend_Energy-OPLS-2005>
129.954254150391

> <r_mmod_Torsional_Energy-OPLS-2005>
344.707672119141

> <r_mmod_Improper_Torsional_Energy-OPLS-2005>
8.17442512512207

> <r_mmod_Van_der_Waal_Energy-OPLS-2005>
132.837753295898

> <r_mmod_Electrostatic_Energy-OPLS-2005>
-265.845764160156

> <r_mmod_Solvation_Energy-OPLS-2005>
-454.503387451172

> <b_mmod_Minimization_Converged-OPLS-2005>
0

> <r_mmod_RMS_Derivative-OPLS-2005>
2.20994281768799

$$$$
89
                    3D
 Structure written by MMmdl.
156164  0  0  1  0            999 V2000
  -30.6873  -14.5160   20.5113 C   0  0  0  0  0  0
  -30.4189  -12.3128   19.4302 C   0  0  0  0  0  0
  -29.4936  -12.4754   18.2076 C   0  0  0  0  0  0
  -28.0159  -12.3368   18.6252 C   0  0  0  0  0  0
  -27.6549  -13.2053   19.8590 C   0  0  2  0  0  0
  -28.7003  -13.0404   20.9852 C   0  0  0  0  0  0
  -25.2591  -13.8168   20.5660 C   0  0  0  0  0  0
  -24.1846  -13.0441   20.9196 C   0  0  0  0  0  0
  -24.6404  -11.6916   20.8760 C   0  0  0  0  0  0
  -23.9064  -10.4299   21.0418 C   0  0  0  0  0  0
  -24.3620   -9.4216   21.9200 C   0  0  0  0  0  0
  -23.6291   -8.2251   22.0768 C   0  0  0  0  0  0
  -22.4275   -8.0299   21.3547 C   0  0  0  0  0  0
  -21.9920   -9.0269   20.4641 C   0  0  0  0  0  0
  -22.7248  -10.2149   20.3058 C   0  0  0  0  0  0
  -21.6852   -6.0753   22.5284 C   0  0  0  0  0  0
  -21.4010   -6.5652   23.8217 C   0  0  0  0  0  0
  -21.3653   -5.6803   24.9176 C   0  0  0  0  0  0
  -21.6039   -4.3061   24.7220 C   0  0  0  0  0  0
  -21.8820   -3.8164   23.4337 C   0  0  0  0  0  0
  -21.9188   -4.6985   22.3399 C   0  0  0  0  0  0
  -22.7870  -13.5259   21.1834 C   0  0  0  0  0  0
  -22.1662   -4.2171   21.0972 F   0  0  0  0  0  0
  -21.5627   -3.4539   25.7723 F   0  0  0  0  0  0
  -30.0200  -13.3339   20.4108 N   0  0  0  0  0  0
  -26.3001  -12.9325   20.3300 N   0  0  0  0  0  0
  -25.9329  -11.6496   20.5765 N   0  0  0  0  0  0
  -22.0492  -12.8244   22.0376 N   0  0  0  0  0  0
  -25.4302  -15.1876   20.4059 N   0  0  0  0  0  0
  -31.8588  -14.6439   20.1446 O   0  0  0  0  0  0
  -21.6643   -6.8903   21.4244 O   0  0  0  0  0  0
  -22.3564  -14.5568   20.6691 O   0  0  0  0  0  0
  -24.6189  -31.8654   23.2071 C   0  0  0  0  0  0
  -25.9075  -32.4804   23.8371 C   0  0  1  0  0  0
  -27.2383  -27.4041   20.0443 C   0  0  0  0  0  0
  -25.5884  -33.8599   24.2300 N   0  0  0  0  0  0
  -23.4069  -30.4897   21.5505 C   0  0  2  0  0  0
  -24.8475  -28.9437   20.1210 C   0  0  0  0  0  0
  -22.7428  -29.4664   22.4993 C   0  0  0  0  0  0
  -18.0279  -28.1364   22.8476 C   0  0  0  0  0  0
  -24.1485  -36.7313   23.2640 C   0  0  0  0  0  0
  -25.9420  -30.8120   21.3663 C   0  0  0  0  0  0
  -26.0158  -29.4448   20.7056 C   0  0  0  0  0  0
  -27.2087  -28.6797   20.6668 C   0  0  0  0  0  0
  -26.0325  -26.9136   19.4875 C   0  0  0  0  0  0
  -24.8502  -27.6752   19.5188 C   0  0  0  0  0  0
  -23.6153  -29.8187   20.1681 C   0  0  0  0  0  0
  -25.4111  -36.3101   24.0328 C   0  0  1  0  0  0
  -20.5864  -28.3651   23.1310 C   0  0  2  0  0  0
  -20.6766  -26.9381   22.5410 C   0  0  0  0  0  0
  -19.5737  -26.6371   21.5198 C   0  0  0  0  0  0
  -18.1909  -26.7906   22.1614 C   0  0  0  0  0  0
  -19.1522  -28.8825   23.2887 C   0  0  0  0  0  0
  -18.9458  -30.1435   23.8897 C   0  0  0  0  0  0
  -17.6467  -30.6575   24.0547 C   0  0  0  0  0  0
  -25.9032  -34.9468   23.5122 C   0  0  0  0  0  0
  -16.5353  -29.9068   23.6318 C   0  0  0  0  0  0
  -16.7273  -28.6482   23.0338 C   0  0  0  0  0  0
  -26.4474  -31.6612   25.0731 C   0  0  0  0  0  0
  -25.3712  -31.3719   26.1463 C   0  0  0  0  0  0
  -27.0310  -30.3045   24.6146 C   0  0  0  0  0  0
  -27.6042  -32.4337   25.7501 C   0  0  0  0  0  0
  -27.5576  -37.1820   24.8465 C   0  0  0  0  0  0
  -21.4149  -29.3044   22.3723 N   0  0  0  0  0  0
  -26.4302  -37.3779   23.9394 N   0  0  0  0  0  0
  -24.6748  -31.0710   22.1000 N   0  0  0  0  0  0
  -23.4202  -28.8198   23.3032 O   0  0  0  0  0  0
  -28.4348  -26.6956   20.0174 O   0  0  0  0  0  0
  -26.5614  -34.8927   22.4702 O   0  0  0  0  0  0
  -23.5360  -32.1424   23.7432 O   0  0  0  0  0  0
  -31.4366  -17.1830   21.9074 C   0  0  0  0  0  0
  -31.9529  -18.4777   22.0816 C   0  0  0  0  0  0
  -29.8208  -18.0535   20.2971 C   0  0  0  0  0  0
  -30.3991  -16.9441   20.9825 C   0  0  0  0  0  0
  -31.4326  -19.5629   21.3501 C   0  0  0  0  0  0
  -30.3106  -19.3809   20.4937 C   0  0  0  0  0  0
  -29.2712  -21.6517   20.3014 C   0  0  0  0  0  0
  -28.9790  -22.8551   19.3606 C   0  0  0  0  0  0
  -28.8246  -24.2237   20.1082 C   0  0  0  0  0  0
  -28.6068  -25.4884   19.2285 C   0  0  0  0  0  0
  -32.0888  -20.7890   21.4571 N   0  0  0  0  0  0
  -29.7444  -20.4968   19.7727 N   0  0  0  0  0  0
  -29.9275  -15.6005   20.8012 N   0  0  0  0  0  0
  -29.0382  -21.7655   21.5073 O   0  0  0  0  0  0
  -31.4656  -12.3990   19.1337 H   0  0  0  0  0  0
  -30.3121  -11.3186   19.8642 H   0  0  0  0  0  0
  -29.7374  -11.7279   17.4523 H   0  0  0  0  0  0
  -29.6566  -13.4483   17.7419 H   0  0  0  0  0  0
  -27.8389  -11.2843   18.8490 H   0  0  0  0  0  0
  -27.3619  -12.5794   17.7861 H   0  0  0  0  0  0
  -27.6816  -14.2414   19.5227 H   0  0  0  0  0  0
  -28.6884  -12.0228   21.3778 H   0  0  0  0  0  0
  -28.4721  -13.6897   21.8325 H   0  0  0  0  0  0
  -25.2763   -9.5696   22.4780 H   0  0  0  0  0  0
  -23.9994   -7.4652   22.7497 H   0  0  0  0  0  0
  -21.0856   -8.8791   19.8936 H   0  0  0  0  0  0
  -22.3715  -10.9696   19.6168 H   0  0  0  0  0  0
  -21.2011   -7.6160   23.9725 H   0  0  0  0  0  0
  -21.1470   -6.0529   25.9076 H   0  0  0  0  0  0
  -22.0603   -2.7626   23.2825 H   0  0  0  0  0  0
  -22.4082  -11.9873   22.4734 H   0  0  0  0  0  0
  -21.1116  -13.1272   22.2572 H   0  0  0  0  0  0
  -24.6609  -15.8400   20.5141 H   0  0  0  0  0  0
  -26.2750  -15.6280   20.0658 H   0  0  0  0  0  0
  -26.7150  -32.5484   23.1113 H   0  0  0  0  0  0
  -24.9972  -33.9735   25.0407 H   0  0  0  0  0  0
  -22.6990  -31.3093   21.4086 H   0  0  0  0  0  0
  -23.3723  -35.9676   23.3350 H   0  0  0  0  0  0
  -24.3517  -36.8866   22.2036 H   0  0  0  0  0  0
  -23.7269  -37.6543   23.6638 H   0  0  0  0  0  0
  -26.0618  -31.5814   20.6023 H   0  0  0  0  0  0
  -26.8291  -30.8609   21.9873 H   0  0  0  0  0  0
  -28.1182  -29.0671   21.1023 H   0  0  0  0  0  0
  -25.9604  -25.9426   19.0249 H   0  0  0  0  0  0
  -23.9430  -27.2749   19.0844 H   0  0  0  0  0  0
  -23.7309  -30.5929   19.4076 H   0  0  0  0  0  0
  -22.7361  -29.2439   19.8691 H   0  0  0  0  0  0
  -25.1286  -36.1961   25.0815 H   0  0  0  0  0  0
  -20.9956  -28.3236   24.1426 H   0  0  0  0  0  0
  -20.5616  -26.2277   23.3601 H   0  0  0  0  0  0
  -21.6643  -26.7401   22.1220 H   0  0  0  0  0  0
  -19.6882  -25.6276   21.1217 H   0  0  0  0  0  0
  -19.6675  -27.3202   20.6730 H   0  0  0  0  0  0
  -17.4174  -26.6656   21.4016 H   0  0  0  0  0  0
  -18.0315  -26.0048   22.9011 H   0  0  0  0  0  0
  -19.7960  -30.7230   24.2278 H   0  0  0  0  0  0
  -17.5037  -31.6262   24.5157 H   0  0  0  0  0  0
  -15.5349  -30.2971   23.7662 H   0  0  0  0  0  0
  -15.8670  -28.0818   22.7041 H   0  0  0  0  0  0
  -24.5880  -30.7079   25.7779 H   0  0  0  0  0  0
  -24.8905  -32.2870   26.4950 H   0  0  0  0  0  0
  -25.8029  -30.8848   27.0216 H   0  0  0  0  0  0
  -26.2872  -29.6800   24.1180 H   0  0  0  0  0  0
  -27.4026  -29.7293   25.4643 H   0  0  0  0  0  0
  -27.8745  -30.4341   23.9349 H   0  0  0  0  0  0
  -27.2672  -33.3644   26.2098 H   0  0  0  0  0  0
  -28.3861  -32.6881   25.0323 H   0  0  0  0  0  0
  -28.0727  -31.8436   26.5387 H   0  0  0  0  0  0
  -28.2628  -38.0092   24.7454 H   0  0  0  0  0  0
  -28.1035  -36.2601   24.6378 H   0  0  0  0  0  0
  -27.2264  -37.1565   25.8864 H   0  0  0  0  0  0
  -20.9311  -29.8782   21.6954 H   0  0  0  0  0  0
  -26.0189  -38.2854   24.1378 H   0  0  0  0  0  0
  -31.8612  -16.3683   22.4768 H   0  0  0  0  0  0
  -32.7738  -18.6191   22.7690 H   0  0  0  0  0  0
  -29.0065  -17.8861   19.6051 H   0  0  0  0  0  0
  -28.0696  -22.6392   18.7989 H   0  0  0  0  0  0
  -29.7757  -22.9277   18.6201 H   0  0  0  0  0  0
  -29.7124  -24.3880   20.7195 H   0  0  0  0  0  0
  -27.9898  -24.1468   20.8033 H   0  0  0  0  0  0
  -27.8233  -25.3099   18.4962 H   0  0  0  0  0  0
  -29.4988  -25.6410   18.6189 H   0  0  0  0  0  0
  -32.7290  -20.9745   22.2230 H   0  0  0  0  0  0
  -31.7280  -21.6126   20.9884 H   0  0  0  0  0  0
  -29.7108  -20.4096   18.7669 H   0  0  0  0  0  0
  -28.9349  -15.4435   20.8748 H   0  0  0  0  0  0
  1 25  1  0  0  0
  1 30  2  0  0  0
  1 83  1  0  0  0
  2  3  1  0  0  0
  2 25  1  0  0  0
  2 85  1  0  0  0
  2 86  1  0  0  0
  3  4  1  0  0  0
  3 87  1  0  0  0
  3 88  1  0  0  0
  4  5  1  0  0  0
  4 89  1  0  0  0
  4 90  1  0  0  0
  5  6  1  0  0  0
  5 26  1  0  0  0
  5 91  1  0  0  0
  6 25  1  0  0  0
  6 92  1  0  0  0
  6 93  1  0  0  0
  7  8  2  0  0  0
  7 26  1  0  0  0
  7 29  1  0  0  0
  8  9  1  0  0  0
  8 22  1  0  0  0
  9 10  1  0  0  0
  9 27  2  0  0  0
 10 11  2  0  0  0
 10 15  1  0  0  0
 11 12  1  0  0  0
 11 94  1  0  0  0
 12 13  2  0  0  0
 12 95  1  0  0  0
 13 14  1  0  0  0
 13 31  1  0  0  0
 14 15  2  0  0  0
 14 96  1  0  0  0
 15 97  1  0  0  0
 16 17  2  0  0  0
 16 21  1  0  0  0
 16 31  1  0  0  0
 17 18  1  0  0  0
 17 98  1  0  0  0
 18 19  2  0  0  0
 18 99  1  0  0  0
 19 20  1  0  0  0
 19 24  1  0  0  0
 20 21  2  0  0  0
 20100  1  0  0  0
 21 23  1  0  0  0
 22 28  1  0  0  0
 22 32  2  0  0  0
 26 27  1  0  0  0
 28101  1  0  0  0
 28102  1  0  0  0
 29103  1  0  0  0
 29104  1  0  0  0
 33 34  1  0  0  0
 33 66  1  0  0  0
 33 70  2  0  0  0
 34 36  1  0  0  0
 34 59  1  0  0  0
 34105  1  0  0  0
 35 44  2  0  0  0
 35 45  1  0  0  0
 35 68  1  0  0  0
 36 56  1  0  0  0
 36106  1  0  0  0
 37 39  1  0  0  0
 37 47  1  0  0  0
 37 66  1  0  0  0
 37107  1  0  0  0
 38 43  2  0  0  0
 38 46  1  0  0  0
 38 47  1  0  0  0
 39 64  1  0  0  0
 39 67  2  0  0  0
 40 52  1  0  0  0
 40 53  2  0  0  0
 40 58  1  0  0  0
 41108  1  0  0  0
 41109  1  0  0  0
 41110  1  0  0  0
 41 48  1  0  0  0
 42 43  1  0  0  0
 42 66  1  0  0  0
 42111  1  0  0  0
 42112  1  0  0  0
 43 44  1  0  0  0
 44113  1  0  0  0
 45 46  2  0  0  0
 45114  1  0  0  0
 46115  1  0  0  0
 47116  1  0  0  0
 47117  1  0  0  0
 48 56  1  0  0  0
 48 65  1  0  0  0
 48118  1  0  0  0
 49 50  1  0  0  0
 49 53  1  0  0  0
 49 64  1  0  0  0
 49119  1  0  0  0
 50 51  1  0  0  0
 50120  1  0  0  0
 50121  1  0  0  0
 51 52  1  0  0  0
 51122  1  0  0  0
 51123  1  0  0  0
 52124  1  0  0  0
 52125  1  0  0  0
 53 54  1  0  0  0
 54 55  2  0  0  0
 54126  1  0  0  0
 55 57  1  0  0  0
 55127  1  0  0  0
 56 69  2  0  0  0
 57 58  2  0  0  0
 57128  1  0  0  0
 58129  1  0  0  0
 59 60  1  0  0  0
 59 61  1  0  0  0
 59 62  1  0  0  0
 60130  1  0  0  0
 60131  1  0  0  0
 60132  1  0  0  0
 61133  1  0  0  0
 61134  1  0  0  0
 61135  1  0  0  0
 62136  1  0  0  0
 62137  1  0  0  0
 62138  1  0  0  0
 63 65  1  0  0  0
 63139  1  0  0  0
 63140  1  0  0  0
 63141  1  0  0  0
 64142  1  0  0  0
 65143  1  0  0  0
 68 80  1  0  0  0
 71 72  2  0  0  0
 71 74  1  0  0  0
 71144  1  0  0  0
 72 75  1  0  0  0
 72145  1  0  0  0
 73 74  2  0  0  0
 73 76  1  0  0  0
 73146  1  0  0  0
 74 83  1  0  0  0
 75 76  2  0  0  0
 75 81  1  0  0  0
 76 82  1  0  0  0
 77 78  1  0  0  0
 77 82  1  0  0  0
 77 84  2  0  0  0
 78 79  1  0  0  0
 78147  1  0  0  0
 78148  1  0  0  0
 79 80  1  0  0  0
 79149  1  0  0  0
 79150  1  0  0  0
 80151  1  0  0  0
 80152  1  0  0  0
 81153  1  0  0  0
 81154  1  0  0  0
 82155  1  0  0  0
 83156  1  0  0  0
M  ISO  4   1 100  68 101  80 101  83 100
M  END
> <chiral flag>
0

> <version>
0

> <s_m_source_file>
/data/baiqing/PycharmProjects/Reinvent-master-3.2/result/LINK_invent/BTK/process_docking_weight1_custom_product_contain_oxygen_bond_distance_aromatic_linkinvent_7_9_3/rearranged_h_0065.sdf

> <i_m_source_file_index>
89

> <r_mmod_Potential_Energy-OPLS-2005>
-150.417709350586

> <r_mmod_Stretch_Energy-OPLS-2005>
47.9979667663574

> <r_mmod_Bend_Energy-OPLS-2005>
113.968200683594

> <r_mmod_Torsional_Energy-OPLS-2005>
255.407211303711

> <r_mmod_Improper_Torsional_Energy-OPLS-2005>
6.92325735092163

> <r_mmod_Van_der_Waal_Energy-OPLS-2005>
156.781661987305

> <r_mmod_Electrostatic_Energy-OPLS-2005>
-504.7578125

> <r_mmod_Solvation_Energy-OPLS-2005>
-248.117645263672

> <b_mmod_Minimization_Converged-OPLS-2005>
0

> <r_mmod_RMS_Derivative-OPLS-2005>
4.01112508773804

$$$$
90
                    3D
 Structure written by MMmdl.
167176  0  0  1  0            999 V2000
  -30.6056  -14.7654   20.4295 C   0  0  0  0  0  0
  -30.4258  -12.4666   19.4728 C   0  0  0  0  0  0
  -29.5054  -12.4946   18.2336 C   0  0  0  0  0  0
  -28.0323  -12.3210   18.6495 C   0  0  0  0  0  0
  -27.6344  -13.2332   19.8401 C   0  0  2  0  0  0
  -28.6775  -13.1910   20.9764 C   0  0  0  0  0  0
  -25.2489  -13.8209   20.5691 C   0  0  0  0  0  0
  -24.1794  -13.0441   20.9230 C   0  0  0  0  0  0
  -24.6391  -11.6925   20.8760 C   0  0  0  0  0  0
  -23.9073  -10.4292   21.0416 C   0  0  0  0  0  0
  -24.3622   -9.4206   21.9194 C   0  0  0  0  0  0
  -23.6289   -8.2243   22.0762 C   0  0  0  0  0  0
  -22.4270   -8.0283   21.3549 C   0  0  0  0  0  0
  -21.9916   -9.0259   20.4646 C   0  0  0  0  0  0
  -22.7251  -10.2137   20.3056 C   0  0  0  0  0  0
  -21.6851   -6.0735   22.5276 C   0  0  0  0  0  0
  -21.4010   -6.5640   23.8211 C   0  0  0  0  0  0
  -21.3655   -5.6794   24.9176 C   0  0  0  0  0  0
  -21.6044   -4.3052   24.7226 C   0  0  0  0  0  0
  -21.8822   -3.8145   23.4344 C   0  0  0  0  0  0
  -21.9192   -4.6965   22.3399 C   0  0  0  0  0  0
  -22.7819  -13.5225   21.1878 C   0  0  0  0  0  0
  -22.1660   -4.2150   21.0977 F   0  0  0  0  0  0
  -21.5630   -3.4536   25.7739 F   0  0  0  0  0  0
  -29.9718  -13.5435   20.3856 N   0  0  0  0  0  0
  -26.2891  -12.9408   20.3219 N   0  0  0  0  0  0
  -25.9307  -11.6555   20.5729 N   0  0  0  0  0  0
  -22.0443  -12.8203   22.0419 N   0  0  0  0  0  0
  -25.4175  -15.1932   20.4121 N   0  0  0  0  0  0
  -31.8150  -14.7972   20.1871 O   0  0  0  0  0  0
  -21.6636   -6.8878   21.4239 O   0  0  0  0  0  0
  -22.3512  -14.5533   20.6731 O   0  0  0  0  0  0
  -24.6281  -31.8561   23.1913 C   0  0  0  0  0  0
  -25.9090  -32.4777   23.8299 C   0  0  1  0  0  0
  -27.2248  -27.2466   20.1453 C   0  0  0  0  0  0
  -25.5878  -33.8575   24.2237 N   0  0  0  0  0  0
  -23.4269  -30.4684   21.5380 C   0  0  2  0  0  0
  -24.8787  -28.9095   20.1067 C   0  0  0  0  0  0
  -22.7511  -29.4552   22.4941 C   0  0  0  0  0  0
  -18.0277  -28.1395   22.8486 C   0  0  0  0  0  0
  -24.1472  -36.7312   23.2640 C   0  0  0  0  0  0
  -25.9669  -30.7675   21.3649 C   0  0  0  0  0  0
  -26.0429  -29.3794   20.7251 C   0  0  0  0  0  0
  -27.2124  -28.5550   20.7407 C   0  0  0  0  0  0
  -26.0414  -26.8430   19.4905 C   0  0  0  0  0  0
  -24.8838  -27.6520   19.4760 C   0  0  0  0  0  0
  -23.6470  -29.7948   20.1551 C   0  0  0  0  0  0
  -25.4097  -36.3100   24.0327 C   0  0  1  0  0  0
  -20.5877  -28.3683   23.1312 C   0  0  2  0  0  0
  -20.6764  -26.9410   22.5423 C   0  0  0  0  0  0
  -19.5744  -26.6391   21.5219 C   0  0  0  0  0  0
  -18.1923  -26.7936   22.1630 C   0  0  0  0  0  0
  -19.1530  -28.8861   23.2887 C   0  0  0  0  0  0
  -18.9451  -30.1458   23.8910 C   0  0  0  0  0  0
  -17.6457  -30.6601   24.0565 C   0  0  0  0  0  0
  -25.9039  -34.9462   23.5102 C   0  0  0  0  0  0
  -16.5345  -29.9105   23.6313 C   0  0  0  0  0  0
  -16.7268  -28.6516   23.0350 C   0  0  0  0  0  0
  -26.4455  -31.6597   25.0684 C   0  0  0  0  0  0
  -25.3656  -31.3688   26.1387 C   0  0  0  0  0  0
  -27.0298  -30.3051   24.6064 C   0  0  0  0  0  0
  -27.6027  -32.4320   25.7471 C   0  0  0  0  0  0
  -27.5576  -37.1814   24.8463 C   0  0  0  0  0  0
  -21.4214  -29.3035   22.3736 N   0  0  0  0  0  0
  -26.4283  -37.3795   23.9409 N   0  0  0  0  0  0
  -24.6940  -31.0498   22.0899 N   0  0  0  0  0  0
  -23.4228  -28.8090   23.3030 O   0  0  0  0  0  0
  -28.3421  -26.3863   20.2618 O   0  0  0  0  0  0
  -26.5659  -34.8939   22.4701 O   0  0  0  0  0  0
  -23.5425  -32.1399   23.7192 O   0  0  0  0  0  0
  -31.7680  -18.9264   19.1491 C   0  0  0  0  0  0
  -31.3487  -17.6242   19.4589 C   0  0  0  0  0  0
  -29.3926  -18.5616   20.5529 C   0  0  0  0  0  0
  -31.0391  -20.0632   19.5466 C   0  0  0  0  0  0
  -29.7796  -19.9406   20.2111 C   0  0  0  0  0  0
  -30.1794  -17.3651   20.2123 C   0  0  0  0  0  0
  -28.5915  -22.2158   19.7261 C   0  0  0  0  0  0
  -31.6966  -21.3482   19.2782 C   0  0  0  0  0  0
  -28.9282  -23.3068   21.7740 C   0  0  0  0  0  0
  -28.9989  -21.7526   21.9148 C   0  0  0  0  0  0
  -28.2061  -23.5777   20.4449 C   0  0  1  0  0  0
  -32.5680  -21.4961   21.5995 C   0  0  0  0  0  0
  -32.9518  -23.3741   19.9877 C   0  0  0  0  0  0
  -28.4675  -25.0005   19.6816 C   0  0  0  0  0  0
  -29.0342  -21.2020   20.5573 N   0  0  0  0  0  0
  -29.8449  -15.9368   20.5427 N   0  0  0  0  0  0
  -32.3470  -22.0466   20.2402 N   0  0  0  0  0  0
  -31.6611  -21.8201   18.0367 N   0  3  0  0  0  0
  -28.4777  -22.0896   18.5052 O   0  0  0  0  0  0
  -31.4657  -12.5893   19.1639 H   0  0  0  0  0  0
  -30.3765  -11.4989   19.9731 H   0  0  0  0  0  0
  -29.7902  -11.7053   17.5367 H   0  0  0  0  0  0
  -29.6311  -13.4365   17.6973 H   0  0  0  0  0  0
  -27.8937  -11.2742   18.9253 H   0  0  0  0  0  0
  -27.3756  -12.4980   17.7975 H   0  0  0  0  0  0
  -27.6204  -14.2493   19.4446 H   0  0  0  0  0  0
  -28.7195  -12.1991   21.4297 H   0  0  0  0  0  0
  -28.4103  -13.8843   21.7752 H   0  0  0  0  0  0
  -25.2758   -9.5686   22.4779 H   0  0  0  0  0  0
  -23.9990   -7.4640   22.7495 H   0  0  0  0  0  0
  -21.0843   -8.8786   19.8950 H   0  0  0  0  0  0
  -22.3709  -10.9682   19.6166 H   0  0  0  0  0  0
  -21.1999   -7.6149   23.9717 H   0  0  0  0  0  0
  -21.1473   -6.0519   25.9080 H   0  0  0  0  0  0
  -22.0603   -2.7604   23.2847 H   0  0  0  0  0  0
  -22.4045  -11.9848   22.4780 H   0  0  0  0  0  0
  -21.1061  -13.1237   22.2610 H   0  0  0  0  0  0
  -24.6481  -15.8431   20.5320 H   0  0  0  0  0  0
  -26.2487  -15.6307   20.0356 H   0  0  0  0  0  0
  -26.7159  -32.5459   23.1059 H   0  0  0  0  0  0
  -24.9932  -33.9705   25.0315 H   0  0  0  0  0  0
  -22.7194  -31.2861   21.3869 H   0  0  0  0  0  0
  -23.3740  -35.9642   23.3285 H   0  0  0  0  0  0
  -24.3547  -36.8967   22.2056 H   0  0  0  0  0  0
  -23.7208  -37.6489   23.6695 H   0  0  0  0  0  0
  -26.0723  -31.5116   20.5736 H   0  0  0  0  0  0
  -26.8583  -30.8548   21.9746 H   0  0  0  0  0  0
  -28.0994  -28.8977   21.2554 H   0  0  0  0  0  0
  -25.9768  -25.8763   19.0119 H   0  0  0  0  0  0
  -23.9936  -27.2897   18.9801 H   0  0  0  0  0  0
  -23.7621  -30.5686   19.3948 H   0  0  0  0  0  0
  -22.7680  -29.2200   19.8577 H   0  0  0  0  0  0
  -25.1264  -36.1972   25.0819 H   0  0  0  0  0  0
  -20.9920  -28.3258   24.1457 H   0  0  0  0  0  0
  -20.5668  -26.2285   23.3617 H   0  0  0  0  0  0
  -21.6636  -26.7462   22.1217 H   0  0  0  0  0  0
  -19.6905  -25.6296   21.1271 H   0  0  0  0  0  0
  -19.6688  -27.3186   20.6735 H   0  0  0  0  0  0
  -17.4184  -26.6664   21.4046 H   0  0  0  0  0  0
  -18.0316  -26.0092   22.9038 H   0  0  0  0  0  0
  -19.7926  -30.7252   24.2312 H   0  0  0  0  0  0
  -17.5014  -31.6276   24.5178 H   0  0  0  0  0  0
  -15.5349  -30.3029   23.7608 H   0  0  0  0  0  0
  -15.8659  -28.0843   22.7075 H   0  0  0  0  0  0
  -24.5895  -30.6984   25.7672 H   0  0  0  0  0  0
  -24.8736  -32.2805   26.4787 H   0  0  0  0  0  0
  -25.7948  -30.8888   27.0191 H   0  0  0  0  0  0
  -26.2843  -29.6824   24.1098 H   0  0  0  0  0  0
  -27.4064  -29.7275   25.4508 H   0  0  0  0  0  0
  -27.8677  -30.4383   23.9216 H   0  0  0  0  0  0
  -27.2693  -33.3679   26.1970 H   0  0  0  0  0  0
  -28.3888  -32.6775   25.0322 H   0  0  0  0  0  0
  -28.0634  -31.8470   26.5444 H   0  0  0  0  0  0
  -28.2573  -38.0136   24.7551 H   0  0  0  0  0  0
  -28.1099  -36.2663   24.6251 H   0  0  0  0  0  0
  -27.2303  -37.1424   25.8871 H   0  0  0  0  0  0
  -20.9413  -29.8803   21.6975 H   0  0  0  0  0  0
  -26.0175  -38.2874   24.1423 H   0  0  0  0  0  0
  -32.7036  -19.0514   18.6210 H   0  0  0  0  0  0
  -31.9837  -16.8326   19.0963 H   0  0  0  0  0  0
  -28.4670  -18.4208   21.0920 H   0  0  0  0  0  0
  -29.9344  -23.7276   21.7424 H   0  0  0  0  0  0
  -28.4145  -23.7673   22.6175 H   0  0  0  0  0  0
  -28.0993  -21.3769   22.4048 H   0  0  0  0  0  0
  -29.8520  -21.4396   22.5153 H   0  0  0  0  0  0
  -27.1351  -23.5089   20.6337 H   0  0  0  0  0  0
  -32.0184  -20.5776   21.8064 H   0  0  0  0  0  0
  -32.2783  -22.2204   22.3619 H   0  0  0  0  0  0
  -33.6256  -21.2701   21.7437 H   0  0  0  0  0  0
  -32.2136  -24.0737   19.5934 H   0  0  0  0  0  0
  -33.7719  -23.3021   19.2723 H   0  0  0  0  0  0
  -33.3532  -23.8112   20.9029 H   0  0  0  0  0  0
  -27.9304  -24.9760   18.7349 H   0  0  0  0  0  0
  -29.5121  -24.9629   19.3710 H   0  0  0  0  0  0
  -28.8862  -15.7742   20.8067 H   0  0  0  0  0  0
  -31.1232  -21.3183   17.3453 H   0  0  0  0  0  0
  -32.1419  -22.6575   17.7601 H   0  0  0  0  0  0
  1 25  1  0  0  0
  1 30  2  0  0  0
  1 86  1  0  0  0
  2  3  1  0  0  0
  2 25  1  0  0  0
  2 90  1  0  0  0
  2 91  1  0  0  0
  3  4  1  0  0  0
  3 92  1  0  0  0
  3 93  1  0  0  0
  4  5  1  0  0  0
  4 94  1  0  0  0
  4 95  1  0  0  0
  5  6  1  0  0  0
  5 26  1  0  0  0
  5 96  1  0  0  0
  6 25  1  0  0  0
  6 97  1  0  0  0
  6 98  1  0  0  0
  7  8  2  0  0  0
  7 26  1  0  0  0
  7 29  1  0  0  0
  8  9  1  0  0  0
  8 22  1  0  0  0
  9 10  1  0  0  0
  9 27  2  0  0  0
 10 11  2  0  0  0
 10 15  1  0  0  0
 11 12  1  0  0  0
 11 99  1  0  0  0
 12 13  2  0  0  0
 12100  1  0  0  0
 13 14  1  0  0  0
 13 31  1  0  0  0
 14 15  2  0  0  0
 14101  1  0  0  0
 15102  1  0  0  0
 16 17  2  0  0  0
 16 21  1  0  0  0
 16 31  1  0  0  0
 17 18  1  0  0  0
 17103  1  0  0  0
 18 19  2  0  0  0
 18104  1  0  0  0
 19 20  1  0  0  0
 19 24  1  0  0  0
 20 21  2  0  0  0
 20105  1  0  0  0
 21 23  1  0  0  0
 22 28  1  0  0  0
 22 32  2  0  0  0
 26 27  1  0  0  0
 28106  1  0  0  0
 28107  1  0  0  0
 29108  1  0  0  0
 29109  1  0  0  0
 33 34  1  0  0  0
 33 66  1  0  0  0
 33 70  2  0  0  0
 34 36  1  0  0  0
 34 59  1  0  0  0
 34110  1  0  0  0
 35 44  2  0  0  0
 35 45  1  0  0  0
 35 68  1  0  0  0
 36 56  1  0  0  0
 36111  1  0  0  0
 37 39  1  0  0  0
 37 47  1  0  0  0
 37 66  1  0  0  0
 37112  1  0  0  0
 38 43  2  0  0  0
 38 46  1  0  0  0
 38 47  1  0  0  0
 39 64  1  0  0  0
 39 67  2  0  0  0
 40 52  1  0  0  0
 40 53  2  0  0  0
 40 58  1  0  0  0
 41113  1  0  0  0
 41114  1  0  0  0
 41115  1  0  0  0
 41 48  1  0  0  0
 42 43  1  0  0  0
 42 66  1  0  0  0
 42116  1  0  0  0
 42117  1  0  0  0
 43 44  1  0  0  0
 44118  1  0  0  0
 45 46  2  0  0  0
 45119  1  0  0  0
 46120  1  0  0  0
 47121  1  0  0  0
 47122  1  0  0  0
 48 56  1  0  0  0
 48 65  1  0  0  0
 48123  1  0  0  0
 49 50  1  0  0  0
 49 53  1  0  0  0
 49 64  1  0  0  0
 49124  1  0  0  0
 50 51  1  0  0  0
 50125  1  0  0  0
 50126  1  0  0  0
 51 52  1  0  0  0
 51127  1  0  0  0
 51128  1  0  0  0
 52129  1  0  0  0
 52130  1  0  0  0
 53 54  1  0  0  0
 54 55  2  0  0  0
 54131  1  0  0  0
 55 57  1  0  0  0
 55132  1  0  0  0
 56 69  2  0  0  0
 57 58  2  0  0  0
 57133  1  0  0  0
 58134  1  0  0  0
 59 60  1  0  0  0
 59 61  1  0  0  0
 59 62  1  0  0  0
 60135  1  0  0  0
 60136  1  0  0  0
 60137  1  0  0  0
 61138  1  0  0  0
 61139  1  0  0  0
 61140  1  0  0  0
 62141  1  0  0  0
 62142  1  0  0  0
 62143  1  0  0  0
 63 65  1  0  0  0
 63144  1  0  0  0
 63145  1  0  0  0
 63146  1  0  0  0
 64147  1  0  0  0
 65148  1  0  0  0
 68 84  1  0  0  0
 71 72  2  0  0  0
 71 74  1  0  0  0
 71149  1  0  0  0
 72 76  1  0  0  0
 72150  1  0  0  0
 73 75  1  0  0  0
 73 76  2  0  0  0
 73151  1  0  0  0
 74 75  2  0  0  0
 74 78  1  0  0  0
 75 85  1  0  0  0
 76 86  1  0  0  0
 77 81  1  0  0  0
 77 85  1  0  0  0
 77 89  2  0  0  0
 78 87  1  0  0  0
 78 88  2  0  0  0
 79 80  1  0  0  0
 79 81  1  0  0  0
 79152  1  0  0  0
 79153  1  0  0  0
 80 85  1  0  0  0
 80154  1  0  0  0
 80155  1  0  0  0
 81 84  1  0  0  0
 81156  1  0  0  0
 82 87  1  0  0  0
 82157  1  0  0  0
 82158  1  0  0  0
 82159  1  0  0  0
 83 87  1  0  0  0
 83160  1  0  0  0
 83161  1  0  0  0
 83162  1  0  0  0
 84163  1  0  0  0
 84164  1  0  0  0
 86165  1  0  0  0
 88166  1  0  0  0
 88167  1  0  0  0
M  CHG  1  88   1
M  ISO  4   1 100  68 101  84 101  86 100
M  END
> <chiral flag>
0

> <version>
0

> <s_m_source_file>
/data/baiqing/PycharmProjects/Reinvent-master-3.2/result/LINK_invent/BTK/process_docking_weight1_custom_product_contain_oxygen_bond_distance_aromatic_linkinvent_7_9_3/rearranged_h_0065.sdf

> <i_m_source_file_index>
90

> <r_mmod_Potential_Energy-OPLS-2005>
196.256942749023

> <r_mmod_Stretch_Energy-OPLS-2005>
145.574157714844

> <r_mmod_Bend_Energy-OPLS-2005>
228.815933227539

> <r_mmod_Torsional_Energy-OPLS-2005>
313.788299560547

> <r_mmod_Improper_Torsional_Energy-OPLS-2005>
5.66797685623169

> <r_mmod_Van_der_Waal_Energy-OPLS-2005>
141.734756469727

> <r_mmod_Electrostatic_Energy-OPLS-2005>
-329.888885498047

> <r_mmod_Solvation_Energy-OPLS-2005>
-405.357757568359

> <b_mmod_Minimization_Converged-OPLS-2005>
0

> <r_mmod_RMS_Derivative-OPLS-2005>
2.44981718063354

$$$$
91
                    3D
 Structure written by MMmdl.
158167  0  0  1  0            999 V2000
  -30.5941  -14.7454   20.4668 C   0  0  0  0  0  0
  -30.4375  -12.4524   19.4939 C   0  0  0  0  0  0
  -29.5235  -12.5233   18.2491 C   0  0  0  0  0  0
  -28.0456  -12.3497   18.6479 C   0  0  0  0  0  0
  -27.6478  -13.2347   19.8596 C   0  0  2  0  0  0
  -28.6855  -13.1468   21.0014 C   0  0  0  0  0  0
  -25.2533  -13.8199   20.5697 C   0  0  0  0  0  0
  -24.1809  -13.0449   20.9171 C   0  0  0  0  0  0
  -24.6404  -11.6921   20.8713 C   0  0  0  0  0  0
  -23.9077  -10.4298   21.0388 C   0  0  0  0  0  0
  -24.3632   -9.4224   21.9169 C   0  0  0  0  0  0
  -23.6296   -8.2265   22.0749 C   0  0  0  0  0  0
  -22.4275   -8.0309   21.3547 C   0  0  0  0  0  0
  -21.9909   -9.0279   20.4655 C   0  0  0  0  0  0
  -22.7245  -10.2149   20.3053 C   0  0  0  0  0  0
  -21.6859   -6.0741   22.5274 C   0  0  0  0  0  0
  -21.4023   -6.5632   23.8217 C   0  0  0  0  0  0
  -21.3654   -5.6783   24.9173 C   0  0  0  0  0  0
  -21.6047   -4.3042   24.7219 C   0  0  0  0  0  0
  -21.8823   -3.8144   23.4331 C   0  0  0  0  0  0
  -21.9193   -4.6965   22.3394 C   0  0  0  0  0  0
  -22.7833  -13.5244   21.1840 C   0  0  0  0  0  0
  -22.1658   -4.2156   21.0968 F   0  0  0  0  0  0
  -21.5626   -3.4523   25.7722 F   0  0  0  0  0  0
  -29.9945  -13.5046   20.4411 N   0  0  0  0  0  0
  -26.2965  -12.9410   20.3287 N   0  0  0  0  0  0
  -25.9337  -11.6551   20.5725 N   0  0  0  0  0  0
  -22.0477  -12.8244   22.0403 N   0  0  0  0  0  0
  -25.4249  -15.1934   20.4194 N   0  0  0  0  0  0
  -31.7568  -14.8683   20.0678 O   0  0  0  0  0  0
  -21.6651   -6.8892   21.4244 O   0  0  0  0  0  0
  -22.3512  -14.5539   20.6684 O   0  0  0  0  0  0
  -24.6333  -31.8549   23.1974 C   0  0  0  0  0  0
  -25.9152  -32.4754   23.8324 C   0  0  1  0  0  0
  -27.2087  -27.2346   20.1299 C   0  0  0  0  0  0
  -25.5933  -33.8553   24.2234 N   0  0  0  0  0  0
  -23.4305  -30.4774   21.5431 C   0  0  2  0  0  0
  -24.8759  -28.9290   20.1052 C   0  0  0  0  0  0
  -22.7515  -29.4595   22.4914 C   0  0  0  0  0  0
  -18.0289  -28.1403   22.8481 C   0  0  0  0  0  0
  -24.1483  -36.7275   23.2640 C   0  0  0  0  0  0
  -25.9794  -30.7585   21.3835 C   0  0  0  0  0  0
  -26.0500  -29.3811   20.7213 C   0  0  0  0  0  0
  -27.2177  -28.5459   20.7247 C   0  0  0  0  0  0
  -26.0179  -26.8754   19.4555 C   0  0  0  0  0  0
  -24.8675  -27.6855   19.4595 C   0  0  0  0  0  0
  -23.6474  -29.8169   20.1577 C   0  0  0  0  0  0
  -25.4114  -36.3068   24.0318 C   0  0  1  0  0  0
  -20.5894  -28.3705   23.1269 C   0  0  2  0  0  0
  -20.6774  -26.9417   22.5419 C   0  0  0  0  0  0
  -19.5749  -26.6385   21.5221 C   0  0  0  0  0  0
  -18.1927  -26.7943   22.1628 C   0  0  0  0  0  0
  -19.1546  -28.8874   23.2864 C   0  0  0  0  0  0
  -18.9468  -30.1470   23.8891 C   0  0  0  0  0  0
  -17.6468  -30.6596   24.0570 C   0  0  0  0  0  0
  -25.9066  -34.9439   23.5083 C   0  0  0  0  0  0
  -16.5360  -29.9094   23.6335 C   0  0  0  0  0  0
  -16.7275  -28.6514   23.0351 C   0  0  0  0  0  0
  -26.4497  -31.6593   25.0728 C   0  0  0  0  0  0
  -25.3692  -31.3790   26.1434 C   0  0  0  0  0  0
  -27.0349  -30.2998   24.6264 C   0  0  0  0  0  0
  -27.6044  -32.4352   25.7498 C   0  0  0  0  0  0
  -27.5579  -37.1788   24.8453 C   0  0  0  0  0  0
  -21.4221  -29.3036   22.3653 N   0  0  0  0  0  0
  -26.4288  -37.3772   23.9415 N   0  0  0  0  0  0
  -24.7003  -31.0486   22.0971 N   0  0  0  0  0  0
  -23.4201  -28.8141   23.3027 O   0  0  0  0  0  0
  -28.2759  -26.2973   20.2261 O   0  0  0  0  0  0
  -26.5658  -34.8924   22.4667 O   0  0  0  0  0  0
  -23.5472  -32.1402   23.7238 O   0  0  0  0  0  0
  -29.2024  -18.1836   17.9223 C   0  0  0  0  0  0
  -29.4884  -17.0513   18.7040 C   0  0  0  0  0  0
  -29.5573  -18.4921   20.6659 C   0  0  0  0  0  0
  -29.1024  -19.4779   18.4754 C   0  0  0  0  0  0
  -29.2744  -19.6927   19.8742 C   0  0  0  0  0  0
  -29.6773  -17.1476   20.0962 C   0  0  0  0  0  0
  -28.2814  -22.0692   20.3499 C   0  0  0  0  0  0
  -30.2613  -23.3319   20.3465 C   0  0  0  0  0  0
  -30.5312  -21.8176   20.6071 C   0  0  0  0  0  0
  -28.7739  -23.5522   20.6438 C   0  0  1  0  0  0
  -28.8326  -20.6195   17.5058 C   0  0  0  0  0  0
  -28.0162  -24.8244   19.9525 C   0  0  0  0  0  0
  -29.2744  -21.1058   20.3731 N   0  0  0  0  0  0
  -29.8444  -15.8612   20.8248 N   0  0  0  0  0  0
  -27.0877  -21.8240   20.1537 O   0  0  0  0  0  0
  -31.4826  -12.5725   19.2027 H   0  0  0  0  0  0
  -30.3742  -11.4696   19.9638 H   0  0  0  0  0  0
  -29.8096  -11.7593   17.5266 H   0  0  0  0  0  0
  -29.6576  -13.4833   17.7486 H   0  0  0  0  0  0
  -27.8930  -11.2981   18.8930 H   0  0  0  0  0  0
  -27.4002  -12.5629   17.7947 H   0  0  0  0  0  0
  -27.6487  -14.2613   19.4942 H   0  0  0  0  0  0
  -28.7109  -12.1388   21.4199 H   0  0  0  0  0  0
  -28.4145  -13.8113   21.8230 H   0  0  0  0  0  0
  -25.2781   -9.5696   22.4740 H   0  0  0  0  0  0
  -24.0002   -7.4652   22.7467 H   0  0  0  0  0  0
  -21.0830   -8.8811   19.8964 H   0  0  0  0  0  0
  -22.3703  -10.9691   19.6169 H   0  0  0  0  0  0
  -21.2032   -7.6139   23.9711 H   0  0  0  0  0  0
  -21.1466   -6.0515   25.9073 H   0  0  0  0  0  0
  -22.0605   -2.7604   23.2838 H   0  0  0  0  0  0
  -22.4061  -11.9891   22.4791 H   0  0  0  0  0  0
  -21.1126  -13.1314   22.2638 H   0  0  0  0  0  0
  -24.6659  -15.8535   20.5471 H   0  0  0  0  0  0
  -26.2860  -15.6341   20.1195 H   0  0  0  0  0  0
  -26.7218  -32.5392   23.1058 H   0  0  0  0  0  0
  -25.0029  -33.9682   25.0349 H   0  0  0  0  0  0
  -22.7280  -31.3009   21.3993 H   0  0  0  0  0  0
  -23.3757  -35.9593   23.3283 H   0  0  0  0  0  0
  -24.3577  -36.8929   22.2058 H   0  0  0  0  0  0
  -23.7220  -37.6461   23.6689 H   0  0  0  0  0  0
  -26.1249  -31.5204   20.6165 H   0  0  0  0  0  0
  -26.8544  -30.8035   22.0206 H   0  0  0  0  0  0
  -28.1108  -28.8826   21.2324 H   0  0  0  0  0  0
  -25.9324  -25.9374   18.9282 H   0  0  0  0  0  0
  -23.9736  -27.3399   18.9583 H   0  0  0  0  0  0
  -23.7703  -30.5964   19.4048 H   0  0  0  0  0  0
  -22.7645  -29.2519   19.8519 H   0  0  0  0  0  0
  -25.1290  -36.1908   25.0809 H   0  0  0  0  0  0
  -20.9974  -28.3290   24.1397 H   0  0  0  0  0  0
  -20.5672  -26.2314   23.3628 H   0  0  0  0  0  0
  -21.6644  -26.7434   22.1225 H   0  0  0  0  0  0
  -19.6911  -25.6293   21.1256 H   0  0  0  0  0  0
  -19.6688  -27.3189   20.6746 H   0  0  0  0  0  0
  -17.4195  -26.6682   21.4034 H   0  0  0  0  0  0
  -18.0317  -26.0096   22.9031 H   0  0  0  0  0  0
  -19.7944  -30.7285   24.2259 H   0  0  0  0  0  0
  -17.5023  -31.6277   24.5170 H   0  0  0  0  0  0
  -15.5362  -30.2995   23.7669 H   0  0  0  0  0  0
  -15.8671  -28.0833   22.7070 H   0  0  0  0  0  0
  -24.5842  -30.7169   25.7757 H   0  0  0  0  0  0
  -24.8912  -32.2980   26.4831 H   0  0  0  0  0  0
  -25.7964  -30.8974   27.0232 H   0  0  0  0  0  0
  -26.2954  -29.6744   24.1246 H   0  0  0  0  0  0
  -27.3951  -29.7275   25.4822 H   0  0  0  0  0  0
  -27.8861  -30.4248   23.9570 H   0  0  0  0  0  0
  -27.2636  -33.3648   26.2066 H   0  0  0  0  0  0
  -28.3845  -32.6927   25.0322 H   0  0  0  0  0  0
  -28.0718  -31.8497   26.5422 H   0  0  0  0  0  0
  -28.2580  -38.0104   24.7543 H   0  0  0  0  0  0
  -28.1101  -36.2644   24.6219 H   0  0  0  0  0  0
  -27.2315  -37.1358   25.8862 H   0  0  0  0  0  0
  -20.9418  -29.8748   21.6843 H   0  0  0  0  0  0
  -26.0156  -38.2839   24.1456 H   0  0  0  0  0  0
  -29.0596  -18.0433   16.8597 H   0  0  0  0  0  0
  -29.5306  -16.0909   18.2098 H   0  0  0  0  0  0
  -29.6949  -18.6105   21.7309 H   0  0  0  0  0  0
  -30.4633  -23.5738   19.3019 H   0  0  0  0  0  0
  -30.9020  -23.9666   20.9577 H   0  0  0  0  0  0
  -30.8256  -21.6517   21.6454 H   0  0  0  0  0  0
  -31.3298  -21.4375   19.9689 H   0  0  0  0  0  0
  -28.6636  -23.6737   21.7215 H   0  0  0  0  0  0
  -29.0205  -20.3174   16.4748 H   0  0  0  0  0  0
  -29.4692  -21.4814   17.7046 H   0  0  0  0  0  0
  -27.7897  -20.9311   17.5696 H   0  0  0  0  0  0
  -26.9788  -24.6336   20.2257 H   0  0  0  0  0  0
  -28.0641  -24.6947   18.8710 H   0  0  0  0  0  0
  -29.0587  -15.6279   21.4145 H   0  0  0  0  0  0
  1 25  1  0  0  0
  1 30  2  0  0  0
  1 84  1  0  0  0
  2  3  1  0  0  0
  2 25  1  0  0  0
  2 86  1  0  0  0
  2 87  1  0  0  0
  3  4  1  0  0  0
  3 88  1  0  0  0
  3 89  1  0  0  0
  4  5  1  0  0  0
  4 90  1  0  0  0
  4 91  1  0  0  0
  5  6  1  0  0  0
  5 26  1  0  0  0
  5 92  1  0  0  0
  6 25  1  0  0  0
  6 93  1  0  0  0
  6 94  1  0  0  0
  7  8  2  0  0  0
  7 26  1  0  0  0
  7 29  1  0  0  0
  8  9  1  0  0  0
  8 22  1  0  0  0
  9 10  1  0  0  0
  9 27  2  0  0  0
 10 11  2  0  0  0
 10 15  1  0  0  0
 11 12  1  0  0  0
 11 95  1  0  0  0
 12 13  2  0  0  0
 12 96  1  0  0  0
 13 14  1  0  0  0
 13 31  1  0  0  0
 14 15  2  0  0  0
 14 97  1  0  0  0
 15 98  1  0  0  0
 16 17  2  0  0  0
 16 21  1  0  0  0
 16 31  1  0  0  0
 17 18  1  0  0  0
 17 99  1  0  0  0
 18 19  2  0  0  0
 18100  1  0  0  0
 19 20  1  0  0  0
 19 24  1  0  0  0
 20 21  2  0  0  0
 20101  1  0  0  0
 21 23  1  0  0  0
 22 28  1  0  0  0
 22 32  2  0  0  0
 26 27  1  0  0  0
 28102  1  0  0  0
 28103  1  0  0  0
 29104  1  0  0  0
 29105  1  0  0  0
 33 34  1  0  0  0
 33 66  1  0  0  0
 33 70  2  0  0  0
 34 36  1  0  0  0
 34 59  1  0  0  0
 34106  1  0  0  0
 35 44  2  0  0  0
 35 45  1  0  0  0
 35 68  1  0  0  0
 36 56  1  0  0  0
 36107  1  0  0  0
 37 39  1  0  0  0
 37 47  1  0  0  0
 37 66  1  0  0  0
 37108  1  0  0  0
 38 43  2  0  0  0
 38 46  1  0  0  0
 38 47  1  0  0  0
 39 64  1  0  0  0
 39 67  2  0  0  0
 40 52  1  0  0  0
 40 53  2  0  0  0
 40 58  1  0  0  0
 41109  1  0  0  0
 41110  1  0  0  0
 41111  1  0  0  0
 41 48  1  0  0  0
 42 43  1  0  0  0
 42 66  1  0  0  0
 42112  1  0  0  0
 42113  1  0  0  0
 43 44  1  0  0  0
 44114  1  0  0  0
 45 46  2  0  0  0
 45115  1  0  0  0
 46116  1  0  0  0
 47117  1  0  0  0
 47118  1  0  0  0
 48 56  1  0  0  0
 48 65  1  0  0  0
 48119  1  0  0  0
 49 50  1  0  0  0
 49 53  1  0  0  0
 49 64  1  0  0  0
 49120  1  0  0  0
 50 51  1  0  0  0
 50121  1  0  0  0
 50122  1  0  0  0
 51 52  1  0  0  0
 51123  1  0  0  0
 51124  1  0  0  0
 52125  1  0  0  0
 52126  1  0  0  0
 53 54  1  0  0  0
 54 55  2  0  0  0
 54127  1  0  0  0
 55 57  1  0  0  0
 55128  1  0  0  0
 56 69  2  0  0  0
 57 58  2  0  0  0
 57129  1  0  0  0
 58130  1  0  0  0
 59 60  1  0  0  0
 59 61  1  0  0  0
 59 62  1  0  0  0
 60131  1  0  0  0
 60132  1  0  0  0
 60133  1  0  0  0
 61134  1  0  0  0
 61135  1  0  0  0
 61136  1  0  0  0
 62137  1  0  0  0
 62138  1  0  0  0
 62139  1  0  0  0
 63 65  1  0  0  0
 63140  1  0  0  0
 63141  1  0  0  0
 63142  1  0  0  0
 64143  1  0  0  0
 65144  1  0  0  0
 68 82  1  0  0  0
 71 72  2  0  0  0
 71 74  1  0  0  0
 71145  1  0  0  0
 72 76  1  0  0  0
 72146  1  0  0  0
 73 75  1  0  0  0
 73 76  2  0  0  0
 73147  1  0  0  0
 74 75  2  0  0  0
 74 81  1  0  0  0
 75 83  1  0  0  0
 76 84  1  0  0  0
 77 80  1  0  0  0
 77 83  1  0  0  0
 77 85  2  0  0  0
 78 79  1  0  0  0
 78 80  1  0  0  0
 78148  1  0  0  0
 78149  1  0  0  0
 79 83  1  0  0  0
 79150  1  0  0  0
 79151  1  0  0  0
 80 82  1  0  0  0
 80152  1  0  0  0
 81153  1  0  0  0
 81154  1  0  0  0
 81155  1  0  0  0
 82156  1  0  0  0
 82157  1  0  0  0
 84158  1  0  0  0
M  ISO  4   1 100  68 101  82 101  84 100
M  END
> <chiral flag>
0

> <version>
0

> <s_m_source_file>
/data/baiqing/PycharmProjects/Reinvent-master-3.2/result/LINK_invent/BTK/process_docking_weight1_custom_product_contain_oxygen_bond_distance_aromatic_linkinvent_7_9_3/rearranged_h_0065.sdf

> <i_m_source_file_index>
91

> <r_mmod_Potential_Energy-OPLS-2005>
330.04296875

> <r_mmod_Stretch_Energy-OPLS-2005>
136.586486816406

> <r_mmod_Bend_Energy-OPLS-2005>
203.238861083984

> <r_mmod_Torsional_Energy-OPLS-2005>
322.690948486328

> <r_mmod_Improper_Torsional_Energy-OPLS-2005>
6.32472896575928

> <r_mmod_Van_der_Waal_Energy-OPLS-2005>
134.862167358398

> <r_mmod_Electrostatic_Energy-OPLS-2005>
-346.648681640625

> <r_mmod_Solvation_Energy-OPLS-2005>
-223.17692565918

> <b_mmod_Minimization_Converged-OPLS-2005>
0

> <r_mmod_RMS_Derivative-OPLS-2005>
2.37973570823669

$$$$
92
                    3D
 Structure written by MMmdl.
152160  0  0  1  0            999 V2000
  -30.6132  -14.7502   20.4606 C   0  0  0  0  0  0
  -30.4370  -12.4581   19.4688 C   0  0  0  0  0  0
  -29.5127  -12.4953   18.2311 C   0  0  0  0  0  0
  -28.0365  -12.3268   18.6456 C   0  0  0  0  0  0
  -27.6409  -13.2305   19.8439 C   0  0  2  0  0  0
  -28.6880  -13.1715   20.9780 C   0  0  0  0  0  0
  -25.2501  -13.8192   20.5674 C   0  0  0  0  0  0
  -24.1795  -13.0444   20.9211 C   0  0  0  0  0  0
  -24.6387  -11.6920   20.8752 C   0  0  0  0  0  0
  -23.9064  -10.4299   21.0416 C   0  0  0  0  0  0
  -24.3617   -9.4204   21.9184 C   0  0  0  0  0  0
  -23.6280   -8.2246   22.0764 C   0  0  0  0  0  0
  -22.4257   -8.0291   21.3562 C   0  0  0  0  0  0
  -21.9891   -9.0271   20.4669 C   0  0  0  0  0  0
  -22.7233  -10.2144   20.3066 C   0  0  0  0  0  0
  -21.6848   -6.0728   22.5270 C   0  0  0  0  0  0
  -21.4023   -6.5631   23.8206 C   0  0  0  0  0  0
  -21.3655   -5.6785   24.9165 C   0  0  0  0  0  0
  -21.6035   -4.3047   24.7220 C   0  0  0  0  0  0
  -21.8822   -3.8137   23.4342 C   0  0  0  0  0  0
  -21.9195   -4.6953   22.3394 C   0  0  0  0  0  0
  -22.7814  -13.5228   21.1861 C   0  0  0  0  0  0
  -22.1661   -4.2142   21.0972 F   0  0  0  0  0  0
  -21.5626   -3.4537   25.7736 F   0  0  0  0  0  0
  -29.9855  -13.5257   20.3895 N   0  0  0  0  0  0
  -26.2932  -12.9398   20.3249 N   0  0  0  0  0  0
  -25.9312  -11.6547   20.5730 N   0  0  0  0  0  0
  -22.0444  -12.8236   22.0426 N   0  0  0  0  0  0
  -25.4161  -15.1919   20.4078 N   0  0  0  0  0  0
  -31.8117  -14.8344   20.1812 O   0  0  0  0  0  0
  -21.6630   -6.8875   21.4235 O   0  0  0  0  0  0
  -22.3498  -14.5530   20.6688 O   0  0  0  0  0  0
  -24.6334  -31.8521   23.1935 C   0  0  0  0  0  0
  -25.9151  -32.4735   23.8289 C   0  0  1  0  0  0
  -27.2265  -27.2469   20.1473 C   0  0  0  0  0  0
  -25.5939  -33.8531   24.2225 N   0  0  0  0  0  0
  -23.4315  -30.4711   21.5368 C   0  0  2  0  0  0
  -24.8810  -28.9062   20.1164 C   0  0  0  0  0  0
  -22.7510  -29.4592   22.4900 C   0  0  0  0  0  0
  -18.0297  -28.1414   22.8474 C   0  0  0  0  0  0
  -24.1495  -36.7280   23.2633 C   0  0  0  0  0  0
  -25.9762  -30.7615   21.3727 C   0  0  0  0  0  0
  -26.0520  -29.3789   20.7239 C   0  0  0  0  0  0
  -27.2300  -28.5631   20.7228 C   0  0  0  0  0  0
  -26.0346  -26.8342   19.5199 C   0  0  0  0  0  0
  -24.8779  -27.6418   19.5030 C   0  0  0  0  0  0
  -23.6527  -29.7966   20.1561 C   0  0  0  0  0  0
  -25.4116  -36.3053   24.0316 C   0  0  1  0  0  0
  -20.5898  -28.3727   23.1268 C   0  0  2  0  0  0
  -20.6798  -26.9443   22.5412 C   0  0  0  0  0  0
  -19.5772  -26.6400   21.5223 C   0  0  0  0  0  0
  -18.1949  -26.7953   22.1627 C   0  0  0  0  0  0
  -19.1546  -28.8887   23.2865 C   0  0  0  0  0  0
  -18.9463  -30.1486   23.8884 C   0  0  0  0  0  0
  -17.6459  -30.6602   24.0574 C   0  0  0  0  0  0
  -25.9060  -34.9428   23.5077 C   0  0  0  0  0  0
  -16.5356  -29.9100   23.6330 C   0  0  0  0  0  0
  -16.7281  -28.6530   23.0329 C   0  0  0  0  0  0
  -26.4512  -31.6560   25.0681 C   0  0  0  0  0  0
  -25.3734  -31.3720   26.1404 C   0  0  0  0  0  0
  -27.0356  -30.2973   24.6173 C   0  0  0  0  0  0
  -27.6068  -32.4296   25.7450 C   0  0  0  0  0  0
  -27.5587  -37.1779   24.8447 C   0  0  0  0  0  0
  -21.4215  -29.3056   22.3642 N   0  0  0  0  0  0
  -26.4284  -37.3762   23.9419 N   0  0  0  0  0  0
  -24.6993  -31.0474   22.0913 N   0  0  0  0  0  0
  -23.4201  -28.8149   23.3020 O   0  0  0  0  0  0
  -28.3299  -26.3636   20.1385 O   0  0  0  0  0  0
  -26.5632  -34.8912   22.4647 O   0  0  0  0  0  0
  -23.5480  -32.1350   23.7228 O   0  0  0  0  0  0
  -31.7776  -19.0161   21.5540 C   0  0  0  0  0  0
  -30.9633  -20.0894   21.1301 C   0  0  0  0  0  0
  -31.4037  -17.6718   21.3500 C   0  0  0  0  0  0
  -29.3514  -18.4593   20.3109 C   0  0  0  0  0  0
  -29.7271  -19.8635   20.4876 C   0  0  0  0  0  0
  -30.1848  -17.3299   20.7222 C   0  0  0  0  0  0
  -28.9807  -21.0940   19.9271 C   0  0  0  0  0  0
  -28.4279  -23.6792   19.8695 C   0  0  0  0  0  0
  -28.2120  -24.9948   20.7698 C   0  0  0  0  0  0
  -29.8224  -15.8901   20.5835 N   0  0  0  0  0  0
  -28.9392  -22.3877   20.4692 N   0  0  0  0  0  0
  -28.3612  -20.8829   18.7629 N   0  3  0  0  0  0
  -28.1194  -23.7088   18.6715 O   0  0  0  0  0  0
  -31.4761  -12.5885   19.1638 H   0  0  0  0  0  0
  -30.3914  -11.4850   19.9604 H   0  0  0  0  0  0
  -29.7961  -11.7122   17.5260 H   0  0  0  0  0  0
  -29.6428  -13.4391   17.7006 H   0  0  0  0  0  0
  -27.8858  -11.2790   18.9082 H   0  0  0  0  0  0
  -27.3835  -12.5227   17.7946 H   0  0  0  0  0  0
  -27.6324  -14.2484   19.4541 H   0  0  0  0  0  0
  -28.7277  -12.1756   21.4216 H   0  0  0  0  0  0
  -28.4254  -13.8582   21.7841 H   0  0  0  0  0  0
  -25.2774   -9.5663   22.4750 H   0  0  0  0  0  0
  -23.9993   -7.4621   22.7467 H   0  0  0  0  0  0
  -21.0829   -8.8785   19.8978 H   0  0  0  0  0  0
  -22.3691  -10.9677   19.6173 H   0  0  0  0  0  0
  -21.2025   -7.6142   23.9706 H   0  0  0  0  0  0
  -21.1475   -6.0517   25.9066 H   0  0  0  0  0  0
  -22.0608   -2.7597   23.2841 H   0  0  0  0  0  0
  -22.4050  -11.9917   22.4852 H   0  0  0  0  0  0
  -21.1072  -13.1286   22.2634 H   0  0  0  0  0  0
  -24.6411  -15.8375   20.5159 H   0  0  0  0  0  0
  -26.2445  -15.6341   20.0324 H   0  0  0  0  0  0
  -26.7218  -32.5384   23.1024 H   0  0  0  0  0  0
  -25.0095  -33.9660   25.0378 H   0  0  0  0  0  0
  -22.7296  -31.2930   21.3848 H   0  0  0  0  0  0
  -23.3760  -35.9608   23.3260 H   0  0  0  0  0  0
  -24.3596  -36.8939   22.2054 H   0  0  0  0  0  0
  -23.7246  -37.6467   23.6685 H   0  0  0  0  0  0
  -26.1098  -31.5147   20.5947 H   0  0  0  0  0  0
  -26.8556  -30.8191   22.0029 H   0  0  0  0  0  0
  -28.1299  -28.9228   21.2016 H   0  0  0  0  0  0
  -25.9941  -25.8626   19.0462 H   0  0  0  0  0  0
  -23.9822  -27.2737   19.0223 H   0  0  0  0  0  0
  -23.7840  -30.5679   19.3961 H   0  0  0  0  0  0
  -22.7703  -29.2310   19.8508 H   0  0  0  0  0  0
  -25.1297  -36.1878   25.0806 H   0  0  0  0  0  0
  -20.9988  -28.3326   24.1392 H   0  0  0  0  0  0
  -20.5737  -26.2333   23.3619 H   0  0  0  0  0  0
  -21.6665  -26.7498   22.1187 H   0  0  0  0  0  0
  -19.6939  -25.6309   21.1262 H   0  0  0  0  0  0
  -19.6710  -27.3207   20.6749 H   0  0  0  0  0  0
  -17.4220  -26.6684   21.4031 H   0  0  0  0  0  0
  -18.0349  -26.0109   22.9037 H   0  0  0  0  0  0
  -19.7931  -30.7314   24.2247 H   0  0  0  0  0  0
  -17.5006  -31.6274   24.5193 H   0  0  0  0  0  0
  -15.5356  -30.2995   23.7665 H   0  0  0  0  0  0
  -15.8682  -28.0859   22.7025 H   0  0  0  0  0  0
  -24.5897  -30.7083   25.7732 H   0  0  0  0  0  0
  -24.8946  -32.2898   26.4827 H   0  0  0  0  0  0
  -25.8045  -30.8889   27.0181 H   0  0  0  0  0  0
  -26.2935  -29.6700   24.1221 H   0  0  0  0  0  0
  -27.4062  -29.7254   25.4691 H   0  0  0  0  0  0
  -27.8801  -30.4238   23.9394 H   0  0  0  0  0  0
  -27.2687  -33.3608   26.2009 H   0  0  0  0  0  0
  -28.3885  -32.6831   25.0274 H   0  0  0  0  0  0
  -28.0730  -31.8429   26.5378 H   0  0  0  0  0  0
  -28.2553  -38.0128   24.7567 H   0  0  0  0  0  0
  -28.1138  -36.2664   24.6177 H   0  0  0  0  0  0
  -27.2321  -37.1303   25.8851 H   0  0  0  0  0  0
  -20.9418  -29.8737   21.6796 H   0  0  0  0  0  0
  -26.0150  -38.2823   24.1461 H   0  0  0  0  0  0
  -32.7218  -19.2260   22.0374 H   0  0  0  0  0  0
  -31.3249  -21.0980   21.2760 H   0  0  0  0  0  0
  -32.0741  -16.9014   21.7035 H   0  0  0  0  0  0
  -28.4128  -18.2423   19.8224 H   0  0  0  0  0  0
  -28.9309  -24.9538   21.5884 H   0  0  0  0  0  0
  -27.2324  -24.8992   21.2385 H   0  0  0  0  0  0
  -28.8339  -15.6950   20.5860 H   0  0  0  0  0  0
  -29.2681  -22.3825   21.4231 H   0  0  0  0  0  0
  -28.4150  -19.9843   18.3101 H   0  0  0  0  0  0
  -27.9585  -21.6707   18.2734 H   0  0  0  0  0  0
  1 25  1  0  0  0
  1 30  2  0  0  0
  1 80  1  0  0  0
  2  3  1  0  0  0
  2 25  1  0  0  0
  2 84  1  0  0  0
  2 85  1  0  0  0
  3  4  1  0  0  0
  3 86  1  0  0  0
  3 87  1  0  0  0
  4  5  1  0  0  0
  4 88  1  0  0  0
  4 89  1  0  0  0
  5  6  1  0  0  0
  5 26  1  0  0  0
  5 90  1  0  0  0
  6 25  1  0  0  0
  6 91  1  0  0  0
  6 92  1  0  0  0
  7  8  2  0  0  0
  7 26  1  0  0  0
  7 29  1  0  0  0
  8  9  1  0  0  0
  8 22  1  0  0  0
  9 10  1  0  0  0
  9 27  2  0  0  0
 10 11  2  0  0  0
 10 15  1  0  0  0
 11 12  1  0  0  0
 11 93  1  0  0  0
 12 13  2  0  0  0
 12 94  1  0  0  0
 13 14  1  0  0  0
 13 31  1  0  0  0
 14 15  2  0  0  0
 14 95  1  0  0  0
 15 96  1  0  0  0
 16 17  2  0  0  0
 16 21  1  0  0  0
 16 31  1  0  0  0
 17 18  1  0  0  0
 17 97  1  0  0  0
 18 19  2  0  0  0
 18 98  1  0  0  0
 19 20  1  0  0  0
 19 24  1  0  0  0
 20 21  2  0  0  0
 20 99  1  0  0  0
 21 23  1  0  0  0
 22 28  1  0  0  0
 22 32  2  0  0  0
 26 27  1  0  0  0
 28100  1  0  0  0
 28101  1  0  0  0
 29102  1  0  0  0
 29103  1  0  0  0
 33 34  1  0  0  0
 33 66  1  0  0  0
 33 70  2  0  0  0
 34 36  1  0  0  0
 34 59  1  0  0  0
 34104  1  0  0  0
 35 44  2  0  0  0
 35 45  1  0  0  0
 35 68  1  0  0  0
 36 56  1  0  0  0
 36105  1  0  0  0
 37 39  1  0  0  0
 37 47  1  0  0  0
 37 66  1  0  0  0
 37106  1  0  0  0
 38 43  2  0  0  0
 38 46  1  0  0  0
 38 47  1  0  0  0
 39 64  1  0  0  0
 39 67  2  0  0  0
 40 52  1  0  0  0
 40 53  2  0  0  0
 40 58  1  0  0  0
 41107  1  0  0  0
 41108  1  0  0  0
 41109  1  0  0  0
 41 48  1  0  0  0
 42 43  1  0  0  0
 42 66  1  0  0  0
 42110  1  0  0  0
 42111  1  0  0  0
 43 44  1  0  0  0
 44112  1  0  0  0
 45 46  2  0  0  0
 45113  1  0  0  0
 46114  1  0  0  0
 47115  1  0  0  0
 47116  1  0  0  0
 48 56  1  0  0  0
 48 65  1  0  0  0
 48117  1  0  0  0
 49 50  1  0  0  0
 49 53  1  0  0  0
 49 64  1  0  0  0
 49118  1  0  0  0
 50 51  1  0  0  0
 50119  1  0  0  0
 50120  1  0  0  0
 51 52  1  0  0  0
 51121  1  0  0  0
 51122  1  0  0  0
 52123  1  0  0  0
 52124  1  0  0  0
 53 54  1  0  0  0
 54 55  2  0  0  0
 54125  1  0  0  0
 55 57  1  0  0  0
 55126  1  0  0  0
 56 69  2  0  0  0
 57 58  2  0  0  0
 57127  1  0  0  0
 58128  1  0  0  0
 59 60  1  0  0  0
 59 61  1  0  0  0
 59 62  1  0  0  0
 60129  1  0  0  0
 60130  1  0  0  0
 60131  1  0  0  0
 61132  1  0  0  0
 61133  1  0  0  0
 61134  1  0  0  0
 62135  1  0  0  0
 62136  1  0  0  0
 62137  1  0  0  0
 63 65  1  0  0  0
 63138  1  0  0  0
 63139  1  0  0  0
 63140  1  0  0  0
 64141  1  0  0  0
 65142  1  0  0  0
 68 79  1  0  0  0
 71 72  2  0  0  0
 71 73  1  0  0  0
 71143  1  0  0  0
 72 75  1  0  0  0
 72144  1  0  0  0
 73 76  2  0  0  0
 73145  1  0  0  0
 74 75  2  0  0  0
 74 76  1  0  0  0
 74146  1  0  0  0
 75 77  1  0  0  0
 76 80  1  0  0  0
 77 81  1  0  0  0
 77 82  2  0  0  0
 78 79  1  0  0  0
 78 81  1  0  0  0
 78 83  2  0  0  0
 79147  1  0  0  0
 79148  1  0  0  0
 80149  1  0  0  0
 81150  1  0  0  0
 82151  1  0  0  0
 82152  1  0  0  0
M  CHG  1  82   1
M  ISO  4   1 100  68 101  79 101  80 100
M  END
> <chiral flag>
0

> <version>
0

> <s_m_source_file>
/data/baiqing/PycharmProjects/Reinvent-master-3.2/result/LINK_invent/BTK/process_docking_weight1_custom_product_contain_oxygen_bond_distance_aromatic_linkinvent_7_9_3/rearranged_h_0065.sdf

> <i_m_source_file_index>
92

> <r_mmod_Potential_Energy-OPLS-2005>
-121.455673217773

> <r_mmod_Stretch_Energy-OPLS-2005>
134.204452514648

> <r_mmod_Bend_Energy-OPLS-2005>
166.334564208984

> <r_mmod_Torsional_Energy-OPLS-2005>
239.729141235352

> <r_mmod_Improper_Torsional_Energy-OPLS-2005>
7.43691301345825

> <r_mmod_Van_der_Waal_Energy-OPLS-2005>
140.701721191406

> <r_mmod_Electrostatic_Energy-OPLS-2005>
-434.206787109375

> <r_mmod_Solvation_Energy-OPLS-2005>
-464.685150146484

> <b_mmod_Minimization_Converged-OPLS-2005>
0

> <r_mmod_RMS_Derivative-OPLS-2005>
1.86115372180939

$$$$
93
                    3D
 Structure written by MMmdl.
173182  0  0  1  0            999 V2000
  -30.6322  -14.5779   20.5569 C   0  0  0  0  0  0
  -30.4409  -12.3643   19.4454 C   0  0  0  0  0  0
  -29.5103  -12.5267   18.2229 C   0  0  0  0  0  0
  -28.0302  -12.3673   18.6298 C   0  0  0  0  0  0
  -27.6616  -13.2111   19.8781 C   0  0  2  0  0  0
  -28.7019  -13.0090   21.0043 C   0  0  0  0  0  0
  -25.2551  -13.8142   20.5613 C   0  0  0  0  0  0
  -24.1832  -13.0431   20.9215 C   0  0  0  0  0  0
  -24.6392  -11.6901   20.8771 C   0  0  0  0  0  0
  -23.9050  -10.4299   21.0434 C   0  0  0  0  0  0
  -24.3600   -9.4217   21.9194 C   0  0  0  0  0  0
  -23.6296   -8.2245   22.0742 C   0  0  0  0  0  0
  -22.4263   -8.0293   21.3548 C   0  0  0  0  0  0
  -21.9907   -9.0254   20.4636 C   0  0  0  0  0  0
  -22.7239  -10.2134   20.3059 C   0  0  0  0  0  0
  -21.6828   -6.0754   22.5279 C   0  0  0  0  0  0
  -21.3995   -6.5649   23.8218 C   0  0  0  0  0  0
  -21.3654   -5.6794   24.9171 C   0  0  0  0  0  0
  -21.6045   -4.3062   24.7215 C   0  0  0  0  0  0
  -21.8831   -3.8155   23.4334 C   0  0  0  0  0  0
  -21.9181   -4.6982   22.3396 C   0  0  0  0  0  0
  -22.7859  -13.5239   21.1877 C   0  0  0  0  0  0
  -22.1660   -4.2162   21.0978 F   0  0  0  0  0  0
  -21.5632   -3.4553   25.7735 F   0  0  0  0  0  0
  -30.0298  -13.3529   20.4610 N   0  0  0  0  0  0
  -26.3003  -12.9324   20.3362 N   0  0  0  0  0  0
  -25.9326  -11.6494   20.5804 N   0  0  0  0  0  0
  -22.0490  -12.8206   22.0411 N   0  0  0  0  0  0
  -25.4236  -15.1832   20.3799 N   0  0  0  0  0  0
  -31.7503  -14.7978   20.0810 O   0  0  0  0  0  0
  -21.6621   -6.8896   21.4240 O   0  0  0  0  0  0
  -22.3559  -14.5558   20.6736 O   0  0  0  0  0  0
  -24.6222  -31.8620   23.2041 C   0  0  0  0  0  0
  -25.9089  -32.4782   23.8360 C   0  0  1  0  0  0
  -27.2395  -27.3704   20.0949 C   0  0  0  0  0  0
  -25.5927  -33.8581   24.2284 N   0  0  0  0  0  0
  -23.4129  -30.4833   21.5468 C   0  0  2  0  0  0
  -24.8597  -28.9399   20.1094 C   0  0  0  0  0  0
  -22.7445  -29.4626   22.4972 C   0  0  0  0  0  0
  -18.0272  -28.1383   22.8489 C   0  0  0  0  0  0
  -24.1485  -36.7288   23.2643 C   0  0  0  0  0  0
  -25.9478  -30.8034   21.3691 C   0  0  0  0  0  0
  -26.0225  -29.4332   20.7146 C   0  0  0  0  0  0
  -27.2083  -28.6513   20.7123 C   0  0  0  0  0  0
  -26.0505  -26.9032   19.4900 C   0  0  0  0  0  0
  -24.8717  -27.6762   19.4946 C   0  0  0  0  0  0
  -23.6227  -29.8130   20.1623 C   0  0  0  0  0  0
  -25.4109  -36.3084   24.0338 C   0  0  1  0  0  0
  -20.5865  -28.3671   23.1313 C   0  0  2  0  0  0
  -20.6750  -26.9398   22.5435 C   0  0  0  0  0  0
  -19.5746  -26.6378   21.5213 C   0  0  0  0  0  0
  -18.1908  -26.7945   22.1590 C   0  0  0  0  0  0
  -19.1520  -28.8846   23.2896 C   0  0  0  0  0  0
  -18.9444  -30.1442   23.8908 C   0  0  0  0  0  0
  -17.6441  -30.6586   24.0557 C   0  0  0  0  0  0
  -25.9056  -34.9457   23.5109 C   0  0  0  0  0  0
  -16.5336  -29.9078   23.6340 C   0  0  0  0  0  0
  -16.7247  -28.6501   23.0358 C   0  0  0  0  0  0
  -26.4487  -31.6588   25.0725 C   0  0  0  0  0  0
  -25.3731  -31.3702   26.1458 C   0  0  0  0  0  0
  -27.0306  -30.3015   24.6146 C   0  0  0  0  0  0
  -27.6052  -32.4322   25.7487 C   0  0  0  0  0  0
  -27.5588  -37.1782   24.8447 C   0  0  0  0  0  0
  -21.4163  -29.3022   22.3710 N   0  0  0  0  0  0
  -26.4272  -37.3793   23.9433 N   0  0  0  0  0  0
  -24.6793  -31.0660   22.0978 N   0  0  0  0  0  0
  -23.4185  -28.8183   23.3051 O   0  0  0  0  0  0
  -28.3868  -26.5812   20.1565 O   0  0  0  0  0  0
  -26.5616  -34.8928   22.4665 O   0  0  0  0  0  0
  -23.5396  -32.1397   23.7410 O   0  0  0  0  0  0
  -30.4648  -19.1812   20.0513 C   0  0  0  0  0  0
  -30.6675  -17.7819   20.2323 C   0  0  0  0  0  0
  -28.4208  -19.0477   21.3100 C   0  0  0  0  0  0
  -28.6142  -17.6538   21.5064 C   0  0  0  0  0  0
  -29.3237  -19.8501   20.5709 C   0  0  0  0  0  0
  -29.7431  -16.9778   20.9532 C   0  0  0  0  0  0
  -27.8957  -21.7644   19.8941 C   0  0  0  0  0  0
  -29.5680  -23.5909   17.9772 C   0  0  0  0  0  0
  -26.6473  -17.9960   24.2562 C   0  0  0  0  0  0
  -27.6792  -23.2912   19.6546 C   0  0  0  0  0  0
  -29.9232  -23.7497   20.4848 C   0  0  0  0  0  0
  -30.2207  -22.2146   20.6106 C   0  0  0  0  0  0
  -28.9632  -24.1017   19.3178 C   0  0  1  0  0  0
  -26.8449  -18.1698   25.7536 C   0  0  0  0  0  0
  -31.5691  -23.4611   16.6827 C   0  0  0  0  0  0
  -27.5432  -16.9157   22.3015 C   0  0  0  0  0  0
  -28.7135  -25.6611   19.0796 C   0  0  0  0  0  0
  -29.0880  -21.2832   20.3728 N   0  0  0  0  0  0
  -29.8697  -15.5400   21.1478 N   0  0  0  0  0  0
  -26.9413  -21.0253   19.6302 O   0  0  0  0  0  0
  -28.9077  -22.9540   17.1520 O   0  0  0  0  0  0
  -25.7118  -18.5437   23.6702 O   0  0  0  0  0  0
  -30.8597  -23.9255   17.8191 O   0  0  0  0  0  0
  -27.5868  -17.2128   23.6939 O   0  0  0  0  0  0
  -31.4829  -12.4876   19.1482 H   0  0  0  0  0  0
  -30.3669  -11.3543   19.8508 H   0  0  0  0  0  0
  -29.7684  -11.8008   17.4500 H   0  0  0  0  0  0
  -29.6632  -13.5120   17.7788 H   0  0  0  0  0  0
  -27.8521  -11.3099   18.8294 H   0  0  0  0  0  0
  -27.3797  -12.6307   17.7955 H   0  0  0  0  0  0
  -27.6969  -14.2581   19.5715 H   0  0  0  0  0  0
  -28.7007  -11.9717   21.3405 H   0  0  0  0  0  0
  -28.4412  -13.5910   21.8887 H   0  0  0  0  0  0
  -25.2737   -9.5703   22.4770 H   0  0  0  0  0  0
  -24.0026   -7.4620   22.7425 H   0  0  0  0  0  0
  -21.0850   -8.8758   19.8921 H   0  0  0  0  0  0
  -22.3709  -10.9666   19.6157 H   0  0  0  0  0  0
  -21.1990   -7.6158   23.9729 H   0  0  0  0  0  0
  -21.1464   -6.0520   25.9067 H   0  0  0  0  0  0
  -22.0624   -2.7622   23.2827 H   0  0  0  0  0  0
  -22.4096  -11.9853   22.4784 H   0  0  0  0  0  0
  -21.1097  -13.1222   22.2616 H   0  0  0  0  0  0
  -24.6137  -15.7937   20.3651 H   0  0  0  0  0  0
  -26.2035  -15.5586   19.8566 H   0  0  0  0  0  0
  -26.7157  -32.5464   23.1109 H   0  0  0  0  0  0
  -25.0093  -33.9726   25.0438 H   0  0  0  0  0  0
  -22.7054  -31.3031   21.4057 H   0  0  0  0  0  0
  -23.3773  -35.9588   23.3246 H   0  0  0  0  0  0
  -24.3597  -36.8964   22.2068 H   0  0  0  0  0  0
  -23.7194  -37.6454   23.6694 H   0  0  0  0  0  0
  -26.0741  -31.5660   20.5996 H   0  0  0  0  0  0
  -26.8311  -30.8528   21.9938 H   0  0  0  0  0  0
  -28.1003  -29.0231   21.1970 H   0  0  0  0  0  0
  -26.0072  -25.9229   19.0393 H   0  0  0  0  0  0
  -23.9757  -27.2859   19.0304 H   0  0  0  0  0  0
  -23.7272  -30.5850   19.3990 H   0  0  0  0  0  0
  -22.7455  -29.2313   19.8729 H   0  0  0  0  0  0
  -25.1284  -36.1918   25.0826 H   0  0  0  0  0  0
  -20.9948  -28.3232   24.1436 H   0  0  0  0  0  0
  -20.5616  -26.2283   23.3633 H   0  0  0  0  0  0
  -21.6627  -26.7418   22.1251 H   0  0  0  0  0  0
  -19.6899  -25.6285   21.1256 H   0  0  0  0  0  0
  -19.6711  -27.3179   20.6748 H   0  0  0  0  0  0
  -17.4208  -26.6743   21.3947 H   0  0  0  0  0  0
  -18.0244  -26.0053   22.8944 H   0  0  0  0  0  0
  -19.7920  -30.7255   24.2290 H   0  0  0  0  0  0
  -17.5000  -31.6272   24.5140 H   0  0  0  0  0  0
  -15.5335  -30.2978   23.7674 H   0  0  0  0  0  0
  -15.8643  -28.0817   22.7079 H   0  0  0  0  0  0
  -24.5989  -30.6937   25.7816 H   0  0  0  0  0  0
  -24.8817  -32.2839   26.4812 H   0  0  0  0  0  0
  -25.8100  -30.8987   27.0269 H   0  0  0  0  0  0
  -26.2848  -29.6787   24.1199 H   0  0  0  0  0  0
  -27.4027  -29.7256   25.4626 H   0  0  0  0  0  0
  -27.8711  -30.4291   23.9326 H   0  0  0  0  0  0
  -27.2658  -33.3606   26.2089 H   0  0  0  0  0  0
  -28.3848  -32.6913   25.0310 H   0  0  0  0  0  0
  -28.0743  -31.8444   26.5383 H   0  0  0  0  0  0
  -28.2562  -38.0124   24.7572 H   0  0  0  0  0  0
  -28.1122  -36.2667   24.6146 H   0  0  0  0  0  0
  -27.2335  -37.1276   25.8853 H   0  0  0  0  0  0
  -20.9337  -29.8737   21.6918 H   0  0  0  0  0  0
  -26.0149  -38.2852   24.1488 H   0  0  0  0  0  0
  -31.1940  -19.7336   19.4755 H   0  0  0  0  0  0
  -31.5481  -17.3357   19.7960 H   0  0  0  0  0  0
  -27.5423  -19.5083   21.7400 H   0  0  0  0  0  0
  -27.2108  -23.7032   20.5489 H   0  0  0  0  0  0
  -26.9443  -23.4142   18.8573 H   0  0  0  0  0  0
  -30.8624  -24.2989   20.3964 H   0  0  0  0  0  0
  -29.4797  -24.1028   21.4160 H   0  0  0  0  0  0
  -30.6241  -22.0156   21.6045 H   0  0  0  0  0  0
  -31.0210  -21.9608   19.9157 H   0  0  0  0  0  0
  -25.8814  -18.1970   26.2613 H   0  0  0  0  0  0
  -27.3677  -19.1036   25.9585 H   0  0  0  0  0  0
  -27.4265  -17.3459   26.1666 H   0  0  0  0  0  0
  -32.5976  -23.8203   16.7140 H   0  0  0  0  0  0
  -31.1129  -23.8198   15.7591 H   0  0  0  0  0  0
  -31.5936  -22.3703   16.6591 H   0  0  0  0  0  0
  -27.6473  -15.8391   22.1848 H   0  0  0  0  0  0
  -26.5709  -17.1583   21.8719 H   0  0  0  0  0  0
  -28.0343  -25.7873   18.2358 H   0  0  0  0  0  0
  -29.6458  -26.0834   18.7026 H   0  0  0  0  0  0
  -29.0941  -15.1264   21.6397 H   0  0  0  0  0  0
  1 25  1  0  0  0
  1 30  2  0  0  0
  1 89  1  0  0  0
  2  3  1  0  0  0
  2 25  1  0  0  0
  2 95  1  0  0  0
  2 96  1  0  0  0
  3  4  1  0  0  0
  3 97  1  0  0  0
  3 98  1  0  0  0
  4  5  1  0  0  0
  4 99  1  0  0  0
  4100  1  0  0  0
  5  6  1  0  0  0
  5 26  1  0  0  0
  5101  1  0  0  0
  6 25  1  0  0  0
  6102  1  0  0  0
  6103  1  0  0  0
  7  8  2  0  0  0
  7 26  1  0  0  0
  7 29  1  0  0  0
  8  9  1  0  0  0
  8 22  1  0  0  0
  9 10  1  0  0  0
  9 27  2  0  0  0
 10 11  2  0  0  0
 10 15  1  0  0  0
 11 12  1  0  0  0
 11104  1  0  0  0
 12 13  2  0  0  0
 12105  1  0  0  0
 13 14  1  0  0  0
 13 31  1  0  0  0
 14 15  2  0  0  0
 14106  1  0  0  0
 15107  1  0  0  0
 16 17  2  0  0  0
 16 21  1  0  0  0
 16 31  1  0  0  0
 17 18  1  0  0  0
 17108  1  0  0  0
 18 19  2  0  0  0
 18109  1  0  0  0
 19 20  1  0  0  0
 19 24  1  0  0  0
 20 21  2  0  0  0
 20110  1  0  0  0
 21 23  1  0  0  0
 22 28  1  0  0  0
 22 32  2  0  0  0
 26 27  1  0  0  0
 28111  1  0  0  0
 28112  1  0  0  0
 29113  1  0  0  0
 29114  1  0  0  0
 33 34  1  0  0  0
 33 66  1  0  0  0
 33 70  2  0  0  0
 34 36  1  0  0  0
 34 59  1  0  0  0
 34115  1  0  0  0
 35 44  2  0  0  0
 35 45  1  0  0  0
 35 68  1  0  0  0
 36 56  1  0  0  0
 36116  1  0  0  0
 37 39  1  0  0  0
 37 47  1  0  0  0
 37 66  1  0  0  0
 37117  1  0  0  0
 38 43  2  0  0  0
 38 46  1  0  0  0
 38 47  1  0  0  0
 39 64  1  0  0  0
 39 67  2  0  0  0
 40 52  1  0  0  0
 40 53  2  0  0  0
 40 58  1  0  0  0
 41118  1  0  0  0
 41119  1  0  0  0
 41120  1  0  0  0
 41 48  1  0  0  0
 42 43  1  0  0  0
 42 66  1  0  0  0
 42121  1  0  0  0
 42122  1  0  0  0
 43 44  1  0  0  0
 44123  1  0  0  0
 45 46  2  0  0  0
 45124  1  0  0  0
 46125  1  0  0  0
 47126  1  0  0  0
 47127  1  0  0  0
 48 56  1  0  0  0
 48 65  1  0  0  0
 48128  1  0  0  0
 49 50  1  0  0  0
 49 53  1  0  0  0
 49 64  1  0  0  0
 49129  1  0  0  0
 50 51  1  0  0  0
 50130  1  0  0  0
 50131  1  0  0  0
 51 52  1  0  0  0
 51132  1  0  0  0
 51133  1  0  0  0
 52134  1  0  0  0
 52135  1  0  0  0
 53 54  1  0  0  0
 54 55  2  0  0  0
 54136  1  0  0  0
 55 57  1  0  0  0
 55137  1  0  0  0
 56 69  2  0  0  0
 57 58  2  0  0  0
 57138  1  0  0  0
 58139  1  0  0  0
 59 60  1  0  0  0
 59 61  1  0  0  0
 59 62  1  0  0  0
 60140  1  0  0  0
 60141  1  0  0  0
 60142  1  0  0  0
 61143  1  0  0  0
 61144  1  0  0  0
 61145  1  0  0  0
 62146  1  0  0  0
 62147  1  0  0  0
 62148  1  0  0  0
 63 65  1  0  0  0
 63149  1  0  0  0
 63150  1  0  0  0
 63151  1  0  0  0
 64152  1  0  0  0
 65153  1  0  0  0
 68 87  1  0  0  0
 71 72  2  0  0  0
 71 75  1  0  0  0
 71154  1  0  0  0
 72 76  1  0  0  0
 72155  1  0  0  0
 73 74  1  0  0  0
 73 75  2  0  0  0
 73156  1  0  0  0
 74 76  2  0  0  0
 74 86  1  0  0  0
 75 88  1  0  0  0
 76 89  1  0  0  0
 77 80  1  0  0  0
 77 88  1  0  0  0
 77 90  2  0  0  0
 78 91  2  0  0  0
 78 93  1  0  0  0
 78 83  1  0  0  0
 79 84  1  0  0  0
 79 92  2  0  0  0
 79 94  1  0  0  0
 80 83  1  0  0  0
 80157  1  0  0  0
 80158  1  0  0  0
 81 82  1  0  0  0
 81 83  1  0  0  0
 81159  1  0  0  0
 81160  1  0  0  0
 82 88  1  0  0  0
 82161  1  0  0  0
 82162  1  0  0  0
 83 87  1  0  0  0
 84163  1  0  0  0
 84164  1  0  0  0
 84165  1  0  0  0
 85 93  1  0  0  0
 85166  1  0  0  0
 85167  1  0  0  0
 85168  1  0  0  0
 86 94  1  0  0  0
 86169  1  0  0  0
 86170  1  0  0  0
 87171  1  0  0  0
 87172  1  0  0  0
 89173  1  0  0  0
M  ISO  4   1 100  68 101  87 101  89 100
M  END
> <chiral flag>
0

> <version>
0

> <s_m_source_file>
/data/baiqing/PycharmProjects/Reinvent-master-3.2/result/LINK_invent/BTK/process_docking_weight1_custom_product_contain_oxygen_bond_distance_aromatic_linkinvent_7_9_3/rearranged_h_0065.sdf

> <i_m_source_file_index>
93

> <r_mmod_Potential_Energy-OPLS-2005>
3.07588458061218

> <r_mmod_Stretch_Energy-OPLS-2005>
72.1840133666992

> <r_mmod_Bend_Energy-OPLS-2005>
153.515808105469

> <r_mmod_Torsional_Energy-OPLS-2005>
290.787536621094

> <r_mmod_Improper_Torsional_Energy-OPLS-2005>
5.42036104202271

> <r_mmod_Van_der_Waal_Energy-OPLS-2005>
166.908569335938

> <r_mmod_Electrostatic_Energy-OPLS-2005>
-478.328399658203

> <r_mmod_Solvation_Energy-OPLS-2005>
-237.131332397461

> <b_mmod_Minimization_Converged-OPLS-2005>
0

> <r_mmod_RMS_Derivative-OPLS-2005>
2.32131266593933

$$$$
94
                    3D
 Structure written by MMmdl.
156165  0  0  1  0            999 V2000
  -30.5940  -14.7954   20.4686 C   0  0  0  0  0  0
  -30.4346  -12.4917   19.4741 C   0  0  0  0  0  0
  -29.5103  -12.5119   18.2369 C   0  0  0  0  0  0
  -28.0368  -12.3311   18.6513 C   0  0  0  0  0  0
  -27.6365  -13.2357   19.8466 C   0  0  2  0  0  0
  -28.6824  -13.1902   20.9796 C   0  0  0  0  0  0
  -25.2482  -13.8196   20.5702 C   0  0  0  0  0  0
  -24.1782  -13.0436   20.9222 C   0  0  0  0  0  0
  -24.6385  -11.6919   20.8758 C   0  0  0  0  0  0
  -23.9071  -10.4291   21.0413 C   0  0  0  0  0  0
  -24.3626   -9.4203   21.9179 C   0  0  0  0  0  0
  -23.6294   -8.2240   22.0750 C   0  0  0  0  0  0
  -22.4273   -8.0280   21.3543 C   0  0  0  0  0  0
  -21.9909   -9.0256   20.4645 C   0  0  0  0  0  0
  -22.7248  -10.2130   20.3054 C   0  0  0  0  0  0
  -21.6854   -6.0731   22.5284 C   0  0  0  0  0  0
  -21.4019   -6.5642   23.8214 C   0  0  0  0  0  0
  -21.3658   -5.6792   24.9174 C   0  0  0  0  0  0
  -21.6044   -4.3050   24.7229 C   0  0  0  0  0  0
  -21.8816   -3.8143   23.4349 C   0  0  0  0  0  0
  -21.9193   -4.6961   22.3409 C   0  0  0  0  0  0
  -22.7801  -13.5208   21.1874 C   0  0  0  0  0  0
  -22.1659   -4.2144   21.0984 F   0  0  0  0  0  0
  -21.5627   -3.4539   25.7741 F   0  0  0  0  0  0
  -29.9710  -13.5650   20.3859 N   0  0  0  0  0  0
  -26.2912  -12.9412   20.3274 N   0  0  0  0  0  0
  -25.9315  -11.6554   20.5753 N   0  0  0  0  0  0
  -22.0458  -12.8206   22.0446 N   0  0  0  0  0  0
  -25.4132  -15.1928   20.4120 N   0  0  0  0  0  0
  -31.7973  -14.8713   20.2019 O   0  0  0  0  0  0
  -21.6637   -6.8877   21.4242 O   0  0  0  0  0  0
  -22.3484  -14.5510   20.6716 O   0  0  0  0  0  0
  -24.6344  -31.8511   23.1945 C   0  0  0  0  0  0
  -25.9160  -32.4722   23.8299 C   0  0  1  0  0  0
  -27.2202  -27.2269   20.1474 C   0  0  0  0  0  0
  -25.5956  -33.8521   24.2237 N   0  0  0  0  0  0
  -23.4335  -30.4714   21.5378 C   0  0  2  0  0  0
  -24.8834  -28.9079   20.1154 C   0  0  0  0  0  0
  -22.7529  -29.4564   22.4885 C   0  0  0  0  0  0
  -18.0304  -28.1380   22.8475 C   0  0  0  0  0  0
  -24.1495  -36.7250   23.2628 C   0  0  0  0  0  0
  -25.9825  -30.7515   21.3832 C   0  0  0  0  0  0
  -26.0569  -29.3698   20.7281 C   0  0  0  0  0  0
  -27.2310  -28.5436   20.7294 C   0  0  0  0  0  0
  -26.0253  -26.8336   19.5127 C   0  0  0  0  0  0
  -24.8743  -27.6480   19.4954 C   0  0  0  0  0  0
  -23.6560  -29.8006   20.1568 C   0  0  0  0  0  0
  -25.4123  -36.3036   24.0320 C   0  0  1  0  0  0
  -20.5909  -28.3686   23.1245 C   0  0  2  0  0  0
  -20.6783  -26.9394   22.5405 C   0  0  0  0  0  0
  -19.5763  -26.6372   21.5201 C   0  0  0  0  0  0
  -18.1944  -26.7923   22.1614 C   0  0  0  0  0  0
  -19.1560  -28.8854   23.2847 C   0  0  0  0  0  0
  -18.9473  -30.1462   23.8862 C   0  0  0  0  0  0
  -17.6467  -30.6572   24.0556 C   0  0  0  0  0  0
  -25.9072  -34.9415   23.5083 C   0  0  0  0  0  0
  -16.5360  -29.9061   23.6335 C   0  0  0  0  0  0
  -16.7288  -28.6482   23.0345 C   0  0  0  0  0  0
  -26.4521  -31.6551   25.0703 C   0  0  0  0  0  0
  -25.3742  -31.3755   26.1430 C   0  0  0  0  0  0
  -27.0340  -30.2933   24.6239 C   0  0  0  0  0  0
  -27.6080  -32.4287   25.7469 C   0  0  0  0  0  0
  -27.5591  -37.1764   24.8460 C   0  0  0  0  0  0
  -21.4231  -29.3016   22.3622 N   0  0  0  0  0  0
  -26.4286  -37.3746   23.9423 N   0  0  0  0  0  0
  -24.7020  -31.0444   22.0934 N   0  0  0  0  0  0
  -23.4217  -28.8126   23.3008 O   0  0  0  0  0  0
  -28.2972  -26.3032   20.1307 O   0  0  0  0  0  0
  -26.5629  -34.8900   22.4649 O   0  0  0  0  0  0
  -23.5484  -32.1349   23.7219 O   0  0  0  0  0  0
  -31.5939  -18.8928   22.1819 C   0  0  0  0  0  0
  -31.2410  -17.5989   21.7583 C   0  0  0  0  0  0
  -29.4648  -18.5934   20.4290 C   0  0  0  0  0  0
  -30.9167  -20.0524   21.7423 C   0  0  0  0  0  0
  -29.8226  -19.9636   20.8341 C   0  0  0  0  0  0
  -30.1647  -17.3779   20.8762 C   0  0  0  0  0  0
  -28.6349  -23.7459   20.3454 C   0  0  0  0  0  0
  -29.6528  -21.8347   19.1703 C   0  0  0  0  0  0
  -28.1544  -25.0052   20.7275 C   0  0  0  0  0  0
  -29.3544  -23.3527   19.0811 C   0  0  0  0  0  0
  -28.5545  -22.3681   21.1105 C   0  0  0  0  0  0
  -31.4452  -21.3840   22.2586 C   0  0  0  0  0  0
  -29.2265  -21.2539   20.3192 N   0  0  0  0  0  0
  -29.8083  -15.9513   20.5755 N   0  0  0  0  0  0
  -30.2217  -21.2417   18.2492 O   0  0  0  0  0  0
  -31.4719  -12.6312   19.1655 H   0  0  0  0  0  0
  -30.3981  -11.5212   19.9718 H   0  0  0  0  0  0
  -29.8005  -11.7304   17.5337 H   0  0  0  0  0  0
  -29.6294  -13.4593   17.7086 H   0  0  0  0  0  0
  -27.8977  -11.2834   18.9191 H   0  0  0  0  0  0
  -27.3803  -12.5174   17.8009 H   0  0  0  0  0  0
  -27.6217  -14.2533   19.4575 H   0  0  0  0  0  0
  -28.7342  -12.1941   21.4223 H   0  0  0  0  0  0
  -28.4118  -13.8734   21.7863 H   0  0  0  0  0  0
  -25.2768   -9.5674   22.4760 H   0  0  0  0  0  0
  -24.0007   -7.4627   22.7461 H   0  0  0  0  0  0
  -21.0842   -8.8777   19.8945 H   0  0  0  0  0  0
  -22.3707  -10.9671   19.6170 H   0  0  0  0  0  0
  -21.2013   -7.6151   23.9720 H   0  0  0  0  0  0
  -21.1485   -6.0519   25.9076 H   0  0  0  0  0  0
  -22.0596   -2.7603   23.2855 H   0  0  0  0  0  0
  -22.4085  -11.9881   22.4849 H   0  0  0  0  0  0
  -21.1069  -13.1213   22.2639 H   0  0  0  0  0  0
  -24.6399  -15.8404   20.5206 H   0  0  0  0  0  0
  -26.2533  -15.6403   20.0707 H   0  0  0  0  0  0
  -26.7224  -32.5358   23.1028 H   0  0  0  0  0  0
  -25.0142  -33.9648   25.0412 H   0  0  0  0  0  0
  -22.7299  -31.2927   21.3882 H   0  0  0  0  0  0
  -23.3761  -35.9576   23.3284 H   0  0  0  0  0  0
  -24.3581  -36.8872   22.2040 H   0  0  0  0  0  0
  -23.7238  -37.6441   23.6668 H   0  0  0  0  0  0
  -26.1341  -31.5103   20.6145 H   0  0  0  0  0  0
  -26.8537  -30.7947   22.0244 H   0  0  0  0  0  0
  -28.1331  -28.8952   21.2093 H   0  0  0  0  0  0
  -25.9768  -25.8630   19.0399 H   0  0  0  0  0  0
  -23.9770  -27.2889   19.0113 H   0  0  0  0  0  0
  -23.7896  -30.5745   19.4001 H   0  0  0  0  0  0
  -22.7729  -29.2375   19.8493 H   0  0  0  0  0  0
  -25.1301  -36.1866   25.0806 H   0  0  0  0  0  0
  -21.0001  -28.3274   24.1363 H   0  0  0  0  0  0
  -20.5658  -26.2288   23.3609 H   0  0  0  0  0  0
  -21.6653  -26.7394   22.1215 H   0  0  0  0  0  0
  -19.6919  -25.6282   21.1229 H   0  0  0  0  0  0
  -19.6712  -27.3177   20.6725 H   0  0  0  0  0  0
  -17.4214  -26.6648   21.4022 H   0  0  0  0  0  0
  -18.0352  -26.0073   22.9019 H   0  0  0  0  0  0
  -19.7952  -30.7294   24.2198 H   0  0  0  0  0  0
  -17.5017  -31.6251   24.5163 H   0  0  0  0  0  0
  -15.5358  -30.2938   23.7682 H   0  0  0  0  0  0
  -15.8689  -28.0794   22.7063 H   0  0  0  0  0  0
  -24.5938  -30.7064   25.7796 H   0  0  0  0  0  0
  -24.8923  -32.2947   26.4769 H   0  0  0  0  0  0
  -25.8059  -30.9015   27.0253 H   0  0  0  0  0  0
  -26.2926  -29.6674   24.1260 H   0  0  0  0  0  0
  -27.3961  -29.7204   25.4788 H   0  0  0  0  0  0
  -27.8843  -30.4131   23.9518 H   0  0  0  0  0  0
  -27.2713  -33.3614   26.2007 H   0  0  0  0  0  0
  -28.3922  -32.6787   25.0312 H   0  0  0  0  0  0
  -28.0722  -31.8429   26.5412 H   0  0  0  0  0  0
  -28.2578  -38.0087   24.7541 H   0  0  0  0  0  0
  -28.1116  -36.2620   24.6248 H   0  0  0  0  0  0
  -27.2318  -37.1375   25.8860 H   0  0  0  0  0  0
  -20.9423  -29.8700   21.6794 H   0  0  0  0  0  0
  -26.0155  -38.2803   24.1464 H   0  0  0  0  0  0
  -32.4252  -18.9902   22.8667 H   0  0  0  0  0  0
  -31.8068  -16.7655   22.1505 H   0  0  0  0  0  0
  -28.6347  -18.4777   19.7466 H   0  0  0  0  0  0
  -27.6297  -25.1005   21.6688 H   0  0  0  0  0  0
  -30.2846  -23.9132   18.9864 H   0  0  0  0  0  0
  -28.7310  -23.5633   18.2134 H   0  0  0  0  0  0
  -27.5056  -22.1105   21.2586 H   0  0  0  0  0  0
  -28.9912  -22.4780   22.1005 H   0  0  0  0  0  0
  -32.4841  -21.2942   22.5762 H   0  0  0  0  0  0
  -30.8718  -21.7078   23.1267 H   0  0  0  0  0  0
  -31.4174  -22.1695   21.5040 H   0  0  0  0  0  0
  -28.8182  -15.7711   20.5108 H   0  0  0  0  0  0
  1 25  1  0  0  0
  1 30  2  0  0  0
  1 84  1  0  0  0
  2  3  1  0  0  0
  2 25  1  0  0  0
  2 86  1  0  0  0
  2 87  1  0  0  0
  3  4  1  0  0  0
  3 88  1  0  0  0
  3 89  1  0  0  0
  4  5  1  0  0  0
  4 90  1  0  0  0
  4 91  1  0  0  0
  5  6  1  0  0  0
  5 26  1  0  0  0
  5 92  1  0  0  0
  6 25  1  0  0  0
  6 93  1  0  0  0
  6 94  1  0  0  0
  7  8  2  0  0  0
  7 26  1  0  0  0
  7 29  1  0  0  0
  8  9  1  0  0  0
  8 22  1  0  0  0
  9 10  1  0  0  0
  9 27  2  0  0  0
 10 11  2  0  0  0
 10 15  1  0  0  0
 11 12  1  0  0  0
 11 95  1  0  0  0
 12 13  2  0  0  0
 12 96  1  0  0  0
 13 14  1  0  0  0
 13 31  1  0  0  0
 14 15  2  0  0  0
 14 97  1  0  0  0
 15 98  1  0  0  0
 16 17  2  0  0  0
 16 21  1  0  0  0
 16 31  1  0  0  0
 17 18  1  0  0  0
 17 99  1  0  0  0
 18 19  2  0  0  0
 18100  1  0  0  0
 19 20  1  0  0  0
 19 24  1  0  0  0
 20 21  2  0  0  0
 20101  1  0  0  0
 21 23  1  0  0  0
 22 28  1  0  0  0
 22 32  2  0  0  0
 26 27  1  0  0  0
 28102  1  0  0  0
 28103  1  0  0  0
 29104  1  0  0  0
 29105  1  0  0  0
 33 34  1  0  0  0
 33 66  1  0  0  0
 33 70  2  0  0  0
 34 36  1  0  0  0
 34 59  1  0  0  0
 34106  1  0  0  0
 35 44  2  0  0  0
 35 45  1  0  0  0
 35 68  1  0  0  0
 36 56  1  0  0  0
 36107  1  0  0  0
 37 39  1  0  0  0
 37 47  1  0  0  0
 37 66  1  0  0  0
 37108  1  0  0  0
 38 43  2  0  0  0
 38 46  1  0  0  0
 38 47  1  0  0  0
 39 64  1  0  0  0
 39 67  2  0  0  0
 40 52  1  0  0  0
 40 53  2  0  0  0
 40 58  1  0  0  0
 41109  1  0  0  0
 41110  1  0  0  0
 41111  1  0  0  0
 41 48  1  0  0  0
 42 43  1  0  0  0
 42 66  1  0  0  0
 42112  1  0  0  0
 42113  1  0  0  0
 43 44  1  0  0  0
 44114  1  0  0  0
 45 46  2  0  0  0
 45115  1  0  0  0
 46116  1  0  0  0
 47117  1  0  0  0
 47118  1  0  0  0
 48 56  1  0  0  0
 48 65  1  0  0  0
 48119  1  0  0  0
 49 50  1  0  0  0
 49 53  1  0  0  0
 49 64  1  0  0  0
 49120  1  0  0  0
 50 51  1  0  0  0
 50121  1  0  0  0
 50122  1  0  0  0
 51 52  1  0  0  0
 51123  1  0  0  0
 51124  1  0  0  0
 52125  1  0  0  0
 52126  1  0  0  0
 53 54  1  0  0  0
 54 55  2  0  0  0
 54127  1  0  0  0
 55 57  1  0  0  0
 55128  1  0  0  0
 56 69  2  0  0  0
 57 58  2  0  0  0
 57129  1  0  0  0
 58130  1  0  0  0
 59 60  1  0  0  0
 59 61  1  0  0  0
 59 62  1  0  0  0
 60131  1  0  0  0
 60132  1  0  0  0
 60133  1  0  0  0
 61134  1  0  0  0
 61135  1  0  0  0
 61136  1  0  0  0
 62137  1  0  0  0
 62138  1  0  0  0
 62139  1  0  0  0
 63 65  1  0  0  0
 63140  1  0  0  0
 63141  1  0  0  0
 63142  1  0  0  0
 64143  1  0  0  0
 65144  1  0  0  0
 68 79  1  0  0  0
 71 72  2  0  0  0
 71 74  1  0  0  0
 71145  1  0  0  0
 72 76  1  0  0  0
 72146  1  0  0  0
 73 75  1  0  0  0
 73 76  2  0  0  0
 73147  1  0  0  0
 74 75  2  0  0  0
 74 82  1  0  0  0
 75 83  1  0  0  0
 76 84  1  0  0  0
 77 79  2  0  0  0
 77 80  1  0  0  0
 77 81  1  0  0  0
 78 80  1  0  0  0
 78 83  1  0  0  0
 78 85  2  0  0  0
 79148  1  0  0  0
 80149  1  0  0  0
 80150  1  0  0  0
 81 83  1  0  0  0
 81151  1  0  0  0
 81152  1  0  0  0
 82153  1  0  0  0
 82154  1  0  0  0
 82155  1  0  0  0
 84156  1  0  0  0
M  ISO  4   1 100  68 101  79 101  84 100
M  END
> <chiral flag>
0

> <version>
0

> <s_m_source_file>
/data/baiqing/PycharmProjects/Reinvent-master-3.2/result/LINK_invent/BTK/process_docking_weight1_custom_product_contain_oxygen_bond_distance_aromatic_linkinvent_7_9_3/rearranged_h_0065.sdf

> <i_m_source_file_index>
94

> <r_mmod_Potential_Energy-OPLS-2005>
316.279022216797

> <r_mmod_Stretch_Energy-OPLS-2005>
144.04997253418

> <r_mmod_Bend_Energy-OPLS-2005>
199.394622802734

> <r_mmod_Torsional_Energy-OPLS-2005>
302.426727294922

> <r_mmod_Improper_Torsional_Energy-OPLS-2005>
8.01557445526123

> <r_mmod_Van_der_Waal_Energy-OPLS-2005>
129.783950805664

> <r_mmod_Electrostatic_Energy-OPLS-2005>
-351.618377685547

> <r_mmod_Solvation_Energy-OPLS-2005>
-224.232040405273

> <b_mmod_Minimization_Converged-OPLS-2005>
0

> <r_mmod_RMS_Derivative-OPLS-2005>
1.76755154132843

$$$$
95
                    3D
 Structure written by MMmdl.
152160  0  0  1  0            999 V2000
  -30.7014  -14.6355   20.4593 C   0  0  0  0  0  0
  -30.4075  -12.3601   19.4960 C   0  0  0  0  0  0
  -29.5107  -12.4825   18.2467 C   0  0  0  0  0  0
  -28.0317  -12.3391   18.6467 C   0  0  0  0  0  0
  -27.6478  -13.2385   19.8529 C   0  0  2  0  0  0
  -28.6882  -13.1659   20.9922 C   0  0  0  0  0  0
  -25.2518  -13.8231   20.5690 C   0  0  0  0  0  0
  -24.1806  -13.0461   20.9185 C   0  0  0  0  0  0
  -24.6410  -11.6943   20.8740 C   0  0  0  0  0  0
  -23.9087  -10.4308   21.0400 C   0  0  0  0  0  0
  -24.3632   -9.4218   21.9179 C   0  0  0  0  0  0
  -23.6301   -8.2255   22.0753 C   0  0  0  0  0  0
  -22.4283   -8.0291   21.3546 C   0  0  0  0  0  0
  -21.9921   -9.0269   20.4651 C   0  0  0  0  0  0
  -22.7255  -10.2145   20.3055 C   0  0  0  0  0  0
  -21.6859   -6.0739   22.5282 C   0  0  0  0  0  0
  -21.4024   -6.5643   23.8215 C   0  0  0  0  0  0
  -21.3657   -5.6793   24.9174 C   0  0  0  0  0  0
  -21.6040   -4.3056   24.7225 C   0  0  0  0  0  0
  -21.8818   -3.8148   23.4347 C   0  0  0  0  0  0
  -21.9191   -4.6965   22.3403 C   0  0  0  0  0  0
  -22.7822  -13.5227   21.1851 C   0  0  0  0  0  0
  -22.1656   -4.2148   21.0981 F   0  0  0  0  0  0
  -21.5623   -3.4538   25.7737 F   0  0  0  0  0  0
  -30.0165  -13.4436   20.4306 N   0  0  0  0  0  0
  -26.2972  -12.9464   20.3301 N   0  0  0  0  0  0
  -25.9348  -11.6594   20.5768 N   0  0  0  0  0  0
  -22.0476  -12.8221   22.0423 N   0  0  0  0  0  0
  -25.4202  -15.1953   20.4127 N   0  0  0  0  0  0
  -31.8721  -14.5689   20.0900 O   0  0  0  0  0  0
  -21.6647   -6.8884   21.4246 O   0  0  0  0  0  0
  -22.3487  -14.5519   20.6687 O   0  0  0  0  0  0
  -24.6222  -31.8631   23.2053 C   0  0  0  0  0  0
  -25.9081  -32.4798   23.8373 C   0  0  1  0  0  0
  -27.2179  -27.3485   20.1223 C   0  0  0  0  0  0
  -25.5916  -33.8599   24.2305 N   0  0  0  0  0  0
  -23.4161  -30.4869   21.5464 C   0  0  2  0  0  0
  -24.8649  -28.9507   20.1061 C   0  0  0  0  0  0
  -22.7467  -29.4628   22.4934 C   0  0  0  0  0  0
  -18.0292  -28.1375   22.8491 C   0  0  0  0  0  0
  -24.1496  -36.7304   23.2639 C   0  0  0  0  0  0
  -25.9550  -30.8026   21.3752 C   0  0  0  0  0  0
  -26.0309  -29.4336   20.7155 C   0  0  0  0  0  0
  -27.2157  -28.6426   20.7173 C   0  0  0  0  0  0
  -26.0418  -26.9188   19.4719 C   0  0  0  0  0  0
  -24.8709  -27.6977   19.4723 C   0  0  0  0  0  0
  -23.6304  -29.8260   20.1596 C   0  0  0  0  0  0
  -25.4119  -36.3100   24.0335 C   0  0  1  0  0  0
  -20.5891  -28.3680   23.1290 C   0  0  2  0  0  0
  -20.6778  -26.9405   22.5410 C   0  0  0  0  0  0
  -19.5751  -26.6378   21.5214 C   0  0  0  0  0  0
  -18.1934  -26.7917   22.1630 C   0  0  0  0  0  0
  -19.1543  -28.8843   23.2888 C   0  0  0  0  0  0
  -18.9464  -30.1449   23.8900 C   0  0  0  0  0  0
  -17.6463  -30.6580   24.0562 C   0  0  0  0  0  0
  -25.9046  -34.9464   23.5118 C   0  0  0  0  0  0
  -16.5356  -29.9080   23.6322 C   0  0  0  0  0  0
  -16.7279  -28.6496   23.0345 C   0  0  0  0  0  0
  -26.4476  -31.6592   25.0728 C   0  0  0  0  0  0
  -25.3722  -31.3729   26.1466 C   0  0  0  0  0  0
  -27.0299  -30.3015   24.6156 C   0  0  0  0  0  0
  -27.6050  -32.4313   25.7486 C   0  0  0  0  0  0
  -27.5584  -37.1816   24.8469 C   0  0  0  0  0  0
  -21.4181  -29.3036   22.3680 N   0  0  0  0  0  0
  -26.4305  -37.3784   23.9399 N   0  0  0  0  0  0
  -24.6826  -31.0667   22.0993 N   0  0  0  0  0  0
  -23.4202  -28.8163   23.3001 O   0  0  0  0  0  0
  -28.2944  -26.4640   20.1886 O   0  0  0  0  0  0
  -26.5608  -34.8918   22.4681 O   0  0  0  0  0  0
  -23.5393  -32.1413   23.7396 O   0  0  0  0  0  0
  -29.6792  -21.0755   21.6784 C   0  0  0  0  0  0
  -28.4507  -20.4444   19.7206 C   0  0  0  0  0  0
  -30.2307  -19.7615   21.7699 C   0  0  0  0  0  0
  -28.7998  -21.4646   20.6406 C   0  0  0  0  0  0
  -29.0103  -19.1330   19.7715 C   0  0  0  0  0  0
  -29.9439  -18.7563   20.7784 C   0  0  0  0  0  0
  -28.7493  -23.8955   20.6464 C   0  0  0  0  0  0
  -31.1479  -19.5144   22.9575 C   0  0  0  0  0  0
  -27.9845  -25.2324   20.9405 C   0  0  0  0  0  0
  -30.1039  -15.8452   20.7632 N   0  5  0  0  0  0
  -28.1555  -22.7416   20.6067 N   0  0  0  0  0  0
  -32.0821  -17.2812   21.5387 O   0  0  0  0  0  0
  -31.4617  -17.3429   19.1409 O   0  0  0  0  0  0
  -28.6467  -18.2577   18.8032 F   0  0  0  0  0  0
  -31.0016  -17.2149   20.5372 S   0  0  0  0  0  0
  -31.4590  -12.3911   19.2061 H   0  0  0  0  0  0
  -30.2697  -11.3886   19.9722 H   0  0  0  0  0  0
  -29.7744  -11.7158   17.5175 H   0  0  0  0  0  0
  -29.6760  -13.4446   17.7588 H   0  0  0  0  0  0
  -27.8643  -11.2912   18.8996 H   0  0  0  0  0  0
  -27.3858  -12.5513   17.7945 H   0  0  0  0  0  0
  -27.6531  -14.2637   19.4822 H   0  0  0  0  0  0
  -28.6800  -12.1837   21.4666 H   0  0  0  0  0  0
  -28.4453  -13.8879   21.7735 H   0  0  0  0  0  0
  -25.2778   -9.5683   22.4753 H   0  0  0  0  0  0
  -24.0003   -7.4646   22.7478 H   0  0  0  0  0  0
  -21.0848   -8.8802   19.8962 H   0  0  0  0  0  0
  -22.3722  -10.9686   19.6164 H   0  0  0  0  0  0
  -21.2035   -7.6154   23.9724 H   0  0  0  0  0  0
  -21.1474   -6.0521   25.9075 H   0  0  0  0  0  0
  -22.0599   -2.7612   23.2853 H   0  0  0  0  0  0
  -22.4110  -11.9906   22.4834 H   0  0  0  0  0  0
  -21.1090  -13.1242   22.2626 H   0  0  0  0  0  0
  -24.6642  -15.8582   20.5453 H   0  0  0  0  0  0
  -26.2958  -15.6340   20.1517 H   0  0  0  0  0  0
  -26.7151  -32.5482   23.1129 H   0  0  0  0  0  0
  -25.0063  -33.9756   25.0448 H   0  0  0  0  0  0
  -22.7082  -31.3067   21.4066 H   0  0  0  0  0  0
  -23.3745  -35.9653   23.3337 H   0  0  0  0  0  0
  -24.3577  -36.8875   22.2043 H   0  0  0  0  0  0
  -23.7266  -37.6530   23.6624 H   0  0  0  0  0  0
  -26.0852  -31.5694   20.6104 H   0  0  0  0  0  0
  -26.8360  -30.8489   22.0039 H   0  0  0  0  0  0
  -28.1070  -29.0002   21.2143 H   0  0  0  0  0  0
  -26.0203  -25.9532   18.9863 H   0  0  0  0  0  0
  -23.9799  -27.3252   18.9858 H   0  0  0  0  0  0
  -23.7467  -30.6061   19.4064 H   0  0  0  0  0  0
  -22.7517  -29.2544   19.8550 H   0  0  0  0  0  0
  -25.1299  -36.1967   25.0830 H   0  0  0  0  0  0
  -20.9990  -28.3251   24.1407 H   0  0  0  0  0  0
  -20.5678  -26.2289   23.3607 H   0  0  0  0  0  0
  -21.6646  -26.7429   22.1205 H   0  0  0  0  0  0
  -19.6914  -25.6292   21.1235 H   0  0  0  0  0  0
  -19.6684  -27.3195   20.6749 H   0  0  0  0  0  0
  -17.4200  -26.6665   21.4036 H   0  0  0  0  0  0
  -18.0340  -26.0058   22.9026 H   0  0  0  0  0  0
  -19.7940  -30.7267   24.2270 H   0  0  0  0  0  0
  -17.5013  -31.6257   24.5167 H   0  0  0  0  0  0
  -15.5354  -30.2981   23.7638 H   0  0  0  0  0  0
  -15.8681  -28.0819   22.7050 H   0  0  0  0  0  0
  -24.5893  -30.7078   25.7802 H   0  0  0  0  0  0
  -24.8916  -32.2896   26.4894 H   0  0  0  0  0  0
  -25.8055  -30.8905   27.0237 H   0  0  0  0  0  0
  -26.2859  -29.6788   24.1171 H   0  0  0  0  0  0
  -27.3990  -29.7243   25.4644 H   0  0  0  0  0  0
  -27.8737  -30.4301   23.9373 H   0  0  0  0  0  0
  -27.2674  -33.3599   26.2098 H   0  0  0  0  0  0
  -28.3839  -32.6895   25.0300 H   0  0  0  0  0  0
  -28.0744  -31.8415   26.5370 H   0  0  0  0  0  0
  -28.2634  -38.0083   24.7474 H   0  0  0  0  0  0
  -28.1048  -36.2610   24.6353 H   0  0  0  0  0  0
  -27.2291  -37.1531   25.8872 H   0  0  0  0  0  0
  -20.9349  -29.8766   21.6905 H   0  0  0  0  0  0
  -26.0196  -38.2871   24.1367 H   0  0  0  0  0  0
  -29.9286  -21.8024   22.4405 H   0  0  0  0  0  0
  -27.7426  -20.6676   18.9354 H   0  0  0  0  0  0
  -29.8334  -23.9981   20.5469 H   0  0  0  0  0  0
  -30.9896  -20.2543   23.7429 H   0  0  0  0  0  0
  -32.1953  -19.5790   22.6608 H   0  0  0  0  0  0
  -30.9607  -18.5396   23.4081 H   0  0  0  0  0  0
  -28.1680  -25.4687   21.9891 H   0  0  0  0  0  0
  -26.9210  -24.9962   20.9026 H   0  0  0  0  0  0
  1 25  1  0  0  0
  1 30  2  0  0  0
  1 80  1  0  0  0
  2  3  1  0  0  0
  2 25  1  0  0  0
  2 86  1  0  0  0
  2 87  1  0  0  0
  3  4  1  0  0  0
  3 88  1  0  0  0
  3 89  1  0  0  0
  4  5  1  0  0  0
  4 90  1  0  0  0
  4 91  1  0  0  0
  5  6  1  0  0  0
  5 26  1  0  0  0
  5 92  1  0  0  0
  6 25  1  0  0  0
  6 93  1  0  0  0
  6 94  1  0  0  0
  7  8  2  0  0  0
  7 26  1  0  0  0
  7 29  1  0  0  0
  8  9  1  0  0  0
  8 22  1  0  0  0
  9 10  1  0  0  0
  9 27  2  0  0  0
 10 11  2  0  0  0
 10 15  1  0  0  0
 11 12  1  0  0  0
 11 95  1  0  0  0
 12 13  2  0  0  0
 12 96  1  0  0  0
 13 14  1  0  0  0
 13 31  1  0  0  0
 14 15  2  0  0  0
 14 97  1  0  0  0
 15 98  1  0  0  0
 16 17  2  0  0  0
 16 21  1  0  0  0
 16 31  1  0  0  0
 17 18  1  0  0  0
 17 99  1  0  0  0
 18 19  2  0  0  0
 18100  1  0  0  0
 19 20  1  0  0  0
 19 24  1  0  0  0
 20 21  2  0  0  0
 20101  1  0  0  0
 21 23  1  0  0  0
 22 28  1  0  0  0
 22 32  2  0  0  0
 26 27  1  0  0  0
 28102  1  0  0  0
 28103  1  0  0  0
 29104  1  0  0  0
 29105  1  0  0  0
 33 34  1  0  0  0
 33 66  1  0  0  0
 33 70  2  0  0  0
 34 36  1  0  0  0
 34 59  1  0  0  0
 34106  1  0  0  0
 35 44  2  0  0  0
 35 45  1  0  0  0
 35 68  1  0  0  0
 36 56  1  0  0  0
 36107  1  0  0  0
 37 39  1  0  0  0
 37 47  1  0  0  0
 37 66  1  0  0  0
 37108  1  0  0  0
 38 43  2  0  0  0
 38 46  1  0  0  0
 38 47  1  0  0  0
 39 64  1  0  0  0
 39 67  2  0  0  0
 40 52  1  0  0  0
 40 53  2  0  0  0
 40 58  1  0  0  0
 41109  1  0  0  0
 41110  1  0  0  0
 41111  1  0  0  0
 41 48  1  0  0  0
 42 43  1  0  0  0
 42 66  1  0  0  0
 42112  1  0  0  0
 42113  1  0  0  0
 43 44  1  0  0  0
 44114  1  0  0  0
 45 46  2  0  0  0
 45115  1  0  0  0
 46116  1  0  0  0
 47117  1  0  0  0
 47118  1  0  0  0
 48 56  1  0  0  0
 48 65  1  0  0  0
 48119  1  0  0  0
 49 50  1  0  0  0
 49 53  1  0  0  0
 49 64  1  0  0  0
 49120  1  0  0  0
 50 51  1  0  0  0
 50121  1  0  0  0
 50122  1  0  0  0
 51 52  1  0  0  0
 51123  1  0  0  0
 51124  1  0  0  0
 52125  1  0  0  0
 52126  1  0  0  0
 53 54  1  0  0  0
 54 55  2  0  0  0
 54127  1  0  0  0
 55 57  1  0  0  0
 55128  1  0  0  0
 56 69  2  0  0  0
 57 58  2  0  0  0
 57129  1  0  0  0
 58130  1  0  0  0
 59 60  1  0  0  0
 59 61  1  0  0  0
 59 62  1  0  0  0
 60131  1  0  0  0
 60132  1  0  0  0
 60133  1  0  0  0
 61134  1  0  0  0
 61135  1  0  0  0
 61136  1  0  0  0
 62137  1  0  0  0
 62138  1  0  0  0
 62139  1  0  0  0
 63 65  1  0  0  0
 63140  1  0  0  0
 63141  1  0  0  0
 63142  1  0  0  0
 64143  1  0  0  0
 65144  1  0  0  0
 68 79  1  0  0  0
 71 73  2  0  0  0
 71 74  1  0  0  0
 71145  1  0  0  0
 72 74  2  0  0  0
 72 75  1  0  0  0
 72146  1  0  0  0
 73 76  1  0  0  0
 73 78  1  0  0  0
 74 81  1  0  0  0
 75 76  2  0  0  0
 75 84  1  0  0  0
 76 85  1  0  0  0
 77 79  1  0  0  0
 77 81  2  0  0  0
 77147  1  0  0  0
 78148  1  0  0  0
 78149  1  0  0  0
 78150  1  0  0  0
 79151  1  0  0  0
 79152  1  0  0  0
 80 85  1  0  0  0
 82 85  2  0  0  0
 83 85  2  0  0  0
M  CHG  1  80  -1
M  ISO  4   1 100  68 101  79 101  80 100
M  END
> <chiral flag>
0

> <version>
0

> <s_m_source_file>
/data/baiqing/PycharmProjects/Reinvent-master-3.2/result/LINK_invent/BTK/process_docking_weight1_custom_product_contain_oxygen_bond_distance_aromatic_linkinvent_7_9_3/rearranged_h_0065.sdf

> <i_m_source_file_index>
95

> <r_mmod_Potential_Energy-OPLS-2005>
-28.1343765258789

> <r_mmod_Stretch_Energy-OPLS-2005>
76.5580978393555

> <r_mmod_Bend_Energy-OPLS-2005>
165.007858276367

> <r_mmod_Torsional_Energy-OPLS-2005>
222.733169555664

> <r_mmod_Improper_Torsional_Energy-OPLS-2005>
6.28420209884644

> <r_mmod_Van_der_Waal_Energy-OPLS-2005>
152.625259399414

> <r_mmod_Electrostatic_Energy-OPLS-2005>
-257.894714355469

> <r_mmod_Solvation_Energy-OPLS-2005>
-446.050750732422

> <b_mmod_Minimization_Converged-OPLS-2005>
0

> <r_mmod_RMS_Derivative-OPLS-2005>
1.11512768268585

$$$$
