0
                    3D
 Structure written by MMmdl.
158167  0  0  1  0            999 V2000
  -30.5859  -14.7090   20.4749 C   0  0  0  0  0  0
  -30.4423  -12.4322   19.4603 C   0  0  0  0  0  0
  -29.5114  -12.5123   18.2289 C   0  0  0  0  0  0
  -28.0354  -12.3356   18.6403 C   0  0  0  0  0  0
  -27.6486  -13.2141   19.8586 C   0  0  2  0  0  0
  -28.6943  -13.1025   20.9903 C   0  0  0  0  0  0
  -25.2542  -13.8151   20.5690 C   0  0  0  0  0  0
  -24.1819  -13.0424   20.9220 C   0  0  0  0  0  0
  -24.6383  -11.6899   20.8749 C   0  0  0  0  0  0
  -23.9054  -10.4284   21.0408 C   0  0  0  0  0  0
  -24.3606   -9.4201   21.9185 C   0  0  0  0  0  0
  -23.6285   -8.2239   22.0754 C   0  0  0  0  0  0
  -22.4264   -8.0277   21.3547 C   0  0  0  0  0  0
  -21.9895   -9.0250   20.4646 C   0  0  0  0  0  0
  -22.7227  -10.2129   20.3056 C   0  0  0  0  0  0
  -21.6853   -6.0728   22.5275 C   0  0  0  0  0  0
  -21.4014   -6.5633   23.8209 C   0  0  0  0  0  0
  -21.3658   -5.6789   24.9175 C   0  0  0  0  0  0
  -21.6044   -4.3051   24.7225 C   0  0  0  0  0  0
  -21.8821   -3.8141   23.4347 C   0  0  0  0  0  0
  -21.9193   -4.6956   22.3400 C   0  0  0  0  0  0
  -22.7841  -13.5225   21.1873 C   0  0  0  0  0  0
  -22.1663   -4.2141   21.0978 F   0  0  0  0  0  0
  -21.5628   -3.4537   25.7739 F   0  0  0  0  0  0
  -30.0019  -13.4653   20.4215 N   0  0  0  0  0  0
  -26.2957  -12.9329   20.3288 N   0  0  0  0  0  0
  -25.9305  -11.6486   20.5746 N   0  0  0  0  0  0
  -22.0475  -12.8224   22.0428 N   0  0  0  0  0  0
  -25.4211  -15.1868   20.4070 N   0  0  0  0  0  0
  -31.7574  -14.8736   20.1211 O   0  0  0  0  0  0
  -21.6637   -6.8869   21.4238 O   0  0  0  0  0  0
  -22.3525  -14.5524   20.6708 O   0  0  0  0  0  0
  -24.6291  -31.8572   23.2004 C   0  0  0  0  0  0
  -25.9128  -32.4764   23.8343 C   0  0  1  0  0  0
  -27.2243  -27.2888   20.1287 C   0  0  0  0  0  0
  -25.5935  -33.8563   24.2273 N   0  0  0  0  0  0
  -23.4243  -30.4798   21.5432 C   0  0  2  0  0  0
  -24.8729  -28.9297   20.1126 C   0  0  0  0  0  0
  -22.7492  -29.4606   22.4921 C   0  0  0  0  0  0
  -18.0290  -28.1383   22.8478 C   0  0  0  0  0  0
  -24.1491  -36.7285   23.2639 C   0  0  0  0  0  0
  -25.9680  -30.7784   21.3775 C   0  0  0  0  0  0
  -26.0428  -29.4026   20.7213 C   0  0  0  0  0  0
  -27.2226  -28.5944   20.7183 C   0  0  0  0  0  0
  -26.0362  -26.8830   19.4815 C   0  0  0  0  0  0
  -24.8731  -27.6762   19.4824 C   0  0  0  0  0  0
  -23.6419  -29.8136   20.1595 C   0  0  0  0  0  0
  -25.4115  -36.3072   24.0327 C   0  0  1  0  0  0
  -20.5893  -28.3690   23.1272 C   0  0  2  0  0  0
  -20.6781  -26.9410   22.5405 C   0  0  0  0  0  0
  -19.5757  -26.6379   21.5207 C   0  0  0  0  0  0
  -18.1935  -26.7923   22.1618 C   0  0  0  0  0  0
  -19.1543  -28.8854   23.2869 C   0  0  0  0  0  0
  -18.9465  -30.1454   23.8887 C   0  0  0  0  0  0
  -17.6465  -30.6583   24.0562 C   0  0  0  0  0  0
  -25.9053  -34.9442   23.5100 C   0  0  0  0  0  0
  -16.5357  -29.9080   23.6330 C   0  0  0  0  0  0
  -16.7277  -28.6500   23.0346 C   0  0  0  0  0  0
  -26.4503  -31.6575   25.0720 C   0  0  0  0  0  0
  -25.3731  -31.3716   26.1444 C   0  0  0  0  0  0
  -27.0348  -30.2992   24.6191 C   0  0  0  0  0  0
  -27.6061  -32.4308   25.7494 C   0  0  0  0  0  0
  -27.5576  -37.1799   24.8464 C   0  0  0  0  0  0
  -21.4202  -29.3039   22.3664 N   0  0  0  0  0  0
  -26.4291  -37.3769   23.9404 N   0  0  0  0  0  0
  -24.6924  -31.0560   22.0970 N   0  0  0  0  0  0
  -23.4201  -28.8147   23.3014 O   0  0  0  0  0  0
  -28.3288  -26.4141   20.1534 O   0  0  0  0  0  0
  -26.5622  -34.8913   22.4668 O   0  0  0  0  0  0
  -23.5448  -32.1385   23.7316 O   0  0  0  0  0  0
  -30.1907  -19.5195   21.4898 C   0  0  0  0  0  0
  -30.3203  -18.0946   21.5657 C   0  0  0  0  0  0
  -29.0743  -19.3264   19.4253 C   0  0  0  0  0  0
  -29.1884  -17.8923   19.4639 C   0  0  0  0  0  0
  -29.5474  -20.2241   20.4277 C   0  0  0  0  0  0
  -29.8219  -17.2216   20.5613 C   0  0  0  0  0  0
  -29.6024  -22.8174   21.1960 C   0  0  0  0  0  0
  -28.4745  -22.4227   19.5075 C   0  0  0  0  0  0
  -29.0608  -23.7873   20.0524 C   0  0  2  0  0  0
  -30.2379  -24.3939   19.2804 C   0  0  0  0  0  0
  -28.0965  -24.9823   20.5384 C   0  0  0  0  0  0
  -28.5608  -17.0962   18.3195 C   0  0  0  0  0  0
  -29.4235  -21.7004   20.3644 N   0  0  0  0  0  0
  -29.7476  -15.7600   20.7839 N   0  0  0  0  0  0
  -29.9764  -22.9103   22.3468 O   0  0  0  0  0  0
  -28.2893  -17.8610   17.2606 F   0  0  0  0  0  0
  -29.3698  -16.1203   17.9086 F   0  0  0  0  0  0
  -27.4186  -16.5564   18.7414 F   0  0  0  0  0  0
  -31.4815  -12.5706   19.1580 H   0  0  0  0  0  0
  -30.3923  -11.4429   19.9175 H   0  0  0  0  0  0
  -29.7874  -11.7551   17.4938 H   0  0  0  0  0  0
  -29.6393  -13.4759   17.7343 H   0  0  0  0  0  0
  -27.8831  -11.2833   18.8830 H   0  0  0  0  0  0
  -27.3803  -12.5523   17.7957 H   0  0  0  0  0  0
  -27.6562  -14.2406   19.5004 H   0  0  0  0  0  0
  -28.7231  -12.0872   21.3885 H   0  0  0  0  0  0
  -28.4290  -13.7443   21.8321 H   0  0  0  0  0  0
  -25.2747   -9.5683   22.4763 H   0  0  0  0  0  0
  -23.9994   -7.4628   22.7472 H   0  0  0  0  0  0
  -21.0827   -8.8767   19.8952 H   0  0  0  0  0  0
  -22.3681  -10.9669   19.6166 H   0  0  0  0  0  0
  -21.2010   -7.6139   23.9710 H   0  0  0  0  0  0
  -21.1476   -6.0519   25.9078 H   0  0  0  0  0  0
  -22.0601   -2.7602   23.2851 H   0  0  0  0  0  0
  -22.4080  -11.9886   22.4824 H   0  0  0  0  0  0
  -21.1093  -13.1257   22.2625 H   0  0  0  0  0  0
  -24.6334  -15.8199   20.4791 H   0  0  0  0  0  0
  -26.2169  -15.6080   19.9410 H   0  0  0  0  0  0
  -26.7190  -32.5429   23.1083 H   0  0  0  0  0  0
  -25.0089  -33.9701   25.0423 H   0  0  0  0  0  0
  -22.7191  -31.3006   21.3983 H   0  0  0  0  0  0
  -23.3750  -35.9621   23.3306 H   0  0  0  0  0  0
  -24.3586  -36.8901   22.2053 H   0  0  0  0  0  0
  -23.7249  -37.6489   23.6660 H   0  0  0  0  0  0
  -26.1045  -31.5394   20.6080 H   0  0  0  0  0  0
  -26.8468  -30.8276   22.0088 H   0  0  0  0  0  0
  -28.1195  -28.9526   21.2041 H   0  0  0  0  0  0
  -25.9917  -25.9350   18.9658 H   0  0  0  0  0  0
  -23.9804  -27.3125   18.9922 H   0  0  0  0  0  0
  -23.7647  -30.5896   19.4033 H   0  0  0  0  0  0
  -22.7614  -29.2450   19.8552 H   0  0  0  0  0  0
  -25.1296  -36.1923   25.0820 H   0  0  0  0  0  0
  -20.9982  -28.3268   24.1394 H   0  0  0  0  0  0
  -20.5678  -26.2298   23.3605 H   0  0  0  0  0  0
  -21.6649  -26.7436   22.1201 H   0  0  0  0  0  0
  -19.6920  -25.6289   21.1236 H   0  0  0  0  0  0
  -19.6695  -27.3188   20.6734 H   0  0  0  0  0  0
  -17.4205  -26.6664   21.4023 H   0  0  0  0  0  0
  -18.0341  -26.0066   22.9016 H   0  0  0  0  0  0
  -19.7944  -30.7271   24.2249 H   0  0  0  0  0  0
  -17.5021  -31.6264   24.5166 H   0  0  0  0  0  0
  -15.5354  -30.2980   23.7656 H   0  0  0  0  0  0
  -15.8676  -28.0816   22.7062 H   0  0  0  0  0  0
  -24.5906  -30.7066   25.7772 H   0  0  0  0  0  0
  -24.8927  -32.2883   26.4869 H   0  0  0  0  0  0
  -25.8055  -30.8890   27.0217 H   0  0  0  0  0  0
  -26.2924  -29.6734   24.1223 H   0  0  0  0  0  0
  -27.4045  -29.7258   25.4702 H   0  0  0  0  0  0
  -27.8797  -30.4271   23.9420 H   0  0  0  0  0  0
  -27.2676  -33.3612   26.2065 H   0  0  0  0  0  0
  -28.3877  -32.6856   25.0323 H   0  0  0  0  0  0
  -28.0721  -31.8433   26.5416 H   0  0  0  0  0  0
  -28.2594  -38.0094   24.7506 H   0  0  0  0  0  0
  -28.1070  -36.2625   24.6294 H   0  0  0  0  0  0
  -27.2296  -37.1455   25.8868 H   0  0  0  0  0  0
  -20.9384  -29.8758   21.6868 H   0  0  0  0  0  0
  -26.0170  -38.2845   24.1398 H   0  0  0  0  0  0
  -30.5955  -20.0958   22.3101 H   0  0  0  0  0  0
  -30.7824  -17.6705   22.4457 H   0  0  0  0  0  0
  -28.5748  -19.7630   18.5745 H   0  0  0  0  0  0
  -28.6290  -22.2655   18.4388 H   0  0  0  0  0  0
  -27.4350  -22.2400   19.7907 H   0  0  0  0  0  0
  -30.9493  -23.6346   18.9527 H   0  0  0  0  0  0
  -30.7874  -25.1123   19.8895 H   0  0  0  0  0  0
  -29.8939  -24.9163   18.3878 H   0  0  0  0  0  0
  -28.0970  -24.9983   21.6290 H   0  0  0  0  0  0
  -27.0782  -24.6838   20.3009 H   0  0  0  0  0  0
  -28.8280  -15.4360   21.0434 H   0  0  0  0  0  0
  1 25  1  0  0  0
  1 30  2  0  0  0
  1 84  1  0  0  0
  2  3  1  0  0  0
  2 25  1  0  0  0
  2 89  1  0  0  0
  2 90  1  0  0  0
  3  4  1  0  0  0
  3 91  1  0  0  0
  3 92  1  0  0  0
  4  5  1  0  0  0
  4 93  1  0  0  0
  4 94  1  0  0  0
  5  6  1  0  0  0
  5 26  1  0  0  0
  5 95  1  0  0  0
  6 25  1  0  0  0
  6 96  1  0  0  0
  6 97  1  0  0  0
  7  8  2  0  0  0
  7 26  1  0  0  0
  7 29  1  0  0  0
  8  9  1  0  0  0
  8 22  1  0  0  0
  9 10  1  0  0  0
  9 27  2  0  0  0
 10 11  2  0  0  0
 10 15  1  0  0  0
 11 12  1  0  0  0
 11 98  1  0  0  0
 12 13  2  0  0  0
 12 99  1  0  0  0
 13 14  1  0  0  0
 13 31  1  0  0  0
 14 15  2  0  0  0
 14100  1  0  0  0
 15101  1  0  0  0
 16 17  2  0  0  0
 16 21  1  0  0  0
 16 31  1  0  0  0
 17 18  1  0  0  0
 17102  1  0  0  0
 18 19  2  0  0  0
 18103  1  0  0  0
 19 20  1  0  0  0
 19 24  1  0  0  0
 20 21  2  0  0  0
 20104  1  0  0  0
 21 23  1  0  0  0
 22 28  1  0  0  0
 22 32  2  0  0  0
 26 27  1  0  0  0
 28105  1  0  0  0
 28106  1  0  0  0
 29107  1  0  0  0
 29108  1  0  0  0
 33 34  1  0  0  0
 33 66  1  0  0  0
 33 70  2  0  0  0
 34 36  1  0  0  0
 34 59  1  0  0  0
 34109  1  0  0  0
 35 44  2  0  0  0
 35 45  1  0  0  0
 35 68  1  0  0  0
 36 56  1  0  0  0
 36110  1  0  0  0
 37 39  1  0  0  0
 37 47  1  0  0  0
 37 66  1  0  0  0
 37111  1  0  0  0
 38 43  2  0  0  0
 38 46  1  0  0  0
 38 47  1  0  0  0
 39 64  1  0  0  0
 39 67  2  0  0  0
 40 52  1  0  0  0
 40 53  2  0  0  0
 40 58  1  0  0  0
 41112  1  0  0  0
 41113  1  0  0  0
 41114  1  0  0  0
 41 48  1  0  0  0
 42 43  1  0  0  0
 42 66  1  0  0  0
 42115  1  0  0  0
 42116  1  0  0  0
 43 44  1  0  0  0
 44117  1  0  0  0
 45 46  2  0  0  0
 45118  1  0  0  0
 46119  1  0  0  0
 47120  1  0  0  0
 47121  1  0  0  0
 48 56  1  0  0  0
 48 65  1  0  0  0
 48122  1  0  0  0
 49 50  1  0  0  0
 49 53  1  0  0  0
 49 64  1  0  0  0
 49123  1  0  0  0
 50 51  1  0  0  0
 50124  1  0  0  0
 50125  1  0  0  0
 51 52  1  0  0  0
 51126  1  0  0  0
 51127  1  0  0  0
 52128  1  0  0  0
 52129  1  0  0  0
 53 54  1  0  0  0
 54 55  2  0  0  0
 54130  1  0  0  0
 55 57  1  0  0  0
 55131  1  0  0  0
 56 69  2  0  0  0
 57 58  2  0  0  0
 57132  1  0  0  0
 58133  1  0  0  0
 59 60  1  0  0  0
 59 61  1  0  0  0
 59 62  1  0  0  0
 60134  1  0  0  0
 60135  1  0  0  0
 60136  1  0  0  0
 61137  1  0  0  0
 61138  1  0  0  0
 61139  1  0  0  0
 62140  1  0  0  0
 62141  1  0  0  0
 62142  1  0  0  0
 63 65  1  0  0  0
 63143  1  0  0  0
 63144  1  0  0  0
 63145  1  0  0  0
 64146  1  0  0  0
 65147  1  0  0  0
 68 81  1  0  0  0
 71 72  2  0  0  0
 71 75  1  0  0  0
 71148  1  0  0  0
 72 76  1  0  0  0
 72149  1  0  0  0
 73 74  1  0  0  0
 73 75  2  0  0  0
 73150  1  0  0  0
 74 76  2  0  0  0
 74 82  1  0  0  0
 75 83  1  0  0  0
 76 84  1  0  0  0
 77 79  1  0  0  0
 77 83  1  0  0  0
 77 85  2  0  0  0
 78 79  1  0  0  0
 78 83  1  0  0  0
 78151  1  0  0  0
 78152  1  0  0  0
 79 80  1  0  0  0
 79 81  1  0  0  0
 80153  1  0  0  0
 80154  1  0  0  0
 80155  1  0  0  0
 81156  1  0  0  0
 81157  1  0  0  0
 82 86  1  0  0  0
 82 87  1  0  0  0
 82 88  1  0  0  0
 84158  1  0  0  0
M  ISO  4   1 100  68 101  81 101  84 100
M  END
> <chiral flag>
0

> <version>
0

> <s_m_source_file>
/data/baiqing/PycharmProjects/Reinvent-master-3.2/result/LINK_invent/BTK/process_docking_weight1_custom_product_contain_oxygen_bond_distance_aromatic_linkinvent_7_9_3/rearranged_h_0068.sdf

> <i_m_source_file_index>
1

> <r_mmod_Potential_Energy-OPLS-2005>
188.039306640625

> <r_mmod_Stretch_Energy-OPLS-2005>
101.304100036621

> <r_mmod_Bend_Energy-OPLS-2005>
179.651382446289

> <r_mmod_Torsional_Energy-OPLS-2005>
280.982269287109

> <r_mmod_Improper_Torsional_Energy-OPLS-2005>
8.123948097229

> <r_mmod_Van_der_Waal_Energy-OPLS-2005>
136.959869384766

> <r_mmod_Electrostatic_Energy-OPLS-2005>
-374.199157714844

> <r_mmod_Solvation_Energy-OPLS-2005>
-213.739196777344

> <b_mmod_Minimization_Converged-OPLS-2005>
0

> <r_mmod_RMS_Derivative-OPLS-2005>
0.936979115009308

$$$$
1
                    3D
 Structure written by MMmdl.
155163  0  0  1  0            999 V2000
  -30.7002  -14.4733   20.5422 C   0  0  0  0  0  0
  -30.4147  -12.2988   19.4270 C   0  0  0  0  0  0
  -29.4955  -12.5183   18.2076 C   0  0  0  0  0  0
  -28.0108  -12.3957   18.6086 C   0  0  0  0  0  0
  -27.6602  -13.2171   19.8796 C   0  0  2  0  0  0
  -28.7031  -12.9937   20.9989 C   0  0  0  0  0  0
  -25.2539  -13.8179   20.5681 C   0  0  0  0  0  0
  -24.1809  -13.0429   20.9161 C   0  0  0  0  0  0
  -24.6400  -11.6907   20.8733 C   0  0  0  0  0  0
  -23.9075  -10.4286   21.0399 C   0  0  0  0  0  0
  -24.3622   -9.4207   21.9183 C   0  0  0  0  0  0
  -23.6299   -8.2243   22.0750 C   0  0  0  0  0  0
  -22.4284   -8.0279   21.3540 C   0  0  0  0  0  0
  -21.9921   -9.0252   20.4640 C   0  0  0  0  0  0
  -22.7241  -10.2132   20.3052 C   0  0  0  0  0  0
  -21.6856   -6.0741   22.5285 C   0  0  0  0  0  0
  -21.4012   -6.5642   23.8218 C   0  0  0  0  0  0
  -21.3664   -5.6791   24.9172 C   0  0  0  0  0  0
  -21.6051   -4.3055   24.7228 C   0  0  0  0  0  0
  -21.8818   -3.8151   23.4346 C   0  0  0  0  0  0
  -21.9187   -4.6969   22.3402 C   0  0  0  0  0  0
  -22.7830  -13.5217   21.1834 C   0  0  0  0  0  0
  -22.1657   -4.2153   21.0984 F   0  0  0  0  0  0
  -21.5630   -3.4547   25.7751 F   0  0  0  0  0  0
  -30.0357  -13.2897   20.4465 N   0  0  0  0  0  0
  -26.3012  -12.9378   20.3403 N   0  0  0  0  0  0
  -25.9336  -11.6521   20.5790 N   0  0  0  0  0  0
  -22.0486  -12.8229   22.0411 N   0  0  0  0  0  0
  -25.4209  -15.1900   20.4110 N   0  0  0  0  0  0
  -31.8378  -14.6289   20.0936 O   0  0  0  0  0  0
  -21.6635   -6.8885   21.4249 O   0  0  0  0  0  0
  -22.3501  -14.5515   20.6673 O   0  0  0  0  0  0
  -24.6150  -31.8680   23.2120 C   0  0  0  0  0  0
  -25.9033  -32.4834   23.8413 C   0  0  1  0  0  0
  -27.2316  -27.4313   20.0967 C   0  0  0  0  0  0
  -25.5892  -33.8639   24.2341 N   0  0  0  0  0  0
  -23.4033  -30.4898   21.5529 C   0  0  2  0  0  0
  -24.8510  -28.9536   20.1190 C   0  0  0  0  0  0
  -22.7410  -29.4645   22.5004 C   0  0  0  0  0  0
  -18.0267  -28.1374   22.8492 C   0  0  0  0  0  0
  -24.1484  -36.7314   23.2633 C   0  0  0  0  0  0
  -25.9334  -30.8285   21.3697 C   0  0  0  0  0  0
  -26.0108  -29.4623   20.7183 C   0  0  0  0  0  0
  -27.2065  -28.7082   20.7041 C   0  0  0  0  0  0
  -26.0579  -26.9354   19.4933 C   0  0  0  0  0  0
  -24.8680  -27.6874   19.5076 C   0  0  0  0  0  0
  -23.6137  -29.8209   20.1678 C   0  0  0  0  0  0
  -25.4115  -36.3135   24.0332 C   0  0  1  0  0  0
  -20.5862  -28.3656   23.1334 C   0  0  2  0  0  0
  -20.6766  -26.9394   22.5427 C   0  0  0  0  0  0
  -19.5747  -26.6376   21.5224 C   0  0  0  0  0  0
  -18.1922  -26.7920   22.1631 C   0  0  0  0  0  0
  -19.1515  -28.8833   23.2908 C   0  0  0  0  0  0
  -18.9444  -30.1440   23.8913 C   0  0  0  0  0  0
  -17.6445  -30.6582   24.0566 C   0  0  0  0  0  0
  -25.9032  -34.9491   23.5139 C   0  0  0  0  0  0
  -16.5340  -29.9084   23.6324 C   0  0  0  0  0  0
  -16.7256  -28.6503   23.0349 C   0  0  0  0  0  0
  -26.4462  -31.6610   25.0739 C   0  0  0  0  0  0
  -25.3714  -31.3725   26.1479 C   0  0  0  0  0  0
  -27.0280  -30.3047   24.6115 C   0  0  0  0  0  0
  -27.6043  -32.4321   25.7510 C   0  0  0  0  0  0
  -27.5589  -37.1822   24.8461 C   0  0  0  0  0  0
  -21.4134  -29.3019   22.3742 N   0  0  0  0  0  0
  -26.4309  -37.3813   23.9395 N   0  0  0  0  0  0
  -24.6684  -31.0772   22.1026 N   0  0  0  0  0  0
  -23.4187  -28.8175   23.3036 O   0  0  0  0  0  0
  -28.3895  -26.6882   20.0459 O   0  0  0  0  0  0
  -26.5601  -34.8931   22.4703 O   0  0  0  0  0  0
  -23.5339  -32.1435   23.7499 O   0  0  0  0  0  0
  -28.8623  -19.0310   20.4643 C   0  0  0  0  0  0
  -31.2254  -17.5356   20.1951 C   0  0  0  0  0  0
  -30.0101  -19.6669   19.9334 C   0  0  0  0  0  0
  -30.0651  -16.8914   20.6894 C   0  0  0  0  0  0
  -28.8931  -17.6666   20.8346 C   0  0  0  0  0  0
  -31.1981  -18.8962   19.8161 C   0  0  0  0  0  0
  -29.9503  -21.0744   19.4590 C   0  0  0  0  0  0
  -29.0401  -23.4201   19.7475 C   0  0  0  0  0  0
  -28.0370  -24.2234   20.5965 C   0  0  0  0  0  0
  -28.5016  -25.6443   21.0284 C   0  0  0  0  0  0
  -29.9795  -15.5013   21.0344 N   0  0  0  0  0  0
  -29.2005  -22.0176   20.0944 N   0  0  0  0  0  0
  -30.6370  -21.3946   18.3545 N   0  3  0  0  0  0
  -29.6486  -23.9395   18.8039 O   0  0  0  0  0  0
  -27.7682  -17.0767   21.3064 F   0  0  0  0  0  0
  -32.3267  -19.4416   19.2986 F   0  0  0  0  0  0
  -31.4632  -12.3741   19.1324 H   0  0  0  0  0  0
  -30.2889  -11.2887   19.8218 H   0  0  0  0  0  0
  -29.7301  -11.8015   17.4202 H   0  0  0  0  0  0
  -29.6788  -13.5072   17.7828 H   0  0  0  0  0  0
  -27.7936  -11.3407   18.7739 H   0  0  0  0  0  0
  -27.3732  -12.7056   17.7794 H   0  0  0  0  0  0
  -27.7017  -14.2695   19.5949 H   0  0  0  0  0  0
  -28.6733  -11.9590   21.3405 H   0  0  0  0  0  0
  -28.4718  -13.5961   21.8790 H   0  0  0  0  0  0
  -25.2764   -9.5691   22.4757 H   0  0  0  0  0  0
  -24.0011   -7.4640   22.7469 H   0  0  0  0  0  0
  -21.0848   -8.8756   19.8962 H   0  0  0  0  0  0
  -22.3683  -10.9664   19.6157 H   0  0  0  0  0  0
  -21.2003   -7.6150   23.9733 H   0  0  0  0  0  0
  -21.1489   -6.0514   25.9079 H   0  0  0  0  0  0
  -22.0593   -2.7617   23.2848 H   0  0  0  0  0  0
  -22.4072  -11.9872   22.4777 H   0  0  0  0  0  0
  -21.1102  -13.1257   22.2620 H   0  0  0  0  0  0
  -24.6529  -15.8410   20.5290 H   0  0  0  0  0  0
  -26.2965  -15.6528   20.1997 H   0  0  0  0  0  0
  -26.7103  -32.5543   23.1178 H   0  0  0  0  0  0
  -25.0074  -33.9833   25.0504 H   0  0  0  0  0  0
  -22.6907  -31.3057   21.4118 H   0  0  0  0  0  0
  -23.3763  -35.9633   23.3327 H   0  0  0  0  0  0
  -24.3564  -36.8897   22.2040 H   0  0  0  0  0  0
  -23.7219  -37.6518   23.6626 H   0  0  0  0  0  0
  -26.0486  -31.5948   20.6020 H   0  0  0  0  0  0
  -26.8219  -30.8837   21.9873 H   0  0  0  0  0  0
  -28.1069  -29.0992   21.1591 H   0  0  0  0  0  0
  -26.0637  -25.9740   19.0020 H   0  0  0  0  0  0
  -23.9773  -27.2907   19.0395 H   0  0  0  0  0  0
  -23.7214  -30.5953   19.4079 H   0  0  0  0  0  0
  -22.7382  -29.2401   19.8724 H   0  0  0  0  0  0
  -25.1293  -36.2025   25.0827 H   0  0  0  0  0  0
  -20.9951  -28.3213   24.1456 H   0  0  0  0  0  0
  -20.5682  -26.2251   23.3611 H   0  0  0  0  0  0
  -21.6636  -26.7440   22.1206 H   0  0  0  0  0  0
  -19.6909  -25.6286   21.1255 H   0  0  0  0  0  0
  -19.6708  -27.3193   20.6764 H   0  0  0  0  0  0
  -17.4200  -26.6682   21.4023 H   0  0  0  0  0  0
  -18.0298  -26.0062   22.9017 H   0  0  0  0  0  0
  -19.7916  -30.7256   24.2296 H   0  0  0  0  0  0
  -17.4999  -31.6272   24.5146 H   0  0  0  0  0  0
  -15.5342  -30.2999   23.7637 H   0  0  0  0  0  0
  -15.8655  -28.0836   22.7054 H   0  0  0  0  0  0
  -24.5867  -30.7101   25.7804 H   0  0  0  0  0  0
  -24.8933  -32.2892   26.4944 H   0  0  0  0  0  0
  -25.8042  -30.8867   27.0229 H   0  0  0  0  0  0
  -26.2829  -29.6850   24.1111 H   0  0  0  0  0  0
  -27.3977  -29.7248   25.4578 H   0  0  0  0  0  0
  -27.8702  -30.4367   23.9317 H   0  0  0  0  0  0
  -27.2660  -33.3605   26.2133 H   0  0  0  0  0  0
  -28.3842  -32.6909   25.0329 H   0  0  0  0  0  0
  -28.0721  -31.8414   26.5396 H   0  0  0  0  0  0
  -28.2622  -38.0109   24.7518 H   0  0  0  0  0  0
  -28.1078  -36.2640   24.6295 H   0  0  0  0  0  0
  -27.2296  -37.1479   25.8863 H   0  0  0  0  0  0
  -20.9289  -29.8748   21.6971 H   0  0  0  0  0  0
  -26.0210  -38.2891   24.1419 H   0  0  0  0  0  0
  -27.9292  -19.5662   20.5640 H   0  0  0  0  0  0
  -32.1549  -17.0029   20.0752 H   0  0  0  0  0  0
  -27.8437  -23.6517   21.5023 H   0  0  0  0  0  0
  -27.0864  -24.2662   20.0680 H   0  0  0  0  0  0
  -29.5474  -25.6002   21.3385 H   0  0  0  0  0  0
  -27.9568  -25.9313   21.9301 H   0  0  0  0  0  0
  -29.0916  -15.2372   21.4313 H   0  0  0  0  0  0
  -28.7222  -21.6352   20.8946 H   0  0  0  0  0  0
  -31.3087  -20.7392   17.9800 H   0  0  0  0  0  0
  -30.5993  -22.3454   18.0051 H   0  0  0  0  0  0
  1 25  1  0  0  0
  1 30  2  0  0  0
  1 81  1  0  0  0
  2  3  1  0  0  0
  2 25  1  0  0  0
  2 87  1  0  0  0
  2 88  1  0  0  0
  3  4  1  0  0  0
  3 89  1  0  0  0
  3 90  1  0  0  0
  4  5  1  0  0  0
  4 91  1  0  0  0
  4 92  1  0  0  0
  5  6  1  0  0  0
  5 26  1  0  0  0
  5 93  1  0  0  0
  6 25  1  0  0  0
  6 94  1  0  0  0
  6 95  1  0  0  0
  7  8  2  0  0  0
  7 26  1  0  0  0
  7 29  1  0  0  0
  8  9  1  0  0  0
  8 22  1  0  0  0
  9 10  1  0  0  0
  9 27  2  0  0  0
 10 11  2  0  0  0
 10 15  1  0  0  0
 11 12  1  0  0  0
 11 96  1  0  0  0
 12 13  2  0  0  0
 12 97  1  0  0  0
 13 14  1  0  0  0
 13 31  1  0  0  0
 14 15  2  0  0  0
 14 98  1  0  0  0
 15 99  1  0  0  0
 16 17  2  0  0  0
 16 21  1  0  0  0
 16 31  1  0  0  0
 17 18  1  0  0  0
 17100  1  0  0  0
 18 19  2  0  0  0
 18101  1  0  0  0
 19 20  1  0  0  0
 19 24  1  0  0  0
 20 21  2  0  0  0
 20102  1  0  0  0
 21 23  1  0  0  0
 22 28  1  0  0  0
 22 32  2  0  0  0
 26 27  1  0  0  0
 28103  1  0  0  0
 28104  1  0  0  0
 29105  1  0  0  0
 29106  1  0  0  0
 33 34  1  0  0  0
 33 66  1  0  0  0
 33 70  2  0  0  0
 34 36  1  0  0  0
 34 59  1  0  0  0
 34107  1  0  0  0
 35 44  2  0  0  0
 35 45  1  0  0  0
 35 68  1  0  0  0
 36 56  1  0  0  0
 36108  1  0  0  0
 37 39  1  0  0  0
 37 47  1  0  0  0
 37 66  1  0  0  0
 37109  1  0  0  0
 38 43  2  0  0  0
 38 46  1  0  0  0
 38 47  1  0  0  0
 39 64  1  0  0  0
 39 67  2  0  0  0
 40 52  1  0  0  0
 40 53  2  0  0  0
 40 58  1  0  0  0
 41110  1  0  0  0
 41111  1  0  0  0
 41112  1  0  0  0
 41 48  1  0  0  0
 42 43  1  0  0  0
 42 66  1  0  0  0
 42113  1  0  0  0
 42114  1  0  0  0
 43 44  1  0  0  0
 44115  1  0  0  0
 45 46  2  0  0  0
 45116  1  0  0  0
 46117  1  0  0  0
 47118  1  0  0  0
 47119  1  0  0  0
 48 56  1  0  0  0
 48 65  1  0  0  0
 48120  1  0  0  0
 49 50  1  0  0  0
 49 53  1  0  0  0
 49 64  1  0  0  0
 49121  1  0  0  0
 50 51  1  0  0  0
 50122  1  0  0  0
 50123  1  0  0  0
 51 52  1  0  0  0
 51124  1  0  0  0
 51125  1  0  0  0
 52126  1  0  0  0
 52127  1  0  0  0
 53 54  1  0  0  0
 54 55  2  0  0  0
 54128  1  0  0  0
 55 57  1  0  0  0
 55129  1  0  0  0
 56 69  2  0  0  0
 57 58  2  0  0  0
 57130  1  0  0  0
 58131  1  0  0  0
 59 60  1  0  0  0
 59 61  1  0  0  0
 59 62  1  0  0  0
 60132  1  0  0  0
 60133  1  0  0  0
 60134  1  0  0  0
 61135  1  0  0  0
 61136  1  0  0  0
 61137  1  0  0  0
 62138  1  0  0  0
 62139  1  0  0  0
 62140  1  0  0  0
 63 65  1  0  0  0
 63141  1  0  0  0
 63142  1  0  0  0
 63143  1  0  0  0
 64144  1  0  0  0
 65145  1  0  0  0
 68 80  1  0  0  0
 71 73  2  0  0  0
 71 75  1  0  0  0
 71146  1  0  0  0
 72 74  1  0  0  0
 72 76  2  0  0  0
 72147  1  0  0  0
 73 76  1  0  0  0
 73 77  1  0  0  0
 74 75  2  0  0  0
 74 81  1  0  0  0
 75 85  1  0  0  0
 76 86  1  0  0  0
 77 82  1  0  0  0
 77 83  2  0  0  0
 78 79  1  0  0  0
 78 82  1  0  0  0
 78 84  2  0  0  0
 79 80  1  0  0  0
 79148  1  0  0  0
 79149  1  0  0  0
 80150  1  0  0  0
 80151  1  0  0  0
 81152  1  0  0  0
 82153  1  0  0  0
 83154  1  0  0  0
 83155  1  0  0  0
M  CHG  1  83   1
M  ISO  4   1 100  68 101  80 101  81 100
M  END
> <chiral flag>
0

> <version>
0

> <s_m_source_file>
/data/baiqing/PycharmProjects/Reinvent-master-3.2/result/LINK_invent/BTK/process_docking_weight1_custom_product_contain_oxygen_bond_distance_aromatic_linkinvent_7_9_3/rearranged_h_0068.sdf

> <i_m_source_file_index>
2

> <r_mmod_Potential_Energy-OPLS-2005>
-369.780853271484

> <r_mmod_Stretch_Energy-OPLS-2005>
40.8210945129395

> <r_mmod_Bend_Energy-OPLS-2005>
112.705230712891

> <r_mmod_Torsional_Energy-OPLS-2005>
228.6142578125

> <r_mmod_Improper_Torsional_Energy-OPLS-2005>
5.03838872909546

> <r_mmod_Van_der_Waal_Energy-OPLS-2005>
165.154830932617

> <r_mmod_Electrostatic_Energy-OPLS-2005>
-472.699554443359

> <r_mmod_Solvation_Energy-OPLS-2005>
-462.096984863281

> <b_mmod_Minimization_Converged-OPLS-2005>
0

> <r_mmod_RMS_Derivative-OPLS-2005>
2.33692955970764

$$$$
2
                    3D
 Structure written by MMmdl.
161170  0  0  1  0            999 V2000
  -30.5951  -14.7283   20.4548 C   0  0  0  0  0  0
  -30.4295  -12.4434   19.4599 C   0  0  0  0  0  0
  -29.5054  -12.5004   18.2229 C   0  0  0  0  0  0
  -28.0315  -12.3261   18.6414 C   0  0  0  0  0  0
  -27.6387  -13.2248   19.8447 C   0  0  2  0  0  0
  -28.6830  -13.1530   20.9790 C   0  0  0  0  0  0
  -25.2499  -13.8181   20.5660 C   0  0  0  0  0  0
  -24.1784  -13.0447   20.9203 C   0  0  0  0  0  0
  -24.6366  -11.6921   20.8757 C   0  0  0  0  0  0
  -23.9039  -10.4294   21.0407 C   0  0  0  0  0  0
  -24.3595   -9.4207   21.9188 C   0  0  0  0  0  0
  -23.6273   -8.2244   22.0748 C   0  0  0  0  0  0
  -22.4260   -8.0278   21.3527 C   0  0  0  0  0  0
  -21.9883   -9.0253   20.4644 C   0  0  0  0  0  0
  -22.7210  -10.2133   20.3061 C   0  0  0  0  0  0
  -21.6863   -6.0733   22.5271 C   0  0  0  0  0  0
  -21.4020   -6.5629   23.8212 C   0  0  0  0  0  0
  -21.3663   -5.6778   24.9168 C   0  0  0  0  0  0
  -21.6038   -4.3042   24.7214 C   0  0  0  0  0  0
  -21.8817   -3.8134   23.4341 C   0  0  0  0  0  0
  -21.9197   -4.6958   22.3396 C   0  0  0  0  0  0
  -22.7808  -13.5247   21.1856 C   0  0  0  0  0  0
  -22.1668   -4.2146   21.0980 F   0  0  0  0  0  0
  -21.5628   -3.4527   25.7731 F   0  0  0  0  0  0
  -29.9805  -13.5030   20.3894 N   0  0  0  0  0  0
  -26.2910  -12.9378   20.3232 N   0  0  0  0  0  0
  -25.9290  -11.6533   20.5726 N   0  0  0  0  0  0
  -22.0434  -12.8266   22.0422 N   0  0  0  0  0  0
  -25.4167  -15.1897   20.4040 N   0  0  0  0  0  0
  -31.7962  -14.8277   20.1803 O   0  0  0  0  0  0
  -21.6633   -6.8870   21.4230 O   0  0  0  0  0  0
  -22.3512  -14.5565   20.6709 O   0  0  0  0  0  0
  -24.6326  -31.8558   23.1987 C   0  0  0  0  0  0
  -25.9163  -32.4756   23.8307 C   0  0  1  0  0  0
  -27.2074  -27.2624   20.1386 C   0  0  0  0  0  0
  -25.5979  -33.8554   24.2246 N   0  0  0  0  0  0
  -23.4263  -30.4803   21.5409 C   0  0  2  0  0  0
  -24.8669  -28.9153   20.1240 C   0  0  0  0  0  0
  -22.7489  -29.4627   22.4893 C   0  0  0  0  0  0
  -18.0303  -28.1374   22.8481 C   0  0  0  0  0  0
  -24.1489  -36.7271   23.2625 C   0  0  0  0  0  0
  -25.9703  -30.7691   21.3759 C   0  0  0  0  0  0
  -26.0391  -29.3883   20.7263 C   0  0  0  0  0  0
  -27.2162  -28.5760   20.7151 C   0  0  0  0  0  0
  -26.0163  -26.8497   19.5144 C   0  0  0  0  0  0
  -24.8594  -27.6527   19.5095 C   0  0  0  0  0  0
  -23.6445  -29.8094   20.1595 C   0  0  0  0  0  0
  -25.4119  -36.3071   24.0327 C   0  0  1  0  0  0
  -20.5908  -28.3708   23.1255 C   0  0  2  0  0  0
  -20.6784  -26.9415   22.5409 C   0  0  0  0  0  0
  -19.5760  -26.6374   21.5212 C   0  0  0  0  0  0
  -18.1940  -26.7919   22.1616 C   0  0  0  0  0  0
  -19.1551  -28.8850   23.2865 C   0  0  0  0  0  0
  -18.9472  -30.1455   23.8875 C   0  0  0  0  0  0
  -17.6470  -30.6568   24.0570 C   0  0  0  0  0  0
  -25.9072  -34.9445   23.5081 C   0  0  0  0  0  0
  -16.5361  -29.9076   23.6327 C   0  0  0  0  0  0
  -16.7295  -28.6501   23.0334 C   0  0  0  0  0  0
  -26.4523  -31.6593   25.0712 C   0  0  0  0  0  0
  -25.3760  -31.3774   26.1455 C   0  0  0  0  0  0
  -27.0349  -30.2990   24.6230 C   0  0  0  0  0  0
  -27.6089  -32.4320   25.7493 C   0  0  0  0  0  0
  -27.5580  -37.1798   24.8459 C   0  0  0  0  0  0
  -21.4196  -29.3062   22.3638 N   0  0  0  0  0  0
  -26.4277  -37.3789   23.9428 N   0  0  0  0  0  0
  -24.6953  -31.0550   22.0941 N   0  0  0  0  0  0
  -23.4193  -28.8167   23.2985 O   0  0  0  0  0  0
  -28.3266  -26.4143   20.0723 O   0  0  0  0  0  0
  -26.5610  -34.8920   22.4631 O   0  0  0  0  0  0
  -23.5490  -32.1354   23.7325 O   0  0  0  0  0  0
  -31.6251  -19.0024   21.6067 C   0  0  0  0  0  0
  -30.7547  -20.0450   21.2335 C   0  0  0  0  0  0
  -31.3110  -17.6526   21.3599 C   0  0  0  0  0  0
  -29.5307  -19.7991   20.5704 C   0  0  0  0  0  0
  -30.1072  -17.2885   20.7209 C   0  0  0  0  0  0
  -29.2258  -18.3833   20.3325 C   0  0  0  0  0  0
  -28.0890  -23.4859   18.6133 C   0  0  0  0  0  0
  -28.4168  -22.1241   17.9754 C   0  0  0  0  0  0
  -28.1054  -20.8864   18.8493 C   0  0  0  0  0  0
  -28.9098  -22.3592   20.7291 C   0  0  0  0  0  0
  -27.9989  -23.5778   20.1519 C   0  0  2  0  0  0
  -26.5341  -23.2927   20.5679 C   0  0  0  0  0  0
  -28.3792  -25.0648   20.7346 C   0  0  0  0  0  0
  -28.7279  -20.9562   20.1721 N   0  0  0  0  0  0
  -29.7843  -15.8495   20.5570 N   0  0  0  0  0  0
  -27.8767  -24.4596   17.8862 O   0  0  0  0  0  0
  -28.0567  -18.0530   19.7276 F   0  0  0  0  0  0
  -31.4702  -12.5749   19.1588 H   0  0  0  0  0  0
  -30.3753  -11.4653   19.9404 H   0  0  0  0  0  0
  -29.7846  -11.7278   17.5059 H   0  0  0  0  0  0
  -29.6322  -13.4550   17.7082 H   0  0  0  0  0  0
  -27.8894  -11.2768   18.9046 H   0  0  0  0  0  0
  -27.3723  -12.5175   17.7933 H   0  0  0  0  0  0
  -27.6357  -14.2449   19.4635 H   0  0  0  0  0  0
  -28.7167  -12.1534   21.4158 H   0  0  0  0  0  0
  -28.4218  -13.8354   21.7896 H   0  0  0  0  0  0
  -25.2742   -9.5705   22.4755 H   0  0  0  0  0  0
  -23.9992   -7.4637   22.7465 H   0  0  0  0  0  0
  -21.0815   -8.8763   19.8958 H   0  0  0  0  0  0
  -22.3654  -10.9663   19.6163 H   0  0  0  0  0  0
  -21.2018   -7.6137   23.9709 H   0  0  0  0  0  0
  -21.1490   -6.0509   25.9071 H   0  0  0  0  0  0
  -22.0597   -2.7600   23.2832 H   0  0  0  0  0  0
  -22.4047  -11.9940   22.4840 H   0  0  0  0  0  0
  -21.1056  -13.1296   22.2651 H   0  0  0  0  0  0
  -24.6358  -15.8301   20.4986 H   0  0  0  0  0  0
  -26.2477  -15.6307   20.0330 H   0  0  0  0  0  0
  -26.7239  -32.5393   23.1047 H   0  0  0  0  0  0
  -25.0218  -33.9677   25.0447 H   0  0  0  0  0  0
  -22.7247  -31.3040   21.3927 H   0  0  0  0  0  0
  -23.3765  -35.9588   23.3279 H   0  0  0  0  0  0
  -24.3548  -36.8890   22.2032 H   0  0  0  0  0  0
  -23.7221  -37.6467   23.6642 H   0  0  0  0  0  0
  -26.1076  -31.5248   20.6016 H   0  0  0  0  0  0
  -26.8492  -30.8183   22.0082 H   0  0  0  0  0  0
  -28.1247  -28.9433   21.1702 H   0  0  0  0  0  0
  -25.9777  -25.8950   19.0134 H   0  0  0  0  0  0
  -23.9618  -27.2868   19.0319 H   0  0  0  0  0  0
  -23.7849  -30.5781   19.3990 H   0  0  0  0  0  0
  -22.7590  -29.2501   19.8518 H   0  0  0  0  0  0
  -25.1299  -36.1914   25.0823 H   0  0  0  0  0  0
  -21.0013  -28.3302   24.1375 H   0  0  0  0  0  0
  -20.5641  -26.2324   23.3624 H   0  0  0  0  0  0
  -21.6660  -26.7401   22.1230 H   0  0  0  0  0  0
  -19.6894  -25.6282   21.1245 H   0  0  0  0  0  0
  -19.6688  -27.3179   20.6740 H   0  0  0  0  0  0
  -17.4214  -26.6694   21.4013 H   0  0  0  0  0  0
  -18.0306  -26.0042   22.8984 H   0  0  0  0  0  0
  -19.7947  -30.7286   24.2206 H   0  0  0  0  0  0
  -17.5030  -31.6243   24.5189 H   0  0  0  0  0  0
  -15.5360  -30.2970   23.7659 H   0  0  0  0  0  0
  -15.8700  -28.0838   22.7017 H   0  0  0  0  0  0
  -24.5977  -30.7050   25.7827 H   0  0  0  0  0  0
  -24.8899  -32.2948   26.4795 H   0  0  0  0  0  0
  -25.8103  -30.9054   27.0277 H   0  0  0  0  0  0
  -26.2928  -29.6750   24.1239 H   0  0  0  0  0  0
  -27.3951  -29.7277   25.4794 H   0  0  0  0  0  0
  -27.8847  -30.4195   23.9507 H   0  0  0  0  0  0
  -27.2714  -33.3627   26.2060 H   0  0  0  0  0  0
  -28.3923  -32.6854   25.0342 H   0  0  0  0  0  0
  -28.0738  -31.8443   26.5422 H   0  0  0  0  0  0
  -28.2628  -38.0076   24.7527 H   0  0  0  0  0  0
  -28.1057  -36.2610   24.6275 H   0  0  0  0  0  0
  -27.2288  -37.1452   25.8860 H   0  0  0  0  0  0
  -20.9362  -29.8819   21.6880 H   0  0  0  0  0  0
  -26.0157  -38.2857   24.1457 H   0  0  0  0  0  0
  -32.5567  -19.2442   22.0987 H   0  0  0  0  0  0
  -31.0716  -21.0519   21.4553 H   0  0  0  0  0  0
  -32.0050  -16.8965   21.6956 H   0  0  0  0  0  0
  -29.4741  -22.1232   17.7152 H   0  0  0  0  0  0
  -27.8709  -22.0467   17.0350 H   0  0  0  0  0  0
  -28.4548  -20.0076   18.3069 H   0  0  0  0  0  0
  -27.0280  -20.7525   18.9574 H   0  0  0  0  0  0
  -28.7801  -22.3030   21.8116 H   0  0  0  0  0  0
  -29.9514  -22.6420   20.5717 H   0  0  0  0  0  0
  -26.1107  -22.4202   20.0736 H   0  0  0  0  0  0
  -25.8752  -24.1293   20.3475 H   0  0  0  0  0  0
  -26.4667  -23.1082   21.6402 H   0  0  0  0  0  0
  -29.4204  -24.9901   21.0457 H   0  0  0  0  0  0
  -27.8496  -25.1833   21.6817 H   0  0  0  0  0  0
  -28.7973  -15.6496   20.5100 H   0  0  0  0  0  0
  1 25  1  0  0  0
  1 30  2  0  0  0
  1 85  1  0  0  0
  2  3  1  0  0  0
  2 25  1  0  0  0
  2 88  1  0  0  0
  2 89  1  0  0  0
  3  4  1  0  0  0
  3 90  1  0  0  0
  3 91  1  0  0  0
  4  5  1  0  0  0
  4 92  1  0  0  0
  4 93  1  0  0  0
  5  6  1  0  0  0
  5 26  1  0  0  0
  5 94  1  0  0  0
  6 25  1  0  0  0
  6 95  1  0  0  0
  6 96  1  0  0  0
  7  8  2  0  0  0
  7 26  1  0  0  0
  7 29  1  0  0  0
  8  9  1  0  0  0
  8 22  1  0  0  0
  9 10  1  0  0  0
  9 27  2  0  0  0
 10 11  2  0  0  0
 10 15  1  0  0  0
 11 12  1  0  0  0
 11 97  1  0  0  0
 12 13  2  0  0  0
 12 98  1  0  0  0
 13 14  1  0  0  0
 13 31  1  0  0  0
 14 15  2  0  0  0
 14 99  1  0  0  0
 15100  1  0  0  0
 16 17  2  0  0  0
 16 21  1  0  0  0
 16 31  1  0  0  0
 17 18  1  0  0  0
 17101  1  0  0  0
 18 19  2  0  0  0
 18102  1  0  0  0
 19 20  1  0  0  0
 19 24  1  0  0  0
 20 21  2  0  0  0
 20103  1  0  0  0
 21 23  1  0  0  0
 22 28  1  0  0  0
 22 32  2  0  0  0
 26 27  1  0  0  0
 28104  1  0  0  0
 28105  1  0  0  0
 29106  1  0  0  0
 29107  1  0  0  0
 33 34  1  0  0  0
 33 66  1  0  0  0
 33 70  2  0  0  0
 34 36  1  0  0  0
 34 59  1  0  0  0
 34108  1  0  0  0
 35 44  2  0  0  0
 35 45  1  0  0  0
 35 68  1  0  0  0
 36 56  1  0  0  0
 36109  1  0  0  0
 37 39  1  0  0  0
 37 47  1  0  0  0
 37 66  1  0  0  0
 37110  1  0  0  0
 38 43  2  0  0  0
 38 46  1  0  0  0
 38 47  1  0  0  0
 39 64  1  0  0  0
 39 67  2  0  0  0
 40 52  1  0  0  0
 40 53  2  0  0  0
 40 58  1  0  0  0
 41111  1  0  0  0
 41112  1  0  0  0
 41113  1  0  0  0
 41 48  1  0  0  0
 42 43  1  0  0  0
 42 66  1  0  0  0
 42114  1  0  0  0
 42115  1  0  0  0
 43 44  1  0  0  0
 44116  1  0  0  0
 45 46  2  0  0  0
 45117  1  0  0  0
 46118  1  0  0  0
 47119  1  0  0  0
 47120  1  0  0  0
 48 56  1  0  0  0
 48 65  1  0  0  0
 48121  1  0  0  0
 49 50  1  0  0  0
 49 53  1  0  0  0
 49 64  1  0  0  0
 49122  1  0  0  0
 50 51  1  0  0  0
 50123  1  0  0  0
 50124  1  0  0  0
 51 52  1  0  0  0
 51125  1  0  0  0
 51126  1  0  0  0
 52127  1  0  0  0
 52128  1  0  0  0
 53 54  1  0  0  0
 54 55  2  0  0  0
 54129  1  0  0  0
 55 57  1  0  0  0
 55130  1  0  0  0
 56 69  2  0  0  0
 57 58  2  0  0  0
 57131  1  0  0  0
 58132  1  0  0  0
 59 60  1  0  0  0
 59 61  1  0  0  0
 59 62  1  0  0  0
 60133  1  0  0  0
 60134  1  0  0  0
 60135  1  0  0  0
 61136  1  0  0  0
 61137  1  0  0  0
 61138  1  0  0  0
 62139  1  0  0  0
 62140  1  0  0  0
 62141  1  0  0  0
 63 65  1  0  0  0
 63142  1  0  0  0
 63143  1  0  0  0
 63144  1  0  0  0
 64145  1  0  0  0
 65146  1  0  0  0
 68 83  1  0  0  0
 71 72  2  0  0  0
 71 73  1  0  0  0
 71147  1  0  0  0
 72 74  1  0  0  0
 72148  1  0  0  0
 73 75  2  0  0  0
 73149  1  0  0  0
 74 76  2  0  0  0
 74 84  1  0  0  0
 75 76  1  0  0  0
 75 85  1  0  0  0
 76 87  1  0  0  0
 77 78  1  0  0  0
 77 81  1  0  0  0
 77 86  2  0  0  0
 78 79  1  0  0  0
 78150  1  0  0  0
 78151  1  0  0  0
 79 84  1  0  0  0
 79152  1  0  0  0
 79153  1  0  0  0
 80 81  1  0  0  0
 80 84  1  0  0  0
 80154  1  0  0  0
 80155  1  0  0  0
 81 82  1  0  0  0
 81 83  1  0  0  0
 82156  1  0  0  0
 82157  1  0  0  0
 82158  1  0  0  0
 83159  1  0  0  0
 83160  1  0  0  0
 85161  1  0  0  0
M  ISO  4   1 100  68 101  83 101  85 100
M  END
> <chiral flag>
0

> <version>
0

> <s_m_source_file>
/data/baiqing/PycharmProjects/Reinvent-master-3.2/result/LINK_invent/BTK/process_docking_weight1_custom_product_contain_oxygen_bond_distance_aromatic_linkinvent_7_9_3/rearranged_h_0068.sdf

> <i_m_source_file_index>
3

> <r_mmod_Potential_Energy-OPLS-2005>
247.825271606445

> <r_mmod_Stretch_Energy-OPLS-2005>
128.56591796875

> <r_mmod_Bend_Energy-OPLS-2005>
193.041320800781

> <r_mmod_Torsional_Energy-OPLS-2005>
248.648895263672

> <r_mmod_Improper_Torsional_Energy-OPLS-2005>
8.47796821594238

> <r_mmod_Van_der_Waal_Energy-OPLS-2005>
145.497406005859

> <r_mmod_Electrostatic_Energy-OPLS-2005>
-331.647308349609

> <r_mmod_Solvation_Energy-OPLS-2005>
-222.395309448242

> <b_mmod_Minimization_Converged-OPLS-2005>
0

> <r_mmod_RMS_Derivative-OPLS-2005>
3.07666873931885

$$$$
3
                    3D
 Structure written by MMmdl.
149157  0  0  1  0            999 V2000
  -30.6111  -14.7813   20.4144 C   0  0  0  0  0  0
  -30.4230  -12.4701   19.4763 C   0  0  0  0  0  0
  -29.5111  -12.5413   18.2322 C   0  0  0  0  0  0
  -28.0308  -12.3804   18.6319 C   0  0  0  0  0  0
  -27.6417  -13.2521   19.8565 C   0  0  2  0  0  0
  -28.6923  -13.1846   20.9872 C   0  0  0  0  0  0
  -25.2510  -13.8233   20.5768 C   0  0  0  0  0  0
  -24.1793  -13.0448   20.9185 C   0  0  0  0  0  0
  -24.6407  -11.6929   20.8689 C   0  0  0  0  0  0
  -23.9077  -10.4302   21.0347 C   0  0  0  0  0  0
  -24.3621   -9.4222   21.9138 C   0  0  0  0  0  0
  -23.6281   -8.2271   22.0728 C   0  0  0  0  0  0
  -22.4273   -8.0281   21.3523 C   0  0  0  0  0  0
  -21.9895   -9.0258   20.4641 C   0  0  0  0  0  0
  -22.7232  -10.2129   20.3023 C   0  0  0  0  0  0
  -21.6863   -6.0727   22.5276 C   0  0  0  0  0  0
  -21.4030   -6.5632   23.8206 C   0  0  0  0  0  0
  -21.3659   -5.6792   24.9172 C   0  0  0  0  0  0
  -21.6042   -4.3058   24.7221 C   0  0  0  0  0  0
  -21.8819   -3.8148   23.4351 C   0  0  0  0  0  0
  -21.9201   -4.6962   22.3399 C   0  0  0  0  0  0
  -22.7825  -13.5210   21.1871 C   0  0  0  0  0  0
  -22.1653   -4.2146   21.0977 F   0  0  0  0  0  0
  -21.5627   -3.4539   25.7729 F   0  0  0  0  0  0
  -29.9898  -13.5463   20.4024 N   0  0  0  0  0  0
  -26.2953  -12.9486   20.3326 N   0  0  0  0  0  0
  -25.9350  -11.6592   20.5717 N   0  0  0  0  0  0
  -22.0489  -12.8189   22.0439 N   0  0  0  0  0  0
  -25.4205  -15.1973   20.4330 N   0  0  0  0  0  0
  -31.8070  -14.8452   20.1148 O   0  0  0  0  0  0
  -21.6641   -6.8876   21.4238 O   0  0  0  0  0  0
  -22.3486  -14.5503   20.6715 O   0  0  0  0  0  0
  -24.6376  -31.8494   23.1939 C   0  0  0  0  0  0
  -25.9190  -32.4704   23.8306 C   0  0  1  0  0  0
  -27.2342  -27.2178   20.1412 C   0  0  0  0  0  0
  -25.5998  -33.8512   24.2236 N   0  0  0  0  0  0
  -23.4371  -30.4708   21.5339 C   0  0  2  0  0  0
  -24.8883  -28.9051   20.1068 C   0  0  0  0  0  0
  -22.7531  -29.4585   22.4855 C   0  0  0  0  0  0
  -18.0309  -28.1388   22.8483 C   0  0  0  0  0  0
  -24.1503  -36.7246   23.2633 C   0  0  0  0  0  0
  -25.9865  -30.7436   21.3843 C   0  0  0  0  0  0
  -26.0585  -29.3658   20.7219 C   0  0  0  0  0  0
  -27.2291  -28.5355   20.7274 C   0  0  0  0  0  0
  -26.0362  -26.8297   19.4999 C   0  0  0  0  0  0
  -24.8849  -27.6465   19.4846 C   0  0  0  0  0  0
  -23.6607  -29.8000   20.1507 C   0  0  0  0  0  0
  -25.4134  -36.3034   24.0322 C   0  0  1  0  0  0
  -20.5919  -28.3724   23.1231 C   0  0  2  0  0  0
  -20.6800  -26.9418   22.5404 C   0  0  0  0  0  0
  -19.5768  -26.6371   21.5215 C   0  0  0  0  0  0
  -18.1954  -26.7929   22.1617 C   0  0  0  0  0  0
  -19.1566  -28.8869   23.2859 C   0  0  0  0  0  0
  -18.9481  -30.1466   23.8884 C   0  0  0  0  0  0
  -17.6480  -30.6583   24.0563 C   0  0  0  0  0  0
  -25.9090  -34.9407   23.5077 C   0  0  0  0  0  0
  -16.5370  -29.9080   23.6330 C   0  0  0  0  0  0
  -16.7296  -28.6493   23.0354 C   0  0  0  0  0  0
  -26.4539  -31.6556   25.0722 C   0  0  0  0  0  0
  -25.3757  -31.3744   26.1443 C   0  0  0  0  0  0
  -27.0374  -30.2947   24.6276 C   0  0  0  0  0  0
  -27.6117  -32.4290   25.7472 C   0  0  0  0  0  0
  -27.5592  -37.1773   24.8453 C   0  0  0  0  0  0
  -21.4230  -29.3062   22.3601 N   0  0  0  0  0  0
  -26.4291  -37.3758   23.9415 N   0  0  0  0  0  0
  -24.7057  -31.0427   22.0921 N   0  0  0  0  0  0
  -23.4204  -28.8131   23.2985 O   0  0  0  0  0  0
  -28.3223  -26.3051   20.2540 O   0  0  0  0  0  0
  -26.5640  -34.8905   22.4633 O   0  0  0  0  0  0
  -23.5522  -32.1324   23.7220 O   0  0  0  0  0  0
  -30.1695  -19.8217   18.5525 C   0  0  0  0  0  0
  -30.5679  -18.6035   17.9669 C   0  0  0  0  0  0
  -29.5558  -18.5937   20.5545 C   0  0  0  0  0  0
  -29.6136  -19.8872   19.8510 C   0  0  0  0  0  0
  -29.9837  -17.3056   19.9810 C   0  0  0  0  0  0
  -30.4604  -17.3751   18.6458 C   0  0  0  0  0  0
  -28.7450  -23.7619   20.3785 C   0  0  0  0  0  0
  -28.3122  -24.9484   19.7670 C   0  0  0  0  0  0
  -28.7933  -22.4013   19.6903 C   0  0  0  0  0  0
  -29.2268  -21.2509   20.3768 N   0  0  0  0  0  0
  -29.8620  -15.9445   20.6173 N   0  0  0  0  0  0
  -28.4337  -22.2943   18.5151 O   0  0  0  0  0  0
  -30.7839  -16.2525   17.9616 F   0  0  0  0  0  0
  -31.4697  -12.5695   19.1817 H   0  0  0  0  0  0
  -30.3379  -11.4919   19.9507 H   0  0  0  0  0  0
  -29.7884  -11.7750   17.5081 H   0  0  0  0  0  0
  -29.6554  -13.4992   17.7311 H   0  0  0  0  0  0
  -27.8602  -11.3274   18.8564 H   0  0  0  0  0  0
  -27.3863  -12.6235   17.7870 H   0  0  0  0  0  0
  -27.6328  -14.2812   19.4968 H   0  0  0  0  0  0
  -28.7324  -12.1832   21.4185 H   0  0  0  0  0  0
  -28.4353  -13.8622   21.8028 H   0  0  0  0  0  0
  -25.2767   -9.5709   22.4718 H   0  0  0  0  0  0
  -23.9987   -7.4679   22.7458 H   0  0  0  0  0  0
  -21.0809   -8.8770   19.8975 H   0  0  0  0  0  0
  -22.3655  -10.9647   19.6141 H   0  0  0  0  0  0
  -21.2027   -7.6141   23.9700 H   0  0  0  0  0  0
  -21.1467   -6.0527   25.9064 H   0  0  0  0  0  0
  -22.0597   -2.7608   23.2861 H   0  0  0  0  0  0
  -22.4097  -11.9829   22.4786 H   0  0  0  0  0  0
  -21.1113  -13.1221   22.2665 H   0  0  0  0  0  0
  -24.6681  -15.8574   20.5960 H   0  0  0  0  0  0
  -26.2917  -15.6443   20.1794 H   0  0  0  0  0  0
  -26.7254  -32.5309   23.1035 H   0  0  0  0  0  0
  -25.0253  -33.9656   25.0454 H   0  0  0  0  0  0
  -22.7384  -31.2966   21.3834 H   0  0  0  0  0  0
  -23.3798  -35.9541   23.3254 H   0  0  0  0  0  0
  -24.3603  -36.8901   22.2050 H   0  0  0  0  0  0
  -23.7221  -37.6419   23.6693 H   0  0  0  0  0  0
  -26.1531  -31.5036   20.6201 H   0  0  0  0  0  0
  -26.8518  -30.7774   22.0330 H   0  0  0  0  0  0
  -28.1182  -28.8827   21.2348 H   0  0  0  0  0  0
  -25.9544  -25.8553   19.0445 H   0  0  0  0  0  0
  -23.9879  -27.2806   19.0035 H   0  0  0  0  0  0
  -23.7974  -30.5762   19.3965 H   0  0  0  0  0  0
  -22.7755  -29.2420   19.8367 H   0  0  0  0  0  0
  -25.1325  -36.1859   25.0819 H   0  0  0  0  0  0
  -21.0044  -28.3308   24.1341 H   0  0  0  0  0  0
  -20.5699  -26.2334   23.3629 H   0  0  0  0  0  0
  -21.6663  -26.7434   22.1185 H   0  0  0  0  0  0
  -19.6940  -25.6277   21.1253 H   0  0  0  0  0  0
  -19.6702  -27.3172   20.6738 H   0  0  0  0  0  0
  -17.4231  -26.6686   21.4015 H   0  0  0  0  0  0
  -18.0347  -26.0055   22.8997 H   0  0  0  0  0  0
  -19.7959  -30.7293   24.2230 H   0  0  0  0  0  0
  -17.5028  -31.6260   24.5162 H   0  0  0  0  0  0
  -15.5370  -30.2982   23.7651 H   0  0  0  0  0  0
  -15.8688  -28.0802   22.7089 H   0  0  0  0  0  0
  -24.5937  -30.7088   25.7776 H   0  0  0  0  0  0
  -24.8962  -32.2926   26.4846 H   0  0  0  0  0  0
  -25.8062  -30.8927   27.0232 H   0  0  0  0  0  0
  -26.2958  -29.6684   24.1302 H   0  0  0  0  0  0
  -27.4002  -29.7239   25.4841 H   0  0  0  0  0  0
  -27.8883  -30.4177   23.9575 H   0  0  0  0  0  0
  -27.2779  -33.3634   26.1997 H   0  0  0  0  0  0
  -28.3954  -32.6747   25.0293 H   0  0  0  0  0  0
  -28.0763  -31.8428   26.5414 H   0  0  0  0  0  0
  -28.2567  -38.0115   24.7569 H   0  0  0  0  0  0
  -28.1136  -36.2646   24.6200 H   0  0  0  0  0  0
  -27.2318  -37.1316   25.8856 H   0  0  0  0  0  0
  -20.9438  -29.8756   21.6762 H   0  0  0  0  0  0
  -26.0150  -38.2815   24.1463 H   0  0  0  0  0  0
  -30.3055  -20.7192   17.9679 H   0  0  0  0  0  0
  -30.9501  -18.6051   16.9563 H   0  0  0  0  0  0
  -29.1676  -18.5830   21.5629 H   0  0  0  0  0  0
  -29.0897  -23.8185   21.4021 H   0  0  0  0  0  0
  -27.9518  -24.9241   18.7473 H   0  0  0  0  0  0
  -29.3441  -21.3756   21.3732 H   0  0  0  0  0  0
  -28.9889  -15.7836   21.0942 H   0  0  0  0  0  0
  1 25  1  0  0  0
  1 30  2  0  0  0
  1 81  1  0  0  0
  2  3  1  0  0  0
  2 25  1  0  0  0
  2 84  1  0  0  0
  2 85  1  0  0  0
  3  4  1  0  0  0
  3 86  1  0  0  0
  3 87  1  0  0  0
  4  5  1  0  0  0
  4 88  1  0  0  0
  4 89  1  0  0  0
  5  6  1  0  0  0
  5 26  1  0  0  0
  5 90  1  0  0  0
  6 25  1  0  0  0
  6 91  1  0  0  0
  6 92  1  0  0  0
  7  8  2  0  0  0
  7 26  1  0  0  0
  7 29  1  0  0  0
  8  9  1  0  0  0
  8 22  1  0  0  0
  9 10  1  0  0  0
  9 27  2  0  0  0
 10 11  2  0  0  0
 10 15  1  0  0  0
 11 12  1  0  0  0
 11 93  1  0  0  0
 12 13  2  0  0  0
 12 94  1  0  0  0
 13 14  1  0  0  0
 13 31  1  0  0  0
 14 15  2  0  0  0
 14 95  1  0  0  0
 15 96  1  0  0  0
 16 17  2  0  0  0
 16 21  1  0  0  0
 16 31  1  0  0  0
 17 18  1  0  0  0
 17 97  1  0  0  0
 18 19  2  0  0  0
 18 98  1  0  0  0
 19 20  1  0  0  0
 19 24  1  0  0  0
 20 21  2  0  0  0
 20 99  1  0  0  0
 21 23  1  0  0  0
 22 28  1  0  0  0
 22 32  2  0  0  0
 26 27  1  0  0  0
 28100  1  0  0  0
 28101  1  0  0  0
 29102  1  0  0  0
 29103  1  0  0  0
 33 34  1  0  0  0
 33 66  1  0  0  0
 33 70  2  0  0  0
 34 36  1  0  0  0
 34 59  1  0  0  0
 34104  1  0  0  0
 35 44  2  0  0  0
 35 45  1  0  0  0
 35 68  1  0  0  0
 36 56  1  0  0  0
 36105  1  0  0  0
 37 39  1  0  0  0
 37 47  1  0  0  0
 37 66  1  0  0  0
 37106  1  0  0  0
 38 43  2  0  0  0
 38 46  1  0  0  0
 38 47  1  0  0  0
 39 64  1  0  0  0
 39 67  2  0  0  0
 40 52  1  0  0  0
 40 53  2  0  0  0
 40 58  1  0  0  0
 41107  1  0  0  0
 41108  1  0  0  0
 41109  1  0  0  0
 41 48  1  0  0  0
 42 43  1  0  0  0
 42 66  1  0  0  0
 42110  1  0  0  0
 42111  1  0  0  0
 43 44  1  0  0  0
 44112  1  0  0  0
 45 46  2  0  0  0
 45113  1  0  0  0
 46114  1  0  0  0
 47115  1  0  0  0
 47116  1  0  0  0
 48 56  1  0  0  0
 48 65  1  0  0  0
 48117  1  0  0  0
 49 50  1  0  0  0
 49 53  1  0  0  0
 49 64  1  0  0  0
 49118  1  0  0  0
 50 51  1  0  0  0
 50119  1  0  0  0
 50120  1  0  0  0
 51 52  1  0  0  0
 51121  1  0  0  0
 51122  1  0  0  0
 52123  1  0  0  0
 52124  1  0  0  0
 53 54  1  0  0  0
 54 55  2  0  0  0
 54125  1  0  0  0
 55 57  1  0  0  0
 55126  1  0  0  0
 56 69  2  0  0  0
 57 58  2  0  0  0
 57127  1  0  0  0
 58128  1  0  0  0
 59 60  1  0  0  0
 59 61  1  0  0  0
 59 62  1  0  0  0
 60129  1  0  0  0
 60130  1  0  0  0
 60131  1  0  0  0
 61132  1  0  0  0
 61133  1  0  0  0
 61134  1  0  0  0
 62135  1  0  0  0
 62136  1  0  0  0
 62137  1  0  0  0
 63 65  1  0  0  0
 63138  1  0  0  0
 63139  1  0  0  0
 63140  1  0  0  0
 64141  1  0  0  0
 65142  1  0  0  0
 68 78  1  0  0  0
 71 72  2  0  0  0
 71 74  1  0  0  0
 71143  1  0  0  0
 72 76  1  0  0  0
 72144  1  0  0  0
 73 74  2  0  0  0
 73 75  1  0  0  0
 73145  1  0  0  0
 74 80  1  0  0  0
 75 76  2  0  0  0
 75 81  1  0  0  0
 76 83  1  0  0  0
 77 78  2  0  0  0
 77 79  1  0  0  0
 77146  1  0  0  0
 78147  1  0  0  0
 79 80  1  0  0  0
 79 82  2  0  0  0
 80148  1  0  0  0
 81149  1  0  0  0
M  ISO  4   1 100  68 101  78 101  81 100
M  END
> <chiral flag>
0

> <version>
0

> <s_m_source_file>
/data/baiqing/PycharmProjects/Reinvent-master-3.2/result/LINK_invent/BTK/process_docking_weight1_custom_product_contain_oxygen_bond_distance_aromatic_linkinvent_7_9_3/rearranged_h_0068.sdf

> <i_m_source_file_index>
4

> <r_mmod_Potential_Energy-OPLS-2005>
177.497711181641

> <r_mmod_Stretch_Energy-OPLS-2005>
156.90837097168

> <r_mmod_Bend_Energy-OPLS-2005>
172.632797241211

> <r_mmod_Torsional_Energy-OPLS-2005>
251.664505004883

> <r_mmod_Improper_Torsional_Energy-OPLS-2005>
4.80391883850098

> <r_mmod_Van_der_Waal_Energy-OPLS-2005>
143.739761352539

> <r_mmod_Electrostatic_Energy-OPLS-2005>
-424.214813232422

> <r_mmod_Solvation_Energy-OPLS-2005>
-236.316650390625

> <b_mmod_Minimization_Converged-OPLS-2005>
0

> <r_mmod_RMS_Derivative-OPLS-2005>
3.51092314720154

$$$$
4
                    3D
 Structure written by MMmdl.
152160  0  0  1  0            999 V2000
  -30.6113  -14.6535   20.4959 C   0  0  0  0  0  0
  -30.4403  -12.4000   19.4549 C   0  0  0  0  0  0
  -29.5092  -12.5064   18.2258 C   0  0  0  0  0  0
  -28.0320  -12.3412   18.6366 C   0  0  0  0  0  0
  -27.6518  -13.2150   19.8611 C   0  0  2  0  0  0
  -28.6959  -13.0750   20.9923 C   0  0  0  0  0  0
  -25.2556  -13.8162   20.5679 C   0  0  0  0  0  0
  -24.1827  -13.0433   20.9206 C   0  0  0  0  0  0
  -24.6391  -11.6902   20.8745 C   0  0  0  0  0  0
  -23.9057  -10.4288   21.0410 C   0  0  0  0  0  0
  -24.3612   -9.4204   21.9186 C   0  0  0  0  0  0
  -23.6289   -8.2239   22.0753 C   0  0  0  0  0  0
  -22.4271   -8.0277   21.3544 C   0  0  0  0  0  0
  -21.9903   -9.0252   20.4649 C   0  0  0  0  0  0
  -22.7228  -10.2134   20.3059 C   0  0  0  0  0  0
  -21.6852   -6.0733   22.5279 C   0  0  0  0  0  0
  -21.4014   -6.5638   23.8212 C   0  0  0  0  0  0
  -21.3659   -5.6790   24.9175 C   0  0  0  0  0  0
  -21.6044   -4.3052   24.7225 C   0  0  0  0  0  0
  -21.8819   -3.8145   23.4346 C   0  0  0  0  0  0
  -21.9193   -4.6961   22.3402 C   0  0  0  0  0  0
  -22.7851  -13.5234   21.1863 C   0  0  0  0  0  0
  -22.1662   -4.2148   21.0980 F   0  0  0  0  0  0
  -21.5629   -3.4536   25.7737 F   0  0  0  0  0  0
  -30.0108  -13.4223   20.4305 N   0  0  0  0  0  0
  -26.2977  -12.9338   20.3295 N   0  0  0  0  0  0
  -25.9316  -11.6498   20.5747 N   0  0  0  0  0  0
  -22.0485  -12.8232   22.0417 N   0  0  0  0  0  0
  -25.4265  -15.1881   20.4065 N   0  0  0  0  0  0
  -31.7774  -14.8138   20.1212 O   0  0  0  0  0  0
  -21.6636   -6.8875   21.4240 O   0  0  0  0  0  0
  -22.3544  -14.5542   20.6705 O   0  0  0  0  0  0
  -24.6257  -31.8597   23.2019 C   0  0  0  0  0  0
  -25.9104  -32.4778   23.8351 C   0  0  1  0  0  0
  -27.2254  -27.3182   20.1256 C   0  0  0  0  0  0
  -25.5920  -33.8579   24.2276 N   0  0  0  0  0  0
  -23.4197  -30.4822   21.5448 C   0  0  2  0  0  0
  -24.8672  -28.9337   20.1145 C   0  0  0  0  0  0
  -22.7472  -29.4621   22.4942 C   0  0  0  0  0  0
  -18.0284  -28.1386   22.8486 C   0  0  0  0  0  0
  -24.1490  -36.7295   23.2639 C   0  0  0  0  0  0
  -25.9604  -30.7904   21.3732 C   0  0  0  0  0  0
  -26.0354  -29.4162   20.7185 C   0  0  0  0  0  0
  -27.2193  -28.6208   20.7120 C   0  0  0  0  0  0
  -26.0390  -26.8900   19.4908 C   0  0  0  0  0  0
  -24.8706  -27.6760   19.4910 C   0  0  0  0  0  0
  -23.6349  -29.8141   20.1613 C   0  0  0  0  0  0
  -25.4114  -36.3083   24.0329 C   0  0  1  0  0  0
  -20.5883  -28.3687   23.1289 C   0  0  2  0  0  0
  -20.6773  -26.9411   22.5415 C   0  0  0  0  0  0
  -19.5752  -26.6385   21.5215 C   0  0  0  0  0  0
  -18.1930  -26.7929   22.1624 C   0  0  0  0  0  0
  -19.1536  -28.8853   23.2881 C   0  0  0  0  0  0
  -18.9458  -30.1456   23.8896 C   0  0  0  0  0  0
  -17.6458  -30.6586   24.0564 C   0  0  0  0  0  0
  -25.9050  -34.9452   23.5104 C   0  0  0  0  0  0
  -16.5349  -29.9086   23.6331 C   0  0  0  0  0  0
  -16.7272  -28.6505   23.0349 C   0  0  0  0  0  0
  -26.4491  -31.6588   25.0721 C   0  0  0  0  0  0
  -25.3726  -31.3732   26.1452 C   0  0  0  0  0  0
  -27.0327  -30.3009   24.6175 C   0  0  0  0  0  0
  -27.6060  -32.4317   25.7483 C   0  0  0  0  0  0
  -27.5581  -37.1799   24.8462 C   0  0  0  0  0  0
  -21.4186  -29.3039   22.3683 N   0  0  0  0  0  0
  -26.4293  -37.3776   23.9406 N   0  0  0  0  0  0
  -24.6874  -31.0608   22.0970 N   0  0  0  0  0  0
  -23.4194  -28.8163   23.3025 O   0  0  0  0  0  0
  -28.3467  -26.4772   20.1407 O   0  0  0  0  0  0
  -26.5622  -34.8920   22.4672 O   0  0  0  0  0  0
  -23.5421  -32.1392   23.7350 O   0  0  0  0  0  0
  -28.7029  -19.3670   20.4587 C   0  0  0  0  0  0
  -28.7011  -17.9533   20.6866 C   0  0  0  0  0  0
  -31.0759  -17.8723   20.3696 C   0  0  0  0  0  0
  -29.8948  -20.0821   20.1651 C   0  0  0  0  0  0
  -29.8796  -17.1536   20.6229 C   0  0  0  0  0  0
  -31.0848  -19.2841   20.1524 C   0  0  0  0  0  0
  -29.9190  -21.5589   19.7612 C   0  0  0  0  0  0
  -29.1629  -24.0366   19.8665 C   0  0  0  0  0  0
  -28.1568  -25.0530   20.5319 C   0  0  0  0  0  0
  -29.7876  -15.7010   20.8269 N   0  0  0  0  0  0
  -29.1370  -22.5936   20.2561 N   0  0  0  0  0  0
  -30.7922  -21.8607   18.7927 N   0  3  0  0  0  0
  -29.9652  -24.4470   19.0161 O   0  0  0  0  0  0
  -32.2819  -19.8630   19.8833 F   0  0  0  0  0  0
  -31.4807  -12.5308   19.1519 H   0  0  0  0  0  0
  -30.3812  -11.4051   19.8991 H   0  0  0  0  0  0
  -29.7771  -11.7525   17.4843 H   0  0  0  0  0  0
  -29.6483  -13.4739   17.7407 H   0  0  0  0  0  0
  -27.8715  -11.2885   18.8722 H   0  0  0  0  0  0
  -27.3775  -12.5663   17.7936 H   0  0  0  0  0  0
  -27.6677  -14.2483   19.5150 H   0  0  0  0  0  0
  -28.7099  -12.0536   21.3759 H   0  0  0  0  0  0
  -28.4377  -13.7074   21.8431 H   0  0  0  0  0  0
  -25.2759   -9.5682   22.4756 H   0  0  0  0  0  0
  -24.0001   -7.4629   22.7469 H   0  0  0  0  0  0
  -21.0833   -8.8771   19.8956 H   0  0  0  0  0  0
  -22.3686  -10.9673   19.6169 H   0  0  0  0  0  0
  -21.2005   -7.6145   23.9715 H   0  0  0  0  0  0
  -21.1482   -6.0520   25.9078 H   0  0  0  0  0  0
  -22.0599   -2.7606   23.2844 H   0  0  0  0  0  0
  -22.4095  -11.9892   22.4809 H   0  0  0  0  0  0
  -21.1106  -13.1267   22.2623 H   0  0  0  0  0  0
  -24.6483  -15.8326   20.4953 H   0  0  0  0  0  0
  -26.2471  -15.6137   19.9969 H   0  0  0  0  0  0
  -26.7173  -32.5452   23.1102 H   0  0  0  0  0  0
  -25.0063  -33.9724   25.0418 H   0  0  0  0  0  0
  -22.7135  -31.3024   21.4007 H   0  0  0  0  0  0
  -23.3752  -35.9628   23.3301 H   0  0  0  0  0  0
  -24.3581  -36.8916   22.2053 H   0  0  0  0  0  0
  -23.7243  -37.6498   23.6661 H   0  0  0  0  0  0
  -26.0909  -31.5527   20.6037 H   0  0  0  0  0  0
  -26.8411  -30.8409   22.0018 H   0  0  0  0  0  0
  -28.1179  -28.9882   21.1874 H   0  0  0  0  0  0
  -26.0028  -25.9363   18.9850 H   0  0  0  0  0  0
  -23.9776  -27.3043   19.0074 H   0  0  0  0  0  0
  -23.7540  -30.5889   19.4032 H   0  0  0  0  0  0
  -22.7553  -29.2421   19.8603 H   0  0  0  0  0  0
  -25.1295  -36.1937   25.0822 H   0  0  0  0  0  0
  -20.9976  -28.3263   24.1408 H   0  0  0  0  0  0
  -20.5674  -26.2297   23.3613 H   0  0  0  0  0  0
  -21.6643  -26.7442   22.1209 H   0  0  0  0  0  0
  -19.6912  -25.6296   21.1245 H   0  0  0  0  0  0
  -19.6691  -27.3197   20.6746 H   0  0  0  0  0  0
  -17.4201  -26.6678   21.4024 H   0  0  0  0  0  0
  -18.0326  -26.0070   22.9020 H   0  0  0  0  0  0
  -19.7933  -30.7274   24.2263 H   0  0  0  0  0  0
  -17.5012  -31.6265   24.5168 H   0  0  0  0  0  0
  -15.5349  -30.2987   23.7655 H   0  0  0  0  0  0
  -15.8673  -28.0827   22.7059 H   0  0  0  0  0  0
  -24.5898  -30.7082   25.7785 H   0  0  0  0  0  0
  -24.8921  -32.2902   26.4873 H   0  0  0  0  0  0
  -25.8051  -30.8913   27.0230 H   0  0  0  0  0  0
  -26.2896  -29.6760   24.1207 H   0  0  0  0  0  0
  -27.4030  -29.7264   25.4676 H   0  0  0  0  0  0
  -27.8766  -30.4290   23.9391 H   0  0  0  0  0  0
  -27.2682  -33.3621   26.2060 H   0  0  0  0  0  0
  -28.3866  -32.6868   25.0303 H   0  0  0  0  0  0
  -28.0734  -31.8441   26.5394 H   0  0  0  0  0  0
  -28.2601  -38.0095   24.7509 H   0  0  0  0  0  0
  -28.1076  -36.2625   24.6288 H   0  0  0  0  0  0
  -27.2301  -37.1450   25.8867 H   0  0  0  0  0  0
  -20.9365  -29.8758   21.6890 H   0  0  0  0  0  0
  -26.0177  -38.2854   24.1406 H   0  0  0  0  0  0
  -27.7590  -19.8930   20.4741 H   0  0  0  0  0  0
  -27.7519  -17.4765   20.8888 H   0  0  0  0  0  0
  -32.0181  -17.3479   20.3229 H   0  0  0  0  0  0
  -28.2873  -24.9891   21.6120 H   0  0  0  0  0  0
  -27.1510  -24.6881   20.3327 H   0  0  0  0  0  0
  -28.8788  -15.3827   21.1239 H   0  0  0  0  0  0
  -28.4973  -22.2741   20.9679 H   0  0  0  0  0  0
  -31.4887  -21.1812   18.5211 H   0  0  0  0  0  0
  -30.8706  -22.8243   18.4879 H   0  0  0  0  0  0
  1 25  1  0  0  0
  1 30  2  0  0  0
  1 80  1  0  0  0
  2  3  1  0  0  0
  2 25  1  0  0  0
  2 85  1  0  0  0
  2 86  1  0  0  0
  3  4  1  0  0  0
  3 87  1  0  0  0
  3 88  1  0  0  0
  4  5  1  0  0  0
  4 89  1  0  0  0
  4 90  1  0  0  0
  5  6  1  0  0  0
  5 26  1  0  0  0
  5 91  1  0  0  0
  6 25  1  0  0  0
  6 92  1  0  0  0
  6 93  1  0  0  0
  7  8  2  0  0  0
  7 26  1  0  0  0
  7 29  1  0  0  0
  8  9  1  0  0  0
  8 22  1  0  0  0
  9 10  1  0  0  0
  9 27  2  0  0  0
 10 11  2  0  0  0
 10 15  1  0  0  0
 11 12  1  0  0  0
 11 94  1  0  0  0
 12 13  2  0  0  0
 12 95  1  0  0  0
 13 14  1  0  0  0
 13 31  1  0  0  0
 14 15  2  0  0  0
 14 96  1  0  0  0
 15 97  1  0  0  0
 16 17  2  0  0  0
 16 21  1  0  0  0
 16 31  1  0  0  0
 17 18  1  0  0  0
 17 98  1  0  0  0
 18 19  2  0  0  0
 18 99  1  0  0  0
 19 20  1  0  0  0
 19 24  1  0  0  0
 20 21  2  0  0  0
 20100  1  0  0  0
 21 23  1  0  0  0
 22 28  1  0  0  0
 22 32  2  0  0  0
 26 27  1  0  0  0
 28101  1  0  0  0
 28102  1  0  0  0
 29103  1  0  0  0
 29104  1  0  0  0
 33 34  1  0  0  0
 33 66  1  0  0  0
 33 70  2  0  0  0
 34 36  1  0  0  0
 34 59  1  0  0  0
 34105  1  0  0  0
 35 44  2  0  0  0
 35 45  1  0  0  0
 35 68  1  0  0  0
 36 56  1  0  0  0
 36106  1  0  0  0
 37 39  1  0  0  0
 37 47  1  0  0  0
 37 66  1  0  0  0
 37107  1  0  0  0
 38 43  2  0  0  0
 38 46  1  0  0  0
 38 47  1  0  0  0
 39 64  1  0  0  0
 39 67  2  0  0  0
 40 52  1  0  0  0
 40 53  2  0  0  0
 40 58  1  0  0  0
 41108  1  0  0  0
 41109  1  0  0  0
 41110  1  0  0  0
 41 48  1  0  0  0
 42 43  1  0  0  0
 42 66  1  0  0  0
 42111  1  0  0  0
 42112  1  0  0  0
 43 44  1  0  0  0
 44113  1  0  0  0
 45 46  2  0  0  0
 45114  1  0  0  0
 46115  1  0  0  0
 47116  1  0  0  0
 47117  1  0  0  0
 48 56  1  0  0  0
 48 65  1  0  0  0
 48118  1  0  0  0
 49 50  1  0  0  0
 49 53  1  0  0  0
 49 64  1  0  0  0
 49119  1  0  0  0
 50 51  1  0  0  0
 50120  1  0  0  0
 50121  1  0  0  0
 51 52  1  0  0  0
 51122  1  0  0  0
 51123  1  0  0  0
 52124  1  0  0  0
 52125  1  0  0  0
 53 54  1  0  0  0
 54 55  2  0  0  0
 54126  1  0  0  0
 55 57  1  0  0  0
 55127  1  0  0  0
 56 69  2  0  0  0
 57 58  2  0  0  0
 57128  1  0  0  0
 58129  1  0  0  0
 59 60  1  0  0  0
 59 61  1  0  0  0
 59 62  1  0  0  0
 60130  1  0  0  0
 60131  1  0  0  0
 60132  1  0  0  0
 61133  1  0  0  0
 61134  1  0  0  0
 61135  1  0  0  0
 62136  1  0  0  0
 62137  1  0  0  0
 62138  1  0  0  0
 63 65  1  0  0  0
 63139  1  0  0  0
 63140  1  0  0  0
 63141  1  0  0  0
 64142  1  0  0  0
 65143  1  0  0  0
 68 79  1  0  0  0
 71 72  2  0  0  0
 71 74  1  0  0  0
 71144  1  0  0  0
 72 75  1  0  0  0
 72145  1  0  0  0
 73 75  2  0  0  0
 73 76  1  0  0  0
 73146  1  0  0  0
 74 76  2  0  0  0
 74 77  1  0  0  0
 75 80  1  0  0  0
 76 84  1  0  0  0
 77 81  1  0  0  0
 77 82  2  0  0  0
 78 79  1  0  0  0
 78 81  1  0  0  0
 78 83  2  0  0  0
 79147  1  0  0  0
 79148  1  0  0  0
 80149  1  0  0  0
 81150  1  0  0  0
 82151  1  0  0  0
 82152  1  0  0  0
M  CHG  1  82   1
M  ISO  4   1 100  68 101  79 101  80 100
M  END
> <chiral flag>
0

> <version>
0

> <s_m_source_file>
/data/baiqing/PycharmProjects/Reinvent-master-3.2/result/LINK_invent/BTK/process_docking_weight1_custom_product_contain_oxygen_bond_distance_aromatic_linkinvent_7_9_3/rearranged_h_0068.sdf

> <i_m_source_file_index>
5

> <r_mmod_Potential_Energy-OPLS-2005>
-171.113098144531

> <r_mmod_Stretch_Energy-OPLS-2005>
88.8483047485352

> <r_mmod_Bend_Energy-OPLS-2005>
143.545318603516

> <r_mmod_Torsional_Energy-OPLS-2005>
223.217269897461

> <r_mmod_Improper_Torsional_Energy-OPLS-2005>
5.6275429725647

> <r_mmod_Van_der_Waal_Energy-OPLS-2005>
160.325942993164

> <r_mmod_Electrostatic_Energy-OPLS-2005>
-378.513397216797

> <r_mmod_Solvation_Energy-OPLS-2005>
-464.06884765625

> <b_mmod_Minimization_Converged-OPLS-2005>
0

> <r_mmod_RMS_Derivative-OPLS-2005>
0.336467862129211

$$$$
5
                    3D
 Structure written by MMmdl.
154162  0  0  1  0            999 V2000
  -30.5939  -14.7826   20.4620 C   0  0  0  0  0  0
  -30.4399  -12.4813   19.4736 C   0  0  0  0  0  0
  -29.5158  -12.5128   18.2368 C   0  0  0  0  0  0
  -28.0428  -12.3253   18.6523 C   0  0  0  0  0  0
  -27.6412  -13.2293   19.8479 C   0  0  2  0  0  0
  -28.6879  -13.1823   20.9823 C   0  0  0  0  0  0
  -25.2523  -13.8187   20.5700 C   0  0  0  0  0  0
  -24.1808  -13.0439   20.9216 C   0  0  0  0  0  0
  -24.6389  -11.6917   20.8752 C   0  0  0  0  0  0
  -23.9056  -10.4293   21.0401 C   0  0  0  0  0  0
  -24.3599   -9.4213   21.9181 C   0  0  0  0  0  0
  -23.6282   -8.2246   22.0755 C   0  0  0  0  0  0
  -22.4268   -8.0275   21.3542 C   0  0  0  0  0  0
  -21.9891   -9.0252   20.4642 C   0  0  0  0  0  0
  -22.7221  -10.2135   20.3056 C   0  0  0  0  0  0
  -21.6853   -6.0726   22.5275 C   0  0  0  0  0  0
  -21.4013   -6.5631   23.8208 C   0  0  0  0  0  0
  -21.3660   -5.6784   24.9171 C   0  0  0  0  0  0
  -21.6044   -4.3047   24.7220 C   0  0  0  0  0  0
  -21.8822   -3.8141   23.4341 C   0  0  0  0  0  0
  -21.9190   -4.6954   22.3399 C   0  0  0  0  0  0
  -22.7826  -13.5231   21.1864 C   0  0  0  0  0  0
  -22.1663   -4.2144   21.0977 F   0  0  0  0  0  0
  -21.5629   -3.4531   25.7731 F   0  0  0  0  0  0
  -29.9796  -13.5487   20.3897 N   0  0  0  0  0  0
  -26.2942  -12.9383   20.3270 N   0  0  0  0  0  0
  -25.9318  -11.6532   20.5731 N   0  0  0  0  0  0
  -22.0444  -12.8250   22.0412 N   0  0  0  0  0  0
  -25.4211  -15.1908   20.4125 N   0  0  0  0  0  0
  -31.7944  -14.8770   20.1911 O   0  0  0  0  0  0
  -21.6644   -6.8870   21.4237 O   0  0  0  0  0  0
  -22.3525  -14.5539   20.6695 O   0  0  0  0  0  0
  -24.6332  -31.8542   23.1951 C   0  0  0  0  0  0
  -25.9145  -32.4755   23.8307 C   0  0  1  0  0  0
  -27.2214  -27.2517   20.1455 C   0  0  0  0  0  0
  -25.5940  -33.8551   24.2240 N   0  0  0  0  0  0
  -23.4299  -30.4747   21.5411 C   0  0  2  0  0  0
  -24.8763  -28.9131   20.1179 C   0  0  0  0  0  0
  -22.7529  -29.4588   22.4927 C   0  0  0  0  0  0
  -18.0301  -28.1411   22.8469 C   0  0  0  0  0  0
  -24.1482  -36.7272   23.2636 C   0  0  0  0  0  0
  -25.9735  -30.7688   21.3702 C   0  0  0  0  0  0
  -26.0504  -29.3876   20.7181 C   0  0  0  0  0  0
  -27.2293  -28.5728   20.7108 C   0  0  0  0  0  0
  -26.0230  -26.8374   19.5282 C   0  0  0  0  0  0
  -24.8676  -27.6457   19.5132 C   0  0  0  0  0  0
  -23.6485  -29.8038   20.1600 C   0  0  0  0  0  0
  -25.4113  -36.3066   24.0327 C   0  0  1  0  0  0
  -20.5907  -28.3673   23.1254 C   0  0  2  0  0  0
  -20.6795  -26.9400   22.5348 C   0  0  0  0  0  0
  -19.5716  -26.6307   21.5228 C   0  0  0  0  0  0
  -18.1907  -26.7956   22.1613 C   0  0  0  0  0  0
  -19.1565  -28.8851   23.2878 C   0  0  0  0  0  0
  -18.9497  -30.1439   23.8928 C   0  0  0  0  0  0
  -17.6497  -30.6568   24.0618 C   0  0  0  0  0  0
  -25.9059  -34.9439   23.5091 C   0  0  0  0  0  0
  -16.5382  -29.9098   23.6355 C   0  0  0  0  0  0
  -16.7296  -28.6544   23.0332 C   0  0  0  0  0  0
  -26.4504  -31.6579   25.0694 C   0  0  0  0  0  0
  -25.3716  -31.3732   26.1408 C   0  0  0  0  0  0
  -27.0349  -30.3002   24.6157 C   0  0  0  0  0  0
  -27.6065  -32.4308   25.7473 C   0  0  0  0  0  0
  -27.5576  -37.1795   24.8469 C   0  0  0  0  0  0
  -21.4234  -29.3041   22.3680 N   0  0  0  0  0  0
  -26.4287  -37.3769   23.9417 N   0  0  0  0  0  0
  -24.6985  -31.0510   22.0925 N   0  0  0  0  0  0
  -23.4231  -28.8130   23.3024 O   0  0  0  0  0  0
  -28.3208  -26.3625   20.1429 O   0  0  0  0  0  0
  -26.5625  -34.8921   22.4655 O   0  0  0  0  0  0
  -23.5482  -32.1343   23.7252 O   0  0  0  0  0  0
  -30.6532  -20.0573   21.6969 C   0  0  0  0  0  0
  -31.2669  -18.9386   22.3050 C   0  0  0  0  0  0
  -29.4652  -18.5217   20.2347 C   0  0  0  0  0  0
  -29.7349  -19.9089   20.6326 C   0  0  0  0  0  0
  -30.0957  -17.3450   20.8445 C   0  0  0  0  0  0
  -31.0014  -17.6151   21.8974 C   0  0  0  0  0  0
  -29.2514  -21.1996   19.9125 C   0  0  0  0  0  0
  -28.5733  -23.6934   19.9065 C   0  0  0  0  0  0
  -28.1716  -24.9806   20.7374 C   0  0  0  0  0  0
  -28.5130  -23.9320   18.5781 N   0  3  0  0  0  0
  -29.7844  -15.9181   20.5284 N   0  0  0  0  0  0
  -29.2760  -21.0942   18.5747 N   0  3  0  0  0  0
  -28.9055  -22.4414   20.4841 N   0  0  0  0  0  0
  -31.5966  -16.5999   22.5692 F   0  0  0  0  0  0
  -31.4778  -12.6239   19.1688 H   0  0  0  0  0  0
  -30.4023  -11.5082   19.9663 H   0  0  0  0  0  0
  -29.8076  -11.7398   17.5246 H   0  0  0  0  0  0
  -29.6359  -13.4668   17.7200 H   0  0  0  0  0  0
  -27.9128  -11.2779   18.9252 H   0  0  0  0  0  0
  -27.3826  -12.5039   17.8029 H   0  0  0  0  0  0
  -27.6275  -14.2466   19.4568 H   0  0  0  0  0  0
  -28.7370  -12.1905   21.4353 H   0  0  0  0  0  0
  -28.4215  -13.8706   21.7860 H   0  0  0  0  0  0
  -25.2722   -9.5705   22.4781 H   0  0  0  0  0  0
  -23.9981   -7.4642   22.7484 H   0  0  0  0  0  0
  -21.0816   -8.8771   19.8955 H   0  0  0  0  0  0
  -22.3654  -10.9683   19.6188 H   0  0  0  0  0  0
  -21.2015   -7.6138   23.9712 H   0  0  0  0  0  0
  -21.1477   -6.0510   25.9075 H   0  0  0  0  0  0
  -22.0600   -2.7603   23.2839 H   0  0  0  0  0  0
  -22.4018  -11.9906   22.4820 H   0  0  0  0  0  0
  -21.1068  -13.1320   22.2595 H   0  0  0  0  0  0
  -24.6496  -15.8395   20.5216 H   0  0  0  0  0  0
  -26.2547  -15.6319   20.0476 H   0  0  0  0  0  0
  -26.7224  -32.5416   23.1063 H   0  0  0  0  0  0
  -25.0113  -33.9670   25.0406 H   0  0  0  0  0  0
  -22.7256  -31.2962   21.3936 H   0  0  0  0  0  0
  -23.3747  -35.9601   23.3290 H   0  0  0  0  0  0
  -24.3578  -36.8891   22.2050 H   0  0  0  0  0  0
  -23.7218  -37.6468   23.6659 H   0  0  0  0  0  0
  -26.1025  -31.5236   20.5936 H   0  0  0  0  0  0
  -26.8536  -30.8257   21.9991 H   0  0  0  0  0  0
  -28.1350  -28.9387   21.1735 H   0  0  0  0  0  0
  -25.9678  -25.8615   19.0690 H   0  0  0  0  0  0
  -23.9659  -27.2709   19.0480 H   0  0  0  0  0  0
  -23.7768  -30.5756   19.4005 H   0  0  0  0  0  0
  -22.7655  -29.2390   19.8560 H   0  0  0  0  0  0
  -25.1290  -36.1918   25.0819 H   0  0  0  0  0  0
  -21.0020  -28.3196   24.1361 H   0  0  0  0  0  0
  -20.5810  -26.2257   23.3536 H   0  0  0  0  0  0
  -21.6629  -26.7484   22.1025 H   0  0  0  0  0  0
  -19.6806  -25.6148   21.1403 H   0  0  0  0  0  0
  -19.6667  -27.2977   20.6662 H   0  0  0  0  0  0
  -17.4187  -26.6781   21.3981 H   0  0  0  0  0  0
  -18.0217  -26.0107   22.8991 H   0  0  0  0  0  0
  -19.7975  -30.7239   24.2325 H   0  0  0  0  0  0
  -17.5056  -31.6215   24.5284 H   0  0  0  0  0  0
  -15.5386  -30.2996   23.7693 H   0  0  0  0  0  0
  -15.8697  -28.0886   22.7008 H   0  0  0  0  0  0
  -24.5911  -30.7056   25.7736 H   0  0  0  0  0  0
  -24.8874  -32.2892   26.4801 H   0  0  0  0  0  0
  -25.8022  -30.8939   27.0203 H   0  0  0  0  0  0
  -26.2926  -29.6750   24.1176 H   0  0  0  0  0  0
  -27.4037  -29.7271   25.4672 H   0  0  0  0  0  0
  -27.8798  -30.4283   23.9386 H   0  0  0  0  0  0
  -27.2694  -33.3625   26.2029 H   0  0  0  0  0  0
  -28.3896  -32.6829   25.0311 H   0  0  0  0  0  0
  -28.0697  -31.8423   26.5397 H   0  0  0  0  0  0
  -28.2603  -38.0084   24.7531 H   0  0  0  0  0  0
  -28.1064  -36.2620   24.6294 H   0  0  0  0  0  0
  -27.2296  -37.1445   25.8871 H   0  0  0  0  0  0
  -20.9417  -29.8792   21.6915 H   0  0  0  0  0  0
  -26.0159  -38.2843   24.1424 H   0  0  0  0  0  0
  -30.9418  -21.0408   22.0442 H   0  0  0  0  0  0
  -31.9678  -19.0968   23.1103 H   0  0  0  0  0  0
  -28.7704  -18.3536   19.4263 H   0  0  0  0  0  0
  -28.7535  -24.9756   21.6598 H   0  0  0  0  0  0
  -27.1389  -24.8423   21.0613 H   0  0  0  0  0  0
  -28.3724  -24.8898   18.2886 H   0  0  0  0  0  0
  -28.3728  -23.2167   17.8822 H   0  0  0  0  0  0
  -28.8018  -15.7211   20.4352 H   0  0  0  0  0  0
  -29.4563  -20.1853   18.1803 H   0  0  0  0  0  0
  -29.5888  -21.8853   18.0397 H   0  0  0  0  0  0
  -28.8742  -22.4168   21.4893 H   0  0  0  0  0  0
  1 25  1  0  0  0
  1 30  2  0  0  0
  1 81  1  0  0  0
  2  3  1  0  0  0
  2 25  1  0  0  0
  2 85  1  0  0  0
  2 86  1  0  0  0
  3  4  1  0  0  0
  3 87  1  0  0  0
  3 88  1  0  0  0
  4  5  1  0  0  0
  4 89  1  0  0  0
  4 90  1  0  0  0
  5  6  1  0  0  0
  5 26  1  0  0  0
  5 91  1  0  0  0
  6 25  1  0  0  0
  6 92  1  0  0  0
  6 93  1  0  0  0
  7  8  2  0  0  0
  7 26  1  0  0  0
  7 29  1  0  0  0
  8  9  1  0  0  0
  8 22  1  0  0  0
  9 10  1  0  0  0
  9 27  2  0  0  0
 10 11  2  0  0  0
 10 15  1  0  0  0
 11 12  1  0  0  0
 11 94  1  0  0  0
 12 13  2  0  0  0
 12 95  1  0  0  0
 13 14  1  0  0  0
 13 31  1  0  0  0
 14 15  2  0  0  0
 14 96  1  0  0  0
 15 97  1  0  0  0
 16 17  2  0  0  0
 16 21  1  0  0  0
 16 31  1  0  0  0
 17 18  1  0  0  0
 17 98  1  0  0  0
 18 19  2  0  0  0
 18 99  1  0  0  0
 19 20  1  0  0  0
 19 24  1  0  0  0
 20 21  2  0  0  0
 20100  1  0  0  0
 21 23  1  0  0  0
 22 28  1  0  0  0
 22 32  2  0  0  0
 26 27  1  0  0  0
 28101  1  0  0  0
 28102  1  0  0  0
 29103  1  0  0  0
 29104  1  0  0  0
 33 34  1  0  0  0
 33 66  1  0  0  0
 33 70  2  0  0  0
 34 36  1  0  0  0
 34 59  1  0  0  0
 34105  1  0  0  0
 35 44  2  0  0  0
 35 45  1  0  0  0
 35 68  1  0  0  0
 36 56  1  0  0  0
 36106  1  0  0  0
 37 39  1  0  0  0
 37 47  1  0  0  0
 37 66  1  0  0  0
 37107  1  0  0  0
 38 43  2  0  0  0
 38 46  1  0  0  0
 38 47  1  0  0  0
 39 64  1  0  0  0
 39 67  2  0  0  0
 40 52  1  0  0  0
 40 53  2  0  0  0
 40 58  1  0  0  0
 41108  1  0  0  0
 41109  1  0  0  0
 41110  1  0  0  0
 41 48  1  0  0  0
 42 43  1  0  0  0
 42 66  1  0  0  0
 42111  1  0  0  0
 42112  1  0  0  0
 43 44  1  0  0  0
 44113  1  0  0  0
 45 46  2  0  0  0
 45114  1  0  0  0
 46115  1  0  0  0
 47116  1  0  0  0
 47117  1  0  0  0
 48 56  1  0  0  0
 48 65  1  0  0  0
 48118  1  0  0  0
 49 50  1  0  0  0
 49 53  1  0  0  0
 49 64  1  0  0  0
 49119  1  0  0  0
 50 51  1  0  0  0
 50120  1  0  0  0
 50121  1  0  0  0
 51 52  1  0  0  0
 51122  1  0  0  0
 51123  1  0  0  0
 52124  1  0  0  0
 52125  1  0  0  0
 53 54  1  0  0  0
 54 55  2  0  0  0
 54126  1  0  0  0
 55 57  1  0  0  0
 55127  1  0  0  0
 56 69  2  0  0  0
 57 58  2  0  0  0
 57128  1  0  0  0
 58129  1  0  0  0
 59 60  1  0  0  0
 59 61  1  0  0  0
 59 62  1  0  0  0
 60130  1  0  0  0
 60131  1  0  0  0
 60132  1  0  0  0
 61133  1  0  0  0
 61134  1  0  0  0
 61135  1  0  0  0
 62136  1  0  0  0
 62137  1  0  0  0
 62138  1  0  0  0
 63 65  1  0  0  0
 63139  1  0  0  0
 63140  1  0  0  0
 63141  1  0  0  0
 64142  1  0  0  0
 65143  1  0  0  0
 68 79  1  0  0  0
 71 72  2  0  0  0
 71 74  1  0  0  0
 71144  1  0  0  0
 72 76  1  0  0  0
 72145  1  0  0  0
 73 74  2  0  0  0
 73 75  1  0  0  0
 73146  1  0  0  0
 74 77  1  0  0  0
 75 76  2  0  0  0
 75 81  1  0  0  0
 76 84  1  0  0  0
 77 82  2  0  0  0
 77 83  1  0  0  0
 78 79  1  0  0  0
 78 80  2  0  0  0
 78 83  1  0  0  0
 79147  1  0  0  0
 79148  1  0  0  0
 80149  1  0  0  0
 80150  1  0  0  0
 81151  1  0  0  0
 82152  1  0  0  0
 82153  1  0  0  0
 83154  1  0  0  0
M  CHG  2  80   1  82   1
M  ISO  4   1 100  68 101  79 101  81 100
M  END
> <chiral flag>
0

> <version>
0

> <s_m_source_file>
/data/baiqing/PycharmProjects/Reinvent-master-3.2/result/LINK_invent/BTK/process_docking_weight1_custom_product_contain_oxygen_bond_distance_aromatic_linkinvent_7_9_3/rearranged_h_0068.sdf

> <i_m_source_file_index>
6

> <r_mmod_Potential_Energy-OPLS-2005>
-248.03874206543

> <r_mmod_Stretch_Energy-OPLS-2005>
144.865646362305

> <r_mmod_Bend_Energy-OPLS-2005>
173.672424316406

> <r_mmod_Torsional_Energy-OPLS-2005>
257.608489990234

> <r_mmod_Improper_Torsional_Energy-OPLS-2005>
12.41175365448

> <r_mmod_Van_der_Waal_Energy-OPLS-2005>
139.219085693359

> <r_mmod_Electrostatic_Energy-OPLS-2005>
39.58203125

> <r_mmod_Solvation_Energy-OPLS-2005>
-1111.68664550781

> <b_mmod_Minimization_Converged-OPLS-2005>
0

> <r_mmod_RMS_Derivative-OPLS-2005>
2.10150527954102

$$$$
6
                    3D
 Structure written by MMmdl.
169178  0  0  1  0            999 V2000
  -30.6040  -14.6999   20.4717 C   0  0  0  0  0  0
  -30.4433  -12.4266   19.4603 C   0  0  0  0  0  0
  -29.5129  -12.5046   18.2292 C   0  0  0  0  0  0
  -28.0384  -12.3250   18.6434 C   0  0  0  0  0  0
  -27.6473  -13.2070   19.8580 C   0  0  2  0  0  0
  -28.6959  -13.1119   20.9889 C   0  0  0  0  0  0
  -25.2499  -13.7827   20.5681 C   0  0  0  0  0  0
  -24.1763  -13.0204   20.9203 C   0  0  0  0  0  0
  -24.6380  -11.6719   20.8763 C   0  0  0  0  0  0
  -23.9048  -10.4160   21.0425 C   0  0  0  0  0  0
  -24.3597   -9.4094   21.9208 C   0  0  0  0  0  0
  -23.6253   -8.2154   22.0771 C   0  0  0  0  0  0
  -22.4236   -8.0228   21.3552 C   0  0  0  0  0  0
  -21.9875   -9.0201   20.4654 C   0  0  0  0  0  0
  -22.7226  -10.2057   20.3063 C   0  0  0  0  0  0
  -21.6818   -6.0708   22.5285 C   0  0  0  0  0  0
  -21.3987   -6.5619   23.8217 C   0  0  0  0  0  0
  -21.3656   -5.6779   24.9184 C   0  0  0  0  0  0
  -21.6048   -4.3045   24.7235 C   0  0  0  0  0  0
  -21.8820   -3.8131   23.4358 C   0  0  0  0  0  0
  -21.9180   -4.6943   22.3410 C   0  0  0  0  0  0
  -22.7817  -13.5107   21.1856 C   0  0  0  0  0  0
  -22.1652   -4.2132   21.0986 F   0  0  0  0  0  0
  -21.5640   -3.4533   25.7752 F   0  0  0  0  0  0
  -30.0022  -13.4659   20.4134 N   0  0  0  0  0  0
  -26.2974  -12.9120   20.3327 N   0  0  0  0  0  0
  -25.9327  -11.6294   20.5789 N   0  0  0  0  0  0
  -22.0425  -12.8166   22.0431 N   0  0  0  0  0  0
  -25.4175  -15.1395   20.4046 N   0  0  0  0  0  0
  -31.7875  -14.8384   20.1485 O   0  0  0  0  0  0
  -21.6586   -6.8843   21.4247 O   0  0  0  0  0  0
  -22.3566  -14.5446   20.6708 O   0  0  0  0  0  0
  -24.6254  -31.8611   23.2036 C   0  0  0  0  0  0
  -25.9105  -32.4787   23.8365 C   0  0  1  0  0  0
  -27.2440  -27.3355   20.1121 C   0  0  0  0  0  0
  -25.5922  -33.8584   24.2290 N   0  0  0  0  0  0
  -23.4195  -30.4843   21.5460 C   0  0  2  0  0  0
  -24.8696  -28.9398   20.1171 C   0  0  0  0  0  0
  -22.7471  -29.4635   22.4945 C   0  0  0  0  0  0
  -18.0288  -28.1384   22.8486 C   0  0  0  0  0  0
  -24.1488  -36.7298   23.2638 C   0  0  0  0  0  0
  -25.9605  -30.7958   21.3745 C   0  0  0  0  0  0
  -26.0382  -29.4238   20.7180 C   0  0  0  0  0  0
  -27.2262  -28.6344   20.7055 C   0  0  0  0  0  0
  -26.0476  -26.9044   19.4876 C   0  0  0  0  0  0
  -24.8757  -27.6834   19.4950 C   0  0  0  0  0  0
  -23.6355  -29.8169   20.1629 C   0  0  0  0  0  0
  -25.4110  -36.3086   24.0331 C   0  0  1  0  0  0
  -20.5887  -28.3690   23.1281 C   0  0  2  0  0  0
  -20.6777  -26.9413   22.5408 C   0  0  0  0  0  0
  -19.5752  -26.6385   21.5209 C   0  0  0  0  0  0
  -18.1932  -26.7928   22.1622 C   0  0  0  0  0  0
  -19.1540  -28.8853   23.2881 C   0  0  0  0  0  0
  -18.9463  -30.1454   23.8899 C   0  0  0  0  0  0
  -17.6463  -30.6586   24.0564 C   0  0  0  0  0  0
  -25.9046  -34.9455   23.5109 C   0  0  0  0  0  0
  -16.5355  -29.9085   23.6327 C   0  0  0  0  0  0
  -16.7276  -28.6501   23.0351 C   0  0  0  0  0  0
  -26.4489  -31.6589   25.0730 C   0  0  0  0  0  0
  -25.3726  -31.3734   26.1462 C   0  0  0  0  0  0
  -27.0324  -30.3011   24.6180 C   0  0  0  0  0  0
  -27.6054  -32.4320   25.7497 C   0  0  0  0  0  0
  -27.5579  -37.1801   24.8460 C   0  0  0  0  0  0
  -21.4186  -29.3047   22.3678 N   0  0  0  0  0  0
  -26.4290  -37.3779   23.9408 N   0  0  0  0  0  0
  -24.6870  -31.0633   22.0982 N   0  0  0  0  0  0
  -23.4193  -28.8174   23.3025 O   0  0  0  0  0  0
  -28.3866  -26.5153   20.1319 O   0  0  0  0  0  0
  -26.5614  -34.8919   22.4676 O   0  0  0  0  0  0
  -23.5419  -32.1405   23.7367 O   0  0  0  0  0  0
  -31.2650  -19.3583   20.7495 C   0  0  0  0  0  0
  -31.1717  -17.9260   20.7623 C   0  0  0  0  0  0
  -28.9239  -19.5117   20.3355 C   0  0  0  0  0  0
  -30.1300  -20.2024   20.5480 C   0  0  0  0  0  0
  -29.9357  -17.2369   20.5933 C   0  0  0  0  0  0
  -28.8046  -18.0915   20.3910 C   0  0  0  0  0  0
  -30.9993  -22.5084   21.1606 C   0  0  0  0  0  0
  -24.0463  -18.4783   20.4437 C   0  0  0  0  0  0
  -25.2405  -18.0998   19.9545 C   0  0  0  0  0  0
  -26.4223  -18.0899   20.7993 C   0  0  0  0  0  0
  -28.9683  -22.5072   20.1114 C   0  0  0  0  0  0
  -29.3871  -24.0189   20.1252 C   0  0  2  0  0  0
  -30.5518  -23.9979   21.1453 C   0  0  0  0  0  0
  -30.1071  -24.3978   22.5687 C   0  0  0  0  0  0
  -31.7086  -24.9127   20.6907 C   0  0  0  0  0  0
  -28.1891  -25.0588   20.2946 C   0  0  0  0  0  0
  -30.1183  -21.6794   20.5572 N   0  0  0  0  0  0
  -27.4999  -17.5899   20.1645 N   0  0  0  0  0  0
  -29.7655  -15.7738   20.6818 N   0  0  0  0  0  0
  -32.0619  -22.1663   21.6897 O   0  0  0  0  0  0
  -26.4578  -18.4696   21.9734 O   0  0  0  0  0  0
  -31.4830  -12.5613   19.1571 H   0  0  0  0  0  0
  -30.3919  -11.4402   19.9237 H   0  0  0  0  0  0
  -29.7908  -11.7440   17.4983 H   0  0  0  0  0  0
  -29.6404  -13.4671   17.7313 H   0  0  0  0  0  0
  -27.8931  -11.2734   18.8924 H   0  0  0  0  0  0
  -27.3806  -12.5302   17.7981 H   0  0  0  0  0  0
  -27.6454  -14.2335   19.4920 H   0  0  0  0  0  0
  -28.7262  -12.1028   21.4026 H   0  0  0  0  0  0
  -28.4345  -13.7698   21.8198 H   0  0  0  0  0  0
  -25.2747   -9.5556   22.4779 H   0  0  0  0  0  0
  -23.9949   -7.4533   22.7484 H   0  0  0  0  0  0
  -21.0806   -8.8734   19.8959 H   0  0  0  0  0  0
  -22.3717  -10.9607   19.6169 H   0  0  0  0  0  0
  -21.1959   -7.6124   23.9717 H   0  0  0  0  0  0
  -21.1487   -6.0509   25.9090 H   0  0  0  0  0  0
  -22.0604   -2.7594   23.2861 H   0  0  0  0  0  0
  -22.3985  -11.9808   22.4826 H   0  0  0  0  0  0
  -21.1070  -13.1273   22.2644 H   0  0  0  0  0  0
  -24.6570  -15.8008   20.5187 H   0  0  0  0  0  0
  -26.2913  -15.5621   20.1378 H   0  0  0  0  0  0
  -26.7176  -32.5464   23.1119 H   0  0  0  0  0  0
  -25.0063  -33.9733   25.0432 H   0  0  0  0  0  0
  -22.7131  -31.3044   21.4014 H   0  0  0  0  0  0
  -23.3749  -35.9630   23.3297 H   0  0  0  0  0  0
  -24.3585  -36.8922   22.2053 H   0  0  0  0  0  0
  -23.7242  -37.6499   23.6662 H   0  0  0  0  0  0
  -26.0909  -31.5596   20.6066 H   0  0  0  0  0  0
  -26.8409  -30.8449   22.0036 H   0  0  0  0  0  0
  -28.1236  -29.0068   21.1793 H   0  0  0  0  0  0
  -25.9836  -25.9616   18.9692 H   0  0  0  0  0  0
  -23.9826  -27.3077   19.0147 H   0  0  0  0  0  0
  -23.7538  -30.5919   19.4046 H   0  0  0  0  0  0
  -22.7568  -29.2440   19.8610 H   0  0  0  0  0  0
  -25.1289  -36.1939   25.0824 H   0  0  0  0  0  0
  -20.9984  -28.3267   24.1399 H   0  0  0  0  0  0
  -20.5672  -26.2302   23.3609 H   0  0  0  0  0  0
  -21.6647  -26.7439   22.1206 H   0  0  0  0  0  0
  -19.6913  -25.6296   21.1239 H   0  0  0  0  0  0
  -19.6685  -27.3192   20.6736 H   0  0  0  0  0  0
  -17.4200  -26.6676   21.4026 H   0  0  0  0  0  0
  -18.0334  -26.0069   22.9017 H   0  0  0  0  0  0
  -19.7940  -30.7268   24.2270 H   0  0  0  0  0  0
  -17.5019  -31.6267   24.5164 H   0  0  0  0  0  0
  -15.5356  -30.2986   23.7649 H   0  0  0  0  0  0
  -15.8677  -28.0818   22.7066 H   0  0  0  0  0  0
  -24.5887  -30.7098   25.7795 H   0  0  0  0  0  0
  -24.8935  -32.2904   26.4900 H   0  0  0  0  0  0
  -25.8052  -30.8899   27.0229 H   0  0  0  0  0  0
  -26.2895  -29.6771   24.1198 H   0  0  0  0  0  0
  -27.4013  -29.7260   25.4682 H   0  0  0  0  0  0
  -27.8769  -30.4294   23.9405 H   0  0  0  0  0  0
  -27.2668  -33.3619   26.2078 H   0  0  0  0  0  0
  -28.3859  -32.6882   25.0320 H   0  0  0  0  0  0
  -28.0724  -31.8441   26.5408 H   0  0  0  0  0  0
  -28.2593  -38.0101   24.7513 H   0  0  0  0  0  0
  -28.1079  -36.2634   24.6275 H   0  0  0  0  0  0
  -27.2303  -37.1439   25.8865 H   0  0  0  0  0  0
  -20.9363  -29.8773   21.6891 H   0  0  0  0  0  0
  -26.0172  -38.2854   24.1411 H   0  0  0  0  0  0
  -32.2402  -19.7985   20.9004 H   0  0  0  0  0  0
  -32.0755  -17.3579   20.9312 H   0  0  0  0  0  0
  -28.0357  -20.0967   20.1505 H   0  0  0  0  0  0
  -23.1688  -18.4865   19.8139 H   0  0  0  0  0  0
  -23.9206  -18.7845   21.4735 H   0  0  0  0  0  0
  -25.3103  -17.8036   18.9168 H   0  0  0  0  0  0
  -28.6332  -22.2065   19.1180 H   0  0  0  0  0  0
  -28.1390  -22.3463   20.8019 H   0  0  0  0  0  0
  -29.8160  -24.2166   19.1413 H   0  0  0  0  0  0
  -29.2794  -23.7806   22.9207 H   0  0  0  0  0  0
  -29.7844  -25.4385   22.6085 H   0  0  0  0  0  0
  -30.9219  -24.2865   23.2854 H   0  0  0  0  0  0
  -32.1152  -24.5983   19.7284 H   0  0  0  0  0  0
  -32.5300  -24.9043   21.4084 H   0  0  0  0  0  0
  -31.3750  -25.9453   20.5849 H   0  0  0  0  0  0
  -27.7070  -24.8970   21.2595 H   0  0  0  0  0  0
  -27.4693  -24.7147   19.5580 H   0  0  0  0  0  0
  -27.3449  -17.1898   19.2500 H   0  0  0  0  0  0
  -28.8135  -15.4893   20.8468 H   0  0  0  0  0  0
  1 25  1  0  0  0
  1 30  2  0  0  0
  1 89  1  0  0  0
  2  3  1  0  0  0
  2 25  1  0  0  0
  2 92  1  0  0  0
  2 93  1  0  0  0
  3  4  1  0  0  0
  3 94  1  0  0  0
  3 95  1  0  0  0
  4  5  1  0  0  0
  4 96  1  0  0  0
  4 97  1  0  0  0
  5  6  1  0  0  0
  5 26  1  0  0  0
  5 98  1  0  0  0
  6 25  1  0  0  0
  6 99  1  0  0  0
  6100  1  0  0  0
  7  8  2  0  0  0
  7 26  1  0  0  0
  7 29  1  0  0  0
  8  9  1  0  0  0
  8 22  1  0  0  0
  9 10  1  0  0  0
  9 27  2  0  0  0
 10 11  2  0  0  0
 10 15  1  0  0  0
 11 12  1  0  0  0
 11101  1  0  0  0
 12 13  2  0  0  0
 12102  1  0  0  0
 13 14  1  0  0  0
 13 31  1  0  0  0
 14 15  2  0  0  0
 14103  1  0  0  0
 15104  1  0  0  0
 16 17  2  0  0  0
 16 21  1  0  0  0
 16 31  1  0  0  0
 17 18  1  0  0  0
 17105  1  0  0  0
 18 19  2  0  0  0
 18106  1  0  0  0
 19 20  1  0  0  0
 19 24  1  0  0  0
 20 21  2  0  0  0
 20107  1  0  0  0
 21 23  1  0  0  0
 22 28  1  0  0  0
 22 32  2  0  0  0
 26 27  1  0  0  0
 28108  1  0  0  0
 28109  1  0  0  0
 29110  1  0  0  0
 29111  1  0  0  0
 33 34  1  0  0  0
 33 66  1  0  0  0
 33 70  2  0  0  0
 34 36  1  0  0  0
 34 59  1  0  0  0
 34112  1  0  0  0
 35 44  2  0  0  0
 35 45  1  0  0  0
 35 68  1  0  0  0
 36 56  1  0  0  0
 36113  1  0  0  0
 37 39  1  0  0  0
 37 47  1  0  0  0
 37 66  1  0  0  0
 37114  1  0  0  0
 38 43  2  0  0  0
 38 46  1  0  0  0
 38 47  1  0  0  0
 39 64  1  0  0  0
 39 67  2  0  0  0
 40 52  1  0  0  0
 40 53  2  0  0  0
 40 58  1  0  0  0
 41115  1  0  0  0
 41116  1  0  0  0
 41117  1  0  0  0
 41 48  1  0  0  0
 42 43  1  0  0  0
 42 66  1  0  0  0
 42118  1  0  0  0
 42119  1  0  0  0
 43 44  1  0  0  0
 44120  1  0  0  0
 45 46  2  0  0  0
 45121  1  0  0  0
 46122  1  0  0  0
 47123  1  0  0  0
 47124  1  0  0  0
 48 56  1  0  0  0
 48 65  1  0  0  0
 48125  1  0  0  0
 49 50  1  0  0  0
 49 53  1  0  0  0
 49 64  1  0  0  0
 49126  1  0  0  0
 50 51  1  0  0  0
 50127  1  0  0  0
 50128  1  0  0  0
 51 52  1  0  0  0
 51129  1  0  0  0
 51130  1  0  0  0
 52131  1  0  0  0
 52132  1  0  0  0
 53 54  1  0  0  0
 54 55  2  0  0  0
 54133  1  0  0  0
 55 57  1  0  0  0
 55134  1  0  0  0
 56 69  2  0  0  0
 57 58  2  0  0  0
 57135  1  0  0  0
 58136  1  0  0  0
 59 60  1  0  0  0
 59 61  1  0  0  0
 59 62  1  0  0  0
 60137  1  0  0  0
 60138  1  0  0  0
 60139  1  0  0  0
 61140  1  0  0  0
 61141  1  0  0  0
 61142  1  0  0  0
 62143  1  0  0  0
 62144  1  0  0  0
 62145  1  0  0  0
 63 65  1  0  0  0
 63146  1  0  0  0
 63147  1  0  0  0
 63148  1  0  0  0
 64149  1  0  0  0
 65150  1  0  0  0
 68 86  1  0  0  0
 71 72  2  0  0  0
 71 74  1  0  0  0
 71151  1  0  0  0
 72 75  1  0  0  0
 72152  1  0  0  0
 73 74  2  0  0  0
 73 76  1  0  0  0
 73153  1  0  0  0
 74 87  1  0  0  0
 75 76  2  0  0  0
 75 89  1  0  0  0
 76 88  1  0  0  0
 77 83  1  0  0  0
 77 87  1  0  0  0
 77 90  2  0  0  0
 78 79  2  0  0  0
 78154  1  0  0  0
 78155  1  0  0  0
 79 80  1  0  0  0
 79156  1  0  0  0
 80 88  1  0  0  0
 80 91  2  0  0  0
 81 82  1  0  0  0
 81 87  1  0  0  0
 81157  1  0  0  0
 81158  1  0  0  0
 82 83  1  0  0  0
 82 86  1  0  0  0
 82159  1  0  0  0
 83 84  1  0  0  0
 83 85  1  0  0  0
 84160  1  0  0  0
 84161  1  0  0  0
 84162  1  0  0  0
 85163  1  0  0  0
 85164  1  0  0  0
 85165  1  0  0  0
 86166  1  0  0  0
 86167  1  0  0  0
 88168  1  0  0  0
 89169  1  0  0  0
M  ISO  4   1 100  68 101  86 101  89 100
M  END
> <chiral flag>
0

> <version>
0

> <s_m_source_file>
/data/baiqing/PycharmProjects/Reinvent-master-3.2/result/LINK_invent/BTK/process_docking_weight1_custom_product_contain_oxygen_bond_distance_aromatic_linkinvent_7_9_3/rearranged_h_0068.sdf

> <i_m_source_file_index>
7

> <r_mmod_Potential_Energy-OPLS-2005>
121.413795471191

> <r_mmod_Stretch_Energy-OPLS-2005>
85.0401840209961

> <r_mmod_Bend_Energy-OPLS-2005>
177.977340698242

> <r_mmod_Torsional_Energy-OPLS-2005>
326.370941162109

> <r_mmod_Improper_Torsional_Energy-OPLS-2005>
7.46744680404663

> <r_mmod_Van_der_Waal_Energy-OPLS-2005>
158.176086425781

> <r_mmod_Electrostatic_Energy-OPLS-2005>
-449.459930419922

> <r_mmod_Solvation_Energy-OPLS-2005>
-240.725799560547

> <b_mmod_Minimization_Converged-OPLS-2005>
0

> <r_mmod_RMS_Derivative-OPLS-2005>
0.543297946453094

$$$$
7
                    3D
 Structure written by MMmdl.
159168  0  0  1  0            999 V2000
  -30.6292  -14.6977   20.4993 C   0  0  0  0  0  0
  -30.4366  -12.4281   19.4914 C   0  0  0  0  0  0
  -29.5339  -12.5329   18.2411 C   0  0  0  0  0  0
  -28.0496  -12.3679   18.6384 C   0  0  0  0  0  0
  -27.6608  -13.2352   19.8672 C   0  0  2  0  0  0
  -28.6950  -13.1291   21.0096 C   0  0  0  0  0  0
  -25.2598  -13.8210   20.5681 C   0  0  0  0  0  0
  -24.1873  -13.0464   20.9156 C   0  0  0  0  0  0
  -24.6470  -11.6936   20.8725 C   0  0  0  0  0  0
  -23.9168  -10.4304   21.0417 C   0  0  0  0  0  0
  -24.3718   -9.4213   21.9182 C   0  0  0  0  0  0
  -23.6361   -8.2263   22.0748 C   0  0  0  0  0  0
  -22.4320   -8.0318   21.3540 C   0  0  0  0  0  0
  -21.9986   -9.0320   20.4647 C   0  0  0  0  0  0
  -22.7356  -10.2161   20.3057 C   0  0  0  0  0  0
  -21.6851   -6.0779   22.5279 C   0  0  0  0  0  0
  -21.4031   -6.5664   23.8213 C   0  0  0  0  0  0
  -21.3649   -5.6787   24.9165 C   0  0  0  0  0  0
  -21.6032   -4.3061   24.7187 C   0  0  0  0  0  0
  -21.8820   -3.8180   23.4309 C   0  0  0  0  0  0
  -21.9189   -4.7020   22.3372 C   0  0  0  0  0  0
  -22.7869  -13.5268   21.1812 C   0  0  0  0  0  0
  -22.1651   -4.2221   21.0931 F   0  0  0  0  0  0
  -21.5645   -3.4524   25.7704 F   0  0  0  0  0  0
  -30.0098  -13.4708   20.4535 N   0  0  0  0  0  0
  -26.3036  -12.9429   20.3296 N   0  0  0  0  0  0
  -25.9406  -11.6566   20.5746 N   0  0  0  0  0  0
  -22.0497  -12.8258   22.0350 N   0  0  0  0  0  0
  -25.4374  -15.1916   20.4103 N   0  0  0  0  0  0
  -31.7841  -14.8192   20.0809 O   0  0  0  0  0  0
  -21.6646   -6.8951   21.4240 O   0  0  0  0  0  0
  -22.3580  -14.5587   20.6676 O   0  0  0  0  0  0
  -24.6335  -31.8554   23.1977 C   0  0  0  0  0  0
  -25.9144  -32.4787   23.8374 C   0  0  1  0  0  0
  -27.2304  -27.2689   20.1245 C   0  0  0  0  0  0
  -25.5939  -33.8588   24.2276 N   0  0  0  0  0  0
  -23.4327  -30.4770   21.5406 C   0  0  2  0  0  0
  -24.8822  -28.9226   20.1150 C   0  0  0  0  0  0
  -22.7521  -29.4618   22.4924 C   0  0  0  0  0  0
  -18.0276  -28.1400   22.8458 C   0  0  0  0  0  0
  -24.1472  -36.7300   23.2637 C   0  0  0  0  0  0
  -25.9779  -30.7740   21.3746 C   0  0  0  0  0  0
  -26.0547  -29.3944   20.7197 C   0  0  0  0  0  0
  -27.2311  -28.5789   20.7146 C   0  0  0  0  0  0
  -26.0269  -26.8651   19.4982 C   0  0  0  0  0  0
  -24.8693  -27.6643   19.5014 C   0  0  0  0  0  0
  -23.6537  -29.8073   20.1586 C   0  0  0  0  0  0
  -25.4101  -36.3111   24.0327 C   0  0  1  0  0  0
  -20.5883  -28.3723   23.1243 C   0  0  2  0  0  0
  -20.6769  -26.9443   22.5382 C   0  0  0  0  0  0
  -19.5748  -26.6383   21.5189 C   0  0  0  0  0  0
  -18.1931  -26.7946   22.1604 C   0  0  0  0  0  0
  -19.1525  -28.8875   23.2855 C   0  0  0  0  0  0
  -18.9467  -30.1471   23.8884 C   0  0  0  0  0  0
  -17.6467  -30.6597   24.0561 C   0  0  0  0  0  0
  -25.9033  -34.9464   23.5086 C   0  0  0  0  0  0
  -16.5355  -29.9098   23.6330 C   0  0  0  0  0  0
  -16.7274  -28.6515   23.0359 C   0  0  0  0  0  0
  -26.4472  -31.6658   25.0790 C   0  0  0  0  0  0
  -25.3672  -31.3834   26.1503 C   0  0  0  0  0  0
  -27.0312  -30.3087   24.6290 C   0  0  0  0  0  0
  -27.6031  -32.4400   25.7561 C   0  0  0  0  0  0
  -27.5573  -37.1814   24.8459 C   0  0  0  0  0  0
  -21.4213  -29.3078   22.3657 N   0  0  0  0  0  0
  -26.4290  -37.3807   23.9393 N   0  0  0  0  0  0
  -24.7019  -31.0538   22.0956 N   0  0  0  0  0  0
  -23.4204  -28.8127   23.3023 O   0  0  0  0  0  0
  -28.3305  -26.3786   20.1822 O   0  0  0  0  0  0
  -26.5599  -34.8931   22.4645 O   0  0  0  0  0  0
  -23.5479  -32.1395   23.7235 O   0  0  0  0  0  0
  -29.1974  -19.4881   18.7231 C   0  0  0  0  0  0
  -29.5177  -17.0564   18.8292 C   0  0  0  0  0  0
  -29.6869  -18.4134   20.8404 C   0  0  0  0  0  0
  -29.2225  -18.2239   18.0991 C   0  0  0  0  0  0
  -29.4453  -19.6603   20.1059 C   0  0  0  0  0  0
  -29.7550  -17.1006   20.2185 C   0  0  0  0  0  0
  -30.0138  -22.6677   22.3940 C   0  0  0  0  0  0
  -29.5198  -23.7490   21.7602 C   0  0  0  0  0  0
  -30.2064  -21.3614   21.7576 C   0  0  0  0  0  0
  -28.6586  -22.2108   19.9997 C   0  0  0  0  0  0
  -29.1012  -23.7257   20.3147 C   0  0  1  0  0  0
  -28.9043  -18.1229   16.6220 C   0  0  0  0  0  0
  -28.0868  -24.9196   19.9231 C   0  0  0  0  0  0
  -29.4434  -21.0628   20.6593 N   0  0  0  0  0  0
  -29.9075  -15.8036   20.9103 N   0  0  0  0  0  0
  -31.0548  -20.5867   22.2093 O   0  0  0  0  0  0
  -31.4904  -12.5161   19.2175 H   0  0  0  0  0  0
  -30.3349  -11.4417   19.9426 H   0  0  0  0  0  0
  -29.8168  -11.7748   17.5085 H   0  0  0  0  0  0
  -29.6868  -13.4947   17.7508 H   0  0  0  0  0  0
  -27.8804  -11.3134   18.8608 H   0  0  0  0  0  0
  -27.4105  -12.6060   17.7882 H   0  0  0  0  0  0
  -27.6801  -14.2705   19.5187 H   0  0  0  0  0  0
  -28.7111  -12.1249   21.4368 H   0  0  0  0  0  0
  -28.4319  -13.7993   21.8297 H   0  0  0  0  0  0
  -25.2883   -9.5692   22.4746 H   0  0  0  0  0  0
  -24.0077   -7.4656   22.7447 H   0  0  0  0  0  0
  -21.0929   -8.8898   19.8935 H   0  0  0  0  0  0
  -22.3890  -10.9730   19.6171 H   0  0  0  0  0  0
  -21.2038   -7.6168   23.9778 H   0  0  0  0  0  0
  -21.1455   -6.0470   25.9069 H   0  0  0  0  0  0
  -22.0612   -2.7656   23.2743 H   0  0  0  0  0  0
  -22.4114  -11.9938   22.4761 H   0  0  0  0  0  0
  -21.1114  -13.1298   22.2568 H   0  0  0  0  0  0
  -24.6855  -15.8565   20.5438 H   0  0  0  0  0  0
  -26.3051  -15.6238   20.1191 H   0  0  0  0  0  0
  -26.7248  -32.5460   23.1168 H   0  0  0  0  0  0
  -25.0155  -33.9720   25.0482 H   0  0  0  0  0  0
  -22.7319  -31.2999   21.3880 H   0  0  0  0  0  0
  -23.3746  -35.9623   23.3308 H   0  0  0  0  0  0
  -24.3606  -36.8897   22.2057 H   0  0  0  0  0  0
  -23.7205  -37.6486   23.6665 H   0  0  0  0  0  0
  -26.1030  -31.5296   20.5978 H   0  0  0  0  0  0
  -26.8578  -30.8378   22.0027 H   0  0  0  0  0  0
  -28.1280  -28.9295   21.2059 H   0  0  0  0  0  0
  -25.9371  -25.9009   19.0204 H   0  0  0  0  0  0
  -23.9630  -27.2892   19.0467 H   0  0  0  0  0  0
  -23.7857  -30.5766   19.3974 H   0  0  0  0  0  0
  -22.7740  -29.2369   19.8540 H   0  0  0  0  0  0
  -25.1286  -36.1968   25.0834 H   0  0  0  0  0  0
  -20.9959  -28.3309   24.1376 H   0  0  0  0  0  0
  -20.5670  -26.2353   23.3605 H   0  0  0  0  0  0
  -21.6651  -26.7480   22.1197 H   0  0  0  0  0  0
  -19.6916  -25.6268   21.1293 H   0  0  0  0  0  0
  -19.6688  -27.3126   20.6667 H   0  0  0  0  0  0
  -17.4202  -26.6663   21.4014 H   0  0  0  0  0  0
  -18.0355  -26.0111   22.9023 H   0  0  0  0  0  0
  -19.7946  -30.7282   24.2279 H   0  0  0  0  0  0
  -17.5032  -31.6282   24.5141 H   0  0  0  0  0  0
  -15.5365  -30.3012   23.7652 H   0  0  0  0  0  0
  -15.8672  -28.0834   22.7105 H   0  0  0  0  0  0
  -24.5822  -30.7214   25.7829 H   0  0  0  0  0  0
  -24.8882  -32.3004   26.4948 H   0  0  0  0  0  0
  -25.7949  -30.9002   27.0295 H   0  0  0  0  0  0
  -26.2903  -29.6877   24.1241 H   0  0  0  0  0  0
  -27.3896  -29.7348   25.4845 H   0  0  0  0  0  0
  -27.8833  -30.4370   23.9607 H   0  0  0  0  0  0
  -27.2656  -33.3710   26.2137 H   0  0  0  0  0  0
  -28.3844  -32.6937   25.0385 H   0  0  0  0  0  0
  -28.0728  -31.8553   26.5483 H   0  0  0  0  0  0
  -28.2585  -38.0110   24.7514 H   0  0  0  0  0  0
  -28.1056  -36.2640   24.6269 H   0  0  0  0  0  0
  -27.2313  -37.1461   25.8868 H   0  0  0  0  0  0
  -20.9424  -29.8900   21.6918 H   0  0  0  0  0  0
  -26.0162  -38.2876   24.1396 H   0  0  0  0  0  0
  -28.9920  -20.3257   18.0778 H   0  0  0  0  0  0
  -29.5193  -16.1084   18.3114 H   0  0  0  0  0  0
  -29.8284  -18.4573   21.9113 H   0  0  0  0  0  0
  -30.3158  -22.7712   23.4274 H   0  0  0  0  0  0
  -29.4125  -24.6871   22.2890 H   0  0  0  0  0  0
  -28.6226  -22.1260   18.9162 H   0  0  0  0  0  0
  -27.6201  -22.0814   20.3204 H   0  0  0  0  0  0
  -30.0163  -23.9044   19.7439 H   0  0  0  0  0  0
  -29.1309  -19.0596   16.1104 H   0  0  0  0  0  0
  -27.8425  -17.9109   16.4875 H   0  0  0  0  0  0
  -29.4763  -17.3278   16.1406 H   0  0  0  0  0  0
  -27.1415  -24.6469   20.3894 H   0  0  0  0  0  0
  -27.9371  -24.8329   18.8453 H   0  0  0  0  0  0
  -29.1320  -15.5727   21.5160 H   0  0  0  0  0  0
  1 25  1  0  0  0
  1 30  2  0  0  0
  1 85  1  0  0  0
  2  3  1  0  0  0
  2 25  1  0  0  0
  2 87  1  0  0  0
  2 88  1  0  0  0
  3  4  1  0  0  0
  3 89  1  0  0  0
  3 90  1  0  0  0
  4  5  1  0  0  0
  4 91  1  0  0  0
  4 92  1  0  0  0
  5  6  1  0  0  0
  5 26  1  0  0  0
  5 93  1  0  0  0
  6 25  1  0  0  0
  6 94  1  0  0  0
  6 95  1  0  0  0
  7  8  2  0  0  0
  7 26  1  0  0  0
  7 29  1  0  0  0
  8  9  1  0  0  0
  8 22  1  0  0  0
  9 10  1  0  0  0
  9 27  2  0  0  0
 10 11  2  0  0  0
 10 15  1  0  0  0
 11 12  1  0  0  0
 11 96  1  0  0  0
 12 13  2  0  0  0
 12 97  1  0  0  0
 13 14  1  0  0  0
 13 31  1  0  0  0
 14 15  2  0  0  0
 14 98  1  0  0  0
 15 99  1  0  0  0
 16 17  2  0  0  0
 16 21  1  0  0  0
 16 31  1  0  0  0
 17 18  1  0  0  0
 17100  1  0  0  0
 18 19  2  0  0  0
 18101  1  0  0  0
 19 20  1  0  0  0
 19 24  1  0  0  0
 20 21  2  0  0  0
 20102  1  0  0  0
 21 23  1  0  0  0
 22 28  1  0  0  0
 22 32  2  0  0  0
 26 27  1  0  0  0
 28103  1  0  0  0
 28104  1  0  0  0
 29105  1  0  0  0
 29106  1  0  0  0
 33 34  1  0  0  0
 33 66  1  0  0  0
 33 70  2  0  0  0
 34 36  1  0  0  0
 34 59  1  0  0  0
 34107  1  0  0  0
 35 44  2  0  0  0
 35 45  1  0  0  0
 35 68  1  0  0  0
 36 56  1  0  0  0
 36108  1  0  0  0
 37 39  1  0  0  0
 37 47  1  0  0  0
 37 66  1  0  0  0
 37109  1  0  0  0
 38 43  2  0  0  0
 38 46  1  0  0  0
 38 47  1  0  0  0
 39 64  1  0  0  0
 39 67  2  0  0  0
 40 52  1  0  0  0
 40 53  2  0  0  0
 40 58  1  0  0  0
 41110  1  0  0  0
 41111  1  0  0  0
 41112  1  0  0  0
 41 48  1  0  0  0
 42 43  1  0  0  0
 42 66  1  0  0  0
 42113  1  0  0  0
 42114  1  0  0  0
 43 44  1  0  0  0
 44115  1  0  0  0
 45 46  2  0  0  0
 45116  1  0  0  0
 46117  1  0  0  0
 47118  1  0  0  0
 47119  1  0  0  0
 48 56  1  0  0  0
 48 65  1  0  0  0
 48120  1  0  0  0
 49 50  1  0  0  0
 49 53  1  0  0  0
 49 64  1  0  0  0
 49121  1  0  0  0
 50 51  1  0  0  0
 50122  1  0  0  0
 50123  1  0  0  0
 51 52  1  0  0  0
 51124  1  0  0  0
 51125  1  0  0  0
 52126  1  0  0  0
 52127  1  0  0  0
 53 54  1  0  0  0
 54 55  2  0  0  0
 54128  1  0  0  0
 55 57  1  0  0  0
 55129  1  0  0  0
 56 69  2  0  0  0
 57 58  2  0  0  0
 57130  1  0  0  0
 58131  1  0  0  0
 59 60  1  0  0  0
 59 61  1  0  0  0
 59 62  1  0  0  0
 60132  1  0  0  0
 60133  1  0  0  0
 60134  1  0  0  0
 61135  1  0  0  0
 61136  1  0  0  0
 61137  1  0  0  0
 62138  1  0  0  0
 62139  1  0  0  0
 62140  1  0  0  0
 63 65  1  0  0  0
 63141  1  0  0  0
 63142  1  0  0  0
 63143  1  0  0  0
 64144  1  0  0  0
 65145  1  0  0  0
 68 83  1  0  0  0
 71 74  2  0  0  0
 71 75  1  0  0  0
 71146  1  0  0  0
 72 74  1  0  0  0
 72 76  2  0  0  0
 72147  1  0  0  0
 73 75  2  0  0  0
 73 76  1  0  0  0
 73148  1  0  0  0
 74 82  1  0  0  0
 75 84  1  0  0  0
 76 85  1  0  0  0
 77 78  2  0  0  0
 77 79  1  0  0  0
 77149  1  0  0  0
 78 81  1  0  0  0
 78150  1  0  0  0
 79 84  1  0  0  0
 79 86  2  0  0  0
 80 81  1  0  0  0
 80 84  1  0  0  0
 80151  1  0  0  0
 80152  1  0  0  0
 81 83  1  0  0  0
 81153  1  0  0  0
 82154  1  0  0  0
 82155  1  0  0  0
 82156  1  0  0  0
 83157  1  0  0  0
 83158  1  0  0  0
 85159  1  0  0  0
M  ISO  4   1 100  68 101  83 101  85 100
M  END
> <chiral flag>
0

> <version>
0

> <s_m_source_file>
/data/baiqing/PycharmProjects/Reinvent-master-3.2/result/LINK_invent/BTK/process_docking_weight1_custom_product_contain_oxygen_bond_distance_aromatic_linkinvent_7_9_3/rearranged_h_0068.sdf

> <i_m_source_file_index>
8

> <r_mmod_Potential_Energy-OPLS-2005>
274.495422363281

> <r_mmod_Stretch_Energy-OPLS-2005>
130.379455566406

> <r_mmod_Bend_Energy-OPLS-2005>
167.565704345703

> <r_mmod_Torsional_Energy-OPLS-2005>
289.2841796875

> <r_mmod_Improper_Torsional_Energy-OPLS-2005>
5.01079607009888

> <r_mmod_Van_der_Waal_Energy-OPLS-2005>
162.296417236328

> <r_mmod_Electrostatic_Energy-OPLS-2005>
-325.184112548828

> <r_mmod_Solvation_Energy-OPLS-2005>
-226.273727416992

> <b_mmod_Minimization_Converged-OPLS-2005>
0

> <r_mmod_RMS_Derivative-OPLS-2005>
5.69820022583008

$$$$
8
                    3D
 Structure written by MMmdl.
158166  0  0  1  0            999 V2000
  -30.5922  -14.6407   20.5330 C   0  0  0  0  0  0
  -30.4463  -12.4012   19.4436 C   0  0  0  0  0  0
  -29.5092  -12.5199   18.2202 C   0  0  0  0  0  0
  -28.0283  -12.3613   18.6274 C   0  0  0  0  0  0
  -27.6541  -13.2126   19.8686 C   0  0  2  0  0  0
  -28.6968  -13.0326   20.9944 C   0  0  0  0  0  0
  -25.2570  -13.8157   20.5722 C   0  0  0  0  0  0
  -24.1831  -13.0418   20.9198 C   0  0  0  0  0  0
  -24.6388  -11.6891   20.8727 C   0  0  0  0  0  0
  -23.9051  -10.4278   21.0388 C   0  0  0  0  0  0
  -24.3591   -9.4200   21.9179 C   0  0  0  0  0  0
  -23.6266   -8.2237   22.0749 C   0  0  0  0  0  0
  -22.4254   -8.0265   21.3538 C   0  0  0  0  0  0
  -21.9884   -9.0245   20.4649 C   0  0  0  0  0  0
  -22.7212  -10.2127   20.3046 C   0  0  0  0  0  0
  -21.6859   -6.0724   22.5283 C   0  0  0  0  0  0
  -21.4012   -6.5623   23.8215 C   0  0  0  0  0  0
  -21.3659   -5.6768   24.9172 C   0  0  0  0  0  0
  -21.6051   -4.3043   24.7220 C   0  0  0  0  0  0
  -21.8818   -3.8133   23.4340 C   0  0  0  0  0  0
  -21.9197   -4.6945   22.3401 C   0  0  0  0  0  0
  -22.7853  -13.5233   21.1848 C   0  0  0  0  0  0
  -22.1669   -4.2138   21.0987 F   0  0  0  0  0  0
  -21.5623   -3.4531   25.7731 F   0  0  0  0  0  0
  -30.0131  -13.4005   20.4422 N   0  0  0  0  0  0
  -26.2988  -12.9328   20.3326 N   0  0  0  0  0  0
  -25.9310  -11.6487   20.5703 N   0  0  0  0  0  0
  -22.0483  -12.8239   22.0390 N   0  0  0  0  0  0
  -25.4275  -15.1871   20.4165 N   0  0  0  0  0  0
  -31.7310  -14.8577   20.1052 O   0  0  0  0  0  0
  -21.6635   -6.8858   21.4236 O   0  0  0  0  0  0
  -22.3558  -14.5555   20.6683 O   0  0  0  0  0  0
  -24.6261  -31.8617   23.2030 C   0  0  0  0  0  0
  -25.9111  -32.4786   23.8364 C   0  0  1  0  0  0
  -27.2194  -27.3169   20.1285 C   0  0  0  0  0  0
  -25.5935  -33.8578   24.2310 N   0  0  0  0  0  0
  -23.4190  -30.4874   21.5474 C   0  0  2  0  0  0
  -24.8649  -28.9424   20.1102 C   0  0  0  0  0  0
  -22.7485  -29.4638   22.4952 C   0  0  0  0  0  0
  -18.0304  -28.1388   22.8534 C   0  0  0  0  0  0
  -24.1472  -36.7268   23.2630 C   0  0  0  0  0  0
  -25.9592  -30.7964   21.3687 C   0  0  0  0  0  0
  -26.0331  -29.4218   20.7153 C   0  0  0  0  0  0
  -27.2137  -28.6211   20.7133 C   0  0  0  0  0  0
  -26.0336  -26.8932   19.4890 C   0  0  0  0  0  0
  -24.8686  -27.6850   19.4846 C   0  0  0  0  0  0
  -23.6311  -29.8232   20.1613 C   0  0  0  0  0  0
  -25.4086  -36.3083   24.0347 C   0  0  1  0  0  0
  -20.5918  -28.3682   23.1317 C   0  0  2  0  0  0
  -20.6777  -26.9403   22.5438 C   0  0  0  0  0  0
  -19.5732  -26.6408   21.5244 C   0  0  0  0  0  0
  -18.1920  -26.7942   22.1654 C   0  0  0  0  0  0
  -19.1563  -28.8852   23.2924 C   0  0  0  0  0  0
  -18.9458  -30.1468   23.8924 C   0  0  0  0  0  0
  -17.6446  -30.6581   24.0587 C   0  0  0  0  0  0
  -25.9047  -34.9456   23.5127 C   0  0  0  0  0  0
  -16.5343  -29.9075   23.6343 C   0  0  0  0  0  0
  -16.7291  -28.6493   23.0369 C   0  0  0  0  0  0
  -26.4488  -31.6584   25.0722 C   0  0  0  0  0  0
  -25.3727  -31.3690   26.1459 C   0  0  0  0  0  0
  -27.0315  -30.3034   24.6100 C   0  0  0  0  0  0
  -27.6085  -32.4288   25.7466 C   0  0  0  0  0  0
  -27.5594  -37.1750   24.8433 C   0  0  0  0  0  0
  -21.4201  -29.3023   22.3687 N   0  0  0  0  0  0
  -26.4252  -37.3810   23.9473 N   0  0  0  0  0  0
  -24.6879  -31.0646   22.0964 N   0  0  0  0  0  0
  -23.4208  -28.8165   23.3024 O   0  0  0  0  0  0
  -28.3352  -26.4702   20.2084 O   0  0  0  0  0  0
  -26.5631  -34.8918   22.4699 O   0  0  0  0  0  0
  -23.5435  -32.1394   23.7372 O   0  0  0  0  0  0
  -28.6311  -19.1267   21.8998 C   0  0  0  0  0  0
  -28.7721  -17.7133   21.8293 C   0  0  0  0  0  0
  -30.5468  -17.9593   20.2276 C   0  0  0  0  0  0
  -29.4327  -20.0135   21.1350 C   0  0  0  0  0  0
  -29.7412  -17.0810   21.0099 C   0  0  0  0  0  0
  -30.3939  -19.3888   20.2828 C   0  0  0  0  0  0
  -29.3180  -21.5098   21.3946 C   0  0  0  0  0  0
  -30.6512  -24.4482   20.2292 C   0  0  0  0  0  0
  -31.2250  -25.7645   20.7331 C   0  0  0  0  0  0
  -28.1582  -25.0011   20.0642 C   0  0  0  0  0  0
  -29.2507  -24.0389   20.7189 C   0  0  1  0  0  0
  -29.4025  -21.8838   22.6755 N   0  0  0  0  0  0
  -29.7647  -15.6161   21.0196 N   0  0  0  0  0  0
  -29.1054  -22.5279   20.4936 N   0  3  0  0  0  0
  -31.3151  -23.7567   19.4524 O   0  0  0  0  0  0
  -31.2240  -20.1606   19.5389 F   0  0  0  0  0  0
  -31.4831  -12.5503   19.1351 H   0  0  0  0  0  0
  -30.3979  -11.3974   19.8653 H   0  0  0  0  0  0
  -29.7722  -11.7762   17.4656 H   0  0  0  0  0  0
  -29.6548  -13.4919   17.7454 H   0  0  0  0  0  0
  -27.8458  -11.3056   18.8344 H   0  0  0  0  0  0
  -27.3818  -12.6228   17.7889 H   0  0  0  0  0  0
  -27.6818  -14.2536   19.5476 H   0  0  0  0  0  0
  -28.7085  -11.9977   21.3391 H   0  0  0  0  0  0
  -28.4291  -13.6250   21.8703 H   0  0  0  0  0  0
  -25.2723   -9.5707   22.4759 H   0  0  0  0  0  0
  -23.9997   -7.4636   22.7469 H   0  0  0  0  0  0
  -21.0816   -8.8740   19.8963 H   0  0  0  0  0  0
  -22.3642  -10.9642   19.6155 H   0  0  0  0  0  0
  -21.2006   -7.6123   23.9699 H   0  0  0  0  0  0
  -21.1485   -6.0512   25.9080 H   0  0  0  0  0  0
  -22.0601   -2.7589   23.2844 H   0  0  0  0  0  0
  -22.4050  -11.9872   22.4761 H   0  0  0  0  0  0
  -21.1104  -13.1282   22.2596 H   0  0  0  0  0  0
  -24.6501  -15.8309   20.5123 H   0  0  0  0  0  0
  -26.2581  -15.6233   20.0356 H   0  0  0  0  0  0
  -26.7172  -32.5473   23.1109 H   0  0  0  0  0  0
  -25.0097  -33.9728   25.0464 H   0  0  0  0  0  0
  -22.7115  -31.3088   21.4117 H   0  0  0  0  0  0
  -23.3786  -35.9542   23.3192 H   0  0  0  0  0  0
  -24.3612  -36.8979   22.2069 H   0  0  0  0  0  0
  -23.7121  -37.6398   23.6698 H   0  0  0  0  0  0
  -26.0877  -31.5541   20.5943 H   0  0  0  0  0  0
  -26.8416  -30.8542   21.9938 H   0  0  0  0  0  0
  -28.1079  -28.9835   21.2008 H   0  0  0  0  0  0
  -25.9824  -25.9313   18.9989 H   0  0  0  0  0  0
  -23.9749  -27.3161   19.0017 H   0  0  0  0  0  0
  -23.7446  -30.5993   19.4035 H   0  0  0  0  0  0
  -22.7478  -29.2522   19.8670 H   0  0  0  0  0  0
  -25.1233  -36.1939   25.0836 H   0  0  0  0  0  0
  -21.0062  -28.3235   24.1414 H   0  0  0  0  0  0
  -20.5736  -26.2247   23.3612 H   0  0  0  0  0  0
  -21.6637  -26.7444   22.1200 H   0  0  0  0  0  0
  -19.6862  -25.6335   21.1227 H   0  0  0  0  0  0
  -19.6652  -27.3248   20.6796 H   0  0  0  0  0  0
  -17.4210  -26.6788   21.4023 H   0  0  0  0  0  0
  -18.0247  -26.0061   22.9018 H   0  0  0  0  0  0
  -19.7915  -30.7335   24.2268 H   0  0  0  0  0  0
  -17.4973  -31.6264   24.5180 H   0  0  0  0  0  0
  -15.5336  -30.2966   23.7646 H   0  0  0  0  0  0
  -15.8699  -28.0816   22.7055 H   0  0  0  0  0  0
  -24.5927  -30.7010   25.7780 H   0  0  0  0  0  0
  -24.8875  -32.2833   26.4892 H   0  0  0  0  0  0
  -25.8083  -30.8876   27.0231 H   0  0  0  0  0  0
  -26.2854  -29.6804   24.1162 H   0  0  0  0  0  0
  -27.4098  -29.7270   25.4550 H   0  0  0  0  0  0
  -27.8682  -30.4361   23.9239 H   0  0  0  0  0  0
  -27.2771  -33.3621   26.2024 H   0  0  0  0  0  0
  -28.3891  -32.6798   25.0272 H   0  0  0  0  0  0
  -28.0749  -31.8415   26.5382 H   0  0  0  0  0  0
  -28.2491  -38.0177   24.7751 H   0  0  0  0  0  0
  -28.1233  -36.2750   24.5921 H   0  0  0  0  0  0
  -27.2396  -37.0980   25.8844 H   0  0  0  0  0  0
  -20.9351  -29.8718   21.6900 H   0  0  0  0  0  0
  -26.0120  -38.2855   24.1626 H   0  0  0  0  0  0
  -27.8945  -19.5333   22.5792 H   0  0  0  0  0  0
  -28.1174  -17.1105   22.4443 H   0  0  0  0  0  0
  -31.2982  -17.5463   19.5711 H   0  0  0  0  0  0
  -30.6255  -26.1685   21.5501 H   0  0  0  0  0  0
  -31.2393  -26.4943   19.9229 H   0  0  0  0  0  0
  -32.2444  -25.6165   21.0889 H   0  0  0  0  0  0
  -27.2084  -24.7319   20.5300 H   0  0  0  0  0  0
  -28.0554  -24.7622   19.0055 H   0  0  0  0  0  0
  -29.2068  -24.2255   21.7910 H   0  0  0  0  0  0
  -29.5650  -21.1871   23.3872 H   0  0  0  0  0  0
  -29.2564  -22.8354   22.9633 H   0  0  0  0  0  0
  -28.9326  -15.2052   21.4111 H   0  0  0  0  0  0
  -29.0847  -22.2346   19.5252 H   0  0  0  0  0  0
  1 25  1  0  0  0
  1 30  2  0  0  0
  1 83  1  0  0  0
  2  3  1  0  0  0
  2 25  1  0  0  0
  2 87  1  0  0  0
  2 88  1  0  0  0
  3  4  1  0  0  0
  3 89  1  0  0  0
  3 90  1  0  0  0
  4  5  1  0  0  0
  4 91  1  0  0  0
  4 92  1  0  0  0
  5  6  1  0  0  0
  5 26  1  0  0  0
  5 93  1  0  0  0
  6 25  1  0  0  0
  6 94  1  0  0  0
  6 95  1  0  0  0
  7  8  2  0  0  0
  7 26  1  0  0  0
  7 29  1  0  0  0
  8  9  1  0  0  0
  8 22  1  0  0  0
  9 10  1  0  0  0
  9 27  2  0  0  0
 10 11  2  0  0  0
 10 15  1  0  0  0
 11 12  1  0  0  0
 11 96  1  0  0  0
 12 13  2  0  0  0
 12 97  1  0  0  0
 13 14  1  0  0  0
 13 31  1  0  0  0
 14 15  2  0  0  0
 14 98  1  0  0  0
 15 99  1  0  0  0
 16 17  2  0  0  0
 16 21  1  0  0  0
 16 31  1  0  0  0
 17 18  1  0  0  0
 17100  1  0  0  0
 18 19  2  0  0  0
 18101  1  0  0  0
 19 20  1  0  0  0
 19 24  1  0  0  0
 20 21  2  0  0  0
 20102  1  0  0  0
 21 23  1  0  0  0
 22 28  1  0  0  0
 22 32  2  0  0  0
 26 27  1  0  0  0
 28103  1  0  0  0
 28104  1  0  0  0
 29105  1  0  0  0
 29106  1  0  0  0
 33 34  1  0  0  0
 33 66  1  0  0  0
 33 70  2  0  0  0
 34 36  1  0  0  0
 34 59  1  0  0  0
 34107  1  0  0  0
 35 44  2  0  0  0
 35 45  1  0  0  0
 35 68  1  0  0  0
 36 56  1  0  0  0
 36108  1  0  0  0
 37 39  1  0  0  0
 37 47  1  0  0  0
 37 66  1  0  0  0
 37109  1  0  0  0
 38 43  2  0  0  0
 38 46  1  0  0  0
 38 47  1  0  0  0
 39 64  1  0  0  0
 39 67  2  0  0  0
 40 52  1  0  0  0
 40 53  2  0  0  0
 40 58  1  0  0  0
 41110  1  0  0  0
 41111  1  0  0  0
 41112  1  0  0  0
 41 48  1  0  0  0
 42 43  1  0  0  0
 42 66  1  0  0  0
 42113  1  0  0  0
 42114  1  0  0  0
 43 44  1  0  0  0
 44115  1  0  0  0
 45 46  2  0  0  0
 45116  1  0  0  0
 46117  1  0  0  0
 47118  1  0  0  0
 47119  1  0  0  0
 48 56  1  0  0  0
 48 65  1  0  0  0
 48120  1  0  0  0
 49 50  1  0  0  0
 49 53  1  0  0  0
 49 64  1  0  0  0
 49121  1  0  0  0
 50 51  1  0  0  0
 50122  1  0  0  0
 50123  1  0  0  0
 51 52  1  0  0  0
 51124  1  0  0  0
 51125  1  0  0  0
 52126  1  0  0  0
 52127  1  0  0  0
 53 54  1  0  0  0
 54 55  2  0  0  0
 54128  1  0  0  0
 55 57  1  0  0  0
 55129  1  0  0  0
 56 69  2  0  0  0
 57 58  2  0  0  0
 57130  1  0  0  0
 58131  1  0  0  0
 59 60  1  0  0  0
 59 61  1  0  0  0
 59 62  1  0  0  0
 60132  1  0  0  0
 60133  1  0  0  0
 60134  1  0  0  0
 61135  1  0  0  0
 61136  1  0  0  0
 61137  1  0  0  0
 62138  1  0  0  0
 62139  1  0  0  0
 62140  1  0  0  0
 63 65  1  0  0  0
 63141  1  0  0  0
 63142  1  0  0  0
 63143  1  0  0  0
 64144  1  0  0  0
 65145  1  0  0  0
 68 80  1  0  0  0
 71 72  2  0  0  0
 71 74  1  0  0  0
 71146  1  0  0  0
 72 75  1  0  0  0
 72147  1  0  0  0
 73 75  2  0  0  0
 73 76  1  0  0  0
 73148  1  0  0  0
 74 76  2  0  0  0
 74 77  1  0  0  0
 75 83  1  0  0  0
 76 86  1  0  0  0
 77 82  1  0  0  0
 77 84  2  0  0  0
 78 79  1  0  0  0
 78 81  1  0  0  0
 78 85  2  0  0  0
 79149  1  0  0  0
 79150  1  0  0  0
 79151  1  0  0  0
 80152  1  0  0  0
 80153  1  0  0  0
 80 81  1  0  0  0
 81 84  1  0  0  0
 81154  1  0  0  0
 82155  1  0  0  0
 82156  1  0  0  0
 83157  1  0  0  0
 84158  1  0  0  0
M  CHG  1  84   1
M  ISO  4   1 100  68 101  80 101  83 100
M  END
> <chiral flag>
0

> <version>
0

> <s_m_source_file>
/data/baiqing/PycharmProjects/Reinvent-master-3.2/result/LINK_invent/BTK/process_docking_weight1_custom_product_contain_oxygen_bond_distance_aromatic_linkinvent_7_9_3/rearranged_h_0068.sdf

> <i_m_source_file_index>
9

> <r_mmod_Potential_Energy-OPLS-2005>
-237.953842163086

> <r_mmod_Stretch_Energy-OPLS-2005>
84.0987777709961

> <r_mmod_Bend_Energy-OPLS-2005>
149.771926879883

> <r_mmod_Torsional_Energy-OPLS-2005>
214.788452148438

> <r_mmod_Improper_Torsional_Energy-OPLS-2005>
4.69685077667236

> <r_mmod_Van_der_Waal_Energy-OPLS-2005>
146.259429931641

> <r_mmod_Electrostatic_Energy-OPLS-2005>
-438.207366943359

> <r_mmod_Solvation_Energy-OPLS-2005>
-449.919464111328

> <b_mmod_Minimization_Converged-OPLS-2005>
0

> <r_mmod_RMS_Derivative-OPLS-2005>
3.32712078094482

$$$$
9
                    3D
 Structure written by MMmdl.
151159  0  0  1  0            999 V2000
  -30.5053  -14.9194   20.4256 C   0  0  0  0  0  0
  -30.4529  -12.5648   19.4879 C   0  0  0  0  0  0
  -29.5254  -12.5370   18.2483 C   0  0  0  0  0  0
  -28.0532  -12.3320   18.6586 C   0  0  0  0  0  0
  -27.6384  -13.2398   19.8453 C   0  0  2  0  0  0
  -28.6832  -13.2144   20.9824 C   0  0  0  0  0  0
  -25.2502  -13.8198   20.5670 C   0  0  0  0  0  0
  -24.1809  -13.0444   20.9223 C   0  0  0  0  0  0
  -24.6405  -11.6925   20.8750 C   0  0  0  0  0  0
  -23.9077  -10.4302   21.0413 C   0  0  0  0  0  0
  -24.3623   -9.4212   21.9188 C   0  0  0  0  0  0
  -23.6301   -8.2245   22.0747 C   0  0  0  0  0  0
  -22.4282   -8.0282   21.3540 C   0  0  0  0  0  0
  -21.9919   -9.0260   20.4642 C   0  0  0  0  0  0
  -22.7247  -10.2146   20.3059 C   0  0  0  0  0  0
  -21.6852   -6.0735   22.5278 C   0  0  0  0  0  0
  -21.4017   -6.5637   23.8212 C   0  0  0  0  0  0
  -21.3659   -5.6785   24.9169 C   0  0  0  0  0  0
  -21.6049   -4.3049   24.7220 C   0  0  0  0  0  0
  -21.8822   -3.8142   23.4338 C   0  0  0  0  0  0
  -21.9198   -4.6964   22.3396 C   0  0  0  0  0  0
  -22.7828  -13.5227   21.1871 C   0  0  0  0  0  0
  -22.1664   -4.2147   21.0976 F   0  0  0  0  0  0
  -21.5629   -3.4531   25.7732 F   0  0  0  0  0  0
  -29.9657  -13.6361   20.3991 N   0  0  0  0  0  0
  -26.2927  -12.9416   20.3239 N   0  0  0  0  0  0
  -25.9340  -11.6556   20.5732 N   0  0  0  0  0  0
  -22.0460  -12.8234   22.0428 N   0  0  0  0  0  0
  -25.4172  -15.1914   20.4007 N   0  0  0  0  0  0
  -31.6925  -15.0607   20.1107 O   0  0  0  0  0  0
  -21.6640   -6.8883   21.4240 O   0  0  0  0  0  0
  -22.3525  -14.5531   20.6702 O   0  0  0  0  0  0
  -24.6441  -31.8459   23.1910 C   0  0  0  0  0  0
  -25.9222  -32.4696   23.8294 C   0  0  1  0  0  0
  -27.2146  -27.1418   20.1392 C   0  0  0  0  0  0
  -25.5981  -33.8501   24.2215 N   0  0  0  0  0  0
  -23.4467  -30.4673   21.5375 C   0  0  2  0  0  0
  -24.8957  -28.9008   20.1072 C   0  0  0  0  0  0
  -22.7570  -29.4556   22.4868 C   0  0  0  0  0  0
  -18.0305  -28.1389   22.8485 C   0  0  0  0  0  0
  -24.1492  -36.7244   23.2643 C   0  0  0  0  0  0
  -26.0039  -30.7197   21.3918 C   0  0  0  0  0  0
  -26.0738  -29.3331   20.7297 C   0  0  0  0  0  0
  -27.2336  -28.4689   20.7321 C   0  0  0  0  0  0
  -26.0103  -26.8190   19.4718 C   0  0  0  0  0  0
  -24.8771  -27.6575   19.4626 C   0  0  0  0  0  0
  -23.6728  -29.8024   20.1549 C   0  0  0  0  0  0
  -25.4126  -36.3027   24.0317 C   0  0  1  0  0  0
  -20.5918  -28.3725   23.1233 C   0  0  2  0  0  0
  -20.6785  -26.9427   22.5402 C   0  0  0  0  0  0
  -19.5760  -26.6381   21.5213 C   0  0  0  0  0  0
  -18.1943  -26.7931   22.1624 C   0  0  0  0  0  0
  -19.1561  -28.8877   23.2852 C   0  0  0  0  0  0
  -18.9475  -30.1471   23.8876 C   0  0  0  0  0  0
  -17.6473  -30.6591   24.0556 C   0  0  0  0  0  0
  -25.9085  -34.9403   23.5074 C   0  0  0  0  0  0
  -16.5365  -29.9081   23.6330 C   0  0  0  0  0  0
  -16.7290  -28.6495   23.0361 C   0  0  0  0  0  0
  -26.4546  -31.6551   25.0727 C   0  0  0  0  0  0
  -25.3731  -31.3725   26.1421 C   0  0  0  0  0  0
  -27.0409  -30.2942   24.6312 C   0  0  0  0  0  0
  -27.6093  -32.4306   25.7500 C   0  0  0  0  0  0
  -27.5574  -37.1782   24.8471 C   0  0  0  0  0  0
  -21.4265  -29.3048   22.3601 N   0  0  0  0  0  0
  -26.4290  -37.3739   23.9411 N   0  0  0  0  0  0
  -24.7179  -31.0322   22.0946 N   0  0  0  0  0  0
  -23.4211  -28.8101   23.3017 O   0  0  0  0  0  0
  -28.2537  -26.1397   20.2102 O   0  0  0  0  0  0
  -26.5661  -34.8895   22.4641 O   0  0  0  0  0  0
  -23.5561  -32.1345   23.7131 O   0  0  0  0  0  0
  -28.2543  -18.1408   20.7944 C   0  0  0  0  0  0
  -30.4882  -18.5388   20.1755 C   0  0  0  0  0  0
  -27.9544  -19.5541   20.7095 C   0  0  0  0  0  0
  -29.5193  -17.5292   20.5283 C   0  0  0  0  0  0
  -28.9098  -20.5681   20.3492 C   0  0  0  0  0  0
  -30.2036  -19.9777   20.0864 C   0  0  0  0  0  0
  -28.8968  -23.3521   20.2894 C   0  0  0  0  0  0
  -26.5225  -19.9686   21.0132 C   0  0  0  0  0  0
  -27.9022  -24.6409   19.9721 C   0  0  0  0  0  0
  -28.4311  -22.0190   20.1690 N   0  0  0  0  0  0
  -29.6199  -16.0012   20.6528 N   0  0  0  0  0  0
  -30.0582  -23.5802   20.6355 O   0  0  0  0  0  0
  -31.2090  -20.7948   19.6898 F   0  0  0  0  0  0
  -31.4845  -12.7398   19.1786 H   0  0  0  0  0  0
  -30.4524  -11.5991   19.9960 H   0  0  0  0  0  0
  -29.8367  -11.7485   17.5619 H   0  0  0  0  0  0
  -29.6231  -13.4753   17.6994 H   0  0  0  0  0  0
  -27.9300  -11.2847   18.9359 H   0  0  0  0  0  0
  -27.3955  -12.5004   17.8048 H   0  0  0  0  0  0
  -27.6163  -14.2536   19.4442 H   0  0  0  0  0  0
  -28.7617  -12.2171   21.4187 H   0  0  0  0  0  0
  -28.3859  -13.8777   21.7961 H   0  0  0  0  0  0
  -25.2763   -9.5691   22.4768 H   0  0  0  0  0  0
  -24.0009   -7.4637   22.7469 H   0  0  0  0  0  0
  -21.0842   -8.8787   19.8952 H   0  0  0  0  0  0
  -22.3698  -10.9690   19.6172 H   0  0  0  0  0  0
  -21.2006   -7.6146   23.9716 H   0  0  0  0  0  0
  -21.1476   -6.0509   25.9076 H   0  0  0  0  0  0
  -22.0602   -2.7605   23.2828 H   0  0  0  0  0  0
  -22.4065  -11.9904   22.4842 H   0  0  0  0  0  0
  -21.1076  -13.1272   22.2612 H   0  0  0  0  0  0
  -24.6297  -15.8272   20.4680 H   0  0  0  0  0  0
  -26.2221  -15.6083   19.9530 H   0  0  0  0  0  0
  -26.7289  -32.5299   23.1025 H   0  0  0  0  0  0
  -25.0124  -33.9618   25.0359 H   0  0  0  0  0  0
  -22.7493  -31.2939   21.3860 H   0  0  0  0  0  0
  -23.3759  -35.9571   23.3302 H   0  0  0  0  0  0
  -24.3588  -36.8877   22.2062 H   0  0  0  0  0  0
  -23.7243  -37.6437   23.6678 H   0  0  0  0  0  0
  -26.1625  -31.4766   20.6227 H   0  0  0  0  0  0
  -26.8732  -30.7657   22.0362 H   0  0  0  0  0  0
  -28.1276  -28.7944   21.2454 H   0  0  0  0  0  0
  -25.8987  -25.8760   18.9611 H   0  0  0  0  0  0
  -23.9802  -27.3242   18.9596 H   0  0  0  0  0  0
  -23.8105  -30.5810   19.4036 H   0  0  0  0  0  0
  -22.7859  -29.2490   19.8417 H   0  0  0  0  0  0
  -25.1313  -36.1862   25.0810 H   0  0  0  0  0  0
  -21.0016  -28.3312   24.1348 H   0  0  0  0  0  0
  -20.5677  -26.2343   23.3627 H   0  0  0  0  0  0
  -21.6649  -26.7431   22.1201 H   0  0  0  0  0  0
  -19.6924  -25.6284   21.1256 H   0  0  0  0  0  0
  -19.6687  -27.3178   20.6728 H   0  0  0  0  0  0
  -17.4215  -26.6680   21.4030 H   0  0  0  0  0  0
  -18.0345  -26.0077   22.9026 H   0  0  0  0  0  0
  -19.7949  -30.7295   24.2235 H   0  0  0  0  0  0
  -17.5022  -31.6266   24.5166 H   0  0  0  0  0  0
  -15.5361  -30.2975   23.7661 H   0  0  0  0  0  0
  -15.8692  -28.0804   22.7085 H   0  0  0  0  0  0
  -24.5932  -30.7058   25.7728 H   0  0  0  0  0  0
  -24.8903  -32.2899   26.4797 H   0  0  0  0  0  0
  -25.8025  -30.8929   27.0229 H   0  0  0  0  0  0
  -26.3033  -29.6656   24.1319 H   0  0  0  0  0  0
  -27.4012  -29.7250   25.4891 H   0  0  0  0  0  0
  -27.8945  -30.4162   23.9642 H   0  0  0  0  0  0
  -27.2712  -33.3631   26.2032 H   0  0  0  0  0  0
  -28.3926  -32.6825   25.0336 H   0  0  0  0  0  0
  -28.0742  -31.8463   26.5453 H   0  0  0  0  0  0
  -28.2587  -38.0080   24.7506 H   0  0  0  0  0  0
  -28.1070  -36.2607   24.6308 H   0  0  0  0  0  0
  -27.2297  -37.1449   25.8876 H   0  0  0  0  0  0
  -20.9479  -29.8756   21.6776 H   0  0  0  0  0  0
  -26.0152  -38.2810   24.1392 H   0  0  0  0  0  0
  -27.4414  -17.4836   21.0721 H   0  0  0  0  0  0
  -31.4927  -18.2166   19.9439 H   0  0  0  0  0  0
  -25.9902  -19.1940   21.5663 H   0  0  0  0  0  0
  -25.9742  -20.1537   20.0891 H   0  0  0  0  0  0
  -26.4884  -20.8713   21.6237 H   0  0  0  0  0  0
  -26.9779  -24.4350   20.5130 H   0  0  0  0  0  0
  -27.6605  -24.5451   18.9130 H   0  0  0  0  0  0
  -27.4463  -22.0445   19.9480 H   0  0  0  0  0  0
  -28.7347  -15.6069   20.9293 H   0  0  0  0  0  0
  1 25  1  0  0  0
  1 30  2  0  0  0
  1 81  1  0  0  0
  2  3  1  0  0  0
  2 25  1  0  0  0
  2 84  1  0  0  0
  2 85  1  0  0  0
  3  4  1  0  0  0
  3 86  1  0  0  0
  3 87  1  0  0  0
  4  5  1  0  0  0
  4 88  1  0  0  0
  4 89  1  0  0  0
  5  6  1  0  0  0
  5 26  1  0  0  0
  5 90  1  0  0  0
  6 25  1  0  0  0
  6 91  1  0  0  0
  6 92  1  0  0  0
  7  8  2  0  0  0
  7 26  1  0  0  0
  7 29  1  0  0  0
  8  9  1  0  0  0
  8 22  1  0  0  0
  9 10  1  0  0  0
  9 27  2  0  0  0
 10 11  2  0  0  0
 10 15  1  0  0  0
 11 12  1  0  0  0
 11 93  1  0  0  0
 12 13  2  0  0  0
 12 94  1  0  0  0
 13 14  1  0  0  0
 13 31  1  0  0  0
 14 15  2  0  0  0
 14 95  1  0  0  0
 15 96  1  0  0  0
 16 17  2  0  0  0
 16 21  1  0  0  0
 16 31  1  0  0  0
 17 18  1  0  0  0
 17 97  1  0  0  0
 18 19  2  0  0  0
 18 98  1  0  0  0
 19 20  1  0  0  0
 19 24  1  0  0  0
 20 21  2  0  0  0
 20 99  1  0  0  0
 21 23  1  0  0  0
 22 28  1  0  0  0
 22 32  2  0  0  0
 26 27  1  0  0  0
 28100  1  0  0  0
 28101  1  0  0  0
 29102  1  0  0  0
 29103  1  0  0  0
 33 34  1  0  0  0
 33 66  1  0  0  0
 33 70  2  0  0  0
 34 36  1  0  0  0
 34 59  1  0  0  0
 34104  1  0  0  0
 35 44  2  0  0  0
 35 45  1  0  0  0
 35 68  1  0  0  0
 36 56  1  0  0  0
 36105  1  0  0  0
 37 39  1  0  0  0
 37 47  1  0  0  0
 37 66  1  0  0  0
 37106  1  0  0  0
 38 43  2  0  0  0
 38 46  1  0  0  0
 38 47  1  0  0  0
 39 64  1  0  0  0
 39 67  2  0  0  0
 40 52  1  0  0  0
 40 53  2  0  0  0
 40 58  1  0  0  0
 41107  1  0  0  0
 41108  1  0  0  0
 41109  1  0  0  0
 41 48  1  0  0  0
 42 43  1  0  0  0
 42 66  1  0  0  0
 42110  1  0  0  0
 42111  1  0  0  0
 43 44  1  0  0  0
 44112  1  0  0  0
 45 46  2  0  0  0
 45113  1  0  0  0
 46114  1  0  0  0
 47115  1  0  0  0
 47116  1  0  0  0
 48 56  1  0  0  0
 48 65  1  0  0  0
 48117  1  0  0  0
 49 50  1  0  0  0
 49 53  1  0  0  0
 49 64  1  0  0  0
 49118  1  0  0  0
 50 51  1  0  0  0
 50119  1  0  0  0
 50120  1  0  0  0
 51 52  1  0  0  0
 51121  1  0  0  0
 51122  1  0  0  0
 52123  1  0  0  0
 52124  1  0  0  0
 53 54  1  0  0  0
 54 55  2  0  0  0
 54125  1  0  0  0
 55 57  1  0  0  0
 55126  1  0  0  0
 56 69  2  0  0  0
 57 58  2  0  0  0
 57127  1  0  0  0
 58128  1  0  0  0
 59 60  1  0  0  0
 59 61  1  0  0  0
 59 62  1  0  0  0
 60129  1  0  0  0
 60130  1  0  0  0
 60131  1  0  0  0
 61132  1  0  0  0
 61133  1  0  0  0
 61134  1  0  0  0
 62135  1  0  0  0
 62136  1  0  0  0
 62137  1  0  0  0
 63 65  1  0  0  0
 63138  1  0  0  0
 63139  1  0  0  0
 63140  1  0  0  0
 64141  1  0  0  0
 65142  1  0  0  0
 68 79  1  0  0  0
 71 73  2  0  0  0
 71 74  1  0  0  0
 71143  1  0  0  0
 72 74  2  0  0  0
 72 76  1  0  0  0
 72144  1  0  0  0
 73 75  1  0  0  0
 73 78  1  0  0  0
 74 81  1  0  0  0
 75 76  2  0  0  0
 75 80  1  0  0  0
 76 83  1  0  0  0
 77 79  1  0  0  0
 77 80  1  0  0  0
 77 82  2  0  0  0
 78145  1  0  0  0
 78146  1  0  0  0
 78147  1  0  0  0
 79148  1  0  0  0
 79149  1  0  0  0
 80150  1  0  0  0
 81151  1  0  0  0
M  ISO  4   1 100  68 101  79 101  81 100
M  END
> <chiral flag>
0

> <version>
0

> <s_m_source_file>
/data/baiqing/PycharmProjects/Reinvent-master-3.2/result/LINK_invent/BTK/process_docking_weight1_custom_product_contain_oxygen_bond_distance_aromatic_linkinvent_7_9_3/rearranged_h_0068.sdf

> <i_m_source_file_index>
10

> <r_mmod_Potential_Energy-OPLS-2005>
419.297973632812

> <r_mmod_Stretch_Energy-OPLS-2005>
223.473770141602

> <r_mmod_Bend_Energy-OPLS-2005>
276.323150634766

> <r_mmod_Torsional_Energy-OPLS-2005>
225.631729125977

> <r_mmod_Improper_Torsional_Energy-OPLS-2005>
5.06430673599243

> <r_mmod_Van_der_Waal_Energy-OPLS-2005>
130.953872680664

> <r_mmod_Electrostatic_Energy-OPLS-2005>
-369.014434814453

> <r_mmod_Solvation_Energy-OPLS-2005>
-256.066741943359

> <b_mmod_Minimization_Converged-OPLS-2005>
0

> <r_mmod_RMS_Derivative-OPLS-2005>
1.41579270362854

$$$$
10
                    3D
 Structure written by MMmdl.
153162  0  0  1  0            999 V2000
  -30.5758  -14.7985   20.5261 C   0  0  0  0  0  0
  -30.4547  -12.5053   19.4811 C   0  0  0  0  0  0
  -29.5195  -12.5518   18.2489 C   0  0  0  0  0  0
  -28.0452  -12.3613   18.6585 C   0  0  0  0  0  0
  -27.6532  -13.2366   19.8789 C   0  0  2  0  0  0
  -28.7047  -13.1195   21.0084 C   0  0  0  0  0  0
  -25.2413  -13.8141   20.5543 C   0  0  0  0  0  0
  -24.1755  -13.0385   20.9146 C   0  0  0  0  0  0
  -24.6409  -11.6890   20.8773 C   0  0  0  0  0  0
  -23.9088  -10.4269   21.0421 C   0  0  0  0  0  0
  -24.3627   -9.4180   21.9198 C   0  0  0  0  0  0
  -23.6293   -8.2219   22.0754 C   0  0  0  0  0  0
  -22.4278   -8.0271   21.3541 C   0  0  0  0  0  0
  -21.9921   -9.0248   20.4644 C   0  0  0  0  0  0
  -22.7260  -10.2122   20.3061 C   0  0  0  0  0  0
  -21.6843   -6.0741   22.5284 C   0  0  0  0  0  0
  -21.4013   -6.5646   23.8219 C   0  0  0  0  0  0
  -21.3656   -5.6796   24.9181 C   0  0  0  0  0  0
  -21.6040   -4.3058   24.7228 C   0  0  0  0  0  0
  -21.8820   -3.8157   23.4349 C   0  0  0  0  0  0
  -21.9190   -4.6972   22.3407 C   0  0  0  0  0  0
  -22.7776  -13.5168   21.1825 C   0  0  0  0  0  0
  -22.1658   -4.2166   21.0982 F   0  0  0  0  0  0
  -21.5628   -3.4532   25.7736 F   0  0  0  0  0  0
  -30.0056  -13.5349   20.4554 N   0  0  0  0  0  0
  -26.2985  -12.9420   20.3431 N   0  0  0  0  0  0
  -25.9374  -11.6550   20.5881 N   0  0  0  0  0  0
  -22.0437  -12.8180   22.0415 N   0  0  0  0  0  0
  -25.3862  -15.1823   20.3649 N   0  0  0  0  0  0
  -31.6781  -14.9933   20.0040 O   0  0  0  0  0  0
  -21.6627   -6.8878   21.4244 O   0  0  0  0  0  0
  -22.3448  -14.5475   20.6689 O   0  0  0  0  0  0
  -24.6357  -31.8509   23.1957 C   0  0  0  0  0  0
  -25.9163  -32.4734   23.8319 C   0  0  1  0  0  0
  -27.2289  -27.2248   20.1404 C   0  0  0  0  0  0
  -25.5945  -33.8538   24.2237 N   0  0  0  0  0  0
  -23.4367  -30.4716   21.5382 C   0  0  2  0  0  0
  -24.8895  -28.9141   20.1094 C   0  0  0  0  0  0
  -22.7533  -29.4575   22.4884 C   0  0  0  0  0  0
  -18.0298  -28.1395   22.8477 C   0  0  0  0  0  0
  -24.1491  -36.7271   23.2641 C   0  0  0  0  0  0
  -25.9860  -30.7518   21.3842 C   0  0  0  0  0  0
  -26.0615  -29.3702   20.7281 C   0  0  0  0  0  0
  -27.2338  -28.5379   20.7348 C   0  0  0  0  0  0
  -26.0384  -26.8564   19.4738 C   0  0  0  0  0  0
  -24.8853  -27.6662   19.4694 C   0  0  0  0  0  0
  -23.6602  -29.8037   20.1555 C   0  0  0  0  0  0
  -25.4120  -36.3052   24.0321 C   0  0  1  0  0  0
  -20.5907  -28.3709   23.1249 C   0  0  2  0  0  0
  -20.6781  -26.9417   22.5406 C   0  0  0  0  0  0
  -19.5759  -26.6380   21.5208 C   0  0  0  0  0  0
  -18.1938  -26.7938   22.1614 C   0  0  0  0  0  0
  -19.1556  -28.8869   23.2856 C   0  0  0  0  0  0
  -18.9475  -30.1468   23.8878 C   0  0  0  0  0  0
  -17.6473  -30.6589   24.0561 C   0  0  0  0  0  0
  -25.9062  -34.9427   23.5080 C   0  0  0  0  0  0
  -16.5362  -29.9083   23.6336 C   0  0  0  0  0  0
  -16.7286  -28.6504   23.0353 C   0  0  0  0  0  0
  -26.4519  -31.6579   25.0728 C   0  0  0  0  0  0
  -25.3733  -31.3744   26.1442 C   0  0  0  0  0  0
  -27.0380  -30.2988   24.6256 C   0  0  0  0  0  0
  -27.6064  -32.4337   25.7500 C   0  0  0  0  0  0
  -27.5577  -37.1788   24.8466 C   0  0  0  0  0  0
  -21.4233  -29.3047   22.3632 N   0  0  0  0  0  0
  -26.4290  -37.3757   23.9410 N   0  0  0  0  0  0
  -24.7050  -31.0439   22.0952 N   0  0  0  0  0  0
  -23.4209  -28.8115   23.3003 O   0  0  0  0  0  0
  -28.2872  -26.2699   20.1894 O   0  0  0  0  0  0
  -26.5633  -34.8909   22.4648 O   0  0  0  0  0  0
  -23.5494  -32.1345   23.7224 O   0  0  0  0  0  0
  -27.5254  -19.4181   21.2030 C   0  0  0  0  0  0
  -27.0909  -18.1403   21.5730 C   0  0  0  0  0  0
  -29.7264  -18.4852   20.6848 C   0  0  0  0  0  0
  -28.8480  -19.6813   20.7742 C   0  0  0  0  0  0
  -29.2743  -17.1252   21.0522 C   0  0  0  0  0  0
  -27.9530  -17.0404   21.5303 C   0  0  0  0  0  0
  -28.6509  -23.6775   20.3897 C   0  0  0  0  0  0
  -30.2167  -21.7765   20.0481 C   0  0  0  0  0  0
  -27.9635  -24.8966   20.4835 C   0  0  0  0  0  0
  -30.0533  -23.3263   19.9308 C   0  0  0  0  0  0
  -28.0949  -22.2638   20.7576 C   0  0  0  0  0  0
  -29.1078  -21.1548   20.5179 N   0  0  0  0  0  0
  -29.9248  -15.7844   21.2571 N   0  0  0  0  0  0
  -31.2680  -21.2114   19.7319 O   0  0  0  0  0  0
  -27.5063  -15.8589   22.0151 F   0  0  0  0  0  0
  -31.4889  -12.6639   19.1713 H   0  0  0  0  0  0
  -30.4382  -11.5156   19.9403 H   0  0  0  0  0  0
  -29.8099  -11.7887   17.5254 H   0  0  0  0  0  0
  -29.6347  -13.5119   17.7429 H   0  0  0  0  0  0
  -27.9013  -11.3079   18.9009 H   0  0  0  0  0  0
  -27.3864  -12.5698   17.8148 H   0  0  0  0  0  0
  -27.6580  -14.2711   19.5343 H   0  0  0  0  0  0
  -28.7581  -12.0918   21.3707 H   0  0  0  0  0  0
  -28.4271  -13.7095   21.8795 H   0  0  0  0  0  0
  -25.2764   -9.5651   22.4787 H   0  0  0  0  0  0
  -23.9988   -7.4607   22.7478 H   0  0  0  0  0  0
  -21.0844   -8.8772   19.8962 H   0  0  0  0  0  0
  -22.3714  -10.9660   19.6172 H   0  0  0  0  0  0
  -21.2009   -7.6157   23.9725 H   0  0  0  0  0  0
  -21.1469   -6.0529   25.9081 H   0  0  0  0  0  0
  -22.0602   -2.7623   23.2843 H   0  0  0  0  0  0
  -22.4041  -11.9841   22.4810 H   0  0  0  0  0  0
  -21.1066  -13.1231   22.2638 H   0  0  0  0  0  0
  -24.6258  -15.8328   20.5217 H   0  0  0  0  0  0
  -26.2818  -15.6335   20.2382 H   0  0  0  0  0  0
  -26.7233  -32.5375   23.1062 H   0  0  0  0  0  0
  -25.0109  -33.9676   25.0394 H   0  0  0  0  0  0
  -22.7353  -31.2949   21.3880 H   0  0  0  0  0  0
  -23.3754  -35.9601   23.3296 H   0  0  0  0  0  0
  -24.3580  -36.8904   22.2056 H   0  0  0  0  0  0
  -23.7245  -37.6468   23.6676 H   0  0  0  0  0  0
  -26.1320  -31.5103   20.6136 H   0  0  0  0  0  0
  -26.8601  -30.8018   22.0216 H   0  0  0  0  0  0
  -28.1280  -28.8783   21.2378 H   0  0  0  0  0  0
  -25.9825  -25.9000   18.9731 H   0  0  0  0  0  0
  -23.9924  -27.3138   18.9715 H   0  0  0  0  0  0
  -23.7877  -30.5793   19.3995 H   0  0  0  0  0  0
  -22.7785  -29.2382   19.8482 H   0  0  0  0  0  0
  -25.1304  -36.1889   25.0812 H   0  0  0  0  0  0
  -21.0004  -28.3294   24.1368 H   0  0  0  0  0  0
  -20.5665  -26.2323   23.3621 H   0  0  0  0  0  0
  -21.6648  -26.7421   22.1211 H   0  0  0  0  0  0
  -19.6916  -25.6285   21.1251 H   0  0  0  0  0  0
  -19.6704  -27.3176   20.6727 H   0  0  0  0  0  0
  -17.4211  -26.6695   21.4010 H   0  0  0  0  0  0
  -18.0328  -26.0078   22.9006 H   0  0  0  0  0  0
  -19.7951  -30.7292   24.2235 H   0  0  0  0  0  0
  -17.5025  -31.6269   24.5168 H   0  0  0  0  0  0
  -15.5362  -30.2979   23.7676 H   0  0  0  0  0  0
  -15.8686  -28.0820   22.7075 H   0  0  0  0  0  0
  -24.5950  -30.7034   25.7787 H   0  0  0  0  0  0
  -24.8877  -32.2912   26.4794 H   0  0  0  0  0  0
  -25.8056  -30.9000   27.0261 H   0  0  0  0  0  0
  -26.2980  -29.6720   24.1266 H   0  0  0  0  0  0
  -27.4024  -29.7273   25.4801 H   0  0  0  0  0  0
  -27.8871  -30.4246   23.9536 H   0  0  0  0  0  0
  -27.2662  -33.3645   26.2050 H   0  0  0  0  0  0
  -28.3883  -32.6886   25.0334 H   0  0  0  0  0  0
  -28.0723  -31.8486   26.5438 H   0  0  0  0  0  0
  -28.2592  -38.0086   24.7506 H   0  0  0  0  0  0
  -28.1074  -36.2617   24.6295 H   0  0  0  0  0  0
  -27.2298  -37.1439   25.8870 H   0  0  0  0  0  0
  -20.9429  -29.8777   21.6834 H   0  0  0  0  0  0
  -26.0159  -38.2824   24.1420 H   0  0  0  0  0  0
  -26.7922  -20.2043   21.2968 H   0  0  0  0  0  0
  -26.0817  -18.0044   21.9337 H   0  0  0  0  0  0
  -30.7556  -18.6194   20.3852 H   0  0  0  0  0  0
  -26.9556  -24.8431   20.8735 H   0  0  0  0  0  0
  -30.7897  -23.8266   20.5599 H   0  0  0  0  0  0
  -30.2060  -23.6439   18.8999 H   0  0  0  0  0  0
  -27.2013  -22.0858   20.1581 H   0  0  0  0  0  0
  -27.7976  -22.2691   21.8072 H   0  0  0  0  0  0
  -29.2956  -15.2706   21.8601 H   0  0  0  0  0  0
  1 25  1  0  0  0
  1 30  2  0  0  0
  1 83  1  0  0  0
  2  3  1  0  0  0
  2 25  1  0  0  0
  2 86  1  0  0  0
  2 87  1  0  0  0
  3  4  1  0  0  0
  3 88  1  0  0  0
  3 89  1  0  0  0
  4  5  1  0  0  0
  4 90  1  0  0  0
  4 91  1  0  0  0
  5  6  1  0  0  0
  5 26  1  0  0  0
  5 92  1  0  0  0
  6 25  1  0  0  0
  6 93  1  0  0  0
  6 94  1  0  0  0
  7  8  2  0  0  0
  7 26  1  0  0  0
  7 29  1  0  0  0
  8  9  1  0  0  0
  8 22  1  0  0  0
  9 10  1  0  0  0
  9 27  2  0  0  0
 10 11  2  0  0  0
 10 15  1  0  0  0
 11 12  1  0  0  0
 11 95  1  0  0  0
 12 13  2  0  0  0
 12 96  1  0  0  0
 13 14  1  0  0  0
 13 31  1  0  0  0
 14 15  2  0  0  0
 14 97  1  0  0  0
 15 98  1  0  0  0
 16 17  2  0  0  0
 16 21  1  0  0  0
 16 31  1  0  0  0
 17 18  1  0  0  0
 17 99  1  0  0  0
 18 19  2  0  0  0
 18100  1  0  0  0
 19 20  1  0  0  0
 19 24  1  0  0  0
 20 21  2  0  0  0
 20101  1  0  0  0
 21 23  1  0  0  0
 22 28  1  0  0  0
 22 32  2  0  0  0
 26 27  1  0  0  0
 28102  1  0  0  0
 28103  1  0  0  0
 29104  1  0  0  0
 29105  1  0  0  0
 33 34  1  0  0  0
 33 66  1  0  0  0
 33 70  2  0  0  0
 34 36  1  0  0  0
 34 59  1  0  0  0
 34106  1  0  0  0
 35 44  2  0  0  0
 35 45  1  0  0  0
 35 68  1  0  0  0
 36 56  1  0  0  0
 36107  1  0  0  0
 37 39  1  0  0  0
 37 47  1  0  0  0
 37 66  1  0  0  0
 37108  1  0  0  0
 38 43  2  0  0  0
 38 46  1  0  0  0
 38 47  1  0  0  0
 39 64  1  0  0  0
 39 67  2  0  0  0
 40 52  1  0  0  0
 40 53  2  0  0  0
 40 58  1  0  0  0
 41109  1  0  0  0
 41110  1  0  0  0
 41111  1  0  0  0
 41 48  1  0  0  0
 42 43  1  0  0  0
 42 66  1  0  0  0
 42112  1  0  0  0
 42113  1  0  0  0
 43 44  1  0  0  0
 44114  1  0  0  0
 45 46  2  0  0  0
 45115  1  0  0  0
 46116  1  0  0  0
 47117  1  0  0  0
 47118  1  0  0  0
 48 56  1  0  0  0
 48 65  1  0  0  0
 48119  1  0  0  0
 49 50  1  0  0  0
 49 53  1  0  0  0
 49 64  1  0  0  0
 49120  1  0  0  0
 50 51  1  0  0  0
 50121  1  0  0  0
 50122  1  0  0  0
 51 52  1  0  0  0
 51123  1  0  0  0
 51124  1  0  0  0
 52125  1  0  0  0
 52126  1  0  0  0
 53 54  1  0  0  0
 54 55  2  0  0  0
 54127  1  0  0  0
 55 57  1  0  0  0
 55128  1  0  0  0
 56 69  2  0  0  0
 57 58  2  0  0  0
 57129  1  0  0  0
 58130  1  0  0  0
 59 60  1  0  0  0
 59 61  1  0  0  0
 59 62  1  0  0  0
 60131  1  0  0  0
 60132  1  0  0  0
 60133  1  0  0  0
 61134  1  0  0  0
 61135  1  0  0  0
 61136  1  0  0  0
 62137  1  0  0  0
 62138  1  0  0  0
 62139  1  0  0  0
 63 65  1  0  0  0
 63140  1  0  0  0
 63141  1  0  0  0
 63142  1  0  0  0
 64143  1  0  0  0
 65144  1  0  0  0
 68 79  1  0  0  0
 71 72  2  0  0  0
 71 74  1  0  0  0
 71145  1  0  0  0
 72 76  1  0  0  0
 72146  1  0  0  0
 73 74  2  0  0  0
 73 75  1  0  0  0
 73147  1  0  0  0
 74 82  1  0  0  0
 75 76  2  0  0  0
 75 83  1  0  0  0
 76 85  1  0  0  0
 77 79  2  0  0  0
 77 80  1  0  0  0
 77 81  1  0  0  0
 78 80  1  0  0  0
 78 82  1  0  0  0
 78 84  2  0  0  0
 79148  1  0  0  0
 80149  1  0  0  0
 80150  1  0  0  0
 81 82  1  0  0  0
 81151  1  0  0  0
 81152  1  0  0  0
 83153  1  0  0  0
M  ISO  4   1 100  68 101  79 101  83 100
M  END
> <chiral flag>
0

> <version>
0

> <s_m_source_file>
/data/baiqing/PycharmProjects/Reinvent-master-3.2/result/LINK_invent/BTK/process_docking_weight1_custom_product_contain_oxygen_bond_distance_aromatic_linkinvent_7_9_3/rearranged_h_0068.sdf

> <i_m_source_file_index>
11

> <r_mmod_Potential_Energy-OPLS-2005>
355.007904052734

> <r_mmod_Stretch_Energy-OPLS-2005>
154.575561523438

> <r_mmod_Bend_Energy-OPLS-2005>
287.794647216797

> <r_mmod_Torsional_Energy-OPLS-2005>
267.631988525391

> <r_mmod_Improper_Torsional_Energy-OPLS-2005>
8.19036293029785

> <r_mmod_Van_der_Waal_Energy-OPLS-2005>
138.734497070312

> <r_mmod_Electrostatic_Energy-OPLS-2005>
-396.697387695312

> <r_mmod_Solvation_Energy-OPLS-2005>
-218.321487426758

> <b_mmod_Minimization_Converged-OPLS-2005>
0

> <r_mmod_RMS_Derivative-OPLS-2005>
0.803017735481262

$$$$
11
                    3D
 Structure written by MMmdl.
158166  0  0  1  0            999 V2000
  -30.5697  -14.7424   20.5284 C   0  0  0  0  0  0
  -30.4487  -12.4713   19.4638 C   0  0  0  0  0  0
  -29.5124  -12.5125   18.2337 C   0  0  0  0  0  0
  -28.0381  -12.3223   18.6491 C   0  0  0  0  0  0
  -27.6418  -13.2150   19.8530 C   0  0  2  0  0  0
  -28.6833  -13.1226   20.9877 C   0  0  0  0  0  0
  -25.2505  -13.8175   20.5666 C   0  0  0  0  0  0
  -24.1797  -13.0427   20.9193 C   0  0  0  0  0  0
  -24.6354  -11.6893   20.8740 C   0  0  0  0  0  0
  -23.9015  -10.4281   21.0409 C   0  0  0  0  0  0
  -24.3588   -9.4200   21.9193 C   0  0  0  0  0  0
  -23.6276   -8.2233   22.0762 C   0  0  0  0  0  0
  -22.4262   -8.0268   21.3539 C   0  0  0  0  0  0
  -21.9886   -9.0231   20.4639 C   0  0  0  0  0  0
  -22.7194  -10.2118   20.3046 C   0  0  0  0  0  0
  -21.6840   -6.0724   22.5273 C   0  0  0  0  0  0
  -21.4005   -6.5630   23.8205 C   0  0  0  0  0  0
  -21.3670   -5.6773   24.9174 C   0  0  0  0  0  0
  -21.6037   -4.3037   24.7212 C   0  0  0  0  0  0
  -21.8834   -3.8129   23.4325 C   0  0  0  0  0  0
  -21.9201   -4.6947   22.3390 C   0  0  0  0  0  0
  -22.7822  -13.5226   21.1855 C   0  0  0  0  0  0
  -22.1667   -4.2143   21.0966 F   0  0  0  0  0  0
  -21.5646   -3.4517   25.7721 F   0  0  0  0  0  0
  -29.9808  -13.5037   20.4147 N   0  0  0  0  0  0
  -26.2914  -12.9340   20.3261 N   0  0  0  0  0  0
  -25.9276  -11.6496   20.5743 N   0  0  0  0  0  0
  -22.0454  -12.8223   22.0409 N   0  0  0  0  0  0
  -25.4138  -15.1905   20.4086 N   0  0  0  0  0  0
  -31.7619  -14.8912   20.2405 O   0  0  0  0  0  0
  -21.6640   -6.8858   21.4233 O   0  0  0  0  0  0
  -22.3502  -14.5522   20.6670 O   0  0  0  0  0  0
  -24.6333  -31.8541   23.1934 C   0  0  0  0  0  0
  -25.9150  -32.4715   23.8295 C   0  0  1  0  0  0
  -27.2172  -27.2474   20.1326 C   0  0  0  0  0  0
  -25.5967  -33.8527   24.2192 N   0  0  0  0  0  0
  -23.4291  -30.4765   21.5355 C   0  0  2  0  0  0
  -24.8744  -28.9237   20.1025 C   0  0  0  0  0  0
  -22.7547  -29.4582   22.4864 C   0  0  0  0  0  0
  -18.0304  -28.1405   22.8492 C   0  0  0  0  0  0
  -24.1491  -36.7242   23.2631 C   0  0  0  0  0  0
  -25.9750  -30.7645   21.3704 C   0  0  0  0  0  0
  -26.0486  -29.3850   20.7149 C   0  0  0  0  0  0
  -27.2217  -28.5628   20.7174 C   0  0  0  0  0  0
  -26.0231  -26.8643   19.4783 C   0  0  0  0  0  0
  -24.8701  -27.6723   19.4732 C   0  0  0  0  0  0
  -23.6459  -29.8117   20.1522 C   0  0  0  0  0  0
  -25.4119  -36.3007   24.0318 C   0  0  1  0  0  0
  -20.5945  -28.3675   23.1249 C   0  0  2  0  0  0
  -20.6792  -26.9397   22.5405 C   0  0  0  0  0  0
  -19.5753  -26.6381   21.5220 C   0  0  0  0  0  0
  -18.1923  -26.7938   22.1615 C   0  0  0  0  0  0
  -19.1568  -28.8862   23.2856 C   0  0  0  0  0  0
  -18.9505  -30.1468   23.8845 C   0  0  0  0  0  0
  -17.6503  -30.6596   24.0573 C   0  0  0  0  0  0
  -25.9081  -34.9410   23.5046 C   0  0  0  0  0  0
  -16.5385  -29.9109   23.6358 C   0  0  0  0  0  0
  -16.7294  -28.6550   23.0359 C   0  0  0  0  0  0
  -26.4511  -31.6582   25.0711 C   0  0  0  0  0  0
  -25.3738  -31.3830   26.1437 C   0  0  0  0  0  0
  -27.0318  -30.2982   24.6199 C   0  0  0  0  0  0
  -27.6007  -32.4356   25.7523 C   0  0  0  0  0  0
  -27.5558  -37.1770   24.8472 C   0  0  0  0  0  0
  -21.4242  -29.3040   22.3644 N   0  0  0  0  0  0
  -26.4246  -37.3754   23.9440 N   0  0  0  0  0  0
  -24.6984  -31.0506   22.0890 N   0  0  0  0  0  0
  -23.4268  -28.8124   23.2929 O   0  0  0  0  0  0
  -28.3026  -26.3370   20.1748 O   0  0  0  0  0  0
  -26.5636  -34.8888   22.4601 O   0  0  0  0  0  0
  -23.5482  -32.1364   23.7231 O   0  0  0  0  0  0
  -30.0272  -17.2939   22.6240 C   0  0  0  0  0  0
  -29.7986  -19.7408   22.5567 C   0  0  0  0  0  0
  -29.6355  -18.4304   20.5089 C   0  0  0  0  0  0
  -29.9806  -18.5406   23.2928 C   0  0  0  0  0  0
  -29.8594  -17.1834   21.2251 C   0  0  0  0  0  0
  -29.6187  -19.7446   21.1455 C   0  0  0  0  0  0
  -30.1741  -18.5684   24.7874 C   0  0  0  0  0  0
  -28.8907  -22.2307   20.8699 C   0  0  0  0  0  0
  -30.2450  -21.1415   19.1449 C   0  0  0  0  0  0
  -29.0968  -23.6854   20.2015 C   0  0  0  0  0  0
  -28.0298  -24.8783   20.4870 C   0  0  0  0  0  0
  -29.4638  -19.4450   25.4874 N   0  0  0  0  0  0
  -29.7061  -15.8196   20.6682 N   0  0  0  0  0  0
  -29.5271  -21.0600   20.4241 N   0  0  0  0  0  0
  -30.9226  -17.7684   25.3477 O   0  0  0  0  0  0
  -28.1163  -22.1845   21.8312 O   0  0  0  0  0  0
  -31.4792  -12.6509   19.1518 H   0  0  0  0  0  0
  -30.4415  -11.4861   19.9324 H   0  0  0  0  0  0
  -29.8029  -11.7462   17.5133 H   0  0  0  0  0  0
  -29.6224  -13.4712   17.7227 H   0  0  0  0  0  0
  -27.8987  -11.2732   18.9103 H   0  0  0  0  0  0
  -27.3780  -12.5150   17.8034 H   0  0  0  0  0  0
  -27.6402  -14.2389   19.4792 H   0  0  0  0  0  0
  -28.7282  -12.1112   21.3950 H   0  0  0  0  0  0
  -28.4067  -13.7722   21.8200 H   0  0  0  0  0  0
  -25.2740   -9.5702   22.4739 H   0  0  0  0  0  0
  -24.0004   -7.4628   22.7476 H   0  0  0  0  0  0
  -21.0820   -8.8707   19.8935 H   0  0  0  0  0  0
  -22.3642  -10.9638   19.6134 H   0  0  0  0  0  0
  -21.1976   -7.6134   23.9695 H   0  0  0  0  0  0
  -21.1489   -6.0511   25.9074 H   0  0  0  0  0  0
  -22.0604   -2.7594   23.2814 H   0  0  0  0  0  0
  -22.4064  -11.9886   22.4789 H   0  0  0  0  0  0
  -21.1063  -13.1257   22.2608 H   0  0  0  0  0  0
  -24.6265  -15.8239   20.4972 H   0  0  0  0  0  0
  -26.2490  -15.6448   20.0625 H   0  0  0  0  0  0
  -26.7222  -32.5339   23.1045 H   0  0  0  0  0  0
  -25.0221  -33.9700   25.0398 H   0  0  0  0  0  0
  -22.7246  -31.2996   21.3916 H   0  0  0  0  0  0
  -23.3737  -35.9587   23.3297 H   0  0  0  0  0  0
  -24.3611  -36.8857   22.2051 H   0  0  0  0  0  0
  -23.7244  -37.6432   23.6676 H   0  0  0  0  0  0
  -26.1131  -31.5192   20.5930 H   0  0  0  0  0  0
  -26.8544  -30.8175   22.0009 H   0  0  0  0  0  0
  -28.1145  -28.9141   21.2152 H   0  0  0  0  0  0
  -25.9529  -25.9186   18.9628 H   0  0  0  0  0  0
  -23.9773  -27.3158   18.9748 H   0  0  0  0  0  0
  -23.7669  -30.5883   19.3971 H   0  0  0  0  0  0
  -22.7603  -29.2479   19.8491 H   0  0  0  0  0  0
  -25.1316  -36.1792   25.0814 H   0  0  0  0  0  0
  -21.0071  -28.3206   24.1344 H   0  0  0  0  0  0
  -20.5644  -26.2313   23.3637 H   0  0  0  0  0  0
  -21.6644  -26.7394   22.1182 H   0  0  0  0  0  0
  -19.6922  -25.6294   21.1219 H   0  0  0  0  0  0
  -19.6647  -27.3191   20.6757 H   0  0  0  0  0  0
  -17.4218  -26.6714   21.3996 H   0  0  0  0  0  0
  -18.0262  -26.0081   22.9022 H   0  0  0  0  0  0
  -19.8012  -30.7334   24.2123 H   0  0  0  0  0  0
  -17.5081  -31.6270   24.5212 H   0  0  0  0  0  0
  -15.5373  -30.3023   23.7718 H   0  0  0  0  0  0
  -15.8704  -28.0894   22.7041 H   0  0  0  0  0  0
  -24.5914  -30.7147   25.7859 H   0  0  0  0  0  0
  -24.8933  -32.3048   26.4739 H   0  0  0  0  0  0
  -25.8053  -30.9161   27.0302 H   0  0  0  0  0  0
  -26.2899  -29.6753   24.1171 H   0  0  0  0  0  0
  -27.3931  -29.7237   25.4724 H   0  0  0  0  0  0
  -27.8836  -30.4240   23.9500 H   0  0  0  0  0  0
  -27.2567  -33.3721   26.1964 H   0  0  0  0  0  0
  -28.3916  -32.6813   25.0427 H   0  0  0  0  0  0
  -28.0559  -31.8574   26.5568 H   0  0  0  0  0  0
  -28.2531  -38.0101   24.7515 H   0  0  0  0  0  0
  -28.1061  -36.2615   24.6264 H   0  0  0  0  0  0
  -27.2303  -37.1400   25.8877 H   0  0  0  0  0  0
  -20.9390  -29.8887   21.6991 H   0  0  0  0  0  0
  -26.0070  -38.2792   24.1496 H   0  0  0  0  0  0
  -30.1494  -16.4005   23.2219 H   0  0  0  0  0  0
  -29.8272  -20.6797   23.0954 H   0  0  0  0  0  0
  -29.4647  -18.3721   19.4428 H   0  0  0  0  0  0
  -30.7981  -20.2340   18.9085 H   0  0  0  0  0  0
  -30.9836  -21.9444   19.1654 H   0  0  0  0  0  0
  -29.5641  -21.3290   18.3135 H   0  0  0  0  0  0
  -29.1740  -23.5677   19.1203 H   0  0  0  0  0  0
  -30.0813  -24.0239   20.5274 H   0  0  0  0  0  0
  -27.7722  -24.8528   21.5476 H   0  0  0  0  0  0
  -27.1243  -24.5392   19.9836 H   0  0  0  0  0  0
  -28.8120  -20.0679   25.0303 H   0  0  0  0  0  0
  -29.5490  -19.4685   26.4945 H   0  0  0  0  0  0
  -28.7443  -15.5183   20.6145 H   0  0  0  0  0  0
  1 25  1  0  0  0
  1 30  2  0  0  0
  1 83  1  0  0  0
  2  3  1  0  0  0
  2 25  1  0  0  0
  2 87  1  0  0  0
  2 88  1  0  0  0
  3  4  1  0  0  0
  3 89  1  0  0  0
  3 90  1  0  0  0
  4  5  1  0  0  0
  4 91  1  0  0  0
  4 92  1  0  0  0
  5  6  1  0  0  0
  5 26  1  0  0  0
  5 93  1  0  0  0
  6 25  1  0  0  0
  6 94  1  0  0  0
  6 95  1  0  0  0
  7  8  2  0  0  0
  7 26  1  0  0  0
  7 29  1  0  0  0
  8  9  1  0  0  0
  8 22  1  0  0  0
  9 10  1  0  0  0
  9 27  2  0  0  0
 10 11  2  0  0  0
 10 15  1  0  0  0
 11 12  1  0  0  0
 11 96  1  0  0  0
 12 13  2  0  0  0
 12 97  1  0  0  0
 13 14  1  0  0  0
 13 31  1  0  0  0
 14 15  2  0  0  0
 14 98  1  0  0  0
 15 99  1  0  0  0
 16 17  2  0  0  0
 16 21  1  0  0  0
 16 31  1  0  0  0
 17 18  1  0  0  0
 17100  1  0  0  0
 18 19  2  0  0  0
 18101  1  0  0  0
 19 20  1  0  0  0
 19 24  1  0  0  0
 20 21  2  0  0  0
 20102  1  0  0  0
 21 23  1  0  0  0
 22 28  1  0  0  0
 22 32  2  0  0  0
 26 27  1  0  0  0
 28103  1  0  0  0
 28104  1  0  0  0
 29105  1  0  0  0
 29106  1  0  0  0
 33 34  1  0  0  0
 33 66  1  0  0  0
 33 70  2  0  0  0
 34 36  1  0  0  0
 34 59  1  0  0  0
 34107  1  0  0  0
 35 44  2  0  0  0
 35 45  1  0  0  0
 35 68  1  0  0  0
 36 56  1  0  0  0
 36108  1  0  0  0
 37 39  1  0  0  0
 37 47  1  0  0  0
 37 66  1  0  0  0
 37109  1  0  0  0
 38 43  2  0  0  0
 38 46  1  0  0  0
 38 47  1  0  0  0
 39 64  1  0  0  0
 39 67  2  0  0  0
 40 52  1  0  0  0
 40 53  2  0  0  0
 40 58  1  0  0  0
 41110  1  0  0  0
 41111  1  0  0  0
 41112  1  0  0  0
 41 48  1  0  0  0
 42 43  1  0  0  0
 42 66  1  0  0  0
 42113  1  0  0  0
 42114  1  0  0  0
 43 44  1  0  0  0
 44115  1  0  0  0
 45 46  2  0  0  0
 45116  1  0  0  0
 46117  1  0  0  0
 47118  1  0  0  0
 47119  1  0  0  0
 48 56  1  0  0  0
 48 65  1  0  0  0
 48120  1  0  0  0
 49 50  1  0  0  0
 49 53  1  0  0  0
 49 64  1  0  0  0
 49121  1  0  0  0
 50 51  1  0  0  0
 50122  1  0  0  0
 50123  1  0  0  0
 51 52  1  0  0  0
 51124  1  0  0  0
 51125  1  0  0  0
 52126  1  0  0  0
 52127  1  0  0  0
 53 54  1  0  0  0
 54 55  2  0  0  0
 54128  1  0  0  0
 55 57  1  0  0  0
 55129  1  0  0  0
 56 69  2  0  0  0
 57 58  2  0  0  0
 57130  1  0  0  0
 58131  1  0  0  0
 59 60  1  0  0  0
 59 61  1  0  0  0
 59 62  1  0  0  0
 60132  1  0  0  0
 60133  1  0  0  0
 60134  1  0  0  0
 61135  1  0  0  0
 61136  1  0  0  0
 61137  1  0  0  0
 62138  1  0  0  0
 62139  1  0  0  0
 62140  1  0  0  0
 63 65  1  0  0  0
 63141  1  0  0  0
 63142  1  0  0  0
 63143  1  0  0  0
 64144  1  0  0  0
 65145  1  0  0  0
 68 81  1  0  0  0
 71 74  2  0  0  0
 71 75  1  0  0  0
 71146  1  0  0  0
 72 74  1  0  0  0
 72 76  2  0  0  0
 72147  1  0  0  0
 73 75  2  0  0  0
 73 76  1  0  0  0
 73148  1  0  0  0
 74 77  1  0  0  0
 75 83  1  0  0  0
 76 84  1  0  0  0
 77 82  1  0  0  0
 77 85  2  0  0  0
 78 80  1  0  0  0
 78 84  1  0  0  0
 78 86  2  0  0  0
 79 84  1  0  0  0
 79149  1  0  0  0
 79150  1  0  0  0
 79151  1  0  0  0
 80 81  1  0  0  0
 80152  1  0  0  0
 80153  1  0  0  0
 81154  1  0  0  0
 81155  1  0  0  0
 82156  1  0  0  0
 82157  1  0  0  0
 83158  1  0  0  0
M  ISO  4   1 100  68 101  81 101  83 100
M  END
> <chiral flag>
0

> <version>
0

> <s_m_source_file>
/data/baiqing/PycharmProjects/Reinvent-master-3.2/result/LINK_invent/BTK/process_docking_weight1_custom_product_contain_oxygen_bond_distance_aromatic_linkinvent_7_9_3/rearranged_h_0068.sdf

> <i_m_source_file_index>
12

> <r_mmod_Potential_Energy-OPLS-2005>
79.4823150634766

> <r_mmod_Stretch_Energy-OPLS-2005>
137.190383911133

> <r_mmod_Bend_Energy-OPLS-2005>
162.345809936523

> <r_mmod_Torsional_Energy-OPLS-2005>
311.559234619141

> <r_mmod_Improper_Torsional_Energy-OPLS-2005>
10.1276578903198

> <r_mmod_Van_der_Waal_Energy-OPLS-2005>
144.802963256836

> <r_mmod_Electrostatic_Energy-OPLS-2005>
-518.109313964844

> <r_mmod_Solvation_Energy-OPLS-2005>
-259.739318847656

> <b_mmod_Minimization_Converged-OPLS-2005>
0

> <r_mmod_RMS_Derivative-OPLS-2005>
5.41895961761475

$$$$
12
                    3D
 Structure written by MMmdl.
154162  0  0  1  0            999 V2000
  -30.5941  -14.7575   20.4041 C   0  0  0  0  0  0
  -30.4288  -12.4512   19.4754 C   0  0  0  0  0  0
  -29.5117  -12.5080   18.2340 C   0  0  0  0  0  0
  -28.0365  -12.3297   18.6447 C   0  0  0  0  0  0
  -27.6389  -13.2325   19.8439 C   0  0  2  0  0  0
  -28.6830  -13.1768   20.9805 C   0  0  0  0  0  0
  -25.2510  -13.8196   20.5678 C   0  0  0  0  0  0
  -24.1802  -13.0442   20.9196 C   0  0  0  0  0  0
  -24.6391  -11.6919   20.8733 C   0  0  0  0  0  0
  -23.9068  -10.4297   21.0387 C   0  0  0  0  0  0
  -24.3623   -9.4224   21.9166 C   0  0  0  0  0  0
  -23.6304   -8.2259   22.0743 C   0  0  0  0  0  0
  -22.4291   -8.0282   21.3535 C   0  0  0  0  0  0
  -21.9919   -9.0250   20.4638 C   0  0  0  0  0  0
  -22.7239  -10.2130   20.3044 C   0  0  0  0  0  0
  -21.6859   -6.0735   22.5273 C   0  0  0  0  0  0
  -21.4021   -6.5631   23.8204 C   0  0  0  0  0  0
  -21.3672   -5.6787   24.9166 C   0  0  0  0  0  0
  -21.6049   -4.3049   24.7212 C   0  0  0  0  0  0
  -21.8825   -3.8141   23.4336 C   0  0  0  0  0  0
  -21.9194   -4.6962   22.3396 C   0  0  0  0  0  0
  -22.7824  -13.5222   21.1839 C   0  0  0  0  0  0
  -22.1657   -4.2147   21.0974 F   0  0  0  0  0  0
  -21.5637   -3.4532   25.7730 F   0  0  0  0  0  0
  -29.9836  -13.5225   20.3964 N   0  0  0  0  0  0
  -26.2926  -12.9398   20.3241 N   0  0  0  0  0  0
  -25.9321  -11.6541   20.5730 N   0  0  0  0  0  0
  -22.0470  -12.8233   22.0412 N   0  0  0  0  0  0
  -25.4209  -15.1922   20.4114 N   0  0  0  0  0  0
  -31.8005  -14.8307   20.1615 O   0  0  0  0  0  0
  -21.6653   -6.8881   21.4239 O   0  0  0  0  0  0
  -22.3522  -14.5524   20.6672 O   0  0  0  0  0  0
  -24.6315  -31.8536   23.1935 C   0  0  0  0  0  0
  -25.9131  -32.4749   23.8299 C   0  0  1  0  0  0
  -27.2254  -27.2584   20.1359 C   0  0  0  0  0  0
  -25.5914  -33.8553   24.2222 N   0  0  0  0  0  0
  -23.4294  -30.4704   21.5391 C   0  0  2  0  0  0
  -24.8759  -28.9047   20.1203 C   0  0  0  0  0  0
  -22.7510  -29.4580   22.4936 C   0  0  0  0  0  0
  -18.0286  -28.1378   22.8479 C   0  0  0  0  0  0
  -24.1488  -36.7296   23.2640 C   0  0  0  0  0  0
  -25.9729  -30.7679   21.3687 C   0  0  0  0  0  0
  -26.0482  -29.3849   20.7200 C   0  0  0  0  0  0
  -27.2299  -28.5759   20.7073 C   0  0  0  0  0  0
  -26.0282  -26.8301   19.5306 C   0  0  0  0  0  0
  -24.8699  -27.6354   19.5161 C   0  0  0  0  0  0
  -23.6469  -29.7939   20.1592 C   0  0  0  0  0  0
  -25.4119  -36.3077   24.0316 C   0  0  1  0  0  0
  -20.5888  -28.3682   23.1279 C   0  0  2  0  0  0
  -20.6769  -26.9400   22.5412 C   0  0  0  0  0  0
  -19.5749  -26.6373   21.5212 C   0  0  0  0  0  0
  -18.1930  -26.7915   22.1621 C   0  0  0  0  0  0
  -19.1539  -28.8850   23.2868 C   0  0  0  0  0  0
  -18.9460  -30.1455   23.8879 C   0  0  0  0  0  0
  -17.6456  -30.6574   24.0558 C   0  0  0  0  0  0
  -25.9062  -34.9445   23.5081 C   0  0  0  0  0  0
  -16.5348  -29.9072   23.6318 C   0  0  0  0  0  0
  -16.7272  -28.6495   23.0332 C   0  0  0  0  0  0
  -26.4474  -31.6582   25.0699 C   0  0  0  0  0  0
  -25.3680  -31.3756   26.1411 C   0  0  0  0  0  0
  -27.0307  -30.2990   24.6186 C   0  0  0  0  0  0
  -27.6022  -32.4322   25.7487 C   0  0  0  0  0  0
  -27.5582  -37.1800   24.8455 C   0  0  0  0  0  0
  -21.4214  -29.3028   22.3679 N   0  0  0  0  0  0
  -26.4291  -37.3779   23.9406 N   0  0  0  0  0  0
  -24.6977  -31.0492   22.0910 N   0  0  0  0  0  0
  -23.4212  -28.8137   23.3045 O   0  0  0  0  0  0
  -28.3446  -26.4027   20.0878 O   0  0  0  0  0  0
  -26.5660  -34.8926   22.4666 O   0  0  0  0  0  0
  -23.5454  -32.1361   23.7218 O   0  0  0  0  0  0
  -30.3137  -19.8434   18.6654 C   0  0  0  0  0  0
  -29.3387  -18.4879   20.4336 C   0  0  0  0  0  0
  -30.8852  -18.6752   18.1198 C   0  0  0  0  0  0
  -29.4946  -19.8053   19.8155 C   0  0  0  0  0  0
  -29.9713  -17.2646   19.9343 C   0  0  0  0  0  0
  -30.7044  -17.4137   18.7270 C   0  0  0  0  0  0
  -29.1469  -22.3960   20.0280 C   0  0  0  0  0  0
  -31.6629  -18.7664   16.8182 C   0  0  0  0  0  0
  -28.0933  -23.6103   19.9510 C   0  0  0  0  0  0
  -28.3188  -25.0325   20.7111 C   0  0  0  0  0  0
  -28.7763  -21.0600   20.1912 N   0  0  0  0  0  0
  -29.8025  -15.8979   20.5242 N   0  0  0  0  0  0
  -30.3393  -22.6900   19.9275 O   0  0  0  0  0  0
  -31.1944  -16.3326   18.0744 F   0  0  0  0  0  0
  -31.4717  -12.5689   19.1764 H   0  0  0  0  0  0
  -30.3620  -11.4765   19.9613 H   0  0  0  0  0  0
  -29.7971  -11.7403   17.5136 H   0  0  0  0  0  0
  -29.6393  -13.4655   17.7255 H   0  0  0  0  0  0
  -27.8952  -11.2808   18.9082 H   0  0  0  0  0  0
  -27.3816  -12.5177   17.7922 H   0  0  0  0  0  0
  -27.6283  -14.2519   19.4589 H   0  0  0  0  0  0
  -28.7182  -12.1843   21.4321 H   0  0  0  0  0  0
  -28.4191  -13.8707   21.7805 H   0  0  0  0  0  0
  -25.2758   -9.5708   22.4741 H   0  0  0  0  0  0
  -24.0007   -7.4662   22.7470 H   0  0  0  0  0  0
  -21.0841   -8.8768   19.8955 H   0  0  0  0  0  0
  -22.3676  -10.9670   19.6161 H   0  0  0  0  0  0
  -21.2010   -7.6140   23.9707 H   0  0  0  0  0  0
  -21.1491   -6.0510   25.9066 H   0  0  0  0  0  0
  -22.0592   -2.7604   23.2831 H   0  0  0  0  0  0
  -22.4073  -11.9912   22.4857 H   0  0  0  0  0  0
  -21.1072  -13.1256   22.2557 H   0  0  0  0  0  0
  -24.6555  -15.8463   20.5295 H   0  0  0  0  0  0
  -26.2656  -15.6347   20.0731 H   0  0  0  0  0  0
  -26.7218  -32.5390   23.1060 H   0  0  0  0  0  0
  -24.9990  -33.9689   25.0316 H   0  0  0  0  0  0
  -22.7242  -31.2905   21.3871 H   0  0  0  0  0  0
  -23.3752  -35.9625   23.3283 H   0  0  0  0  0  0
  -24.3579  -36.8944   22.2059 H   0  0  0  0  0  0
  -23.7236  -37.6486   23.6685 H   0  0  0  0  0  0
  -26.1026  -31.5231   20.5915 H   0  0  0  0  0  0
  -26.8547  -30.8258   21.9965 H   0  0  0  0  0  0
  -28.1374  -28.9476   21.1624 H   0  0  0  0  0  0
  -25.9906  -25.8546   19.0665 H   0  0  0  0  0  0
  -23.9710  -27.2608   19.0466 H   0  0  0  0  0  0
  -23.7716  -30.5634   19.3959 H   0  0  0  0  0  0
  -22.7650  -29.2242   19.8606 H   0  0  0  0  0  0
  -25.1301  -36.1916   25.0806 H   0  0  0  0  0  0
  -20.9972  -28.3251   24.1404 H   0  0  0  0  0  0
  -20.5655  -26.2294   23.3618 H   0  0  0  0  0  0
  -21.6640  -26.7410   22.1213 H   0  0  0  0  0  0
  -19.6909  -25.6287   21.1239 H   0  0  0  0  0  0
  -19.6683  -27.3185   20.6745 H   0  0  0  0  0  0
  -17.4198  -26.6658   21.4022 H   0  0  0  0  0  0
  -18.0324  -26.0054   22.9016 H   0  0  0  0  0  0
  -19.7939  -30.7281   24.2227 H   0  0  0  0  0  0
  -17.5007  -31.6247   24.5170 H   0  0  0  0  0  0
  -15.5346  -30.2969   23.7646 H   0  0  0  0  0  0
  -15.8676  -28.0824   22.7027 H   0  0  0  0  0  0
  -24.5833  -30.7132   25.7738 H   0  0  0  0  0  0
  -24.8891  -32.2935   26.4831 H   0  0  0  0  0  0
  -25.7963  -30.8925   27.0200 H   0  0  0  0  0  0
  -26.2886  -29.6755   24.1182 H   0  0  0  0  0  0
  -27.3946  -29.7235   25.4710 H   0  0  0  0  0  0
  -27.8779  -30.4251   23.9443 H   0  0  0  0  0  0
  -27.2613  -33.3615   26.2066 H   0  0  0  0  0  0
  -28.3833  -32.6897   25.0322 H   0  0  0  0  0  0
  -28.0685  -31.8447   26.5404 H   0  0  0  0  0  0
  -28.2587  -38.0112   24.7522 H   0  0  0  0  0  0
  -28.1090  -36.2642   24.6247 H   0  0  0  0  0  0
  -27.2306  -37.1408   25.8861 H   0  0  0  0  0  0
  -20.9415  -29.8750   21.6876 H   0  0  0  0  0  0
  -26.0163  -38.2849   24.1414 H   0  0  0  0  0  0
  -30.4592  -20.7755   18.1378 H   0  0  0  0  0  0
  -28.7074  -18.4119   21.3068 H   0  0  0  0  0  0
  -31.9357  -19.7945   16.5793 H   0  0  0  0  0  0
  -31.0626  -18.3747   15.9963 H   0  0  0  0  0  0
  -32.5808  -18.1803   16.8713 H   0  0  0  0  0  0
  -27.1302  -23.2104   20.2682 H   0  0  0  0  0  0
  -27.9667  -23.8248   18.8891 H   0  0  0  0  0  0
  -29.2730  -24.9523   21.2317 H   0  0  0  0  0  0
  -27.5897  -25.0763   21.5210 H   0  0  0  0  0  0
  -27.8197  -20.9260   20.4946 H   0  0  0  0  0  0
  -28.9013  -15.7256   20.9413 H   0  0  0  0  0  0
  1 25  1  0  0  0
  1 30  2  0  0  0
  1 82  1  0  0  0
  2  3  1  0  0  0
  2 25  1  0  0  0
  2 85  1  0  0  0
  2 86  1  0  0  0
  3  4  1  0  0  0
  3 87  1  0  0  0
  3 88  1  0  0  0
  4  5  1  0  0  0
  4 89  1  0  0  0
  4 90  1  0  0  0
  5  6  1  0  0  0
  5 26  1  0  0  0
  5 91  1  0  0  0
  6 25  1  0  0  0
  6 92  1  0  0  0
  6 93  1  0  0  0
  7  8  2  0  0  0
  7 26  1  0  0  0
  7 29  1  0  0  0
  8  9  1  0  0  0
  8 22  1  0  0  0
  9 10  1  0  0  0
  9 27  2  0  0  0
 10 11  2  0  0  0
 10 15  1  0  0  0
 11 12  1  0  0  0
 11 94  1  0  0  0
 12 13  2  0  0  0
 12 95  1  0  0  0
 13 14  1  0  0  0
 13 31  1  0  0  0
 14 15  2  0  0  0
 14 96  1  0  0  0
 15 97  1  0  0  0
 16 17  2  0  0  0
 16 21  1  0  0  0
 16 31  1  0  0  0
 17 18  1  0  0  0
 17 98  1  0  0  0
 18 19  2  0  0  0
 18 99  1  0  0  0
 19 20  1  0  0  0
 19 24  1  0  0  0
 20 21  2  0  0  0
 20100  1  0  0  0
 21 23  1  0  0  0
 22 28  1  0  0  0
 22 32  2  0  0  0
 26 27  1  0  0  0
 28101  1  0  0  0
 28102  1  0  0  0
 29103  1  0  0  0
 29104  1  0  0  0
 33 34  1  0  0  0
 33 66  1  0  0  0
 33 70  2  0  0  0
 34 36  1  0  0  0
 34 59  1  0  0  0
 34105  1  0  0  0
 35 44  2  0  0  0
 35 45  1  0  0  0
 35 68  1  0  0  0
 36 56  1  0  0  0
 36106  1  0  0  0
 37 39  1  0  0  0
 37 47  1  0  0  0
 37 66  1  0  0  0
 37107  1  0  0  0
 38 43  2  0  0  0
 38 46  1  0  0  0
 38 47  1  0  0  0
 39 64  1  0  0  0
 39 67  2  0  0  0
 40 52  1  0  0  0
 40 53  2  0  0  0
 40 58  1  0  0  0
 41108  1  0  0  0
 41109  1  0  0  0
 41110  1  0  0  0
 41 48  1  0  0  0
 42 43  1  0  0  0
 42 66  1  0  0  0
 42111  1  0  0  0
 42112  1  0  0  0
 43 44  1  0  0  0
 44113  1  0  0  0
 45 46  2  0  0  0
 45114  1  0  0  0
 46115  1  0  0  0
 47116  1  0  0  0
 47117  1  0  0  0
 48 56  1  0  0  0
 48 65  1  0  0  0
 48118  1  0  0  0
 49 50  1  0  0  0
 49 53  1  0  0  0
 49 64  1  0  0  0
 49119  1  0  0  0
 50 51  1  0  0  0
 50120  1  0  0  0
 50121  1  0  0  0
 51 52  1  0  0  0
 51122  1  0  0  0
 51123  1  0  0  0
 52124  1  0  0  0
 52125  1  0  0  0
 53 54  1  0  0  0
 54 55  2  0  0  0
 54126  1  0  0  0
 55 57  1  0  0  0
 55127  1  0  0  0
 56 69  2  0  0  0
 57 58  2  0  0  0
 57128  1  0  0  0
 58129  1  0  0  0
 59 60  1  0  0  0
 59 61  1  0  0  0
 59 62  1  0  0  0
 60130  1  0  0  0
 60131  1  0  0  0
 60132  1  0  0  0
 61133  1  0  0  0
 61134  1  0  0  0
 61135  1  0  0  0
 62136  1  0  0  0
 62137  1  0  0  0
 62138  1  0  0  0
 63 65  1  0  0  0
 63139  1  0  0  0
 63140  1  0  0  0
 63141  1  0  0  0
 64142  1  0  0  0
 65143  1  0  0  0
 68 80  1  0  0  0
 71 73  2  0  0  0
 71 74  1  0  0  0
 71144  1  0  0  0
 72 74  2  0  0  0
 72 75  1  0  0  0
 72145  1  0  0  0
 73 76  1  0  0  0
 73 78  1  0  0  0
 74 81  1  0  0  0
 75 76  2  0  0  0
 75 82  1  0  0  0
 76 84  1  0  0  0
 77 79  1  0  0  0
 77 81  1  0  0  0
 77 83  2  0  0  0
 78146  1  0  0  0
 78147  1  0  0  0
 78148  1  0  0  0
 79 80  1  0  0  0
 79149  1  0  0  0
 79150  1  0  0  0
 80151  1  0  0  0
 80152  1  0  0  0
 81153  1  0  0  0
 82154  1  0  0  0
M  ISO  4   1 100  68 101  80 101  82 100
M  END
> <chiral flag>
0

> <version>
0

> <s_m_source_file>
/data/baiqing/PycharmProjects/Reinvent-master-3.2/result/LINK_invent/BTK/process_docking_weight1_custom_product_contain_oxygen_bond_distance_aromatic_linkinvent_7_9_3/rearranged_h_0068.sdf

> <i_m_source_file_index>
13

> <r_mmod_Potential_Energy-OPLS-2005>
165.605773925781

> <r_mmod_Stretch_Energy-OPLS-2005>
133.341674804688

> <r_mmod_Bend_Energy-OPLS-2005>
175.83122253418

> <r_mmod_Torsional_Energy-OPLS-2005>
278.616516113281

> <r_mmod_Improper_Torsional_Energy-OPLS-2005>
5.32285261154175

> <r_mmod_Van_der_Waal_Energy-OPLS-2005>
138.793899536133

> <r_mmod_Electrostatic_Energy-OPLS-2005>
-407.368865966797

> <r_mmod_Solvation_Energy-OPLS-2005>
-245.394317626953

> <b_mmod_Minimization_Converged-OPLS-2005>
0

> <r_mmod_RMS_Derivative-OPLS-2005>
1.94581651687622

$$$$
13
                    3D
 Structure written by MMmdl.
151159  0  0  1  0            999 V2000
  -30.6219  -14.7380   20.4769 C   0  0  0  0  0  0
  -30.4338  -12.4566   19.4635 C   0  0  0  0  0  0
  -29.5068  -12.5008   18.2298 C   0  0  0  0  0  0
  -28.0358  -12.3194   18.6514 C   0  0  0  0  0  0
  -27.6406  -13.2274   19.8465 C   0  0  2  0  0  0
  -28.6875  -13.1689   20.9789 C   0  0  0  0  0  0
  -25.2504  -13.8186   20.5683 C   0  0  0  0  0  0
  -24.1800  -13.0436   20.9213 C   0  0  0  0  0  0
  -24.6393  -11.6911   20.8766 C   0  0  0  0  0  0
  -23.9073  -10.4293   21.0423 C   0  0  0  0  0  0
  -24.3615   -9.4205   21.9200 C   0  0  0  0  0  0
  -23.6292   -8.2238   22.0758 C   0  0  0  0  0  0
  -22.4280   -8.0279   21.3536 C   0  0  0  0  0  0
  -21.9919   -9.0256   20.4644 C   0  0  0  0  0  0
  -22.7248  -10.2135   20.3066 C   0  0  0  0  0  0
  -21.6854   -6.0737   22.5276 C   0  0  0  0  0  0
  -21.4015   -6.5641   23.8213 C   0  0  0  0  0  0
  -21.3661   -5.6792   24.9170 C   0  0  0  0  0  0
  -21.6044   -4.3057   24.7224 C   0  0  0  0  0  0
  -21.8817   -3.8148   23.4349 C   0  0  0  0  0  0
  -21.9193   -4.6960   22.3405 C   0  0  0  0  0  0
  -22.7826  -13.5223   21.1864 C   0  0  0  0  0  0
  -22.1659   -4.2149   21.0983 F   0  0  0  0  0  0
  -21.5631   -3.4542   25.7741 F   0  0  0  0  0  0
  -29.9849  -13.5212   20.3879 N   0  0  0  0  0  0
  -26.2930  -12.9382   20.3273 N   0  0  0  0  0  0
  -25.9316  -11.6529   20.5751 N   0  0  0  0  0  0
  -22.0466  -12.8218   22.0414 N   0  0  0  0  0  0
  -25.4204  -15.1912   20.4062 N   0  0  0  0  0  0
  -31.8214  -14.8211   20.1988 O   0  0  0  0  0  0
  -21.6637   -6.8878   21.4238 O   0  0  0  0  0  0
  -22.3523  -14.5536   20.6718 O   0  0  0  0  0  0
  -24.6305  -31.8550   23.1962 C   0  0  0  0  0  0
  -25.9121  -32.4752   23.8320 C   0  0  1  0  0  0
  -27.2227  -27.2663   20.1461 C   0  0  0  0  0  0
  -25.5909  -33.8551   24.2241 N   0  0  0  0  0  0
  -23.4271  -30.4759   21.5389 C   0  0  2  0  0  0
  -24.8767  -28.9175   20.1137 C   0  0  0  0  0  0
  -22.7493  -29.4593   22.4903 C   0  0  0  0  0  0
  -18.0291  -28.1390   22.8479 C   0  0  0  0  0  0
  -24.1483  -36.7277   23.2649 C   0  0  0  0  0  0
  -25.9716  -30.7707   21.3745 C   0  0  0  0  0  0
  -26.0468  -29.3915   20.7226 C   0  0  0  0  0  0
  -27.2253  -28.5794   20.7229 C   0  0  0  0  0  0
  -26.0341  -26.8554   19.5084 C   0  0  0  0  0  0
  -24.8748  -27.6574   19.4929 C   0  0  0  0  0  0
  -23.6470  -29.8044   20.1569 C   0  0  0  0  0  0
  -25.4112  -36.3064   24.0333 C   0  0  1  0  0  0
  -20.5888  -28.3688   23.1272 C   0  0  2  0  0  0
  -20.6776  -26.9410   22.5408 C   0  0  0  0  0  0
  -19.5750  -26.6398   21.5206 C   0  0  0  0  0  0
  -18.1931  -26.7934   22.1629 C   0  0  0  0  0  0
  -19.1546  -28.8858   23.2867 C   0  0  0  0  0  0
  -18.9479  -30.1461   23.8888 C   0  0  0  0  0  0
  -17.6480  -30.6594   24.0561 C   0  0  0  0  0  0
  -25.9054  -34.9434   23.5094 C   0  0  0  0  0  0
  -16.5364  -29.9096   23.6333 C   0  0  0  0  0  0
  -16.7279  -28.6515   23.0346 C   0  0  0  0  0  0
  -26.4491  -31.6576   25.0704 C   0  0  0  0  0  0
  -25.3721  -31.3716   26.1429 C   0  0  0  0  0  0
  -27.0354  -30.3007   24.6179 C   0  0  0  0  0  0
  -27.6045  -32.4315   25.7472 C   0  0  0  0  0  0
  -27.5570  -37.1791   24.8474 C   0  0  0  0  0  0
  -21.4200  -29.3031   22.3659 N   0  0  0  0  0  0
  -26.4286  -37.3768   23.9418 N   0  0  0  0  0  0
  -24.6951  -31.0518   22.0934 N   0  0  0  0  0  0
  -23.4194  -28.8150   23.3017 O   0  0  0  0  0  0
  -28.3216  -26.3811   20.1611 O   0  0  0  0  0  0
  -26.5643  -34.8908   22.4675 O   0  0  0  0  0  0
  -23.5455  -32.1358   23.7262 O   0  0  0  0  0  0
  -31.3172  -17.5230   21.7463 C   0  0  0  0  0  0
  -31.6790  -18.8284   22.1289 C   0  0  0  0  0  0
  -30.2188  -17.2897   20.8919 C   0  0  0  0  0  0
  -29.8582  -19.8399   20.8097 C   0  0  0  0  0  0
  -30.9794  -19.9618   21.6708 C   0  0  0  0  0  0
  -29.4960  -18.4742   20.4327 C   0  0  0  0  0  0
  -29.0282  -22.3205   20.8622 C   0  0  0  0  0  0
  -28.8470  -23.6812   20.0250 C   0  0  0  0  0  0
  -28.1266  -24.9806   20.6815 C   0  0  0  0  0  0
  -29.2397  -21.0839   20.2630 N   0  0  0  0  0  0
  -29.8430  -15.8814   20.6030 N   0  0  0  0  0  0
  -28.9396  -22.3999   22.0886 O   0  0  0  0  0  0
  -31.4495  -21.1803   22.0341 F   0  0  0  0  0  0
  -28.4367  -18.2951   19.6059 F   0  0  0  0  0  0
  -31.4725  -12.5888   19.1549 H   0  0  0  0  0  0
  -30.3850  -11.4817   19.9515 H   0  0  0  0  0  0
  -29.7891  -11.7263   17.5146 H   0  0  0  0  0  0
  -29.6249  -13.4530   17.7110 H   0  0  0  0  0  0
  -27.9023  -11.2724   18.9247 H   0  0  0  0  0  0
  -27.3731  -12.4962   17.8035 H   0  0  0  0  0  0
  -27.6296  -14.2456   19.4575 H   0  0  0  0  0  0
  -28.7267  -12.1743   21.4252 H   0  0  0  0  0  0
  -28.4250  -13.8577   21.7843 H   0  0  0  0  0  0
  -25.2757   -9.5681   22.4769 H   0  0  0  0  0  0
  -24.0002   -7.4633   22.7476 H   0  0  0  0  0  0
  -21.0857   -8.8779   19.8949 H   0  0  0  0  0  0
  -22.3717  -10.9671   19.6173 H   0  0  0  0  0  0
  -21.2006   -7.6151   23.9712 H   0  0  0  0  0  0
  -21.1485   -6.0528   25.9075 H   0  0  0  0  0  0
  -22.0596   -2.7610   23.2850 H   0  0  0  0  0  0
  -22.4094  -11.9889   22.4814 H   0  0  0  0  0  0
  -21.1071  -13.1227   22.2594 H   0  0  0  0  0  0
  -24.6494  -15.8413   20.5130 H   0  0  0  0  0  0
  -26.2569  -15.6299   20.0444 H   0  0  0  0  0  0
  -26.7180  -32.5419   23.1060 H   0  0  0  0  0  0
  -25.0028  -33.9677   25.0367 H   0  0  0  0  0  0
  -22.7233  -31.2962   21.3890 H   0  0  0  0  0  0
  -23.3747  -35.9607   23.3319 H   0  0  0  0  0  0
  -24.3567  -36.8893   22.2060 H   0  0  0  0  0  0
  -23.7234  -37.6478   23.6673 H   0  0  0  0  0  0
  -26.1068  -31.5277   20.6007 H   0  0  0  0  0  0
  -26.8506  -30.8252   22.0043 H   0  0  0  0  0  0
  -28.1232  -28.9398   21.2036 H   0  0  0  0  0  0
  -25.9975  -25.8898   19.0242 H   0  0  0  0  0  0
  -23.9821  -27.2896   19.0054 H   0  0  0  0  0  0
  -23.7712  -30.5776   19.3985 H   0  0  0  0  0  0
  -22.7669  -29.2352   19.8518 H   0  0  0  0  0  0
  -25.1293  -36.1913   25.0827 H   0  0  0  0  0  0
  -20.9977  -28.3278   24.1393 H   0  0  0  0  0  0
  -20.5672  -26.2298   23.3617 H   0  0  0  0  0  0
  -21.6641  -26.7431   22.1203 H   0  0  0  0  0  0
  -19.6908  -25.6310   21.1236 H   0  0  0  0  0  0
  -19.6693  -27.3204   20.6734 H   0  0  0  0  0  0
  -17.4201  -26.6665   21.4038 H   0  0  0  0  0  0
  -18.0330  -26.0079   22.9030 H   0  0  0  0  0  0
  -19.7961  -30.7271   24.2245 H   0  0  0  0  0  0
  -17.5049  -31.6267   24.5170 H   0  0  0  0  0  0
  -15.5367  -30.3010   23.7667 H   0  0  0  0  0  0
  -15.8676  -28.0850   22.7059 H   0  0  0  0  0  0
  -24.5912  -30.7043   25.7767 H   0  0  0  0  0  0
  -24.8882  -32.2870   26.4832 H   0  0  0  0  0  0
  -25.8050  -30.8924   27.0224 H   0  0  0  0  0  0
  -26.2930  -29.6732   24.1247 H   0  0  0  0  0  0
  -27.4091  -29.7293   25.4681 H   0  0  0  0  0  0
  -27.8770  -30.4300   23.9378 H   0  0  0  0  0  0
  -27.2669  -33.3634   26.2022 H   0  0  0  0  0  0
  -28.3874  -32.6835   25.0304 H   0  0  0  0  0  0
  -28.0700  -31.8459   26.5408 H   0  0  0  0  0  0
  -28.2602  -38.0071   24.7509 H   0  0  0  0  0  0
  -28.1049  -36.2608   24.6323 H   0  0  0  0  0  0
  -27.2287  -37.1457   25.8875 H   0  0  0  0  0  0
  -20.9404  -29.8760   21.6859 H   0  0  0  0  0  0
  -26.0165  -38.2846   24.1421 H   0  0  0  0  0  0
  -31.8956  -16.6967   22.1363 H   0  0  0  0  0  0
  -32.5272  -18.9667   22.7833 H   0  0  0  0  0  0
  -29.8598  -23.9850   19.7588 H   0  0  0  0  0  0
  -28.3574  -23.4415   19.0821 H   0  0  0  0  0  0
  -28.4381  -25.0330   21.7249 H   0  0  0  0  0  0
  -27.0622  -24.7550   20.7446 H   0  0  0  0  0  0
  -29.0473  -21.0495   19.2722 H   0  0  0  0  0  0
  -28.8527  -15.7203   20.5160 H   0  0  0  0  0  0
  1 25  1  0  0  0
  1 30  2  0  0  0
  1 81  1  0  0  0
  2  3  1  0  0  0
  2 25  1  0  0  0
  2 85  1  0  0  0
  2 86  1  0  0  0
  3  4  1  0  0  0
  3 87  1  0  0  0
  3 88  1  0  0  0
  4  5  1  0  0  0
  4 89  1  0  0  0
  4 90  1  0  0  0
  5  6  1  0  0  0
  5 26  1  0  0  0
  5 91  1  0  0  0
  6 25  1  0  0  0
  6 92  1  0  0  0
  6 93  1  0  0  0
  7  8  2  0  0  0
  7 26  1  0  0  0
  7 29  1  0  0  0
  8  9  1  0  0  0
  8 22  1  0  0  0
  9 10  1  0  0  0
  9 27  2  0  0  0
 10 11  2  0  0  0
 10 15  1  0  0  0
 11 12  1  0  0  0
 11 94  1  0  0  0
 12 13  2  0  0  0
 12 95  1  0  0  0
 13 14  1  0  0  0
 13 31  1  0  0  0
 14 15  2  0  0  0
 14 96  1  0  0  0
 15 97  1  0  0  0
 16 17  2  0  0  0
 16 21  1  0  0  0
 16 31  1  0  0  0
 17 18  1  0  0  0
 17 98  1  0  0  0
 18 19  2  0  0  0
 18 99  1  0  0  0
 19 20  1  0  0  0
 19 24  1  0  0  0
 20 21  2  0  0  0
 20100  1  0  0  0
 21 23  1  0  0  0
 22 28  1  0  0  0
 22 32  2  0  0  0
 26 27  1  0  0  0
 28101  1  0  0  0
 28102  1  0  0  0
 29103  1  0  0  0
 29104  1  0  0  0
 33 34  1  0  0  0
 33 66  1  0  0  0
 33 70  2  0  0  0
 34 36  1  0  0  0
 34 59  1  0  0  0
 34105  1  0  0  0
 35 44  2  0  0  0
 35 45  1  0  0  0
 35 68  1  0  0  0
 36 56  1  0  0  0
 36106  1  0  0  0
 37 39  1  0  0  0
 37 47  1  0  0  0
 37 66  1  0  0  0
 37107  1  0  0  0
 38 43  2  0  0  0
 38 46  1  0  0  0
 38 47  1  0  0  0
 39 64  1  0  0  0
 39 67  2  0  0  0
 40 52  1  0  0  0
 40 53  2  0  0  0
 40 58  1  0  0  0
 41108  1  0  0  0
 41109  1  0  0  0
 41110  1  0  0  0
 41 48  1  0  0  0
 42 43  1  0  0  0
 42 66  1  0  0  0
 42111  1  0  0  0
 42112  1  0  0  0
 43 44  1  0  0  0
 44113  1  0  0  0
 45 46  2  0  0  0
 45114  1  0  0  0
 46115  1  0  0  0
 47116  1  0  0  0
 47117  1  0  0  0
 48 56  1  0  0  0
 48 65  1  0  0  0
 48118  1  0  0  0
 49 50  1  0  0  0
 49 53  1  0  0  0
 49 64  1  0  0  0
 49119  1  0  0  0
 50 51  1  0  0  0
 50120  1  0  0  0
 50121  1  0  0  0
 51 52  1  0  0  0
 51122  1  0  0  0
 51123  1  0  0  0
 52124  1  0  0  0
 52125  1  0  0  0
 53 54  1  0  0  0
 54 55  2  0  0  0
 54126  1  0  0  0
 55 57  1  0  0  0
 55127  1  0  0  0
 56 69  2  0  0  0
 57 58  2  0  0  0
 57128  1  0  0  0
 58129  1  0  0  0
 59 60  1  0  0  0
 59 61  1  0  0  0
 59 62  1  0  0  0
 60130  1  0  0  0
 60131  1  0  0  0
 60132  1  0  0  0
 61133  1  0  0  0
 61134  1  0  0  0
 61135  1  0  0  0
 62136  1  0  0  0
 62137  1  0  0  0
 62138  1  0  0  0
 63 65  1  0  0  0
 63139  1  0  0  0
 63140  1  0  0  0
 63141  1  0  0  0
 64142  1  0  0  0
 65143  1  0  0  0
 68 79  1  0  0  0
 71 72  2  0  0  0
 71 73  1  0  0  0
 71144  1  0  0  0
 72 75  1  0  0  0
 72145  1  0  0  0
 73 76  2  0  0  0
 73 81  1  0  0  0
 74 75  2  0  0  0
 74 76  1  0  0  0
 74 80  1  0  0  0
 75 83  1  0  0  0
 76 84  1  0  0  0
 77 78  1  0  0  0
 77 80  1  0  0  0
 77 82  2  0  0  0
 78 79  1  0  0  0
 78146  1  0  0  0
 78147  1  0  0  0
 79148  1  0  0  0
 79149  1  0  0  0
 80150  1  0  0  0
 81151  1  0  0  0
M  ISO  4   1 100  68 101  79 101  81 100
M  END
> <chiral flag>
0

> <version>
0

> <s_m_source_file>
/data/baiqing/PycharmProjects/Reinvent-master-3.2/result/LINK_invent/BTK/process_docking_weight1_custom_product_contain_oxygen_bond_distance_aromatic_linkinvent_7_9_3/rearranged_h_0068.sdf

> <i_m_source_file_index>
14

> <r_mmod_Potential_Energy-OPLS-2005>
75.3058700561523

> <r_mmod_Stretch_Energy-OPLS-2005>
124.198707580566

> <r_mmod_Bend_Energy-OPLS-2005>
153.298721313477

> <r_mmod_Torsional_Energy-OPLS-2005>
266.306732177734

> <r_mmod_Improper_Torsional_Energy-OPLS-2005>
7.40485525131226

> <r_mmod_Van_der_Waal_Energy-OPLS-2005>
139.711486816406

> <r_mmod_Electrostatic_Energy-OPLS-2005>
-468.381866455078

> <r_mmod_Solvation_Energy-OPLS-2005>
-230.099838256836

> <b_mmod_Minimization_Converged-OPLS-2005>
0

> <r_mmod_RMS_Derivative-OPLS-2005>
1.98016536235809

$$$$
14
                    3D
 Structure written by MMmdl.
151159  0  0  1  0            999 V2000
  -30.5017  -15.0376   20.3874 C   0  0  0  0  0  0
  -30.4338  -12.6390   19.5198 C   0  0  0  0  0  0
  -29.5301  -12.5503   18.2667 C   0  0  0  0  0  0
  -28.0650  -12.3174   18.6815 C   0  0  0  0  0  0
  -27.6263  -13.2562   19.8363 C   0  0  2  0  0  0
  -28.6618  -13.3188   20.9790 C   0  0  0  0  0  0
  -25.2462  -13.8211   20.5714 C   0  0  0  0  0  0
  -24.1780  -13.0440   20.9235 C   0  0  0  0  0  0
  -24.6396  -11.6922   20.8748 C   0  0  0  0  0  0
  -23.9073  -10.4295   21.0400 C   0  0  0  0  0  0
  -24.3623   -9.4215   21.9185 C   0  0  0  0  0  0
  -23.6303   -8.2247   22.0751 C   0  0  0  0  0  0
  -22.4287   -8.0280   21.3543 C   0  0  0  0  0  0
  -21.9912   -9.0257   20.4653 C   0  0  0  0  0  0
  -22.7236  -10.2140   20.3065 C   0  0  0  0  0  0
  -21.6851   -6.0743   22.5274 C   0  0  0  0  0  0
  -21.4014   -6.5644   23.8213 C   0  0  0  0  0  0
  -21.3666   -5.6794   24.9169 C   0  0  0  0  0  0
  -21.6049   -4.3055   24.7221 C   0  0  0  0  0  0
  -21.8816   -3.8152   23.4337 C   0  0  0  0  0  0
  -21.9187   -4.6969   22.3400 C   0  0  0  0  0  0
  -22.7802  -13.5228   21.1876 C   0  0  0  0  0  0
  -22.1668   -4.2156   21.0975 F   0  0  0  0  0  0
  -21.5630   -3.4538   25.7729 F   0  0  0  0  0  0
  -29.9266  -13.7571   20.3775 N   0  0  0  0  0  0
  -26.2876  -12.9457   20.3217 N   0  0  0  0  0  0
  -25.9331  -11.6578   20.5708 N   0  0  0  0  0  0
  -22.0441  -12.8233   22.0426 N   0  0  0  0  0  0
  -25.4142  -15.1934   20.4112 N   0  0  0  0  0  0
  -31.7131  -15.0661   20.1419 O   0  0  0  0  0  0
  -21.6648   -6.8882   21.4233 O   0  0  0  0  0  0
  -22.3498  -14.5524   20.6705 O   0  0  0  0  0  0
  -24.6515  -31.8361   23.1835 C   0  0  0  0  0  0
  -25.9250  -32.4651   23.8249 C   0  0  1  0  0  0
  -27.2067  -27.0509   20.1621 C   0  0  0  0  0  0
  -25.5965  -33.8461   24.2155 N   0  0  0  0  0  0
  -23.4585  -30.4546   21.5307 C   0  0  2  0  0  0
  -24.9077  -28.8670   20.1130 C   0  0  0  0  0  0
  -22.7603  -29.4509   22.4835 C   0  0  0  0  0  0
  -18.0313  -28.1390   22.8472 C   0  0  0  0  0  0
  -24.1490  -36.7233   23.2644 C   0  0  0  0  0  0
  -26.0218  -30.6805   21.3981 C   0  0  0  0  0  0
  -26.0898  -29.2851   20.7375 C   0  0  0  0  0  0
  -27.2407  -28.3959   20.7413 C   0  0  0  0  0  0
  -25.9989  -26.7591   19.4922 C   0  0  0  0  0  0
  -24.8802  -27.6203   19.4732 C   0  0  0  0  0  0
  -23.6906  -29.7817   20.1525 C   0  0  0  0  0  0
  -25.4128  -36.3006   24.0309 C   0  0  1  0  0  0
  -20.5927  -28.3729   23.1207 C   0  0  2  0  0  0
  -20.6784  -26.9421   22.5400 C   0  0  0  0  0  0
  -19.5765  -26.6372   21.5198 C   0  0  0  0  0  0
  -18.1948  -26.7927   22.1612 C   0  0  0  0  0  0
  -19.1568  -28.8878   23.2833 C   0  0  0  0  0  0
  -18.9481  -30.1470   23.8867 C   0  0  0  0  0  0
  -17.6476  -30.6584   24.0554 C   0  0  0  0  0  0
  -25.9087  -34.9381   23.5050 C   0  0  0  0  0  0
  -16.5369  -29.9073   23.6335 C   0  0  0  0  0  0
  -16.7295  -28.6488   23.0362 C   0  0  0  0  0  0
  -26.4533  -31.6548   25.0728 C   0  0  0  0  0  0
  -25.3683  -31.3768   26.1402 C   0  0  0  0  0  0
  -27.0392  -30.2926   24.6375 C   0  0  0  0  0  0
  -27.6066  -32.4318   25.7502 C   0  0  0  0  0  0
  -27.5583  -37.1762   24.8453 C   0  0  0  0  0  0
  -21.4287  -29.3044   22.3573 N   0  0  0  0  0  0
  -26.4279  -37.3733   23.9413 N   0  0  0  0  0  0
  -24.7311  -31.0141   22.0913 N   0  0  0  0  0  0
  -23.4208  -28.8063   23.3020 O   0  0  0  0  0  0
  -28.2209  -26.0002   20.2296 O   0  0  0  0  0  0
  -26.5685  -34.8883   22.4634 O   0  0  0  0  0  0
  -23.5616  -32.1270   23.7009 O   0  0  0  0  0  0
  -30.8133  -19.2014   18.3076 C   0  0  0  0  0  0
  -29.2162  -19.0152   20.5191 C   0  0  0  0  0  0
  -30.1793  -20.3856   18.7586 C   0  0  0  0  0  0
  -29.3543  -20.4019   19.9229 C   0  0  0  0  0  0
  -29.8747  -17.7298   20.0558 C   0  0  0  0  0  0
  -30.6680  -17.9340   18.9042 C   0  0  0  0  0  0
  -28.9356  -23.1593   20.2369 C   0  0  0  0  0  0
  -30.3661  -21.6036   17.8661 C   0  0  0  0  0  0
  -27.8511  -24.4511   20.1423 C   0  0  0  0  0  0
  -28.6148  -21.7439   20.2782 N   0  0  0  0  0  0
  -29.7270  -16.2494   20.5481 N   0  0  0  0  0  0
  -30.1229  -23.4825   20.3052 O   0  0  0  0  0  0
  -31.2558  -16.8902   18.2751 F   0  0  0  0  0  0
  -31.4720  -12.7901   19.2216 H   0  0  0  0  0  0
  -30.4202  -11.6946   20.0658 H   0  0  0  0  0  0
  -29.8711  -11.7513   17.6065 H   0  0  0  0  0  0
  -29.6089  -13.4743   17.6923 H   0  0  0  0  0  0
  -27.9772  -11.2791   19.0023 H   0  0  0  0  0  0
  -27.4014  -12.4307   17.8230 H   0  0  0  0  0  0
  -27.5805  -14.2527   19.3951 H   0  0  0  0  0  0
  -28.7664  -12.3516   21.4748 H   0  0  0  0  0  0
  -28.3456  -14.0255   21.7477 H   0  0  0  0  0  0
  -25.2767   -9.5713   22.4752 H   0  0  0  0  0  0
  -24.0027   -7.4643   22.7471 H   0  0  0  0  0  0
  -21.0842   -8.8773   19.8964 H   0  0  0  0  0  0
  -22.3682  -10.9681   19.6182 H   0  0  0  0  0  0
  -21.2017   -7.6156   23.9716 H   0  0  0  0  0  0
  -21.1496   -6.0525   25.9073 H   0  0  0  0  0  0
  -22.0591   -2.7613   23.2825 H   0  0  0  0  0  0
  -22.4061  -11.9931   22.4876 H   0  0  0  0  0  0
  -21.1058  -13.1276   22.2590 H   0  0  0  0  0  0
  -24.6389  -15.8408   20.5028 H   0  0  0  0  0  0
  -26.2529  -15.6266   20.0460 H   0  0  0  0  0  0
  -26.7316  -32.5214   23.0964 H   0  0  0  0  0  0
  -25.0052  -33.9560   25.0264 H   0  0  0  0  0  0
  -22.7655  -31.2838   21.3724 H   0  0  0  0  0  0
  -23.3761  -35.9553   23.3271 H   0  0  0  0  0  0
  -24.3584  -36.8908   22.2069 H   0  0  0  0  0  0
  -23.7226  -37.6405   23.6712 H   0  0  0  0  0  0
  -26.1943  -31.4308   20.6260 H   0  0  0  0  0  0
  -26.8854  -30.7288   22.0495 H   0  0  0  0  0  0
  -28.1384  -28.7114   21.2541 H   0  0  0  0  0  0
  -25.8754  -25.8119   18.9909 H   0  0  0  0  0  0
  -23.9814  -27.2913   18.9704 H   0  0  0  0  0  0
  -23.8418  -30.5549   19.3986 H   0  0  0  0  0  0
  -22.8011  -29.2338   19.8363 H   0  0  0  0  0  0
  -25.1315  -36.1827   25.0799 H   0  0  0  0  0  0
  -21.0019  -28.3329   24.1326 H   0  0  0  0  0  0
  -20.5638  -26.2353   23.3634 H   0  0  0  0  0  0
  -21.6655  -26.7391   22.1228 H   0  0  0  0  0  0
  -19.6926  -25.6268   21.1263 H   0  0  0  0  0  0
  -19.6708  -27.3148   20.6699 H   0  0  0  0  0  0
  -17.4216  -26.6666   21.4019 H   0  0  0  0  0  0
  -18.0360  -26.0074   22.9016 H   0  0  0  0  0  0
  -19.7957  -30.7292   24.2227 H   0  0  0  0  0  0
  -17.5026  -31.6261   24.5161 H   0  0  0  0  0  0
  -15.5365  -30.2964   23.7664 H   0  0  0  0  0  0
  -15.8698  -28.0787   22.7102 H   0  0  0  0  0  0
  -24.5886  -30.7093   25.7711 H   0  0  0  0  0  0
  -24.8832  -32.2949   26.4723 H   0  0  0  0  0  0
  -25.7934  -30.9004   27.0246 H   0  0  0  0  0  0
  -26.3018  -29.6642   24.1367 H   0  0  0  0  0  0
  -27.3938  -29.7252   25.4988 H   0  0  0  0  0  0
  -27.8966  -30.4122   23.9749 H   0  0  0  0  0  0
  -27.2677  -33.3649   26.2011 H   0  0  0  0  0  0
  -28.3901  -32.6826   25.0339 H   0  0  0  0  0  0
  -28.0706  -31.8483   26.5462 H   0  0  0  0  0  0
  -28.2560  -38.0096   24.7538 H   0  0  0  0  0  0
  -28.1114  -36.2625   24.6220 H   0  0  0  0  0  0
  -27.2310  -37.1340   25.8855 H   0  0  0  0  0  0
  -20.9516  -29.8769   21.6748 H   0  0  0  0  0  0
  -26.0140  -38.2790   24.1439 H   0  0  0  0  0  0
  -31.4137  -19.2410   17.4098 H   0  0  0  0  0  0
  -28.5561  -18.9298   21.3693 H   0  0  0  0  0  0
  -30.7032  -21.3148   16.8704 H   0  0  0  0  0  0
  -31.1207  -22.2715   18.2787 H   0  0  0  0  0  0
  -29.4345  -22.1503   17.7230 H   0  0  0  0  0  0
  -27.0650  -24.2544   20.8716 H   0  0  0  0  0  0
  -27.3858  -24.2984   19.1687 H   0  0  0  0  0  0
  -27.6385  -21.6012   20.5057 H   0  0  0  0  0  0
  -28.8233  -16.0637   20.9538 H   0  0  0  0  0  0
  1 25  1  0  0  0
  1 30  2  0  0  0
  1 81  1  0  0  0
  2  3  1  0  0  0
  2 25  1  0  0  0
  2 84  1  0  0  0
  2 85  1  0  0  0
  3  4  1  0  0  0
  3 86  1  0  0  0
  3 87  1  0  0  0
  4  5  1  0  0  0
  4 88  1  0  0  0
  4 89  1  0  0  0
  5  6  1  0  0  0
  5 26  1  0  0  0
  5 90  1  0  0  0
  6 25  1  0  0  0
  6 91  1  0  0  0
  6 92  1  0  0  0
  7  8  2  0  0  0
  7 26  1  0  0  0
  7 29  1  0  0  0
  8  9  1  0  0  0
  8 22  1  0  0  0
  9 10  1  0  0  0
  9 27  2  0  0  0
 10 11  2  0  0  0
 10 15  1  0  0  0
 11 12  1  0  0  0
 11 93  1  0  0  0
 12 13  2  0  0  0
 12 94  1  0  0  0
 13 14  1  0  0  0
 13 31  1  0  0  0
 14 15  2  0  0  0
 14 95  1  0  0  0
 15 96  1  0  0  0
 16 17  2  0  0  0
 16 21  1  0  0  0
 16 31  1  0  0  0
 17 18  1  0  0  0
 17 97  1  0  0  0
 18 19  2  0  0  0
 18 98  1  0  0  0
 19 20  1  0  0  0
 19 24  1  0  0  0
 20 21  2  0  0  0
 20 99  1  0  0  0
 21 23  1  0  0  0
 22 28  1  0  0  0
 22 32  2  0  0  0
 26 27  1  0  0  0
 28100  1  0  0  0
 28101  1  0  0  0
 29102  1  0  0  0
 29103  1  0  0  0
 33 34  1  0  0  0
 33 66  1  0  0  0
 33 70  2  0  0  0
 34 36  1  0  0  0
 34 59  1  0  0  0
 34104  1  0  0  0
 35 44  2  0  0  0
 35 45  1  0  0  0
 35 68  1  0  0  0
 36 56  1  0  0  0
 36105  1  0  0  0
 37 39  1  0  0  0
 37 47  1  0  0  0
 37 66  1  0  0  0
 37106  1  0  0  0
 38 43  2  0  0  0
 38 46  1  0  0  0
 38 47  1  0  0  0
 39 64  1  0  0  0
 39 67  2  0  0  0
 40 52  1  0  0  0
 40 53  2  0  0  0
 40 58  1  0  0  0
 41107  1  0  0  0
 41108  1  0  0  0
 41109  1  0  0  0
 41 48  1  0  0  0
 42 43  1  0  0  0
 42 66  1  0  0  0
 42110  1  0  0  0
 42111  1  0  0  0
 43 44  1  0  0  0
 44112  1  0  0  0
 45 46  2  0  0  0
 45113  1  0  0  0
 46114  1  0  0  0
 47115  1  0  0  0
 47116  1  0  0  0
 48 56  1  0  0  0
 48 65  1  0  0  0
 48117  1  0  0  0
 49 50  1  0  0  0
 49 53  1  0  0  0
 49 64  1  0  0  0
 49118  1  0  0  0
 50 51  1  0  0  0
 50119  1  0  0  0
 50120  1  0  0  0
 51 52  1  0  0  0
 51121  1  0  0  0
 51122  1  0  0  0
 52123  1  0  0  0
 52124  1  0  0  0
 53 54  1  0  0  0
 54 55  2  0  0  0
 54125  1  0  0  0
 55 57  1  0  0  0
 55126  1  0  0  0
 56 69  2  0  0  0
 57 58  2  0  0  0
 57127  1  0  0  0
 58128  1  0  0  0
 59 60  1  0  0  0
 59 61  1  0  0  0
 59 62  1  0  0  0
 60129  1  0  0  0
 60130  1  0  0  0
 60131  1  0  0  0
 61132  1  0  0  0
 61133  1  0  0  0
 61134  1  0  0  0
 62135  1  0  0  0
 62136  1  0  0  0
 62137  1  0  0  0
 63 65  1  0  0  0
 63138  1  0  0  0
 63139  1  0  0  0
 63140  1  0  0  0
 64141  1  0  0  0
 65142  1  0  0  0
 68 79  1  0  0  0
 71 73  2  0  0  0
 71 76  1  0  0  0
 71143  1  0  0  0
 72 74  2  0  0  0
 72 75  1  0  0  0
 72144  1  0  0  0
 73 74  1  0  0  0
 73 78  1  0  0  0
 74 80  1  0  0  0
 75 76  2  0  0  0
 75 81  1  0  0  0
 76 83  1  0  0  0
 77 79  1  0  0  0
 77 80  1  0  0  0
 77 82  2  0  0  0
 78145  1  0  0  0
 78146  1  0  0  0
 78147  1  0  0  0
 79148  1  0  0  0
 79149  1  0  0  0
 80150  1  0  0  0
 81151  1  0  0  0
M  ISO  4   1 100  68 101  79 101  81 100
M  END
> <chiral flag>
0

> <version>
0

> <s_m_source_file>
/data/baiqing/PycharmProjects/Reinvent-master-3.2/result/LINK_invent/BTK/process_docking_weight1_custom_product_contain_oxygen_bond_distance_aromatic_linkinvent_7_9_3/rearranged_h_0068.sdf

> <i_m_source_file_index>
15

> <r_mmod_Potential_Energy-OPLS-2005>
655.928833007812

> <r_mmod_Stretch_Energy-OPLS-2005>
352.629241943359

> <r_mmod_Bend_Energy-OPLS-2005>
279.099029541016

> <r_mmod_Torsional_Energy-OPLS-2005>
255.151596069336

> <r_mmod_Improper_Torsional_Energy-OPLS-2005>
4.77287435531616

> <r_mmod_Van_der_Waal_Energy-OPLS-2005>
142.491271972656

> <r_mmod_Electrostatic_Energy-OPLS-2005>
-393.217834472656

> <r_mmod_Solvation_Energy-OPLS-2005>
-253.993560791016

> <b_mmod_Minimization_Converged-OPLS-2005>
0

> <r_mmod_RMS_Derivative-OPLS-2005>
1.94975662231445

$$$$
15
                    3D
 Structure written by MMmdl.
150158  0  0  1  0            999 V2000
  -30.5847  -14.8597   20.4446 C   0  0  0  0  0  0
  -30.4328  -12.5263   19.5032 C   0  0  0  0  0  0
  -29.5228  -12.5200   18.2532 C   0  0  0  0  0  0
  -28.0481  -12.3298   18.6591 C   0  0  0  0  0  0
  -27.6327  -13.2462   19.8405 C   0  0  2  0  0  0
  -28.6709  -13.2396   20.9840 C   0  0  0  0  0  0
  -25.2459  -13.8220   20.5695 C   0  0  0  0  0  0
  -24.1766  -13.0449   20.9205 C   0  0  0  0  0  0
  -24.6369  -11.6936   20.8731 C   0  0  0  0  0  0
  -23.9058  -10.4304   21.0399 C   0  0  0  0  0  0
  -24.3619   -9.4222   21.9177 C   0  0  0  0  0  0
  -23.6299   -8.2252   22.0747 C   0  0  0  0  0  0
  -22.4273   -8.0275   21.3550 C   0  0  0  0  0  0
  -21.9896   -9.0247   20.4660 C   0  0  0  0  0  0
  -22.7219  -10.2130   20.3064 C   0  0  0  0  0  0
  -21.6855   -6.0736   22.5275 C   0  0  0  0  0  0
  -21.4020   -6.5637   23.8210 C   0  0  0  0  0  0
  -21.3666   -5.6788   24.9172 C   0  0  0  0  0  0
  -21.6039   -4.3049   24.7222 C   0  0  0  0  0  0
  -21.8820   -3.8144   23.4344 C   0  0  0  0  0  0
  -21.9194   -4.6965   22.3403 C   0  0  0  0  0  0
  -22.7789  -13.5223   21.1871 C   0  0  0  0  0  0
  -22.1662   -4.2155   21.0982 F   0  0  0  0  0  0
  -21.5623   -3.4531   25.7737 F   0  0  0  0  0  0
  -29.9641  -13.6173   20.4005 N   0  0  0  0  0  0
  -26.2882  -12.9454   20.3215 N   0  0  0  0  0  0
  -25.9298  -11.6582   20.5695 N   0  0  0  0  0  0
  -22.0431  -12.8241   22.0443 N   0  0  0  0  0  0
  -25.4127  -15.1945   20.4152 N   0  0  0  0  0  0
  -31.7831  -14.9031   20.1510 O   0  0  0  0  0  0
  -21.6640   -6.8871   21.4234 O   0  0  0  0  0  0
  -22.3483  -14.5527   20.6705 O   0  0  0  0  0  0
  -24.6390  -31.8490   23.1928 C   0  0  0  0  0  0
  -25.9189  -32.4717   23.8302 C   0  0  1  0  0  0
  -27.2093  -27.1787   20.1567 C   0  0  0  0  0  0
  -25.5952  -33.8521   24.2215 N   0  0  0  0  0  0
  -23.4396  -30.4722   21.5368 C   0  0  2  0  0  0
  -24.8861  -28.9049   20.1137 C   0  0  0  0  0  0
  -22.7551  -29.4580   22.4862 C   0  0  0  0  0  0
  -18.0304  -28.1397   22.8466 C   0  0  0  0  0  0
  -24.1494  -36.7271   23.2636 C   0  0  0  0  0  0
  -25.9931  -30.7350   21.3876 C   0  0  0  0  0  0
  -26.0618  -29.3512   20.7305 C   0  0  0  0  0  0
  -27.2272  -28.5039   20.7342 C   0  0  0  0  0  0
  -26.0129  -26.8279   19.4935 C   0  0  0  0  0  0
  -24.8716  -27.6544   19.4809 C   0  0  0  0  0  0
  -23.6634  -29.8044   20.1546 C   0  0  0  0  0  0
  -25.4112  -36.3038   24.0317 C   0  0  1  0  0  0
  -20.5913  -28.3721   23.1228 C   0  0  2  0  0  0
  -20.6790  -26.9424   22.5397 C   0  0  0  0  0  0
  -19.5764  -26.6377   21.5204 C   0  0  0  0  0  0
  -18.1944  -26.7933   22.1619 C   0  0  0  0  0  0
  -19.1562  -28.8878   23.2840 C   0  0  0  0  0  0
  -18.9487  -30.1475   23.8868 C   0  0  0  0  0  0
  -17.6484  -30.6589   24.0564 C   0  0  0  0  0  0
  -25.9069  -34.9414   23.5075 C   0  0  0  0  0  0
  -16.5370  -29.9083   23.6334 C   0  0  0  0  0  0
  -16.7293  -28.6505   23.0344 C   0  0  0  0  0  0
  -26.4518  -31.6579   25.0740 C   0  0  0  0  0  0
  -25.3707  -31.3788   26.1445 C   0  0  0  0  0  0
  -27.0380  -30.2967   24.6332 C   0  0  0  0  0  0
  -27.6029  -32.4359   25.7525 C   0  0  0  0  0  0
  -27.5580  -37.1774   24.8448 C   0  0  0  0  0  0
  -21.4248  -29.3056   22.3606 N   0  0  0  0  0  0
  -26.4275  -37.3750   23.9426 N   0  0  0  0  0  0
  -24.7101  -31.0391   22.0935 N   0  0  0  0  0  0
  -23.4206  -28.8125   23.3001 O   0  0  0  0  0  0
  -28.2715  -26.2203   20.2071 O   0  0  0  0  0  0
  -26.5653  -34.8909   22.4650 O   0  0  0  0  0  0
  -23.5526  -32.1341   23.7181 O   0  0  0  0  0  0
  -31.5803  -19.2413   19.3803 C   0  0  0  0  0  0
  -31.2847  -17.8959   19.7025 C   0  0  0  0  0  0
  -30.7112  -20.3072   19.7030 C   0  0  0  0  0  0
  -29.2159  -18.6537   20.7000 C   0  0  0  0  0  0
  -30.0962  -17.5122   20.3748 C   0  0  0  0  0  0
  -29.5010  -20.0658   20.3727 C   0  0  0  0  0  0
  -27.9700  -24.7334   20.4885 C   0  0  0  0  0  0
  -28.9685  -23.4340   20.2360 C   0  0  0  0  0  0
  -29.8250  -16.0357   20.6444 N   0  0  0  0  0  0
  -27.1254  -21.3641   20.0096 O   0  0  0  0  0  0
  -28.2444  -21.6306   22.2255 O   0  0  0  0  0  0
  -28.3746  -21.5988   20.7569 S   0  0  0  0  0  0
  -31.4760  -12.6536   19.2074 H   0  0  0  0  0  0
  -30.3903  -11.5663   20.0198 H   0  0  0  0  0  0
  -29.8258  -11.7278   17.5664 H   0  0  0  0  0  0
  -29.6386  -13.4563   17.7060 H   0  0  0  0  0  0
  -27.9181  -11.2835   18.9378 H   0  0  0  0  0  0
  -27.3978  -12.5010   17.7997 H   0  0  0  0  0  0
  -27.6099  -14.2569   19.4320 H   0  0  0  0  0  0
  -28.7252  -12.2595   21.4599 H   0  0  0  0  0  0
  -28.3813  -13.9429   21.7658 H   0  0  0  0  0  0
  -25.2770   -9.5705   22.4748 H   0  0  0  0  0  0
  -24.0026   -7.4638   22.7447 H   0  0  0  0  0  0
  -21.0837   -8.8770   19.8958 H   0  0  0  0  0  0
  -22.3678  -10.9673   19.6185 H   0  0  0  0  0  0
  -21.2018   -7.6144   23.9721 H   0  0  0  0  0  0
  -21.1482   -6.0514   25.9077 H   0  0  0  0  0  0
  -22.0592   -2.7605   23.2837 H   0  0  0  0  0  0
  -22.4062  -11.9963   22.4925 H   0  0  0  0  0  0
  -21.1031  -13.1258   22.2599 H   0  0  0  0  0  0
  -24.6375  -15.8404   20.5242 H   0  0  0  0  0  0
  -26.2516  -15.6382   20.0641 H   0  0  0  0  0  0
  -26.7263  -32.5335   23.1044 H   0  0  0  0  0  0
  -25.0057  -33.9652   25.0338 H   0  0  0  0  0  0
  -22.7396  -31.2962   21.3864 H   0  0  0  0  0  0
  -23.3763  -35.9594   23.3250 H   0  0  0  0  0  0
  -24.3583  -36.8963   22.2061 H   0  0  0  0  0  0
  -23.7253  -37.6452   23.6709 H   0  0  0  0  0  0
  -26.1503  -31.4913   20.6174 H   0  0  0  0  0  0
  -26.8625  -30.7786   22.0312 H   0  0  0  0  0  0
  -28.1259  -28.8386   21.2337 H   0  0  0  0  0  0
  -25.9284  -25.8844   18.9777 H   0  0  0  0  0  0
  -23.9750  -27.3084   18.9841 H   0  0  0  0  0  0
  -23.8011  -30.5793   19.3998 H   0  0  0  0  0  0
  -22.7777  -29.2471   19.8428 H   0  0  0  0  0  0
  -25.1291  -36.1850   25.0804 H   0  0  0  0  0  0
  -21.0005  -28.3325   24.1350 H   0  0  0  0  0  0
  -20.5674  -26.2344   23.3624 H   0  0  0  0  0  0
  -21.6664  -26.7427   22.1214 H   0  0  0  0  0  0
  -19.6927  -25.6275   21.1265 H   0  0  0  0  0  0
  -19.6701  -27.3164   20.6713 H   0  0  0  0  0  0
  -17.4208  -26.6670   21.4029 H   0  0  0  0  0  0
  -18.0351  -26.0083   22.9026 H   0  0  0  0  0  0
  -19.7960  -30.7303   24.2219 H   0  0  0  0  0  0
  -17.5035  -31.6268   24.5178 H   0  0  0  0  0  0
  -15.5370  -30.2983   23.7679 H   0  0  0  0  0  0
  -15.8691  -28.0831   22.7058 H   0  0  0  0  0  0
  -24.5824  -30.7213   25.7775 H   0  0  0  0  0  0
  -24.8979  -32.2993   26.4874 H   0  0  0  0  0  0
  -25.7979  -30.8933   27.0232 H   0  0  0  0  0  0
  -26.3013  -29.6686   24.1314 H   0  0  0  0  0  0
  -27.3954  -29.7269   25.4927 H   0  0  0  0  0  0
  -27.8939  -30.4195   23.9689 H   0  0  0  0  0  0
  -27.2576  -33.3636   26.2108 H   0  0  0  0  0  0
  -28.3831  -32.6977   25.0363 H   0  0  0  0  0  0
  -28.0718  -31.8505   26.5453 H   0  0  0  0  0  0
  -28.2543  -38.0122   24.7544 H   0  0  0  0  0  0
  -28.1136  -36.2656   24.6193 H   0  0  0  0  0  0
  -27.2320  -37.1326   25.8855 H   0  0  0  0  0  0
  -20.9446  -29.8772   21.6797 H   0  0  0  0  0  0
  -26.0136  -38.2813   24.1450 H   0  0  0  0  0  0
  -32.5015  -19.4634   18.8601 H   0  0  0  0  0  0
  -32.0120  -17.1590   19.3981 H   0  0  0  0  0  0
  -30.9745  -21.3197   19.4315 H   0  0  0  0  0  0
  -28.2877  -18.4582   21.2159 H   0  0  0  0  0  0
  -27.7167  -24.7104   21.5485 H   0  0  0  0  0  0
  -27.0417  -24.4562   19.9991 H   0  0  0  0  0  0
  -29.9136  -23.5971   20.7497 H   0  0  0  0  0  0
  -29.2113  -23.3721   19.1774 H   0  0  0  0  0  0
  -28.8838  -15.8363   20.9490 H   0  0  0  0  0  0
  1 25  1  0  0  0
  1 30  2  0  0  0
  1 79  1  0  0  0
  2  3  1  0  0  0
  2 25  1  0  0  0
  2 83  1  0  0  0
  2 84  1  0  0  0
  3  4  1  0  0  0
  3 85  1  0  0  0
  3 86  1  0  0  0
  4  5  1  0  0  0
  4 87  1  0  0  0
  4 88  1  0  0  0
  5  6  1  0  0  0
  5 26  1  0  0  0
  5 89  1  0  0  0
  6 25  1  0  0  0
  6 90  1  0  0  0
  6 91  1  0  0  0
  7  8  2  0  0  0
  7 26  1  0  0  0
  7 29  1  0  0  0
  8  9  1  0  0  0
  8 22  1  0  0  0
  9 10  1  0  0  0
  9 27  2  0  0  0
 10 11  2  0  0  0
 10 15  1  0  0  0
 11 12  1  0  0  0
 11 92  1  0  0  0
 12 13  2  0  0  0
 12 93  1  0  0  0
 13 14  1  0  0  0
 13 31  1  0  0  0
 14 15  2  0  0  0
 14 94  1  0  0  0
 15 95  1  0  0  0
 16 17  2  0  0  0
 16 21  1  0  0  0
 16 31  1  0  0  0
 17 18  1  0  0  0
 17 96  1  0  0  0
 18 19  2  0  0  0
 18 97  1  0  0  0
 19 20  1  0  0  0
 19 24  1  0  0  0
 20 21  2  0  0  0
 20 98  1  0  0  0
 21 23  1  0  0  0
 22 28  1  0  0  0
 22 32  2  0  0  0
 26 27  1  0  0  0
 28 99  1  0  0  0
 28100  1  0  0  0
 29101  1  0  0  0
 29102  1  0  0  0
 33 34  1  0  0  0
 33 66  1  0  0  0
 33 70  2  0  0  0
 34 36  1  0  0  0
 34 59  1  0  0  0
 34103  1  0  0  0
 35 44  2  0  0  0
 35 45  1  0  0  0
 35 68  1  0  0  0
 36 56  1  0  0  0
 36104  1  0  0  0
 37 39  1  0  0  0
 37 47  1  0  0  0
 37 66  1  0  0  0
 37105  1  0  0  0
 38 43  2  0  0  0
 38 46  1  0  0  0
 38 47  1  0  0  0
 39 64  1  0  0  0
 39 67  2  0  0  0
 40 52  1  0  0  0
 40 53  2  0  0  0
 40 58  1  0  0  0
 41106  1  0  0  0
 41107  1  0  0  0
 41108  1  0  0  0
 41 48  1  0  0  0
 42 43  1  0  0  0
 42 66  1  0  0  0
 42109  1  0  0  0
 42110  1  0  0  0
 43 44  1  0  0  0
 44111  1  0  0  0
 45 46  2  0  0  0
 45112  1  0  0  0
 46113  1  0  0  0
 47114  1  0  0  0
 47115  1  0  0  0
 48 56  1  0  0  0
 48 65  1  0  0  0
 48116  1  0  0  0
 49 50  1  0  0  0
 49 53  1  0  0  0
 49 64  1  0  0  0
 49117  1  0  0  0
 50 51  1  0  0  0
 50118  1  0  0  0
 50119  1  0  0  0
 51 52  1  0  0  0
 51120  1  0  0  0
 51121  1  0  0  0
 52122  1  0  0  0
 52123  1  0  0  0
 53 54  1  0  0  0
 54 55  2  0  0  0
 54124  1  0  0  0
 55 57  1  0  0  0
 55125  1  0  0  0
 56 69  2  0  0  0
 57 58  2  0  0  0
 57126  1  0  0  0
 58127  1  0  0  0
 59 60  1  0  0  0
 59 61  1  0  0  0
 59 62  1  0  0  0
 60128  1  0  0  0
 60129  1  0  0  0
 60130  1  0  0  0
 61131  1  0  0  0
 61132  1  0  0  0
 61133  1  0  0  0
 62134  1  0  0  0
 62135  1  0  0  0
 62136  1  0  0  0
 63 65  1  0  0  0
 63137  1  0  0  0
 63138  1  0  0  0
 63139  1  0  0  0
 64140  1  0  0  0
 65141  1  0  0  0
 68 77  1  0  0  0
 71 72  2  0  0  0
 71 73  1  0  0  0
 71142  1  0  0  0
 72 75  1  0  0  0
 72143  1  0  0  0
 73 76  2  0  0  0
 73144  1  0  0  0
 74 75  2  0  0  0
 74 76  1  0  0  0
 74145  1  0  0  0
 75 79  1  0  0  0
 76 82  1  0  0  0
 77 78  1  0  0  0
 77146  1  0  0  0
 77147  1  0  0  0
 78148  1  0  0  0
 78149  1  0  0  0
 78 82  1  0  0  0
 79150  1  0  0  0
 80 82  2  0  0  0
 81 82  2  0  0  0
M  ISO  4   1 100  68 101  77 101  79 100
M  END
> <chiral flag>
0

> <version>
0

> <s_m_source_file>
/data/baiqing/PycharmProjects/Reinvent-master-3.2/result/LINK_invent/BTK/process_docking_weight1_custom_product_contain_oxygen_bond_distance_aromatic_linkinvent_7_9_3/rearranged_h_0068.sdf

> <i_m_source_file_index>
16

> <r_mmod_Potential_Energy-OPLS-2005>
222.061614990234

> <r_mmod_Stretch_Energy-OPLS-2005>
202.080871582031

> <r_mmod_Bend_Energy-OPLS-2005>
213.536956787109

> <r_mmod_Torsional_Energy-OPLS-2005>
231.685348510742

> <r_mmod_Improper_Torsional_Energy-OPLS-2005>
3.79091119766235

> <r_mmod_Van_der_Waal_Energy-OPLS-2005>
132.320205688477

> <r_mmod_Electrostatic_Energy-OPLS-2005>
-437.516235351562

> <r_mmod_Solvation_Energy-OPLS-2005>
-267.512329101562

> <b_mmod_Minimization_Converged-OPLS-2005>
0

> <r_mmod_RMS_Derivative-OPLS-2005>
2.31458735466003

$$$$
16
                    3D
 Structure written by MMmdl.
151159  0  0  1  0            999 V2000
  -30.5802  -14.8109   20.4454 C   0  0  0  0  0  0
  -30.4380  -12.5009   19.4656 C   0  0  0  0  0  0
  -29.5097  -12.5059   18.2317 C   0  0  0  0  0  0
  -28.0384  -12.3169   18.6530 C   0  0  0  0  0  0
  -27.6342  -13.2316   19.8398 C   0  0  2  0  0  0
  -28.6820  -13.2018   20.9709 C   0  0  0  0  0  0
  -25.2488  -13.8191   20.5688 C   0  0  0  0  0  0
  -24.1790  -13.0434   20.9215 C   0  0  0  0  0  0
  -24.6383  -11.6911   20.8761 C   0  0  0  0  0  0
  -23.9065  -10.4284   21.0416 C   0  0  0  0  0  0
  -24.3617   -9.4197   21.9191 C   0  0  0  0  0  0
  -23.6285   -8.2236   22.0759 C   0  0  0  0  0  0
  -22.4273   -8.0278   21.3543 C   0  0  0  0  0  0
  -21.9907   -9.0252   20.4648 C   0  0  0  0  0  0
  -22.7237  -10.2128   20.3056 C   0  0  0  0  0  0
  -21.6859   -6.0734   22.5276 C   0  0  0  0  0  0
  -21.4011   -6.5635   23.8207 C   0  0  0  0  0  0
  -21.3660   -5.6791   24.9172 C   0  0  0  0  0  0
  -21.6040   -4.3052   24.7225 C   0  0  0  0  0  0
  -21.8824   -3.8143   23.4347 C   0  0  0  0  0  0
  -21.9187   -4.6959   22.3400 C   0  0  0  0  0  0
  -22.7809  -13.5213   21.1872 C   0  0  0  0  0  0
  -22.1661   -4.2142   21.0981 F   0  0  0  0  0  0
  -21.5628   -3.4538   25.7739 F   0  0  0  0  0  0
  -29.9667  -13.5760   20.3693 N   0  0  0  0  0  0
  -26.2903  -12.9394   20.3246 N   0  0  0  0  0  0
  -25.9310  -11.6541   20.5749 N   0  0  0  0  0  0
  -22.0454  -12.8204   22.0430 N   0  0  0  0  0  0
  -25.4150  -15.1920   20.4105 N   0  0  0  0  0  0
  -31.7920  -14.8890   20.2218 O   0  0  0  0  0  0
  -21.6639   -6.8876   21.4238 O   0  0  0  0  0  0
  -22.3490  -14.5516   20.6714 O   0  0  0  0  0  0
  -24.6356  -31.8505   23.1953 C   0  0  0  0  0  0
  -25.9149  -32.4746   23.8317 C   0  0  1  0  0  0
  -27.2153  -27.2214   20.1494 C   0  0  0  0  0  0
  -25.5917  -33.8551   24.2230 N   0  0  0  0  0  0
  -23.4345  -30.4714   21.5399 C   0  0  2  0  0  0
  -24.8808  -28.9042   20.1209 C   0  0  0  0  0  0
  -22.7518  -29.4583   22.4917 C   0  0  0  0  0  0
  -18.0289  -28.1389   22.8482 C   0  0  0  0  0  0
  -24.1476  -36.7274   23.2643 C   0  0  0  0  0  0
  -25.9813  -30.7528   21.3772 C   0  0  0  0  0  0
  -26.0548  -29.3680   20.7280 C   0  0  0  0  0  0
  -27.2283  -28.5411   20.7277 C   0  0  0  0  0  0
  -26.0181  -26.8272   19.5188 C   0  0  0  0  0  0
  -24.8681  -27.6422   19.5052 C   0  0  0  0  0  0
  -23.6560  -29.7999   20.1590 C   0  0  0  0  0  0
  -25.4107  -36.3070   24.0329 C   0  0  1  0  0  0
  -20.5896  -28.3699   23.1257 C   0  0  2  0  0  0
  -20.6783  -26.9413   22.5410 C   0  0  0  0  0  0
  -19.5755  -26.6386   21.5216 C   0  0  0  0  0  0
  -18.1936  -26.7929   22.1628 C   0  0  0  0  0  0
  -19.1545  -28.8863   23.2862 C   0  0  0  0  0  0
  -18.9469  -30.1465   23.8883 C   0  0  0  0  0  0
  -17.6467  -30.6593   24.0564 C   0  0  0  0  0  0
  -25.9055  -34.9445   23.5089 C   0  0  0  0  0  0
  -16.5354  -29.9088   23.6342 C   0  0  0  0  0  0
  -16.7277  -28.6505   23.0363 C   0  0  0  0  0  0
  -26.4495  -31.6591   25.0726 C   0  0  0  0  0  0
  -25.3695  -31.3759   26.1427 C   0  0  0  0  0  0
  -27.0350  -30.3008   24.6229 C   0  0  0  0  0  0
  -27.6036  -32.4340   25.7501 C   0  0  0  0  0  0
  -27.5573  -37.1794   24.8467 C   0  0  0  0  0  0
  -21.4222  -29.3036   22.3641 N   0  0  0  0  0  0
  -26.4279  -37.3777   23.9418 N   0  0  0  0  0  0
  -24.7038  -31.0438   22.0944 N   0  0  0  0  0  0
  -23.4196  -28.8147   23.3054 O   0  0  0  0  0  0
  -28.2979  -26.3051   20.1265 O   0  0  0  0  0  0
  -26.5648  -34.8928   22.4668 O   0  0  0  0  0  0
  -23.5492  -32.1337   23.7219 O   0  0  0  0  0  0
  -29.4114  -18.6057   20.3173 C   0  0  0  0  0  0
  -31.0576  -17.6178   21.8148 C   0  0  0  0  0  0
  -30.0811  -17.3936   20.8227 C   0  0  0  0  0  0
  -29.6925  -19.9741   20.7850 C   0  0  0  0  0  0
  -30.6833  -20.0579   21.8016 C   0  0  0  0  0  0
  -31.3414  -18.9089   22.2964 C   0  0  0  0  0  0
  -28.7523  -23.7719   20.1428 C   0  0  0  0  0  0
  -28.1494  -24.9521   20.5970 C   0  0  0  0  0  0
  -28.6569  -22.4113   20.8223 C   0  0  0  0  0  0
  -31.0771  -21.2825   22.3433 N   0  0  0  0  0  0
  -29.1736  -21.2682   20.2015 N   0  0  0  0  0  0
  -29.7782  -15.9627   20.4750 N   0  0  0  0  0  0
  -28.1373  -22.2909   21.9343 O   0  0  0  0  0  0
  -32.2761  -19.0557   23.2694 F   0  0  0  0  0  0
  -31.4732  -12.6503   19.1548 H   0  0  0  0  0  0
  -30.4111  -11.5338   19.9701 H   0  0  0  0  0  0
  -29.8016  -11.7190   17.5349 H   0  0  0  0  0  0
  -29.6185  -13.4489   17.6941 H   0  0  0  0  0  0
  -27.9098  -11.2710   18.9354 H   0  0  0  0  0  0
  -27.3753  -12.4841   17.8028 H   0  0  0  0  0  0
  -27.6144  -14.2444   19.4382 H   0  0  0  0  0  0
  -28.7399  -12.2126   21.4275 H   0  0  0  0  0  0
  -28.4104  -13.8962   21.7686 H   0  0  0  0  0  0
  -25.2764   -9.5677   22.4766 H   0  0  0  0  0  0
  -23.9996   -7.4630   22.7480 H   0  0  0  0  0  0
  -21.0838   -8.8769   19.8954 H   0  0  0  0  0  0
  -22.3695  -10.9669   19.6165 H   0  0  0  0  0  0
  -21.2008   -7.6145   23.9708 H   0  0  0  0  0  0
  -21.1475   -6.0524   25.9073 H   0  0  0  0  0  0
  -22.0603   -2.7605   23.2849 H   0  0  0  0  0  0
  -22.4073  -11.9866   22.4820 H   0  0  0  0  0  0
  -21.1071  -13.1222   22.2643 H   0  0  0  0  0  0
  -24.6439  -15.8415   20.5248 H   0  0  0  0  0  0
  -26.2539  -15.6363   20.0620 H   0  0  0  0  0  0
  -26.7207  -32.5380   23.1048 H   0  0  0  0  0  0
  -25.0034  -33.9683   25.0358 H   0  0  0  0  0  0
  -22.7344  -31.2961   21.3908 H   0  0  0  0  0  0
  -23.3757  -35.9587   23.3298 H   0  0  0  0  0  0
  -24.3560  -36.8907   22.2060 H   0  0  0  0  0  0
  -23.7212  -37.6465   23.6668 H   0  0  0  0  0  0
  -26.1183  -31.5064   20.6001 H   0  0  0  0  0  0
  -26.8588  -30.8081   22.0089 H   0  0  0  0  0  0
  -28.1322  -28.8983   21.2014 H   0  0  0  0  0  0
  -25.9691  -25.8552   19.0471 H   0  0  0  0  0  0
  -23.9668  -27.2800   19.0289 H   0  0  0  0  0  0
  -23.7898  -30.5734   19.4012 H   0  0  0  0  0  0
  -22.7729  -29.2368   19.8524 H   0  0  0  0  0  0
  -25.1291  -36.1912   25.0824 H   0  0  0  0  0  0
  -20.9973  -28.3273   24.1385 H   0  0  0  0  0  0
  -20.5683  -26.2307   23.3617 H   0  0  0  0  0  0
  -21.6652  -26.7440   22.1204 H   0  0  0  0  0  0
  -19.6916  -25.6295   21.1254 H   0  0  0  0  0  0
  -19.6702  -27.3194   20.6744 H   0  0  0  0  0  0
  -17.4209  -26.6668   21.4029 H   0  0  0  0  0  0
  -18.0332  -26.0075   22.9028 H   0  0  0  0  0  0
  -19.7949  -30.7284   24.2246 H   0  0  0  0  0  0
  -17.5028  -31.6276   24.5160 H   0  0  0  0  0  0
  -15.5358  -30.2990   23.7683 H   0  0  0  0  0  0
  -15.8674  -28.0829   22.7088 H   0  0  0  0  0  0
  -24.5873  -30.7106   25.7746 H   0  0  0  0  0  0
  -24.8889  -32.2945   26.4809 H   0  0  0  0  0  0
  -25.7989  -30.8966   27.0233 H   0  0  0  0  0  0
  -26.2948  -29.6755   24.1221 H   0  0  0  0  0  0
  -27.3989  -29.7272   25.4763 H   0  0  0  0  0  0
  -27.8836  -30.4289   23.9505 H   0  0  0  0  0  0
  -27.2629  -33.3647   26.2043 H   0  0  0  0  0  0
  -28.3856  -32.6885   25.0339 H   0  0  0  0  0  0
  -28.0672  -31.8490   26.5448 H   0  0  0  0  0  0
  -28.2591  -38.0094   24.7535 H   0  0  0  0  0  0
  -28.1069  -36.2631   24.6262 H   0  0  0  0  0  0
  -27.2296  -37.1405   25.8872 H   0  0  0  0  0  0
  -20.9414  -29.8742   21.6822 H   0  0  0  0  0  0
  -26.0155  -38.2845   24.1440 H   0  0  0  0  0  0
  -28.6661  -18.4877   19.5446 H   0  0  0  0  0  0
  -31.5924  -16.7893   22.2530 H   0  0  0  0  0  0
  -29.3786  -23.8421   19.2659 H   0  0  0  0  0  0
  -27.4927  -24.9274   21.4576 H   0  0  0  0  0  0
  -30.3124  -21.9383   22.4641 H   0  0  0  0  0  0
  -31.6178  -21.1807   23.1959 H   0  0  0  0  0  0
  -29.3863  -21.3912   19.2221 H   0  0  0  0  0  0
  -28.8008  -15.7680   20.3194 H   0  0  0  0  0  0
  1 25  1  0  0  0
  1 30  2  0  0  0
  1 82  1  0  0  0
  2  3  1  0  0  0
  2 25  1  0  0  0
  2 85  1  0  0  0
  2 86  1  0  0  0
  3  4  1  0  0  0
  3 87  1  0  0  0
  3 88  1  0  0  0
  4  5  1  0  0  0
  4 89  1  0  0  0
  4 90  1  0  0  0
  5  6  1  0  0  0
  5 26  1  0  0  0
  5 91  1  0  0  0
  6 25  1  0  0  0
  6 92  1  0  0  0
  6 93  1  0  0  0
  7  8  2  0  0  0
  7 26  1  0  0  0
  7 29  1  0  0  0
  8  9  1  0  0  0
  8 22  1  0  0  0
  9 10  1  0  0  0
  9 27  2  0  0  0
 10 11  2  0  0  0
 10 15  1  0  0  0
 11 12  1  0  0  0
 11 94  1  0  0  0
 12 13  2  0  0  0
 12 95  1  0  0  0
 13 14  1  0  0  0
 13 31  1  0  0  0
 14 15  2  0  0  0
 14 96  1  0  0  0
 15 97  1  0  0  0
 16 17  2  0  0  0
 16 21  1  0  0  0
 16 31  1  0  0  0
 17 18  1  0  0  0
 17 98  1  0  0  0
 18 19  2  0  0  0
 18 99  1  0  0  0
 19 20  1  0  0  0
 19 24  1  0  0  0
 20 21  2  0  0  0
 20100  1  0  0  0
 21 23  1  0  0  0
 22 28  1  0  0  0
 22 32  2  0  0  0
 26 27  1  0  0  0
 28101  1  0  0  0
 28102  1  0  0  0
 29103  1  0  0  0
 29104  1  0  0  0
 33 34  1  0  0  0
 33 66  1  0  0  0
 33 70  2  0  0  0
 34 36  1  0  0  0
 34 59  1  0  0  0
 34105  1  0  0  0
 35 44  2  0  0  0
 35 45  1  0  0  0
 35 68  1  0  0  0
 36 56  1  0  0  0
 36106  1  0  0  0
 37 39  1  0  0  0
 37 47  1  0  0  0
 37 66  1  0  0  0
 37107  1  0  0  0
 38 43  2  0  0  0
 38 46  1  0  0  0
 38 47  1  0  0  0
 39 64  1  0  0  0
 39 67  2  0  0  0
 40 52  1  0  0  0
 40 53  2  0  0  0
 40 58  1  0  0  0
 41108  1  0  0  0
 41109  1  0  0  0
 41110  1  0  0  0
 41 48  1  0  0  0
 42 43  1  0  0  0
 42 66  1  0  0  0
 42111  1  0  0  0
 42112  1  0  0  0
 43 44  1  0  0  0
 44113  1  0  0  0
 45 46  2  0  0  0
 45114  1  0  0  0
 46115  1  0  0  0
 47116  1  0  0  0
 47117  1  0  0  0
 48 56  1  0  0  0
 48 65  1  0  0  0
 48118  1  0  0  0
 49 50  1  0  0  0
 49 53  1  0  0  0
 49 64  1  0  0  0
 49119  1  0  0  0
 50 51  1  0  0  0
 50120  1  0  0  0
 50121  1  0  0  0
 51 52  1  0  0  0
 51122  1  0  0  0
 51123  1  0  0  0
 52124  1  0  0  0
 52125  1  0  0  0
 53 54  1  0  0  0
 54 55  2  0  0  0
 54126  1  0  0  0
 55 57  1  0  0  0
 55127  1  0  0  0
 56 69  2  0  0  0
 57 58  2  0  0  0
 57128  1  0  0  0
 58129  1  0  0  0
 59 60  1  0  0  0
 59 61  1  0  0  0
 59 62  1  0  0  0
 60130  1  0  0  0
 60131  1  0  0  0
 60132  1  0  0  0
 61133  1  0  0  0
 61134  1  0  0  0
 61135  1  0  0  0
 62136  1  0  0  0
 62137  1  0  0  0
 62138  1  0  0  0
 63 65  1  0  0  0
 63139  1  0  0  0
 63140  1  0  0  0
 63141  1  0  0  0
 64142  1  0  0  0
 65143  1  0  0  0
 68 78  1  0  0  0
 71 73  2  0  0  0
 71 74  1  0  0  0
 71144  1  0  0  0
 72 73  1  0  0  0
 72 76  2  0  0  0
 72145  1  0  0  0
 73 82  1  0  0  0
 74 75  2  0  0  0
 74 81  1  0  0  0
 75 76  1  0  0  0
 75 80  1  0  0  0
 76 84  1  0  0  0
 77 78  2  0  0  0
 77 79  1  0  0  0
 77146  1  0  0  0
 78147  1  0  0  0
 79 81  1  0  0  0
 79 83  2  0  0  0
 80148  1  0  0  0
 80149  1  0  0  0
 81150  1  0  0  0
 82151  1  0  0  0
M  ISO  4   1 100  68 101  78 101  82 100
M  END
> <chiral flag>
0

> <version>
0

> <s_m_source_file>
/data/baiqing/PycharmProjects/Reinvent-master-3.2/result/LINK_invent/BTK/process_docking_weight1_custom_product_contain_oxygen_bond_distance_aromatic_linkinvent_7_9_3/rearranged_h_0068.sdf

> <i_m_source_file_index>
17

> <r_mmod_Potential_Energy-OPLS-2005>
180.62223815918

> <r_mmod_Stretch_Energy-OPLS-2005>
150.438049316406

> <r_mmod_Bend_Energy-OPLS-2005>
166.91487121582

> <r_mmod_Torsional_Energy-OPLS-2005>
277.353668212891

> <r_mmod_Improper_Torsional_Energy-OPLS-2005>
14.1863689422607

> <r_mmod_Van_der_Waal_Energy-OPLS-2005>
142.313323974609

> <r_mmod_Electrostatic_Energy-OPLS-2005>
-452.829711914062

> <r_mmod_Solvation_Energy-OPLS-2005>
-233.044769287109

> <b_mmod_Minimization_Converged-OPLS-2005>
0

> <r_mmod_RMS_Derivative-OPLS-2005>
1.92533850669861

$$$$
17
                    3D
 Structure written by MMmdl.
157165  0  0  1  0            999 V2000
  -30.6656  -14.5346   20.4925 C   0  0  0  0  0  0
  -30.4257  -12.3241   19.4411 C   0  0  0  0  0  0
  -29.5017  -12.4973   18.2159 C   0  0  0  0  0  0
  -28.0220  -12.3561   18.6244 C   0  0  0  0  0  0
  -27.6572  -13.2119   19.8669 C   0  0  2  0  0  0
  -28.6993  -13.0338   20.9950 C   0  0  0  0  0  0
  -25.2571  -13.8171   20.5655 C   0  0  0  0  0  0
  -24.1832  -13.0447   20.9167 C   0  0  0  0  0  0
  -24.6394  -11.6917   20.8733 C   0  0  0  0  0  0
  -23.9065  -10.4302   21.0406 C   0  0  0  0  0  0
  -24.3617   -9.4215   21.9183 C   0  0  0  0  0  0
  -23.6294   -8.2248   22.0751 C   0  0  0  0  0  0
  -22.4272   -8.0285   21.3544 C   0  0  0  0  0  0
  -21.9903   -9.0261   20.4646 C   0  0  0  0  0  0
  -22.7235  -10.2141   20.3060 C   0  0  0  0  0  0
  -21.6858   -6.0735   22.5272 C   0  0  0  0  0  0
  -21.4021   -6.5638   23.8205 C   0  0  0  0  0  0
  -21.3661   -5.6785   24.9168 C   0  0  0  0  0  0
  -21.6045   -4.3048   24.7212 C   0  0  0  0  0  0
  -21.8824   -3.8146   23.4333 C   0  0  0  0  0  0
  -21.9194   -4.6966   22.3391 C   0  0  0  0  0  0
  -22.7857  -13.5245   21.1836 C   0  0  0  0  0  0
  -22.1666   -4.2157   21.0969 F   0  0  0  0  0  0
  -21.5625   -3.4528   25.7723 F   0  0  0  0  0  0
  -30.0280  -13.3322   20.4373 N   0  0  0  0  0  0
  -26.3005  -12.9348   20.3323 N   0  0  0  0  0  0
  -25.9322  -11.6509   20.5757 N   0  0  0  0  0  0
  -22.0507  -12.8241   22.0402 N   0  0  0  0  0  0
  -25.4287  -15.1884   20.4042 N   0  0  0  0  0  0
  -31.8354  -14.6814   20.1303 O   0  0  0  0  0  0
  -21.6648   -6.8877   21.4231 O   0  0  0  0  0  0
  -22.3545  -14.5550   20.6684 O   0  0  0  0  0  0
  -24.6168  -31.8670   23.2087 C   0  0  0  0  0  0
  -25.9048  -32.4825   23.8395 C   0  0  1  0  0  0
  -27.2304  -27.4131   20.1053 C   0  0  0  0  0  0
  -25.5892  -33.8621   24.2330 N   0  0  0  0  0  0
  -23.4074  -30.4896   21.5499 C   0  0  2  0  0  0
  -24.8551  -28.9554   20.1119 C   0  0  0  0  0  0
  -22.7435  -29.4649   22.4983 C   0  0  0  0  0  0
  -18.0279  -28.1377   22.8496 C   0  0  0  0  0  0
  -24.1483  -36.7311   23.2639 C   0  0  0  0  0  0
  -25.9387  -30.8265   21.3657 C   0  0  0  0  0  0
  -26.0173  -29.4603   20.7108 C   0  0  0  0  0  0
  -27.2115  -28.6972   20.7027 C   0  0  0  0  0  0
  -26.0547  -26.9312   19.4923 C   0  0  0  0  0  0
  -24.8701  -27.6914   19.4965 C   0  0  0  0  0  0
  -23.6171  -29.8235   20.1641 C   0  0  0  0  0  0
  -25.4103  -36.3116   24.0344 C   0  0  1  0  0  0
  -20.5872  -28.3667   23.1318 C   0  0  2  0  0  0
  -20.6768  -26.9398   22.5420 C   0  0  0  0  0  0
  -19.5740  -26.6386   21.5219 C   0  0  0  0  0  0
  -18.1921  -26.7926   22.1631 C   0  0  0  0  0  0
  -19.1530  -28.8839   23.2905 C   0  0  0  0  0  0
  -18.9453  -30.1447   23.8915 C   0  0  0  0  0  0
  -17.6453  -30.6582   24.0566 C   0  0  0  0  0  0
  -25.9033  -34.9480   23.5140 C   0  0  0  0  0  0
  -16.5346  -29.9083   23.6323 C   0  0  0  0  0  0
  -16.7267  -28.6499   23.0350 C   0  0  0  0  0  0
  -26.4463  -31.6610   25.0731 C   0  0  0  0  0  0
  -25.3724  -31.3726   26.1482 C   0  0  0  0  0  0
  -27.0291  -30.3050   24.6119 C   0  0  0  0  0  0
  -27.6050  -32.4327   25.7478 C   0  0  0  0  0  0
  -27.5588  -37.1803   24.8465 C   0  0  0  0  0  0
  -21.4159  -29.3032   22.3723 N   0  0  0  0  0  0
  -26.4294  -37.3800   23.9419 N   0  0  0  0  0  0
  -24.6727  -31.0756   22.0996 N   0  0  0  0  0  0
  -23.4199  -28.8193   23.3032 O   0  0  0  0  0  0
  -28.3552  -26.6098   20.1275 O   0  0  0  0  0  0
  -26.5598  -34.8930   22.4703 O   0  0  0  0  0  0
  -23.5352  -32.1428   23.7464 O   0  0  0  0  0  0
  -29.8754  -19.5149   19.0445 C   0  0  0  0  0  0
  -30.3303  -18.4072   18.3044 C   0  0  0  0  0  0
  -29.4322  -19.3543   20.3764 C   0  0  0  0  0  0
  -29.9426  -16.9147   20.2112 C   0  0  0  0  0  0
  -30.3501  -17.1179   18.8665 C   0  0  0  0  0  0
  -29.4733  -18.0406   20.9481 C   0  0  0  0  0  0
  -29.0842  -24.3588   20.7173 C   0  0  0  0  0  0
  -28.2230  -25.4019   20.7950 C   0  0  0  0  0  0
  -28.9026  -20.5445   21.1036 C   0  0  0  0  0  0
  -29.7823  -23.2087   22.8369 C   0  0  0  0  0  0
  -28.9401  -23.0766   21.5578 C   0  0  2  0  0  0
  -27.9830  -20.3758   22.0539 N   0  0  0  0  0  0
  -29.8897  -15.5978   20.8037 N   0  0  0  0  0  0
  -29.3009  -21.8198   20.8297 N   0  3  0  0  0  0
  -30.7044  -16.0788   18.0709 F   0  0  0  0  0  0
  -29.0258  -17.8337   22.2136 F   0  0  0  0  0  0
  -31.4715  -12.4201   19.1429 H   0  0  0  0  0  0
  -30.3253  -11.3220   19.8600 H   0  0  0  0  0  0
  -29.7487  -11.7606   17.4503 H   0  0  0  0  0  0
  -29.6658  -13.4760   17.7617 H   0  0  0  0  0  0
  -27.8374  -11.3021   18.8355 H   0  0  0  0  0  0
  -27.3750  -12.6162   17.7856 H   0  0  0  0  0  0
  -27.6870  -14.2532   19.5451 H   0  0  0  0  0  0
  -28.6795  -12.0112   21.3740 H   0  0  0  0  0  0
  -28.4635  -13.6708   21.8491 H   0  0  0  0  0  0
  -25.2769   -9.5692   22.4753 H   0  0  0  0  0  0
  -24.0008   -7.4640   22.7470 H   0  0  0  0  0  0
  -21.0833   -8.8784   19.8956 H   0  0  0  0  0  0
  -22.3695  -10.9678   19.6170 H   0  0  0  0  0  0
  -21.2027   -7.6147   23.9702 H   0  0  0  0  0  0
  -21.1476   -6.0523   25.9067 H   0  0  0  0  0  0
  -22.0605   -2.7608   23.2827 H   0  0  0  0  0  0
  -22.4119  -11.9896   22.4778 H   0  0  0  0  0  0
  -21.1129  -13.1273   22.2620 H   0  0  0  0  0  0
  -24.6553  -15.8381   20.4931 H   0  0  0  0  0  0
  -26.2704  -15.6217   20.0482 H   0  0  0  0  0  0
  -26.7130  -32.5527   23.1168 H   0  0  0  0  0  0
  -25.0039  -33.9781   25.0474 H   0  0  0  0  0  0
  -22.6964  -31.3065   21.4107 H   0  0  0  0  0  0
  -23.3754  -35.9636   23.3306 H   0  0  0  0  0  0
  -24.3583  -36.8918   22.2056 H   0  0  0  0  0  0
  -23.7223  -37.6512   23.6646 H   0  0  0  0  0  0
  -26.0572  -31.5928   20.5984 H   0  0  0  0  0  0
  -26.8241  -30.8785   21.9879 H   0  0  0  0  0  0
  -28.1077  -29.0768   21.1731 H   0  0  0  0  0  0
  -26.0546  -25.9573   19.0234 H   0  0  0  0  0  0
  -23.9780  -27.2973   19.0294 H   0  0  0  0  0  0
  -23.7251  -30.5992   19.4049 H   0  0  0  0  0  0
  -22.7404  -29.2447   19.8683 H   0  0  0  0  0  0
  -25.1273  -36.1991   25.0838 H   0  0  0  0  0  0
  -20.9963  -28.3230   24.1437 H   0  0  0  0  0  0
  -20.5673  -26.2270   23.3609 H   0  0  0  0  0  0
  -21.6638  -26.7440   22.1211 H   0  0  0  0  0  0
  -19.6897  -25.6300   21.1237 H   0  0  0  0  0  0
  -19.6674  -27.3206   20.6758 H   0  0  0  0  0  0
  -17.4189  -26.6684   21.4034 H   0  0  0  0  0  0
  -18.0312  -26.0067   22.9023 H   0  0  0  0  0  0
  -19.7928  -30.7261   24.2295 H   0  0  0  0  0  0
  -17.5005  -31.6263   24.5166 H   0  0  0  0  0  0
  -15.5347  -30.2988   23.7633 H   0  0  0  0  0  0
  -15.8671  -28.0818   22.7059 H   0  0  0  0  0  0
  -24.5869  -30.7108   25.7815 H   0  0  0  0  0  0
  -24.8940  -32.2884   26.4962 H   0  0  0  0  0  0
  -25.8057  -30.8860   27.0227 H   0  0  0  0  0  0
  -26.2840  -29.6822   24.1156 H   0  0  0  0  0  0
  -27.4045  -29.7281   25.4581 H   0  0  0  0  0  0
  -27.8682  -30.4375   23.9286 H   0  0  0  0  0  0
  -27.2683  -33.3621   26.2087 H   0  0  0  0  0  0
  -28.3823  -32.6903   25.0271 H   0  0  0  0  0  0
  -28.0759  -31.8436   26.5359 H   0  0  0  0  0  0
  -28.2602  -38.0106   24.7538 H   0  0  0  0  0  0
  -28.1088  -36.2644   24.6250 H   0  0  0  0  0  0
  -27.2317  -37.1415   25.8870 H   0  0  0  0  0  0
  -20.9325  -29.8750   21.6942 H   0  0  0  0  0  0
  -26.0189  -38.2882   24.1420 H   0  0  0  0  0  0
  -29.8461  -20.4819   18.5628 H   0  0  0  0  0  0
  -30.6399  -18.5389   17.2780 H   0  0  0  0  0  0
  -29.9435  -24.4333   20.0674 H   0  0  0  0  0  0
  -27.3498  -25.3740   21.4348 H   0  0  0  0  0  0
  -29.3783  -23.9877   23.4841 H   0  0  0  0  0  0
  -30.8158  -23.4736   22.6105 H   0  0  0  0  0  0
  -29.7952  -22.2850   23.4151 H   0  0  0  0  0  0
  -27.8895  -23.0098   21.8476 H   0  0  0  0  0  0
  -27.7534  -19.4304   22.3307 H   0  0  0  0  0  0
  -27.5673  -21.1391   22.5585 H   0  0  0  0  0  0
  -29.0516  -15.3970   21.3256 H   0  0  0  0  0  0
  -30.0280  -21.9098   20.1311 H   0  0  0  0  0  0
  1 25  1  0  0  0
  1 30  2  0  0  0
  1 83  1  0  0  0
  2  3  1  0  0  0
  2 25  1  0  0  0
  2 87  1  0  0  0
  2 88  1  0  0  0
  3  4  1  0  0  0
  3 89  1  0  0  0
  3 90  1  0  0  0
  4  5  1  0  0  0
  4 91  1  0  0  0
  4 92  1  0  0  0
  5  6  1  0  0  0
  5 26  1  0  0  0
  5 93  1  0  0  0
  6 25  1  0  0  0
  6 94  1  0  0  0
  6 95  1  0  0  0
  7  8  2  0  0  0
  7 26  1  0  0  0
  7 29  1  0  0  0
  8  9  1  0  0  0
  8 22  1  0  0  0
  9 10  1  0  0  0
  9 27  2  0  0  0
 10 11  2  0  0  0
 10 15  1  0  0  0
 11 12  1  0  0  0
 11 96  1  0  0  0
 12 13  2  0  0  0
 12 97  1  0  0  0
 13 14  1  0  0  0
 13 31  1  0  0  0
 14 15  2  0  0  0
 14 98  1  0  0  0
 15 99  1  0  0  0
 16 17  2  0  0  0
 16 21  1  0  0  0
 16 31  1  0  0  0
 17 18  1  0  0  0
 17100  1  0  0  0
 18 19  2  0  0  0
 18101  1  0  0  0
 19 20  1  0  0  0
 19 24  1  0  0  0
 20 21  2  0  0  0
 20102  1  0  0  0
 21 23  1  0  0  0
 22 28  1  0  0  0
 22 32  2  0  0  0
 26 27  1  0  0  0
 28103  1  0  0  0
 28104  1  0  0  0
 29105  1  0  0  0
 29106  1  0  0  0
 33 34  1  0  0  0
 33 66  1  0  0  0
 33 70  2  0  0  0
 34 36  1  0  0  0
 34 59  1  0  0  0
 34107  1  0  0  0
 35 44  2  0  0  0
 35 45  1  0  0  0
 35 68  1  0  0  0
 36 56  1  0  0  0
 36108  1  0  0  0
 37 39  1  0  0  0
 37 47  1  0  0  0
 37 66  1  0  0  0
 37109  1  0  0  0
 38 43  2  0  0  0
 38 46  1  0  0  0
 38 47  1  0  0  0
 39 64  1  0  0  0
 39 67  2  0  0  0
 40 52  1  0  0  0
 40 53  2  0  0  0
 40 58  1  0  0  0
 41110  1  0  0  0
 41111  1  0  0  0
 41112  1  0  0  0
 41 48  1  0  0  0
 42 43  1  0  0  0
 42 66  1  0  0  0
 42113  1  0  0  0
 42114  1  0  0  0
 43 44  1  0  0  0
 44115  1  0  0  0
 45 46  2  0  0  0
 45116  1  0  0  0
 46117  1  0  0  0
 47118  1  0  0  0
 47119  1  0  0  0
 48 56  1  0  0  0
 48 65  1  0  0  0
 48120  1  0  0  0
 49 50  1  0  0  0
 49 53  1  0  0  0
 49 64  1  0  0  0
 49121  1  0  0  0
 50 51  1  0  0  0
 50122  1  0  0  0
 50123  1  0  0  0
 51 52  1  0  0  0
 51124  1  0  0  0
 51125  1  0  0  0
 52126  1  0  0  0
 52127  1  0  0  0
 53 54  1  0  0  0
 54 55  2  0  0  0
 54128  1  0  0  0
 55 57  1  0  0  0
 55129  1  0  0  0
 56 69  2  0  0  0
 57 58  2  0  0  0
 57130  1  0  0  0
 58131  1  0  0  0
 59 60  1  0  0  0
 59 61  1  0  0  0
 59 62  1  0  0  0
 60132  1  0  0  0
 60133  1  0  0  0
 60134  1  0  0  0
 61135  1  0  0  0
 61136  1  0  0  0
 61137  1  0  0  0
 62138  1  0  0  0
 62139  1  0  0  0
 62140  1  0  0  0
 63 65  1  0  0  0
 63141  1  0  0  0
 63142  1  0  0  0
 63143  1  0  0  0
 64144  1  0  0  0
 65145  1  0  0  0
 68 78  1  0  0  0
 71 72  2  0  0  0
 71 73  1  0  0  0
 71146  1  0  0  0
 72 75  1  0  0  0
 72147  1  0  0  0
 73 76  2  0  0  0
 73 79  1  0  0  0
 74 75  2  0  0  0
 74 76  1  0  0  0
 74 83  1  0  0  0
 75 85  1  0  0  0
 76 86  1  0  0  0
 77 78  2  0  0  0
 77 81  1  0  0  0
 77148  1  0  0  0
 78149  1  0  0  0
 79 82  1  0  0  0
 79 84  2  0  0  0
 80150  1  0  0  0
 80151  1  0  0  0
 80152  1  0  0  0
 80 81  1  0  0  0
 81 84  1  0  0  0
 81153  1  0  0  0
 82154  1  0  0  0
 82155  1  0  0  0
 83156  1  0  0  0
 84157  1  0  0  0
M  CHG  1  84   1
M  ISO  4   1 100  68 101  78 101  83 100
M  END
> <chiral flag>
0

> <version>
0

> <s_m_source_file>
/data/baiqing/PycharmProjects/Reinvent-master-3.2/result/LINK_invent/BTK/process_docking_weight1_custom_product_contain_oxygen_bond_distance_aromatic_linkinvent_7_9_3/rearranged_h_0068.sdf

> <i_m_source_file_index>
18

> <r_mmod_Potential_Energy-OPLS-2005>
-281.345825195312

> <r_mmod_Stretch_Energy-OPLS-2005>
46.5524444580078

> <r_mmod_Bend_Energy-OPLS-2005>
97.6718444824219

> <r_mmod_Torsional_Energy-OPLS-2005>
232.006042480469

> <r_mmod_Improper_Torsional_Energy-OPLS-2005>
5.8717188835144

> <r_mmod_Van_der_Waal_Energy-OPLS-2005>
157.244262695312

> <r_mmod_Electrostatic_Energy-OPLS-2005>
-423.846282958984

> <r_mmod_Solvation_Energy-OPLS-2005>
-419.400451660156

> <b_mmod_Minimization_Converged-OPLS-2005>
0

> <r_mmod_RMS_Derivative-OPLS-2005>
1.11173784732819

$$$$
18
                    3D
 Structure written by MMmdl.
154162  0  0  1  0            999 V2000
  -30.6103  -14.7764   20.5300 C   0  0  0  0  0  0
  -30.4451  -12.4946   19.4701 C   0  0  0  0  0  0
  -29.5133  -12.5286   18.2346 C   0  0  0  0  0  0
  -28.0372  -12.3385   18.6378 C   0  0  0  0  0  0
  -27.6467  -13.2108   19.8583 C   0  0  2  0  0  0
  -28.6944  -13.0503   20.9795 C   0  0  0  0  0  0
  -25.2510  -13.8139   20.5575 C   0  0  0  0  0  0
  -24.1803  -13.0423   20.9139 C   0  0  0  0  0  0
  -24.6361  -11.6896   20.8709 C   0  0  0  0  0  0
  -23.9020  -10.4293   21.0379 C   0  0  0  0  0  0
  -24.3601   -9.4231   21.9160 C   0  0  0  0  0  0
  -23.6283   -8.2269   22.0760 C   0  0  0  0  0  0
  -22.4256   -8.0292   21.3561 C   0  0  0  0  0  0
  -21.9875   -9.0248   20.4650 C   0  0  0  0  0  0
  -22.7188  -10.2132   20.3039 C   0  0  0  0  0  0
  -21.6857   -6.0731   22.5281 C   0  0  0  0  0  0
  -21.4016   -6.5635   23.8211 C   0  0  0  0  0  0
  -21.3659   -5.6790   24.9176 C   0  0  0  0  0  0
  -21.6041   -4.3049   24.7220 C   0  0  0  0  0  0
  -21.8823   -3.8143   23.4338 C   0  0  0  0  0  0
  -21.9197   -4.6961   22.3397 C   0  0  0  0  0  0
  -22.7836  -13.5238   21.1832 C   0  0  0  0  0  0
  -22.1668   -4.2156   21.0970 F   0  0  0  0  0  0
  -21.5622   -3.4522   25.7722 F   0  0  0  0  0  0
  -29.9792  -13.5329   20.4352 N   0  0  0  0  0  0
  -26.2944  -12.9304   20.3266 N   0  0  0  0  0  0
  -25.9292  -11.6470   20.5753 N   0  0  0  0  0  0
  -22.0501  -12.8232   22.0404 N   0  0  0  0  0  0
  -25.4135  -15.1860   20.3872 N   0  0  0  0  0  0
  -31.7525  -14.8469   20.0632 O   0  0  0  0  0  0
  -21.6640   -6.8878   21.4250 O   0  0  0  0  0  0
  -22.3524  -14.5550   20.6691 O   0  0  0  0  0  0
  -24.6333  -31.8550   23.1949 C   0  0  0  0  0  0
  -25.9162  -32.4749   23.8300 C   0  0  1  0  0  0
  -27.2348  -27.2705   20.1395 C   0  0  0  0  0  0
  -25.5958  -33.8543   24.2235 N   0  0  0  0  0  0
  -23.4282  -30.4741   21.5390 C   0  0  2  0  0  0
  -24.8775  -28.9103   20.1188 C   0  0  0  0  0  0
  -22.7503  -29.4617   22.4928 C   0  0  0  0  0  0
  -18.0304  -28.1389   22.8487 C   0  0  0  0  0  0
  -24.1493  -36.7275   23.2635 C   0  0  0  0  0  0
  -25.9707  -30.7737   21.3673 C   0  0  0  0  0  0
  -26.0478  -29.3915   20.7201 C   0  0  0  0  0  0
  -27.2313  -28.5863   20.7104 C   0  0  0  0  0  0
  -26.0392  -26.8399   19.5281 C   0  0  0  0  0  0
  -24.8770  -27.6427   19.5118 C   0  0  0  0  0  0
  -23.6458  -29.7965   20.1594 C   0  0  0  0  0  0
  -25.4118  -36.3051   24.0316 C   0  0  1  0  0  0
  -20.5901  -28.3708   23.1287 C   0  0  2  0  0  0
  -20.6807  -26.9434   22.5408 C   0  0  0  0  0  0
  -19.5775  -26.6411   21.5211 C   0  0  0  0  0  0
  -18.1949  -26.7955   22.1592 C   0  0  0  0  0  0
  -19.1552  -28.8860   23.2879 C   0  0  0  0  0  0
  -18.9470  -30.1460   23.8903 C   0  0  0  0  0  0
  -17.6465  -30.6585   24.0561 C   0  0  0  0  0  0
  -25.9065  -34.9430   23.5078 C   0  0  0  0  0  0
  -16.5359  -29.9081   23.6322 C   0  0  0  0  0  0
  -16.7285  -28.6499   23.0339 C   0  0  0  0  0  0
  -26.4519  -31.6569   25.0684 C   0  0  0  0  0  0
  -25.3738  -31.3729   26.1402 C   0  0  0  0  0  0
  -27.0352  -30.2985   24.6149 C   0  0  0  0  0  0
  -27.6065  -32.4301   25.7479 C   0  0  0  0  0  0
  -27.5569  -37.1797   24.8468 C   0  0  0  0  0  0
  -21.4208  -29.3071   22.3684 N   0  0  0  0  0  0
  -26.4287  -37.3754   23.9404 N   0  0  0  0  0  0
  -24.6967  -31.0525   22.0915 N   0  0  0  0  0  0
  -23.4207  -28.8173   23.3033 O   0  0  0  0  0  0
  -28.3585  -26.4171   20.1128 O   0  0  0  0  0  0
  -26.5627  -34.8920   22.4639 O   0  0  0  0  0  0
  -23.5485  -32.1368   23.7259 O   0  0  0  0  0  0
  -31.4384  -20.0803   20.9629 C   0  0  0  0  0  0
  -32.2414  -18.9785   21.3157 C   0  0  0  0  0  0
  -30.1047  -19.9161   20.5253 C   0  0  0  0  0  0
  -30.4534  -17.3673   20.7909 C   0  0  0  0  0  0
  -31.7587  -17.6578   21.2626 C   0  0  0  0  0  0
  -29.6451  -18.5338   20.4176 C   0  0  0  0  0  0
  -29.4099  -22.4468   20.5899 C   0  0  0  0  0  0
  -28.7818  -15.9376   21.8208 C   0  0  0  0  0  0
  -28.6876  -23.6828   19.8579 C   0  0  0  0  0  0
  -28.2780  -25.0279   20.6794 C   0  0  0  0  0  0
  -29.3072  -21.1252   20.1564 N   0  0  0  0  0  0
  -29.9363  -15.9644   20.9140 N   0  0  0  0  0  0
  -30.0859  -22.7166   21.5851 O   0  0  0  0  0  0
  -32.5544  -16.6818   21.7614 F   0  0  0  0  0  0
  -28.3780  -18.3291   19.9816 F   0  0  0  0  0  0
  -30.4455  -11.5054   19.9307 H   0  0  0  0  0  0
  -31.4759  -12.6468   19.1484 H   0  0  0  0  0  0
  -29.8102  -11.7597   17.5214 H   0  0  0  0  0  0
  -29.6277  -13.4844   17.7215 H   0  0  0  0  0  0
  -27.8946  -11.2849   18.8787 H   0  0  0  0  0  0
  -27.3790  -12.5510   17.7945 H   0  0  0  0  0  0
  -27.6623  -14.2440   19.5127 H   0  0  0  0  0  0
  -28.3841  -13.5058   21.9106 H   0  0  0  0  0  0
  -28.7673  -11.9957   21.2502 H   0  0  0  0  0  0
  -25.2768   -9.5724   22.4698 H   0  0  0  0  0  0
  -24.0006   -7.4668   22.7486 H   0  0  0  0  0  0
  -21.0809   -8.8746   19.8948 H   0  0  0  0  0  0
  -22.3635  -10.9657   19.6138 H   0  0  0  0  0  0
  -21.2009   -7.6146   23.9708 H   0  0  0  0  0  0
  -21.1470   -6.0524   25.9077 H   0  0  0  0  0  0
  -22.0591   -2.7605   23.2829 H   0  0  0  0  0  0
  -22.4122  -11.9868   22.4729 H   0  0  0  0  0  0
  -21.1134  -13.1274   22.2663 H   0  0  0  0  0  0
  -24.6465  -15.8376   20.5016 H   0  0  0  0  0  0
  -26.2612  -15.6276   20.0562 H   0  0  0  0  0  0
  -26.7236  -32.5403   23.1049 H   0  0  0  0  0  0
  -25.0110  -33.9667   25.0385 H   0  0  0  0  0  0
  -22.7248  -31.2956   21.3881 H   0  0  0  0  0  0
  -23.3743  -35.9621   23.3311 H   0  0  0  0  0  0
  -24.3583  -36.8883   22.2048 H   0  0  0  0  0  0
  -23.7274  -37.6489   23.6658 H   0  0  0  0  0  0
  -26.0966  -31.5286   20.5894 H   0  0  0  0  0  0
  -26.8544  -30.8357   21.9904 H   0  0  0  0  0  0
  -28.1358  -28.9566   21.1727 H   0  0  0  0  0  0
  -26.0011  -25.8651   19.0623 H   0  0  0  0  0  0
  -23.9796  -27.2682   19.0397 H   0  0  0  0  0  0
  -23.7691  -30.5675   19.3977 H   0  0  0  0  0  0
  -22.7640  -29.2270   19.8591 H   0  0  0  0  0  0
  -25.1305  -36.1874   25.0808 H   0  0  0  0  0  0
  -20.9989  -28.3270   24.1406 H   0  0  0  0  0  0
  -20.5746  -26.2306   23.3587 H   0  0  0  0  0  0
  -21.6667  -26.7508   22.1161 H   0  0  0  0  0  0
  -19.6935  -25.6321   21.1232 H   0  0  0  0  0  0
  -19.6720  -27.3241   20.6750 H   0  0  0  0  0  0
  -17.4243  -26.6755   21.3960 H   0  0  0  0  0  0
  -18.0300  -26.0068   22.8948 H   0  0  0  0  0  0
  -19.7937  -30.7288   24.2275 H   0  0  0  0  0  0
  -17.5023  -31.6277   24.5148 H   0  0  0  0  0  0
  -15.5360  -30.2988   23.7634 H   0  0  0  0  0  0
  -15.8690  -28.0814   22.7043 H   0  0  0  0  0  0
  -24.5926  -30.7065   25.7738 H   0  0  0  0  0  0
  -24.8919  -32.2903   26.4796 H   0  0  0  0  0  0
  -25.8051  -30.8937   27.0201 H   0  0  0  0  0  0
  -26.2926  -29.6741   24.1174 H   0  0  0  0  0  0
  -27.4045  -29.7239   25.4657 H   0  0  0  0  0  0
  -27.8799  -30.4256   23.9370 H   0  0  0  0  0  0
  -27.2671  -33.3600   26.2058 H   0  0  0  0  0  0
  -28.3896  -32.6868   25.0331 H   0  0  0  0  0  0
  -28.0719  -31.8424   26.5402 H   0  0  0  0  0  0
  -28.2598  -38.0077   24.7470 H   0  0  0  0  0  0
  -28.1046  -36.2608   24.6342 H   0  0  0  0  0  0
  -27.2282  -37.1501   25.8868 H   0  0  0  0  0  0
  -20.9412  -29.8759   21.6847 H   0  0  0  0  0  0
  -26.0153  -38.2826   24.1389 H   0  0  0  0  0  0
  -31.8794  -21.0624   21.0431 H   0  0  0  0  0  0
  -33.2446  -19.1459   21.6820 H   0  0  0  0  0  0
  -28.9996  -15.3447   22.7089 H   0  0  0  0  0  0
  -27.8838  -15.5777   21.3305 H   0  0  0  0  0  0
  -28.5265  -16.9240   22.2082 H   0  0  0  0  0  0
  -29.3781  -23.9867   19.0720 H   0  0  0  0  0  0
  -27.8097  -23.3101   19.3318 H   0  0  0  0  0  0
  -28.9165  -25.0727   21.5612 H   0  0  0  0  0  0
  -27.2793  -24.8726   21.0900 H   0  0  0  0  0  0
  -28.6000  -20.9618   19.4521 H   0  0  0  0  0  0
  1 25  1  0  0  0
  1 30  2  0  0  0
  1 82  1  0  0  0
  2  3  1  0  0  0
  2 25  1  0  0  0
  2 86  1  0  0  0
  2 87  1  0  0  0
  3  4  1  0  0  0
  3 88  1  0  0  0
  3 89  1  0  0  0
  4  5  1  0  0  0
  4 90  1  0  0  0
  4 91  1  0  0  0
  5  6  1  0  0  0
  5 26  1  0  0  0
  5 92  1  0  0  0
  6 25  1  0  0  0
  6 93  1  0  0  0
  6 94  1  0  0  0
  7  8  2  0  0  0
  7 26  1  0  0  0
  7 29  1  0  0  0
  8  9  1  0  0  0
  8 22  1  0  0  0
  9 10  1  0  0  0
  9 27  2  0  0  0
 10 11  2  0  0  0
 10 15  1  0  0  0
 11 12  1  0  0  0
 11 95  1  0  0  0
 12 13  2  0  0  0
 12 96  1  0  0  0
 13 14  1  0  0  0
 13 31  1  0  0  0
 14 15  2  0  0  0
 14 97  1  0  0  0
 15 98  1  0  0  0
 16 17  2  0  0  0
 16 21  1  0  0  0
 16 31  1  0  0  0
 17 18  1  0  0  0
 17 99  1  0  0  0
 18 19  2  0  0  0
 18100  1  0  0  0
 19 20  1  0  0  0
 19 24  1  0  0  0
 20 21  2  0  0  0
 20101  1  0  0  0
 21 23  1  0  0  0
 22 28  1  0  0  0
 22 32  2  0  0  0
 26 27  1  0  0  0
 28102  1  0  0  0
 28103  1  0  0  0
 29104  1  0  0  0
 29105  1  0  0  0
 33 34  1  0  0  0
 33 66  1  0  0  0
 33 70  2  0  0  0
 34 36  1  0  0  0
 34 59  1  0  0  0
 34106  1  0  0  0
 35 44  2  0  0  0
 35 45  1  0  0  0
 35 68  1  0  0  0
 36 56  1  0  0  0
 36107  1  0  0  0
 37 39  1  0  0  0
 37 47  1  0  0  0
 37 66  1  0  0  0
 37108  1  0  0  0
 38 43  2  0  0  0
 38 46  1  0  0  0
 38 47  1  0  0  0
 39 64  1  0  0  0
 39 67  2  0  0  0
 40 52  1  0  0  0
 40 53  2  0  0  0
 40 58  1  0  0  0
 41109  1  0  0  0
 41110  1  0  0  0
 41111  1  0  0  0
 41 48  1  0  0  0
 42 43  1  0  0  0
 42 66  1  0  0  0
 42112  1  0  0  0
 42113  1  0  0  0
 43 44  1  0  0  0
 44114  1  0  0  0
 45 46  2  0  0  0
 45115  1  0  0  0
 46116  1  0  0  0
 47117  1  0  0  0
 47118  1  0  0  0
 48 56  1  0  0  0
 48 65  1  0  0  0
 48119  1  0  0  0
 49 50  1  0  0  0
 49 53  1  0  0  0
 49 64  1  0  0  0
 49120  1  0  0  0
 50 51  1  0  0  0
 50121  1  0  0  0
 50122  1  0  0  0
 51 52  1  0  0  0
 51123  1  0  0  0
 51124  1  0  0  0
 52125  1  0  0  0
 52126  1  0  0  0
 53 54  1  0  0  0
 54 55  2  0  0  0
 54127  1  0  0  0
 55 57  1  0  0  0
 55128  1  0  0  0
 56 69  2  0  0  0
 57 58  2  0  0  0
 57129  1  0  0  0
 58130  1  0  0  0
 59 60  1  0  0  0
 59 61  1  0  0  0
 59 62  1  0  0  0
 60131  1  0  0  0
 60132  1  0  0  0
 60133  1  0  0  0
 61134  1  0  0  0
 61135  1  0  0  0
 61136  1  0  0  0
 62137  1  0  0  0
 62138  1  0  0  0
 62139  1  0  0  0
 63 65  1  0  0  0
 63140  1  0  0  0
 63141  1  0  0  0
 63142  1  0  0  0
 64143  1  0  0  0
 65144  1  0  0  0
 68 80  1  0  0  0
 71 72  2  0  0  0
 71 73  1  0  0  0
 71145  1  0  0  0
 72 75  1  0  0  0
 72146  1  0  0  0
 73 76  2  0  0  0
 73 81  1  0  0  0
 74 75  2  0  0  0
 74 76  1  0  0  0
 74 82  1  0  0  0
 75 84  1  0  0  0
 76 85  1  0  0  0
 77 79  1  0  0  0
 77 81  1  0  0  0
 77 83  2  0  0  0
 78 82  1  0  0  0
 78147  1  0  0  0
 78148  1  0  0  0
 78149  1  0  0  0
 79 80  1  0  0  0
 79150  1  0  0  0
 79151  1  0  0  0
 80152  1  0  0  0
 80153  1  0  0  0
 81154  1  0  0  0
M  ISO  4   1 100  68 101  80 101  82 100
M  END
> <chiral flag>
0

> <version>
0

> <s_m_source_file>
/data/baiqing/PycharmProjects/Reinvent-master-3.2/result/LINK_invent/BTK/process_docking_weight1_custom_product_contain_oxygen_bond_distance_aromatic_linkinvent_7_9_3/rearranged_h_0068.sdf

> <i_m_source_file_index>
19

> <r_mmod_Potential_Energy-OPLS-2005>
289.80078125

> <r_mmod_Stretch_Energy-OPLS-2005>
146.176681518555

> <r_mmod_Bend_Energy-OPLS-2005>
192.588226318359

> <r_mmod_Torsional_Energy-OPLS-2005>
315.351013183594

> <r_mmod_Improper_Torsional_Energy-OPLS-2005>
7.14809083938599

> <r_mmod_Van_der_Waal_Energy-OPLS-2005>
161.774353027344

> <r_mmod_Electrostatic_Energy-OPLS-2005>
-398.8212890625

> <r_mmod_Solvation_Energy-OPLS-2005>
-211.88671875

> <b_mmod_Minimization_Converged-OPLS-2005>
0

> <r_mmod_RMS_Derivative-OPLS-2005>
2.5247917175293

$$$$
19
                    3D
 Structure written by MMmdl.
163172  0  0  1  0            999 V2000
  -30.6564  -14.6753   20.5094 C   0  0  0  0  0  0
  -30.4439  -12.4202   19.4713 C   0  0  0  0  0  0
  -29.5173  -12.4999   18.2390 C   0  0  0  0  0  0
  -28.0419  -12.3316   18.6525 C   0  0  0  0  0  0
  -27.6533  -13.2262   19.8589 C   0  0  2  0  0  0
  -28.6972  -13.1277   20.9944 C   0  0  0  0  0  0
  -25.2483  -13.8129   20.5545 C   0  0  0  0  0  0
  -24.1795  -13.0399   20.9137 C   0  0  0  0  0  0
  -24.6398  -11.6906   20.8727 C   0  0  0  0  0  0
  -23.9079  -10.4303   21.0389 C   0  0  0  0  0  0
  -24.3637   -9.4217   21.9163 C   0  0  0  0  0  0
  -23.6299   -8.2263   22.0753 C   0  0  0  0  0  0
  -22.4262   -8.0318   21.3553 C   0  0  0  0  0  0
  -21.9903   -9.0298   20.4664 C   0  0  0  0  0  0
  -22.7251  -10.2157   20.3045 C   0  0  0  0  0  0
  -21.6870   -6.0734   22.5283 C   0  0  0  0  0  0
  -21.4023   -6.5623   23.8224 C   0  0  0  0  0  0
  -21.3644   -5.6772   24.9186 C   0  0  0  0  0  0
  -21.6038   -4.3042   24.7221 C   0  0  0  0  0  0
  -21.8831   -3.8144   23.4346 C   0  0  0  0  0  0
  -21.9206   -4.6960   22.3397 C   0  0  0  0  0  0
  -22.7838  -13.5230   21.1817 C   0  0  0  0  0  0
  -22.1682   -4.2151   21.0972 F   0  0  0  0  0  0
  -21.5612   -3.4520   25.7727 F   0  0  0  0  0  0
  -30.0144  -13.4627   20.4316 N   0  0  0  0  0  0
  -26.2984  -12.9382   20.3313 N   0  0  0  0  0  0
  -25.9354  -11.6529   20.5817 N   0  0  0  0  0  0
  -22.0468  -12.8291   22.0413 N   0  0  0  0  0  0
  -25.4035  -15.1818   20.3717 N   0  0  0  0  0  0
  -31.8156  -14.7728   20.1133 O   0  0  0  0  0  0
  -21.6649   -6.8901   21.4257 O   0  0  0  0  0  0
  -22.3550  -14.5564   20.6699 O   0  0  0  0  0  0
  -24.6237  -31.8615   23.2040 C   0  0  0  0  0  0
  -25.9095  -32.4783   23.8374 C   0  0  1  0  0  0
  -27.2319  -27.3410   20.1026 C   0  0  0  0  0  0
  -25.5903  -33.8583   24.2291 N   0  0  0  0  0  0
  -23.4158  -30.4857   21.5457 C   0  0  2  0  0  0
  -24.8614  -28.9400   20.1110 C   0  0  0  0  0  0
  -22.7469  -29.4624   22.4942 C   0  0  0  0  0  0
  -18.0300  -28.1373   22.8482 C   0  0  0  0  0  0
  -24.1467  -36.7277   23.2642 C   0  0  0  0  0  0
  -25.9563  -30.7944   21.3745 C   0  0  0  0  0  0
  -26.0288  -29.4243   20.7141 C   0  0  0  0  0  0
  -27.2145  -28.6354   20.7014 C   0  0  0  0  0  0
  -26.0342  -26.8945   19.4945 C   0  0  0  0  0  0
  -24.8650  -27.6783   19.4956 C   0  0  0  0  0  0
  -23.6289  -29.8206   20.1605 C   0  0  0  0  0  0
  -25.4088  -36.3082   24.0340 C   0  0  1  0  0  0
  -20.5891  -28.3666   23.1283 C   0  0  2  0  0  0
  -20.6763  -26.9384   22.5422 C   0  0  0  0  0  0
  -19.5751  -26.6373   21.5202 C   0  0  0  0  0  0
  -18.1928  -26.7921   22.1606 C   0  0  0  0  0  0
  -19.1550  -28.8845   23.2875 C   0  0  0  0  0  0
  -18.9472  -30.1438   23.8898 C   0  0  0  0  0  0
  -17.6474  -30.6562   24.0577 C   0  0  0  0  0  0
  -25.9043  -34.9456   23.5121 C   0  0  0  0  0  0
  -16.5365  -29.9069   23.6319 C   0  0  0  0  0  0
  -16.7287  -28.6486   23.0338 C   0  0  0  0  0  0
  -26.4475  -31.6603   25.0751 C   0  0  0  0  0  0
  -25.3717  -31.3769   26.1498 C   0  0  0  0  0  0
  -27.0296  -30.3019   24.6211 C   0  0  0  0  0  0
  -27.6045  -32.4328   25.7496 C   0  0  0  0  0  0
  -27.5576  -37.1778   24.8449 C   0  0  0  0  0  0
  -21.4189  -29.3018   22.3677 N   0  0  0  0  0  0
  -26.4255  -37.3786   23.9439 N   0  0  0  0  0  0
  -24.6832  -31.0648   22.0969 N   0  0  0  0  0  0
  -23.4207  -28.8167   23.3011 O   0  0  0  0  0  0
  -28.3784  -26.5359   20.1275 O   0  0  0  0  0  0
  -26.5628  -34.8929   22.4698 O   0  0  0  0  0  0
  -23.5406  -32.1402   23.7384 O   0  0  0  0  0  0
  -28.9581  -19.5151   20.8248 C   0  0  0  0  0  0
  -31.2034  -19.3172   20.0759 C   0  0  0  0  0  0
  -28.9185  -18.1041   21.0790 C   0  0  0  0  0  0
  -30.0882  -20.1746   20.2882 C   0  0  0  0  0  0
  -30.0181  -17.2279   20.7522 C   0  0  0  0  0  0
  -31.1796  -17.9092   20.2856 C   0  0  0  0  0  0
  -31.0608  -23.3460   18.3760 C   0  0  0  0  0  0
  -30.7218  -21.8725   18.6501 C   0  0  0  0  0  0
  -29.0870  -22.5769   20.3508 C   0  0  0  0  0  0
  -29.4852  -24.1202   20.1772 C   0  0  2  0  0  0
  -31.1262  -25.6660   19.0484 C   0  0  0  0  0  0
  -28.2350  -25.0800   19.9381 C   0  0  0  0  0  0
  -27.6240  -17.6247   21.7304 C   0  0  0  0  0  0
  -30.1365  -21.5857   19.9680 N   0  0  0  0  0  0
  -30.5342  -24.3245   19.1486 N   0  0  0  0  0  0
  -29.9073  -15.7559   20.9190 N   0  0  0  0  0  0
  -31.8642  -23.5872   17.4687 O   0  0  0  0  0  0
  -32.3309  -17.2466   20.0357 F   0  0  0  0  0  0
  -27.4308  -18.3057   22.8614 F   0  0  0  0  0  0
  -26.6058  -17.8878   20.9109 F   0  0  0  0  0  0
  -27.6030  -16.3270   22.0307 F   0  0  0  0  0  0
  -31.4847  -12.5362   19.1613 H   0  0  0  0  0  0
  -30.3881  -11.4377   19.9409 H   0  0  0  0  0  0
  -29.7901  -11.7280   17.5160 H   0  0  0  0  0  0
  -29.6604  -13.4553   17.7310 H   0  0  0  0  0  0
  -27.8985  -11.2845   18.9179 H   0  0  0  0  0  0
  -27.3890  -12.5218   17.8019 H   0  0  0  0  0  0
  -27.6589  -14.2526   19.4886 H   0  0  0  0  0  0
  -28.7141  -12.1195   21.4072 H   0  0  0  0  0  0
  -28.4322  -13.7844   21.8238 H   0  0  0  0  0  0
  -25.2782   -9.5697   22.4735 H   0  0  0  0  0  0
  -24.0008   -7.4642   22.7456 H   0  0  0  0  0  0
  -21.0827   -8.8859   19.8961 H   0  0  0  0  0  0
  -22.3737  -10.9714   19.6168 H   0  0  0  0  0  0
  -21.2038   -7.6128   23.9730 H   0  0  0  0  0  0
  -21.1426   -6.0498   25.9087 H   0  0  0  0  0  0
  -22.0612   -2.7601   23.2868 H   0  0  0  0  0  0
  -22.4033  -11.9961   22.4867 H   0  0  0  0  0  0
  -21.1130  -13.1433   22.2611 H   0  0  0  0  0  0
  -24.6317  -15.8295   20.4709 H   0  0  0  0  0  0
  -26.2646  -15.6408   20.1118 H   0  0  0  0  0  0
  -26.7169  -32.5441   23.1131 H   0  0  0  0  0  0
  -25.0021  -33.9723   25.0415 H   0  0  0  0  0  0
  -22.7060  -31.3030   21.4054 H   0  0  0  0  0  0
  -23.3746  -35.9588   23.3275 H   0  0  0  0  0  0
  -24.3578  -36.8930   22.2068 H   0  0  0  0  0  0
  -23.7207  -37.6463   23.6679 H   0  0  0  0  0  0
  -26.0936  -31.5575   20.6074 H   0  0  0  0  0  0
  -26.8340  -30.8355   22.0076 H   0  0  0  0  0  0
  -28.1118  -29.0029   21.1795 H   0  0  0  0  0  0
  -25.9694  -25.9303   19.0138 H   0  0  0  0  0  0
  -23.9689  -27.2994   19.0229 H   0  0  0  0  0  0
  -23.7479  -30.5959   19.4022 H   0  0  0  0  0  0
  -22.7468  -29.2526   19.8599 H   0  0  0  0  0  0
  -25.1261  -36.1921   25.0828 H   0  0  0  0  0  0
  -20.9994  -28.3247   24.1399 H   0  0  0  0  0  0
  -20.5576  -26.2296   23.3636 H   0  0  0  0  0  0
  -21.6648  -26.7350   22.1278 H   0  0  0  0  0  0
  -19.6890  -25.6286   21.1227 H   0  0  0  0  0  0
  -19.6673  -27.3180   20.6729 H   0  0  0  0  0  0
  -17.4197  -26.6683   21.4006 H   0  0  0  0  0  0
  -18.0294  -26.0057   22.8986 H   0  0  0  0  0  0
  -19.7960  -30.7249   24.2256 H   0  0  0  0  0  0
  -17.5035  -31.6237   24.5196 H   0  0  0  0  0  0
  -15.5367  -30.2962   23.7637 H   0  0  0  0  0  0
  -15.8695  -28.0800   22.7040 H   0  0  0  0  0  0
  -24.5885  -30.7098   25.7880 H   0  0  0  0  0  0
  -24.8908  -32.2946   26.4898 H   0  0  0  0  0  0
  -25.8063  -30.9006   27.0298 H   0  0  0  0  0  0
  -26.2872  -29.6800   24.1199 H   0  0  0  0  0  0
  -27.3948  -29.7251   25.4722 H   0  0  0  0  0  0
  -27.8755  -30.4301   23.9452 H   0  0  0  0  0  0
  -27.2670  -33.3621   26.2091 H   0  0  0  0  0  0
  -28.3829  -32.6908   25.0301 H   0  0  0  0  0  0
  -28.0734  -31.8453   26.5403 H   0  0  0  0  0  0
  -28.2566  -38.0102   24.7560 H   0  0  0  0  0  0
  -28.1103  -36.2653   24.6157 H   0  0  0  0  0  0
  -27.2345  -37.1324   25.8865 H   0  0  0  0  0  0
  -20.9357  -29.8769   21.6922 H   0  0  0  0  0  0
  -26.0131  -38.2845   24.1493 H   0  0  0  0  0  0
  -28.0735  -20.0909   21.0531 H   0  0  0  0  0  0
  -32.1430  -19.7293   19.7452 H   0  0  0  0  0  0
  -31.6567  -21.3387   18.4960 H   0  0  0  0  0  0
  -30.0379  -21.5377   17.8696 H   0  0  0  0  0  0
  -28.2163  -22.3750   19.7232 H   0  0  0  0  0  0
  -28.7602  -22.4064   21.3778 H   0  0  0  0  0  0
  -29.9475  -24.4203   21.1189 H   0  0  0  0  0  0
  -32.2067  -25.6161   19.1899 H   0  0  0  0  0  0
  -30.7511  -26.3611   19.7947 H   0  0  0  0  0  0
  -30.9406  -26.0895   18.0598 H   0  0  0  0  0  0
  -27.4489  -24.7543   20.6201 H   0  0  0  0  0  0
  -27.8681  -24.8886   18.9297 H   0  0  0  0  0  0
  -29.0110  -15.4694   21.2862 H   0  0  0  0  0  0
  1 25  1  0  0  0
  1 30  2  0  0  0
  1 86  1  0  0  0
  2  3  1  0  0  0
  2 25  1  0  0  0
  2 92  1  0  0  0
  2 93  1  0  0  0
  3  4  1  0  0  0
  3 94  1  0  0  0
  3 95  1  0  0  0
  4  5  1  0  0  0
  4 96  1  0  0  0
  4 97  1  0  0  0
  5  6  1  0  0  0
  5 26  1  0  0  0
  5 98  1  0  0  0
  6 25  1  0  0  0
  6 99  1  0  0  0
  6100  1  0  0  0
  7  8  2  0  0  0
  7 26  1  0  0  0
  7 29  1  0  0  0
  8  9  1  0  0  0
  8 22  1  0  0  0
  9 10  1  0  0  0
  9 27  2  0  0  0
 10 11  2  0  0  0
 10 15  1  0  0  0
 11 12  1  0  0  0
 11101  1  0  0  0
 12 13  2  0  0  0
 12102  1  0  0  0
 13 14  1  0  0  0
 13 31  1  0  0  0
 14 15  2  0  0  0
 14103  1  0  0  0
 15104  1  0  0  0
 16 17  2  0  0  0
 16 21  1  0  0  0
 16 31  1  0  0  0
 17 18  1  0  0  0
 17105  1  0  0  0
 18 19  2  0  0  0
 18106  1  0  0  0
 19 20  1  0  0  0
 19 24  1  0  0  0
 20 21  2  0  0  0
 20107  1  0  0  0
 21 23  1  0  0  0
 22 28  1  0  0  0
 22 32  2  0  0  0
 26 27  1  0  0  0
 28108  1  0  0  0
 28109  1  0  0  0
 29110  1  0  0  0
 29111  1  0  0  0
 33 34  1  0  0  0
 33 66  1  0  0  0
 33 70  2  0  0  0
 34 36  1  0  0  0
 34 59  1  0  0  0
 34112  1  0  0  0
 35 44  2  0  0  0
 35 45  1  0  0  0
 35 68  1  0  0  0
 36 56  1  0  0  0
 36113  1  0  0  0
 37 39  1  0  0  0
 37 47  1  0  0  0
 37 66  1  0  0  0
 37114  1  0  0  0
 38 43  2  0  0  0
 38 46  1  0  0  0
 38 47  1  0  0  0
 39 64  1  0  0  0
 39 67  2  0  0  0
 40 52  1  0  0  0
 40 53  2  0  0  0
 40 58  1  0  0  0
 41115  1  0  0  0
 41116  1  0  0  0
 41117  1  0  0  0
 41 48  1  0  0  0
 42 43  1  0  0  0
 42 66  1  0  0  0
 42118  1  0  0  0
 42119  1  0  0  0
 43 44  1  0  0  0
 44120  1  0  0  0
 45 46  2  0  0  0
 45121  1  0  0  0
 46122  1  0  0  0
 47123  1  0  0  0
 47124  1  0  0  0
 48 56  1  0  0  0
 48 65  1  0  0  0
 48125  1  0  0  0
 49 50  1  0  0  0
 49 53  1  0  0  0
 49 64  1  0  0  0
 49126  1  0  0  0
 50 51  1  0  0  0
 50127  1  0  0  0
 50128  1  0  0  0
 51 52  1  0  0  0
 51129  1  0  0  0
 51130  1  0  0  0
 52131  1  0  0  0
 52132  1  0  0  0
 53 54  1  0  0  0
 54 55  2  0  0  0
 54133  1  0  0  0
 55 57  1  0  0  0
 55134  1  0  0  0
 56 69  2  0  0  0
 57 58  2  0  0  0
 57135  1  0  0  0
 58136  1  0  0  0
 59 60  1  0  0  0
 59 61  1  0  0  0
 59 62  1  0  0  0
 60137  1  0  0  0
 60138  1  0  0  0
 60139  1  0  0  0
 61140  1  0  0  0
 61141  1  0  0  0
 61142  1  0  0  0
 62143  1  0  0  0
 62144  1  0  0  0
 62145  1  0  0  0
 63 65  1  0  0  0
 63146  1  0  0  0
 63147  1  0  0  0
 63148  1  0  0  0
 64149  1  0  0  0
 65150  1  0  0  0
 68 82  1  0  0  0
 71 73  2  0  0  0
 71 74  1  0  0  0
 71151  1  0  0  0
 72 74  2  0  0  0
 72 76  1  0  0  0
 72152  1  0  0  0
 73 75  1  0  0  0
 73 83  1  0  0  0
 74 84  1  0  0  0
 75 76  2  0  0  0
 75 86  1  0  0  0
 76 88  1  0  0  0
 77 78  1  0  0  0
 77 85  1  0  0  0
 77 87  2  0  0  0
 78 84  1  0  0  0
 78153  1  0  0  0
 78154  1  0  0  0
 79 80  1  0  0  0
 79 84  1  0  0  0
 79155  1  0  0  0
 79156  1  0  0  0
 80 82  1  0  0  0
 80 85  1  0  0  0
 80157  1  0  0  0
 81 85  1  0  0  0
 81158  1  0  0  0
 81159  1  0  0  0
 81160  1  0  0  0
 82161  1  0  0  0
 82162  1  0  0  0
 83 89  1  0  0  0
 83 90  1  0  0  0
 83 91  1  0  0  0
 86163  1  0  0  0
M  ISO  4   1 100  68 101  82 101  86 100
M  END
> <chiral flag>
0

> <version>
0

> <s_m_source_file>
/data/baiqing/PycharmProjects/Reinvent-master-3.2/result/LINK_invent/BTK/process_docking_weight1_custom_product_contain_oxygen_bond_distance_aromatic_linkinvent_7_9_3/rearranged_h_0068.sdf

> <i_m_source_file_index>
20

> <r_mmod_Potential_Energy-OPLS-2005>
111.314727783203

> <r_mmod_Stretch_Energy-OPLS-2005>
91.0490493774414

> <r_mmod_Bend_Energy-OPLS-2005>
167.749893188477

> <r_mmod_Torsional_Energy-OPLS-2005>
257.938323974609

> <r_mmod_Improper_Torsional_Energy-OPLS-2005>
6.4264554977417

> <r_mmod_Van_der_Waal_Energy-OPLS-2005>
175.912567138672

> <r_mmod_Electrostatic_Energy-OPLS-2005>
-389.368377685547

> <r_mmod_Solvation_Energy-OPLS-2005>
-247.443008422852

> <b_mmod_Minimization_Converged-OPLS-2005>
0

> <r_mmod_RMS_Derivative-OPLS-2005>
3.453129529953

$$$$
20
                    3D
 Structure written by MMmdl.
164173  0  0  1  0            999 V2000
  -30.6257  -14.6552   20.5464 C   0  0  0  0  0  0
  -30.4521  -12.4149   19.4597 C   0  0  0  0  0  0
  -29.5208  -12.5220   18.2317 C   0  0  0  0  0  0
  -28.0422  -12.3541   18.6393 C   0  0  0  0  0  0
  -27.6610  -13.2174   19.8713 C   0  0  2  0  0  0
  -28.7042  -13.0586   20.9998 C   0  0  0  0  0  0
  -25.2577  -13.8173   20.5633 C   0  0  0  0  0  0
  -24.1840  -13.0457   20.9166 C   0  0  0  0  0  0
  -24.6393  -11.6921   20.8729 C   0  0  0  0  0  0
  -23.9059  -10.4309   21.0396 C   0  0  0  0  0  0
  -24.3618   -9.4228   21.9172 C   0  0  0  0  0  0
  -23.6282   -8.2272   22.0758 C   0  0  0  0  0  0
  -22.4272   -8.0302   21.3558 C   0  0  0  0  0  0
  -21.9898   -9.0280   20.4662 C   0  0  0  0  0  0
  -22.7228  -10.2145   20.3055 C   0  0  0  0  0  0
  -21.6863   -6.0734   22.5269 C   0  0  0  0  0  0
  -21.4029   -6.5636   23.8201 C   0  0  0  0  0  0
  -21.3660   -5.6796   24.9169 C   0  0  0  0  0  0
  -21.6040   -4.3056   24.7219 C   0  0  0  0  0  0
  -21.8821   -3.8144   23.4335 C   0  0  0  0  0  0
  -21.9194   -4.6965   22.3391 C   0  0  0  0  0  0
  -22.7857  -13.5268   21.1812 C   0  0  0  0  0  0
  -22.1663   -4.2146   21.0968 F   0  0  0  0  0  0
  -21.5616   -3.4537   25.7729 F   0  0  0  0  0  0
  -30.0191  -13.4269   20.4479 N   0  0  0  0  0  0
  -26.3030  -12.9351   20.3346 N   0  0  0  0  0  0
  -25.9329  -11.6506   20.5765 N   0  0  0  0  0  0
  -22.0473  -12.8297   22.0381 N   0  0  0  0  0  0
  -25.4314  -15.1882   20.3929 N   0  0  0  0  0  0
  -31.7678  -14.8313   20.1132 O   0  0  0  0  0  0
  -21.6651   -6.8883   21.4236 O   0  0  0  0  0  0
  -22.3546  -14.5553   20.6637 O   0  0  0  0  0  0
  -24.6247  -31.8605   23.2023 C   0  0  0  0  0  0
  -25.9086  -32.4786   23.8374 C   0  0  1  0  0  0
  -27.2382  -27.3301   20.1399 C   0  0  0  0  0  0
  -25.5891  -33.8585   24.2301 N   0  0  0  0  0  0
  -23.4207  -30.4809   21.5436 C   0  0  2  0  0  0
  -24.8728  -28.9343   20.1138 C   0  0  0  0  0  0
  -22.7487  -29.4610   22.4937 C   0  0  0  0  0  0
  -18.0297  -28.1396   22.8497 C   0  0  0  0  0  0
  -24.1471  -36.7304   23.2640 C   0  0  0  0  0  0
  -25.9590  -30.7966   21.3707 C   0  0  0  0  0  0
  -26.0386  -29.4219   20.7206 C   0  0  0  0  0  0
  -27.2249  -28.6321   20.7231 C   0  0  0  0  0  0
  -26.0578  -26.8952   19.4975 C   0  0  0  0  0  0
  -24.8840  -27.6753   19.4914 C   0  0  0  0  0  0
  -23.6385  -29.8125   20.1601 C   0  0  0  0  0  0
  -25.4088  -36.3094   24.0339 C   0  0  1  0  0  0
  -20.5892  -28.3694   23.1285 C   0  0  2  0  0  0
  -20.6782  -26.9416   22.5411 C   0  0  0  0  0  0
  -19.5749  -26.6387   21.5221 C   0  0  0  0  0  0
  -18.1930  -26.7949   22.1628 C   0  0  0  0  0  0
  -19.1545  -28.8864   23.2888 C   0  0  0  0  0  0
  -18.9476  -30.1470   23.8905 C   0  0  0  0  0  0
  -17.6466  -30.6591   24.0577 C   0  0  0  0  0  0
  -25.9031  -34.9455   23.5128 C   0  0  0  0  0  0
  -16.5356  -29.9090   23.6331 C   0  0  0  0  0  0
  -16.7280  -28.6504   23.0359 C   0  0  0  0  0  0
  -26.4466  -31.6588   25.0742 C   0  0  0  0  0  0
  -25.3693  -31.3732   26.1473 C   0  0  0  0  0  0
  -27.0295  -30.3014   24.6173 C   0  0  0  0  0  0
  -27.6057  -32.4296   25.7484 C   0  0  0  0  0  0
  -27.5572  -37.1801   24.8455 C   0  0  0  0  0  0
  -21.4194  -29.3026   22.3660 N   0  0  0  0  0  0
  -26.4271  -37.3779   23.9417 N   0  0  0  0  0  0
  -24.6869  -31.0629   22.0962 N   0  0  0  0  0  0
  -23.4210  -28.8171   23.3034 O   0  0  0  0  0  0
  -28.3566  -26.4864   20.1753 O   0  0  0  0  0  0
  -26.5614  -34.8928   22.4702 O   0  0  0  0  0  0
  -23.5411  -32.1393   23.7354 O   0  0  0  0  0  0
  -30.9356  -19.3088   20.2385 C   0  0  0  0  0  0
  -30.9492  -17.8815   20.3235 C   0  0  0  0  0  0
  -28.8304  -19.3727   21.3789 C   0  0  0  0  0  0
  -28.8480  -17.9452   21.5027 C   0  0  0  0  0  0
  -29.8723  -20.1083   20.7570 C   0  0  0  0  0  0
  -29.9058  -17.1479   20.9521 C   0  0  0  0  0  0
  -30.9231  -22.4148   20.7198 C   0  0  0  0  0  0
  -28.6442  -22.4583   20.7032 C   0  0  0  0  0  0
  -30.5087  -23.9043   20.7238 C   0  0  2  0  0  0
  -29.0562  -23.9051   20.1929 C   0  0  1  0  0  0
  -27.6955  -17.3150   22.2773 C   0  0  0  0  0  0
  -31.4992  -24.8507   20.0090 C   0  0  0  0  0  0
  -28.9965  -23.8968   18.6479 C   0  0  0  0  0  0
  -28.1591  -25.1212   20.7172 C   0  0  0  0  0  0
  -29.8528  -21.5858   20.6725 N   0  0  0  0  0  0
  -29.8487  -15.6781   21.0403 N   0  0  0  0  0  0
  -32.1092  -22.0756   20.7722 O   0  0  0  0  0  0
  -31.4909  -12.5560   19.1542 H   0  0  0  0  0  0
  -30.4055  -11.4168   19.8973 H   0  0  0  0  0  0
  -29.7896  -11.7681   17.4911 H   0  0  0  0  0  0
  -29.6631  -13.4898   17.7488 H   0  0  0  0  0  0
  -27.8786  -11.3016   18.8674 H   0  0  0  0  0  0
  -27.3924  -12.5881   17.7958 H   0  0  0  0  0  0
  -27.6858  -14.2556   19.5413 H   0  0  0  0  0  0
  -28.7216  -12.0271   21.3545 H   0  0  0  0  0  0
  -28.4398  -13.6625   21.8686 H   0  0  0  0  0  0
  -25.2756   -9.5720   22.4744 H   0  0  0  0  0  0
  -24.0000   -7.4672   22.7481 H   0  0  0  0  0  0
  -21.0829   -8.8812   19.8968 H   0  0  0  0  0  0
  -22.3690  -10.9695   19.6174 H   0  0  0  0  0  0
  -21.2035   -7.6145   23.9705 H   0  0  0  0  0  0
  -21.1474   -6.0523   25.9071 H   0  0  0  0  0  0
  -22.0593   -2.7608   23.2846 H   0  0  0  0  0  0
  -22.4070  -12.0007   22.4865 H   0  0  0  0  0  0
  -21.1089  -13.1367   22.2527 H   0  0  0  0  0  0
  -24.6579  -15.8401   20.4517 H   0  0  0  0  0  0
  -26.2681  -15.6090   20.0083 H   0  0  0  0  0  0
  -26.7169  -32.5470   23.1145 H   0  0  0  0  0  0
  -24.9999  -33.9725   25.0424 H   0  0  0  0  0  0
  -22.7125  -31.2991   21.3973 H   0  0  0  0  0  0
  -23.3721  -35.9647   23.3307 H   0  0  0  0  0  0
  -24.3579  -36.8915   22.2054 H   0  0  0  0  0  0
  -23.7234  -37.6518   23.6649 H   0  0  0  0  0  0
  -26.0807  -31.5533   20.5947 H   0  0  0  0  0  0
  -26.8425  -30.8572   21.9941 H   0  0  0  0  0  0
  -28.1186  -29.0017   21.2072 H   0  0  0  0  0  0
  -26.0380  -25.9340   19.0036 H   0  0  0  0  0  0
  -23.9951  -27.2960   19.0058 H   0  0  0  0  0  0
  -23.7600  -30.5866   19.4016 H   0  0  0  0  0  0
  -22.7600  -29.2402   19.8567 H   0  0  0  0  0  0
  -25.1252  -36.1959   25.0828 H   0  0  0  0  0  0
  -20.9995  -28.3286   24.1403 H   0  0  0  0  0  0
  -20.5678  -26.2316   23.3619 H   0  0  0  0  0  0
  -21.6660  -26.7438   22.1208 H   0  0  0  0  0  0
  -19.6898  -25.6295   21.1257 H   0  0  0  0  0  0
  -19.6676  -27.3199   20.6749 H   0  0  0  0  0  0
  -17.4201  -26.6718   21.4028 H   0  0  0  0  0  0
  -18.0299  -26.0082   22.9004 H   0  0  0  0  0  0
  -19.7947  -30.7297   24.2270 H   0  0  0  0  0  0
  -17.5013  -31.6271   24.5178 H   0  0  0  0  0  0
  -15.5355  -30.2983   23.7650 H   0  0  0  0  0  0
  -15.8688  -28.0806   22.7084 H   0  0  0  0  0  0
  -24.5870  -30.7072   25.7816 H   0  0  0  0  0  0
  -24.8869  -32.2898   26.4880 H   0  0  0  0  0  0
  -25.8009  -30.8933   27.0266 H   0  0  0  0  0  0
  -26.2874  -29.6788   24.1166 H   0  0  0  0  0  0
  -27.3978  -29.7245   25.4669 H   0  0  0  0  0  0
  -27.8741  -30.4321   23.9403 H   0  0  0  0  0  0
  -27.2714  -33.3602   26.2077 H   0  0  0  0  0  0
  -28.3836  -32.6838   25.0271 H   0  0  0  0  0  0
  -28.0749  -31.8401   26.5371 H   0  0  0  0  0  0
  -28.2582  -38.0105   24.7513 H   0  0  0  0  0  0
  -28.1072  -36.2643   24.6234 H   0  0  0  0  0  0
  -27.2322  -37.1418   25.8869 H   0  0  0  0  0  0
  -20.9391  -29.8731   21.6838 H   0  0  0  0  0  0
  -26.0158  -38.2855   24.1423 H   0  0  0  0  0  0
  -31.7693  -19.7855   19.7427 H   0  0  0  0  0  0
  -31.7874  -17.3581   19.8870 H   0  0  0  0  0  0
  -28.0001  -19.9172   21.8070 H   0  0  0  0  0  0
  -27.8304  -22.0308   20.1168 H   0  0  0  0  0  0
  -28.3005  -22.5100   21.7380 H   0  0  0  0  0  0
  -30.4893  -24.1918   21.7762 H   0  0  0  0  0  0
  -27.7725  -17.5750   23.3348 H   0  0  0  0  0  0
  -27.6545  -16.2294   22.2095 H   0  0  0  0  0  0
  -26.7393  -17.6968   21.9161 H   0  0  0  0  0  0
  -31.5978  -24.6306   18.9458 H   0  0  0  0  0  0
  -32.4952  -24.7788   20.4460 H   0  0  0  0  0  0
  -31.1815  -25.8896   20.1060 H   0  0  0  0  0  0
  -29.6345  -23.1248   18.2172 H   0  0  0  0  0  0
  -29.3143  -24.8525   18.2311 H   0  0  0  0  0  0
  -27.9822  -23.7142   18.2943 H   0  0  0  0  0  0
  -28.2928  -25.2025   21.7959 H   0  0  0  0  0  0
  -27.1206  -24.8165   20.6026 H   0  0  0  0  0  0
  -28.9888  -15.3322   21.4364 H   0  0  0  0  0  0
  1 25  1  0  0  0
  1 30  2  0  0  0
  1 86  1  0  0  0
  2  3  1  0  0  0
  2 25  1  0  0  0
  2 88  1  0  0  0
  2 89  1  0  0  0
  3  4  1  0  0  0
  3 90  1  0  0  0
  3 91  1  0  0  0
  4  5  1  0  0  0
  4 92  1  0  0  0
  4 93  1  0  0  0
  5  6  1  0  0  0
  5 26  1  0  0  0
  5 94  1  0  0  0
  6 25  1  0  0  0
  6 95  1  0  0  0
  6 96  1  0  0  0
  7  8  2  0  0  0
  7 26  1  0  0  0
  7 29  1  0  0  0
  8  9  1  0  0  0
  8 22  1  0  0  0
  9 10  1  0  0  0
  9 27  2  0  0  0
 10 11  2  0  0  0
 10 15  1  0  0  0
 11 12  1  0  0  0
 11 97  1  0  0  0
 12 13  2  0  0  0
 12 98  1  0  0  0
 13 14  1  0  0  0
 13 31  1  0  0  0
 14 15  2  0  0  0
 14 99  1  0  0  0
 15100  1  0  0  0
 16 17  2  0  0  0
 16 21  1  0  0  0
 16 31  1  0  0  0
 17 18  1  0  0  0
 17101  1  0  0  0
 18 19  2  0  0  0
 18102  1  0  0  0
 19 20  1  0  0  0
 19 24  1  0  0  0
 20 21  2  0  0  0
 20103  1  0  0  0
 21 23  1  0  0  0
 22 28  1  0  0  0
 22 32  2  0  0  0
 26 27  1  0  0  0
 28104  1  0  0  0
 28105  1  0  0  0
 29106  1  0  0  0
 29107  1  0  0  0
 33 34  1  0  0  0
 33 66  1  0  0  0
 33 70  2  0  0  0
 34 36  1  0  0  0
 34 59  1  0  0  0
 34108  1  0  0  0
 35 44  2  0  0  0
 35 45  1  0  0  0
 35 68  1  0  0  0
 36 56  1  0  0  0
 36109  1  0  0  0
 37 39  1  0  0  0
 37 47  1  0  0  0
 37 66  1  0  0  0
 37110  1  0  0  0
 38 43  2  0  0  0
 38 46  1  0  0  0
 38 47  1  0  0  0
 39 64  1  0  0  0
 39 67  2  0  0  0
 40 52  1  0  0  0
 40 53  2  0  0  0
 40 58  1  0  0  0
 41111  1  0  0  0
 41112  1  0  0  0
 41113  1  0  0  0
 41 48  1  0  0  0
 42 43  1  0  0  0
 42 66  1  0  0  0
 42114  1  0  0  0
 42115  1  0  0  0
 43 44  1  0  0  0
 44116  1  0  0  0
 45 46  2  0  0  0
 45117  1  0  0  0
 46118  1  0  0  0
 47119  1  0  0  0
 47120  1  0  0  0
 48 56  1  0  0  0
 48 65  1  0  0  0
 48121  1  0  0  0
 49 50  1  0  0  0
 49 53  1  0  0  0
 49 64  1  0  0  0
 49122  1  0  0  0
 50 51  1  0  0  0
 50123  1  0  0  0
 50124  1  0  0  0
 51 52  1  0  0  0
 51125  1  0  0  0
 51126  1  0  0  0
 52127  1  0  0  0
 52128  1  0  0  0
 53 54  1  0  0  0
 54 55  2  0  0  0
 54129  1  0  0  0
 55 57  1  0  0  0
 55130  1  0  0  0
 56 69  2  0  0  0
 57 58  2  0  0  0
 57131  1  0  0  0
 58132  1  0  0  0
 59 60  1  0  0  0
 59 61  1  0  0  0
 59 62  1  0  0  0
 60133  1  0  0  0
 60134  1  0  0  0
 60135  1  0  0  0
 61136  1  0  0  0
 61137  1  0  0  0
 61138  1  0  0  0
 62139  1  0  0  0
 62140  1  0  0  0
 62141  1  0  0  0
 63 65  1  0  0  0
 63142  1  0  0  0
 63143  1  0  0  0
 63144  1  0  0  0
 64145  1  0  0  0
 65146  1  0  0  0
 68 84  1  0  0  0
 71 72  2  0  0  0
 71 75  1  0  0  0
 71147  1  0  0  0
 72 76  1  0  0  0
 72148  1  0  0  0
 73 74  1  0  0  0
 73 75  2  0  0  0
 73149  1  0  0  0
 74 76  2  0  0  0
 74 81  1  0  0  0
 75 85  1  0  0  0
 76 86  1  0  0  0
 77 79  1  0  0  0
 77 85  1  0  0  0
 77 87  2  0  0  0
 78 80  1  0  0  0
 78 85  1  0  0  0
 78150  1  0  0  0
 78151  1  0  0  0
 79 80  1  0  0  0
 79 82  1  0  0  0
 79152  1  0  0  0
 80 83  1  0  0  0
 80 84  1  0  0  0
 81153  1  0  0  0
 81154  1  0  0  0
 81155  1  0  0  0
 82156  1  0  0  0
 82157  1  0  0  0
 82158  1  0  0  0
 83159  1  0  0  0
 83160  1  0  0  0
 83161  1  0  0  0
 84162  1  0  0  0
 84163  1  0  0  0
 86164  1  0  0  0
M  ISO  4   1 100  68 101  84 101  86 100
M  END
> <chiral flag>
0

> <version>
0

> <s_m_source_file>
/data/baiqing/PycharmProjects/Reinvent-master-3.2/result/LINK_invent/BTK/process_docking_weight1_custom_product_contain_oxygen_bond_distance_aromatic_linkinvent_7_9_3/rearranged_h_0068.sdf

> <i_m_source_file_index>
21

> <r_mmod_Potential_Energy-OPLS-2005>
159.886627197266

> <r_mmod_Stretch_Energy-OPLS-2005>
88.2140960693359

> <r_mmod_Bend_Energy-OPLS-2005>
177.805633544922

> <r_mmod_Torsional_Energy-OPLS-2005>
285.486694335938

> <r_mmod_Improper_Torsional_Energy-OPLS-2005>
3.59615421295166

> <r_mmod_Van_der_Waal_Energy-OPLS-2005>
139.882537841797

> <r_mmod_Electrostatic_Energy-OPLS-2005>
-368.589385986328

> <r_mmod_Solvation_Energy-OPLS-2005>
-214.728988647461

> <b_mmod_Minimization_Converged-OPLS-2005>
0

> <r_mmod_RMS_Derivative-OPLS-2005>
2.77558588981628

$$$$
21
                    3D
 Structure written by MMmdl.
159167  0  0  1  0            999 V2000
  -30.5829  -14.8052   20.4635 C   0  0  0  0  0  0
  -30.4417  -12.5001   19.4629 C   0  0  0  0  0  0
  -29.5111  -12.5041   18.2304 C   0  0  0  0  0  0
  -28.0403  -12.3154   18.6545 C   0  0  0  0  0  0
  -27.6358  -13.2315   19.8405 C   0  0  2  0  0  0
  -28.6844  -13.1985   20.9710 C   0  0  0  0  0  0
  -25.2500  -13.8191   20.5702 C   0  0  0  0  0  0
  -24.1798  -13.0431   20.9217 C   0  0  0  0  0  0
  -24.6397  -11.6909   20.8757 C   0  0  0  0  0  0
  -23.9075  -10.4286   21.0412 C   0  0  0  0  0  0
  -24.3621   -9.4199   21.9188 C   0  0  0  0  0  0
  -23.6291   -8.2240   22.0755 C   0  0  0  0  0  0
  -22.4275   -8.0281   21.3545 C   0  0  0  0  0  0
  -21.9916   -9.0255   20.4648 C   0  0  0  0  0  0
  -22.7250  -10.2131   20.3057 C   0  0  0  0  0  0
  -21.6851   -6.0734   22.5275 C   0  0  0  0  0  0
  -21.4013   -6.5636   23.8208 C   0  0  0  0  0  0
  -21.3658   -5.6789   24.9170 C   0  0  0  0  0  0
  -21.6041   -4.3052   24.7221 C   0  0  0  0  0  0
  -21.8824   -3.8144   23.4343 C   0  0  0  0  0  0
  -21.9194   -4.6962   22.3400 C   0  0  0  0  0  0
  -22.7820  -13.5210   21.1877 C   0  0  0  0  0  0
  -22.1661   -4.2146   21.0979 F   0  0  0  0  0  0
  -21.5630   -3.4538   25.7736 F   0  0  0  0  0  0
  -29.9691  -13.5728   20.3693 N   0  0  0  0  0  0
  -26.2915  -12.9393   20.3260 N   0  0  0  0  0  0
  -25.9323  -11.6536   20.5748 N   0  0  0  0  0  0
  -22.0474  -12.8194   22.0436 N   0  0  0  0  0  0
  -25.4174  -15.1921   20.4115 N   0  0  0  0  0  0
  -31.7955  -14.8922   20.2476 O   0  0  0  0  0  0
  -21.6642   -6.8877   21.4235 O   0  0  0  0  0  0
  -22.3500  -14.5518   20.6726 O   0  0  0  0  0  0
  -24.6368  -31.8518   23.1953 C   0  0  0  0  0  0
  -25.9168  -32.4741   23.8316 C   0  0  1  0  0  0
  -27.2154  -27.2259   20.1451 C   0  0  0  0  0  0
  -25.5948  -33.8549   24.2238 N   0  0  0  0  0  0
  -23.4353  -30.4737   21.5400 C   0  0  2  0  0  0
  -24.8820  -28.9119   20.1130 C   0  0  0  0  0  0
  -22.7528  -29.4588   22.4900 C   0  0  0  0  0  0
  -18.0297  -28.1403   22.8480 C   0  0  0  0  0  0
  -24.1484  -36.7277   23.2642 C   0  0  0  0  0  0
  -25.9843  -30.7536   21.3807 C   0  0  0  0  0  0
  -26.0555  -29.3707   20.7282 C   0  0  0  0  0  0
  -27.2282  -28.5413   20.7312 C   0  0  0  0  0  0
  -26.0227  -26.8401   19.5024 C   0  0  0  0  0  0
  -24.8731  -27.6560   19.4863 C   0  0  0  0  0  0
  -23.6552  -29.8057   20.1568 C   0  0  0  0  0  0
  -25.4116  -36.3066   24.0323 C   0  0  1  0  0  0
  -20.5905  -28.3714   23.1264 C   0  0  2  0  0  0
  -20.6791  -26.9425   22.5416 C   0  0  0  0  0  0
  -19.5761  -26.6387   21.5233 C   0  0  0  0  0  0
  -18.1937  -26.7939   22.1631 C   0  0  0  0  0  0
  -19.1553  -28.8874   23.2866 C   0  0  0  0  0  0
  -18.9472  -30.1474   23.8888 C   0  0  0  0  0  0
  -17.6473  -30.6599   24.0568 C   0  0  0  0  0  0
  -25.9064  -34.9436   23.5085 C   0  0  0  0  0  0
  -16.5362  -29.9094   23.6342 C   0  0  0  0  0  0
  -16.7282  -28.6517   23.0358 C   0  0  0  0  0  0
  -26.4515  -31.6585   25.0724 C   0  0  0  0  0  0
  -25.3717  -31.3756   26.1427 C   0  0  0  0  0  0
  -27.0374  -30.3003   24.6239 C   0  0  0  0  0  0
  -27.6050  -32.4338   25.7507 C   0  0  0  0  0  0
  -27.5575  -37.1799   24.8466 C   0  0  0  0  0  0
  -21.4228  -29.3052   22.3645 N   0  0  0  0  0  0
  -26.4284  -37.3776   23.9411 N   0  0  0  0  0  0
  -24.7053  -31.0448   22.0949 N   0  0  0  0  0  0
  -23.4211  -28.8131   23.3018 O   0  0  0  0  0  0
  -28.2786  -26.2854   20.1415 O   0  0  0  0  0  0
  -26.5638  -34.8918   22.4653 O   0  0  0  0  0  0
  -23.5504  -32.1346   23.7224 O   0  0  0  0  0  0
  -29.5144  -18.6104   20.3893 C   0  0  0  0  0  0
  -30.6661  -17.4709   22.2006 C   0  0  0  0  0  0
  -30.3487  -19.9280   22.2775 C   0  0  0  0  0  0
  -30.0078  -17.3477   20.9647 C   0  0  0  0  0  0
  -29.6731  -19.9340   21.0159 C   0  0  0  0  0  0
  -30.8169  -18.7126   22.8438 C   0  0  0  0  0  0
  -28.6058  -23.7268   20.4914 C   0  0  0  0  0  0
  -28.1060  -25.0138   20.7854 C   0  0  0  0  0  0
  -28.4228  -22.2429   20.8547 C   0  0  0  0  0  0
  -32.8742  -22.1048   22.5298 C   0  0  0  0  0  0
  -33.6399  -23.1514   21.7349 C   0  0  0  0  0  0
  -30.6157  -21.2121   23.0734 C   0  0  0  0  0  0
  -29.3183  -21.2712   20.4074 N   0  0  0  0  0  0
  -29.7766  -15.9512   20.4693 N   0  0  0  0  0  0
  -31.5430  -22.1346   22.4198 N   0  0  0  0  0  0
  -27.4548  -21.8412   21.5154 O   0  0  0  0  0  0
  -33.4793  -21.2878   23.2247 O   0  0  0  0  0  0
  -31.4332  -18.7187   24.0508 F   0  0  0  0  0  0
  -31.4760  -12.6548   19.1496 H   0  0  0  0  0  0
  -30.4173  -11.5320   19.9668 H   0  0  0  0  0  0
  -29.8029  -11.7177   17.5328 H   0  0  0  0  0  0
  -29.6195  -13.4469   17.6918 H   0  0  0  0  0  0
  -27.9140  -11.2697   18.9390 H   0  0  0  0  0  0
  -27.3758  -12.4798   17.8049 H   0  0  0  0  0  0
  -27.6164  -14.2449   19.4387 H   0  0  0  0  0  0
  -28.7428  -12.2098   21.4287 H   0  0  0  0  0  0
  -28.4134  -13.8941   21.7671 H   0  0  0  0  0  0
  -25.2767   -9.5670   22.4759 H   0  0  0  0  0  0
  -23.9995   -7.4631   22.7475 H   0  0  0  0  0  0
  -21.0849   -8.8779   19.8952 H   0  0  0  0  0  0
  -22.3716  -10.9669   19.6161 H   0  0  0  0  0  0
  -21.2006   -7.6144   23.9708 H   0  0  0  0  0  0
  -21.1473   -6.0521   25.9071 H   0  0  0  0  0  0
  -22.0606   -2.7606   23.2847 H   0  0  0  0  0  0
  -22.4095  -11.9842   22.4794 H   0  0  0  0  0  0
  -21.1091  -13.1208   22.2659 H   0  0  0  0  0  0
  -24.6488  -15.8430   20.5315 H   0  0  0  0  0  0
  -26.2580  -15.6371   20.0680 H   0  0  0  0  0  0
  -26.7220  -32.5367   23.1042 H   0  0  0  0  0  0
  -25.0091  -33.9685   25.0384 H   0  0  0  0  0  0
  -22.7355  -31.2989   21.3922 H   0  0  0  0  0  0
  -23.3750  -35.9604   23.3303 H   0  0  0  0  0  0
  -24.3575  -36.8918   22.2061 H   0  0  0  0  0  0
  -23.7242  -37.6476   23.6667 H   0  0  0  0  0  0
  -26.1284  -31.5083   20.6065 H   0  0  0  0  0  0
  -26.8605  -30.8035   22.0157 H   0  0  0  0  0  0
  -28.1277  -28.8863   21.2205 H   0  0  0  0  0  0
  -25.9734  -25.8717   19.0242 H   0  0  0  0  0  0
  -23.9780  -27.3008   18.9947 H   0  0  0  0  0  0
  -23.7845  -30.5834   19.4030 H   0  0  0  0  0  0
  -22.7702  -29.2452   19.8475 H   0  0  0  0  0  0
  -25.1304  -36.1908   25.0817 H   0  0  0  0  0  0
  -21.0001  -28.3295   24.1386 H   0  0  0  0  0  0
  -20.5735  -26.2313   23.3629 H   0  0  0  0  0  0
  -21.6648  -26.7473   22.1187 H   0  0  0  0  0  0
  -19.6932  -25.6306   21.1259 H   0  0  0  0  0  0
  -19.6705  -27.3194   20.6768 H   0  0  0  0  0  0
  -17.4221  -26.6706   21.4017 H   0  0  0  0  0  0
  -18.0309  -26.0094   22.9033 H   0  0  0  0  0  0
  -19.7954  -30.7293   24.2248 H   0  0  0  0  0  0
  -17.5030  -31.6278   24.5170 H   0  0  0  0  0  0
  -15.5361  -30.2996   23.7681 H   0  0  0  0  0  0
  -15.8679  -28.0837   22.7076 H   0  0  0  0  0  0
  -24.5885  -30.7122   25.7748 H   0  0  0  0  0  0
  -24.8911  -32.2934   26.4820 H   0  0  0  0  0  0
  -25.8009  -30.8946   27.0229 H   0  0  0  0  0  0
  -26.2975  -29.6742   24.1235 H   0  0  0  0  0  0
  -27.4031  -29.7282   25.4778 H   0  0  0  0  0  0
  -27.8856  -30.4287   23.9510 H   0  0  0  0  0  0
  -27.2644  -33.3648   26.2046 H   0  0  0  0  0  0
  -28.3873  -32.6896   25.0347 H   0  0  0  0  0  0
  -28.0687  -31.8493   26.5465 H   0  0  0  0  0  0
  -28.2591  -38.0097   24.7508 H   0  0  0  0  0  0
  -28.1074  -36.2631   24.6284 H   0  0  0  0  0  0
  -27.2290  -37.1437   25.8869 H   0  0  0  0  0  0
  -20.9420  -29.8767   21.6835 H   0  0  0  0  0  0
  -26.0158  -38.2853   24.1408 H   0  0  0  0  0  0
  -29.0018  -18.5662   19.4388 H   0  0  0  0  0  0
  -31.0373  -16.5921   22.7083 H   0  0  0  0  0  0
  -28.4958  -23.6850   21.5630 H   0  0  0  0  0  0
  -27.4815  -25.1935   21.6612 H   0  0  0  0  0  0
  -33.2914  -24.1532   21.9867 H   0  0  0  0  0  0
  -33.4946  -22.9924   20.6663 H   0  0  0  0  0  0
  -34.7074  -23.0968   21.9483 H   0  0  0  0  0  0
  -30.9834  -20.9884   24.0754 H   0  0  0  0  0  0
  -29.6720  -21.7234   23.2545 H   0  0  0  0  0  0
  -29.9607  -21.5959   19.6974 H   0  0  0  0  0  0
  -28.8151  -15.7525   20.2396 H   0  0  0  0  0  0
  -31.1424  -22.8629   21.8459 H   0  0  0  0  0  0
  1 25  1  0  0  0
  1 30  2  0  0  0
  1 84  1  0  0  0
  2  3  1  0  0  0
  2 25  1  0  0  0
  2 89  1  0  0  0
  2 90  1  0  0  0
  3  4  1  0  0  0
  3 91  1  0  0  0
  3 92  1  0  0  0
  4  5  1  0  0  0
  4 93  1  0  0  0
  4 94  1  0  0  0
  5  6  1  0  0  0
  5 26  1  0  0  0
  5 95  1  0  0  0
  6 25  1  0  0  0
  6 96  1  0  0  0
  6 97  1  0  0  0
  7  8  2  0  0  0
  7 26  1  0  0  0
  7 29  1  0  0  0
  8  9  1  0  0  0
  8 22  1  0  0  0
  9 10  1  0  0  0
  9 27  2  0  0  0
 10 11  2  0  0  0
 10 15  1  0  0  0
 11 12  1  0  0  0
 11 98  1  0  0  0
 12 13  2  0  0  0
 12 99  1  0  0  0
 13 14  1  0  0  0
 13 31  1  0  0  0
 14 15  2  0  0  0
 14100  1  0  0  0
 15101  1  0  0  0
 16 17  2  0  0  0
 16 21  1  0  0  0
 16 31  1  0  0  0
 17 18  1  0  0  0
 17102  1  0  0  0
 18 19  2  0  0  0
 18103  1  0  0  0
 19 20  1  0  0  0
 19 24  1  0  0  0
 20 21  2  0  0  0
 20104  1  0  0  0
 21 23  1  0  0  0
 22 28  1  0  0  0
 22 32  2  0  0  0
 26 27  1  0  0  0
 28105  1  0  0  0
 28106  1  0  0  0
 29107  1  0  0  0
 29108  1  0  0  0
 33 34  1  0  0  0
 33 66  1  0  0  0
 33 70  2  0  0  0
 34 36  1  0  0  0
 34 59  1  0  0  0
 34109  1  0  0  0
 35 44  2  0  0  0
 35 45  1  0  0  0
 35 68  1  0  0  0
 36 56  1  0  0  0
 36110  1  0  0  0
 37 39  1  0  0  0
 37 47  1  0  0  0
 37 66  1  0  0  0
 37111  1  0  0  0
 38 43  2  0  0  0
 38 46  1  0  0  0
 38 47  1  0  0  0
 39 64  1  0  0  0
 39 67  2  0  0  0
 40 52  1  0  0  0
 40 53  2  0  0  0
 40 58  1  0  0  0
 41112  1  0  0  0
 41113  1  0  0  0
 41114  1  0  0  0
 41 48  1  0  0  0
 42 43  1  0  0  0
 42 66  1  0  0  0
 42115  1  0  0  0
 42116  1  0  0  0
 43 44  1  0  0  0
 44117  1  0  0  0
 45 46  2  0  0  0
 45118  1  0  0  0
 46119  1  0  0  0
 47120  1  0  0  0
 47121  1  0  0  0
 48 56  1  0  0  0
 48 65  1  0  0  0
 48122  1  0  0  0
 49 50  1  0  0  0
 49 53  1  0  0  0
 49 64  1  0  0  0
 49123  1  0  0  0
 50 51  1  0  0  0
 50124  1  0  0  0
 50125  1  0  0  0
 51 52  1  0  0  0
 51126  1  0  0  0
 51127  1  0  0  0
 52128  1  0  0  0
 52129  1  0  0  0
 53 54  1  0  0  0
 54 55  2  0  0  0
 54130  1  0  0  0
 55 57  1  0  0  0
 55131  1  0  0  0
 56 69  2  0  0  0
 57 58  2  0  0  0
 57132  1  0  0  0
 58133  1  0  0  0
 59 60  1  0  0  0
 59 61  1  0  0  0
 59 62  1  0  0  0
 60134  1  0  0  0
 60135  1  0  0  0
 60136  1  0  0  0
 61137  1  0  0  0
 61138  1  0  0  0
 61139  1  0  0  0
 62140  1  0  0  0
 62141  1  0  0  0
 62142  1  0  0  0
 63 65  1  0  0  0
 63143  1  0  0  0
 63144  1  0  0  0
 63145  1  0  0  0
 64146  1  0  0  0
 65147  1  0  0  0
 68 78  1  0  0  0
 71 74  2  0  0  0
 71 75  1  0  0  0
 71148  1  0  0  0
 72 74  1  0  0  0
 72 76  2  0  0  0
 72149  1  0  0  0
 73 75  2  0  0  0
 73 76  1  0  0  0
 73 82  1  0  0  0
 74 84  1  0  0  0
 75 83  1  0  0  0
 76 88  1  0  0  0
 77 78  2  0  0  0
 77 79  1  0  0  0
 77150  1  0  0  0
 78151  1  0  0  0
 79 83  1  0  0  0
 79 86  2  0  0  0
 80 81  1  0  0  0
 80 85  1  0  0  0
 80 87  2  0  0  0
 81152  1  0  0  0
 81153  1  0  0  0
 81154  1  0  0  0
 82 85  1  0  0  0
 82155  1  0  0  0
 82156  1  0  0  0
 83157  1  0  0  0
 84158  1  0  0  0
 85159  1  0  0  0
M  ISO  4   1 100  68 101  78 101  84 100
M  END
> <chiral flag>
0

> <version>
0

> <s_m_source_file>
/data/baiqing/PycharmProjects/Reinvent-master-3.2/result/LINK_invent/BTK/process_docking_weight1_custom_product_contain_oxygen_bond_distance_aromatic_linkinvent_7_9_3/rearranged_h_0068.sdf

> <i_m_source_file_index>
22

> <r_mmod_Potential_Energy-OPLS-2005>
481.60400390625

> <r_mmod_Stretch_Energy-OPLS-2005>
155.956680297852

> <r_mmod_Bend_Energy-OPLS-2005>
391.605926513672

> <r_mmod_Torsional_Energy-OPLS-2005>
322.442352294922

> <r_mmod_Improper_Torsional_Energy-OPLS-2005>
33.2503280639648

> <r_mmod_Van_der_Waal_Energy-OPLS-2005>
145.588592529297

> <r_mmod_Electrostatic_Energy-OPLS-2005>
-420.351837158203

> <r_mmod_Solvation_Energy-OPLS-2005>
-263.093963623047

> <b_mmod_Minimization_Converged-OPLS-2005>
0

> <r_mmod_RMS_Derivative-OPLS-2005>
1.35506951808929

$$$$
22
                    3D
 Structure written by MMmdl.
153161  0  0  1  0            999 V2000
  -30.5112  -15.0524   20.4116 C   0  0  0  0  0  0
  -30.4414  -12.6654   19.4968 C   0  0  0  0  0  0
  -29.5214  -12.5366   18.2603 C   0  0  0  0  0  0
  -28.0621  -12.2973   18.6899 C   0  0  0  0  0  0
  -27.6197  -13.2540   19.8266 C   0  0  2  0  0  0
  -28.6630  -13.3412   20.9594 C   0  0  0  0  0  0
  -25.2425  -13.8222   20.5720 C   0  0  0  0  0  0
  -24.1756  -13.0436   20.9245 C   0  0  0  0  0  0
  -24.6383  -11.6926   20.8767 C   0  0  0  0  0  0
  -23.9073  -10.4288   21.0414 C   0  0  0  0  0  0
  -24.3620   -9.4202   21.9193 C   0  0  0  0  0  0
  -23.6292   -8.2239   22.0754 C   0  0  0  0  0  0
  -22.4278   -8.0275   21.3540 C   0  0  0  0  0  0
  -21.9918   -9.0248   20.4641 C   0  0  0  0  0  0
  -22.7248  -10.2128   20.3057 C   0  0  0  0  0  0
  -21.6850   -6.0732   22.5273 C   0  0  0  0  0  0
  -21.4014   -6.5637   23.8206 C   0  0  0  0  0  0
  -21.3657   -5.6790   24.9170 C   0  0  0  0  0  0
  -21.6047   -4.3053   24.7223 C   0  0  0  0  0  0
  -21.8818   -3.8144   23.4344 C   0  0  0  0  0  0
  -21.9193   -4.6960   22.3399 C   0  0  0  0  0  0
  -22.7775  -13.5199   21.1896 C   0  0  0  0  0  0
  -22.1661   -4.2149   21.0976 F   0  0  0  0  0  0
  -21.5629   -3.4536   25.7736 F   0  0  0  0  0  0
  -29.9190  -13.7835   20.3404 N   0  0  0  0  0  0
  -26.2840  -12.9458   20.3218 N   0  0  0  0  0  0
  -25.9313  -11.6586   20.5741 N   0  0  0  0  0  0
  -22.0422  -12.8179   22.0445 N   0  0  0  0  0  0
  -25.4077  -15.1952   20.4130 N   0  0  0  0  0  0
  -31.7328  -15.0791   20.2186 O   0  0  0  0  0  0
  -21.6636   -6.8876   21.4237 O   0  0  0  0  0  0
  -22.3459  -14.5503   20.6737 O   0  0  0  0  0  0
  -24.6497  -31.8377   23.1828 C   0  0  0  0  0  0
  -25.9242  -32.4665   23.8230 C   0  0  1  0  0  0
  -27.2073  -27.0641   20.1608 C   0  0  0  0  0  0
  -25.5960  -33.8473   24.2146 N   0  0  0  0  0  0
  -23.4555  -30.4557   21.5312 C   0  0  2  0  0  0
  -24.9046  -28.8728   20.1084 C   0  0  0  0  0  0
  -22.7593  -29.4512   22.4837 C   0  0  0  0  0  0
  -18.0311  -28.1399   22.8469 C   0  0  0  0  0  0
  -24.1489  -36.7244   23.2642 C   0  0  0  0  0  0
  -26.0158  -30.6897   21.3896 C   0  0  0  0  0  0
  -26.0855  -29.2929   20.7337 C   0  0  0  0  0  0
  -27.2375  -28.4069   20.7403 C   0  0  0  0  0  0
  -26.0017  -26.7683   19.4866 C   0  0  0  0  0  0
  -24.8804  -27.6268   19.4658 C   0  0  0  0  0  0
  -23.6849  -29.7844   20.1512 C   0  0  0  0  0  0
  -25.4119  -36.3011   24.0309 C   0  0  1  0  0  0
  -20.5924  -28.3729   23.1223 C   0  0  2  0  0  0
  -20.6796  -26.9428   22.5399 C   0  0  0  0  0  0
  -19.5770  -26.6387   21.5208 C   0  0  0  0  0  0
  -18.1950  -26.7938   22.1617 C   0  0  0  0  0  0
  -19.1568  -28.8882   23.2835 C   0  0  0  0  0  0
  -18.9479  -30.1476   23.8865 C   0  0  0  0  0  0
  -17.6475  -30.6594   24.0557 C   0  0  0  0  0  0
  -25.9080  -34.9393   23.5043 C   0  0  0  0  0  0
  -16.5365  -29.9086   23.6339 C   0  0  0  0  0  0
  -16.7295  -28.6506   23.0359 C   0  0  0  0  0  0
  -26.4539  -31.6551   25.0692 C   0  0  0  0  0  0
  -25.3701  -31.3737   26.1364 C   0  0  0  0  0  0
  -27.0418  -30.2949   24.6291 C   0  0  0  0  0  0
  -27.6056  -32.4322   25.7486 C   0  0  0  0  0  0
  -27.5567  -37.1776   24.8463 C   0  0  0  0  0  0
  -21.4278  -29.3046   22.3592 N   0  0  0  0  0  0
  -26.4275  -37.3735   23.9409 N   0  0  0  0  0  0
  -24.7277  -31.0167   22.0897 N   0  0  0  0  0  0
  -23.4202  -28.8059   23.3016 O   0  0  0  0  0  0
  -28.2283  -26.0234   20.2288 O   0  0  0  0  0  0
  -26.5680  -34.8908   22.4628 O   0  0  0  0  0  0
  -23.5600  -32.1288   23.7012 O   0  0  0  0  0  0
  -31.2104  -18.0947   21.3232 C   0  0  0  0  0  0
  -29.2128  -19.0285   20.3188 C   0  0  0  0  0  0
  -31.5552  -19.4076   21.7188 C   0  0  0  0  0  0
  -30.0194  -17.7894   20.6391 C   0  0  0  0  0  0
  -29.5483  -20.4664   20.6488 C   0  0  0  0  0  0
  -30.7480  -20.5424   21.4201 C   0  0  0  0  0  0
  -28.9907  -23.2176   20.2955 C   0  0  0  0  0  0
  -32.8385  -19.5793   22.5236 C   0  0  0  0  0  0
  -27.8747  -24.4727   20.1583 C   0  0  0  0  0  0
  -31.1539  -21.7529   21.9711 N   0  0  0  0  0  0
  -28.7273  -21.7873   20.3642 N   0  0  0  0  0  0
  -29.7263  -16.2690   20.4240 N   0  0  0  0  0  0
  -30.1611  -23.6044   20.2727 O   0  0  0  0  0  0
  -31.4667  -12.8489   19.1723 H   0  0  0  0  0  0
  -30.4699  -11.7341   20.0644 H   0  0  0  0  0  0
  -29.8617  -11.7255   17.6152 H   0  0  0  0  0  0
  -29.5806  -13.4488   17.6648 H   0  0  0  0  0  0
  -27.9880  -11.2651   19.0344 H   0  0  0  0  0  0
  -27.3916  -12.3812   17.8336 H   0  0  0  0  0  0
  -27.5620  -14.2397   19.3640 H   0  0  0  0  0  0
  -28.7818  -12.3827   21.4657 H   0  0  0  0  0  0
  -28.3444  -14.0585   21.7173 H   0  0  0  0  0  0
  -25.2757   -9.5681   22.4774 H   0  0  0  0  0  0
  -23.9992   -7.4633   22.7477 H   0  0  0  0  0  0
  -21.0848   -8.8775   19.8942 H   0  0  0  0  0  0
  -22.3709  -10.9671   19.6163 H   0  0  0  0  0  0
  -21.2003   -7.6147   23.9712 H   0  0  0  0  0  0
  -21.1479   -6.0521   25.9076 H   0  0  0  0  0  0
  -22.0600   -2.7610   23.2844 H   0  0  0  0  0  0
  -22.4041  -11.9837   22.4831 H   0  0  0  0  0  0
  -21.1036  -13.1195   22.2648 H   0  0  0  0  0  0
  -24.6362  -15.8450   20.5193 H   0  0  0  0  0  0
  -26.2459  -15.6348   20.0580 H   0  0  0  0  0  0
  -26.7296  -32.5258   23.0940 H   0  0  0  0  0  0
  -25.0065  -33.9568   25.0263 H   0  0  0  0  0  0
  -22.7621  -31.2847   21.3739 H   0  0  0  0  0  0
  -23.3766  -35.9563   23.3280 H   0  0  0  0  0  0
  -24.3563  -36.8915   22.2062 H   0  0  0  0  0  0
  -23.7240  -37.6422   23.6709 H   0  0  0  0  0  0
  -26.1719  -31.4385   20.6119 H   0  0  0  0  0  0
  -26.8866  -30.7471   22.0310 H   0  0  0  0  0  0
  -28.1344  -28.7224   21.2552 H   0  0  0  0  0  0
  -25.8853  -25.8229   18.9808 H   0  0  0  0  0  0
  -23.9841  -27.3025   18.9544 H   0  0  0  0  0  0
  -23.8264  -30.5602   19.3973 H   0  0  0  0  0  0
  -22.7974  -29.2318   19.8377 H   0  0  0  0  0  0
  -25.1311  -36.1823   25.0803 H   0  0  0  0  0  0
  -21.0004  -28.3331   24.1349 H   0  0  0  0  0  0
  -20.5698  -26.2337   23.3616 H   0  0  0  0  0  0
  -21.6663  -26.7442   22.1185 H   0  0  0  0  0  0
  -19.6935  -25.6292   21.1253 H   0  0  0  0  0  0
  -19.6719  -27.3187   20.6726 H   0  0  0  0  0  0
  -17.4216  -26.6681   21.4022 H   0  0  0  0  0  0
  -18.0347  -26.0085   22.9018 H   0  0  0  0  0  0
  -19.7961  -30.7291   24.2229 H   0  0  0  0  0  0
  -17.5037  -31.6277   24.5159 H   0  0  0  0  0  0
  -15.5368  -30.2977   23.7691 H   0  0  0  0  0  0
  -15.8692  -28.0818   22.7093 H   0  0  0  0  0  0
  -24.5924  -30.7039   25.7666 H   0  0  0  0  0  0
  -24.8832  -32.2910   26.4686 H   0  0  0  0  0  0
  -25.7963  -30.8979   27.0208 H   0  0  0  0  0  0
  -26.3044  -29.6652   24.1297 H   0  0  0  0  0  0
  -27.4031  -29.7259   25.4867 H   0  0  0  0  0  0
  -27.8950  -30.4185   23.9619 H   0  0  0  0  0  0
  -27.2668  -33.3691   26.1921 H   0  0  0  0  0  0
  -28.3946  -32.6765   25.0360 H   0  0  0  0  0  0
  -28.0628  -31.8527   26.5517 H   0  0  0  0  0  0
  -28.2555  -38.0100   24.7519 H   0  0  0  0  0  0
  -28.1095  -36.2623   24.6281 H   0  0  0  0  0  0
  -27.2280  -37.1405   25.8865 H   0  0  0  0  0  0
  -20.9495  -29.8755   21.6761 H   0  0  0  0  0  0
  -26.0139  -38.2796   24.1438 H   0  0  0  0  0  0
  -31.8692  -17.2880   21.6103 H   0  0  0  0  0  0
  -28.2799  -18.8679   19.7980 H   0  0  0  0  0  0
  -33.3325  -18.6262   22.7137 H   0  0  0  0  0  0
  -32.6297  -20.0363   23.4922 H   0  0  0  0  0  0
  -33.5432  -20.2162   21.9873 H   0  0  0  0  0  0
  -27.1136  -24.2892   20.9179 H   0  0  0  0  0  0
  -27.3844  -24.2924   19.2024 H   0  0  0  0  0  0
  -32.1317  -21.8267   22.2196 H   0  0  0  0  0  0
  -30.8410  -22.5676   21.4343 H   0  0  0  0  0  0
  -27.7470  -21.5998   20.2062 H   0  0  0  0  0  0
  -28.7447  -16.0686   20.3088 H   0  0  0  0  0  0
  1 25  1  0  0  0
  1 30  2  0  0  0
  1 82  1  0  0  0
  2  3  1  0  0  0
  2 25  1  0  0  0
  2 84  1  0  0  0
  2 85  1  0  0  0
  3  4  1  0  0  0
  3 86  1  0  0  0
  3 87  1  0  0  0
  4  5  1  0  0  0
  4 88  1  0  0  0
  4 89  1  0  0  0
  5  6  1  0  0  0
  5 26  1  0  0  0
  5 90  1  0  0  0
  6 25  1  0  0  0
  6 91  1  0  0  0
  6 92  1  0  0  0
  7  8  2  0  0  0
  7 26  1  0  0  0
  7 29  1  0  0  0
  8  9  1  0  0  0
  8 22  1  0  0  0
  9 10  1  0  0  0
  9 27  2  0  0  0
 10 11  2  0  0  0
 10 15  1  0  0  0
 11 12  1  0  0  0
 11 93  1  0  0  0
 12 13  2  0  0  0
 12 94  1  0  0  0
 13 14  1  0  0  0
 13 31  1  0  0  0
 14 15  2  0  0  0
 14 95  1  0  0  0
 15 96  1  0  0  0
 16 17  2  0  0  0
 16 21  1  0  0  0
 16 31  1  0  0  0
 17 18  1  0  0  0
 17 97  1  0  0  0
 18 19  2  0  0  0
 18 98  1  0  0  0
 19 20  1  0  0  0
 19 24  1  0  0  0
 20 21  2  0  0  0
 20 99  1  0  0  0
 21 23  1  0  0  0
 22 28  1  0  0  0
 22 32  2  0  0  0
 26 27  1  0  0  0
 28100  1  0  0  0
 28101  1  0  0  0
 29102  1  0  0  0
 29103  1  0  0  0
 33 34  1  0  0  0
 33 66  1  0  0  0
 33 70  2  0  0  0
 34 36  1  0  0  0
 34 59  1  0  0  0
 34104  1  0  0  0
 35 44  2  0  0  0
 35 45  1  0  0  0
 35 68  1  0  0  0
 36 56  1  0  0  0
 36105  1  0  0  0
 37 39  1  0  0  0
 37 47  1  0  0  0
 37 66  1  0  0  0
 37106  1  0  0  0
 38 43  2  0  0  0
 38 46  1  0  0  0
 38 47  1  0  0  0
 39 64  1  0  0  0
 39 67  2  0  0  0
 40 52  1  0  0  0
 40 53  2  0  0  0
 40 58  1  0  0  0
 41107  1  0  0  0
 41108  1  0  0  0
 41109  1  0  0  0
 41 48  1  0  0  0
 42 43  1  0  0  0
 42 66  1  0  0  0
 42110  1  0  0  0
 42111  1  0  0  0
 43 44  1  0  0  0
 44112  1  0  0  0
 45 46  2  0  0  0
 45113  1  0  0  0
 46114  1  0  0  0
 47115  1  0  0  0
 47116  1  0  0  0
 48 56  1  0  0  0
 48 65  1  0  0  0
 48117  1  0  0  0
 49 50  1  0  0  0
 49 53  1  0  0  0
 49 64  1  0  0  0
 49118  1  0  0  0
 50 51  1  0  0  0
 50119  1  0  0  0
 50120  1  0  0  0
 51 52  1  0  0  0
 51121  1  0  0  0
 51122  1  0  0  0
 52123  1  0  0  0
 52124  1  0  0  0
 53 54  1  0  0  0
 54 55  2  0  0  0
 54125  1  0  0  0
 55 57  1  0  0  0
 55126  1  0  0  0
 56 69  2  0  0  0
 57 58  2  0  0  0
 57127  1  0  0  0
 58128  1  0  0  0
 59 60  1  0  0  0
 59 61  1  0  0  0
 59 62  1  0  0  0
 60129  1  0  0  0
 60130  1  0  0  0
 60131  1  0  0  0
 61132  1  0  0  0
 61133  1  0  0  0
 61134  1  0  0  0
 62135  1  0  0  0
 62136  1  0  0  0
 62137  1  0  0  0
 63 65  1  0  0  0
 63138  1  0  0  0
 63139  1  0  0  0
 63140  1  0  0  0
 64141  1  0  0  0
 65142  1  0  0  0
 68 79  1  0  0  0
 71 73  2  0  0  0
 71 74  1  0  0  0
 71143  1  0  0  0
 72 74  2  0  0  0
 72 75  1  0  0  0
 72144  1  0  0  0
 73 76  1  0  0  0
 73 78  1  0  0  0
 74 82  1  0  0  0
 75 76  2  0  0  0
 75 81  1  0  0  0
 76 80  1  0  0  0
 77 79  1  0  0  0
 77 81  1  0  0  0
 77 83  2  0  0  0
 78145  1  0  0  0
 78146  1  0  0  0
 78147  1  0  0  0
 79148  1  0  0  0
 79149  1  0  0  0
 80150  1  0  0  0
 80151  1  0  0  0
 81152  1  0  0  0
 82153  1  0  0  0
M  ISO  4   1 100  68 101  79 101  82 100
M  END
> <chiral flag>
0

> <version>
0

> <s_m_source_file>
/data/baiqing/PycharmProjects/Reinvent-master-3.2/result/LINK_invent/BTK/process_docking_weight1_custom_product_contain_oxygen_bond_distance_aromatic_linkinvent_7_9_3/rearranged_h_0068.sdf

> <i_m_source_file_index>
23

> <r_mmod_Potential_Energy-OPLS-2005>
560.028625488281

> <r_mmod_Stretch_Energy-OPLS-2005>
349.480499267578

> <r_mmod_Bend_Energy-OPLS-2005>
275.309600830078

> <r_mmod_Torsional_Energy-OPLS-2005>
240.460098266602

> <r_mmod_Improper_Torsional_Energy-OPLS-2005>
11.9184122085571

> <r_mmod_Van_der_Waal_Energy-OPLS-2005>
152.652877807617

> <r_mmod_Electrostatic_Energy-OPLS-2005>
-493.882934570312

> <r_mmod_Solvation_Energy-OPLS-2005>
-247.93962097168

> <b_mmod_Minimization_Converged-OPLS-2005>
0

> <r_mmod_RMS_Derivative-OPLS-2005>
1.34829580783844

$$$$
23
                    3D
 Structure written by MMmdl.
154162  0  0  1  0            999 V2000
  -30.6960  -14.4837   20.5331 C   0  0  0  0  0  0
  -30.4265  -12.2943   19.4453 C   0  0  0  0  0  0
  -29.5106  -12.4807   18.2150 C   0  0  0  0  0  0
  -28.0247  -12.3531   18.6176 C   0  0  0  0  0  0
  -27.6628  -13.2030   19.8643 C   0  0  2  0  0  0
  -28.7001  -13.0163   20.9974 C   0  0  0  0  0  0
  -25.2615  -13.8149   20.5659 C   0  0  0  0  0  0
  -24.1843  -13.0461   20.9179 C   0  0  0  0  0  0
  -24.6394  -11.6921   20.8721 C   0  0  0  0  0  0
  -23.9063  -10.4290   21.0410 C   0  0  0  0  0  0
  -24.3620   -9.4210   21.9206 C   0  0  0  0  0  0
  -23.6285   -8.2253   22.0786 C   0  0  0  0  0  0
  -22.4272   -8.0288   21.3562 C   0  0  0  0  0  0
  -21.9901   -9.0263   20.4674 C   0  0  0  0  0  0
  -22.7228  -10.2141   20.3071 C   0  0  0  0  0  0
  -21.6870   -6.0740   22.5275 C   0  0  0  0  0  0
  -21.4012   -6.5639   23.8202 C   0  0  0  0  0  0
  -21.3663   -5.6807   24.9167 C   0  0  0  0  0  0
  -21.6044   -4.3071   24.7228 C   0  0  0  0  0  0
  -21.8821   -3.8153   23.4352 C   0  0  0  0  0  0
  -21.9187   -4.6964   22.3405 C   0  0  0  0  0  0
  -22.7864  -13.5275   21.1824 C   0  0  0  0  0  0
  -22.1670   -4.2151   21.0982 F   0  0  0  0  0  0
  -21.5619   -3.4556   25.7742 F   0  0  0  0  0  0
  -30.0359  -13.2977   20.4452 N   0  0  0  0  0  0
  -26.3027  -12.9326   20.3274 N   0  0  0  0  0  0
  -25.9316  -11.6501   20.5735 N   0  0  0  0  0  0
  -22.0473  -12.8285   22.0372 N   0  0  0  0  0  0
  -25.4328  -15.1862   20.4075 N   0  0  0  0  0  0
  -31.8548  -14.6450   20.1472 O   0  0  0  0  0  0
  -21.6639   -6.8889   21.4242 O   0  0  0  0  0  0
  -22.3549  -14.5579   20.6652 O   0  0  0  0  0  0
  -24.6198  -31.8668   23.2097 C   0  0  0  0  0  0
  -25.9080  -32.4805   23.8379 C   0  0  1  0  0  0
  -27.2275  -27.4034   20.0843 C   0  0  0  0  0  0
  -25.5952  -33.8618   24.2310 N   0  0  0  0  0  0
  -23.4062  -30.4896   21.5531 C   0  0  2  0  0  0
  -24.8511  -28.9560   20.1144 C   0  0  0  0  0  0
  -22.7422  -29.4634   22.5021 C   0  0  0  0  0  0
  -18.0272  -28.1358   22.8487 C   0  0  0  0  0  0
  -24.1487  -36.7297   23.2627 C   0  0  0  0  0  0
  -25.9393  -30.8170   21.3714 C   0  0  0  0  0  0
  -26.0150  -29.4504   20.7152 C   0  0  0  0  0  0
  -27.2070  -28.6811   20.6976 C   0  0  0  0  0  0
  -26.0373  -26.9376   19.4728 C   0  0  0  0  0  0
  -24.8587  -27.6993   19.4899 C   0  0  0  0  0  0
  -23.6146  -29.8260   20.1657 C   0  0  0  0  0  0
  -25.4114  -36.3112   24.0328 C   0  0  1  0  0  0
  -20.5844  -28.3622   23.1323 C   0  0  2  0  0  0
  -20.6769  -26.9378   22.5385 C   0  0  0  0  0  0
  -19.5731  -26.6337   21.5219 C   0  0  0  0  0  0
  -18.1911  -26.7902   22.1626 C   0  0  0  0  0  0
  -19.1511  -28.8820   23.2904 C   0  0  0  0  0  0
  -18.9440  -30.1412   23.8938 C   0  0  0  0  0  0
  -17.6449  -30.6544   24.0598 C   0  0  0  0  0  0
  -25.9063  -34.9473   23.5102 C   0  0  0  0  0  0
  -16.5332  -29.9060   23.6322 C   0  0  0  0  0  0
  -16.7249  -28.6478   23.0324 C   0  0  0  0  0  0
  -26.4509  -31.6614   25.0722 C   0  0  0  0  0  0
  -25.3718  -31.3774   26.1420 C   0  0  0  0  0  0
  -27.0352  -30.3055   24.6131 C   0  0  0  0  0  0
  -27.6083  -32.4321   25.7483 C   0  0  0  0  0  0
  -27.5587  -37.1802   24.8470 C   0  0  0  0  0  0
  -21.4138  -29.3001   22.3752 N   0  0  0  0  0  0
  -26.4306  -37.3790   23.9404 N   0  0  0  0  0  0
  -24.6724  -31.0729   22.1009 N   0  0  0  0  0  0
  -23.4212  -28.8177   23.3047 O   0  0  0  0  0  0
  -28.3808  -26.6320   20.1011 O   0  0  0  0  0  0
  -26.5583  -34.8929   22.4645 O   0  0  0  0  0  0
  -23.5373  -32.1471   23.7447 O   0  0  0  0  0  0
  -29.6719  -16.6427   18.7179 C   0  0  0  0  0  0
  -29.4109  -17.7838   17.9492 C   0  0  0  0  0  0
  -29.7587  -18.0276   20.7251 C   0  0  0  0  0  0
  -29.8267  -16.7405   20.1181 C   0  0  0  0  0  0
  -29.5202  -19.1995   19.9492 C   0  0  0  0  0  0
  -29.3073  -19.0446   18.5550 C   0  0  0  0  0  0
  -29.6252  -21.7246   20.1089 C   0  0  0  0  0  0
  -29.1026  -22.9084   20.9559 C   0  0  0  0  0  0
  -29.4310  -24.3715   20.4934 C   0  0  0  0  0  0
  -28.1914  -25.1957   20.0558 C   0  0  0  0  0  0
  -29.3916  -20.4794   20.5964 N   0  0  0  0  0  0
  -29.9290  -15.5374   20.8861 N   0  0  0  0  0  0
  -30.2736  -21.9441   19.0817 O   0  0  0  0  0  0
  -28.9267  -20.0830   17.7775 F   0  0  0  0  0  0
  -31.4769  -12.3839   19.1595 H   0  0  0  0  0  0
  -30.3123  -11.2903   19.8571 H   0  0  0  0  0  0
  -29.7515  -11.7372   17.4527 H   0  0  0  0  0  0
  -29.6972  -13.4507   17.7526 H   0  0  0  0  0  0
  -27.8286  -11.2970   18.8165 H   0  0  0  0  0  0
  -27.3850  -12.6233   17.7753 H   0  0  0  0  0  0
  -27.6969  -14.2434   19.5428 H   0  0  0  0  0  0
  -28.6659  -11.9999   21.3875 H   0  0  0  0  0  0
  -28.4611  -13.6576   21.8467 H   0  0  0  0  0  0
  -25.2783   -9.5686   22.4751 H   0  0  0  0  0  0
  -23.9998   -7.4666   22.7531 H   0  0  0  0  0  0
  -21.0822   -8.8782   19.8991 H   0  0  0  0  0  0
  -22.3703  -10.9671   19.6153 H   0  0  0  0  0  0
  -21.2001   -7.6153   23.9696 H   0  0  0  0  0  0
  -21.1486   -6.0544   25.9066 H   0  0  0  0  0  0
  -22.0584   -2.7608   23.2856 H   0  0  0  0  0  0
  -22.4082  -11.9976   22.4816 H   0  0  0  0  0  0
  -21.1066  -13.1313   22.2482 H   0  0  0  0  0  0
  -24.6667  -15.8414   20.5151 H   0  0  0  0  0  0
  -26.2849  -15.6234   20.0820 H   0  0  0  0  0  0
  -26.7145  -32.5524   23.1122 H   0  0  0  0  0  0
  -25.0228  -33.9798   25.0547 H   0  0  0  0  0  0
  -22.6939  -31.3066   21.4169 H   0  0  0  0  0  0
  -23.3761  -35.9628   23.3312 H   0  0  0  0  0  0
  -24.3594  -36.8901   22.2051 H   0  0  0  0  0  0
  -23.7244  -37.6503   23.6620 H   0  0  0  0  0  0
  -26.0617  -31.5788   20.6008 H   0  0  0  0  0  0
  -26.8254  -30.8678   21.9920 H   0  0  0  0  0  0
  -28.1040  -29.0522   21.1746 H   0  0  0  0  0  0
  -26.0008  -25.9870   18.9655 H   0  0  0  0  0  0
  -23.9663  -27.3193   19.0121 H   0  0  0  0  0  0
  -23.7224  -30.6052   19.4094 H   0  0  0  0  0  0
  -22.7346  -29.2493   19.8700 H   0  0  0  0  0  0
  -25.1284  -36.1969   25.0823 H   0  0  0  0  0  0
  -20.9945  -28.3137   24.1444 H   0  0  0  0  0  0
  -20.5708  -26.2260   23.3600 H   0  0  0  0  0  0
  -21.6640  -26.7459   22.1110 H   0  0  0  0  0  0
  -19.6915  -25.6233   21.1286 H   0  0  0  0  0  0
  -19.6693  -27.3131   20.6733 H   0  0  0  0  0  0
  -17.4196  -26.6692   21.3998 H   0  0  0  0  0  0
  -18.0240  -26.0039   22.9006 H   0  0  0  0  0  0
  -19.7918  -30.7188   24.2372 H   0  0  0  0  0  0
  -17.4991  -31.6212   24.5218 H   0  0  0  0  0  0
  -15.5326  -30.2961   23.7627 H   0  0  0  0  0  0
  -15.8646  -28.0795   22.7025 H   0  0  0  0  0  0
  -24.5847  -30.7201   25.7717 H   0  0  0  0  0  0
  -24.8944  -32.2957   26.4829 H   0  0  0  0  0  0
  -25.7977  -30.8915   27.0197 H   0  0  0  0  0  0
  -26.2928  -29.6798   24.1146 H   0  0  0  0  0  0
  -27.4113  -29.7311   25.4616 H   0  0  0  0  0  0
  -27.8760  -30.4404   23.9317 H   0  0  0  0  0  0
  -27.2722  -33.3597   26.2105 H   0  0  0  0  0  0
  -28.3853  -32.6915   25.0289 H   0  0  0  0  0  0
  -28.0770  -31.8411   26.5352 H   0  0  0  0  0  0
  -28.2592  -38.0096   24.7506 H   0  0  0  0  0  0
  -28.1077  -36.2637   24.6284 H   0  0  0  0  0  0
  -27.2303  -37.1450   25.8866 H   0  0  0  0  0  0
  -20.9293  -29.8752   21.7012 H   0  0  0  0  0  0
  -26.0193  -38.2868   24.1391 H   0  0  0  0  0  0
  -29.7016  -15.6842   18.2204 H   0  0  0  0  0  0
  -29.2503  -17.6925   16.8858 H   0  0  0  0  0  0
  -29.8723  -18.1112   21.7970 H   0  0  0  0  0  0
  -29.4908  -22.7742   21.9632 H   0  0  0  0  0  0
  -28.0242  -22.7853   21.0470 H   0  0  0  0  0  0
  -30.1839  -24.3891   19.7028 H   0  0  0  0  0  0
  -29.8893  -24.8891   21.3348 H   0  0  0  0  0  0
  -27.3704  -24.9441   20.7305 H   0  0  0  0  0  0
  -27.8961  -24.8798   19.0532 H   0  0  0  0  0  0
  -29.0491  -20.4404   21.5420 H   0  0  0  0  0  0
  -29.0655  -15.2494   21.3226 H   0  0  0  0  0  0
  1 25  1  0  0  0
  1 30  2  0  0  0
  1 82  1  0  0  0
  2  3  1  0  0  0
  2 25  1  0  0  0
  2 85  1  0  0  0
  2 86  1  0  0  0
  3  4  1  0  0  0
  3 87  1  0  0  0
  3 88  1  0  0  0
  4  5  1  0  0  0
  4 89  1  0  0  0
  4 90  1  0  0  0
  5  6  1  0  0  0
  5 26  1  0  0  0
  5 91  1  0  0  0
  6 25  1  0  0  0
  6 92  1  0  0  0
  6 93  1  0  0  0
  7  8  2  0  0  0
  7 26  1  0  0  0
  7 29  1  0  0  0
  8  9  1  0  0  0
  8 22  1  0  0  0
  9 10  1  0  0  0
  9 27  2  0  0  0
 10 11  2  0  0  0
 10 15  1  0  0  0
 11 12  1  0  0  0
 11 94  1  0  0  0
 12 13  2  0  0  0
 12 95  1  0  0  0
 13 14  1  0  0  0
 13 31  1  0  0  0
 14 15  2  0  0  0
 14 96  1  0  0  0
 15 97  1  0  0  0
 16 17  2  0  0  0
 16 21  1  0  0  0
 16 31  1  0  0  0
 17 18  1  0  0  0
 17 98  1  0  0  0
 18 19  2  0  0  0
 18 99  1  0  0  0
 19 20  1  0  0  0
 19 24  1  0  0  0
 20 21  2  0  0  0
 20100  1  0  0  0
 21 23  1  0  0  0
 22 28  1  0  0  0
 22 32  2  0  0  0
 26 27  1  0  0  0
 28101  1  0  0  0
 28102  1  0  0  0
 29103  1  0  0  0
 29104  1  0  0  0
 33 34  1  0  0  0
 33 66  1  0  0  0
 33 70  2  0  0  0
 34 36  1  0  0  0
 34 59  1  0  0  0
 34105  1  0  0  0
 35 44  2  0  0  0
 35 45  1  0  0  0
 35 68  1  0  0  0
 36 56  1  0  0  0
 36106  1  0  0  0
 37 39  1  0  0  0
 37 47  1  0  0  0
 37 66  1  0  0  0
 37107  1  0  0  0
 38 43  2  0  0  0
 38 46  1  0  0  0
 38 47  1  0  0  0
 39 64  1  0  0  0
 39 67  2  0  0  0
 40 52  1  0  0  0
 40 53  2  0  0  0
 40 58  1  0  0  0
 41108  1  0  0  0
 41109  1  0  0  0
 41110  1  0  0  0
 41 48  1  0  0  0
 42 43  1  0  0  0
 42 66  1  0  0  0
 42111  1  0  0  0
 42112  1  0  0  0
 43 44  1  0  0  0
 44113  1  0  0  0
 45 46  2  0  0  0
 45114  1  0  0  0
 46115  1  0  0  0
 47116  1  0  0  0
 47117  1  0  0  0
 48 56  1  0  0  0
 48 65  1  0  0  0
 48118  1  0  0  0
 49 50  1  0  0  0
 49 53  1  0  0  0
 49 64  1  0  0  0
 49119  1  0  0  0
 50 51  1  0  0  0
 50120  1  0  0  0
 50121  1  0  0  0
 51 52  1  0  0  0
 51122  1  0  0  0
 51123  1  0  0  0
 52124  1  0  0  0
 52125  1  0  0  0
 53 54  1  0  0  0
 54 55  2  0  0  0
 54126  1  0  0  0
 55 57  1  0  0  0
 55127  1  0  0  0
 56 69  2  0  0  0
 57 58  2  0  0  0
 57128  1  0  0  0
 58129  1  0  0  0
 59 60  1  0  0  0
 59 61  1  0  0  0
 59 62  1  0  0  0
 60130  1  0  0  0
 60131  1  0  0  0
 60132  1  0  0  0
 61133  1  0  0  0
 61134  1  0  0  0
 61135  1  0  0  0
 62136  1  0  0  0
 62137  1  0  0  0
 62138  1  0  0  0
 63 65  1  0  0  0
 63139  1  0  0  0
 63140  1  0  0  0
 63141  1  0  0  0
 64142  1  0  0  0
 65143  1  0  0  0
 68 80  1  0  0  0
 71 72  2  0  0  0
 71 74  1  0  0  0
 71144  1  0  0  0
 72 76  1  0  0  0
 72145  1  0  0  0
 73 74  2  0  0  0
 73 75  1  0  0  0
 73146  1  0  0  0
 74 82  1  0  0  0
 75 76  2  0  0  0
 75 81  1  0  0  0
 76 84  1  0  0  0
 77 78  1  0  0  0
 77 81  1  0  0  0
 77 83  2  0  0  0
 78 79  1  0  0  0
 78147  1  0  0  0
 78148  1  0  0  0
 79 80  1  0  0  0
 79149  1  0  0  0
 79150  1  0  0  0
 80151  1  0  0  0
 80152  1  0  0  0
 81153  1  0  0  0
 82154  1  0  0  0
M  ISO  4   1 100  68 101  80 101  82 100
M  END
> <chiral flag>
0

> <version>
0

> <s_m_source_file>
/data/baiqing/PycharmProjects/Reinvent-master-3.2/result/LINK_invent/BTK/process_docking_weight1_custom_product_contain_oxygen_bond_distance_aromatic_linkinvent_7_9_3/rearranged_h_0068.sdf

> <i_m_source_file_index>
24

> <r_mmod_Potential_Energy-OPLS-2005>
-66.9000549316406

> <r_mmod_Stretch_Energy-OPLS-2005>
44.5951385498047

> <r_mmod_Bend_Energy-OPLS-2005>
102.115333557129

> <r_mmod_Torsional_Energy-OPLS-2005>
270.050994873047

> <r_mmod_Improper_Torsional_Energy-OPLS-2005>
8.49621772766113

> <r_mmod_Van_der_Waal_Energy-OPLS-2005>
159.895477294922

> <r_mmod_Electrostatic_Energy-OPLS-2005>
-426.204162597656

> <r_mmod_Solvation_Energy-OPLS-2005>
-244.664138793945

> <b_mmod_Minimization_Converged-OPLS-2005>
0

> <r_mmod_RMS_Derivative-OPLS-2005>
6.34159278869629

$$$$
24
                    3D
 Structure written by MMmdl.
154162  0  0  1  0            999 V2000
  -30.6074  -14.7365   20.4189 C   0  0  0  0  0  0
  -30.4331  -12.4385   19.4765 C   0  0  0  0  0  0
  -29.5071  -12.4773   18.2399 C   0  0  0  0  0  0
  -28.0310  -12.3245   18.6506 C   0  0  0  0  0  0
  -27.6413  -13.2307   19.8487 C   0  0  2  0  0  0
  -28.6863  -13.1652   20.9831 C   0  0  0  0  0  0
  -25.2508  -13.8208   20.5697 C   0  0  0  0  0  0
  -24.1799  -13.0450   20.9208 C   0  0  0  0  0  0
  -24.6388  -11.6928   20.8754 C   0  0  0  0  0  0
  -23.9069  -10.4300   21.0412 C   0  0  0  0  0  0
  -24.3621   -9.4213   21.9186 C   0  0  0  0  0  0
  -23.6296   -8.2247   22.0755 C   0  0  0  0  0  0
  -22.4277   -8.0285   21.3546 C   0  0  0  0  0  0
  -21.9913   -9.0258   20.4647 C   0  0  0  0  0  0
  -22.7243  -10.2139   20.3059 C   0  0  0  0  0  0
  -21.6854   -6.0737   22.5280 C   0  0  0  0  0  0
  -21.4017   -6.5640   23.8213 C   0  0  0  0  0  0
  -21.3661   -5.6792   24.9173 C   0  0  0  0  0  0
  -21.6044   -4.3054   24.7224 C   0  0  0  0  0  0
  -21.8819   -3.8147   23.4344 C   0  0  0  0  0  0
  -21.9194   -4.6964   22.3401 C   0  0  0  0  0  0
  -22.7818  -13.5228   21.1864 C   0  0  0  0  0  0
  -22.1662   -4.2151   21.0977 F   0  0  0  0  0  0
  -21.5629   -3.4537   25.7735 F   0  0  0  0  0  0
  -29.9897  -13.5066   20.4008 N   0  0  0  0  0  0
  -26.2934  -12.9412   20.3285 N   0  0  0  0  0  0
  -25.9317  -11.6555   20.5766 N   0  0  0  0  0  0
  -22.0462  -12.8219   22.0418 N   0  0  0  0  0  0
  -25.4199  -15.1933   20.4114 N   0  0  0  0  0  0
  -31.8118  -14.8206   20.1633 O   0  0  0  0  0  0
  -21.6643   -6.8881   21.4242 O   0  0  0  0  0  0
  -22.3497  -14.5527   20.6700 O   0  0  0  0  0  0
  -24.6306  -31.8554   23.1989 C   0  0  0  0  0  0
  -25.9136  -32.4752   23.8327 C   0  0  1  0  0  0
  -27.2186  -27.2649   20.1183 C   0  0  0  0  0  0
  -25.5934  -33.8556   24.2248 N   0  0  0  0  0  0
  -23.4252  -30.4800   21.5421 C   0  0  2  0  0  0
  -24.8700  -28.9284   20.1091 C   0  0  0  0  0  0
  -22.7490  -29.4606   22.4908 C   0  0  0  0  0  0
  -18.0287  -28.1384   22.8480 C   0  0  0  0  0  0
  -24.1490  -36.7289   23.2637 C   0  0  0  0  0  0
  -25.9715  -30.7701   21.3772 C   0  0  0  0  0  0
  -26.0415  -29.3934   20.7173 C   0  0  0  0  0  0
  -27.2141  -28.5729   20.7125 C   0  0  0  0  0  0
  -26.0156  -26.8642   19.4911 C   0  0  0  0  0  0
  -24.8628  -27.6722   19.4868 C   0  0  0  0  0  0
  -23.6416  -29.8152   20.1573 C   0  0  0  0  0  0
  -25.4118  -36.3069   24.0321 C   0  0  1  0  0  0
  -20.5890  -28.3689   23.1271 C   0  0  2  0  0  0
  -20.6773  -26.9408   22.5406 C   0  0  0  0  0  0
  -19.5751  -26.6378   21.5209 C   0  0  0  0  0  0
  -18.1932  -26.7923   22.1624 C   0  0  0  0  0  0
  -19.1540  -28.8855   23.2871 C   0  0  0  0  0  0
  -18.9464  -30.1460   23.8884 C   0  0  0  0  0  0
  -17.6465  -30.6586   24.0559 C   0  0  0  0  0  0
  -25.9060  -34.9439   23.5088 C   0  0  0  0  0  0
  -16.5355  -29.9083   23.6331 C   0  0  0  0  0  0
  -16.7276  -28.6503   23.0345 C   0  0  0  0  0  0
  -26.4500  -31.6576   25.0715 C   0  0  0  0  0  0
  -25.3724  -31.3730   26.1436 C   0  0  0  0  0  0
  -27.0343  -30.2987   24.6210 C   0  0  0  0  0  0
  -27.6042  -32.4321   25.7499 C   0  0  0  0  0  0
  -27.5579  -37.1803   24.8462 C   0  0  0  0  0  0
  -21.4197  -29.3040   22.3660 N   0  0  0  0  0  0
  -26.4290  -37.3772   23.9406 N   0  0  0  0  0  0
  -24.6949  -31.0530   22.0957 N   0  0  0  0  0  0
  -23.4196  -28.8143   23.2999 O   0  0  0  0  0  0
  -28.3427  -26.4076   20.1978 O   0  0  0  0  0  0
  -26.5636  -34.8916   22.4659 O   0  0  0  0  0  0
  -23.5462  -32.1369   23.7300 O   0  0  0  0  0  0
  -30.1116  -19.7568   18.5177 C   0  0  0  0  0  0
  -29.5290  -18.4720   20.4900 C   0  0  0  0  0  0
  -30.4798  -18.5660   17.8674 C   0  0  0  0  0  0
  -29.5782  -19.7714   19.8237 C   0  0  0  0  0  0
  -29.9444  -17.2121   19.8712 C   0  0  0  0  0  0
  -30.3736  -17.3100   18.5107 C   0  0  0  0  0  0
  -28.8311  -22.2818   19.7757 C   0  0  0  0  0  0
  -30.9707  -18.6574   16.4295 C   0  0  0  0  0  0
  -28.6628  -23.6837   20.5337 C   0  0  0  0  0  0
  -28.3965  -25.0112   19.6374 C   0  0  0  0  0  0
  -29.1823  -21.0879   20.4087 N   0  0  0  0  0  0
  -29.8187  -15.8755   20.5301 N   0  0  0  0  0  0
  -28.5854  -22.2954   18.5675 O   0  0  0  0  0  0
  -30.7000  -15.9177   17.5294 Cl  0  0  0  0  0  0
  -31.4717  -12.5665   19.1668 H   0  0  0  0  0  0
  -30.3843  -11.4659   19.9686 H   0  0  0  0  0  0
  -29.7817  -11.6880   17.5390 H   0  0  0  0  0  0
  -29.6371  -13.4156   17.7040 H   0  0  0  0  0  0
  -27.8739  -11.2777   18.9131 H   0  0  0  0  0  0
  -27.3800  -12.5246   17.7989 H   0  0  0  0  0  0
  -27.6365  -14.2510   19.4642 H   0  0  0  0  0  0
  -28.7160  -12.1691   21.4270 H   0  0  0  0  0  0
  -28.4262  -13.8530   21.7892 H   0  0  0  0  0  0
  -25.2767   -9.5686   22.4758 H   0  0  0  0  0  0
  -24.0007   -7.4637   22.7470 H   0  0  0  0  0  0
  -21.0848   -8.8777   19.8950 H   0  0  0  0  0  0
  -22.3704  -10.9677   19.6166 H   0  0  0  0  0  0
  -21.2011   -7.6147   23.9717 H   0  0  0  0  0  0
  -21.1482   -6.0521   25.9076 H   0  0  0  0  0  0
  -22.0598   -2.7610   23.2843 H   0  0  0  0  0  0
  -22.4076  -11.9887   22.4821 H   0  0  0  0  0  0
  -21.1074  -13.1239   22.2609 H   0  0  0  0  0  0
  -24.6504  -15.8455   20.5179 H   0  0  0  0  0  0
  -26.2642  -15.6337   20.0694 H   0  0  0  0  0  0
  -26.7199  -32.5399   23.1067 H   0  0  0  0  0  0
  -25.0059  -33.9691   25.0378 H   0  0  0  0  0  0
  -22.7218  -31.3029   21.3979 H   0  0  0  0  0  0
  -23.3749  -35.9625   23.3293 H   0  0  0  0  0  0
  -24.3577  -36.8921   22.2052 H   0  0  0  0  0  0
  -23.7253  -37.6491   23.6668 H   0  0  0  0  0  0
  -26.1113  -31.5326   20.6098 H   0  0  0  0  0  0
  -26.8497  -30.8169   22.0096 H   0  0  0  0  0  0
  -28.1115  -28.9250   21.2016 H   0  0  0  0  0  0
  -25.9031  -25.9057   19.0143 H   0  0  0  0  0  0
  -23.9627  -27.3076   19.0111 H   0  0  0  0  0  0
  -23.7670  -30.5918   19.4020 H   0  0  0  0  0  0
  -22.7594  -29.2494   19.8517 H   0  0  0  0  0  0
  -25.1306  -36.1905   25.0814 H   0  0  0  0  0  0
  -20.9988  -28.3262   24.1391 H   0  0  0  0  0  0
  -20.5664  -26.2300   23.3607 H   0  0  0  0  0  0
  -21.6645  -26.7428   22.1211 H   0  0  0  0  0  0
  -19.6909  -25.6286   21.1246 H   0  0  0  0  0  0
  -19.6690  -27.3183   20.6735 H   0  0  0  0  0  0
  -17.4200  -26.6664   21.4027 H   0  0  0  0  0  0
  -18.0337  -26.0067   22.9026 H   0  0  0  0  0  0
  -19.7942  -30.7281   24.2239 H   0  0  0  0  0  0
  -17.5019  -31.6264   24.5165 H   0  0  0  0  0  0
  -15.5356  -30.2984   23.7663 H   0  0  0  0  0  0
  -15.8673  -28.0830   22.7056 H   0  0  0  0  0  0
  -24.5906  -30.7071   25.7766 H   0  0  0  0  0  0
  -24.8914  -32.2904   26.4840 H   0  0  0  0  0  0
  -25.8048  -30.8923   27.0221 H   0  0  0  0  0  0
  -26.2929  -29.6733   24.1224 H   0  0  0  0  0  0
  -27.3997  -29.7256   25.4742 H   0  0  0  0  0  0
  -27.8820  -30.4242   23.9470 H   0  0  0  0  0  0
  -27.2632  -33.3620   26.2066 H   0  0  0  0  0  0
  -28.3869  -32.6885   25.0346 H   0  0  0  0  0  0
  -28.0690  -31.8452   26.5432 H   0  0  0  0  0  0
  -28.2595  -38.0101   24.7510 H   0  0  0  0  0  0
  -28.1081  -36.2635   24.6291 H   0  0  0  0  0  0
  -27.2298  -37.1456   25.8865 H   0  0  0  0  0  0
  -20.9370  -29.8772   21.6881 H   0  0  0  0  0  0
  -26.0162  -38.2843   24.1405 H   0  0  0  0  0  0
  -30.2384  -20.6779   17.9700 H   0  0  0  0  0  0
  -29.1524  -18.4374   21.5019 H   0  0  0  0  0  0
  -31.0276  -19.6899   16.0840 H   0  0  0  0  0  0
  -30.2956  -18.1238   15.7594 H   0  0  0  0  0  0
  -31.9654  -18.2210   16.3345 H   0  0  0  0  0  0
  -29.5622  -23.8408   21.1285 H   0  0  0  0  0  0
  -27.8463  -23.5741   21.2470 H   0  0  0  0  0  0
  -27.5598  -24.7939   18.9834 H   0  0  0  0  0  0
  -29.2310  -25.0584   18.9374 H   0  0  0  0  0  0
  -29.1987  -21.1356   21.4191 H   0  0  0  0  0  0
  -28.9236  -15.7073   20.9625 H   0  0  0  0  0  0
  1 25  1  0  0  0
  1 30  2  0  0  0
  1 82  1  0  0  0
  2  3  1  0  0  0
  2 25  1  0  0  0
  2 85  1  0  0  0
  2 86  1  0  0  0
  3  4  1  0  0  0
  3 87  1  0  0  0
  3 88  1  0  0  0
  4  5  1  0  0  0
  4 89  1  0  0  0
  4 90  1  0  0  0
  5  6  1  0  0  0
  5 26  1  0  0  0
  5 91  1  0  0  0
  6 25  1  0  0  0
  6 92  1  0  0  0
  6 93  1  0  0  0
  7  8  2  0  0  0
  7 26  1  0  0  0
  7 29  1  0  0  0
  8  9  1  0  0  0
  8 22  1  0  0  0
  9 10  1  0  0  0
  9 27  2  0  0  0
 10 11  2  0  0  0
 10 15  1  0  0  0
 11 12  1  0  0  0
 11 94  1  0  0  0
 12 13  2  0  0  0
 12 95  1  0  0  0
 13 14  1  0  0  0
 13 31  1  0  0  0
 14 15  2  0  0  0
 14 96  1  0  0  0
 15 97  1  0  0  0
 16 17  2  0  0  0
 16 21  1  0  0  0
 16 31  1  0  0  0
 17 18  1  0  0  0
 17 98  1  0  0  0
 18 19  2  0  0  0
 18 99  1  0  0  0
 19 20  1  0  0  0
 19 24  1  0  0  0
 20 21  2  0  0  0
 20100  1  0  0  0
 21 23  1  0  0  0
 22 28  1  0  0  0
 22 32  2  0  0  0
 26 27  1  0  0  0
 28101  1  0  0  0
 28102  1  0  0  0
 29103  1  0  0  0
 29104  1  0  0  0
 33 34  1  0  0  0
 33 66  1  0  0  0
 33 70  2  0  0  0
 34 36  1  0  0  0
 34 59  1  0  0  0
 34105  1  0  0  0
 35 44  2  0  0  0
 35 45  1  0  0  0
 35 68  1  0  0  0
 36 56  1  0  0  0
 36106  1  0  0  0
 37 39  1  0  0  0
 37 47  1  0  0  0
 37 66  1  0  0  0
 37107  1  0  0  0
 38 43  2  0  0  0
 38 46  1  0  0  0
 38 47  1  0  0  0
 39 64  1  0  0  0
 39 67  2  0  0  0
 40 52  1  0  0  0
 40 53  2  0  0  0
 40 58  1  0  0  0
 41108  1  0  0  0
 41109  1  0  0  0
 41110  1  0  0  0
 41 48  1  0  0  0
 42 43  1  0  0  0
 42 66  1  0  0  0
 42111  1  0  0  0
 42112  1  0  0  0
 43 44  1  0  0  0
 44113  1  0  0  0
 45 46  2  0  0  0
 45114  1  0  0  0
 46115  1  0  0  0
 47116  1  0  0  0
 47117  1  0  0  0
 48 56  1  0  0  0
 48 65  1  0  0  0
 48118  1  0  0  0
 49 50  1  0  0  0
 49 53  1  0  0  0
 49 64  1  0  0  0
 49119  1  0  0  0
 50 51  1  0  0  0
 50120  1  0  0  0
 50121  1  0  0  0
 51 52  1  0  0  0
 51122  1  0  0  0
 51123  1  0  0  0
 52124  1  0  0  0
 52125  1  0  0  0
 53 54  1  0  0  0
 54 55  2  0  0  0
 54126  1  0  0  0
 55 57  1  0  0  0
 55127  1  0  0  0
 56 69  2  0  0  0
 57 58  2  0  0  0
 57128  1  0  0  0
 58129  1  0  0  0
 59 60  1  0  0  0
 59 61  1  0  0  0
 59 62  1  0  0  0
 60130  1  0  0  0
 60131  1  0  0  0
 60132  1  0  0  0
 61133  1  0  0  0
 61134  1  0  0  0
 61135  1  0  0  0
 62136  1  0  0  0
 62137  1  0  0  0
 62138  1  0  0  0
 63 65  1  0  0  0
 63139  1  0  0  0
 63140  1  0  0  0
 63141  1  0  0  0
 64142  1  0  0  0
 65143  1  0  0  0
 68 80  1  0  0  0
 71 73  2  0  0  0
 71 74  1  0  0  0
 71144  1  0  0  0
 72 74  2  0  0  0
 72 75  1  0  0  0
 72145  1  0  0  0
 73 76  1  0  0  0
 73 78  1  0  0  0
 74 81  1  0  0  0
 75 76  2  0  0  0
 75 82  1  0  0  0
 76 84  1  0  0  0
 77 79  1  0  0  0
 77 81  1  0  0  0
 77 83  2  0  0  0
 78146  1  0  0  0
 78147  1  0  0  0
 78148  1  0  0  0
 79 80  1  0  0  0
 79149  1  0  0  0
 79150  1  0  0  0
 80151  1  0  0  0
 80152  1  0  0  0
 81153  1  0  0  0
 82154  1  0  0  0
M  ISO  4   1 100  68 101  80 101  82 100
M  END
> <chiral flag>
0

> <version>
0

> <s_m_source_file>
/data/baiqing/PycharmProjects/Reinvent-master-3.2/result/LINK_invent/BTK/process_docking_weight1_custom_product_contain_oxygen_bond_distance_aromatic_linkinvent_7_9_3/rearranged_h_0068.sdf

> <i_m_source_file_index>
25

> <r_mmod_Potential_Energy-OPLS-2005>
141.086898803711

> <r_mmod_Stretch_Energy-OPLS-2005>
130.394012451172

> <r_mmod_Bend_Energy-OPLS-2005>
168.810073852539

> <r_mmod_Torsional_Energy-OPLS-2005>
247.91813659668

> <r_mmod_Improper_Torsional_Energy-OPLS-2005>
5.71796035766602

> <r_mmod_Van_der_Waal_Energy-OPLS-2005>
156.514297485352

> <r_mmod_Electrostatic_Energy-OPLS-2005>
-415.245025634766

> <r_mmod_Solvation_Energy-OPLS-2005>
-235.378524780273

> <b_mmod_Minimization_Converged-OPLS-2005>
0

> <r_mmod_RMS_Derivative-OPLS-2005>
0.646251618862152

$$$$
25
                    3D
 Structure written by MMmdl.
156164  0  0  1  0            999 V2000
  -30.4841  -15.1030   20.4166 C   0  0  0  0  0  0
  -30.4451  -12.7062   19.4833 C   0  0  0  0  0  0
  -29.5215  -12.5394   18.2528 C   0  0  0  0  0  0
  -28.0629  -12.2956   18.6862 C   0  0  0  0  0  0
  -27.6154  -13.2552   19.8182 C   0  0  2  0  0  0
  -28.6619  -13.3611   20.9438 C   0  0  0  0  0  0
  -25.2434  -13.8200   20.5745 C   0  0  0  0  0  0
  -24.1762  -13.0420   20.9253 C   0  0  0  0  0  0
  -24.6381  -11.6905   20.8748 C   0  0  0  0  0  0
  -23.9062  -10.4281   21.0399 C   0  0  0  0  0  0
  -24.3616   -9.4203   21.9179 C   0  0  0  0  0  0
  -23.6301   -8.2232   22.0744 C   0  0  0  0  0  0
  -22.4281   -8.0266   21.3542 C   0  0  0  0  0  0
  -21.9915   -9.0232   20.4642 C   0  0  0  0  0  0
  -22.7229  -10.2122   20.3049 C   0  0  0  0  0  0
  -21.6849   -6.0736   22.5279 C   0  0  0  0  0  0
  -21.4019   -6.5644   23.8214 C   0  0  0  0  0  0
  -21.3660   -5.6796   24.9172 C   0  0  0  0  0  0
  -21.6041   -4.3059   24.7220 C   0  0  0  0  0  0
  -21.8819   -3.8149   23.4343 C   0  0  0  0  0  0
  -21.9201   -4.6966   22.3400 C   0  0  0  0  0  0
  -22.7789  -13.5196   21.1902 C   0  0  0  0  0  0
  -22.1664   -4.2157   21.0975 F   0  0  0  0  0  0
  -21.5628   -3.4539   25.7730 F   0  0  0  0  0  0
  -29.9025  -13.8283   20.3092 N   0  0  0  0  0  0
  -26.2838  -12.9438   20.3204 N   0  0  0  0  0  0
  -25.9319  -11.6561   20.5716 N   0  0  0  0  0  0
  -22.0437  -12.8187   22.0450 N   0  0  0  0  0  0
  -25.4103  -15.1936   20.4207 N   0  0  0  0  0  0
  -31.7174  -15.1281   20.3192 O   0  0  0  0  0  0
  -21.6643   -6.8868   21.4236 O   0  0  0  0  0  0
  -22.3478  -14.5492   20.6726 O   0  0  0  0  0  0
  -24.6529  -31.8356   23.1792 C   0  0  0  0  0  0
  -25.9260  -32.4647   23.8225 C   0  0  1  0  0  0
  -27.2125  -27.0303   20.1975 C   0  0  0  0  0  0
  -25.5972  -33.8459   24.2144 N   0  0  0  0  0  0
  -23.4616  -30.4494   21.5278 C   0  0  2  0  0  0
  -24.9111  -28.8472   20.1293 C   0  0  0  0  0  0
  -22.7607  -29.4507   22.4840 C   0  0  0  0  0  0
  -18.0314  -28.1411   22.8467 C   0  0  0  0  0  0
  -24.1493  -36.7239   23.2643 C   0  0  0  0  0  0
  -26.0240  -30.6762   21.3933 C   0  0  0  0  0  0
  -26.0920  -29.2702   20.7540 C   0  0  0  0  0  0
  -27.2463  -28.3828   20.7613 C   0  0  0  0  0  0
  -26.0039  -26.7277   19.5381 C   0  0  0  0  0  0
  -24.8845  -27.5915   19.5034 C   0  0  0  0  0  0
  -23.6956  -29.7666   20.1542 C   0  0  0  0  0  0
  -25.4127  -36.3006   24.0308 C   0  0  1  0  0  0
  -20.5927  -28.3735   23.1218 C   0  0  2  0  0  0
  -20.6799  -26.9430   22.5401 C   0  0  0  0  0  0
  -19.5775  -26.6385   21.5208 C   0  0  0  0  0  0
  -18.1957  -26.7940   22.1617 C   0  0  0  0  0  0
  -19.1573  -28.8897   23.2835 C   0  0  0  0  0  0
  -18.9485  -30.1488   23.8870 C   0  0  0  0  0  0
  -17.6480  -30.6593   24.0573 C   0  0  0  0  0  0
  -25.9086  -34.9381   23.5034 C   0  0  0  0  0  0
  -16.5372  -29.9093   23.6347 C   0  0  0  0  0  0
  -16.7299  -28.6519   23.0351 C   0  0  0  0  0  0
  -26.4547  -31.6537   25.0701 C   0  0  0  0  0  0
  -25.3709  -31.3742   26.1373 C   0  0  0  0  0  0
  -27.0418  -30.2918   24.6329 C   0  0  0  0  0  0
  -27.6074  -32.4313   25.7483 C   0  0  0  0  0  0
  -27.5573  -37.1775   24.8470 C   0  0  0  0  0  0
  -21.4290  -29.3043   22.3587 N   0  0  0  0  0  0
  -26.4285  -37.3729   23.9405 N   0  0  0  0  0  0
  -24.7336  -31.0117   22.0877 N   0  0  0  0  0  0
  -23.4205  -28.8058   23.3035 O   0  0  0  0  0  0
  -28.2656  -26.0254   20.0837 O   0  0  0  0  0  0
  -26.5685  -34.8898   22.4621 O   0  0  0  0  0  0
  -23.5625  -32.1270   23.6955 O   0  0  0  0  0  0
  -28.8804  -20.2598   22.2271 C   0  0  0  0  0  0
  -29.4075  -17.8212   22.1969 C   0  0  0  0  0  0
  -29.4463  -19.1419   20.1597 C   0  0  0  0  0  0
  -29.0378  -19.0082   22.8828 C   0  0  0  0  0  0
  -29.1055  -20.4560   20.8436 C   0  0  0  0  0  0
  -29.6001  -17.7718   20.8026 C   0  0  0  0  0  0
  -28.8088  -18.9306   24.3286 C   0  0  0  0  0  0
  -28.2705  -22.9903   20.5822 C   0  0  0  0  0  0
  -26.8081  -22.6470   20.7714 C   0  0  0  0  0  0
  -28.4858  -24.6809   20.9050 C   0  0  0  0  0  0
  -29.1498  -21.9380   20.4124 N   0  0  0  0  0  0
  -28.1857  -17.8839   24.8651 N   0  0  0  0  0  0
  -29.7048  -16.3142   20.2231 N   0  0  0  0  0  0
  -29.2226  -19.9036   25.1374 N   0  3  0  0  0  0
  -31.4641  -12.9117   19.1515 H   0  0  0  0  0  0
  -30.4984  -11.7836   20.0634 H   0  0  0  0  0  0
  -29.8681  -11.7163   17.6277 H   0  0  0  0  0  0
  -29.5732  -13.4363   17.6334 H   0  0  0  0  0  0
  -27.9928  -11.2646   19.0353 H   0  0  0  0  0  0
  -27.3909  -12.3712   17.8300 H   0  0  0  0  0  0
  -27.5452  -14.2370   19.3507 H   0  0  0  0  0  0
  -28.7988  -12.4056   21.4509 H   0  0  0  0  0  0
  -28.3358  -14.0763   21.7017 H   0  0  0  0  0  0
  -25.2745   -9.5700   22.4775 H   0  0  0  0  0  0
  -24.0015   -7.4627   22.7464 H   0  0  0  0  0  0
  -21.0844   -8.8730   19.8949 H   0  0  0  0  0  0
  -22.3654  -10.9661   19.6171 H   0  0  0  0  0  0
  -21.2003   -7.6152   23.9717 H   0  0  0  0  0  0
  -21.1485   -6.0525   25.9080 H   0  0  0  0  0  0
  -22.0603   -2.7613   23.2830 H   0  0  0  0  0  0
  -22.4066  -11.9858   22.4848 H   0  0  0  0  0  0
  -21.1043  -13.1199   22.2628 H   0  0  0  0  0  0
  -24.6383  -15.8419   20.5281 H   0  0  0  0  0  0
  -26.2553  -15.6372   20.0880 H   0  0  0  0  0  0
  -26.7319  -32.5220   23.0955 H   0  0  0  0  0  0
  -25.0082  -33.9561   25.0266 H   0  0  0  0  0  0
  -22.7691  -31.2771   21.3614 H   0  0  0  0  0  0
  -23.3762  -35.9563   23.3288 H   0  0  0  0  0  0
  -24.3577  -36.8893   22.2062 H   0  0  0  0  0  0
  -23.7240  -37.6423   23.6696 H   0  0  0  0  0  0
  -26.1830  -31.4136   20.6059 H   0  0  0  0  0  0
  -26.8944  -30.7410   22.0347 H   0  0  0  0  0  0
  -28.1577  -28.7191   21.2345 H   0  0  0  0  0  0
  -25.9173  -25.7716   19.0408 H   0  0  0  0  0  0
  -23.9867  -27.2641   18.9969 H   0  0  0  0  0  0
  -23.8484  -30.5327   19.3935 H   0  0  0  0  0  0
  -22.8080  -29.2151   19.8404 H   0  0  0  0  0  0
  -25.1318  -36.1821   25.0796 H   0  0  0  0  0  0
  -21.0017  -28.3320   24.1342 H   0  0  0  0  0  0
  -20.5673  -26.2354   23.3626 H   0  0  0  0  0  0
  -21.6662  -26.7414   22.1199 H   0  0  0  0  0  0
  -19.6928  -25.6282   21.1266 H   0  0  0  0  0  0
  -19.6716  -27.3177   20.6716 H   0  0  0  0  0  0
  -17.4213  -26.6678   21.4029 H   0  0  0  0  0  0
  -18.0362  -26.0094   22.9033 H   0  0  0  0  0  0
  -19.7962  -30.7325   24.2208 H   0  0  0  0  0  0
  -17.5035  -31.6250   24.5203 H   0  0  0  0  0  0
  -15.5375  -30.2986   23.7692 H   0  0  0  0  0  0
  -15.8700  -28.0833   22.7071 H   0  0  0  0  0  0
  -24.5926  -30.7047   25.7690 H   0  0  0  0  0  0
  -24.8857  -32.2926   26.4689 H   0  0  0  0  0  0
  -25.7984  -30.8990   27.0218 H   0  0  0  0  0  0
  -26.3044  -29.6630   24.1330 H   0  0  0  0  0  0
  -27.3996  -29.7223   25.4920 H   0  0  0  0  0  0
  -27.8969  -30.4130   23.9680 H   0  0  0  0  0  0
  -27.2676  -33.3658   26.1961 H   0  0  0  0  0  0
  -28.3943  -32.6799   25.0352 H   0  0  0  0  0  0
  -28.0681  -31.8495   26.5482 H   0  0  0  0  0  0
  -28.2583  -38.0082   24.7512 H   0  0  0  0  0  0
  -28.1078  -36.2607   24.6303 H   0  0  0  0  0  0
  -27.2293  -37.1430   25.8876 H   0  0  0  0  0  0
  -20.9527  -29.8759   21.6750 H   0  0  0  0  0  0
  -26.0145  -38.2789   24.1405 H   0  0  0  0  0  0
  -28.6224  -21.1187   22.8318 H   0  0  0  0  0  0
  -29.4927  -16.9014   22.7597 H   0  0  0  0  0  0
  -29.6082  -19.1877   19.0929 H   0  0  0  0  0  0
  -26.1756  -23.4740   20.4489 H   0  0  0  0  0  0
  -26.6022  -22.4510   21.8241 H   0  0  0  0  0  0
  -26.5360  -21.7644   20.1938 H   0  0  0  0  0  0
  -29.5285  -24.7569   21.2115 H   0  0  0  0  0  0
  -27.9429  -24.8594   21.8335 H   0  0  0  0  0  0
  -27.8132  -17.1706   24.2565 H   0  0  0  0  0  0
  -28.0488  -17.7759   25.8575 H   0  0  0  0  0  0
  -28.8534  -16.0668   19.7436 H   0  0  0  0  0  0
  -29.7537  -20.6712   24.7541 H   0  0  0  0  0  0
  -29.0394  -19.8999   26.1278 H   0  0  0  0  0  0
  1 25  1  0  0  0
  1 30  2  0  0  0
  1 83  1  0  0  0
  2  3  1  0  0  0
  2 25  1  0  0  0
  2 85  1  0  0  0
  2 86  1  0  0  0
  3  4  1  0  0  0
  3 87  1  0  0  0
  3 88  1  0  0  0
  4  5  1  0  0  0
  4 89  1  0  0  0
  4 90  1  0  0  0
  5  6  1  0  0  0
  5 26  1  0  0  0
  5 91  1  0  0  0
  6 25  1  0  0  0
  6 92  1  0  0  0
  6 93  1  0  0  0
  7  8  2  0  0  0
  7 26  1  0  0  0
  7 29  1  0  0  0
  8  9  1  0  0  0
  8 22  1  0  0  0
  9 10  1  0  0  0
  9 27  2  0  0  0
 10 11  2  0  0  0
 10 15  1  0  0  0
 11 12  1  0  0  0
 11 94  1  0  0  0
 12 13  2  0  0  0
 12 95  1  0  0  0
 13 14  1  0  0  0
 13 31  1  0  0  0
 14 15  2  0  0  0
 14 96  1  0  0  0
 15 97  1  0  0  0
 16 17  2  0  0  0
 16 21  1  0  0  0
 16 31  1  0  0  0
 17 18  1  0  0  0
 17 98  1  0  0  0
 18 19  2  0  0  0
 18 99  1  0  0  0
 19 20  1  0  0  0
 19 24  1  0  0  0
 20 21  2  0  0  0
 20100  1  0  0  0
 21 23  1  0  0  0
 22 28  1  0  0  0
 22 32  2  0  0  0
 26 27  1  0  0  0
 28101  1  0  0  0
 28102  1  0  0  0
 29103  1  0  0  0
 29104  1  0  0  0
 33 34  1  0  0  0
 33 66  1  0  0  0
 33 70  2  0  0  0
 34 36  1  0  0  0
 34 59  1  0  0  0
 34105  1  0  0  0
 35 44  2  0  0  0
 35 45  1  0  0  0
 35 68  1  0  0  0
 36 56  1  0  0  0
 36106  1  0  0  0
 37 39  1  0  0  0
 37 47  1  0  0  0
 37 66  1  0  0  0
 37107  1  0  0  0
 38 43  2  0  0  0
 38 46  1  0  0  0
 38 47  1  0  0  0
 39 64  1  0  0  0
 39 67  2  0  0  0
 40 52  1  0  0  0
 40 53  2  0  0  0
 40 58  1  0  0  0
 41108  1  0  0  0
 41109  1  0  0  0
 41110  1  0  0  0
 41 48  1  0  0  0
 42 43  1  0  0  0
 42 66  1  0  0  0
 42111  1  0  0  0
 42112  1  0  0  0
 43 44  1  0  0  0
 44113  1  0  0  0
 45 46  2  0  0  0
 45114  1  0  0  0
 46115  1  0  0  0
 47116  1  0  0  0
 47117  1  0  0  0
 48 56  1  0  0  0
 48 65  1  0  0  0
 48118  1  0  0  0
 49 50  1  0  0  0
 49 53  1  0  0  0
 49 64  1  0  0  0
 49119  1  0  0  0
 50 51  1  0  0  0
 50120  1  0  0  0
 50121  1  0  0  0
 51 52  1  0  0  0
 51122  1  0  0  0
 51123  1  0  0  0
 52124  1  0  0  0
 52125  1  0  0  0
 53 54  1  0  0  0
 54 55  2  0  0  0
 54126  1  0  0  0
 55 57  1  0  0  0
 55127  1  0  0  0
 56 69  2  0  0  0
 57 58  2  0  0  0
 57128  1  0  0  0
 58129  1  0  0  0
 59 60  1  0  0  0
 59 61  1  0  0  0
 59 62  1  0  0  0
 60130  1  0  0  0
 60131  1  0  0  0
 60132  1  0  0  0
 61133  1  0  0  0
 61134  1  0  0  0
 61135  1  0  0  0
 62136  1  0  0  0
 62137  1  0  0  0
 62138  1  0  0  0
 63 65  1  0  0  0
 63139  1  0  0  0
 63140  1  0  0  0
 63141  1  0  0  0
 64142  1  0  0  0
 65143  1  0  0  0
 68 80  1  0  0  0
 71 74  2  0  0  0
 71 75  1  0  0  0
 71144  1  0  0  0
 72 74  1  0  0  0
 72 76  2  0  0  0
 72145  1  0  0  0
 73 75  2  0  0  0
 73 76  1  0  0  0
 73146  1  0  0  0
 74 77  1  0  0  0
 75 81  1  0  0  0
 76 83  1  0  0  0
 77 82  1  0  0  0
 77 84  2  0  0  0
 78 79  1  0  0  0
 78 80  1  0  0  0
 78 81  2  0  0  0
 79147  1  0  0  0
 79148  1  0  0  0
 79149  1  0  0  0
 80150  1  0  0  0
 80151  1  0  0  0
 82152  1  0  0  0
 82153  1  0  0  0
 83154  1  0  0  0
 84155  1  0  0  0
 84156  1  0  0  0
M  CHG  1  84   1
M  ISO  4   1 100  68 101  80 101  83 100
M  END
> <chiral flag>
0

> <version>
0

> <s_m_source_file>
/data/baiqing/PycharmProjects/Reinvent-master-3.2/result/LINK_invent/BTK/process_docking_weight1_custom_product_contain_oxygen_bond_distance_aromatic_linkinvent_7_9_3/rearranged_h_0068.sdf

> <i_m_source_file_index>
26

> <r_mmod_Potential_Energy-OPLS-2005>
641.954040527344

> <r_mmod_Stretch_Energy-OPLS-2005>
383.603576660156

> <r_mmod_Bend_Energy-OPLS-2005>
371.646911621094

> <r_mmod_Torsional_Energy-OPLS-2005>
325.143829345703

> <r_mmod_Improper_Torsional_Energy-OPLS-2005>
19.046875

> <r_mmod_Van_der_Waal_Energy-OPLS-2005>
123.348213195801

> <r_mmod_Electrostatic_Energy-OPLS-2005>
-428.342437744141

> <r_mmod_Solvation_Energy-OPLS-2005>
-458.758026123047

> <b_mmod_Minimization_Converged-OPLS-2005>
0

> <r_mmod_RMS_Derivative-OPLS-2005>
2.18486952781677

$$$$
26
                    3D
 Structure written by MMmdl.
170179  0  0  1  0            999 V2000
  -30.6259  -14.6573   20.4645 C   0  0  0  0  0  0
  -30.4317  -12.3963   19.4659 C   0  0  0  0  0  0
  -29.5089  -12.4990   18.2294 C   0  0  0  0  0  0
  -28.0309  -12.3487   18.6356 C   0  0  0  0  0  0
  -27.6506  -13.2215   19.8628 C   0  0  2  0  0  0
  -28.6936  -13.1003   20.9976 C   0  0  0  0  0  0
  -25.2557  -13.8180   20.5672 C   0  0  0  0  0  0
  -24.1808  -13.0455   20.9158 C   0  0  0  0  0  0
  -24.6380  -11.6913   20.8719 C   0  0  0  0  0  0
  -23.9059  -10.4286   21.0392 C   0  0  0  0  0  0
  -24.3611   -9.4200   21.9172 C   0  0  0  0  0  0
  -23.6275   -8.2235   22.0747 C   0  0  0  0  0  0
  -22.4248   -8.0288   21.3538 C   0  0  0  0  0  0
  -21.9888   -9.0270   20.4645 C   0  0  0  0  0  0
  -22.7226  -10.2142   20.3048 C   0  0  0  0  0  0
  -21.6853   -6.0727   22.5260 C   0  0  0  0  0  0
  -21.4017   -6.5623   23.8199 C   0  0  0  0  0  0
  -21.3657   -5.6773   24.9160 C   0  0  0  0  0  0
  -21.6046   -4.3036   24.7209 C   0  0  0  0  0  0
  -21.8819   -3.8137   23.4322 C   0  0  0  0  0  0
  -21.9195   -4.6961   22.3384 C   0  0  0  0  0  0
  -22.7828  -13.5257   21.1832 C   0  0  0  0  0  0
  -22.1647   -4.2161   21.0956 F   0  0  0  0  0  0
  -21.5650   -3.4513   25.7709 F   0  0  0  0  0  0
  -30.0095  -13.4334   20.4325 N   0  0  0  0  0  0
  -26.2967  -12.9357   20.3303 N   0  0  0  0  0  0
  -25.9312  -11.6515   20.5733 N   0  0  0  0  0  0
  -22.0460  -12.8269   22.0389 N   0  0  0  0  0  0
  -25.4353  -15.1876   20.4091 N   0  0  0  0  0  0
  -31.7838  -14.7959   20.0612 O   0  0  0  0  0  0
  -21.6630   -6.8865   21.4217 O   0  0  0  0  0  0
  -22.3510  -14.5579   20.6708 O   0  0  0  0  0  0
  -24.6289  -31.8585   23.2027 C   0  0  0  0  0  0
  -25.9135  -32.4769   23.8350 C   0  0  1  0  0  0
  -27.2157  -27.3064   20.1006 C   0  0  0  0  0  0
  -25.5942  -33.8567   24.2276 N   0  0  0  0  0  0
  -23.4213  -30.4835   21.5462 C   0  0  2  0  0  0
  -24.8631  -28.9368   20.1086 C   0  0  0  0  0  0
  -22.7482  -29.4618   22.4935 C   0  0  0  0  0  0
  -18.0288  -28.1386   22.8491 C   0  0  0  0  0  0
  -24.1488  -36.7277   23.2637 C   0  0  0  0  0  0
  -25.9635  -30.7829   21.3764 C   0  0  0  0  0  0
  -26.0329  -29.4101   20.7153 C   0  0  0  0  0  0
  -27.2102  -28.6042   20.7042 C   0  0  0  0  0  0
  -26.0224  -26.8894   19.4687 C   0  0  0  0  0  0
  -24.8604  -27.6829   19.4797 C   0  0  0  0  0  0
  -23.6346  -29.8211   20.1603 C   0  0  0  0  0  0
  -25.4109  -36.3069   24.0332 C   0  0  1  0  0  0
  -20.5892  -28.3689   23.1288 C   0  0  2  0  0  0
  -20.6776  -26.9411   22.5417 C   0  0  0  0  0  0
  -19.5747  -26.6387   21.5215 C   0  0  0  0  0  0
  -18.1920  -26.7935   22.1619 C   0  0  0  0  0  0
  -19.1547  -28.8854   23.2884 C   0  0  0  0  0  0
  -18.9463  -30.1456   23.8901 C   0  0  0  0  0  0
  -17.6465  -30.6594   24.0561 C   0  0  0  0  0  0
  -25.9051  -34.9444   23.5098 C   0  0  0  0  0  0
  -16.5354  -29.9091   23.6333 C   0  0  0  0  0  0
  -16.7276  -28.6508   23.0358 C   0  0  0  0  0  0
  -26.4505  -31.6589   25.0732 C   0  0  0  0  0  0
  -25.3733  -31.3761   26.1463 C   0  0  0  0  0  0
  -27.0347  -30.3008   24.6212 C   0  0  0  0  0  0
  -27.6075  -32.4317   25.7492 C   0  0  0  0  0  0
  -27.5578  -37.1783   24.8455 C   0  0  0  0  0  0
  -21.4192  -29.3050   22.3689 N   0  0  0  0  0  0
  -26.4280  -37.3771   23.9421 N   0  0  0  0  0  0
  -24.6900  -31.0589   22.0981 N   0  0  0  0  0  0
  -23.4203  -28.8143   23.3004 O   0  0  0  0  0  0
  -28.3373  -26.4636   20.1516 O   0  0  0  0  0  0
  -26.5612  -34.8915   22.4665 O   0  0  0  0  0  0
  -23.5455  -32.1383   23.7358 O   0  0  0  0  0  0
  -28.7153  -19.0465   18.2875 C   0  0  0  0  0  0
  -29.1416  -16.6738   18.6675 C   0  0  0  0  0  0
  -29.5991  -18.3053   20.4282 C   0  0  0  0  0  0
  -28.6871  -17.7138   17.8418 C   0  0  0  0  0  0
  -29.1861  -19.4101   19.5756 C   0  0  0  0  0  0
  -29.5933  -16.9251   19.9813 C   0  0  0  0  0  0
  -28.9562  -21.4102   21.1230 C   0  0  0  0  0  0
  -29.9742  -23.1752   19.0667 C   0  0  0  0  0  0
  -29.2417  -21.8446   18.7796 C   0  0  0  0  0  0
  -29.1434  -22.9699   21.4529 C   0  0  0  0  0  0
  -29.4269  -24.0255   20.2457 C   0  0  1  0  0  0
  -28.1207  -17.3894   16.4711 C   0  0  0  0  0  0
  -30.3213  -22.9765   22.4726 C   0  0  0  0  0  0
  -27.9058  -23.4243   22.2678 C   0  0  0  0  0  0
  -30.5806  -25.0234   20.5662 C   0  0  0  0  0  0
  -28.2368  -25.0230   19.7825 C   0  0  0  0  0  0
  -29.2136  -20.8679   19.8952 N   0  0  0  0  0  0
  -29.8708  -15.7516   20.8138 N   0  0  0  0  0  0
  -28.5908  -20.6788   22.0516 O   0  0  0  0  0  0
  -31.4751  -12.5032   19.1640 H   0  0  0  0  0  0
  -30.3566  -11.4071   19.9207 H   0  0  0  0  0  0
  -29.7704  -11.7372   17.4944 H   0  0  0  0  0  0
  -29.6553  -13.4606   17.7322 H   0  0  0  0  0  0
  -27.8558  -11.2956   18.8632 H   0  0  0  0  0  0
  -27.3841  -12.5846   17.7894 H   0  0  0  0  0  0
  -27.6596  -14.2532   19.5140 H   0  0  0  0  0  0
  -28.7045  -12.0853   21.3985 H   0  0  0  0  0  0
  -28.4394  -13.7538   21.8342 H   0  0  0  0  0  0
  -25.2761   -9.5687   22.4744 H   0  0  0  0  0  0
  -24.0013   -7.4609   22.7456 H   0  0  0  0  0  0
  -21.0824   -8.8799   19.8919 H   0  0  0  0  0  0
  -22.3699  -10.9694   19.6165 H   0  0  0  0  0  0
  -21.2006   -7.6125   23.9704 H   0  0  0  0  0  0
  -21.1480   -6.0493   25.9065 H   0  0  0  0  0  0
  -22.0609   -2.7609   23.2806 H   0  0  0  0  0  0
  -22.4052  -11.9924   22.4796 H   0  0  0  0  0  0
  -21.1096  -13.1328   22.2608 H   0  0  0  0  0  0
  -24.6883  -15.8606   20.5334 H   0  0  0  0  0  0
  -26.3028  -15.6122   20.1046 H   0  0  0  0  0  0
  -26.7202  -32.5422   23.1089 H   0  0  0  0  0  0
  -25.0092  -33.9707   25.0428 H   0  0  0  0  0  0
  -22.7151  -31.3046   21.4055 H   0  0  0  0  0  0
  -23.3759  -35.9597   23.3272 H   0  0  0  0  0  0
  -24.3584  -36.8930   22.2056 H   0  0  0  0  0  0
  -23.7230  -37.6468   23.6676 H   0  0  0  0  0  0
  -26.1001  -31.5465   20.6098 H   0  0  0  0  0  0
  -26.8430  -30.8291   22.0077 H   0  0  0  0  0  0
  -28.1082  -28.9594   21.1898 H   0  0  0  0  0  0
  -25.9570  -25.9364   18.9660 H   0  0  0  0  0  0
  -23.9629  -27.3178   18.9996 H   0  0  0  0  0  0
  -23.7587  -30.5982   19.4050 H   0  0  0  0  0  0
  -22.7520  -29.2555   19.8553 H   0  0  0  0  0  0
  -25.1283  -36.1907   25.0821 H   0  0  0  0  0  0
  -20.9983  -28.3264   24.1411 H   0  0  0  0  0  0
  -20.5677  -26.2293   23.3617 H   0  0  0  0  0  0
  -21.6644  -26.7442   22.1211 H   0  0  0  0  0  0
  -19.6898  -25.6296   21.1249 H   0  0  0  0  0  0
  -19.6680  -27.3198   20.6743 H   0  0  0  0  0  0
  -17.4195  -26.6713   21.4006 H   0  0  0  0  0  0
  -18.0289  -26.0076   22.9011 H   0  0  0  0  0  0
  -19.7933  -30.7271   24.2276 H   0  0  0  0  0  0
  -17.5016  -31.6276   24.5158 H   0  0  0  0  0  0
  -15.5351  -30.2986   23.7655 H   0  0  0  0  0  0
  -15.8675  -28.0820   22.7077 H   0  0  0  0  0  0
  -24.5884  -30.7129   25.7799 H   0  0  0  0  0  0
  -24.8954  -32.2951   26.4867 H   0  0  0  0  0  0
  -25.8051  -30.8942   27.0245 H   0  0  0  0  0  0
  -26.2932  -29.6750   24.1232 H   0  0  0  0  0  0
  -27.4030  -29.7273   25.4725 H   0  0  0  0  0  0
  -27.8802  -30.4275   23.9450 H   0  0  0  0  0  0
  -27.2697  -33.3615   26.2077 H   0  0  0  0  0  0
  -28.3874  -32.6879   25.0311 H   0  0  0  0  0  0
  -28.0749  -31.8438   26.5400 H   0  0  0  0  0  0
  -28.2576  -38.0098   24.7543 H   0  0  0  0  0  0
  -28.1093  -36.2640   24.6214 H   0  0  0  0  0  0
  -27.2316  -37.1370   25.8862 H   0  0  0  0  0  0
  -20.9366  -29.8787   21.6914 H   0  0  0  0  0  0
  -26.0151  -38.2838   24.1450 H   0  0  0  0  0  0
  -28.3362  -19.7945   17.6063 H   0  0  0  0  0  0
  -29.0883  -15.6633   18.2932 H   0  0  0  0  0  0
  -29.9264  -18.5139   21.4372 H   0  0  0  0  0  0
  -30.0089  -23.7725   18.1540 H   0  0  0  0  0  0
  -31.0150  -22.9091   19.2589 H   0  0  0  0  0  0
  -29.7522  -21.4082   17.9210 H   0  0  0  0  0  0
  -28.2171  -22.0495   18.4666 H   0  0  0  0  0  0
  -28.0649  -18.2791   15.8433 H   0  0  0  0  0  0
  -27.1131  -16.9840   16.5689 H   0  0  0  0  0  0
  -28.7329  -16.6493   15.9546 H   0  0  0  0  0  0
  -31.2683  -22.7180   21.9980 H   0  0  0  0  0  0
  -30.1789  -22.2611   23.2836 H   0  0  0  0  0  0
  -30.4388  -23.9431   22.9623 H   0  0  0  0  0  0
  -26.9749  -23.2417   21.7307 H   0  0  0  0  0  0
  -27.9555  -24.4861   22.5107 H   0  0  0  0  0  0
  -27.8216  -22.8909   23.2150 H   0  0  0  0  0  0
  -31.5447  -24.5452   20.7357 H   0  0  0  0  0  0
  -30.3551  -25.6351   21.4402 H   0  0  0  0  0  0
  -30.7408  -25.7128   19.7349 H   0  0  0  0  0  0
  -27.2745  -24.6140   20.0786 H   0  0  0  0  0  0
  -28.1954  -25.0163   18.6924 H   0  0  0  0  0  0
  -29.1008  -15.5032   21.4157 H   0  0  0  0  0  0
  1 25  1  0  0  0
  1 30  2  0  0  0
  1 88  1  0  0  0
  2  3  1  0  0  0
  2 25  1  0  0  0
  2 90  1  0  0  0
  2 91  1  0  0  0
  3  4  1  0  0  0
  3 92  1  0  0  0
  3 93  1  0  0  0
  4  5  1  0  0  0
  4 94  1  0  0  0
  4 95  1  0  0  0
  5  6  1  0  0  0
  5 26  1  0  0  0
  5 96  1  0  0  0
  6 25  1  0  0  0
  6 97  1  0  0  0
  6 98  1  0  0  0
  7  8  2  0  0  0
  7 26  1  0  0  0
  7 29  1  0  0  0
  8  9  1  0  0  0
  8 22  1  0  0  0
  9 10  1  0  0  0
  9 27  2  0  0  0
 10 11  2  0  0  0
 10 15  1  0  0  0
 11 12  1  0  0  0
 11 99  1  0  0  0
 12 13  2  0  0  0
 12100  1  0  0  0
 13 14  1  0  0  0
 13 31  1  0  0  0
 14 15  2  0  0  0
 14101  1  0  0  0
 15102  1  0  0  0
 16 17  2  0  0  0
 16 21  1  0  0  0
 16 31  1  0  0  0
 17 18  1  0  0  0
 17103  1  0  0  0
 18 19  2  0  0  0
 18104  1  0  0  0
 19 20  1  0  0  0
 19 24  1  0  0  0
 20 21  2  0  0  0
 20105  1  0  0  0
 21 23  1  0  0  0
 22 28  1  0  0  0
 22 32  2  0  0  0
 26 27  1  0  0  0
 28106  1  0  0  0
 28107  1  0  0  0
 29108  1  0  0  0
 29109  1  0  0  0
 33 34  1  0  0  0
 33 66  1  0  0  0
 33 70  2  0  0  0
 34 36  1  0  0  0
 34 59  1  0  0  0
 34110  1  0  0  0
 35 44  2  0  0  0
 35 45  1  0  0  0
 35 68  1  0  0  0
 36 56  1  0  0  0
 36111  1  0  0  0
 37 39  1  0  0  0
 37 47  1  0  0  0
 37 66  1  0  0  0
 37112  1  0  0  0
 38 43  2  0  0  0
 38 46  1  0  0  0
 38 47  1  0  0  0
 39 64  1  0  0  0
 39 67  2  0  0  0
 40 52  1  0  0  0
 40 53  2  0  0  0
 40 58  1  0  0  0
 41113  1  0  0  0
 41114  1  0  0  0
 41115  1  0  0  0
 41 48  1  0  0  0
 42 43  1  0  0  0
 42 66  1  0  0  0
 42116  1  0  0  0
 42117  1  0  0  0
 43 44  1  0  0  0
 44118  1  0  0  0
 45 46  2  0  0  0
 45119  1  0  0  0
 46120  1  0  0  0
 47121  1  0  0  0
 47122  1  0  0  0
 48 56  1  0  0  0
 48 65  1  0  0  0
 48123  1  0  0  0
 49 50  1  0  0  0
 49 53  1  0  0  0
 49 64  1  0  0  0
 49124  1  0  0  0
 50 51  1  0  0  0
 50125  1  0  0  0
 50126  1  0  0  0
 51 52  1  0  0  0
 51127  1  0  0  0
 51128  1  0  0  0
 52129  1  0  0  0
 52130  1  0  0  0
 53 54  1  0  0  0
 54 55  2  0  0  0
 54131  1  0  0  0
 55 57  1  0  0  0
 55132  1  0  0  0
 56 69  2  0  0  0
 57 58  2  0  0  0
 57133  1  0  0  0
 58134  1  0  0  0
 59 60  1  0  0  0
 59 61  1  0  0  0
 59 62  1  0  0  0
 60135  1  0  0  0
 60136  1  0  0  0
 60137  1  0  0  0
 61138  1  0  0  0
 61139  1  0  0  0
 61140  1  0  0  0
 62141  1  0  0  0
 62142  1  0  0  0
 62143  1  0  0  0
 63 65  1  0  0  0
 63144  1  0  0  0
 63145  1  0  0  0
 63146  1  0  0  0
 64147  1  0  0  0
 65148  1  0  0  0
 68 86  1  0  0  0
 71 74  2  0  0  0
 71 75  1  0  0  0
 71149  1  0  0  0
 72 74  1  0  0  0
 72 76  2  0  0  0
 72150  1  0  0  0
 73 75  2  0  0  0
 73 76  1  0  0  0
 73151  1  0  0  0
 74 82  1  0  0  0
 75 87  1  0  0  0
 76 88  1  0  0  0
 77 80  1  0  0  0
 77 87  1  0  0  0
 77 89  2  0  0  0
 78 79  1  0  0  0
 78 81  1  0  0  0
 78152  1  0  0  0
 78153  1  0  0  0
 79 87  1  0  0  0
 79154  1  0  0  0
 79155  1  0  0  0
 80 81  1  0  0  0
 80 83  1  0  0  0
 80 84  1  0  0  0
 81 85  1  0  0  0
 81 86  1  0  0  0
 82156  1  0  0  0
 82157  1  0  0  0
 82158  1  0  0  0
 83159  1  0  0  0
 83160  1  0  0  0
 83161  1  0  0  0
 84162  1  0  0  0
 84163  1  0  0  0
 84164  1  0  0  0
 85165  1  0  0  0
 85166  1  0  0  0
 85167  1  0  0  0
 86168  1  0  0  0
 86169  1  0  0  0
 88170  1  0  0  0
M  ISO  4   1 100  68 101  86 101  88 100
M  END
> <chiral flag>
0

> <version>
0

> <s_m_source_file>
/data/baiqing/PycharmProjects/Reinvent-master-3.2/result/LINK_invent/BTK/process_docking_weight1_custom_product_contain_oxygen_bond_distance_aromatic_linkinvent_7_9_3/rearranged_h_0068.sdf

> <i_m_source_file_index>
27

> <r_mmod_Potential_Energy-OPLS-2005>
336.975158691406

> <r_mmod_Stretch_Energy-OPLS-2005>
116.501602172852

> <r_mmod_Bend_Energy-OPLS-2005>
179.692901611328

> <r_mmod_Torsional_Energy-OPLS-2005>
340.440460205078

> <r_mmod_Improper_Torsional_Energy-OPLS-2005>
7.14867115020752

> <r_mmod_Van_der_Waal_Energy-OPLS-2005>
178.643203735352

> <r_mmod_Electrostatic_Energy-OPLS-2005>
-329.242065429688

> <r_mmod_Solvation_Energy-OPLS-2005>
-210.612365722656

> <b_mmod_Minimization_Converged-OPLS-2005>
0

> <r_mmod_RMS_Derivative-OPLS-2005>
2.83172392845154

$$$$
27
                    3D
 Structure written by MMmdl.
152160  0  0  1  0            999 V2000
  -30.6184  -14.6522   20.4979 C   0  0  0  0  0  0
  -30.4402  -12.3991   19.4554 C   0  0  0  0  0  0
  -29.5092  -12.5040   18.2263 C   0  0  0  0  0  0
  -28.0325  -12.3383   18.6385 C   0  0  0  0  0  0
  -27.6523  -13.2145   19.8613 C   0  0  2  0  0  0
  -28.6970  -13.0789   20.9927 C   0  0  0  0  0  0
  -25.2561  -13.8162   20.5673 C   0  0  0  0  0  0
  -24.1833  -13.0435   20.9202 C   0  0  0  0  0  0
  -24.6395  -11.6904   20.8747 C   0  0  0  0  0  0
  -23.9062  -10.4290   21.0410 C   0  0  0  0  0  0
  -24.3614   -9.4205   21.9186 C   0  0  0  0  0  0
  -23.6291   -8.2240   22.0755 C   0  0  0  0  0  0
  -22.4273   -8.0279   21.3546 C   0  0  0  0  0  0
  -21.9908   -9.0253   20.4647 C   0  0  0  0  0  0
  -22.7236  -10.2133   20.3057 C   0  0  0  0  0  0
  -21.6851   -6.0733   22.5279 C   0  0  0  0  0  0
  -21.4012   -6.5639   23.8212 C   0  0  0  0  0  0
  -21.3659   -5.6792   24.9175 C   0  0  0  0  0  0
  -21.6044   -4.3054   24.7224 C   0  0  0  0  0  0
  -21.8819   -3.8147   23.4345 C   0  0  0  0  0  0
  -21.9192   -4.6962   22.3402 C   0  0  0  0  0  0
  -22.7855  -13.5232   21.1858 C   0  0  0  0  0  0
  -22.1661   -4.2149   21.0979 F   0  0  0  0  0  0
  -21.5630   -3.4538   25.7737 F   0  0  0  0  0  0
  -30.0121  -13.4237   20.4292 N   0  0  0  0  0  0
  -26.2981  -12.9337   20.3302 N   0  0  0  0  0  0
  -25.9320  -11.6497   20.5756 N   0  0  0  0  0  0
  -22.0491  -12.8228   22.0410 N   0  0  0  0  0  0
  -25.4269  -15.1882   20.4044 N   0  0  0  0  0  0
  -31.7842  -14.8083   20.1224 O   0  0  0  0  0  0
  -21.6639   -6.8877   21.4240 O   0  0  0  0  0  0
  -22.3549  -14.5541   20.6704 O   0  0  0  0  0  0
  -24.6260  -31.8597   23.2024 C   0  0  0  0  0  0
  -25.9108  -32.4779   23.8354 C   0  0  1  0  0  0
  -27.2244  -27.3180   20.1164 C   0  0  0  0  0  0
  -25.5923  -33.8580   24.2278 N   0  0  0  0  0  0
  -23.4200  -30.4837   21.5451 C   0  0  2  0  0  0
  -24.8660  -28.9390   20.1112 C   0  0  0  0  0  0
  -22.7474  -29.4625   22.4936 C   0  0  0  0  0  0
  -18.0285  -28.1389   22.8492 C   0  0  0  0  0  0
  -24.1487  -36.7294   23.2639 C   0  0  0  0  0  0
  -25.9612  -30.7911   21.3729 C   0  0  0  0  0  0
  -26.0356  -29.4183   20.7147 C   0  0  0  0  0  0
  -27.2177  -28.6198   20.7065 C   0  0  0  0  0  0
  -26.0301  -26.8924   19.4890 C   0  0  0  0  0  0
  -24.8654  -27.6817   19.4895 C   0  0  0  0  0  0
  -23.6346  -29.8197   20.1600 C   0  0  0  0  0  0
  -25.4113  -36.3084   24.0330 C   0  0  1  0  0  0
  -20.5885  -28.3691   23.1288 C   0  0  2  0  0  0
  -20.6776  -26.9416   22.5411 C   0  0  0  0  0  0
  -19.5750  -26.6390   21.5216 C   0  0  0  0  0  0
  -18.1929  -26.7936   22.1627 C   0  0  0  0  0  0
  -19.1537  -28.8857   23.2885 C   0  0  0  0  0  0
  -18.9462  -30.1461   23.8900 C   0  0  0  0  0  0
  -17.6462  -30.6593   24.0568 C   0  0  0  0  0  0
  -25.9050  -34.9453   23.5102 C   0  0  0  0  0  0
  -16.5352  -29.9095   23.6332 C   0  0  0  0  0  0
  -16.7272  -28.6512   23.0353 C   0  0  0  0  0  0
  -26.4491  -31.6590   25.0724 C   0  0  0  0  0  0
  -25.3727  -31.3733   26.1454 C   0  0  0  0  0  0
  -27.0330  -30.3015   24.6173 C   0  0  0  0  0  0
  -27.6050  -32.4325   25.7496 C   0  0  0  0  0  0
  -27.5578  -37.1803   24.8466 C   0  0  0  0  0  0
  -21.4187  -29.3046   22.3683 N   0  0  0  0  0  0
  -26.4290  -37.3778   23.9409 N   0  0  0  0  0  0
  -24.6880  -31.0610   22.0973 N   0  0  0  0  0  0
  -23.4198  -28.8161   23.3012 O   0  0  0  0  0  0
  -28.3433  -26.4705   20.1686 O   0  0  0  0  0  0
  -26.5621  -34.8922   22.4672 O   0  0  0  0  0  0
  -23.5423  -32.1395   23.7352 O   0  0  0  0  0  0
  -28.8039  -17.9982   21.0046 C   0  0  0  0  0  0
  -31.0953  -17.8627   20.3198 C   0  0  0  0  0  0
  -30.0359  -20.1263   20.5931 C   0  0  0  0  0  0
  -29.9235  -17.1657   20.7114 C   0  0  0  0  0  0
  -28.8503  -19.4281   20.9459 C   0  0  0  0  0  0
  -31.1502  -19.2887   20.2622 C   0  0  0  0  0  0
  -30.1748  -21.6494   20.6700 C   0  0  0  0  0  0
  -29.3450  -24.0975   20.4371 C   0  0  0  0  0  0
  -28.1248  -25.0063   20.0263 C   0  0  0  0  0  0
  -29.8003  -15.7031   20.8324 N   0  0  0  0  0  0
  -29.2159  -22.6100   20.3750 N   0  0  0  0  0  0
  -31.3681  -22.0942   21.0902 N   0  3  0  0  0  0
  -30.4043  -24.6267   20.8021 O   0  0  0  0  0  0
  -27.7352  -20.1338   21.2601 F   0  0  0  0  0  0
  -32.3362  -19.8487   19.9119 F   0  0  0  0  0  0
  -31.4808  -12.5275   19.1522 H   0  0  0  0  0  0
  -30.3803  -11.4047   19.9011 H   0  0  0  0  0  0
  -29.7764  -11.7487   17.4859 H   0  0  0  0  0  0
  -29.6482  -13.4705   17.7391 H   0  0  0  0  0  0
  -27.8744  -11.2858   18.8771 H   0  0  0  0  0  0
  -27.3767  -12.5588   17.7956 H   0  0  0  0  0  0
  -27.6674  -14.2472   19.5129 H   0  0  0  0  0  0
  -28.7111  -12.0594   21.3808 H   0  0  0  0  0  0
  -28.4395  -13.7151   21.8411 H   0  0  0  0  0  0
  -25.2759   -9.5680   22.4760 H   0  0  0  0  0  0
  -23.9999   -7.4630   22.7474 H   0  0  0  0  0  0
  -21.0840   -8.8770   19.8952 H   0  0  0  0  0  0
  -22.3694  -10.9671   19.6167 H   0  0  0  0  0  0
  -21.2002   -7.6148   23.9715 H   0  0  0  0  0  0
  -21.1482   -6.0523   25.9078 H   0  0  0  0  0  0
  -22.0599   -2.7608   23.2844 H   0  0  0  0  0  0
  -22.4098  -11.9885   22.4796 H   0  0  0  0  0  0
  -21.1107  -13.1258   22.2609 H   0  0  0  0  0  0
  -24.6467  -15.8313   20.4855 H   0  0  0  0  0  0
  -26.2472  -15.6140   19.9937 H   0  0  0  0  0  0
  -26.7177  -32.5446   23.1104 H   0  0  0  0  0  0
  -25.0068  -33.9725   25.0421 H   0  0  0  0  0  0
  -22.7144  -31.3047   21.4023 H   0  0  0  0  0  0
  -23.3749  -35.9627   23.3304 H   0  0  0  0  0  0
  -24.3580  -36.8911   22.2053 H   0  0  0  0  0  0
  -23.7240  -37.6497   23.6660 H   0  0  0  0  0  0
  -26.0917  -31.5556   20.6057 H   0  0  0  0  0  0
  -26.8421  -30.8392   22.0015 H   0  0  0  0  0  0
  -28.1153  -28.9833   21.1876 H   0  0  0  0  0  0
  -25.9667  -25.9336   18.9975 H   0  0  0  0  0  0
  -23.9693  -27.3101   19.0113 H   0  0  0  0  0  0
  -23.7550  -30.5971   19.4045 H   0  0  0  0  0  0
  -22.7544  -29.2499   19.8563 H   0  0  0  0  0  0
  -25.1294  -36.1933   25.0822 H   0  0  0  0  0  0
  -20.9978  -28.3261   24.1408 H   0  0  0  0  0  0
  -20.5680  -26.2301   23.3609 H   0  0  0  0  0  0
  -21.6643  -26.7450   22.1199 H   0  0  0  0  0  0
  -19.6912  -25.6301   21.1242 H   0  0  0  0  0  0
  -19.6687  -27.3204   20.6747 H   0  0  0  0  0  0
  -17.4199  -26.6687   21.4026 H   0  0  0  0  0  0
  -18.0325  -26.0075   22.9020 H   0  0  0  0  0  0
  -19.7939  -30.7278   24.2264 H   0  0  0  0  0  0
  -17.5019  -31.6274   24.5173 H   0  0  0  0  0  0
  -15.5353  -30.3001   23.7658 H   0  0  0  0  0  0
  -15.8671  -28.0837   22.7063 H   0  0  0  0  0  0
  -24.5898  -30.7083   25.7789 H   0  0  0  0  0  0
  -24.8922  -32.2902   26.4878 H   0  0  0  0  0  0
  -25.8053  -30.8914   27.0230 H   0  0  0  0  0  0
  -26.2902  -29.6770   24.1196 H   0  0  0  0  0  0
  -27.4032  -29.7263   25.4670 H   0  0  0  0  0  0
  -27.8770  -30.4305   23.9394 H   0  0  0  0  0  0
  -27.2660  -33.3628   26.2068 H   0  0  0  0  0  0
  -28.3865  -32.6880   25.0327 H   0  0  0  0  0  0
  -28.0714  -31.8453   26.5416 H   0  0  0  0  0  0
  -28.2597  -38.0097   24.7507 H   0  0  0  0  0  0
  -28.1069  -36.2627   24.6296 H   0  0  0  0  0  0
  -27.2299  -37.1460   25.8871 H   0  0  0  0  0  0
  -20.9361  -29.8780   21.6907 H   0  0  0  0  0  0
  -26.0170  -38.2852   24.1406 H   0  0  0  0  0  0
  -27.8713  -17.5413   21.3013 H   0  0  0  0  0  0
  -31.9931  -17.3160   20.0745 H   0  0  0  0  0  0
  -27.2729  -24.6998   20.6351 H   0  0  0  0  0  0
  -27.8874  -24.7772   18.9873 H   0  0  0  0  0  0
  -28.8923  -15.3869   21.1346 H   0  0  0  0  0  0
  -28.3422  -22.1882   20.0937 H   0  0  0  0  0  0
  -32.1493  -21.4563   21.1539 H   0  0  0  0  0  0
  -31.5194  -23.0947   21.1603 H   0  0  0  0  0  0
  1 25  1  0  0  0
  1 30  2  0  0  0
  1 80  1  0  0  0
  2  3  1  0  0  0
  2 25  1  0  0  0
  2 86  1  0  0  0
  2 87  1  0  0  0
  3  4  1  0  0  0
  3 88  1  0  0  0
  3 89  1  0  0  0
  4  5  1  0  0  0
  4 90  1  0  0  0
  4 91  1  0  0  0
  5  6  1  0  0  0
  5 26  1  0  0  0
  5 92  1  0  0  0
  6 25  1  0  0  0
  6 93  1  0  0  0
  6 94  1  0  0  0
  7  8  2  0  0  0
  7 26  1  0  0  0
  7 29  1  0  0  0
  8  9  1  0  0  0
  8 22  1  0  0  0
  9 10  1  0  0  0
  9 27  2  0  0  0
 10 11  2  0  0  0
 10 15  1  0  0  0
 11 12  1  0  0  0
 11 95  1  0  0  0
 12 13  2  0  0  0
 12 96  1  0  0  0
 13 14  1  0  0  0
 13 31  1  0  0  0
 14 15  2  0  0  0
 14 97  1  0  0  0
 15 98  1  0  0  0
 16 17  2  0  0  0
 16 21  1  0  0  0
 16 31  1  0  0  0
 17 18  1  0  0  0
 17 99  1  0  0  0
 18 19  2  0  0  0
 18100  1  0  0  0
 19 20  1  0  0  0
 19 24  1  0  0  0
 20 21  2  0  0  0
 20101  1  0  0  0
 21 23  1  0  0  0
 22 28  1  0  0  0
 22 32  2  0  0  0
 26 27  1  0  0  0
 28102  1  0  0  0
 28103  1  0  0  0
 29104  1  0  0  0
 29105  1  0  0  0
 33 34  1  0  0  0
 33 66  1  0  0  0
 33 70  2  0  0  0
 34 36  1  0  0  0
 34 59  1  0  0  0
 34106  1  0  0  0
 35 44  2  0  0  0
 35 45  1  0  0  0
 35 68  1  0  0  0
 36 56  1  0  0  0
 36107  1  0  0  0
 37 39  1  0  0  0
 37 47  1  0  0  0
 37 66  1  0  0  0
 37108  1  0  0  0
 38 43  2  0  0  0
 38 46  1  0  0  0
 38 47  1  0  0  0
 39 64  1  0  0  0
 39 67  2  0  0  0
 40 52  1  0  0  0
 40 53  2  0  0  0
 40 58  1  0  0  0
 41109  1  0  0  0
 41110  1  0  0  0
 41111  1  0  0  0
 41 48  1  0  0  0
 42 43  1  0  0  0
 42 66  1  0  0  0
 42112  1  0  0  0
 42113  1  0  0  0
 43 44  1  0  0  0
 44114  1  0  0  0
 45 46  2  0  0  0
 45115  1  0  0  0
 46116  1  0  0  0
 47117  1  0  0  0
 47118  1  0  0  0
 48 56  1  0  0  0
 48 65  1  0  0  0
 48119  1  0  0  0
 49 50  1  0  0  0
 49 53  1  0  0  0
 49 64  1  0  0  0
 49120  1  0  0  0
 50 51  1  0  0  0
 50121  1  0  0  0
 50122  1  0  0  0
 51 52  1  0  0  0
 51123  1  0  0  0
 51124  1  0  0  0
 52125  1  0  0  0
 52126  1  0  0  0
 53 54  1  0  0  0
 54 55  2  0  0  0
 54127  1  0  0  0
 55 57  1  0  0  0
 55128  1  0  0  0
 56 69  2  0  0  0
 57 58  2  0  0  0
 57129  1  0  0  0
 58130  1  0  0  0
 59 60  1  0  0  0
 59 61  1  0  0  0
 59 62  1  0  0  0
 60131  1  0  0  0
 60132  1  0  0  0
 60133  1  0  0  0
 61134  1  0  0  0
 61135  1  0  0  0
 61136  1  0  0  0
 62137  1  0  0  0
 62138  1  0  0  0
 62139  1  0  0  0
 63 65  1  0  0  0
 63140  1  0  0  0
 63141  1  0  0  0
 63142  1  0  0  0
 64143  1  0  0  0
 65144  1  0  0  0
 68 79  1  0  0  0
 71 74  2  0  0  0
 71 75  1  0  0  0
 71145  1  0  0  0
 72 74  1  0  0  0
 72 76  2  0  0  0
 72146  1  0  0  0
 73 75  2  0  0  0
 73 76  1  0  0  0
 73 77  1  0  0  0
 74 80  1  0  0  0
 75 84  1  0  0  0
 76 85  1  0  0  0
 77 81  1  0  0  0
 77 82  2  0  0  0
 78 79  1  0  0  0
 78 81  1  0  0  0
 78 83  2  0  0  0
 79147  1  0  0  0
 79148  1  0  0  0
 80149  1  0  0  0
 81150  1  0  0  0
 82151  1  0  0  0
 82152  1  0  0  0
M  CHG  1  82   1
M  ISO  4   1 100  68 101  79 101  80 100
M  END
> <chiral flag>
0

> <version>
0

> <s_m_source_file>
/data/baiqing/PycharmProjects/Reinvent-master-3.2/result/LINK_invent/BTK/process_docking_weight1_custom_product_contain_oxygen_bond_distance_aromatic_linkinvent_7_9_3/rearranged_h_0068.sdf

> <i_m_source_file_index>
28

> <r_mmod_Potential_Energy-OPLS-2005>
-160.950119018555

> <r_mmod_Stretch_Energy-OPLS-2005>
89.6191024780273

> <r_mmod_Bend_Energy-OPLS-2005>
144.390045166016

> <r_mmod_Torsional_Energy-OPLS-2005>
206.634170532227

> <r_mmod_Improper_Torsional_Energy-OPLS-2005>
5.28591537475586

> <r_mmod_Van_der_Waal_Energy-OPLS-2005>
164.130599975586

> <r_mmod_Electrostatic_Energy-OPLS-2005>
-365.171997070312

> <r_mmod_Solvation_Energy-OPLS-2005>
-456.744842529297

> <b_mmod_Minimization_Converged-OPLS-2005>
0

> <r_mmod_RMS_Derivative-OPLS-2005>
0.453719228506088

$$$$
28
                    3D
 Structure written by MMmdl.
168177  0  0  1  0            999 V2000
  -30.6021  -14.7368   20.5189 C   0  0  0  0  0  0
  -30.4496  -12.4599   19.4773 C   0  0  0  0  0  0
  -29.5209  -12.5410   18.2437 C   0  0  0  0  0  0
  -28.0443  -12.3594   18.6486 C   0  0  0  0  0  0
  -27.6549  -13.2325   19.8706 C   0  0  2  0  0  0
  -28.7003  -13.1104   21.0049 C   0  0  0  0  0  0
  -25.2480  -13.8144   20.5602 C   0  0  0  0  0  0
  -24.1803  -13.0397   20.9188 C   0  0  0  0  0  0
  -24.6428  -11.6892   20.8759 C   0  0  0  0  0  0
  -23.9093  -10.4279   21.0418 C   0  0  0  0  0  0
  -24.3626   -9.4198   21.9202 C   0  0  0  0  0  0
  -23.6290   -8.2241   22.0766 C   0  0  0  0  0  0
  -22.4279   -8.0281   21.3549 C   0  0  0  0  0  0
  -21.9920   -9.0264   20.4657 C   0  0  0  0  0  0
  -22.7260  -10.2141   20.3070 C   0  0  0  0  0  0
  -21.6864   -6.0729   22.5278 C   0  0  0  0  0  0
  -21.4014   -6.5631   23.8212 C   0  0  0  0  0  0
  -21.3663   -5.6789   24.9174 C   0  0  0  0  0  0
  -21.6044   -4.3050   24.7228 C   0  0  0  0  0  0
  -21.8818   -3.8136   23.4352 C   0  0  0  0  0  0
  -21.9202   -4.6951   22.3409 C   0  0  0  0  0  0
  -22.7824  -13.5187   21.1838 C   0  0  0  0  0  0
  -22.1660   -4.2132   21.0985 F   0  0  0  0  0  0
  -21.5634   -3.4536   25.7743 F   0  0  0  0  0  0
  -30.0153  -13.4874   20.4550 N   0  0  0  0  0  0
  -26.2997  -12.9402   20.3347 N   0  0  0  0  0  0
  -25.9375  -11.6537   20.5797 N   0  0  0  0  0  0
  -22.0472  -12.8199   22.0406 N   0  0  0  0  0  0
  -25.3971  -15.1839   20.3803 N   0  0  0  0  0  0
  -31.6963  -14.9387   19.9868 O   0  0  0  0  0  0
  -21.6642   -6.8873   21.4242 O   0  0  0  0  0  0
  -22.3514  -14.5510   20.6711 O   0  0  0  0  0  0
  -24.6338  -31.8536   23.1966 C   0  0  0  0  0  0
  -25.9154  -32.4745   23.8320 C   0  0  1  0  0  0
  -27.2267  -27.2469   20.1218 C   0  0  0  0  0  0
  -25.5941  -33.8548   24.2243 N   0  0  0  0  0  0
  -23.4318  -30.4758   21.5404 C   0  0  2  0  0  0
  -24.8801  -28.9212   20.1105 C   0  0  0  0  0  0
  -22.7517  -29.4593   22.4901 C   0  0  0  0  0  0
  -18.0295  -28.1383   22.8479 C   0  0  0  0  0  0
  -24.1487  -36.7278   23.2639 C   0  0  0  0  0  0
  -25.9800  -30.7605   21.3804 C   0  0  0  0  0  0
  -26.0538  -29.3828   20.7195 C   0  0  0  0  0  0
  -27.2292  -28.5594   20.7132 C   0  0  0  0  0  0
  -26.0256  -26.8619   19.4813 C   0  0  0  0  0  0
  -24.8720  -27.6687   19.4813 C   0  0  0  0  0  0
  -23.6515  -29.8092   20.1576 C   0  0  0  0  0  0
  -25.4119  -36.3060   24.0321 C   0  0  1  0  0  0
  -20.5900  -28.3698   23.1255 C   0  0  2  0  0  0
  -20.6774  -26.9411   22.5402 C   0  0  0  0  0  0
  -19.5750  -26.6379   21.5202 C   0  0  0  0  0  0
  -18.1935  -26.7925   22.1621 C   0  0  0  0  0  0
  -19.1550  -28.8857   23.2862 C   0  0  0  0  0  0
  -18.9472  -30.1457   23.8885 C   0  0  0  0  0  0
  -17.6470  -30.6583   24.0558 C   0  0  0  0  0  0
  -25.9063  -34.9435   23.5084 C   0  0  0  0  0  0
  -16.5361  -29.9081   23.6330 C   0  0  0  0  0  0
  -16.7281  -28.6497   23.0355 C   0  0  0  0  0  0
  -26.4512  -31.6580   25.0719 C   0  0  0  0  0  0
  -25.3725  -31.3750   26.1432 C   0  0  0  0  0  0
  -27.0365  -30.2988   24.6235 C   0  0  0  0  0  0
  -27.6055  -32.4332   25.7503 C   0  0  0  0  0  0
  -27.5580  -37.1794   24.8467 C   0  0  0  0  0  0
  -21.4222  -29.3043   22.3644 N   0  0  0  0  0  0
  -26.4288  -37.3766   23.9411 N   0  0  0  0  0  0
  -24.7009  -31.0484   22.0952 N   0  0  0  0  0  0
  -23.4204  -28.8134   23.3009 O   0  0  0  0  0  0
  -28.3177  -26.3361   20.1796 O   0  0  0  0  0  0
  -26.5642  -34.8913   22.4656 O   0  0  0  0  0  0
  -23.5482  -32.1373   23.7242 O   0  0  0  0  0  0
  -27.1154  -18.0915   21.3208 C   0  0  0  0  0  0
  -27.6156  -19.3555   20.9841 C   0  0  0  0  0  0
  -27.9506  -16.9675   21.3447 C   0  0  0  0  0  0
  -29.8203  -18.3549   20.6172 C   0  0  0  0  0  0
  -28.9696  -19.5645   20.6310 C   0  0  0  0  0  0
  -29.3088  -17.0246   20.9850 C   0  0  0  0  0  0
  -31.5824  -18.6754   18.9749 C   0  0  0  0  0  0
  -28.6282  -22.1225   20.1052 C   0  0  0  0  0  0
  -33.5552  -18.3148   20.2938 C   0  0  0  0  0  0
  -32.2824  -18.2341   21.1496 C   0  0  0  0  0  0
  -33.1077  -18.6474   18.8556 C   0  0  0  0  0  0
  -33.5468  -17.5570   17.8568 C   0  0  0  0  0  0
  -33.6313  -20.0245   18.4015 C   0  0  0  0  0  0
  -29.1063  -23.6483   20.3088 C   0  0  0  0  0  0
  -28.0577  -24.8572   19.9784 C   0  0  0  0  0  0
  -31.1782  -18.4763   20.2363 N   0  0  0  0  0  0
  -29.3906  -20.9942   20.4371 N   0  0  0  0  0  0
  -29.9578  -15.7110   21.2526 N   0  0  0  0  0  0
  -30.8461  -18.8677   18.0010 O   0  0  0  0  0  0
  -27.5260  -21.9799   19.5713 O   0  0  0  0  0  0
  -31.4900  -12.5972   19.1765 H   0  0  0  0  0  0
  -30.4030  -11.4680   19.9295 H   0  0  0  0  0  0
  -29.8052  -11.7874   17.5079 H   0  0  0  0  0  0
  -29.6494  -13.5086   17.7562 H   0  0  0  0  0  0
  -27.8926  -11.3056   18.8854 H   0  0  0  0  0  0
  -27.3915  -12.5790   17.8031 H   0  0  0  0  0  0
  -27.6639  -14.2678   19.5268 H   0  0  0  0  0  0
  -28.7335  -12.0880   21.3850 H   0  0  0  0  0  0
  -28.4187  -13.7288   21.8575 H   0  0  0  0  0  0
  -25.2772   -9.5672   22.4779 H   0  0  0  0  0  0
  -24.0004   -7.4629   22.7485 H   0  0  0  0  0  0
  -21.0851   -8.8798   19.8963 H   0  0  0  0  0  0
  -22.3726  -10.9686   19.6182 H   0  0  0  0  0  0
  -21.1992   -7.6142   23.9706 H   0  0  0  0  0  0
  -21.1489   -6.0522   25.9078 H   0  0  0  0  0  0
  -22.0595   -2.7595   23.2868 H   0  0  0  0  0  0
  -22.4088  -11.9870   22.4809 H   0  0  0  0  0  0
  -21.1103  -13.1259   22.2624 H   0  0  0  0  0  0
  -24.6083  -15.8155   20.4637 H   0  0  0  0  0  0
  -26.2237  -15.6309   20.0061 H   0  0  0  0  0  0
  -26.7221  -32.5390   23.1063 H   0  0  0  0  0  0
  -25.0059  -33.9688   25.0367 H   0  0  0  0  0  0
  -22.7289  -31.2983   21.3919 H   0  0  0  0  0  0
  -23.3746  -35.9613   23.3305 H   0  0  0  0  0  0
  -24.3567  -36.8902   22.2052 H   0  0  0  0  0  0
  -23.7247  -37.6480   23.6668 H   0  0  0  0  0  0
  -26.1249  -31.5218   20.6130 H   0  0  0  0  0  0
  -26.8554  -30.8066   22.0170 H   0  0  0  0  0  0
  -28.1261  -28.9085   21.2057 H   0  0  0  0  0  0
  -25.9416  -25.9079   18.9837 H   0  0  0  0  0  0
  -23.9738  -27.3097   18.9975 H   0  0  0  0  0  0
  -23.7786  -30.5851   19.4021 H   0  0  0  0  0  0
  -22.7702  -29.2437   19.8503 H   0  0  0  0  0  0
  -25.1300  -36.1901   25.0813 H   0  0  0  0  0  0
  -20.9988  -28.3271   24.1377 H   0  0  0  0  0  0
  -20.5644  -26.2315   23.3613 H   0  0  0  0  0  0
  -21.6648  -26.7410   22.1216 H   0  0  0  0  0  0
  -19.6912  -25.6287   21.1241 H   0  0  0  0  0  0
  -19.6686  -27.3178   20.6723 H   0  0  0  0  0  0
  -17.4199  -26.6657   21.4033 H   0  0  0  0  0  0
  -18.0347  -26.0071   22.9023 H   0  0  0  0  0  0
  -19.7951  -30.7271   24.2254 H   0  0  0  0  0  0
  -17.5029  -31.6264   24.5160 H   0  0  0  0  0  0
  -15.5362  -30.2982   23.7664 H   0  0  0  0  0  0
  -15.8682  -28.0814   22.7079 H   0  0  0  0  0  0
  -24.5892  -30.7111   25.7759 H   0  0  0  0  0  0
  -24.8927  -32.2929   26.4842 H   0  0  0  0  0  0
  -25.8026  -30.8933   27.0221 H   0  0  0  0  0  0
  -26.2959  -29.6729   24.1241 H   0  0  0  0  0  0
  -27.4006  -29.7265   25.4780 H   0  0  0  0  0  0
  -27.8857  -30.4250   23.9515 H   0  0  0  0  0  0
  -27.2648  -33.3635   26.2068 H   0  0  0  0  0  0
  -28.3878  -32.6895   25.0344 H   0  0  0  0  0  0
  -28.0711  -31.8468   26.5437 H   0  0  0  0  0  0
  -28.2596  -38.0090   24.7505 H   0  0  0  0  0  0
  -28.1071  -36.2621   24.6297 H   0  0  0  0  0  0
  -27.2294  -37.1448   25.8867 H   0  0  0  0  0  0
  -20.9411  -29.8787   21.6868 H   0  0  0  0  0  0
  -26.0161  -38.2836   24.1405 H   0  0  0  0  0  0
  -26.0774  -17.9872   21.6055 H   0  0  0  0  0  0
  -26.9188  -20.1768   21.0511 H   0  0  0  0  0  0
  -27.5203  -16.0359   21.6812 H   0  0  0  0  0  0
  -34.0925  -17.3662   20.3347 H   0  0  0  0  0  0
  -34.2336  -19.0709   20.6911 H   0  0  0  0  0  0
  -32.2859  -18.9899   21.9354 H   0  0  0  0  0  0
  -32.1948  -17.2580   21.6254 H   0  0  0  0  0  0
  -33.0942  -16.5929   18.0939 H   0  0  0  0  0  0
  -34.6289  -17.4233   17.8648 H   0  0  0  0  0  0
  -33.2533  -17.8090   16.8371 H   0  0  0  0  0  0
  -33.2705  -20.8242   19.0499 H   0  0  0  0  0  0
  -33.3075  -20.2588   17.3864 H   0  0  0  0  0  0
  -34.7212  -20.0576   18.4143 H   0  0  0  0  0  0
  -30.0042  -23.7910   19.7071 H   0  0  0  0  0  0
  -29.4215  -23.7450   21.3470 H   0  0  0  0  0  0
  -27.1532  -24.6218   20.5414 H   0  0  0  0  0  0
  -27.7925  -24.7353   18.9277 H   0  0  0  0  0  0
  -30.3522  -21.1940   20.6775 H   0  0  0  0  0  0
  -29.3810  -15.1991   21.9018 H   0  0  0  0  0  0
  1 25  1  0  0  0
  1 30  2  0  0  0
  1 88  1  0  0  0
  2  3  1  0  0  0
  2 25  1  0  0  0
  2 91  1  0  0  0
  2 92  1  0  0  0
  3  4  1  0  0  0
  3 93  1  0  0  0
  3 94  1  0  0  0
  4  5  1  0  0  0
  4 95  1  0  0  0
  4 96  1  0  0  0
  5  6  1  0  0  0
  5 26  1  0  0  0
  5 97  1  0  0  0
  6 25  1  0  0  0
  6 98  1  0  0  0
  6 99  1  0  0  0
  7  8  2  0  0  0
  7 26  1  0  0  0
  7 29  1  0  0  0
  8  9  1  0  0  0
  8 22  1  0  0  0
  9 10  1  0  0  0
  9 27  2  0  0  0
 10 11  2  0  0  0
 10 15  1  0  0  0
 11 12  1  0  0  0
 11100  1  0  0  0
 12 13  2  0  0  0
 12101  1  0  0  0
 13 14  1  0  0  0
 13 31  1  0  0  0
 14 15  2  0  0  0
 14102  1  0  0  0
 15103  1  0  0  0
 16 17  2  0  0  0
 16 21  1  0  0  0
 16 31  1  0  0  0
 17 18  1  0  0  0
 17104  1  0  0  0
 18 19  2  0  0  0
 18105  1  0  0  0
 19 20  1  0  0  0
 19 24  1  0  0  0
 20 21  2  0  0  0
 20106  1  0  0  0
 21 23  1  0  0  0
 22 28  1  0  0  0
 22 32  2  0  0  0
 26 27  1  0  0  0
 28107  1  0  0  0
 28108  1  0  0  0
 29109  1  0  0  0
 29110  1  0  0  0
 33 34  1  0  0  0
 33 66  1  0  0  0
 33 70  2  0  0  0
 34 36  1  0  0  0
 34 59  1  0  0  0
 34111  1  0  0  0
 35 44  2  0  0  0
 35 45  1  0  0  0
 35 68  1  0  0  0
 36 56  1  0  0  0
 36112  1  0  0  0
 37 39  1  0  0  0
 37 47  1  0  0  0
 37 66  1  0  0  0
 37113  1  0  0  0
 38 43  2  0  0  0
 38 46  1  0  0  0
 38 47  1  0  0  0
 39 64  1  0  0  0
 39 67  2  0  0  0
 40 52  1  0  0  0
 40 53  2  0  0  0
 40 58  1  0  0  0
 41114  1  0  0  0
 41115  1  0  0  0
 41116  1  0  0  0
 41 48  1  0  0  0
 42 43  1  0  0  0
 42 66  1  0  0  0
 42117  1  0  0  0
 42118  1  0  0  0
 43 44  1  0  0  0
 44119  1  0  0  0
 45 46  2  0  0  0
 45120  1  0  0  0
 46121  1  0  0  0
 47122  1  0  0  0
 47123  1  0  0  0
 48 56  1  0  0  0
 48 65  1  0  0  0
 48124  1  0  0  0
 49 50  1  0  0  0
 49 53  1  0  0  0
 49 64  1  0  0  0
 49125  1  0  0  0
 50 51  1  0  0  0
 50126  1  0  0  0
 50127  1  0  0  0
 51 52  1  0  0  0
 51128  1  0  0  0
 51129  1  0  0  0
 52130  1  0  0  0
 52131  1  0  0  0
 53 54  1  0  0  0
 54 55  2  0  0  0
 54132  1  0  0  0
 55 57  1  0  0  0
 55133  1  0  0  0
 56 69  2  0  0  0
 57 58  2  0  0  0
 57134  1  0  0  0
 58135  1  0  0  0
 59 60  1  0  0  0
 59 61  1  0  0  0
 59 62  1  0  0  0
 60136  1  0  0  0
 60137  1  0  0  0
 60138  1  0  0  0
 61139  1  0  0  0
 61140  1  0  0  0
 61141  1  0  0  0
 62142  1  0  0  0
 62143  1  0  0  0
 62144  1  0  0  0
 63 65  1  0  0  0
 63145  1  0  0  0
 63146  1  0  0  0
 63147  1  0  0  0
 64148  1  0  0  0
 65149  1  0  0  0
 68 85  1  0  0  0
 71 72  2  0  0  0
 71 73  1  0  0  0
 71150  1  0  0  0
 72 75  1  0  0  0
 72151  1  0  0  0
 73 76  2  0  0  0
 73152  1  0  0  0
 74 75  2  0  0  0
 74 76  1  0  0  0
 74 86  1  0  0  0
 75 87  1  0  0  0
 76 88  1  0  0  0
 77 81  1  0  0  0
 77 86  1  0  0  0
 77 89  2  0  0  0
 78 84  1  0  0  0
 78 87  1  0  0  0
 78 90  2  0  0  0
 79 80  1  0  0  0
 79 81  1  0  0  0
 79153  1  0  0  0
 79154  1  0  0  0
 80 86  1  0  0  0
 80155  1  0  0  0
 80156  1  0  0  0
 81 82  1  0  0  0
 81 83  1  0  0  0
 82157  1  0  0  0
 82158  1  0  0  0
 82159  1  0  0  0
 83160  1  0  0  0
 83161  1  0  0  0
 83162  1  0  0  0
 84 85  1  0  0  0
 84163  1  0  0  0
 84164  1  0  0  0
 85165  1  0  0  0
 85166  1  0  0  0
 87167  1  0  0  0
 88168  1  0  0  0
M  ISO  4   1 100  68 101  85 101  88 100
M  END
> <chiral flag>
0

> <version>
0

> <s_m_source_file>
/data/baiqing/PycharmProjects/Reinvent-master-3.2/result/LINK_invent/BTK/process_docking_weight1_custom_product_contain_oxygen_bond_distance_aromatic_linkinvent_7_9_3/rearranged_h_0068.sdf

> <i_m_source_file_index>
29

> <r_mmod_Potential_Energy-OPLS-2005>
293.926422119141

> <r_mmod_Stretch_Energy-OPLS-2005>
147.809783935547

> <r_mmod_Bend_Energy-OPLS-2005>
231.303985595703

> <r_mmod_Torsional_Energy-OPLS-2005>
349.148712158203

> <r_mmod_Improper_Torsional_Energy-OPLS-2005>
8.23255252838135

> <r_mmod_Van_der_Waal_Energy-OPLS-2005>
127.31177520752

> <r_mmod_Electrostatic_Energy-OPLS-2005>
-419.002838134766

> <r_mmod_Solvation_Energy-OPLS-2005>
-238.774917602539

> <b_mmod_Minimization_Converged-OPLS-2005>
0

> <r_mmod_RMS_Derivative-OPLS-2005>
1.40229785442352

$$$$
29
                    3D
 Structure written by MMmdl.
158167  0  0  1  0            999 V2000
  -30.5882  -14.7699   20.4157 C   0  0  0  0  0  0
  -30.4388  -12.4500   19.4932 C   0  0  0  0  0  0
  -29.5186  -12.4497   18.2513 C   0  0  0  0  0  0
  -28.0356  -12.3245   18.6541 C   0  0  0  0  0  0
  -27.6422  -13.2347   19.8500 C   0  0  2  0  0  0
  -28.6855  -13.1791   20.9874 C   0  0  0  0  0  0
  -25.2519  -13.8230   20.5715 C   0  0  0  0  0  0
  -24.1803  -13.0459   20.9197 C   0  0  0  0  0  0
  -24.6381  -11.6937   20.8719 C   0  0  0  0  0  0
  -23.9048  -10.4306   21.0367 C   0  0  0  0  0  0
  -24.3597   -9.4234   21.9157 C   0  0  0  0  0  0
  -23.6286   -8.2261   22.0726 C   0  0  0  0  0  0
  -22.4269   -8.0282   21.3527 C   0  0  0  0  0  0
  -21.9893   -9.0249   20.4638 C   0  0  0  0  0  0
  -22.7203  -10.2137   20.3037 C   0  0  0  0  0  0
  -21.6865   -6.0737   22.5260 C   0  0  0  0  0  0
  -21.4022   -6.5636   23.8193 C   0  0  0  0  0  0
  -21.3655   -5.6784   24.9151 C   0  0  0  0  0  0
  -21.6051   -4.3046   24.7203 C   0  0  0  0  0  0
  -21.8836   -3.8145   23.4320 C   0  0  0  0  0  0
  -21.9199   -4.6966   22.3379 C   0  0  0  0  0  0
  -22.7825  -13.5228   21.1888 C   0  0  0  0  0  0
  -22.1661   -4.2164   21.0953 F   0  0  0  0  0  0
  -21.5638   -3.4522   25.7710 F   0  0  0  0  0  0
  -29.9862  -13.5292   20.4044 N   0  0  0  0  0  0
  -26.2934  -12.9432   20.3286 N   0  0  0  0  0  0
  -25.9317  -11.6570   20.5755 N   0  0  0  0  0  0
  -22.0496  -12.8182   22.0436 N   0  0  0  0  0  0
  -25.4244  -15.1958   20.4193 N   0  0  0  0  0  0
  -31.7797  -14.8686   20.1093 O   0  0  0  0  0  0
  -21.6644   -6.8874   21.4219 O   0  0  0  0  0  0
  -22.3489  -14.5533   20.6747 O   0  0  0  0  0  0
  -24.6304  -31.8549   23.2014 C   0  0  0  0  0  0
  -25.9135  -32.4752   23.8350 C   0  0  1  0  0  0
  -27.2082  -27.2451   20.1347 C   0  0  0  0  0  0
  -25.5939  -33.8564   24.2256 N   0  0  0  0  0  0
  -23.4288  -30.4781   21.5441 C   0  0  2  0  0  0
  -24.8773  -28.9358   20.1035 C   0  0  0  0  0  0
  -22.7521  -29.4572   22.4912 C   0  0  0  0  0  0
  -18.0285  -28.1398   22.8467 C   0  0  0  0  0  0
  -24.1486  -36.7267   23.2640 C   0  0  0  0  0  0
  -25.9781  -30.7591   21.3930 C   0  0  0  0  0  0
  -26.0460  -29.3836   20.7312 C   0  0  0  0  0  0
  -27.2094  -28.5466   20.7460 C   0  0  0  0  0  0
  -26.0284  -26.8962   19.4348 C   0  0  0  0  0  0
  -24.8776  -27.7025   19.4393 C   0  0  0  0  0  0
  -23.6497  -29.8216   20.1562 C   0  0  0  0  0  0
  -25.4117  -36.3067   24.0324 C   0  0  1  0  0  0
  -20.5895  -28.3694   23.1271 C   0  0  2  0  0  0
  -20.6785  -26.9409   22.5413 C   0  0  0  0  0  0
  -19.5760  -26.6378   21.5220 C   0  0  0  0  0  0
  -18.1933  -26.7931   22.1618 C   0  0  0  0  0  0
  -19.1541  -28.8864   23.2857 C   0  0  0  0  0  0
  -18.9465  -30.1465   23.8875 C   0  0  0  0  0  0
  -17.6465  -30.6592   24.0560 C   0  0  0  0  0  0
  -25.9063  -34.9442   23.5090 C   0  0  0  0  0  0
  -16.5354  -29.9086   23.6344 C   0  0  0  0  0  0
  -16.7272  -28.6515   23.0343 C   0  0  0  0  0  0
  -26.4506  -31.6591   25.0750 C   0  0  0  0  0  0
  -25.3720  -31.3753   26.1463 C   0  0  0  0  0  0
  -27.0356  -30.2999   24.6264 C   0  0  0  0  0  0
  -27.6049  -32.4358   25.7515 C   0  0  0  0  0  0
  -27.5576  -37.1779   24.8460 C   0  0  0  0  0  0
  -21.4226  -29.3023   22.3655 N   0  0  0  0  0  0
  -26.4286  -37.3766   23.9415 N   0  0  0  0  0  0
  -24.6977  -31.0500   22.1005 N   0  0  0  0  0  0
  -23.4222  -28.8102   23.3008 O   0  0  0  0  0  0
  -28.2818  -26.3211   20.2475 O   0  0  0  0  0  0
  -26.5627  -34.8909   22.4652 O   0  0  0  0  0  0
  -23.5455  -32.1378   23.7297 O   0  0  0  0  0  0
  -29.7999  -18.5351   17.8149 C   0  0  0  0  0  0
  -29.6018  -19.7493   18.4857 C   0  0  0  0  0  0
  -29.5774  -18.5213   20.5899 C   0  0  0  0  0  0
  -29.8655  -17.3025   18.4964 C   0  0  0  0  0  0
  -29.4650  -19.7989   19.8850 C   0  0  0  0  0  0
  -29.7976  -17.2354   19.9212 C   0  0  0  0  0  0
  -28.3624  -22.1219   20.1441 C   0  0  0  0  0  0
  -30.1924  -23.4034   20.8675 C   0  0  0  0  0  0
  -30.4368  -21.8721   21.0601 C   0  0  0  0  0  0
  -28.6785  -23.5740   20.6874 C   0  0  1  0  0  0
  -29.9196  -16.0662   17.6212 C   0  0  0  0  0  0
  -28.0958  -24.8631   19.8807 C   0  0  0  0  0  0
  -29.3072  -21.1650   20.4538 N   0  0  0  0  0  0
  -29.7928  -15.9012   20.6009 N   0  0  0  0  0  0
  -27.3243  -21.8884   19.5163 O   0  0  0  0  0  0
  -31.4787  -12.5780   19.1872 H   0  0  0  0  0  0
  -30.3933  -11.4854   20.0012 H   0  0  0  0  0  0
  -29.7862  -11.6261   17.5872 H   0  0  0  0  0  0
  -29.6812  -13.3492   17.6656 H   0  0  0  0  0  0
  -27.8639  -11.2807   18.9184 H   0  0  0  0  0  0
  -27.3909  -12.5262   17.7980 H   0  0  0  0  0  0
  -27.6327  -14.2540   19.4643 H   0  0  0  0  0  0
  -28.7207  -12.1864   21.4381 H   0  0  0  0  0  0
  -28.4199  -13.8692   21.7907 H   0  0  0  0  0  0
  -25.2731   -9.5731   22.4734 H   0  0  0  0  0  0
  -24.0023   -7.4654   22.7429 H   0  0  0  0  0  0
  -21.0826   -8.8732   19.8948 H   0  0  0  0  0  0
  -22.3621  -10.9660   19.6147 H   0  0  0  0  0  0
  -21.2010   -7.6145   23.9696 H   0  0  0  0  0  0
  -21.1456   -6.0507   25.9055 H   0  0  0  0  0  0
  -22.0622   -2.7611   23.2801 H   0  0  0  0  0  0
  -22.4099  -11.9794   22.4738 H   0  0  0  0  0  0
  -21.1143  -13.1233   22.2730 H   0  0  0  0  0  0
  -24.6641  -15.8551   20.5479 H   0  0  0  0  0  0
  -26.2809  -15.6386   20.1090 H   0  0  0  0  0  0
  -26.7196  -32.5402   23.1087 H   0  0  0  0  0  0
  -25.0132  -33.9721   25.0431 H   0  0  0  0  0  0
  -22.7225  -31.2986   21.4007 H   0  0  0  0  0  0
  -23.3771  -35.9574   23.3287 H   0  0  0  0  0  0
  -24.3571  -36.8914   22.2055 H   0  0  0  0  0  0
  -23.7216  -37.6447   23.6686 H   0  0  0  0  0  0
  -26.1322  -31.5226   20.6290 H   0  0  0  0  0  0
  -26.8510  -30.7986   22.0337 H   0  0  0  0  0  0
  -28.0935  -28.8735   21.2752 H   0  0  0  0  0  0
  -25.9493  -25.9806   18.8711 H   0  0  0  0  0  0
  -23.9957  -27.3670   18.9110 H   0  0  0  0  0  0
  -23.7742  -30.6031   19.4058 H   0  0  0  0  0  0
  -22.7698  -29.2550   19.8468 H   0  0  0  0  0  0
  -25.1297  -36.1908   25.0815 H   0  0  0  0  0  0
  -20.9968  -28.3281   24.1400 H   0  0  0  0  0  0
  -20.5720  -26.2294   23.3613 H   0  0  0  0  0  0
  -21.6644  -26.7448   22.1179 H   0  0  0  0  0  0
  -19.6928  -25.6288   21.1250 H   0  0  0  0  0  0
  -19.6724  -27.3188   20.6752 H   0  0  0  0  0  0
  -17.4208  -26.6678   21.4017 H   0  0  0  0  0  0
  -18.0322  -26.0087   22.9024 H   0  0  0  0  0  0
  -19.7942  -30.7287   24.2239 H   0  0  0  0  0  0
  -17.5015  -31.6271   24.5159 H   0  0  0  0  0  0
  -15.5353  -30.2980   23.7689 H   0  0  0  0  0  0
  -15.8667  -28.0839   22.7058 H   0  0  0  0  0  0
  -24.5900  -30.7098   25.7789 H   0  0  0  0  0  0
  -24.8913  -32.2929   26.4867 H   0  0  0  0  0  0
  -25.8029  -30.8942   27.0254 H   0  0  0  0  0  0
  -26.2944  -29.6749   24.1268 H   0  0  0  0  0  0
  -27.3991  -29.7269   25.4805 H   0  0  0  0  0  0
  -27.8849  -30.4260   23.9548 H   0  0  0  0  0  0
  -27.2638  -33.3677   26.2036 H   0  0  0  0  0  0
  -28.3871  -32.6890   25.0347 H   0  0  0  0  0  0
  -28.0694  -31.8528   26.5476 H   0  0  0  0  0  0
  -28.2564  -38.0103   24.7537 H   0  0  0  0  0  0
  -28.1104  -36.2632   24.6255 H   0  0  0  0  0  0
  -27.2296  -37.1380   25.8862 H   0  0  0  0  0  0
  -20.9429  -29.8741   21.6843 H   0  0  0  0  0  0
  -26.0165  -38.2831   24.1453 H   0  0  0  0  0  0
  -29.8737  -18.5587   16.7365 H   0  0  0  0  0  0
  -29.5568  -20.6579   17.9011 H   0  0  0  0  0  0
  -29.4747  -18.5264   21.6658 H   0  0  0  0  0  0
  -30.7147  -23.7600   19.9787 H   0  0  0  0  0  0
  -30.5674  -23.9761   21.7165 H   0  0  0  0  0  0
  -30.4860  -21.6101   22.1170 H   0  0  0  0  0  0
  -31.3788  -21.5675   20.6018 H   0  0  0  0  0  0
  -28.2344  -23.6016   21.6829 H   0  0  0  0  0  0
  -30.8706  -15.5453   17.7209 H   0  0  0  0  0  0
  -29.7939  -16.3052   16.5646 H   0  0  0  0  0  0
  -29.0986  -15.4063   17.8916 H   0  0  0  0  0  0
  -27.0337  -24.6377   19.9217 H   0  0  0  0  0  0
  -28.3695  -24.7677   18.8297 H   0  0  0  0  0  0
  -28.9293  -15.6955   21.0803 H   0  0  0  0  0  0
  1 25  1  0  0  0
  1 30  2  0  0  0
  1 84  1  0  0  0
  2  3  1  0  0  0
  2 25  1  0  0  0
  2 86  1  0  0  0
  2 87  1  0  0  0
  3  4  1  0  0  0
  3 88  1  0  0  0
  3 89  1  0  0  0
  4  5  1  0  0  0
  4 90  1  0  0  0
  4 91  1  0  0  0
  5  6  1  0  0  0
  5 26  1  0  0  0
  5 92  1  0  0  0
  6 25  1  0  0  0
  6 93  1  0  0  0
  6 94  1  0  0  0
  7  8  2  0  0  0
  7 26  1  0  0  0
  7 29  1  0  0  0
  8  9  1  0  0  0
  8 22  1  0  0  0
  9 10  1  0  0  0
  9 27  2  0  0  0
 10 11  2  0  0  0
 10 15  1  0  0  0
 11 12  1  0  0  0
 11 95  1  0  0  0
 12 13  2  0  0  0
 12 96  1  0  0  0
 13 14  1  0  0  0
 13 31  1  0  0  0
 14 15  2  0  0  0
 14 97  1  0  0  0
 15 98  1  0  0  0
 16 17  2  0  0  0
 16 21  1  0  0  0
 16 31  1  0  0  0
 17 18  1  0  0  0
 17 99  1  0  0  0
 18 19  2  0  0  0
 18100  1  0  0  0
 19 20  1  0  0  0
 19 24  1  0  0  0
 20 21  2  0  0  0
 20101  1  0  0  0
 21 23  1  0  0  0
 22 28  1  0  0  0
 22 32  2  0  0  0
 26 27  1  0  0  0
 28102  1  0  0  0
 28103  1  0  0  0
 29104  1  0  0  0
 29105  1  0  0  0
 33 34  1  0  0  0
 33 66  1  0  0  0
 33 70  2  0  0  0
 34 36  1  0  0  0
 34 59  1  0  0  0
 34106  1  0  0  0
 35 44  2  0  0  0
 35 45  1  0  0  0
 35 68  1  0  0  0
 36 56  1  0  0  0
 36107  1  0  0  0
 37 39  1  0  0  0
 37 47  1  0  0  0
 37 66  1  0  0  0
 37108  1  0  0  0
 38 43  2  0  0  0
 38 46  1  0  0  0
 38 47  1  0  0  0
 39 64  1  0  0  0
 39 67  2  0  0  0
 40 52  1  0  0  0
 40 53  2  0  0  0
 40 58  1  0  0  0
 41109  1  0  0  0
 41110  1  0  0  0
 41111  1  0  0  0
 41 48  1  0  0  0
 42 43  1  0  0  0
 42 66  1  0  0  0
 42112  1  0  0  0
 42113  1  0  0  0
 43 44  1  0  0  0
 44114  1  0  0  0
 45 46  2  0  0  0
 45115  1  0  0  0
 46116  1  0  0  0
 47117  1  0  0  0
 47118  1  0  0  0
 48 56  1  0  0  0
 48 65  1  0  0  0
 48119  1  0  0  0
 49 50  1  0  0  0
 49 53  1  0  0  0
 49 64  1  0  0  0
 49120  1  0  0  0
 50 51  1  0  0  0
 50121  1  0  0  0
 50122  1  0  0  0
 51 52  1  0  0  0
 51123  1  0  0  0
 51124  1  0  0  0
 52125  1  0  0  0
 52126  1  0  0  0
 53 54  1  0  0  0
 54 55  2  0  0  0
 54127  1  0  0  0
 55 57  1  0  0  0
 55128  1  0  0  0
 56 69  2  0  0  0
 57 58  2  0  0  0
 57129  1  0  0  0
 58130  1  0  0  0
 59 60  1  0  0  0
 59 61  1  0  0  0
 59 62  1  0  0  0
 60131  1  0  0  0
 60132  1  0  0  0
 60133  1  0  0  0
 61134  1  0  0  0
 61135  1  0  0  0
 61136  1  0  0  0
 62137  1  0  0  0
 62138  1  0  0  0
 62139  1  0  0  0
 63 65  1  0  0  0
 63140  1  0  0  0
 63141  1  0  0  0
 63142  1  0  0  0
 64143  1  0  0  0
 65144  1  0  0  0
 68 82  1  0  0  0
 71 72  2  0  0  0
 71 74  1  0  0  0
 71145  1  0  0  0
 72 75  1  0  0  0
 72146  1  0  0  0
 73 75  2  0  0  0
 73 76  1  0  0  0
 73147  1  0  0  0
 74 76  2  0  0  0
 74 81  1  0  0  0
 75 83  1  0  0  0
 76 84  1  0  0  0
 77 80  1  0  0  0
 77 83  1  0  0  0
 77 85  2  0  0  0
 78 79  1  0  0  0
 78 80  1  0  0  0
 78148  1  0  0  0
 78149  1  0  0  0
 79 83  1  0  0  0
 79150  1  0  0  0
 79151  1  0  0  0
 80 82  1  0  0  0
 80152  1  0  0  0
 81153  1  0  0  0
 81154  1  0  0  0
 81155  1  0  0  0
 82156  1  0  0  0
 82157  1  0  0  0
 84158  1  0  0  0
M  ISO  4   1 100  68 101  82 101  84 100
M  END
> <chiral flag>
0

> <version>
0

> <s_m_source_file>
/data/baiqing/PycharmProjects/Reinvent-master-3.2/result/LINK_invent/BTK/process_docking_weight1_custom_product_contain_oxygen_bond_distance_aromatic_linkinvent_7_9_3/rearranged_h_0068.sdf

> <i_m_source_file_index>
30

> <r_mmod_Potential_Energy-OPLS-2005>
329.638763427734

> <r_mmod_Stretch_Energy-OPLS-2005>
131.054916381836

> <r_mmod_Bend_Energy-OPLS-2005>
204.221466064453

> <r_mmod_Torsional_Energy-OPLS-2005>
323.281036376953

> <r_mmod_Improper_Torsional_Energy-OPLS-2005>
6.69939231872559

> <r_mmod_Van_der_Waal_Energy-OPLS-2005>
141.023315429688

> <r_mmod_Electrostatic_Energy-OPLS-2005>
-357.004516601562

> <r_mmod_Solvation_Energy-OPLS-2005>
-222.664733886719

> <b_mmod_Minimization_Converged-OPLS-2005>
0

> <r_mmod_RMS_Derivative-OPLS-2005>
2.10352444648743

$$$$
30
                    3D
 Structure written by MMmdl.
157165  0  0  1  0            999 V2000
  -30.6543  -14.7226   20.4430 C   0  0  0  0  0  0
  -30.4231  -12.4390   19.4771 C   0  0  0  0  0  0
  -29.5044  -12.4944   18.2379 C   0  0  0  0  0  0
  -28.0329  -12.3251   18.6566 C   0  0  0  0  0  0
  -27.6405  -13.2357   19.8492 C   0  0  2  0  0  0
  -28.6870  -13.1900   20.9859 C   0  0  0  0  0  0
  -25.2508  -13.8211   20.5701 C   0  0  0  0  0  0
  -24.1804  -13.0448   20.9210 C   0  0  0  0  0  0
  -24.6400  -11.6920   20.8760 C   0  0  0  0  0  0
  -23.9082  -10.4297   21.0411 C   0  0  0  0  0  0
  -24.3631   -9.4213   21.9184 C   0  0  0  0  0  0
  -23.6298   -8.2254   22.0761 C   0  0  0  0  0  0
  -22.4280   -8.0293   21.3549 C   0  0  0  0  0  0
  -21.9923   -9.0268   20.4653 C   0  0  0  0  0  0
  -22.7254  -10.2143   20.3060 C   0  0  0  0  0  0
  -21.6852   -6.0740   22.5268 C   0  0  0  0  0  0
  -21.4019   -6.5644   23.8203 C   0  0  0  0  0  0
  -21.3659   -5.6800   24.9167 C   0  0  0  0  0  0
  -21.6042   -4.3062   24.7215 C   0  0  0  0  0  0
  -21.8818   -3.8151   23.4337 C   0  0  0  0  0  0
  -21.9198   -4.6970   22.3395 C   0  0  0  0  0  0
  -22.7822  -13.5214   21.1869 C   0  0  0  0  0  0
  -22.1659   -4.2154   21.0973 F   0  0  0  0  0  0
  -21.5629   -3.4545   25.7729 F   0  0  0  0  0  0
  -29.9905  -13.5176   20.3955 N   0  0  0  0  0  0
  -26.2943  -12.9423   20.3299 N   0  0  0  0  0  0
  -25.9335  -11.6568   20.5780 N   0  0  0  0  0  0
  -22.0472  -12.8204   22.0431 N   0  0  0  0  0  0
  -25.4189  -15.1936   20.4098 N   0  0  0  0  0  0
  -31.8559  -14.7474   20.1697 O   0  0  0  0  0  0
  -21.6643   -6.8882   21.4232 O   0  0  0  0  0  0
  -22.3501  -14.5513   20.6716 O   0  0  0  0  0  0
  -24.6317  -31.8539   23.2009 C   0  0  0  0  0  0
  -25.9142  -32.4734   23.8344 C   0  0  1  0  0  0
  -27.2161  -27.2685   20.1271 C   0  0  0  0  0  0
  -25.5928  -33.8541   24.2264 N   0  0  0  0  0  0
  -23.4279  -30.4786   21.5430 C   0  0  2  0  0  0
  -24.8722  -28.9334   20.1047 C   0  0  0  0  0  0
  -22.7508  -29.4593   22.4913 C   0  0  0  0  0  0
  -18.0275  -28.1391   22.8470 C   0  0  0  0  0  0
  -24.1481  -36.7298   23.2638 C   0  0  0  0  0  0
  -25.9723  -30.7694   21.3800 C   0  0  0  0  0  0
  -26.0420  -29.3935   20.7210 C   0  0  0  0  0  0
  -27.2138  -28.5716   20.7265 C   0  0  0  0  0  0
  -26.0324  -26.8905   19.4515 C   0  0  0  0  0  0
  -24.8737  -27.6904   19.4553 C   0  0  0  0  0  0
  -23.6408  -29.8165   20.1575 C   0  0  0  0  0  0
  -25.4105  -36.3069   24.0331 C   0  0  1  0  0  0
  -20.5888  -28.3683   23.1257 C   0  0  2  0  0  0
  -20.6774  -26.9405   22.5407 C   0  0  0  0  0  0
  -19.5747  -26.6377   21.5213 C   0  0  0  0  0  0
  -18.1917  -26.7927   22.1619 C   0  0  0  0  0  0
  -19.1540  -28.8853   23.2839 C   0  0  0  0  0  0
  -18.9463  -30.1446   23.8863 C   0  0  0  0  0  0
  -17.6471  -30.6577   24.0559 C   0  0  0  0  0  0
  -25.9055  -34.9431   23.5110 C   0  0  0  0  0  0
  -16.5359  -29.9083   23.6333 C   0  0  0  0  0  0
  -16.7265  -28.6508   23.0342 C   0  0  0  0  0  0
  -26.4510  -31.6578   25.0731 C   0  0  0  0  0  0
  -25.3730  -31.3742   26.1447 C   0  0  0  0  0  0
  -27.0359  -30.2986   24.6241 C   0  0  0  0  0  0
  -27.6060  -32.4332   25.7494 C   0  0  0  0  0  0
  -27.5584  -37.1787   24.8459 C   0  0  0  0  0  0
  -21.4219  -29.3036   22.3657 N   0  0  0  0  0  0
  -26.4286  -37.3766   23.9421 N   0  0  0  0  0  0
  -24.6967  -31.0506   22.0984 N   0  0  0  0  0  0
  -23.4200  -28.8094   23.2992 O   0  0  0  0  0  0
  -28.3123  -26.3793   20.2318 O   0  0  0  0  0  0
  -26.5634  -34.8911   22.4676 O   0  0  0  0  0  0
  -23.5459  -32.1365   23.7299 O   0  0  0  0  0  0
  -31.0605  -19.9651   19.3843 C   0  0  0  0  0  0
  -31.3657  -17.5322   19.3291 C   0  0  0  0  0  0
  -29.5794  -18.5086   20.6577 C   0  0  0  0  0  0
  -31.7626  -18.8284   18.9424 C   0  0  0  0  0  0
  -29.9340  -19.8605   20.2281 C   0  0  0  0  0  0
  -30.2871  -17.3063   20.2231 C   0  0  0  0  0  0
  -32.9213  -19.0075   18.0733 C   0  0  0  0  0  0
  -29.1844  -22.3327   19.9787 C   0  0  0  0  0  0
  -28.9294  -23.7427   20.6893 C   0  0  0  0  0  0
  -28.1711  -24.9231   19.8842 C   0  0  0  0  0  0
  -33.8697  -19.8898   18.3830 N   0  0  0  0  0  0
  -29.2996  -21.1312   20.6679 N   0  0  0  0  0  0
  -29.9344  -15.9029   20.6045 N   0  0  0  0  0  0
  -33.0375  -18.2994   16.9533 N   0  3  0  0  0  0
  -29.2765  -22.3435   18.7483 O   0  0  0  0  0  0
  -31.4650  -12.5375   19.1717 H   0  0  0  0  0  0
  -30.3488  -11.4685   19.9702 H   0  0  0  0  0  0
  -29.7825  -11.7166   17.5263 H   0  0  0  0  0  0
  -29.6351  -13.4460   17.7181 H   0  0  0  0  0  0
  -27.8928  -11.2783   18.9309 H   0  0  0  0  0  0
  -27.3707  -12.5047   17.8074 H   0  0  0  0  0  0
  -27.6315  -14.2531   19.4572 H   0  0  0  0  0  0
  -28.7154  -12.2036   21.4536 H   0  0  0  0  0  0
  -28.4275  -13.8977   21.7760 H   0  0  0  0  0  0
  -25.2766   -9.5686   22.4767 H   0  0  0  0  0  0
  -23.9998   -7.4643   22.7490 H   0  0  0  0  0  0
  -21.0847   -8.8786   19.8956 H   0  0  0  0  0  0
  -22.3701  -10.9689   19.6181 H   0  0  0  0  0  0
  -21.2014   -7.6150   23.9702 H   0  0  0  0  0  0
  -21.1478   -6.0532   25.9066 H   0  0  0  0  0  0
  -22.0601   -2.7615   23.2832 H   0  0  0  0  0  0
  -22.4098  -11.9852   22.4790 H   0  0  0  0  0  0
  -21.1099  -13.1233   22.2654 H   0  0  0  0  0  0
  -24.6483  -15.8445   20.5157 H   0  0  0  0  0  0
  -26.2589  -15.6324   20.0554 H   0  0  0  0  0  0
  -26.7196  -32.5379   23.1077 H   0  0  0  0  0  0
  -25.0063  -33.9663   25.0403 H   0  0  0  0  0  0
  -22.7260  -31.3018   21.4000 H   0  0  0  0  0  0
  -23.3734  -35.9636   23.3291 H   0  0  0  0  0  0
  -24.3577  -36.8939   22.2056 H   0  0  0  0  0  0
  -23.7235  -37.6502   23.6669 H   0  0  0  0  0  0
  -26.1081  -31.5310   20.6091 H   0  0  0  0  0  0
  -26.8545  -30.8173   22.0071 H   0  0  0  0  0  0
  -28.1034  -28.9139   21.2354 H   0  0  0  0  0  0
  -25.9586  -25.9583   18.9105 H   0  0  0  0  0  0
  -23.9828  -27.3414   18.9495 H   0  0  0  0  0  0
  -23.7574  -30.5930   19.4023 H   0  0  0  0  0  0
  -22.7597  -29.2458   19.8585 H   0  0  0  0  0  0
  -25.1271  -36.1934   25.0825 H   0  0  0  0  0  0
  -20.9949  -28.3277   24.1395 H   0  0  0  0  0  0
  -20.5680  -26.2316   23.3619 H   0  0  0  0  0  0
  -21.6631  -26.7441   22.1192 H   0  0  0  0  0  0
  -19.6933  -25.6287   21.1231 H   0  0  0  0  0  0
  -19.6684  -27.3204   20.6754 H   0  0  0  0  0  0
  -17.4201  -26.6659   21.4012 H   0  0  0  0  0  0
  -18.0290  -26.0091   22.9033 H   0  0  0  0  0  0
  -19.7948  -30.7239   24.2245 H   0  0  0  0  0  0
  -17.5034  -31.6254   24.5160 H   0  0  0  0  0  0
  -15.5356  -30.2964   23.7668 H   0  0  0  0  0  0
  -15.8674  -28.0799   22.7074 H   0  0  0  0  0  0
  -24.5888  -30.7114   25.7778 H   0  0  0  0  0  0
  -24.8925  -32.2924   26.4856 H   0  0  0  0  0  0
  -25.8012  -30.8924   27.0243 H   0  0  0  0  0  0
  -26.2953  -29.6720   24.1261 H   0  0  0  0  0  0
  -27.4034  -29.7264   25.4769 H   0  0  0  0  0  0
  -27.8833  -30.4258   23.9493 H   0  0  0  0  0  0
  -27.2675  -33.3667   26.2017 H   0  0  0  0  0  0
  -28.3883  -32.6863   25.0323 H   0  0  0  0  0  0
  -28.0725  -31.8511   26.5454 H   0  0  0  0  0  0
  -28.2564  -38.0117   24.7527 H   0  0  0  0  0  0
  -28.1106  -36.2642   24.6237 H   0  0  0  0  0  0
  -27.2300  -37.1385   25.8859 H   0  0  0  0  0  0
  -20.9414  -29.8787   21.6876 H   0  0  0  0  0  0
  -26.0167  -38.2841   24.1436 H   0  0  0  0  0  0
  -31.4088  -20.9361   19.0601 H   0  0  0  0  0  0
  -31.9359  -16.7141   18.9199 H   0  0  0  0  0  0
  -28.7429  -18.3961   21.3327 H   0  0  0  0  0  0
  -29.9172  -24.1131   20.9657 H   0  0  0  0  0  0
  -28.4114  -23.5666   21.6314 H   0  0  0  0  0  0
  -27.1275  -24.6268   19.9576 H   0  0  0  0  0  0
  -28.4284  -24.8488   18.8267 H   0  0  0  0  0  0
  -33.8165  -20.3778   19.2652 H   0  0  0  0  0  0
  -34.6795  -20.0504   17.8045 H   0  0  0  0  0  0
  -29.0026  -21.1540   21.6350 H   0  0  0  0  0  0
  -28.9910  -15.7712   20.9416 H   0  0  0  0  0  0
  -32.2878  -17.6818   16.6846 H   0  0  0  0  0  0
  -33.8147  -18.4076   16.3216 H   0  0  0  0  0  0
  1 25  1  0  0  0
  1 30  2  0  0  0
  1 83  1  0  0  0
  2  3  1  0  0  0
  2 25  1  0  0  0
  2 86  1  0  0  0
  2 87  1  0  0  0
  3  4  1  0  0  0
  3 88  1  0  0  0
  3 89  1  0  0  0
  4  5  1  0  0  0
  4 90  1  0  0  0
  4 91  1  0  0  0
  5  6  1  0  0  0
  5 26  1  0  0  0
  5 92  1  0  0  0
  6 25  1  0  0  0
  6 93  1  0  0  0
  6 94  1  0  0  0
  7  8  2  0  0  0
  7 26  1  0  0  0
  7 29  1  0  0  0
  8  9  1  0  0  0
  8 22  1  0  0  0
  9 10  1  0  0  0
  9 27  2  0  0  0
 10 11  2  0  0  0
 10 15  1  0  0  0
 11 12  1  0  0  0
 11 95  1  0  0  0
 12 13  2  0  0  0
 12 96  1  0  0  0
 13 14  1  0  0  0
 13 31  1  0  0  0
 14 15  2  0  0  0
 14 97  1  0  0  0
 15 98  1  0  0  0
 16 17  2  0  0  0
 16 21  1  0  0  0
 16 31  1  0  0  0
 17 18  1  0  0  0
 17 99  1  0  0  0
 18 19  2  0  0  0
 18100  1  0  0  0
 19 20  1  0  0  0
 19 24  1  0  0  0
 20 21  2  0  0  0
 20101  1  0  0  0
 21 23  1  0  0  0
 22 28  1  0  0  0
 22 32  2  0  0  0
 26 27  1  0  0  0
 28102  1  0  0  0
 28103  1  0  0  0
 29104  1  0  0  0
 29105  1  0  0  0
 33 34  1  0  0  0
 33 66  1  0  0  0
 33 70  2  0  0  0
 34 36  1  0  0  0
 34 59  1  0  0  0
 34106  1  0  0  0
 35 44  2  0  0  0
 35 45  1  0  0  0
 35 68  1  0  0  0
 36 56  1  0  0  0
 36107  1  0  0  0
 37 39  1  0  0  0
 37 47  1  0  0  0
 37 66  1  0  0  0
 37108  1  0  0  0
 38 43  2  0  0  0
 38 46  1  0  0  0
 38 47  1  0  0  0
 39 64  1  0  0  0
 39 67  2  0  0  0
 40 52  1  0  0  0
 40 53  2  0  0  0
 40 58  1  0  0  0
 41109  1  0  0  0
 41110  1  0  0  0
 41111  1  0  0  0
 41 48  1  0  0  0
 42 43  1  0  0  0
 42 66  1  0  0  0
 42112  1  0  0  0
 42113  1  0  0  0
 43 44  1  0  0  0
 44114  1  0  0  0
 45 46  2  0  0  0
 45115  1  0  0  0
 46116  1  0  0  0
 47117  1  0  0  0
 47118  1  0  0  0
 48 56  1  0  0  0
 48 65  1  0  0  0
 48119  1  0  0  0
 49 50  1  0  0  0
 49 53  1  0  0  0
 49 64  1  0  0  0
 49120  1  0  0  0
 50 51  1  0  0  0
 50121  1  0  0  0
 50122  1  0  0  0
 51 52  1  0  0  0
 51123  1  0  0  0
 51124  1  0  0  0
 52125  1  0  0  0
 52126  1  0  0  0
 53 54  1  0  0  0
 54 55  2  0  0  0
 54127  1  0  0  0
 55 57  1  0  0  0
 55128  1  0  0  0
 56 69  2  0  0  0
 57 58  2  0  0  0
 57129  1  0  0  0
 58130  1  0  0  0
 59 60  1  0  0  0
 59 61  1  0  0  0
 59 62  1  0  0  0
 60131  1  0  0  0
 60132  1  0  0  0
 60133  1  0  0  0
 61134  1  0  0  0
 61135  1  0  0  0
 61136  1  0  0  0
 62137  1  0  0  0
 62138  1  0  0  0
 62139  1  0  0  0
 63 65  1  0  0  0
 63140  1  0  0  0
 63141  1  0  0  0
 63142  1  0  0  0
 64143  1  0  0  0
 65144  1  0  0  0
 68 80  1  0  0  0
 71 74  2  0  0  0
 71 75  1  0  0  0
 71145  1  0  0  0
 72 74  1  0  0  0
 72 76  2  0  0  0
 72146  1  0  0  0
 73 75  2  0  0  0
 73 76  1  0  0  0
 73147  1  0  0  0
 74 77  1  0  0  0
 75 82  1  0  0  0
 76 83  1  0  0  0
 77 81  1  0  0  0
 77 84  2  0  0  0
 78 79  1  0  0  0
 78 82  1  0  0  0
 78 85  2  0  0  0
 79 80  1  0  0  0
 79148  1  0  0  0
 79149  1  0  0  0
 80150  1  0  0  0
 80151  1  0  0  0
 81152  1  0  0  0
 81153  1  0  0  0
 82154  1  0  0  0
 83155  1  0  0  0
 84156  1  0  0  0
 84157  1  0  0  0
M  CHG  1  84   1
M  ISO  4   1 100  68 101  80 101  83 100
M  END
> <chiral flag>
0

> <version>
0

> <s_m_source_file>
/data/baiqing/PycharmProjects/Reinvent-master-3.2/result/LINK_invent/BTK/process_docking_weight1_custom_product_contain_oxygen_bond_distance_aromatic_linkinvent_7_9_3/rearranged_h_0068.sdf

> <i_m_source_file_index>
31

> <r_mmod_Potential_Energy-OPLS-2005>
-191.067901611328

> <r_mmod_Stretch_Energy-OPLS-2005>
122.961685180664

> <r_mmod_Bend_Energy-OPLS-2005>
161.065933227539

> <r_mmod_Torsional_Energy-OPLS-2005>
244.623046875

> <r_mmod_Improper_Torsional_Energy-OPLS-2005>
4.84635829925537

> <r_mmod_Van_der_Waal_Energy-OPLS-2005>
156.987838745117

> <r_mmod_Electrostatic_Energy-OPLS-2005>
-505.626617431641

> <r_mmod_Solvation_Energy-OPLS-2005>
-459.105255126953

> <b_mmod_Minimization_Converged-OPLS-2005>
0

> <r_mmod_RMS_Derivative-OPLS-2005>
2.72635293006897

$$$$
31
                    3D
 Structure written by MMmdl.
151159  0  0  1  0            999 V2000
  -30.6278  -14.5931   20.5427 C   0  0  0  0  0  0
  -30.4460  -12.3762   19.4334 C   0  0  0  0  0  0
  -29.5074  -12.5122   18.2123 C   0  0  0  0  0  0
  -28.0290  -12.3551   18.6229 C   0  0  0  0  0  0
  -27.6588  -13.2060   19.8676 C   0  0  2  0  0  0
  -28.7035  -13.0166   20.9908 C   0  0  0  0  0  0
  -25.2583  -13.8157   20.5658 C   0  0  0  0  0  0
  -24.1827  -13.0447   20.9161 C   0  0  0  0  0  0
  -24.6370  -11.6910   20.8721 C   0  0  0  0  0  0
  -23.9037  -10.4304   21.0405 C   0  0  0  0  0  0
  -24.3591   -9.4225   21.9186 C   0  0  0  0  0  0
  -23.6263   -8.2265   22.0769 C   0  0  0  0  0  0
  -22.4251   -8.0293   21.3557 C   0  0  0  0  0  0
  -21.9866   -9.0257   20.4662 C   0  0  0  0  0  0
  -22.7202  -10.2136   20.3064 C   0  0  0  0  0  0
  -21.6855   -6.0723   22.5272 C   0  0  0  0  0  0
  -21.4022   -6.5629   23.8207 C   0  0  0  0  0  0
  -21.3657   -5.6778   24.9170 C   0  0  0  0  0  0
  -21.6044   -4.3038   24.7213 C   0  0  0  0  0  0
  -21.8826   -3.8134   23.4334 C   0  0  0  0  0  0
  -21.9201   -4.6950   22.3398 C   0  0  0  0  0  0
  -22.7865  -13.5277   21.1822 C   0  0  0  0  0  0
  -22.1671   -4.2136   21.0975 F   0  0  0  0  0  0
  -21.5635   -3.4526   25.7729 F   0  0  0  0  0  0
  -30.0253  -13.3693   20.4392 N   0  0  0  0  0  0
  -26.3005  -12.9308   20.3319 N   0  0  0  0  0  0
  -25.9298  -11.6480   20.5748 N   0  0  0  0  0  0
  -22.0483  -12.8300   22.0381 N   0  0  0  0  0  0
  -25.4289  -15.1875   20.4080 N   0  0  0  0  0  0
  -31.7671  -14.8047   20.1122 O   0  0  0  0  0  0
  -21.6641   -6.8871   21.4239 O   0  0  0  0  0  0
  -22.3567  -14.5586   20.6666 O   0  0  0  0  0  0
  -24.6214  -31.8660   23.2064 C   0  0  0  0  0  0
  -25.9103  -32.4793   23.8375 C   0  0  1  0  0  0
  -27.2252  -27.3493   20.1015 C   0  0  0  0  0  0
  -25.5947  -33.8597   24.2317 N   0  0  0  0  0  0
  -23.4122  -30.4877   21.5507 C   0  0  2  0  0  0
  -24.8577  -28.9491   20.1125 C   0  0  0  0  0  0
  -22.7446  -29.4644   22.4967 C   0  0  0  0  0  0
  -18.0295  -28.1376   22.8468 C   0  0  0  0  0  0
  -24.1489  -36.7297   23.2631 C   0  0  0  0  0  0
  -25.9526  -30.8014   21.3750 C   0  0  0  0  0  0
  -26.0244  -29.4299   20.7184 C   0  0  0  0  0  0
  -27.2063  -28.6368   20.7120 C   0  0  0  0  0  0
  -26.0405  -26.9277   19.4513 C   0  0  0  0  0  0
  -24.8662  -27.7015   19.4725 C   0  0  0  0  0  0
  -23.6239  -29.8259   20.1636 C   0  0  0  0  0  0
  -25.4105  -36.3091   24.0328 C   0  0  1  0  0  0
  -20.5883  -28.3666   23.1278 C   0  0  2  0  0  0
  -20.6775  -26.9388   22.5389 C   0  0  0  0  0  0
  -19.5752  -26.6371   21.5196 C   0  0  0  0  0  0
  -18.1926  -26.7937   22.1583 C   0  0  0  0  0  0
  -19.1538  -28.8834   23.2889 C   0  0  0  0  0  0
  -18.9464  -30.1436   23.8893 C   0  0  0  0  0  0
  -17.6464  -30.6565   24.0575 C   0  0  0  0  0  0
  -25.9050  -34.9462   23.5117 C   0  0  0  0  0  0
  -16.5356  -29.9075   23.6324 C   0  0  0  0  0  0
  -16.7284  -28.6504   23.0330 C   0  0  0  0  0  0
  -26.4502  -31.6585   25.0719 C   0  0  0  0  0  0
  -25.3755  -31.3730   26.1455 C   0  0  0  0  0  0
  -27.0344  -30.3018   24.6149 C   0  0  0  0  0  0
  -27.6065  -32.4303   25.7498 C   0  0  0  0  0  0
  -27.5576  -37.1796   24.8462 C   0  0  0  0  0  0
  -21.4172  -29.3036   22.3692 N   0  0  0  0  0  0
  -26.4294  -37.3768   23.9406 N   0  0  0  0  0  0
  -24.6811  -31.0670   22.1024 N   0  0  0  0  0  0
  -23.4196  -28.8184   23.3013 O   0  0  0  0  0  0
  -28.3644  -26.5394   20.1594 O   0  0  0  0  0  0
  -26.5592  -34.8924   22.4671 O   0  0  0  0  0  0
  -23.5385  -32.1452   23.7415 O   0  0  0  0  0  0
  -29.2175  -17.7565   19.9621 C   0  0  0  0  0  0
  -30.4023  -17.7610   22.0727 C   0  0  0  0  0  0
  -28.9721  -19.1573   20.0870 C   0  0  0  0  0  0
  -30.1558  -19.1577   22.1977 C   0  0  0  0  0  0
  -29.9029  -17.0234   20.9718 C   0  0  0  0  0  0
  -29.3969  -19.8718   21.2341 C   0  0  0  0  0  0
  -29.1230  -24.1564   20.6908 C   0  0  0  0  0  0
  -28.2807  -25.1146   19.7849 C   0  0  0  0  0  0
  -29.8268  -15.5793   21.0305 N   0  0  0  0  0  0
  -29.0532  -22.7540   20.4393 N   0  0  0  0  0  0
  -29.7870  -24.6138   21.6273 O   0  0  0  0  0  0
  -29.4392  -21.9788   22.8997 O   0  0  0  0  0  0
  -27.2681  -21.4216   21.7341 O   0  0  0  0  0  0
  -28.7358  -21.5496   21.6799 S   0  0  0  0  0  0
  -31.4852  -12.5143   19.1319 H   0  0  0  0  0  0
  -30.3918  -11.3705   19.8496 H   0  0  0  0  0  0
  -29.7579  -11.7698   17.4531 H   0  0  0  0  0  0
  -29.6504  -13.4863   17.7416 H   0  0  0  0  0  0
  -27.8537  -11.3002   18.8330 H   0  0  0  0  0  0
  -27.3827  -12.6065   17.7829 H   0  0  0  0  0  0
  -27.6911  -14.2504   19.5552 H   0  0  0  0  0  0
  -28.7109  -11.9814   21.3341 H   0  0  0  0  0  0
  -28.4408  -13.6065   21.8696 H   0  0  0  0  0  0
  -25.2741   -9.5700   22.4753 H   0  0  0  0  0  0
  -23.9967   -7.4660   22.7487 H   0  0  0  0  0  0
  -21.0799   -8.8779   19.8965 H   0  0  0  0  0  0
  -22.3655  -10.9674   19.6173 H   0  0  0  0  0  0
  -21.2026   -7.6125   23.9702 H   0  0  0  0  0  0
  -21.1461   -6.0507   25.9064 H   0  0  0  0  0  0
  -22.0600   -2.7588   23.2841 H   0  0  0  0  0  0
  -22.4073  -11.9957   22.4776 H   0  0  0  0  0  0
  -21.1115  -13.1373   22.2600 H   0  0  0  0  0  0
  -24.6578  -15.8379   20.5135 H   0  0  0  0  0  0
  -26.2766  -15.6302   20.0788 H   0  0  0  0  0  0
  -26.7161  -32.5471   23.1110 H   0  0  0  0  0  0
  -25.0145  -33.9746   25.0489 H   0  0  0  0  0  0
  -22.7002  -31.3046   21.4122 H   0  0  0  0  0  0
  -23.3750  -35.9632   23.3310 H   0  0  0  0  0  0
  -24.3574  -36.8903   22.2047 H   0  0  0  0  0  0
  -23.7256  -37.6505   23.6646 H   0  0  0  0  0  0
  -26.0785  -31.5625   20.6020 H   0  0  0  0  0  0
  -26.8361  -30.8520   22.0011 H   0  0  0  0  0  0
  -28.1019  -28.9996   21.1981 H   0  0  0  0  0  0
  -25.9791  -25.9963   18.9144 H   0  0  0  0  0  0
  -23.9755  -27.3319   18.9819 H   0  0  0  0  0  0
  -23.7397  -30.6076   19.4107 H   0  0  0  0  0  0
  -22.7439  -29.2554   19.8627 H   0  0  0  0  0  0
  -25.1276  -36.1952   25.0814 H   0  0  0  0  0  0
  -20.9993  -28.3227   24.1389 H   0  0  0  0  0  0
  -20.5698  -26.2263   23.3576 H   0  0  0  0  0  0
  -21.6629  -26.7428   22.1148 H   0  0  0  0  0  0
  -19.6925  -25.6293   21.1228 H   0  0  0  0  0  0
  -19.6702  -27.3188   20.6735 H   0  0  0  0  0  0
  -17.4224  -26.6733   21.3947 H   0  0  0  0  0  0
  -18.0253  -26.0059   22.8955 H   0  0  0  0  0  0
  -19.7937  -30.7246   24.2268 H   0  0  0  0  0  0
  -17.5016  -31.6244   24.5184 H   0  0  0  0  0  0
  -15.5346  -30.2971   23.7635 H   0  0  0  0  0  0
  -15.8706  -28.0835   22.7013 H   0  0  0  0  0  0
  -24.5924  -30.7068   25.7806 H   0  0  0  0  0  0
  -24.8940  -32.2909   26.4857 H   0  0  0  0  0  0
  -25.8082  -30.8940   27.0256 H   0  0  0  0  0  0
  -26.2926  -29.6758   24.1178 H   0  0  0  0  0  0
  -27.4077  -29.7247   25.4624 H   0  0  0  0  0  0
  -27.8773  -30.4295   23.9349 H   0  0  0  0  0  0
  -27.2680  -33.3600   26.2085 H   0  0  0  0  0  0
  -28.3888  -32.6877   25.0346 H   0  0  0  0  0  0
  -28.0736  -31.8436   26.5420 H   0  0  0  0  0  0
  -28.2582  -38.0102   24.7478 H   0  0  0  0  0  0
  -28.1077  -36.2623   24.6314 H   0  0  0  0  0  0
  -27.2280  -37.1464   25.8862 H   0  0  0  0  0  0
  -20.9351  -29.8803   21.6942 H   0  0  0  0  0  0
  -26.0188  -38.2842   24.1416 H   0  0  0  0  0  0
  -28.7939  -17.2318   19.1170 H   0  0  0  0  0  0
  -30.8960  -17.2452   22.8849 H   0  0  0  0  0  0
  -28.3702  -19.6649   19.3501 H   0  0  0  0  0  0
  -30.4640  -19.6614   23.1040 H   0  0  0  0  0  0
  -27.2725  -24.7124   19.8549 H   0  0  0  0  0  0
  -28.6057  -25.0071   18.7494 H   0  0  0  0  0  0
  -28.9385  -15.2182   21.3435 H   0  0  0  0  0  0
  -28.5716  -22.4632   19.5885 H   0  0  0  0  0  0
  1 25  1  0  0  0
  1 30  2  0  0  0
  1 79  1  0  0  0
  2  3  1  0  0  0
  2 25  1  0  0  0
  2 85  1  0  0  0
  2 86  1  0  0  0
  3  4  1  0  0  0
  3 87  1  0  0  0
  3 88  1  0  0  0
  4  5  1  0  0  0
  4 89  1  0  0  0
  4 90  1  0  0  0
  5  6  1  0  0  0
  5 26  1  0  0  0
  5 91  1  0  0  0
  6 25  1  0  0  0
  6 92  1  0  0  0
  6 93  1  0  0  0
  7  8  2  0  0  0
  7 26  1  0  0  0
  7 29  1  0  0  0
  8  9  1  0  0  0
  8 22  1  0  0  0
  9 10  1  0  0  0
  9 27  2  0  0  0
 10 11  2  0  0  0
 10 15  1  0  0  0
 11 12  1  0  0  0
 11 94  1  0  0  0
 12 13  2  0  0  0
 12 95  1  0  0  0
 13 14  1  0  0  0
 13 31  1  0  0  0
 14 15  2  0  0  0
 14 96  1  0  0  0
 15 97  1  0  0  0
 16 17  2  0  0  0
 16 21  1  0  0  0
 16 31  1  0  0  0
 17 18  1  0  0  0
 17 98  1  0  0  0
 18 19  2  0  0  0
 18 99  1  0  0  0
 19 20  1  0  0  0
 19 24  1  0  0  0
 20 21  2  0  0  0
 20100  1  0  0  0
 21 23  1  0  0  0
 22 28  1  0  0  0
 22 32  2  0  0  0
 26 27  1  0  0  0
 28101  1  0  0  0
 28102  1  0  0  0
 29103  1  0  0  0
 29104  1  0  0  0
 33 34  1  0  0  0
 33 66  1  0  0  0
 33 70  2  0  0  0
 34 36  1  0  0  0
 34 59  1  0  0  0
 34105  1  0  0  0
 35 44  2  0  0  0
 35 45  1  0  0  0
 35 68  1  0  0  0
 36 56  1  0  0  0
 36106  1  0  0  0
 37 39  1  0  0  0
 37 47  1  0  0  0
 37 66  1  0  0  0
 37107  1  0  0  0
 38 43  2  0  0  0
 38 46  1  0  0  0
 38 47  1  0  0  0
 39 64  1  0  0  0
 39 67  2  0  0  0
 40 52  1  0  0  0
 40 53  2  0  0  0
 40 58  1  0  0  0
 41108  1  0  0  0
 41109  1  0  0  0
 41110  1  0  0  0
 41 48  1  0  0  0
 42 43  1  0  0  0
 42 66  1  0  0  0
 42111  1  0  0  0
 42112  1  0  0  0
 43 44  1  0  0  0
 44113  1  0  0  0
 45 46  2  0  0  0
 45114  1  0  0  0
 46115  1  0  0  0
 47116  1  0  0  0
 47117  1  0  0  0
 48 56  1  0  0  0
 48 65  1  0  0  0
 48118  1  0  0  0
 49 50  1  0  0  0
 49 53  1  0  0  0
 49 64  1  0  0  0
 49119  1  0  0  0
 50 51  1  0  0  0
 50120  1  0  0  0
 50121  1  0  0  0
 51 52  1  0  0  0
 51122  1  0  0  0
 51123  1  0  0  0
 52124  1  0  0  0
 52125  1  0  0  0
 53 54  1  0  0  0
 54 55  2  0  0  0
 54126  1  0  0  0
 55 57  1  0  0  0
 55127  1  0  0  0
 56 69  2  0  0  0
 57 58  2  0  0  0
 57128  1  0  0  0
 58129  1  0  0  0
 59 60  1  0  0  0
 59 61  1  0  0  0
 59 62  1  0  0  0
 60130  1  0  0  0
 60131  1  0  0  0
 60132  1  0  0  0
 61133  1  0  0  0
 61134  1  0  0  0
 61135  1  0  0  0
 62136  1  0  0  0
 62137  1  0  0  0
 62138  1  0  0  0
 63 65  1  0  0  0
 63139  1  0  0  0
 63140  1  0  0  0
 63141  1  0  0  0
 64142  1  0  0  0
 65143  1  0  0  0
 68 78  1  0  0  0
 71 73  2  0  0  0
 71 75  1  0  0  0
 71144  1  0  0  0
 72 74  1  0  0  0
 72 75  2  0  0  0
 72145  1  0  0  0
 73 76  1  0  0  0
 73146  1  0  0  0
 74 76  2  0  0  0
 74147  1  0  0  0
 75 79  1  0  0  0
 76 84  1  0  0  0
 77 78  1  0  0  0
 77 80  1  0  0  0
 77 81  2  0  0  0
 78148  1  0  0  0
 78149  1  0  0  0
 79150  1  0  0  0
 80151  1  0  0  0
 80 84  1  0  0  0
 82 84  2  0  0  0
 83 84  2  0  0  0
M  ISO  4   1 100  68 101  78 101  79 100
M  END
> <chiral flag>
0

> <version>
0

> <s_m_source_file>
/data/baiqing/PycharmProjects/Reinvent-master-3.2/result/LINK_invent/BTK/process_docking_weight1_custom_product_contain_oxygen_bond_distance_aromatic_linkinvent_7_9_3/rearranged_h_0068.sdf

> <i_m_source_file_index>
32

> <r_mmod_Potential_Energy-OPLS-2005>
-108.573295593262

> <r_mmod_Stretch_Energy-OPLS-2005>
62.5946311950684

> <r_mmod_Bend_Energy-OPLS-2005>
131.083267211914

> <r_mmod_Torsional_Energy-OPLS-2005>
284.260559082031

> <r_mmod_Improper_Torsional_Energy-OPLS-2005>
10.8862018585205

> <r_mmod_Van_der_Waal_Energy-OPLS-2005>
140.139663696289

> <r_mmod_Electrostatic_Energy-OPLS-2005>
-478.614807128906

> <r_mmod_Solvation_Energy-OPLS-2005>
-294.174987792969

> <b_mmod_Minimization_Converged-OPLS-2005>
0

> <r_mmod_RMS_Derivative-OPLS-2005>
3.87706613540649

$$$$
32
                    3D
 Structure written by MMmdl.
171180  0  0  1  0            999 V2000
  -30.5610  -15.1220   20.3711 C   0  0  0  0  0  0
  -30.4284  -12.7042   19.5331 C   0  0  0  0  0  0
  -29.5314  -12.5599   18.2804 C   0  0  0  0  0  0
  -28.0678  -12.3251   18.6931 C   0  0  0  0  0  0
  -27.6167  -13.2835   19.8253 C   0  0  2  0  0  0
  -28.6527  -13.4215   20.9589 C   0  0  0  0  0  0
  -25.2415  -13.8292   20.5759 C   0  0  0  0  0  0
  -24.1770  -13.0469   20.9263 C   0  0  0  0  0  0
  -24.6433  -11.6965   20.8762 C   0  0  0  0  0  0
  -23.9131  -10.4312   21.0411 C   0  0  0  0  0  0
  -24.3660   -9.4211   21.9184 C   0  0  0  0  0  0
  -23.6327   -8.2249   22.0750 C   0  0  0  0  0  0
  -22.4302   -8.0299   21.3551 C   0  0  0  0  0  0
  -21.9956   -9.0276   20.4650 C   0  0  0  0  0  0
  -22.7302  -10.2150   20.3064 C   0  0  0  0  0  0
  -21.6861   -6.0756   22.5283 C   0  0  0  0  0  0
  -21.4020   -6.5654   23.8218 C   0  0  0  0  0  0
  -21.3653   -5.6800   24.9172 C   0  0  0  0  0  0
  -21.6042   -4.3064   24.7220 C   0  0  0  0  0  0
  -21.8812   -3.8163   23.4337 C   0  0  0  0  0  0
  -21.9196   -4.6984   22.3397 C   0  0  0  0  0  0
  -22.7782  -13.5209   21.1908 C   0  0  0  0  0  0
  -22.1666   -4.2168   21.0974 F   0  0  0  0  0  0
  -21.5622   -3.4544   25.7731 F   0  0  0  0  0  0
  -29.9175  -13.8621   20.3509 N   0  0  0  0  0  0
  -26.2852  -12.9589   20.3233 N   0  0  0  0  0  0
  -25.9376  -11.6681   20.5725 N   0  0  0  0  0  0
  -22.0441  -12.8161   22.0452 N   0  0  0  0  0  0
  -25.4061  -15.2023   20.4182 N   0  0  0  0  0  0
  -31.7744  -15.0357   20.1482 O   0  0  0  0  0  0
  -21.6651   -6.8902   21.4248 O   0  0  0  0  0  0
  -22.3448  -14.5508   20.6754 O   0  0  0  0  0  0
  -24.6585  -31.8346   23.1862 C   0  0  0  0  0  0
  -25.9314  -32.4651   23.8263 C   0  0  1  0  0  0
  -27.1936  -26.9760   20.1557 C   0  0  0  0  0  0
  -25.6055  -33.8465   24.2189 N   0  0  0  0  0  0
  -23.4663  -30.4539   21.5338 C   0  0  2  0  0  0
  -24.9155  -28.8735   20.1129 C   0  0  0  0  0  0
  -22.7653  -29.4476   22.4814 C   0  0  0  0  0  0
  -18.0313  -28.1418   22.8470 C   0  0  0  0  0  0
  -24.1475  -36.7188   23.2629 C   0  0  0  0  0  0
  -26.0362  -30.6503   21.4179 C   0  0  0  0  0  0
  -26.0971  -29.2497   20.7616 C   0  0  0  0  0  0
  -27.2243  -28.3144   20.7786 C   0  0  0  0  0  0
  -26.0146  -26.8139   19.3915 C   0  0  0  0  0  0
  -24.8975  -27.6713   19.4098 C   0  0  0  0  0  0
  -23.7032  -29.7933   20.1530 C   0  0  0  0  0  0
  -25.4118  -36.3007   24.0308 C   0  0  1  0  0  0
  -20.5938  -28.3747   23.1217 C   0  0  2  0  0  0
  -20.6797  -26.9436   22.5418 C   0  0  0  0  0  0
  -19.5768  -26.6393   21.5226 C   0  0  0  0  0  0
  -18.1953  -26.7951   22.1627 C   0  0  0  0  0  0
  -19.1578  -28.8901   23.2826 C   0  0  0  0  0  0
  -18.9487  -30.1493   23.8849 C   0  0  0  0  0  0
  -17.6485  -30.6610   24.0559 C   0  0  0  0  0  0
  -25.9099  -34.9392   23.5052 C   0  0  0  0  0  0
  -16.5364  -29.9100   23.6354 C   0  0  0  0  0  0
  -16.7304  -28.6523   23.0366 C   0  0  0  0  0  0
  -26.4599  -31.6537   25.0745 C   0  0  0  0  0  0
  -25.3736  -31.3773   26.1398 C   0  0  0  0  0  0
  -27.0466  -30.2889   24.6456 C   0  0  0  0  0  0
  -27.6107  -32.4307   25.7561 C   0  0  0  0  0  0
  -27.5563  -37.1763   24.8474 C   0  0  0  0  0  0
  -21.4320  -29.3037   22.3579 N   0  0  0  0  0  0
  -26.4274  -37.3737   23.9434 N   0  0  0  0  0  0
  -24.7407  -31.0070   22.0974 N   0  0  0  0  0  0
  -23.4244  -28.7995   23.2984 O   0  0  0  0  0  0
  -28.1847  -25.8708   20.2842 O   0  0  0  0  0  0
  -26.5645  -34.8897   22.4601 O   0  0  0  0  0  0
  -23.5674  -32.1274   23.7014 O   0  0  0  0  0  0
  -30.7133  -17.7999   19.7844 C   0  0  0  0  0  0
  -30.3336  -19.2278   19.7622 C   0  0  0  0  0  0
  -28.8258  -17.2610   21.0136 C   0  0  0  0  0  0
  -29.9899  -16.6830   20.3817 C   0  0  0  0  0  0
  -29.1488  -19.8026   20.3582 C   0  0  0  0  0  0
  -28.4434  -18.6954   21.0188 C   0  0  0  0  0  0
  -27.3198  -21.2791   19.4621 C   0  0  0  0  0  0
  -27.2255  -19.6451   22.8904 C   0  0  0  0  0  0
  -28.8820  -22.8167   20.6011 C   0  0  0  0  0  0
  -26.2833  -22.3364   19.7805 C   0  0  2  0  0  0
  -26.7415  -23.7626   19.3993 C   0  0  1  0  0  0
  -28.1204  -24.2552   19.9288 C   0  0  1  0  0  0
  -25.9273  -19.5775   23.6860 C   0  0  0  0  0  0
  -25.7719  -22.1951   21.2209 C   0  0  0  0  0  0
  -26.6771  -23.8641   17.8567 C   0  0  0  0  0  0
  -27.7480  -19.4132   17.7431 C   0  0  0  0  0  0
  -28.5349  -21.3015   20.0794 N   0  0  0  0  0  0
  -27.2581  -18.9644   21.7380 N   0  0  0  0  0  0
  -26.9519  -20.4005   18.4926 N   0  3  0  0  0  0
  -28.1650  -20.3323   23.2968 O   0  0  0  0  0  0
  -31.4645  -12.8391   19.2179 H   0  0  0  0  0  0
  -30.4261  -11.7837   20.1197 H   0  0  0  0  0  0
  -29.8797  -11.7393   17.6510 H   0  0  0  0  0  0
  -29.6046  -13.4647   17.6752 H   0  0  0  0  0  0
  -27.9829  -11.2915   19.0297 H   0  0  0  0  0  0
  -27.4076  -12.4196   17.8300 H   0  0  0  0  0  0
  -27.5475  -14.2640   19.3540 H   0  0  0  0  0  0
  -28.7747  -12.4796   21.4960 H   0  0  0  0  0  0
  -28.3216  -14.1560   21.6944 H   0  0  0  0  0  0
  -25.2805   -9.5676   22.4768 H   0  0  0  0  0  0
  -24.0035   -7.4633   22.7465 H   0  0  0  0  0  0
  -21.0892   -8.8810   19.8954 H   0  0  0  0  0  0
  -22.3776  -10.9686   19.6173 H   0  0  0  0  0  0
  -21.2023   -7.6165   23.9725 H   0  0  0  0  0  0
  -21.1476   -6.0531   25.9075 H   0  0  0  0  0  0
  -22.0598   -2.7630   23.2829 H   0  0  0  0  0  0
  -22.4094  -11.9820   22.4801 H   0  0  0  0  0  0
  -21.1056  -13.1145   22.2671 H   0  0  0  0  0  0
  -24.6234  -15.8433   20.4892 H   0  0  0  0  0  0
  -26.2355  -15.6257   20.0249 H   0  0  0  0  0  0
  -26.7368  -32.5224   23.0960 H   0  0  0  0  0  0
  -25.0333  -33.9578   25.0440 H   0  0  0  0  0  0
  -22.7745  -31.2847   21.3787 H   0  0  0  0  0  0
  -23.3781  -35.9479   23.3283 H   0  0  0  0  0  0
  -24.3531  -36.8822   22.2044 H   0  0  0  0  0  0
  -23.7177  -37.6364   23.6648 H   0  0  0  0  0  0
  -26.2156  -31.3928   20.6380 H   0  0  0  0  0  0
  -26.8963  -30.7017   22.0722 H   0  0  0  0  0  0
  -28.1052  -28.5893   21.3404 H   0  0  0  0  0  0
  -25.8736  -25.9905   18.7327 H   0  0  0  0  0  0
  -24.0200  -27.3991   18.8401 H   0  0  0  0  0  0
  -23.8612  -30.5718   19.4048 H   0  0  0  0  0  0
  -22.8112  -29.2541   19.8272 H   0  0  0  0  0  0
  -25.1301  -36.1818   25.0798 H   0  0  0  0  0  0
  -21.0010  -28.3330   24.1345 H   0  0  0  0  0  0
  -20.5701  -26.2353   23.3647 H   0  0  0  0  0  0
  -21.6661  -26.7462   22.1205 H   0  0  0  0  0  0
  -19.6926  -25.6308   21.1264 H   0  0  0  0  0  0
  -19.6697  -27.3190   20.6742 H   0  0  0  0  0  0
  -17.4235  -26.6712   21.4016 H   0  0  0  0  0  0
  -18.0318  -26.0095   22.9021 H   0  0  0  0  0  0
  -19.7966  -30.7326   24.2176 H   0  0  0  0  0  0
  -17.5044  -31.6276   24.5196 H   0  0  0  0  0  0
  -15.5366  -30.2990   23.7714 H   0  0  0  0  0  0
  -15.8700  -28.0841   22.7096 H   0  0  0  0  0  0
  -24.5997  -30.7021   25.7720 H   0  0  0  0  0  0
  -24.8845  -32.2965   26.4632 H   0  0  0  0  0  0
  -25.7997  -30.9121   27.0292 H   0  0  0  0  0  0
  -26.3126  -29.6562   24.1457 H   0  0  0  0  0  0
  -27.3940  -29.7253   25.5125 H   0  0  0  0  0  0
  -27.9105  -30.4011   23.9898 H   0  0  0  0  0  0
  -27.2705  -33.3658   26.2005 H   0  0  0  0  0  0
  -28.4024  -32.6749   25.0467 H   0  0  0  0  0  0
  -28.0629  -31.8507   26.5615 H   0  0  0  0  0  0
  -28.2588  -38.0064   24.7552 H   0  0  0  0  0  0
  -28.1066  -36.2592   24.6277 H   0  0  0  0  0  0
  -27.2283  -37.1384   25.8884 H   0  0  0  0  0  0
  -20.9551  -29.8751   21.6739 H   0  0  0  0  0  0
  -26.0125  -38.2796   24.1484 H   0  0  0  0  0  0
  -31.6354  -17.5496   19.2798 H   0  0  0  0  0  0
  -30.9734  -19.8984   19.2076 H   0  0  0  0  0  0
  -28.1855  -16.5748   21.5507 H   0  0  0  0  0  0
  -28.6978  -22.8128   21.6743 H   0  0  0  0  0  0
  -29.9635  -22.9353   20.5170 H   0  0  0  0  0  0
  -25.3988  -22.1308   19.1743 H   0  0  0  0  0  0
  -25.9718  -24.3612   19.8717 H   0  0  0  0  0  0
  -28.7482  -24.3277   19.0405 H   0  0  0  0  0  0
  -25.0585  -19.6604   23.0333 H   0  0  0  0  0  0
  -25.8779  -20.3852   24.4177 H   0  0  0  0  0  0
  -25.8547  -18.6297   24.2202 H   0  0  0  0  0  0
  -26.5495  -22.3378   21.9678 H   0  0  0  0  0  0
  -25.3382  -21.2055   21.3541 H   0  0  0  0  0  0
  -24.9830  -22.9171   21.4335 H   0  0  0  0  0  0
  -27.2245  -23.0475   17.3853 H   0  0  0  0  0  0
  -27.1128  -24.7888   17.4780 H   0  0  0  0  0  0
  -25.6458  -23.8178   17.5061 H   0  0  0  0  0  0
  -27.2843  -19.2234   16.7746 H   0  0  0  0  0  0
  -27.8109  -18.4637   18.2734 H   0  0  0  0  0  0
  -28.7535  -19.7872   17.5499 H   0  0  0  0  0  0
  -26.4564  -18.3795   21.5397 H   0  0  0  0  0  0
  -26.0078  -20.4976   18.1407 H   0  0  0  0  0  0
  1 25  1  0  0  0
  1 30  2  0  0  0
  1 74  1  0  0  0
  2  3  1  0  0  0
  2 25  1  0  0  0
  2 91  1  0  0  0
  2 92  1  0  0  0
  3  4  1  0  0  0
  3 93  1  0  0  0
  3 94  1  0  0  0
  4  5  1  0  0  0
  4 95  1  0  0  0
  4 96  1  0  0  0
  5  6  1  0  0  0
  5 26  1  0  0  0
  5 97  1  0  0  0
  6 25  1  0  0  0
  6 98  1  0  0  0
  6 99  1  0  0  0
  7  8  2  0  0  0
  7 26  1  0  0  0
  7 29  1  0  0  0
  8  9  1  0  0  0
  8 22  1  0  0  0
  9 10  1  0  0  0
  9 27  2  0  0  0
 10 11  2  0  0  0
 10 15  1  0  0  0
 11 12  1  0  0  0
 11100  1  0  0  0
 12 13  2  0  0  0
 12101  1  0  0  0
 13 14  1  0  0  0
 13 31  1  0  0  0
 14 15  2  0  0  0
 14102  1  0  0  0
 15103  1  0  0  0
 16 17  2  0  0  0
 16 21  1  0  0  0
 16 31  1  0  0  0
 17 18  1  0  0  0
 17104  1  0  0  0
 18 19  2  0  0  0
 18105  1  0  0  0
 19 20  1  0  0  0
 19 24  1  0  0  0
 20 21  2  0  0  0
 20106  1  0  0  0
 21 23  1  0  0  0
 22 28  1  0  0  0
 22 32  2  0  0  0
 26 27  1  0  0  0
 28107  1  0  0  0
 28108  1  0  0  0
 29109  1  0  0  0
 29110  1  0  0  0
 33 34  1  0  0  0
 33 66  1  0  0  0
 33 70  2  0  0  0
 34 36  1  0  0  0
 34 59  1  0  0  0
 34111  1  0  0  0
 35 44  2  0  0  0
 35 45  1  0  0  0
 35 68  1  0  0  0
 36 56  1  0  0  0
 36112  1  0  0  0
 37 39  1  0  0  0
 37 47  1  0  0  0
 37 66  1  0  0  0
 37113  1  0  0  0
 38 43  2  0  0  0
 38 46  1  0  0  0
 38 47  1  0  0  0
 39 64  1  0  0  0
 39 67  2  0  0  0
 40 52  1  0  0  0
 40 53  2  0  0  0
 40 58  1  0  0  0
 41114  1  0  0  0
 41115  1  0  0  0
 41116  1  0  0  0
 41 48  1  0  0  0
 42 43  1  0  0  0
 42 66  1  0  0  0
 42117  1  0  0  0
 42118  1  0  0  0
 43 44  1  0  0  0
 44119  1  0  0  0
 45 46  2  0  0  0
 45120  1  0  0  0
 46121  1  0  0  0
 47122  1  0  0  0
 47123  1  0  0  0
 48 56  1  0  0  0
 48 65  1  0  0  0
 48124  1  0  0  0
 49 50  1  0  0  0
 49 53  1  0  0  0
 49 64  1  0  0  0
 49125  1  0  0  0
 50 51  1  0  0  0
 50126  1  0  0  0
 50127  1  0  0  0
 51 52  1  0  0  0
 51128  1  0  0  0
 51129  1  0  0  0
 52130  1  0  0  0
 52131  1  0  0  0
 53 54  1  0  0  0
 54 55  2  0  0  0
 54132  1  0  0  0
 55 57  1  0  0  0
 55133  1  0  0  0
 56 69  2  0  0  0
 57 58  2  0  0  0
 57134  1  0  0  0
 58135  1  0  0  0
 59 60  1  0  0  0
 59 61  1  0  0  0
 59 62  1  0  0  0
 60136  1  0  0  0
 60137  1  0  0  0
 60138  1  0  0  0
 61139  1  0  0  0
 61140  1  0  0  0
 61141  1  0  0  0
 62142  1  0  0  0
 62143  1  0  0  0
 62144  1  0  0  0
 63 65  1  0  0  0
 63145  1  0  0  0
 63146  1  0  0  0
 63147  1  0  0  0
 64148  1  0  0  0
 65149  1  0  0  0
 68 82  1  0  0  0
 71 72  2  0  0  0
 71 74  1  0  0  0
 71150  1  0  0  0
 72 75  1  0  0  0
 72151  1  0  0  0
 73 74  2  0  0  0
 73 76  1  0  0  0
 73152  1  0  0  0
 75 76  2  0  0  0
 75 87  1  0  0  0
 76 88  1  0  0  0
 77 80  1  0  0  0
 77 87  1  0  0  0
 77 89  2  0  0  0
 78 83  1  0  0  0
 78 88  1  0  0  0
 78 90  2  0  0  0
 79 82  1  0  0  0
 79 87  1  0  0  0
 79153  1  0  0  0
 79154  1  0  0  0
 80 81  1  0  0  0
 80 84  1  0  0  0
 80155  1  0  0  0
 81 82  1  0  0  0
 81 85  1  0  0  0
 81156  1  0  0  0
 82157  1  0  0  0
 83158  1  0  0  0
 83159  1  0  0  0
 83160  1  0  0  0
 84161  1  0  0  0
 84162  1  0  0  0
 84163  1  0  0  0
 85164  1  0  0  0
 85165  1  0  0  0
 85166  1  0  0  0
 86 89  1  0  0  0
 86167  1  0  0  0
 86168  1  0  0  0
 86169  1  0  0  0
 88170  1  0  0  0
 89171  1  0  0  0
M  CHG  1  89   1
M  ISO  4   1 100  68 101  74 100  82 101
M  END
> <chiral flag>
0

> <version>
0

> <s_m_source_file>
/data/baiqing/PycharmProjects/Reinvent-master-3.2/result/LINK_invent/BTK/process_docking_weight1_custom_product_contain_oxygen_bond_distance_aromatic_linkinvent_7_9_3/rearranged_h_0068.sdf

> <i_m_source_file_index>
33

> <r_mmod_Potential_Energy-OPLS-2005>
1119.49926757812

> <r_mmod_Stretch_Energy-OPLS-2005>
454.246917724609

> <r_mmod_Bend_Energy-OPLS-2005>
451.776550292969

> <r_mmod_Torsional_Energy-OPLS-2005>
316.51708984375

> <r_mmod_Improper_Torsional_Energy-OPLS-2005>
9.74859619140625

> <r_mmod_Van_der_Waal_Energy-OPLS-2005>
150.792053222656

> <r_mmod_Electrostatic_Energy-OPLS-2005>
-209.331878662109

> <r_mmod_Solvation_Energy-OPLS-2005>
-403.426208496094

> <b_mmod_Minimization_Converged-OPLS-2005>
0

> <r_mmod_RMS_Derivative-OPLS-2005>
3.02386522293091

$$$$
33
                    3D
 Structure written by MMmdl.
154162  0  0  1  0            999 V2000
  -30.5884  -14.7529   20.5314 C   0  0  0  0  0  0
  -30.4501  -12.4725   19.4804 C   0  0  0  0  0  0
  -29.5207  -12.5373   18.2461 C   0  0  0  0  0  0
  -28.0474  -12.3469   18.6537 C   0  0  0  0  0  0
  -27.6545  -13.2264   19.8693 C   0  0  2  0  0  0
  -28.6967  -13.1126   21.0068 C   0  0  0  0  0  0
  -25.2486  -13.8098   20.5540 C   0  0  0  0  0  0
  -24.1800  -13.0383   20.9169 C   0  0  0  0  0  0
  -24.6417  -11.6873   20.8757 C   0  0  0  0  0  0
  -23.9084  -10.4264   21.0428 C   0  0  0  0  0  0
  -24.3627   -9.4177   21.9205 C   0  0  0  0  0  0
  -23.6290   -8.2224   22.0770 C   0  0  0  0  0  0
  -22.4276   -8.0274   21.3556 C   0  0  0  0  0  0
  -21.9915   -9.0250   20.4662 C   0  0  0  0  0  0
  -22.7257  -10.2119   20.3074 C   0  0  0  0  0  0
  -21.6845   -6.0730   22.5283 C   0  0  0  0  0  0
  -21.4005   -6.5633   23.8215 C   0  0  0  0  0  0
  -21.3659   -5.6789   24.9179 C   0  0  0  0  0  0
  -21.6048   -4.3054   24.7230 C   0  0  0  0  0  0
  -21.8816   -3.8141   23.4351 C   0  0  0  0  0  0
  -21.9188   -4.6956   22.3405 C   0  0  0  0  0  0
  -22.7832  -13.5195   21.1837 C   0  0  0  0  0  0
  -22.1658   -4.2142   21.0983 F   0  0  0  0  0  0
  -21.5633   -3.4537   25.7744 F   0  0  0  0  0  0
  -30.0095  -13.4987   20.4590 N   0  0  0  0  0  0
  -26.2994  -12.9351   20.3323 N   0  0  0  0  0  0
  -25.9367  -11.6500   20.5803 N   0  0  0  0  0  0
  -22.0469  -12.8217   22.0410 N   0  0  0  0  0  0
  -25.4019  -15.1760   20.3660 N   0  0  0  0  0  0
  -31.6834  -14.9583   19.9996 O   0  0  0  0  0  0
  -21.6636   -6.8875   21.4247 O   0  0  0  0  0  0
  -22.3528  -14.5519   20.6700 O   0  0  0  0  0  0
  -24.6329  -31.8542   23.1971 C   0  0  0  0  0  0
  -25.9143  -32.4753   23.8326 C   0  0  1  0  0  0
  -27.2287  -27.2508   20.1266 C   0  0  0  0  0  0
  -25.5929  -33.8555   24.2252 N   0  0  0  0  0  0
  -23.4309  -30.4758   21.5413 C   0  0  2  0  0  0
  -24.8800  -28.9218   20.1108 C   0  0  0  0  0  0
  -22.7513  -29.4593   22.4910 C   0  0  0  0  0  0
  -18.0290  -28.1382   22.8480 C   0  0  0  0  0  0
  -24.1488  -36.7282   23.2641 C   0  0  0  0  0  0
  -25.9784  -30.7632   21.3791 C   0  0  0  0  0  0
  -26.0529  -29.3851   20.7203 C   0  0  0  0  0  0
  -27.2287  -28.5634   20.7160 C   0  0  0  0  0  0
  -26.0291  -26.8633   19.4844 C   0  0  0  0  0  0
  -24.8744  -27.6691   19.4818 C   0  0  0  0  0  0
  -23.6508  -29.8094   20.1582 C   0  0  0  0  0  0
  -25.4114  -36.3071   24.0330 C   0  0  1  0  0  0
  -20.5895  -28.3696   23.1260 C   0  0  2  0  0  0
  -20.6775  -26.9409   22.5406 C   0  0  0  0  0  0
  -19.5751  -26.6375   21.5207 C   0  0  0  0  0  0
  -18.1932  -26.7922   22.1622 C   0  0  0  0  0  0
  -19.1546  -28.8855   23.2865 C   0  0  0  0  0  0
  -18.9470  -30.1453   23.8889 C   0  0  0  0  0  0
  -17.6470  -30.6584   24.0557 C   0  0  0  0  0  0
  -25.9056  -34.9442   23.5096 C   0  0  0  0  0  0
  -16.5360  -29.9082   23.6328 C   0  0  0  0  0  0
  -16.7278  -28.6498   23.0354 C   0  0  0  0  0  0
  -26.4501  -31.6582   25.0723 C   0  0  0  0  0  0
  -25.3720  -31.3733   26.1443 C   0  0  0  0  0  0
  -27.0348  -30.2997   24.6215 C   0  0  0  0  0  0
  -27.6054  -32.4324   25.7496 C   0  0  0  0  0  0
  -27.5576  -37.1798   24.8466 C   0  0  0  0  0  0
  -21.4217  -29.3045   22.3654 N   0  0  0  0  0  0
  -26.4288  -37.3772   23.9409 N   0  0  0  0  0  0
  -24.6999  -31.0493   22.0954 N   0  0  0  0  0  0
  -23.4204  -28.8133   23.3017 O   0  0  0  0  0  0
  -28.3213  -26.3435   20.1913 O   0  0  0  0  0  0
  -26.5635  -34.8919   22.4670 O   0  0  0  0  0  0
  -23.5474  -32.1369   23.7255 O   0  0  0  0  0  0
  -27.6208  -19.3890   21.1238 C   0  0  0  0  0  0
  -27.9276  -16.9879   21.4195 C   0  0  0  0  0  0
  -27.1105  -18.1297   21.4696 C   0  0  0  0  0  0
  -28.9641  -19.5826   20.7267 C   0  0  0  0  0  0
  -29.2831  -17.0367   21.0330 C   0  0  0  0  0  0
  -29.8033  -18.3695   20.6976 C   0  0  0  0  0  0
  -28.6241  -22.1339   20.1952 C   0  0  0  0  0  0
  -25.6732  -18.0254   21.9437 C   0  0  0  0  0  0
  -29.1085  -23.6604   20.3673 C   0  0  0  0  0  0
  -28.0642  -24.8635   20.0048 C   0  0  0  0  0  0
  -29.3936  -21.0046   20.5074 N   0  0  0  0  0  0
  -29.9362  -15.7164   21.2765 N   0  0  0  0  0  0
  -27.5026  -21.9906   19.7037 O   0  0  0  0  0  0
  -31.1183  -18.4986   20.4002 F   0  0  0  0  0  0
  -31.4886  -12.6167   19.1781 H   0  0  0  0  0  0
  -30.4128  -11.4811   19.9342 H   0  0  0  0  0  0
  -29.8085  -11.7789   17.5168 H   0  0  0  0  0  0
  -29.6409  -13.5007   17.7480 H   0  0  0  0  0  0
  -27.9053  -11.2936   18.8992 H   0  0  0  0  0  0
  -27.3907  -12.5536   17.8081 H   0  0  0  0  0  0
  -27.6619  -14.2583   19.5167 H   0  0  0  0  0  0
  -28.7356  -12.0916   21.3892 H   0  0  0  0  0  0
  -28.4055  -13.7299   21.8567 H   0  0  0  0  0  0
  -25.2777   -9.5635   22.4778 H   0  0  0  0  0  0
  -23.9981   -7.4608   22.7492 H   0  0  0  0  0  0
  -21.0842   -8.8785   19.8967 H   0  0  0  0  0  0
  -22.3740  -10.9660   19.6178 H   0  0  0  0  0  0
  -21.1993   -7.6143   23.9715 H   0  0  0  0  0  0
  -21.1488   -6.0525   25.9083 H   0  0  0  0  0  0
  -22.0596   -2.7601   23.2860 H   0  0  0  0  0  0
  -22.4069  -11.9872   22.4801 H   0  0  0  0  0  0
  -21.1103  -13.1275   22.2626 H   0  0  0  0  0  0
  -24.6163  -15.8112   20.4420 H   0  0  0  0  0  0
  -26.2354  -15.6170   20.0003 H   0  0  0  0  0  0
  -26.7211  -32.5399   23.1067 H   0  0  0  0  0  0
  -25.0054  -33.9687   25.0382 H   0  0  0  0  0  0
  -22.7279  -31.2982   21.3937 H   0  0  0  0  0  0
  -23.3754  -35.9611   23.3302 H   0  0  0  0  0  0
  -24.3576  -36.8906   22.2056 H   0  0  0  0  0  0
  -23.7239  -37.6482   23.6666 H   0  0  0  0  0  0
  -26.1190  -31.5231   20.6091 H   0  0  0  0  0  0
  -26.8552  -30.8126   22.0131 H   0  0  0  0  0  0
  -28.1244  -28.9145   21.2090 H   0  0  0  0  0  0
  -25.9479  -25.9088   18.9872 H   0  0  0  0  0  0
  -23.9778  -27.3090   18.9961 H   0  0  0  0  0  0
  -23.7767  -30.5855   19.4026 H   0  0  0  0  0  0
  -22.7687  -29.2442   19.8522 H   0  0  0  0  0  0
  -25.1295  -36.1920   25.0824 H   0  0  0  0  0  0
  -20.9983  -28.3274   24.1382 H   0  0  0  0  0  0
  -20.5655  -26.2310   23.3617 H   0  0  0  0  0  0
  -21.6647  -26.7415   22.1215 H   0  0  0  0  0  0
  -19.6912  -25.6283   21.1243 H   0  0  0  0  0  0
  -19.6684  -27.3177   20.6731 H   0  0  0  0  0  0
  -17.4197  -26.6658   21.4032 H   0  0  0  0  0  0
  -18.0338  -26.0067   22.9023 H   0  0  0  0  0  0
  -19.7948  -30.7263   24.2262 H   0  0  0  0  0  0
  -17.5027  -31.6266   24.5155 H   0  0  0  0  0  0
  -15.5361  -30.2984   23.7655 H   0  0  0  0  0  0
  -15.8677  -28.0811   22.7083 H   0  0  0  0  0  0
  -24.5905  -30.7068   25.7775 H   0  0  0  0  0  0
  -24.8898  -32.2901   26.4847 H   0  0  0  0  0  0
  -25.8040  -30.8932   27.0232 H   0  0  0  0  0  0
  -26.2936  -29.6744   24.1227 H   0  0  0  0  0  0
  -27.4013  -29.7261   25.4737 H   0  0  0  0  0  0
  -27.8819  -30.4268   23.9471 H   0  0  0  0  0  0
  -27.2666  -33.3636   26.2046 H   0  0  0  0  0  0
  -28.3877  -32.6864   25.0332 H   0  0  0  0  0  0
  -28.0703  -31.8465   26.5434 H   0  0  0  0  0  0
  -28.2600  -38.0091   24.7513 H   0  0  0  0  0  0
  -28.1069  -36.2625   24.6293 H   0  0  0  0  0  0
  -27.2295  -37.1448   25.8870 H   0  0  0  0  0  0
  -20.9406  -29.8784   21.6870 H   0  0  0  0  0  0
  -26.0168  -38.2847   24.1409 H   0  0  0  0  0  0
  -26.9479  -20.2263   21.2258 H   0  0  0  0  0  0
  -27.5017  -16.0484   21.7412 H   0  0  0  0  0  0
  -25.4236  -18.8541   22.6071 H   0  0  0  0  0  0
  -25.4964  -17.1001   22.4931 H   0  0  0  0  0  0
  -24.9907  -18.0566   21.0942 H   0  0  0  0  0  0
  -30.0120  -23.7885   19.7720 H   0  0  0  0  0  0
  -29.4153  -23.7771   21.4062 H   0  0  0  0  0  0
  -27.1497  -24.6358   20.5549 H   0  0  0  0  0  0
  -27.8161  -24.7317   18.9511 H   0  0  0  0  0  0
  -30.3732  -21.1829   20.6856 H   0  0  0  0  0  0
  -29.3620  -15.1941   21.9190 H   0  0  0  0  0  0
  1 25  1  0  0  0
  1 30  2  0  0  0
  1 82  1  0  0  0
  2  3  1  0  0  0
  2 25  1  0  0  0
  2 85  1  0  0  0
  2 86  1  0  0  0
  3  4  1  0  0  0
  3 87  1  0  0  0
  3 88  1  0  0  0
  4  5  1  0  0  0
  4 89  1  0  0  0
  4 90  1  0  0  0
  5  6  1  0  0  0
  5 26  1  0  0  0
  5 91  1  0  0  0
  6 25  1  0  0  0
  6 92  1  0  0  0
  6 93  1  0  0  0
  7  8  2  0  0  0
  7 26  1  0  0  0
  7 29  1  0  0  0
  8  9  1  0  0  0
  8 22  1  0  0  0
  9 10  1  0  0  0
  9 27  2  0  0  0
 10 11  2  0  0  0
 10 15  1  0  0  0
 11 12  1  0  0  0
 11 94  1  0  0  0
 12 13  2  0  0  0
 12 95  1  0  0  0
 13 14  1  0  0  0
 13 31  1  0  0  0
 14 15  2  0  0  0
 14 96  1  0  0  0
 15 97  1  0  0  0
 16 17  2  0  0  0
 16 21  1  0  0  0
 16 31  1  0  0  0
 17 18  1  0  0  0
 17 98  1  0  0  0
 18 19  2  0  0  0
 18 99  1  0  0  0
 19 20  1  0  0  0
 19 24  1  0  0  0
 20 21  2  0  0  0
 20100  1  0  0  0
 21 23  1  0  0  0
 22 28  1  0  0  0
 22 32  2  0  0  0
 26 27  1  0  0  0
 28101  1  0  0  0
 28102  1  0  0  0
 29103  1  0  0  0
 29104  1  0  0  0
 33 34  1  0  0  0
 33 66  1  0  0  0
 33 70  2  0  0  0
 34 36  1  0  0  0
 34 59  1  0  0  0
 34105  1  0  0  0
 35 44  2  0  0  0
 35 45  1  0  0  0
 35 68  1  0  0  0
 36 56  1  0  0  0
 36106  1  0  0  0
 37 39  1  0  0  0
 37 47  1  0  0  0
 37 66  1  0  0  0
 37107  1  0  0  0
 38 43  2  0  0  0
 38 46  1  0  0  0
 38 47  1  0  0  0
 39 64  1  0  0  0
 39 67  2  0  0  0
 40 52  1  0  0  0
 40 53  2  0  0  0
 40 58  1  0  0  0
 41108  1  0  0  0
 41109  1  0  0  0
 41110  1  0  0  0
 41 48  1  0  0  0
 42 43  1  0  0  0
 42 66  1  0  0  0
 42111  1  0  0  0
 42112  1  0  0  0
 43 44  1  0  0  0
 44113  1  0  0  0
 45 46  2  0  0  0
 45114  1  0  0  0
 46115  1  0  0  0
 47116  1  0  0  0
 47117  1  0  0  0
 48 56  1  0  0  0
 48 65  1  0  0  0
 48118  1  0  0  0
 49 50  1  0  0  0
 49 53  1  0  0  0
 49 64  1  0  0  0
 49119  1  0  0  0
 50 51  1  0  0  0
 50120  1  0  0  0
 50121  1  0  0  0
 51 52  1  0  0  0
 51122  1  0  0  0
 51123  1  0  0  0
 52124  1  0  0  0
 52125  1  0  0  0
 53 54  1  0  0  0
 54 55  2  0  0  0
 54126  1  0  0  0
 55 57  1  0  0  0
 55127  1  0  0  0
 56 69  2  0  0  0
 57 58  2  0  0  0
 57128  1  0  0  0
 58129  1  0  0  0
 59 60  1  0  0  0
 59 61  1  0  0  0
 59 62  1  0  0  0
 60130  1  0  0  0
 60131  1  0  0  0
 60132  1  0  0  0
 61133  1  0  0  0
 61134  1  0  0  0
 61135  1  0  0  0
 62136  1  0  0  0
 62137  1  0  0  0
 62138  1  0  0  0
 63 65  1  0  0  0
 63139  1  0  0  0
 63140  1  0  0  0
 63141  1  0  0  0
 64142  1  0  0  0
 65143  1  0  0  0
 68 80  1  0  0  0
 71 73  2  0  0  0
 71 74  1  0  0  0
 71144  1  0  0  0
 72 73  1  0  0  0
 72 75  2  0  0  0
 72145  1  0  0  0
 73 78  1  0  0  0
 74 76  2  0  0  0
 74 81  1  0  0  0
 75 76  1  0  0  0
 75 82  1  0  0  0
 76 84  1  0  0  0
 77 79  1  0  0  0
 77 81  1  0  0  0
 77 83  2  0  0  0
 78146  1  0  0  0
 78147  1  0  0  0
 78148  1  0  0  0
 79 80  1  0  0  0
 79149  1  0  0  0
 79150  1  0  0  0
 80151  1  0  0  0
 80152  1  0  0  0
 81153  1  0  0  0
 82154  1  0  0  0
M  ISO  4   1 100  68 101  80 101  82 100
M  END
> <chiral flag>
0

> <version>
0

> <s_m_source_file>
/data/baiqing/PycharmProjects/Reinvent-master-3.2/result/LINK_invent/BTK/process_docking_weight1_custom_product_contain_oxygen_bond_distance_aromatic_linkinvent_7_9_3/rearranged_h_0068.sdf

> <i_m_source_file_index>
34

> <r_mmod_Potential_Energy-OPLS-2005>
197.412216186523

> <r_mmod_Stretch_Energy-OPLS-2005>
145.348754882812

> <r_mmod_Bend_Energy-OPLS-2005>
209.195266723633

> <r_mmod_Torsional_Energy-OPLS-2005>
254.312393188477

> <r_mmod_Improper_Torsional_Energy-OPLS-2005>
8.44729518890381

> <r_mmod_Van_der_Waal_Energy-OPLS-2005>
140.571044921875

> <r_mmod_Electrostatic_Energy-OPLS-2005>
-423.568389892578

> <r_mmod_Solvation_Energy-OPLS-2005>
-227.944549560547

> <b_mmod_Minimization_Converged-OPLS-2005>
0

> <r_mmod_RMS_Derivative-OPLS-2005>
0.894202947616577

$$$$
34
                    3D
 Structure written by MMmdl.
157165  0  0  1  0            999 V2000
  -30.4324  -15.1015   20.4470 C   0  0  0  0  0  0
  -30.4628  -12.7186   19.4648 C   0  0  0  0  0  0
  -29.5220  -12.5612   18.2426 C   0  0  0  0  0  0
  -28.0594  -12.3148   18.6726 C   0  0  0  0  0  0
  -27.6261  -13.2425   19.8367 C   0  0  2  0  0  0
  -28.6882  -13.2432   20.9506 C   0  0  0  0  0  0
  -25.2441  -13.8171   20.5722 C   0  0  0  0  0  0
  -24.1761  -13.0402   20.9234 C   0  0  0  0  0  0
  -24.6383  -11.6892   20.8769 C   0  0  0  0  0  0
  -23.9064  -10.4274   21.0412 C   0  0  0  0  0  0
  -24.3615   -9.4196   21.9188 C   0  0  0  0  0  0
  -23.6287   -8.2238   22.0760 C   0  0  0  0  0  0
  -22.4275   -8.0273   21.3544 C   0  0  0  0  0  0
  -21.9910   -9.0246   20.4648 C   0  0  0  0  0  0
  -22.7237  -10.2121   20.3055 C   0  0  0  0  0  0
  -21.6853   -6.0736   22.5277 C   0  0  0  0  0  0
  -21.4016   -6.5639   23.8211 C   0  0  0  0  0  0
  -21.3658   -5.6791   24.9172 C   0  0  0  0  0  0
  -21.6045   -4.3052   24.7224 C   0  0  0  0  0  0
  -21.8820   -3.8148   23.4342 C   0  0  0  0  0  0
  -21.9191   -4.6966   22.3400 C   0  0  0  0  0  0
  -22.7782  -13.5178   21.1884 C   0  0  0  0  0  0
  -22.1659   -4.2153   21.0977 F   0  0  0  0  0  0
  -21.5630   -3.4533   25.7736 F   0  0  0  0  0  0
  -29.9069  -13.7969   20.3411 N   0  0  0  0  0  0
  -26.2878  -12.9396   20.3280 N   0  0  0  0  0  0
  -25.9317  -11.6529   20.5766 N   0  0  0  0  0  0
  -22.0434  -12.8175   22.0445 N   0  0  0  0  0  0
  -25.4030  -15.1907   20.4126 N   0  0  0  0  0  0
  -31.6581  -15.1815   20.2877 O   0  0  0  0  0  0
  -21.6632   -6.8875   21.4238 O   0  0  0  0  0  0
  -22.3465  -14.5482   20.6724 O   0  0  0  0  0  0
  -24.6510  -31.8357   23.1803 C   0  0  0  0  0  0
  -25.9247  -32.4646   23.8215 C   0  0  1  0  0  0
  -27.2264  -27.0503   20.1855 C   0  0  0  0  0  0
  -25.5960  -33.8451   24.2135 N   0  0  0  0  0  0
  -23.4605  -30.4490   21.5283 C   0  0  2  0  0  0
  -24.9129  -28.8487   20.1265 C   0  0  0  0  0  0
  -22.7613  -29.4496   22.4847 C   0  0  0  0  0  0
  -18.0312  -28.1397   22.8466 C   0  0  0  0  0  0
  -24.1497  -36.7236   23.2646 C   0  0  0  0  0  0
  -26.0211  -30.6834   21.3905 C   0  0  0  0  0  0
  -26.0935  -29.2796   20.7464 C   0  0  0  0  0  0
  -27.2521  -28.4013   20.7488 C   0  0  0  0  0  0
  -26.0151  -26.7300   19.5399 C   0  0  0  0  0  0
  -24.8904  -27.5881   19.5072 C   0  0  0  0  0  0
  -23.6955  -29.7652   20.1544 C   0  0  0  0  0  0
  -25.4125  -36.2996   24.0311 C   0  0  1  0  0  0
  -20.5934  -28.3724   23.1217 C   0  0  2  0  0  0
  -20.6793  -26.9416   22.5407 C   0  0  0  0  0  0
  -19.5766  -26.6374   21.5215 C   0  0  0  0  0  0
  -18.1943  -26.7931   22.1621 C   0  0  0  0  0  0
  -19.1574  -28.8881   23.2830 C   0  0  0  0  0  0
  -18.9486  -30.1475   23.8853 C   0  0  0  0  0  0
  -17.6481  -30.6584   24.0556 C   0  0  0  0  0  0
  -25.9077  -34.9378   23.5032 C   0  0  0  0  0  0
  -16.5373  -29.9076   23.6338 C   0  0  0  0  0  0
  -16.7296  -28.6507   23.0340 C   0  0  0  0  0  0
  -26.4542  -31.6536   25.0686 C   0  0  0  0  0  0
  -25.3702  -31.3760   26.1370 C   0  0  0  0  0  0
  -27.0415  -30.2913   24.6324 C   0  0  0  0  0  0
  -27.6047  -32.4326   25.7485 C   0  0  0  0  0  0
  -27.5570  -37.1770   24.8466 C   0  0  0  0  0  0
  -21.4300  -29.3038   22.3591 N   0  0  0  0  0  0
  -26.4279  -37.3715   23.9409 N   0  0  0  0  0  0
  -24.7312  -31.0132   22.0877 N   0  0  0  0  0  0
  -23.4215  -28.8055   23.3033 O   0  0  0  0  0  0
  -28.3013  -26.0693   20.0797 O   0  0  0  0  0  0
  -26.5679  -34.8895   22.4624 O   0  0  0  0  0  0
  -23.5606  -32.1279   23.6971 O   0  0  0  0  0  0
  -29.4737  -19.1119   20.2434 C   0  0  0  0  0  0
  -28.6096  -20.3748   22.1201 C   0  0  0  0  0  0
  -28.8462  -17.8914   22.2648 C   0  0  0  0  0  0
  -29.0472  -20.4658   20.7933 C   0  0  0  0  0  0
  -29.4072  -17.7573   20.9413 C   0  0  0  0  0  0
  -28.5383  -19.1658   22.8285 C   0  0  0  0  0  0
  -28.2530  -23.0876   20.2803 C   0  0  0  0  0  0
  -27.8454  -24.8304   22.2012 C   0  0  0  0  0  0
  -29.6538  -15.9947   23.7985 C   0  0  0  0  0  0
  -28.5155  -24.6787   20.8263 C   0  0  2  0  0  0
  -28.4582  -16.6686   23.1137 C   0  0  0  0  0  0
  -29.1635  -21.9601   20.3231 N   0  0  0  0  0  0
  -29.5674  -16.2759   20.3836 N   0  0  0  0  0  0
  -27.1254  -22.8706   19.8299 O   0  0  0  0  0  0
  -28.1390  -19.2704   24.1192 F   0  0  0  0  0  0
  -27.7810  -15.8299   22.3438 F   0  0  0  0  0  0
  -27.6053  -16.9533   24.0975 F   0  0  0  0  0  0
  -31.4672  -12.9682   19.1200 H   0  0  0  0  0  0
  -30.5631  -11.7779   20.0081 H   0  0  0  0  0  0
  -29.8673  -11.7512   17.5992 H   0  0  0  0  0  0
  -29.5694  -13.4675   17.6380 H   0  0  0  0  0  0
  -27.9796  -11.2741   18.9893 H   0  0  0  0  0  0
  -27.3864  -12.4270   17.8213 H   0  0  0  0  0  0
  -27.5829  -14.2469   19.4155 H   0  0  0  0  0  0
  -28.8466  -12.2293   21.3211 H   0  0  0  0  0  0
  -28.3833  -13.7964   21.8261 H   0  0  0  0  0  0
  -25.2754   -9.5677   22.4766 H   0  0  0  0  0  0
  -23.9996   -7.4630   22.7480 H   0  0  0  0  0  0
  -21.0845   -8.8756   19.8952 H   0  0  0  0  0  0
  -22.3687  -10.9662   19.6170 H   0  0  0  0  0  0
  -21.2010   -7.6146   23.9717 H   0  0  0  0  0  0
  -21.1479   -6.0519   25.9075 H   0  0  0  0  0  0
  -22.0602   -2.7611   23.2838 H   0  0  0  0  0  0
  -22.4042  -11.9825   22.4816 H   0  0  0  0  0  0
  -21.1060  -13.1212   22.2660 H   0  0  0  0  0  0
  -24.6339  -15.8358   20.5530 H   0  0  0  0  0  0
  -26.2590  -15.6522   20.1416 H   0  0  0  0  0  0
  -26.7323  -32.5238   23.0948 H   0  0  0  0  0  0
  -25.0059  -33.9545   25.0256 H   0  0  0  0  0  0
  -22.7673  -31.2763   21.3613 H   0  0  0  0  0  0
  -23.3753  -35.9569   23.3285 H   0  0  0  0  0  0
  -24.3589  -36.8902   22.2066 H   0  0  0  0  0  0
  -23.7265  -37.6427   23.6710 H   0  0  0  0  0  0
  -26.1792  -31.4266   20.6077 H   0  0  0  0  0  0
  -26.8903  -30.7467   22.0328 H   0  0  0  0  0  0
  -28.1638  -28.7409   21.2206 H   0  0  0  0  0  0
  -25.9348  -25.7659   19.0570 H   0  0  0  0  0  0
  -23.9929  -27.2510   19.0076 H   0  0  0  0  0  0
  -23.8463  -30.5341   19.3958 H   0  0  0  0  0  0
  -22.8083  -29.2139   19.8382 H   0  0  0  0  0  0
  -25.1317  -36.1801   25.0800 H   0  0  0  0  0  0
  -21.0016  -28.3318   24.1344 H   0  0  0  0  0  0
  -20.5688  -26.2331   23.3634 H   0  0  0  0  0  0
  -21.6653  -26.7410   22.1201 H   0  0  0  0  0  0
  -19.6927  -25.6280   21.1253 H   0  0  0  0  0  0
  -19.6704  -27.3175   20.6739 H   0  0  0  0  0  0
  -17.4215  -26.6673   21.4022 H   0  0  0  0  0  0
  -18.0338  -26.0077   22.9026 H   0  0  0  0  0  0
  -19.7963  -30.7298   24.2200 H   0  0  0  0  0  0
  -17.5035  -31.6260   24.5162 H   0  0  0  0  0  0
  -15.5370  -30.2958   23.7691 H   0  0  0  0  0  0
  -15.8700  -28.0825   22.7049 H   0  0  0  0  0  0
  -24.5902  -30.7077   25.7702 H   0  0  0  0  0  0
  -24.8858  -32.2947   26.4678 H   0  0  0  0  0  0
  -25.7959  -30.9022   27.0221 H   0  0  0  0  0  0
  -26.3041  -29.6615   24.1328 H   0  0  0  0  0  0
  -27.3995  -29.7237   25.4926 H   0  0  0  0  0  0
  -27.8967  -30.4116   23.9668 H   0  0  0  0  0  0
  -27.2628  -33.3677   26.1938 H   0  0  0  0  0  0
  -28.3922  -32.6816   25.0354 H   0  0  0  0  0  0
  -28.0641  -31.8533   26.5504 H   0  0  0  0  0  0
  -28.2561  -38.0093   24.7501 H   0  0  0  0  0  0
  -28.1090  -36.2607   24.6291 H   0  0  0  0  0  0
  -27.2285  -37.1414   25.8873 H   0  0  0  0  0  0
  -20.9538  -29.8748   21.6753 H   0  0  0  0  0  0
  -26.0133  -38.2773   24.1421 H   0  0  0  0  0  0
  -29.8467  -19.1110   19.2285 H   0  0  0  0  0  0
  -28.3396  -21.2756   22.6522 H   0  0  0  0  0  0
  -28.0163  -23.9554   22.8293 H   0  0  0  0  0  0
  -26.7675  -24.9561   22.1005 H   0  0  0  0  0  0
  -28.2374  -25.6972   22.7339 H   0  0  0  0  0  0
  -30.4375  -15.7106   23.1028 H   0  0  0  0  0  0
  -29.3393  -15.0968   24.3293 H   0  0  0  0  0  0
  -30.1007  -16.6686   24.5295 H   0  0  0  0  0  0
  -29.5886  -24.6775   21.0176 H   0  0  0  0  0  0
  -30.1184  -22.2904   20.3774 H   0  0  0  0  0  0
  -28.6502  -15.9128   20.1733 H   0  0  0  0  0  0
  1 25  1  0  0  0
  1 30  2  0  0  0
  1 83  1  0  0  0
  2  3  1  0  0  0
  2 25  1  0  0  0
  2 88  1  0  0  0
  2 89  1  0  0  0
  3  4  1  0  0  0
  3 90  1  0  0  0
  3 91  1  0  0  0
  4  5  1  0  0  0
  4 92  1  0  0  0
  4 93  1  0  0  0
  5  6  1  0  0  0
  5 26  1  0  0  0
  5 94  1  0  0  0
  6 25  1  0  0  0
  6 95  1  0  0  0
  6 96  1  0  0  0
  7  8  2  0  0  0
  7 26  1  0  0  0
  7 29  1  0  0  0
  8  9  1  0  0  0
  8 22  1  0  0  0
  9 10  1  0  0  0
  9 27  2  0  0  0
 10 11  2  0  0  0
 10 15  1  0  0  0
 11 12  1  0  0  0
 11 97  1  0  0  0
 12 13  2  0  0  0
 12 98  1  0  0  0
 13 14  1  0  0  0
 13 31  1  0  0  0
 14 15  2  0  0  0
 14 99  1  0  0  0
 15100  1  0  0  0
 16 17  2  0  0  0
 16 21  1  0  0  0
 16 31  1  0  0  0
 17 18  1  0  0  0
 17101  1  0  0  0
 18 19  2  0  0  0
 18102  1  0  0  0
 19 20  1  0  0  0
 19 24  1  0  0  0
 20 21  2  0  0  0
 20103  1  0  0  0
 21 23  1  0  0  0
 22 28  1  0  0  0
 22 32  2  0  0  0
 26 27  1  0  0  0
 28104  1  0  0  0
 28105  1  0  0  0
 29106  1  0  0  0
 29107  1  0  0  0
 33 34  1  0  0  0
 33 66  1  0  0  0
 33 70  2  0  0  0
 34 36  1  0  0  0
 34 59  1  0  0  0
 34108  1  0  0  0
 35 44  2  0  0  0
 35 45  1  0  0  0
 35 68  1  0  0  0
 36 56  1  0  0  0
 36109  1  0  0  0
 37 39  1  0  0  0
 37 47  1  0  0  0
 37 66  1  0  0  0
 37110  1  0  0  0
 38 43  2  0  0  0
 38 46  1  0  0  0
 38 47  1  0  0  0
 39 64  1  0  0  0
 39 67  2  0  0  0
 40 52  1  0  0  0
 40 53  2  0  0  0
 40 58  1  0  0  0
 41111  1  0  0  0
 41112  1  0  0  0
 41113  1  0  0  0
 41 48  1  0  0  0
 42 43  1  0  0  0
 42 66  1  0  0  0
 42114  1  0  0  0
 42115  1  0  0  0
 43 44  1  0  0  0
 44116  1  0  0  0
 45 46  2  0  0  0
 45117  1  0  0  0
 46118  1  0  0  0
 47119  1  0  0  0
 47120  1  0  0  0
 48 56  1  0  0  0
 48 65  1  0  0  0
 48121  1  0  0  0
 49 50  1  0  0  0
 49 53  1  0  0  0
 49 64  1  0  0  0
 49122  1  0  0  0
 50 51  1  0  0  0
 50123  1  0  0  0
 50124  1  0  0  0
 51 52  1  0  0  0
 51125  1  0  0  0
 51126  1  0  0  0
 52127  1  0  0  0
 52128  1  0  0  0
 53 54  1  0  0  0
 54 55  2  0  0  0
 54129  1  0  0  0
 55 57  1  0  0  0
 55130  1  0  0  0
 56 69  2  0  0  0
 57 58  2  0  0  0
 57131  1  0  0  0
 58132  1  0  0  0
 59 60  1  0  0  0
 59 61  1  0  0  0
 59 62  1  0  0  0
 60133  1  0  0  0
 60134  1  0  0  0
 60135  1  0  0  0
 61136  1  0  0  0
 61137  1  0  0  0
 61138  1  0  0  0
 62139  1  0  0  0
 62140  1  0  0  0
 62141  1  0  0  0
 63 65  1  0  0  0
 63142  1  0  0  0
 63143  1  0  0  0
 63144  1  0  0  0
 64145  1  0  0  0
 65146  1  0  0  0
 68 80  1  0  0  0
 71 74  2  0  0  0
 71 75  1  0  0  0
 71147  1  0  0  0
 72 74  1  0  0  0
 72 76  2  0  0  0
 72148  1  0  0  0
 73 75  2  0  0  0
 73 76  1  0  0  0
 73 81  1  0  0  0
 74 82  1  0  0  0
 75 83  1  0  0  0
 76 85  1  0  0  0
 77 80  1  0  0  0
 77 82  1  0  0  0
 77 84  2  0  0  0
 78149  1  0  0  0
 78150  1  0  0  0
 78151  1  0  0  0
 78 80  1  0  0  0
 79152  1  0  0  0
 79153  1  0  0  0
 79154  1  0  0  0
 79 81  1  0  0  0
 80155  1  0  0  0
 81 86  1  0  0  0
 81 87  1  0  0  0
 82156  1  0  0  0
 83157  1  0  0  0
M  ISO  4   1 100  68 101  80 101  83 100
M  END
> <chiral flag>
0

> <version>
0

> <s_m_source_file>
/data/baiqing/PycharmProjects/Reinvent-master-3.2/result/LINK_invent/BTK/process_docking_weight1_custom_product_contain_oxygen_bond_distance_aromatic_linkinvent_7_9_3/rearranged_h_0068.sdf

> <i_m_source_file_index>
35

> <r_mmod_Potential_Energy-OPLS-2005>
980.037536621094

> <r_mmod_Stretch_Energy-OPLS-2005>
386.657531738281

> <r_mmod_Bend_Energy-OPLS-2005>
384.960418701172

> <r_mmod_Torsional_Energy-OPLS-2005>
341.957916259766

> <r_mmod_Improper_Torsional_Energy-OPLS-2005>
15.9819278717041

> <r_mmod_Van_der_Waal_Energy-OPLS-2005>
131.470275878906

> <r_mmod_Electrostatic_Energy-OPLS-2005>
-342.0263671875

> <r_mmod_Solvation_Energy-OPLS-2005>
-226.650817871094

> <b_mmod_Minimization_Converged-OPLS-2005>
0

> <r_mmod_RMS_Derivative-OPLS-2005>
1.35900282859802

$$$$
35
                    3D
 Structure written by MMmdl.
157165  0  0  1  0            999 V2000
  -30.6877  -14.6357   20.4327 C   0  0  0  0  0  0
  -30.4024  -12.3708   19.4766 C   0  0  0  0  0  0
  -29.4948  -12.4861   18.2343 C   0  0  0  0  0  0
  -28.0190  -12.3430   18.6469 C   0  0  0  0  0  0
  -27.6446  -13.2328   19.8621 C   0  0  2  0  0  0
  -28.6906  -13.1509   20.9985 C   0  0  0  0  0  0
  -25.2489  -13.8222   20.5727 C   0  0  0  0  0  0
  -24.1785  -13.0443   20.9196 C   0  0  0  0  0  0
  -24.6392  -11.6928   20.8740 C   0  0  0  0  0  0
  -23.9081  -10.4288   21.0410 C   0  0  0  0  0  0
  -24.3637   -9.4193   21.9181 C   0  0  0  0  0  0
  -23.6290   -8.2238   22.0754 C   0  0  0  0  0  0
  -22.4263   -8.0293   21.3548 C   0  0  0  0  0  0
  -21.9905   -9.0282   20.4659 C   0  0  0  0  0  0
  -22.7250  -10.2148   20.3069 C   0  0  0  0  0  0
  -21.6857   -6.0731   22.5294 C   0  0  0  0  0  0
  -21.4013   -6.5643   23.8222 C   0  0  0  0  0  0
  -21.3647   -5.6804   24.9192 C   0  0  0  0  0  0
  -21.6049   -4.3069   24.7253 C   0  0  0  0  0  0
  -21.8805   -3.8145   23.4377 C   0  0  0  0  0  0
  -21.9186   -4.6952   22.3425 C   0  0  0  0  0  0
  -22.7807  -13.5217   21.1870 C   0  0  0  0  0  0
  -22.1653   -4.2137   21.0997 F   0  0  0  0  0  0
  -21.5624   -3.4553   25.7760 F   0  0  0  0  0  0
  -30.0081  -13.4422   20.4198 N   0  0  0  0  0  0
  -26.2938  -12.9443   20.3361 N   0  0  0  0  0  0
  -25.9332  -11.6575   20.5804 N   0  0  0  0  0  0
  -22.0465  -12.8193   22.0427 N   0  0  0  0  0  0
  -25.4135  -15.1954   20.4138 N   0  0  0  0  0  0
  -31.8672  -14.6591   20.0685 O   0  0  0  0  0  0
  -21.6634   -6.8885   21.4255 O   0  0  0  0  0  0
  -22.3489  -14.5542   20.6760 O   0  0  0  0  0  0
  -24.6244  -31.8606   23.2017 C   0  0  0  0  0  0
  -25.9084  -32.4788   23.8370 C   0  0  1  0  0  0
  -27.2328  -27.3399   20.1317 C   0  0  0  0  0  0
  -25.5898  -33.8585   24.2294 N   0  0  0  0  0  0
  -23.4219  -30.4796   21.5418 C   0  0  2  0  0  0
  -24.8750  -28.9375   20.1121 C   0  0  0  0  0  0
  -22.7491  -29.4594   22.4910 C   0  0  0  0  0  0
  -18.0286  -28.1395   22.8492 C   0  0  0  0  0  0
  -24.1487  -36.7295   23.2638 C   0  0  0  0  0  0
  -25.9587  -30.7999   21.3694 C   0  0  0  0  0  0
  -26.0410  -29.4268   20.7166 C   0  0  0  0  0  0
  -27.2285  -28.6394   20.7187 C   0  0  0  0  0  0
  -26.0536  -26.8952   19.5026 C   0  0  0  0  0  0
  -24.8814  -27.6740   19.4955 C   0  0  0  0  0  0
  -23.6386  -29.8113   20.1585 C   0  0  0  0  0  0
  -25.4110  -36.3088   24.0337 C   0  0  1  0  0  0
  -20.5886  -28.3685   23.1291 C   0  0  2  0  0  0
  -20.6766  -26.9409   22.5414 C   0  0  0  0  0  0
  -19.5725  -26.6379   21.5220 C   0  0  0  0  0  0
  -18.1923  -26.7935   22.1635 C   0  0  0  0  0  0
  -19.1539  -28.8854   23.2887 C   0  0  0  0  0  0
  -18.9456  -30.1457   23.8905 C   0  0  0  0  0  0
  -17.6452  -30.6582   24.0571 C   0  0  0  0  0  0
  -25.9039  -34.9455   23.5119 C   0  0  0  0  0  0
  -16.5345  -29.9092   23.6321 C   0  0  0  0  0  0
  -16.7273  -28.6516   23.0337 C   0  0  0  0  0  0
  -26.4472  -31.6593   25.0735 C   0  0  0  0  0  0
  -25.3694  -31.3739   26.1461 C   0  0  0  0  0  0
  -27.0291  -30.3015   24.6157 C   0  0  0  0  0  0
  -27.6054  -32.4311   25.7486 C   0  0  0  0  0  0
  -27.5582  -37.1808   24.8455 C   0  0  0  0  0  0
  -21.4197  -29.3037   22.3683 N   0  0  0  0  0  0
  -26.4291  -37.3782   23.9397 N   0  0  0  0  0  0
  -24.6874  -31.0628   22.0953 N   0  0  0  0  0  0
  -23.4205  -28.8131   23.3001 O   0  0  0  0  0  0
  -28.3114  -26.4574   20.1797 O   0  0  0  0  0  0
  -26.5605  -34.8930   22.4681 O   0  0  0  0  0  0
  -23.5403  -32.1373   23.7333 O   0  0  0  0  0  0
  -29.6131  -19.5260   20.1520 C   0  0  0  0  0  0
  -29.3732  -20.9276   22.1089 C   0  0  0  0  0  0
  -29.9031  -18.3562   20.9402 C   0  0  0  0  0  0
  -29.6352  -19.7972   22.9229 C   0  0  0  0  0  0
  -29.9598  -18.5307   22.3543 C   0  0  0  0  0  0
  -29.3781  -20.8328   20.7018 C   0  0  0  0  0  0
  -28.4744  -24.0344   20.9462 C   0  0  0  0  0  0
  -28.1691  -25.3749   21.0611 C   0  0  0  0  0  0
  -30.3642  -17.0572   20.2452 C   0  0  0  0  0  0
  -29.0550  -23.3317   19.7909 C   0  0  0  0  0  0
  -29.6179  -19.9893   24.4331 C   0  0  0  0  0  0
  -30.4579  -17.4167   23.2814 C   0  0  0  0  0  0
  -29.2653  -21.9677   19.7857 N   0  0  0  0  0  0
  -30.0045  -15.8030   20.6878 N   0  0  0  0  0  0
  -31.0679  -17.2165   19.2381 O   0  0  0  0  0  0
  -29.3657  -23.9417   18.7677 O   0  0  0  0  0  0
  -31.4496  -12.4249   19.1764 H   0  0  0  0  0  0
  -30.2822  -11.3940   19.9487 H   0  0  0  0  0  0
  -29.7508  -11.7233   17.4993 H   0  0  0  0  0  0
  -29.6485  -13.4453   17.7396 H   0  0  0  0  0  0
  -27.8416  -11.2965   18.8929 H   0  0  0  0  0  0
  -27.3687  -12.5631   17.7983 H   0  0  0  0  0  0
  -27.6482  -14.2588   19.4941 H   0  0  0  0  0  0
  -28.6902  -12.1643   21.4644 H   0  0  0  0  0  0
  -28.4501  -13.8602   21.7924 H   0  0  0  0  0  0
  -25.2771   -9.5661   22.4784 H   0  0  0  0  0  0
  -23.9991   -7.4616   22.7477 H   0  0  0  0  0  0
  -21.0815   -8.8826   19.8990 H   0  0  0  0  0  0
  -22.3690  -10.9713   19.6221 H   0  0  0  0  0  0
  -21.2014   -7.6148   23.9721 H   0  0  0  0  0  0
  -21.1475   -6.0536   25.9089 H   0  0  0  0  0  0
  -22.0585   -2.7602   23.2895 H   0  0  0  0  0  0
  -22.4085  -11.9838   22.4785 H   0  0  0  0  0  0
  -21.1124  -13.1283   22.2739 H   0  0  0  0  0  0
  -24.6419  -15.8449   20.5219 H   0  0  0  0  0  0
  -26.2638  -15.6388   20.0937 H   0  0  0  0  0  0
  -26.7167  -32.5473   23.1139 H   0  0  0  0  0  0
  -25.0046  -33.9733   25.0442 H   0  0  0  0  0  0
  -22.7156  -31.2976   21.3938 H   0  0  0  0  0  0
  -23.3747  -35.9623   23.3289 H   0  0  0  0  0  0
  -24.3582  -36.8914   22.2050 H   0  0  0  0  0  0
  -23.7248  -37.6507   23.6657 H   0  0  0  0  0  0
  -26.0801  -31.5631   20.5997 H   0  0  0  0  0  0
  -26.8434  -30.8559   21.9927 H   0  0  0  0  0  0
  -28.1274  -29.0046   21.1962 H   0  0  0  0  0  0
  -26.0397  -25.9157   19.0454 H   0  0  0  0  0  0
  -23.9892  -27.2895   19.0238 H   0  0  0  0  0  0
  -23.7547  -30.5832   19.3974 H   0  0  0  0  0  0
  -22.7642  -29.2325   19.8597 H   0  0  0  0  0  0
  -25.1292  -36.1955   25.0835 H   0  0  0  0  0  0
  -20.9985  -28.3263   24.1405 H   0  0  0  0  0  0
  -20.5649  -26.2302   23.3610 H   0  0  0  0  0  0
  -21.6634  -26.7414   22.1216 H   0  0  0  0  0  0
  -19.6877  -25.6298   21.1239 H   0  0  0  0  0  0
  -19.6669  -27.3201   20.6761 H   0  0  0  0  0  0
  -17.4183  -26.6681   21.4039 H   0  0  0  0  0  0
  -18.0317  -26.0090   22.9052 H   0  0  0  0  0  0
  -19.7931  -30.7278   24.2278 H   0  0  0  0  0  0
  -17.5003  -31.6262   24.5175 H   0  0  0  0  0  0
  -15.5351  -30.2985   23.7630 H   0  0  0  0  0  0
  -15.8683  -28.0831   22.7029 H   0  0  0  0  0  0
  -24.5871  -30.7087   25.7796 H   0  0  0  0  0  0
  -24.8875  -32.2898   26.4886 H   0  0  0  0  0  0
  -25.8016  -30.8927   27.0237 H   0  0  0  0  0  0
  -26.2861  -29.6804   24.1148 H   0  0  0  0  0  0
  -27.3948  -29.7256   25.4663 H   0  0  0  0  0  0
  -27.8745  -30.4297   23.9396 H   0  0  0  0  0  0
  -27.2692  -33.3615   26.2067 H   0  0  0  0  0  0
  -28.3857  -32.6858   25.0304 H   0  0  0  0  0  0
  -28.0716  -31.8423   26.5388 H   0  0  0  0  0  0
  -28.2601  -38.0113   24.7521 H   0  0  0  0  0  0
  -28.1092  -36.2646   24.6264 H   0  0  0  0  0  0
  -27.2296  -37.1436   25.8861 H   0  0  0  0  0  0
  -20.9372  -29.8800   21.6925 H   0  0  0  0  0  0
  -26.0172  -38.2852   24.1429 H   0  0  0  0  0  0
  -29.6439  -19.4221   19.0757 H   0  0  0  0  0  0
  -29.2261  -21.8736   22.6013 H   0  0  0  0  0  0
  -28.2267  -23.4466   21.8116 H   0  0  0  0  0  0
  -27.7318  -25.7206   21.9884 H   0  0  0  0  0  0
  -29.0590  -20.8818   24.7168 H   0  0  0  0  0  0
  -30.6316  -20.1019   24.8183 H   0  0  0  0  0  0
  -29.1480  -19.1435   24.9391 H   0  0  0  0  0  0
  -29.6319  -16.8121   23.6526 H   0  0  0  0  0  0
  -30.9850  -17.8206   24.1444 H   0  0  0  0  0  0
  -31.1849  -16.7556   22.8099 H   0  0  0  0  0  0
  -29.5168  -21.6987   18.8469 H   0  0  0  0  0  0
  -29.1736  -15.7415   21.2511 H   0  0  0  0  0  0
  1 25  1  0  0  0
  1 30  2  0  0  0
  1 84  1  0  0  0
  2  3  1  0  0  0
  2 25  1  0  0  0
  2 87  1  0  0  0
  2 88  1  0  0  0
  3  4  1  0  0  0
  3 89  1  0  0  0
  3 90  1  0  0  0
  4  5  1  0  0  0
  4 91  1  0  0  0
  4 92  1  0  0  0
  5  6  1  0  0  0
  5 26  1  0  0  0
  5 93  1  0  0  0
  6 25  1  0  0  0
  6 94  1  0  0  0
  6 95  1  0  0  0
  7  8  2  0  0  0
  7 26  1  0  0  0
  7 29  1  0  0  0
  8  9  1  0  0  0
  8 22  1  0  0  0
  9 10  1  0  0  0
  9 27  2  0  0  0
 10 11  2  0  0  0
 10 15  1  0  0  0
 11 12  1  0  0  0
 11 96  1  0  0  0
 12 13  2  0  0  0
 12 97  1  0  0  0
 13 14  1  0  0  0
 13 31  1  0  0  0
 14 15  2  0  0  0
 14 98  1  0  0  0
 15 99  1  0  0  0
 16 17  2  0  0  0
 16 21  1  0  0  0
 16 31  1  0  0  0
 17 18  1  0  0  0
 17100  1  0  0  0
 18 19  2  0  0  0
 18101  1  0  0  0
 19 20  1  0  0  0
 19 24  1  0  0  0
 20 21  2  0  0  0
 20102  1  0  0  0
 21 23  1  0  0  0
 22 28  1  0  0  0
 22 32  2  0  0  0
 26 27  1  0  0  0
 28103  1  0  0  0
 28104  1  0  0  0
 29105  1  0  0  0
 29106  1  0  0  0
 33 34  1  0  0  0
 33 66  1  0  0  0
 33 70  2  0  0  0
 34 36  1  0  0  0
 34 59  1  0  0  0
 34107  1  0  0  0
 35 44  2  0  0  0
 35 45  1  0  0  0
 35 68  1  0  0  0
 36 56  1  0  0  0
 36108  1  0  0  0
 37 39  1  0  0  0
 37 47  1  0  0  0
 37 66  1  0  0  0
 37109  1  0  0  0
 38 43  2  0  0  0
 38 46  1  0  0  0
 38 47  1  0  0  0
 39 64  1  0  0  0
 39 67  2  0  0  0
 40 52  1  0  0  0
 40 53  2  0  0  0
 40 58  1  0  0  0
 41110  1  0  0  0
 41111  1  0  0  0
 41112  1  0  0  0
 41 48  1  0  0  0
 42 43  1  0  0  0
 42 66  1  0  0  0
 42113  1  0  0  0
 42114  1  0  0  0
 43 44  1  0  0  0
 44115  1  0  0  0
 45 46  2  0  0  0
 45116  1  0  0  0
 46117  1  0  0  0
 47118  1  0  0  0
 47119  1  0  0  0
 48 56  1  0  0  0
 48 65  1  0  0  0
 48120  1  0  0  0
 49 50  1  0  0  0
 49 53  1  0  0  0
 49 64  1  0  0  0
 49121  1  0  0  0
 50 51  1  0  0  0
 50122  1  0  0  0
 50123  1  0  0  0
 51 52  1  0  0  0
 51124  1  0  0  0
 51125  1  0  0  0
 52126  1  0  0  0
 52127  1  0  0  0
 53 54  1  0  0  0
 54 55  2  0  0  0
 54128  1  0  0  0
 55 57  1  0  0  0
 55129  1  0  0  0
 56 69  2  0  0  0
 57 58  2  0  0  0
 57130  1  0  0  0
 58131  1  0  0  0
 59 60  1  0  0  0
 59 61  1  0  0  0
 59 62  1  0  0  0
 60132  1  0  0  0
 60133  1  0  0  0
 60134  1  0  0  0
 61135  1  0  0  0
 61136  1  0  0  0
 61137  1  0  0  0
 62138  1  0  0  0
 62139  1  0  0  0
 62140  1  0  0  0
 63 65  1  0  0  0
 63141  1  0  0  0
 63142  1  0  0  0
 63143  1  0  0  0
 64144  1  0  0  0
 65145  1  0  0  0
 68 78  1  0  0  0
 71 73  2  0  0  0
 71 76  1  0  0  0
 71146  1  0  0  0
 72 74  1  0  0  0
 72 76  2  0  0  0
 72147  1  0  0  0
 73 75  1  0  0  0
 73 79  1  0  0  0
 74 75  2  0  0  0
 74 81  1  0  0  0
 75 82  1  0  0  0
 76 83  1  0  0  0
 77 78  2  0  0  0
 77 80  1  0  0  0
 77148  1  0  0  0
 78149  1  0  0  0
 79 84  1  0  0  0
 79 85  2  0  0  0
 80 83  1  0  0  0
 80 86  2  0  0  0
 81150  1  0  0  0
 81151  1  0  0  0
 81152  1  0  0  0
 82153  1  0  0  0
 82154  1  0  0  0
 82155  1  0  0  0
 83156  1  0  0  0
 84157  1  0  0  0
M  ISO  4   1 100  68 101  78 101  84 100
M  END
> <chiral flag>
0

> <version>
0

> <s_m_source_file>
/data/baiqing/PycharmProjects/Reinvent-master-3.2/result/LINK_invent/BTK/process_docking_weight1_custom_product_contain_oxygen_bond_distance_aromatic_linkinvent_7_9_3/rearranged_h_0068.sdf

> <i_m_source_file_index>
36

> <r_mmod_Potential_Energy-OPLS-2005>
46.4737968444824

> <r_mmod_Stretch_Energy-OPLS-2005>
76.2352600097656

> <r_mmod_Bend_Energy-OPLS-2005>
194.670440673828

> <r_mmod_Torsional_Energy-OPLS-2005>
274.577453613281

> <r_mmod_Improper_Torsional_Energy-OPLS-2005>
5.8191089630127

> <r_mmod_Van_der_Waal_Energy-OPLS-2005>
156.723770141602

> <r_mmod_Electrostatic_Energy-OPLS-2005>
-473.552520751953

> <r_mmod_Solvation_Energy-OPLS-2005>
-239.999328613281

> <b_mmod_Minimization_Converged-OPLS-2005>
0

> <r_mmod_RMS_Derivative-OPLS-2005>
3.6593496799469

$$$$
36
                    3D
 Structure written by MMmdl.
157165  0  0  1  0            999 V2000
  -30.6071  -14.7141   20.4880 C   0  0  0  0  0  0
  -30.4303  -12.4348   19.4802 C   0  0  0  0  0  0
  -29.5117  -12.5246   18.2409 C   0  0  0  0  0  0
  -28.0365  -12.3523   18.6496 C   0  0  0  0  0  0
  -27.6491  -13.2303   19.8673 C   0  0  2  0  0  0
  -28.6897  -13.1242   21.0046 C   0  0  0  0  0  0
  -25.2538  -13.8208   20.5732 C   0  0  0  0  0  0
  -24.1810  -13.0442   20.9191 C   0  0  0  0  0  0
  -24.6394  -11.6927   20.8740 C   0  0  0  0  0  0
  -23.9073  -10.4295   21.0410 C   0  0  0  0  0  0
  -24.3626   -9.4205   21.9180 C   0  0  0  0  0  0
  -23.6300   -8.2234   22.0750 C   0  0  0  0  0  0
  -22.4277   -8.0277   21.3538 C   0  0  0  0  0  0
  -21.9915   -9.0254   20.4639 C   0  0  0  0  0  0
  -22.7247  -10.2131   20.3059 C   0  0  0  0  0  0
  -21.6852   -6.0728   22.5274 C   0  0  0  0  0  0
  -21.4012   -6.5636   23.8201 C   0  0  0  0  0  0
  -21.3668   -5.6791   24.9165 C   0  0  0  0  0  0
  -21.6062   -4.3054   24.7224 C   0  0  0  0  0  0
  -21.8819   -3.8141   23.4344 C   0  0  0  0  0  0
  -21.9196   -4.6956   22.3397 C   0  0  0  0  0  0
  -22.7829  -13.5224   21.1849 C   0  0  0  0  0  0
  -22.1673   -4.2149   21.0974 F   0  0  0  0  0  0
  -21.5631   -3.4530   25.7736 F   0  0  0  0  0  0
  -29.9997  -13.4775   20.4438 N   0  0  0  0  0  0
  -26.2965  -12.9399   20.3351 N   0  0  0  0  0  0
  -25.9327  -11.6544   20.5752 N   0  0  0  0  0  0
  -22.0491  -12.8199   22.0408 N   0  0  0  0  0  0
  -25.4277  -15.1921   20.4188 N   0  0  0  0  0  0
  -31.7580  -14.8505   20.0588 O   0  0  0  0  0  0
  -21.6647   -6.8871   21.4237 O   0  0  0  0  0  0
  -22.3507  -14.5532   20.6707 O   0  0  0  0  0  0
  -24.6347  -31.8569   23.1980 C   0  0  0  0  0  0
  -25.9170  -32.4753   23.8329 C   0  0  1  0  0  0
  -27.2016  -27.2556   20.1172 C   0  0  0  0  0  0
  -25.5939  -33.8551   24.2240 N   0  0  0  0  0  0
  -23.4282  -30.4837   21.5439 C   0  0  2  0  0  0
  -24.8696  -28.9367   20.1014 C   0  0  0  0  0  0
  -22.7516  -29.4623   22.4903 C   0  0  0  0  0  0
  -18.0305  -28.1373   22.8486 C   0  0  0  0  0  0
  -24.1489  -36.7296   23.2634 C   0  0  0  0  0  0
  -25.9771  -30.7663   21.3777 C   0  0  0  0  0  0
  -26.0451  -29.3913   20.7144 C   0  0  0  0  0  0
  -27.2165  -28.5644   20.7099 C   0  0  0  0  0  0
  -26.0112  -26.8894   19.4489 C   0  0  0  0  0  0
  -24.8591  -27.6947   19.4559 C   0  0  0  0  0  0
  -23.6433  -29.8253   20.1566 C   0  0  0  0  0  0
  -25.4114  -36.3078   24.0328 C   0  0  1  0  0  0
  -20.5913  -28.3709   23.1244 C   0  0  2  0  0  0
  -20.6778  -26.9414   22.5399 C   0  0  0  0  0  0
  -19.5747  -26.6377   21.5207 C   0  0  0  0  0  0
  -18.1936  -26.7915   22.1629 C   0  0  0  0  0  0
  -19.1560  -28.8856   23.2864 C   0  0  0  0  0  0
  -18.9475  -30.1453   23.8890 C   0  0  0  0  0  0
  -17.6473  -30.6572   24.0570 C   0  0  0  0  0  0
  -25.9072  -34.9443   23.5104 C   0  0  0  0  0  0
  -16.5369  -29.9077   23.6318 C   0  0  0  0  0  0
  -16.7293  -28.6493   23.0346 C   0  0  0  0  0  0
  -26.4504  -31.6563   25.0719 C   0  0  0  0  0  0
  -25.3706  -31.3745   26.1430 C   0  0  0  0  0  0
  -27.0321  -30.2965   24.6200 C   0  0  0  0  0  0
  -27.6041  -32.4305   25.7515 C   0  0  0  0  0  0
  -27.5587  -37.1804   24.8460 C   0  0  0  0  0  0
  -21.4221  -29.3070   22.3648 N   0  0  0  0  0  0
  -26.4284  -37.3786   23.9423 N   0  0  0  0  0  0
  -24.7000  -31.0534   22.0962 N   0  0  0  0  0  0
  -23.4221  -28.8144   23.2983 O   0  0  0  0  0  0
  -28.2585  -26.3108   20.2089 O   0  0  0  0  0  0
  -26.5659  -34.8925   22.4682 O   0  0  0  0  0  0
  -23.5490  -32.1375   23.7288 O   0  0  0  0  0  0
  -28.8146  -18.0613   18.0849 C   0  0  0  0  0  0
  -29.1768  -16.9425   18.8512 C   0  0  0  0  0  0
  -29.6422  -18.4370   20.7155 C   0  0  0  0  0  0
  -28.8678  -19.3748   18.5958 C   0  0  0  0  0  0
  -29.6169  -17.0769   20.1811 C   0  0  0  0  0  0
  -29.2609  -19.6217   19.9450 C   0  0  0  0  0  0
  -28.5119  -22.1056   20.3205 C   0  0  0  0  0  0
  -28.5402  -20.4941   17.6167 C   0  0  0  0  0  0
  -27.1785  -24.8017   21.7965 C   0  0  0  0  0  0
  -28.9947  -23.6422   20.3756 C   0  0  0  0  0  0
  -27.9009  -24.8499   20.4330 C   0  0  2  0  0  0
  -29.3927  -21.0330   20.4145 N   0  0  0  0  0  0
  -29.8736  -15.8116   20.9085 N   0  0  0  0  0  0
  -27.3029  -21.8882   20.2101 O   0  0  0  0  0  0
  -31.4760  -12.5491   19.1892 H   0  0  0  0  0  0
  -30.3533  -11.4463   19.9352 H   0  0  0  0  0  0
  -29.7831  -11.7661   17.5053 H   0  0  0  0  0  0
  -29.6487  -13.4894   17.7491 H   0  0  0  0  0  0
  -27.8778  -11.2996   18.8861 H   0  0  0  0  0  0
  -27.3837  -12.5770   17.8063 H   0  0  0  0  0  0
  -27.6527  -14.2603   19.5110 H   0  0  0  0  0  0
  -28.7149  -12.1120   21.4094 H   0  0  0  0  0  0
  -28.4227  -13.7717   21.8398 H   0  0  0  0  0  0
  -25.2774   -9.5674   22.4752 H   0  0  0  0  0  0
  -24.0003   -7.4619   22.7468 H   0  0  0  0  0  0
  -21.0846   -8.8790   19.8939 H   0  0  0  0  0  0
  -22.3724  -10.9670   19.6172 H   0  0  0  0  0  0
  -21.2003   -7.6143   23.9706 H   0  0  0  0  0  0
  -21.1495   -6.0518   25.9067 H   0  0  0  0  0  0
  -22.0595   -2.7604   23.2850 H   0  0  0  0  0  0
  -22.4144  -11.9864   22.4768 H   0  0  0  0  0  0
  -21.1106  -13.1205   22.2647 H   0  0  0  0  0  0
  -24.6656  -15.8503   20.5368 H   0  0  0  0  0  0
  -26.2853  -15.6321   20.1102 H   0  0  0  0  0  0
  -26.7242  -32.5384   23.1072 H   0  0  0  0  0  0
  -25.0056  -33.9668   25.0366 H   0  0  0  0  0  0
  -22.7255  -31.3085   21.4026 H   0  0  0  0  0  0
  -23.3759  -35.9624   23.3279 H   0  0  0  0  0  0
  -24.3585  -36.8944   22.2056 H   0  0  0  0  0  0
  -23.7229  -37.6487   23.6670 H   0  0  0  0  0  0
  -26.1174  -31.5272   20.6082 H   0  0  0  0  0  0
  -26.8553  -30.8101   22.0109 H   0  0  0  0  0  0
  -28.1105  -28.9000   21.2147 H   0  0  0  0  0  0
  -25.9289  -25.9513   18.9238 H   0  0  0  0  0  0
  -23.9642  -27.3455   18.9592 H   0  0  0  0  0  0
  -23.7679  -30.6048   19.4049 H   0  0  0  0  0  0
  -22.7585  -29.2660   19.8505 H   0  0  0  0  0  0
  -25.1289  -36.1934   25.0819 H   0  0  0  0  0  0
  -21.0009  -28.3284   24.1362 H   0  0  0  0  0  0
  -20.5648  -26.2334   23.3622 H   0  0  0  0  0  0
  -21.6651  -26.7400   22.1217 H   0  0  0  0  0  0
  -19.6910  -25.6284   21.1249 H   0  0  0  0  0  0
  -19.6661  -27.3181   20.6726 H   0  0  0  0  0  0
  -17.4199  -26.6664   21.4040 H   0  0  0  0  0  0
  -18.0336  -26.0051   22.9014 H   0  0  0  0  0  0
  -19.7950  -30.7277   24.2249 H   0  0  0  0  0  0
  -17.5025  -31.6247   24.5177 H   0  0  0  0  0  0
  -15.5369  -30.2991   23.7611 H   0  0  0  0  0  0
  -15.8694  -28.0818   22.7048 H   0  0  0  0  0  0
  -24.5867  -30.7109   25.7768 H   0  0  0  0  0  0
  -24.8913  -32.2927   26.4834 H   0  0  0  0  0  0
  -25.7999  -30.8932   27.0225 H   0  0  0  0  0  0
  -26.2892  -29.6747   24.1189 H   0  0  0  0  0  0
  -27.3945  -29.7198   25.4721 H   0  0  0  0  0  0
  -27.8805  -30.4221   23.9469 H   0  0  0  0  0  0
  -27.2616  -33.3596   26.2095 H   0  0  0  0  0  0
  -28.3861  -32.6886   25.0357 H   0  0  0  0  0  0
  -28.0695  -31.8427   26.5440 H   0  0  0  0  0  0
  -28.2588  -38.0118   24.7538 H   0  0  0  0  0  0
  -28.1093  -36.2653   24.6236 H   0  0  0  0  0  0
  -27.2314  -37.1410   25.8861 H   0  0  0  0  0  0
  -20.9410  -29.8834   21.6884 H   0  0  0  0  0  0
  -26.0167  -38.2866   24.1415 H   0  0  0  0  0  0
  -28.5048  -17.8961   17.0631 H   0  0  0  0  0  0
  -29.1003  -15.9659   18.3958 H   0  0  0  0  0  0
  -29.9656  -18.5733   21.7382 H   0  0  0  0  0  0
  -28.5679  -20.1398   16.5867 H   0  0  0  0  0  0
  -29.2600  -21.3085   17.6900 H   0  0  0  0  0  0
  -27.5371  -20.8807   17.7948 H   0  0  0  0  0  0
  -26.8405  -23.7958   22.0424 H   0  0  0  0  0  0
  -26.2934  -25.4383   21.8213 H   0  0  0  0  0  0
  -27.8435  -25.1286   22.5951 H   0  0  0  0  0  0
  -29.5962  -23.7885   19.4792 H   0  0  0  0  0  0
  -29.6871  -23.7451   21.2096 H   0  0  0  0  0  0
  -27.1954  -24.5561   19.6601 H   0  0  0  0  0  0
  -30.3208  -21.2886   20.7257 H   0  0  0  0  0  0
  -29.1187  -15.5511   21.5273 H   0  0  0  0  0  0
  1 25  1  0  0  0
  1 30  2  0  0  0
  1 83  1  0  0  0
  2  3  1  0  0  0
  2 25  1  0  0  0
  2 85  1  0  0  0
  2 86  1  0  0  0
  3  4  1  0  0  0
  3 87  1  0  0  0
  3 88  1  0  0  0
  4  5  1  0  0  0
  4 89  1  0  0  0
  4 90  1  0  0  0
  5  6  1  0  0  0
  5 26  1  0  0  0
  5 91  1  0  0  0
  6 25  1  0  0  0
  6 92  1  0  0  0
  6 93  1  0  0  0
  7  8  2  0  0  0
  7 26  1  0  0  0
  7 29  1  0  0  0
  8  9  1  0  0  0
  8 22  1  0  0  0
  9 10  1  0  0  0
  9 27  2  0  0  0
 10 11  2  0  0  0
 10 15  1  0  0  0
 11 12  1  0  0  0
 11 94  1  0  0  0
 12 13  2  0  0  0
 12 95  1  0  0  0
 13 14  1  0  0  0
 13 31  1  0  0  0
 14 15  2  0  0  0
 14 96  1  0  0  0
 15 97  1  0  0  0
 16 17  2  0  0  0
 16 21  1  0  0  0
 16 31  1  0  0  0
 17 18  1  0  0  0
 17 98  1  0  0  0
 18 19  2  0  0  0
 18 99  1  0  0  0
 19 20  1  0  0  0
 19 24  1  0  0  0
 20 21  2  0  0  0
 20100  1  0  0  0
 21 23  1  0  0  0
 22 28  1  0  0  0
 22 32  2  0  0  0
 26 27  1  0  0  0
 28101  1  0  0  0
 28102  1  0  0  0
 29103  1  0  0  0
 29104  1  0  0  0
 33 34  1  0  0  0
 33 66  1  0  0  0
 33 70  2  0  0  0
 34 36  1  0  0  0
 34 59  1  0  0  0
 34105  1  0  0  0
 35 44  2  0  0  0
 35 45  1  0  0  0
 35 68  1  0  0  0
 36 56  1  0  0  0
 36106  1  0  0  0
 37 39  1  0  0  0
 37 47  1  0  0  0
 37 66  1  0  0  0
 37107  1  0  0  0
 38 43  2  0  0  0
 38 46  1  0  0  0
 38 47  1  0  0  0
 39 64  1  0  0  0
 39 67  2  0  0  0
 40 52  1  0  0  0
 40 53  2  0  0  0
 40 58  1  0  0  0
 41108  1  0  0  0
 41109  1  0  0  0
 41110  1  0  0  0
 41 48  1  0  0  0
 42 43  1  0  0  0
 42 66  1  0  0  0
 42111  1  0  0  0
 42112  1  0  0  0
 43 44  1  0  0  0
 44113  1  0  0  0
 45 46  2  0  0  0
 45114  1  0  0  0
 46115  1  0  0  0
 47116  1  0  0  0
 47117  1  0  0  0
 48 56  1  0  0  0
 48 65  1  0  0  0
 48118  1  0  0  0
 49 50  1  0  0  0
 49 53  1  0  0  0
 49 64  1  0  0  0
 49119  1  0  0  0
 50 51  1  0  0  0
 50120  1  0  0  0
 50121  1  0  0  0
 51 52  1  0  0  0
 51122  1  0  0  0
 51123  1  0  0  0
 52124  1  0  0  0
 52125  1  0  0  0
 53 54  1  0  0  0
 54 55  2  0  0  0
 54126  1  0  0  0
 55 57  1  0  0  0
 55127  1  0  0  0
 56 69  2  0  0  0
 57 58  2  0  0  0
 57128  1  0  0  0
 58129  1  0  0  0
 59 60  1  0  0  0
 59 61  1  0  0  0
 59 62  1  0  0  0
 60130  1  0  0  0
 60131  1  0  0  0
 60132  1  0  0  0
 61133  1  0  0  0
 61134  1  0  0  0
 61135  1  0  0  0
 62136  1  0  0  0
 62137  1  0  0  0
 62138  1  0  0  0
 63 65  1  0  0  0
 63139  1  0  0  0
 63140  1  0  0  0
 63141  1  0  0  0
 64142  1  0  0  0
 65143  1  0  0  0
 68 81  1  0  0  0
 71 72  2  0  0  0
 71 74  1  0  0  0
 71144  1  0  0  0
 72 75  1  0  0  0
 72145  1  0  0  0
 73 75  2  0  0  0
 73 76  1  0  0  0
 73146  1  0  0  0
 74 76  2  0  0  0
 74 78  1  0  0  0
 75 83  1  0  0  0
 76 82  1  0  0  0
 77 80  1  0  0  0
 77 82  1  0  0  0
 77 84  2  0  0  0
 78147  1  0  0  0
 78148  1  0  0  0
 78149  1  0  0  0
 79150  1  0  0  0
 79151  1  0  0  0
 79152  1  0  0  0
 79 81  1  0  0  0
 80 81  1  0  0  0
 80153  1  0  0  0
 80154  1  0  0  0
 81155  1  0  0  0
 82156  1  0  0  0
 83157  1  0  0  0
M  ISO  4   1 100  68 101  81 101  83 100
M  END
> <chiral flag>
0

> <version>
0

> <s_m_source_file>
/data/baiqing/PycharmProjects/Reinvent-master-3.2/result/LINK_invent/BTK/process_docking_weight1_custom_product_contain_oxygen_bond_distance_aromatic_linkinvent_7_9_3/rearranged_h_0068.sdf

> <i_m_source_file_index>
37

> <r_mmod_Potential_Energy-OPLS-2005>
185.539642333984

> <r_mmod_Stretch_Energy-OPLS-2005>
133.579986572266

> <r_mmod_Bend_Energy-OPLS-2005>
161.108734130859

> <r_mmod_Torsional_Energy-OPLS-2005>
279.482849121094

> <r_mmod_Improper_Torsional_Energy-OPLS-2005>
6.33136224746704

> <r_mmod_Van_der_Waal_Energy-OPLS-2005>
145.350357055664

> <r_mmod_Electrostatic_Energy-OPLS-2005>
-395.641632080078

> <r_mmod_Solvation_Energy-OPLS-2005>
-228.835189819336

> <b_mmod_Minimization_Converged-OPLS-2005>
0

> <r_mmod_RMS_Derivative-OPLS-2005>
2.59176588058472

$$$$
37
                    3D
 Structure written by MMmdl.
159168  0  0  1  0            999 V2000
  -30.5909  -14.7181   20.4730 C   0  0  0  0  0  0
  -30.4438  -12.4387   19.4640 C   0  0  0  0  0  0
  -29.5146  -12.5151   18.2314 C   0  0  0  0  0  0
  -28.0379  -12.3419   18.6405 C   0  0  0  0  0  0
  -27.6483  -13.2236   19.8564 C   0  0  2  0  0  0
  -28.6939  -13.1154   20.9890 C   0  0  0  0  0  0
  -25.2545  -13.8181   20.5686 C   0  0  0  0  0  0
  -24.1825  -13.0437   20.9204 C   0  0  0  0  0  0
  -24.6408  -11.6915   20.8747 C   0  0  0  0  0  0
  -23.9079  -10.4299   21.0413 C   0  0  0  0  0  0
  -24.3623   -9.4207   21.9187 C   0  0  0  0  0  0
  -23.6296   -8.2243   22.0754 C   0  0  0  0  0  0
  -22.4277   -8.0286   21.3541 C   0  0  0  0  0  0
  -21.9918   -9.0270   20.4650 C   0  0  0  0  0  0
  -22.7252  -10.2144   20.3064 C   0  0  0  0  0  0
  -21.6851   -6.0744   22.5287 C   0  0  0  0  0  0
  -21.4013   -6.5645   23.8224 C   0  0  0  0  0  0
  -21.3662   -5.6792   24.9179 C   0  0  0  0  0  0
  -21.6040   -4.3057   24.7225 C   0  0  0  0  0  0
  -21.8817   -3.8154   23.4346 C   0  0  0  0  0  0
  -21.9194   -4.6973   22.3404 C   0  0  0  0  0  0
  -22.7845  -13.5227   21.1857 C   0  0  0  0  0  0
  -22.1658   -4.2162   21.0980 F   0  0  0  0  0  0
  -21.5628   -3.4538   25.7737 F   0  0  0  0  0  0
  -30.0001  -13.4770   20.4179 N   0  0  0  0  0  0
  -26.2972  -12.9371   20.3283 N   0  0  0  0  0  0
  -25.9336  -11.6521   20.5740 N   0  0  0  0  0  0
  -22.0481  -12.8236   22.0418 N   0  0  0  0  0  0
  -25.4228  -15.1907   20.4077 N   0  0  0  0  0  0
  -31.7745  -14.8525   20.1617 O   0  0  0  0  0  0
  -21.6635   -6.8884   21.4245 O   0  0  0  0  0  0
  -22.3541  -14.5538   20.6704 O   0  0  0  0  0  0
  -24.6285  -31.8565   23.2003 C   0  0  0  0  0  0
  -25.9127  -32.4764   23.8333 C   0  0  1  0  0  0
  -27.2301  -27.2986   20.1280 C   0  0  0  0  0  0
  -25.5933  -33.8566   24.2265 N   0  0  0  0  0  0
  -23.4253  -30.4775   21.5415 C   0  0  2  0  0  0
  -24.8787  -28.9279   20.1109 C   0  0  0  0  0  0
  -22.7491  -29.4596   22.4913 C   0  0  0  0  0  0
  -18.0293  -28.1384   22.8491 C   0  0  0  0  0  0
  -24.1487  -36.7284   23.2638 C   0  0  0  0  0  0
  -25.9672  -30.7821   21.3741 C   0  0  0  0  0  0
  -26.0474  -29.4051   20.7213 C   0  0  0  0  0  0
  -27.2298  -28.6005   20.7251 C   0  0  0  0  0  0
  -26.0449  -26.8781   19.4943 C   0  0  0  0  0  0
  -24.8801  -27.6692   19.4883 C   0  0  0  0  0  0
  -23.6454  -29.8091   20.1580 C   0  0  0  0  0  0
  -25.4110  -36.3077   24.0333 C   0  0  1  0  0  0
  -20.5894  -28.3688   23.1282 C   0  0  2  0  0  0
  -20.6771  -26.9410   22.5411 C   0  0  0  0  0  0
  -19.5744  -26.6390   21.5210 C   0  0  0  0  0  0
  -18.1930  -26.7931   22.1629 C   0  0  0  0  0  0
  -19.1546  -28.8856   23.2884 C   0  0  0  0  0  0
  -18.9464  -30.1461   23.8896 C   0  0  0  0  0  0
  -17.6460  -30.6589   24.0565 C   0  0  0  0  0  0
  -25.9050  -34.9449   23.5099 C   0  0  0  0  0  0
  -16.5355  -29.9083   23.6327 C   0  0  0  0  0  0
  -16.7279  -28.6499   23.0353 C   0  0  0  0  0  0
  -26.4504  -31.6577   25.0704 C   0  0  0  0  0  0
  -25.3728  -31.3728   26.1423 C   0  0  0  0  0  0
  -27.0330  -30.2994   24.6156 C   0  0  0  0  0  0
  -27.6060  -32.4302   25.7486 C   0  0  0  0  0  0
  -27.5578  -37.1797   24.8472 C   0  0  0  0  0  0
  -21.4198  -29.3036   22.3666 N   0  0  0  0  0  0
  -26.4291  -37.3770   23.9414 N   0  0  0  0  0  0
  -24.6922  -31.0561   22.0958 N   0  0  0  0  0  0
  -23.4203  -28.8138   23.3004 O   0  0  0  0  0  0
  -28.2807  -26.3655   20.1688 O   0  0  0  0  0  0
  -26.5617  -34.8923   22.4661 O   0  0  0  0  0  0
  -23.5442  -32.1366   23.7319 O   0  0  0  0  0  0
  -28.7207  -19.3498   21.6257 C   0  0  0  0  0  0
  -28.8433  -17.9315   21.5246 C   0  0  0  0  0  0
  -30.4532  -19.5965   20.0014 C   0  0  0  0  0  0
  -30.5752  -18.1608   19.8661 C   0  0  0  0  0  0
  -29.5468  -20.2418   20.8912 C   0  0  0  0  0  0
  -29.7871  -17.2682   20.6871 C   0  0  0  0  0  0
  -28.5204  -24.1303   21.4797 C   0  0  0  0  0  0
  -30.3700  -21.8736   22.4609 C   0  0  0  0  0  0
  -28.2520  -25.4795   21.2582 C   0  0  0  0  0  0
  -28.9863  -22.8918   20.5824 C   0  0  0  0  0  0
  -28.3620  -23.6994   22.9259 C   0  0  0  0  0  0
  -31.5656  -17.6586   18.8117 C   0  0  0  0  0  0
  -29.6462  -21.6760   21.2724 N   0  0  0  0  0  0
  -29.7412  -15.7786   20.7318 N   0  0  0  0  0  0
  -31.2425  -21.0840   22.8586 O   0  0  0  0  0  0
  -30.9616  -24.3589   23.1713 O   0  0  0  0  0  0
  -29.9328  -22.8096   24.9059 O   0  0  0  0  0  0
  -32.7156  -17.3118   19.3877 F   0  0  0  0  0  0
  -31.0648  -16.6336   18.1226 F   0  0  0  0  0  0
  -31.8447  -18.6105   17.9182 F   0  0  0  0  0  0
  -30.0288  -23.2632   23.5028 S   0  0  0  0  0  0
  -31.4831  -12.5791   19.1625 H   0  0  0  0  0  0
  -30.3966  -11.4517   19.9265 H   0  0  0  0  0  0
  -29.7914  -11.7564   17.4984 H   0  0  0  0  0  0
  -29.6462  -13.4786   17.7354 H   0  0  0  0  0  0
  -27.8842  -11.2894   18.8819 H   0  0  0  0  0  0
  -27.3849  -12.5579   17.7942 H   0  0  0  0  0  0
  -27.6527  -14.2524   19.4955 H   0  0  0  0  0  0
  -28.7240  -12.1019   21.3930 H   0  0  0  0  0  0
  -28.4308  -13.7632   21.8272 H   0  0  0  0  0  0
  -25.2763   -9.5687   22.4764 H   0  0  0  0  0  0
  -24.0011   -7.4635   22.7473 H   0  0  0  0  0  0
  -21.0848   -8.8796   19.8961 H   0  0  0  0  0  0
  -22.3710  -10.9687   19.6184 H   0  0  0  0  0  0
  -21.2000   -7.6155   23.9730 H   0  0  0  0  0  0
  -21.1481   -6.0520   25.9083 H   0  0  0  0  0  0
  -22.0592   -2.7618   23.2840 H   0  0  0  0  0  0
  -22.4072  -11.9895   22.4824 H   0  0  0  0  0  0
  -21.1104  -13.1286   22.2605 H   0  0  0  0  0  0
  -24.6450  -15.8345   20.5033 H   0  0  0  0  0  0
  -26.2547  -15.6327   20.0386 H   0  0  0  0  0  0
  -26.7198  -32.5442   23.1081 H   0  0  0  0  0  0
  -25.0082  -33.9693   25.0416 H   0  0  0  0  0  0
  -22.7198  -31.2984   21.3949 H   0  0  0  0  0  0
  -23.3753  -35.9614   23.3303 H   0  0  0  0  0  0
  -24.3572  -36.8893   22.2053 H   0  0  0  0  0  0
  -23.7250  -37.6489   23.6648 H   0  0  0  0  0  0
  -26.0952  -31.5408   20.6009 H   0  0  0  0  0  0
  -26.8473  -30.8361   22.0033 H   0  0  0  0  0  0
  -28.1243  -28.9539   21.2187 H   0  0  0  0  0  0
  -26.0146  -25.9005   19.0352 H   0  0  0  0  0  0
  -23.9836  -27.2944   19.0141 H   0  0  0  0  0  0
  -23.7674  -30.5833   19.3993 H   0  0  0  0  0  0
  -22.7651  -29.2396   19.8548 H   0  0  0  0  0  0
  -25.1294  -36.1916   25.0827 H   0  0  0  0  0  0
  -20.9989  -28.3268   24.1402 H   0  0  0  0  0  0
  -20.5653  -26.2298   23.3607 H   0  0  0  0  0  0
  -21.6637  -26.7425   22.1212 H   0  0  0  0  0  0
  -19.6892  -25.6302   21.1232 H   0  0  0  0  0  0
  -19.6685  -27.3199   20.6740 H   0  0  0  0  0  0
  -17.4195  -26.6693   21.4037 H   0  0  0  0  0  0
  -18.0341  -26.0068   22.9020 H   0  0  0  0  0  0
  -19.7937  -30.7288   24.2258 H   0  0  0  0  0  0
  -17.5011  -31.6265   24.5171 H   0  0  0  0  0  0
  -15.5351  -30.2981   23.7651 H   0  0  0  0  0  0
  -15.8683  -28.0817   22.7059 H   0  0  0  0  0  0
  -24.5933  -30.7035   25.7767 H   0  0  0  0  0  0
  -24.8882  -32.2890   26.4803 H   0  0  0  0  0  0
  -25.8054  -30.8958   27.0223 H   0  0  0  0  0  0
  -26.2893  -29.6761   24.1169 H   0  0  0  0  0  0
  -27.4009  -29.7241   25.4661 H   0  0  0  0  0  0
  -27.8778  -30.4274   23.9383 H   0  0  0  0  0  0
  -27.2682  -33.3617   26.2040 H   0  0  0  0  0  0
  -28.3897  -32.6825   25.0330 H   0  0  0  0  0  0
  -28.0685  -31.8423   26.5423 H   0  0  0  0  0  0
  -28.2604  -38.0086   24.7498 H   0  0  0  0  0  0
  -28.1065  -36.2612   24.6316 H   0  0  0  0  0  0
  -27.2289  -37.1476   25.8875 H   0  0  0  0  0  0
  -20.9376  -29.8778   21.6887 H   0  0  0  0  0  0
  -26.0171  -38.2843   24.1402 H   0  0  0  0  0  0
  -28.0188  -19.7516   22.3441 H   0  0  0  0  0  0
  -28.1934  -17.3349   22.1508 H   0  0  0  0  0  0
  -31.1213  -20.2296   19.4373 H   0  0  0  0  0  0
  -27.9538  -26.0635   22.1197 H   0  0  0  0  0  0
  -29.6672  -23.2613   19.8152 H   0  0  0  0  0  0
  -28.1110  -22.5245   20.0480 H   0  0  0  0  0  0
  -27.7129  -22.8312   23.0249 H   0  0  0  0  0  0
  -27.9829  -24.4733   23.5879 H   0  0  0  0  0  0
  -28.8523  -15.4299   21.0537 H   0  0  0  0  0  0
  1 25  1  0  0  0
  1 30  2  0  0  0
  1 84  1  0  0  0
  2  3  1  0  0  0
  2 25  1  0  0  0
  2 92  1  0  0  0
  2 93  1  0  0  0
  3  4  1  0  0  0
  3 94  1  0  0  0
  3 95  1  0  0  0
  4  5  1  0  0  0
  4 96  1  0  0  0
  4 97  1  0  0  0
  5  6  1  0  0  0
  5 26  1  0  0  0
  5 98  1  0  0  0
  6 25  1  0  0  0
  6 99  1  0  0  0
  6100  1  0  0  0
  7  8  2  0  0  0
  7 26  1  0  0  0
  7 29  1  0  0  0
  8  9  1  0  0  0
  8 22  1  0  0  0
  9 10  1  0  0  0
  9 27  2  0  0  0
 10 11  2  0  0  0
 10 15  1  0  0  0
 11 12  1  0  0  0
 11101  1  0  0  0
 12 13  2  0  0  0
 12102  1  0  0  0
 13 14  1  0  0  0
 13 31  1  0  0  0
 14 15  2  0  0  0
 14103  1  0  0  0
 15104  1  0  0  0
 16 17  2  0  0  0
 16 21  1  0  0  0
 16 31  1  0  0  0
 17 18  1  0  0  0
 17105  1  0  0  0
 18 19  2  0  0  0
 18106  1  0  0  0
 19 20  1  0  0  0
 19 24  1  0  0  0
 20 21  2  0  0  0
 20107  1  0  0  0
 21 23  1  0  0  0
 22 28  1  0  0  0
 22 32  2  0  0  0
 26 27  1  0  0  0
 28108  1  0  0  0
 28109  1  0  0  0
 29110  1  0  0  0
 29111  1  0  0  0
 33 34  1  0  0  0
 33 66  1  0  0  0
 33 70  2  0  0  0
 34 36  1  0  0  0
 34 59  1  0  0  0
 34112  1  0  0  0
 35 44  2  0  0  0
 35 45  1  0  0  0
 35 68  1  0  0  0
 36 56  1  0  0  0
 36113  1  0  0  0
 37 39  1  0  0  0
 37 47  1  0  0  0
 37 66  1  0  0  0
 37114  1  0  0  0
 38 43  2  0  0  0
 38 46  1  0  0  0
 38 47  1  0  0  0
 39 64  1  0  0  0
 39 67  2  0  0  0
 40 52  1  0  0  0
 40 53  2  0  0  0
 40 58  1  0  0  0
 41115  1  0  0  0
 41116  1  0  0  0
 41117  1  0  0  0
 41 48  1  0  0  0
 42 43  1  0  0  0
 42 66  1  0  0  0
 42118  1  0  0  0
 42119  1  0  0  0
 43 44  1  0  0  0
 44120  1  0  0  0
 45 46  2  0  0  0
 45121  1  0  0  0
 46122  1  0  0  0
 47123  1  0  0  0
 47124  1  0  0  0
 48 56  1  0  0  0
 48 65  1  0  0  0
 48125  1  0  0  0
 49 50  1  0  0  0
 49 53  1  0  0  0
 49 64  1  0  0  0
 49126  1  0  0  0
 50 51  1  0  0  0
 50127  1  0  0  0
 50128  1  0  0  0
 51 52  1  0  0  0
 51129  1  0  0  0
 51130  1  0  0  0
 52131  1  0  0  0
 52132  1  0  0  0
 53 54  1  0  0  0
 54 55  2  0  0  0
 54133  1  0  0  0
 55 57  1  0  0  0
 55134  1  0  0  0
 56 69  2  0  0  0
 57 58  2  0  0  0
 57135  1  0  0  0
 58136  1  0  0  0
 59 60  1  0  0  0
 59 61  1  0  0  0
 59 62  1  0  0  0
 60137  1  0  0  0
 60138  1  0  0  0
 60139  1  0  0  0
 61140  1  0  0  0
 61141  1  0  0  0
 61142  1  0  0  0
 62143  1  0  0  0
 62144  1  0  0  0
 62145  1  0  0  0
 63 65  1  0  0  0
 63146  1  0  0  0
 63147  1  0  0  0
 63148  1  0  0  0
 64149  1  0  0  0
 65150  1  0  0  0
 68 79  1  0  0  0
 71 72  2  0  0  0
 71 75  1  0  0  0
 71151  1  0  0  0
 72 76  1  0  0  0
 72152  1  0  0  0
 73 74  1  0  0  0
 73 75  2  0  0  0
 73153  1  0  0  0
 74 76  2  0  0  0
 74 82  1  0  0  0
 75 83  1  0  0  0
 76 84  1  0  0  0
 77 79  2  0  0  0
 77 80  1  0  0  0
 77 81  1  0  0  0
 78 83  1  0  0  0
 78 85  2  0  0  0
 78 91  1  0  0  0
 79154  1  0  0  0
 80 83  1  0  0  0
 80155  1  0  0  0
 80156  1  0  0  0
 81157  1  0  0  0
 81158  1  0  0  0
 81 91  1  0  0  0
 82 88  1  0  0  0
 82 89  1  0  0  0
 82 90  1  0  0  0
 84159  1  0  0  0
 86 91  2  0  0  0
 87 91  2  0  0  0
M  ISO  4   1 100  68 101  79 101  84 100
M  END
> <chiral flag>
0

> <version>
0

> <s_m_source_file>
/data/baiqing/PycharmProjects/Reinvent-master-3.2/result/LINK_invent/BTK/process_docking_weight1_custom_product_contain_oxygen_bond_distance_aromatic_linkinvent_7_9_3/rearranged_h_0068.sdf

> <i_m_source_file_index>
38

> <r_mmod_Potential_Energy-OPLS-2005>
319.927307128906

> <r_mmod_Stretch_Energy-OPLS-2005>
116.395004272461

> <r_mmod_Bend_Energy-OPLS-2005>
221.216049194336

> <r_mmod_Torsional_Energy-OPLS-2005>
300.693969726562

> <r_mmod_Improper_Torsional_Energy-OPLS-2005>
6.4492244720459

> <r_mmod_Van_der_Waal_Energy-OPLS-2005>
142.409393310547

> <r_mmod_Electrostatic_Energy-OPLS-2005>
-251.599349975586

> <r_mmod_Solvation_Energy-OPLS-2005>
-290.204986572266

> <b_mmod_Minimization_Converged-OPLS-2005>
0

> <r_mmod_RMS_Derivative-OPLS-2005>
1.59831643104553

$$$$
38
                    3D
 Structure written by MMmdl.
153162  0  0  1  0            999 V2000
  -30.5850  -14.8930   20.3945 C   0  0  0  0  0  0
  -30.4425  -12.5353   19.4891 C   0  0  0  0  0  0
  -29.5193  -12.4403   18.2536 C   0  0  0  0  0  0
  -28.0420  -12.2886   18.6732 C   0  0  0  0  0  0
  -27.6262  -13.2317   19.8356 C   0  0  2  0  0  0
  -28.6805  -13.2739   20.9615 C   0  0  0  0  0  0
  -25.2496  -13.8176   20.5835 C   0  0  0  0  0  0
  -24.1764  -13.0413   20.9221 C   0  0  0  0  0  0
  -24.6354  -11.6894   20.8753 C   0  0  0  0  0  0
  -23.9054  -10.4269   21.0416 C   0  0  0  0  0  0
  -24.3604   -9.4179   21.9193 C   0  0  0  0  0  0
  -23.6270   -8.2221   22.0752 C   0  0  0  0  0  0
  -22.4263   -8.0260   21.3526 C   0  0  0  0  0  0
  -21.9901   -9.0245   20.4644 C   0  0  0  0  0  0
  -22.7229  -10.2121   20.3061 C   0  0  0  0  0  0
  -21.6837   -6.0726   22.5278 C   0  0  0  0  0  0
  -21.4001   -6.5632   23.8212 C   0  0  0  0  0  0
  -21.3658   -5.6784   24.9179 C   0  0  0  0  0  0
  -21.6052   -4.3047   24.7219 C   0  0  0  0  0  0
  -21.8814   -3.8137   23.4339 C   0  0  0  0  0  0
  -21.9177   -4.6957   22.3398 C   0  0  0  0  0  0
  -22.7783  -13.5205   21.1874 C   0  0  0  0  0  0
  -22.1649   -4.2149   21.0970 F   0  0  0  0  0  0
  -21.5641   -3.4522   25.7724 F   0  0  0  0  0  0
  -29.9567  -13.6529   20.3416 N   0  0  0  0  0  0
  -26.2883  -12.9368   20.3323 N   0  0  0  0  0  0
  -25.9287  -11.6516   20.5795 N   0  0  0  0  0  0
  -22.0426  -12.8201   22.0439 N   0  0  0  0  0  0
  -25.4270  -15.1915   20.4492 N   0  0  0  0  0  0
  -31.8089  -14.9182   20.2264 O   0  0  0  0  0  0
  -21.6611   -6.8867   21.4236 O   0  0  0  0  0  0
  -22.3485  -14.5511   20.6720 O   0  0  0  0  0  0
  -24.6392  -31.8471   23.1927 C   0  0  0  0  0  0
  -25.9179  -32.4708   23.8299 C   0  0  1  0  0  0
  -27.2093  -27.1657   20.1440 C   0  0  0  0  0  0
  -25.5930  -33.8513   24.2207 N   0  0  0  0  0  0
  -23.4425  -30.4701   21.5370 C   0  0  2  0  0  0
  -24.8925  -28.9104   20.1041 C   0  0  0  0  0  0
  -22.7555  -29.4556   22.4855 C   0  0  0  0  0  0
  -18.0309  -28.1385   22.8483 C   0  0  0  0  0  0
  -24.1496  -36.7286   23.2636 C   0  0  0  0  0  0
  -25.9979  -30.7242   21.3949 C   0  0  0  0  0  0
  -26.0655  -29.3398   20.7383 C   0  0  0  0  0  0
  -27.2227  -28.4770   20.7568 C   0  0  0  0  0  0
  -26.0280  -26.8623   19.4250 C   0  0  0  0  0  0
  -24.8830  -27.6822   19.4335 C   0  0  0  0  0  0
  -23.6680  -29.8081   20.1532 C   0  0  0  0  0  0
  -25.4118  -36.3044   24.0318 C   0  0  1  0  0  0
  -20.5920  -28.3709   23.1229 C   0  0  2  0  0  0
  -20.6788  -26.9411   22.5389 C   0  0  0  0  0  0
  -19.5752  -26.6368   21.5207 C   0  0  0  0  0  0
  -18.1948  -26.7911   22.1647 C   0  0  0  0  0  0
  -19.1565  -28.8868   23.2848 C   0  0  0  0  0  0
  -18.9479  -30.1468   23.8865 C   0  0  0  0  0  0
  -17.6472  -30.6587   24.0557 C   0  0  0  0  0  0
  -25.9061  -34.9413   23.5077 C   0  0  0  0  0  0
  -16.5365  -29.9081   23.6327 C   0  0  0  0  0  0
  -16.7295  -28.6502   23.0349 C   0  0  0  0  0  0
  -26.4512  -31.6551   25.0725 C   0  0  0  0  0  0
  -25.3715  -31.3766   26.1448 C   0  0  0  0  0  0
  -27.0349  -30.2929   24.6297 C   0  0  0  0  0  0
  -27.6041  -32.4317   25.7497 C   0  0  0  0  0  0
  -27.5595  -37.1772   24.8449 C   0  0  0  0  0  0
  -21.4244  -29.3052   22.3609 N   0  0  0  0  0  0
  -26.4281  -37.3757   23.9427 N   0  0  0  0  0  0
  -24.7128  -31.0353   22.0957 N   0  0  0  0  0  0
  -23.4210  -28.8078   23.2979 O   0  0  0  0  0  0
  -28.2351  -26.1575   20.2314 O   0  0  0  0  0  0
  -26.5664  -34.8897   22.4665 O   0  0  0  0  0  0
  -23.5511  -32.1351   23.7143 O   0  0  0  0  0  0
  -30.3098  -20.0266   22.1331 C   0  0  0  0  0  0
  -30.7583  -18.8199   22.7181 C   0  0  0  0  0  0
  -29.4892  -18.7551   20.2935 C   0  0  0  0  0  0
  -29.6241  -20.0998   20.8958 C   0  0  0  0  0  0
  -29.9775  -17.4599   20.8361 C   0  0  0  0  0  0
  -30.5930  -17.5635   22.1021 C   0  0  0  0  0  0
  -28.4979  -23.4855   20.3894 C   0  0  0  0  0  0
  -27.8843  -22.1428   20.3868 C   0  0  0  0  0  0
  -27.8633  -24.7466   20.2741 C   0  0  0  0  0  0
  -29.8654  -22.7677   20.6005 C   0  0  0  0  0  0
  -29.2428  -16.1895   18.8463 C   0  0  0  0  0  0
  -29.1346  -21.4593   20.4200 N   0  0  0  0  0  0
  -29.8361  -16.0896   20.1869 N   0  0  0  0  0  0
  -26.7179  -21.8178   20.4531 O   0  0  0  0  0  0
  -31.0139  -16.4568   22.7622 F   0  0  0  0  0  0
  -31.4740  -12.6867   19.1652 H   0  0  0  0  0  0
  -30.4369  -11.5984   20.0491 H   0  0  0  0  0  0
  -29.8095  -11.5862   17.6411 H   0  0  0  0  0  0
  -29.6534  -13.3079   17.6116 H   0  0  0  0  0  0
  -27.9101  -11.2519   18.9859 H   0  0  0  0  0  0
  -27.3830  -12.4226   17.8149 H   0  0  0  0  0  0
  -27.5673  -14.2262   19.4017 H   0  0  0  0  0  0
  -28.7561  -12.3122   21.4706 H   0  0  0  0  0  0
  -28.4034  -14.0088   21.7182 H   0  0  0  0  0  0
  -25.2755   -9.5629   22.4765 H   0  0  0  0  0  0
  -23.9949   -7.4600   22.7476 H   0  0  0  0  0  0
  -21.0831   -8.8776   19.8953 H   0  0  0  0  0  0
  -22.3702  -10.9658   19.6163 H   0  0  0  0  0  0
  -21.1994   -7.6141   23.9717 H   0  0  0  0  0  0
  -21.1501   -6.0521   25.9085 H   0  0  0  0  0  0
  -22.0595   -2.7597   23.2845 H   0  0  0  0  0  0
  -22.4022  -11.9854   22.4836 H   0  0  0  0  0  0
  -21.1052  -13.1248   22.2672 H   0  0  0  0  0  0
  -24.6907  -15.8551   20.6620 H   0  0  0  0  0  0
  -26.3234  -15.6309   20.2820 H   0  0  0  0  0  0
  -26.7235  -32.5327   23.1018 H   0  0  0  0  0  0
  -24.9980  -33.9610   25.0289 H   0  0  0  0  0  0
  -22.7436  -31.2959   21.3871 H   0  0  0  0  0  0
  -23.3744  -35.9627   23.3247 H   0  0  0  0  0  0
  -24.3599  -36.8968   22.2058 H   0  0  0  0  0  0
  -23.7242  -37.6470   23.6697 H   0  0  0  0  0  0
  -26.1557  -31.4769   20.6209 H   0  0  0  0  0  0
  -26.8686  -30.7716   22.0375 H   0  0  0  0  0  0
  -28.1091  -28.7892   21.2900 H   0  0  0  0  0  0
  -25.9484  -25.9461   18.8591 H   0  0  0  0  0  0
  -23.9957  -27.3598   18.9047 H   0  0  0  0  0  0
  -23.8023  -30.5866   19.4017 H   0  0  0  0  0  0
  -22.7835  -29.2503   19.8407 H   0  0  0  0  0  0
  -25.1286  -36.1878   25.0804 H   0  0  0  0  0  0
  -21.0019  -28.3293   24.1345 H   0  0  0  0  0  0
  -20.5682  -26.2322   23.3612 H   0  0  0  0  0  0
  -21.6652  -26.7416   22.1186 H   0  0  0  0  0  0
  -19.6911  -25.6279   21.1235 H   0  0  0  0  0  0
  -19.6664  -27.3174   20.6733 H   0  0  0  0  0  0
  -17.4196  -26.6634   21.4077 H   0  0  0  0  0  0
  -18.0379  -26.0073   22.9071 H   0  0  0  0  0  0
  -19.7953  -30.7295   24.2219 H   0  0  0  0  0  0
  -17.5024  -31.6256   24.5172 H   0  0  0  0  0  0
  -15.5361  -30.2976   23.7656 H   0  0  0  0  0  0
  -15.8702  -28.0811   22.7058 H   0  0  0  0  0  0
  -24.5731  -30.7333   25.7736 H   0  0  0  0  0  0
  -24.9129  -32.2990   26.5013 H   0  0  0  0  0  0
  -25.7968  -30.8741   27.0140 H   0  0  0  0  0  0
  -26.2948  -29.6657   24.1305 H   0  0  0  0  0  0
  -27.3945  -29.7223   25.4867 H   0  0  0  0  0  0
  -27.8880  -30.4142   23.9620 H   0  0  0  0  0  0
  -27.2598  -33.3583   26.2103 H   0  0  0  0  0  0
  -28.3826  -32.6938   25.0324 H   0  0  0  0  0  0
  -28.0743  -31.8444   26.5393 H   0  0  0  0  0  0
  -28.2540  -38.0142   24.7584 H   0  0  0  0  0  0
  -28.1163  -36.2671   24.6149 H   0  0  0  0  0  0
  -27.2336  -37.1269   25.8855 H   0  0  0  0  0  0
  -20.9438  -29.8799   21.6822 H   0  0  0  0  0  0
  -26.0149  -38.2818   24.1460 H   0  0  0  0  0  0
  -30.4780  -20.9293   22.7017 H   0  0  0  0  0  0
  -31.2381  -18.8566   23.6843 H   0  0  0  0  0  0
  -28.9743  -18.7339   19.3457 H   0  0  0  0  0  0
  -26.7922  -24.6497   20.2106 H   0  0  0  0  0  0
  -30.3037  -22.8680   21.5944 H   0  0  0  0  0  0
  -30.6360  -22.9093   19.8420 H   0  0  0  0  0  0
  -28.2168  -16.5532   18.9012 H   0  0  0  0  0  0
  -29.2232  -15.2602   18.2887 H   0  0  0  0  0  0
  -29.8183  -16.8851   18.2346 H   0  0  0  0  0  0
  1 25  1  0  0  0
  1 30  2  0  0  0
  1 83  1  0  0  0
  2  3  1  0  0  0
  2 25  1  0  0  0
  2 86  1  0  0  0
  2 87  1  0  0  0
  3  4  1  0  0  0
  3 88  1  0  0  0
  3 89  1  0  0  0
  4  5  1  0  0  0
  4 90  1  0  0  0
  4 91  1  0  0  0
  5  6  1  0  0  0
  5 26  1  0  0  0
  5 92  1  0  0  0
  6 25  1  0  0  0
  6 93  1  0  0  0
  6 94  1  0  0  0
  7  8  2  0  0  0
  7 26  1  0  0  0
  7 29  1  0  0  0
  8  9  1  0  0  0
  8 22  1  0  0  0
  9 10  1  0  0  0
  9 27  2  0  0  0
 10 11  2  0  0  0
 10 15  1  0  0  0
 11 12  1  0  0  0
 11 95  1  0  0  0
 12 13  2  0  0  0
 12 96  1  0  0  0
 13 14  1  0  0  0
 13 31  1  0  0  0
 14 15  2  0  0  0
 14 97  1  0  0  0
 15 98  1  0  0  0
 16 17  2  0  0  0
 16 21  1  0  0  0
 16 31  1  0  0  0
 17 18  1  0  0  0
 17 99  1  0  0  0
 18 19  2  0  0  0
 18100  1  0  0  0
 19 20  1  0  0  0
 19 24  1  0  0  0
 20 21  2  0  0  0
 20101  1  0  0  0
 21 23  1  0  0  0
 22 28  1  0  0  0
 22 32  2  0  0  0
 26 27  1  0  0  0
 28102  1  0  0  0
 28103  1  0  0  0
 29104  1  0  0  0
 29105  1  0  0  0
 33 34  1  0  0  0
 33 66  1  0  0  0
 33 70  2  0  0  0
 34 36  1  0  0  0
 34 59  1  0  0  0
 34106  1  0  0  0
 35 44  2  0  0  0
 35 45  1  0  0  0
 35 68  1  0  0  0
 36 56  1  0  0  0
 36107  1  0  0  0
 37 39  1  0  0  0
 37 47  1  0  0  0
 37 66  1  0  0  0
 37108  1  0  0  0
 38 43  2  0  0  0
 38 46  1  0  0  0
 38 47  1  0  0  0
 39 64  1  0  0  0
 39 67  2  0  0  0
 40 52  1  0  0  0
 40 53  2  0  0  0
 40 58  1  0  0  0
 41109  1  0  0  0
 41110  1  0  0  0
 41111  1  0  0  0
 41 48  1  0  0  0
 42 43  1  0  0  0
 42 66  1  0  0  0
 42112  1  0  0  0
 42113  1  0  0  0
 43 44  1  0  0  0
 44114  1  0  0  0
 45 46  2  0  0  0
 45115  1  0  0  0
 46116  1  0  0  0
 47117  1  0  0  0
 47118  1  0  0  0
 48 56  1  0  0  0
 48 65  1  0  0  0
 48119  1  0  0  0
 49 50  1  0  0  0
 49 53  1  0  0  0
 49 64  1  0  0  0
 49120  1  0  0  0
 50 51  1  0  0  0
 50121  1  0  0  0
 50122  1  0  0  0
 51 52  1  0  0  0
 51123  1  0  0  0
 51124  1  0  0  0
 52125  1  0  0  0
 52126  1  0  0  0
 53 54  1  0  0  0
 54 55  2  0  0  0
 54127  1  0  0  0
 55 57  1  0  0  0
 55128  1  0  0  0
 56 69  2  0  0  0
 57 58  2  0  0  0
 57129  1  0  0  0
 58130  1  0  0  0
 59 60  1  0  0  0
 59 61  1  0  0  0
 59 62  1  0  0  0
 60131  1  0  0  0
 60132  1  0  0  0
 60133  1  0  0  0
 61134  1  0  0  0
 61135  1  0  0  0
 61136  1  0  0  0
 62137  1  0  0  0
 62138  1  0  0  0
 62139  1  0  0  0
 63 65  1  0  0  0
 63140  1  0  0  0
 63141  1  0  0  0
 63142  1  0  0  0
 64143  1  0  0  0
 65144  1  0  0  0
 68 79  1  0  0  0
 71 72  2  0  0  0
 71 74  1  0  0  0
 71145  1  0  0  0
 72 76  1  0  0  0
 72146  1  0  0  0
 73 74  2  0  0  0
 73 75  1  0  0  0
 73147  1  0  0  0
 74 82  1  0  0  0
 75 76  2  0  0  0
 75 83  1  0  0  0
 76 85  1  0  0  0
 77 78  1  0  0  0
 77 79  2  0  0  0
 77 80  1  0  0  0
 78 82  1  0  0  0
 78 84  2  0  0  0
 79148  1  0  0  0
 80 82  1  0  0  0
 80149  1  0  0  0
 80150  1  0  0  0
 81 83  1  0  0  0
 81151  1  0  0  0
 81152  1  0  0  0
 81153  1  0  0  0
M  ISO  4   1 100  68 101  79 101  83 100
M  END
> <chiral flag>
0

> <version>
0

> <s_m_source_file>
/data/baiqing/PycharmProjects/Reinvent-master-3.2/result/LINK_invent/BTK/process_docking_weight1_custom_product_contain_oxygen_bond_distance_aromatic_linkinvent_7_9_3/rearranged_h_0068.sdf

> <i_m_source_file_index>
39

> <r_mmod_Potential_Energy-OPLS-2005>
592.155517578125

> <r_mmod_Stretch_Energy-OPLS-2005>
189.421371459961

> <r_mmod_Bend_Energy-OPLS-2005>
282.755950927734

> <r_mmod_Torsional_Energy-OPLS-2005>
316.963195800781

> <r_mmod_Improper_Torsional_Energy-OPLS-2005>
18.2553539276123

> <r_mmod_Van_der_Waal_Energy-OPLS-2005>
148.488052368164

> <r_mmod_Electrostatic_Energy-OPLS-2005>
-332.17529296875

> <r_mmod_Solvation_Energy-OPLS-2005>
-204.657043457031

> <b_mmod_Minimization_Converged-OPLS-2005>
0

> <r_mmod_RMS_Derivative-OPLS-2005>
2.43841171264648

$$$$
39
                    3D
 Structure written by MMmdl.
156165  0  0  1  0            999 V2000
  -30.5865  -14.6497   20.5142 C   0  0  0  0  0  0
  -30.4411  -12.4045   19.4507 C   0  0  0  0  0  0
  -29.5093  -12.5205   18.2220 C   0  0  0  0  0  0
  -28.0301  -12.3494   18.6263 C   0  0  0  0  0  0
  -27.6502  -13.2087   19.8624 C   0  0  2  0  0  0
  -28.6912  -13.0464   20.9926 C   0  0  0  0  0  0
  -25.2533  -13.8128   20.5604 C   0  0  0  0  0  0
  -24.1809  -13.0426   20.9182 C   0  0  0  0  0  0
  -24.6364  -11.6891   20.8733 C   0  0  0  0  0  0
  -23.9027  -10.4289   21.0409 C   0  0  0  0  0  0
  -24.3590   -9.4220   21.9186 C   0  0  0  0  0  0
  -23.6287   -8.2241   22.0748 C   0  0  0  0  0  0
  -22.4268   -8.0267   21.3539 C   0  0  0  0  0  0
  -21.9892   -9.0236   20.4640 C   0  0  0  0  0  0
  -22.7196  -10.2130   20.3062 C   0  0  0  0  0  0
  -21.6853   -6.0734   22.5285 C   0  0  0  0  0  0
  -21.4008   -6.5637   23.8215 C   0  0  0  0  0  0
  -21.3660   -5.6794   24.9180 C   0  0  0  0  0  0
  -21.6051   -4.3057   24.7232 C   0  0  0  0  0  0
  -21.8812   -3.8146   23.4351 C   0  0  0  0  0  0
  -21.9190   -4.6964   22.3410 C   0  0  0  0  0  0
  -22.7837  -13.5246   21.1863 C   0  0  0  0  0  0
  -22.1659   -4.2152   21.0985 F   0  0  0  0  0  0
  -21.5639   -3.4540   25.7743 F   0  0  0  0  0  0
  -30.0052  -13.4107   20.4393 N   0  0  0  0  0  0
  -26.2953  -12.9294   20.3273 N   0  0  0  0  0  0
  -25.9287  -11.6465   20.5739 N   0  0  0  0  0  0
  -22.0467  -12.8255   22.0408 N   0  0  0  0  0  0
  -25.4215  -15.1823   20.3850 N   0  0  0  0  0  0
  -31.7412  -14.8347   20.1134 O   0  0  0  0  0  0
  -21.6638   -6.8866   21.4241 O   0  0  0  0  0  0
  -22.3540  -14.5570   20.6717 O   0  0  0  0  0  0
  -24.6263  -31.8630   23.1995 C   0  0  0  0  0  0
  -25.9130  -32.4791   23.8305 C   0  0  1  0  0  0
  -27.2125  -27.3226   20.1143 C   0  0  0  0  0  0
  -25.5945  -33.8583   24.2250 N   0  0  0  0  0  0
  -23.4169  -30.4916   21.5424 C   0  0  2  0  0  0
  -24.8605  -28.9493   20.1077 C   0  0  0  0  0  0
  -22.7464  -29.4667   22.4886 C   0  0  0  0  0  0
  -18.0309  -28.1381   22.8464 C   0  0  0  0  0  0
  -24.1509  -36.7274   23.2635 C   0  0  0  0  0  0
  -25.9602  -30.7942   21.3722 C   0  0  0  0  0  0
  -26.0316  -29.4241   20.7120 C   0  0  0  0  0  0
  -27.2112  -28.6231   20.7060 C   0  0  0  0  0  0
  -26.0203  -26.9094   19.4738 C   0  0  0  0  0  0
  -24.8571  -27.6962   19.4806 C   0  0  0  0  0  0
  -23.6304  -29.8296   20.1566 C   0  0  0  0  0  0
  -25.4133  -36.3077   24.0330 C   0  0  1  0  0  0
  -20.5909  -28.3700   23.1248 C   0  0  2  0  0  0
  -20.6807  -26.9418   22.5394 C   0  0  0  0  0  0
  -19.5790  -26.6375   21.5196 C   0  0  0  0  0  0
  -18.1964  -26.7923   22.1604 C   0  0  0  0  0  0
  -19.1560  -28.8848   23.2862 C   0  0  0  0  0  0
  -18.9495  -30.1447   23.8895 C   0  0  0  0  0  0
  -17.6498  -30.6584   24.0559 C   0  0  0  0  0  0
  -25.9072  -34.9460   23.5084 C   0  0  0  0  0  0
  -16.5384  -29.9090   23.6330 C   0  0  0  0  0  0
  -16.7296  -28.6507   23.0338 C   0  0  0  0  0  0
  -26.4506  -31.6587   25.0667 C   0  0  0  0  0  0
  -25.3707  -31.3756   26.1358 C   0  0  0  0  0  0
  -27.0342  -30.3012   24.6113 C   0  0  0  0  0  0
  -27.6074  -32.4295   25.7446 C   0  0  0  0  0  0
  -27.5593  -37.1783   24.8465 C   0  0  0  0  0  0
  -21.4183  -29.3064   22.3626 N   0  0  0  0  0  0
  -26.4303  -37.3774   23.9413 N   0  0  0  0  0  0
  -24.6864  -31.0664   22.0934 N   0  0  0  0  0  0
  -23.4194  -28.8209   23.2966 O   0  0  0  0  0  0
  -28.3141  -26.4542   20.1866 O   0  0  0  0  0  0
  -26.5637  -34.8937   22.4649 O   0  0  0  0  0  0
  -23.5432  -32.1408   23.7342 O   0  0  0  0  0  0
  -30.7604  -19.2660   19.9704 C   0  0  0  0  0  0
  -30.7964  -17.8471   20.1093 C   0  0  0  0  0  0
  -28.6854  -19.3504   21.1557 C   0  0  0  0  0  0
  -28.7096  -17.9261   21.3060 C   0  0  0  0  0  0
  -29.7024  -20.0792   20.4816 C   0  0  0  0  0  0
  -29.7768  -17.1270   20.7820 C   0  0  0  0  0  0
  -30.5294  -22.3509   19.6003 C   0  0  0  0  0  0
  -28.5790  -22.4445   20.8448 C   0  0  0  0  0  0
  -29.0782  -23.9179   20.6048 C   0  0  2  0  0  0
  -27.5423  -17.2966   22.0566 C   0  0  0  0  0  0
  -28.0356  -24.9994   20.0819 C   0  0  0  0  0  0
  -29.6450  -21.5552   20.3360 N   0  0  0  0  0  0
  -29.7586  -15.6656   20.9264 N   0  0  0  0  0  0
  -31.5167  -22.0133   18.9467 O   0  0  0  0  0  0
  -30.1234  -23.6460   19.6832 O   0  0  0  0  0  0
  -31.4814  -12.5484   19.1520 H   0  0  0  0  0  0
  -30.3913  -11.4043   19.8834 H   0  0  0  0  0  0
  -29.7827  -11.7778   17.4712 H   0  0  0  0  0  0
  -29.6437  -13.4946   17.7487 H   0  0  0  0  0  0
  -27.8645  -11.2931   18.8406 H   0  0  0  0  0  0
  -27.3804  -12.5921   17.7836 H   0  0  0  0  0  0
  -27.6718  -14.2467   19.5316 H   0  0  0  0  0  0
  -28.7106  -12.0147   21.3477 H   0  0  0  0  0  0
  -28.4268  -13.6508   21.8615 H   0  0  0  0  0  0
  -25.2725   -9.5728   22.4767 H   0  0  0  0  0  0
  -24.0015   -7.4643   22.7462 H   0  0  0  0  0  0
  -21.0826   -8.8731   19.8944 H   0  0  0  0  0  0
  -22.3623  -10.9672   19.6185 H   0  0  0  0  0  0
  -21.1981   -7.6142   23.9731 H   0  0  0  0  0  0
  -21.1494   -6.0515   25.9089 H   0  0  0  0  0  0
  -22.0585   -2.7609   23.2850 H   0  0  0  0  0  0
  -22.4047  -11.9903   22.4803 H   0  0  0  0  0  0
  -21.1092  -13.1312   22.2626 H   0  0  0  0  0  0
  -24.6349  -15.8194   20.4376 H   0  0  0  0  0  0
  -26.2422  -15.6032   19.9677 H   0  0  0  0  0  0
  -26.7194  -32.5474   23.1041 H   0  0  0  0  0  0
  -25.0113  -33.9733   25.0404 H   0  0  0  0  0  0
  -22.7112  -31.3131   21.4005 H   0  0  0  0  0  0
  -23.3791  -35.9586   23.3288 H   0  0  0  0  0  0
  -24.3598  -36.8889   22.2050 H   0  0  0  0  0  0
  -23.7253  -37.6466   23.6659 H   0  0  0  0  0  0
  -26.1019  -31.5596   20.6082 H   0  0  0  0  0  0
  -26.8362  -30.8314   22.0080 H   0  0  0  0  0  0
  -28.1068  -28.9819   21.1947 H   0  0  0  0  0  0
  -25.9499  -25.9566   18.9709 H   0  0  0  0  0  0
  -23.9590  -27.3265   19.0046 H   0  0  0  0  0  0
  -23.7515  -30.6054   19.4001 H   0  0  0  0  0  0
  -22.7499  -29.2607   19.8518 H   0  0  0  0  0  0
  -25.1326  -36.1908   25.0824 H   0  0  0  0  0  0
  -21.0023  -28.3302   24.1355 H   0  0  0  0  0  0
  -20.5709  -26.2319   23.3601 H   0  0  0  0  0  0
  -21.6685  -26.7448   22.1194 H   0  0  0  0  0  0
  -19.6969  -25.6282   21.1242 H   0  0  0  0  0  0
  -19.6751  -27.3176   20.6720 H   0  0  0  0  0  0
  -17.4236  -26.6654   21.4005 H   0  0  0  0  0  0
  -18.0378  -26.0056   22.9000 H   0  0  0  0  0  0
  -19.7982  -30.7250   24.2256 H   0  0  0  0  0  0
  -17.5072  -31.6272   24.5155 H   0  0  0  0  0  0
  -15.5395  -30.3005   23.7654 H   0  0  0  0  0  0
  -15.8688  -28.0844   22.7047 H   0  0  0  0  0  0
  -24.5901  -30.7110   25.7636 H   0  0  0  0  0  0
  -24.8894  -32.2955   26.4697 H   0  0  0  0  0  0
  -25.7969  -30.8955   27.0174 H   0  0  0  0  0  0
  -26.2908  -29.6754   24.1165 H   0  0  0  0  0  0
  -27.4088  -29.7279   25.4599 H   0  0  0  0  0  0
  -27.8758  -30.4301   23.9300 H   0  0  0  0  0  0
  -27.2710  -33.3604   26.2022 H   0  0  0  0  0  0
  -28.3896  -32.6820   25.0273 H   0  0  0  0  0  0
  -28.0724  -31.8403   26.5359 H   0  0  0  0  0  0
  -28.2587  -38.0100   24.7532 H   0  0  0  0  0  0
  -28.1112  -36.2628   24.6269 H   0  0  0  0  0  0
  -27.2308  -37.1397   25.8865 H   0  0  0  0  0  0
  -20.9333  -29.8764   21.6828 H   0  0  0  0  0  0
  -26.0183  -38.2844   24.1422 H   0  0  0  0  0  0
  -31.5926  -19.7040   19.4444 H   0  0  0  0  0  0
  -31.6305  -17.3162   19.6756 H   0  0  0  0  0  0
  -27.8502  -19.8937   21.5738 H   0  0  0  0  0  0
  -27.6594  -22.2524   20.2907 H   0  0  0  0  0  0
  -28.3748  -22.2721   21.9028 H   0  0  0  0  0  0
  -29.5300  -24.2860   21.5265 H   0  0  0  0  0  0
  -27.5213  -17.6544   23.0861 H   0  0  0  0  0  0
  -27.5711  -16.2091   22.0923 H   0  0  0  0  0  0
  -26.5966  -17.5808   21.5928 H   0  0  0  0  0  0
  -27.1281  -24.8094   20.6573 H   0  0  0  0  0  0
  -27.7970  -24.7613   19.0450 H   0  0  0  0  0  0
  -28.8922  -15.3074   21.2970 H   0  0  0  0  0  0
  1 25  1  0  0  0
  1 30  2  0  0  0
  1 83  1  0  0  0
  2  3  1  0  0  0
  2 25  1  0  0  0
  2 86  1  0  0  0
  2 87  1  0  0  0
  3  4  1  0  0  0
  3 88  1  0  0  0
  3 89  1  0  0  0
  4  5  1  0  0  0
  4 90  1  0  0  0
  4 91  1  0  0  0
  5  6  1  0  0  0
  5 26  1  0  0  0
  5 92  1  0  0  0
  6 25  1  0  0  0
  6 93  1  0  0  0
  6 94  1  0  0  0
  7  8  2  0  0  0
  7 26  1  0  0  0
  7 29  1  0  0  0
  8  9  1  0  0  0
  8 22  1  0  0  0
  9 10  1  0  0  0
  9 27  2  0  0  0
 10 11  2  0  0  0
 10 15  1  0  0  0
 11 12  1  0  0  0
 11 95  1  0  0  0
 12 13  2  0  0  0
 12 96  1  0  0  0
 13 14  1  0  0  0
 13 31  1  0  0  0
 14 15  2  0  0  0
 14 97  1  0  0  0
 15 98  1  0  0  0
 16 17  2  0  0  0
 16 21  1  0  0  0
 16 31  1  0  0  0
 17 18  1  0  0  0
 17 99  1  0  0  0
 18 19  2  0  0  0
 18100  1  0  0  0
 19 20  1  0  0  0
 19 24  1  0  0  0
 20 21  2  0  0  0
 20101  1  0  0  0
 21 23  1  0  0  0
 22 28  1  0  0  0
 22 32  2  0  0  0
 26 27  1  0  0  0
 28102  1  0  0  0
 28103  1  0  0  0
 29104  1  0  0  0
 29105  1  0  0  0
 33 34  1  0  0  0
 33 66  1  0  0  0
 33 70  2  0  0  0
 34 36  1  0  0  0
 34 59  1  0  0  0
 34106  1  0  0  0
 35 44  2  0  0  0
 35 45  1  0  0  0
 35 68  1  0  0  0
 36 56  1  0  0  0
 36107  1  0  0  0
 37 39  1  0  0  0
 37 47  1  0  0  0
 37 66  1  0  0  0
 37108  1  0  0  0
 38 43  2  0  0  0
 38 46  1  0  0  0
 38 47  1  0  0  0
 39 64  1  0  0  0
 39 67  2  0  0  0
 40 52  1  0  0  0
 40 53  2  0  0  0
 40 58  1  0  0  0
 41109  1  0  0  0
 41110  1  0  0  0
 41111  1  0  0  0
 41 48  1  0  0  0
 42 43  1  0  0  0
 42 66  1  0  0  0
 42112  1  0  0  0
 42113  1  0  0  0
 43 44  1  0  0  0
 44114  1  0  0  0
 45 46  2  0  0  0
 45115  1  0  0  0
 46116  1  0  0  0
 47117  1  0  0  0
 47118  1  0  0  0
 48 56  1  0  0  0
 48 65  1  0  0  0
 48119  1  0  0  0
 49 50  1  0  0  0
 49 53  1  0  0  0
 49 64  1  0  0  0
 49120  1  0  0  0
 50 51  1  0  0  0
 50121  1  0  0  0
 50122  1  0  0  0
 51 52  1  0  0  0
 51123  1  0  0  0
 51124  1  0  0  0
 52125  1  0  0  0
 52126  1  0  0  0
 53 54  1  0  0  0
 54 55  2  0  0  0
 54127  1  0  0  0
 55 57  1  0  0  0
 55128  1  0  0  0
 56 69  2  0  0  0
 57 58  2  0  0  0
 57129  1  0  0  0
 58130  1  0  0  0
 59 60  1  0  0  0
 59 61  1  0  0  0
 59 62  1  0  0  0
 60131  1  0  0  0
 60132  1  0  0  0
 60133  1  0  0  0
 61134  1  0  0  0
 61135  1  0  0  0
 61136  1  0  0  0
 62137  1  0  0  0
 62138  1  0  0  0
 62139  1  0  0  0
 63 65  1  0  0  0
 63140  1  0  0  0
 63141  1  0  0  0
 63142  1  0  0  0
 64143  1  0  0  0
 65144  1  0  0  0
 68 81  1  0  0  0
 71 72  2  0  0  0
 71 75  1  0  0  0
 71145  1  0  0  0
 72 76  1  0  0  0
 72146  1  0  0  0
 73 74  1  0  0  0
 73 75  2  0  0  0
 73147  1  0  0  0
 74 76  2  0  0  0
 74 80  1  0  0  0
 75 82  1  0  0  0
 76 83  1  0  0  0
 77 82  1  0  0  0
 77 84  2  0  0  0
 77 85  1  0  0  0
 78 79  1  0  0  0
 78 82  1  0  0  0
 78148  1  0  0  0
 78149  1  0  0  0
 79 81  1  0  0  0
 79 85  1  0  0  0
 79150  1  0  0  0
 80151  1  0  0  0
 80152  1  0  0  0
 80153  1  0  0  0
 81154  1  0  0  0
 81155  1  0  0  0
 83156  1  0  0  0
M  ISO  4   1 100  68 101  81 101  83 100
M  END
> <chiral flag>
0

> <version>
0

> <s_m_source_file>
/data/baiqing/PycharmProjects/Reinvent-master-3.2/result/LINK_invent/BTK/process_docking_weight1_custom_product_contain_oxygen_bond_distance_aromatic_linkinvent_7_9_3/rearranged_h_0068.sdf

> <i_m_source_file_index>
40

> <r_mmod_Potential_Energy-OPLS-2005>
45.5417900085449

> <r_mmod_Stretch_Energy-OPLS-2005>
81.9648208618164

> <r_mmod_Bend_Energy-OPLS-2005>
161.545181274414

> <r_mmod_Torsional_Energy-OPLS-2005>
229.897186279297

> <r_mmod_Improper_Torsional_Energy-OPLS-2005>
4.24250984191895

> <r_mmod_Van_der_Waal_Energy-OPLS-2005>
150.788146972656

> <r_mmod_Electrostatic_Energy-OPLS-2005>
-409.764770507812

> <r_mmod_Solvation_Energy-OPLS-2005>
-225.676864624023

> <b_mmod_Minimization_Converged-OPLS-2005>
0

> <r_mmod_RMS_Derivative-OPLS-2005>
2.15005898475647

$$$$
40
                    3D
 Structure written by MMmdl.
160168  0  0  1  0            999 V2000
  -30.6330  -14.7868   20.4239 C   0  0  0  0  0  0
  -30.4210  -12.4774   19.4893 C   0  0  0  0  0  0
  -29.5078  -12.5135   18.2443 C   0  0  0  0  0  0
  -28.0318  -12.3466   18.6498 C   0  0  0  0  0  0
  -27.6366  -13.2488   19.8499 C   0  0  2  0  0  0
  -28.6826  -13.2146   20.9869 C   0  0  0  0  0  0
  -25.2473  -13.8237   20.5727 C   0  0  0  0  0  0
  -24.1786  -13.0449   20.9230 C   0  0  0  0  0  0
  -24.6415  -11.6932   20.8768 C   0  0  0  0  0  0
  -23.9109  -10.4290   21.0399 C   0  0  0  0  0  0
  -24.3642   -9.4197   21.9175 C   0  0  0  0  0  0
  -23.6310   -8.2239   22.0764 C   0  0  0  0  0  0
  -22.4288   -8.0280   21.3556 C   0  0  0  0  0  0
  -21.9921   -9.0264   20.4656 C   0  0  0  0  0  0
  -22.7267  -10.2130   20.3059 C   0  0  0  0  0  0
  -21.6856   -6.0737   22.5275 C   0  0  0  0  0  0
  -21.4015   -6.5637   23.8209 C   0  0  0  0  0  0
  -21.3669   -5.6795   24.9166 C   0  0  0  0  0  0
  -21.6042   -4.3062   24.7215 C   0  0  0  0  0  0
  -21.8822   -3.8145   23.4340 C   0  0  0  0  0  0
  -21.9192   -4.6970   22.3386 C   0  0  0  0  0  0
  -22.7789  -13.5201   21.1882 C   0  0  0  0  0  0
  -22.1657   -4.2149   21.0973 F   0  0  0  0  0  0
  -21.5636   -3.4546   25.7722 F   0  0  0  0  0  0
  -29.9793  -13.5661   20.3981 N   0  0  0  0  0  0
  -26.2923  -12.9486   20.3303 N   0  0  0  0  0  0
  -25.9357  -11.6614   20.5782 N   0  0  0  0  0  0
  -22.0466  -12.8165   22.0441 N   0  0  0  0  0  0
  -25.4100  -15.1972   20.4139 N   0  0  0  0  0  0
  -31.8251  -14.7991   20.1082 O   0  0  0  0  0  0
  -21.6647   -6.8878   21.4226 O   0  0  0  0  0  0
  -22.3452  -14.5496   20.6707 O   0  0  0  0  0  0
  -24.6358  -31.8542   23.1967 C   0  0  0  0  0  0
  -25.9188  -32.4739   23.8314 C   0  0  1  0  0  0
  -27.2149  -27.2365   20.1028 C   0  0  0  0  0  0
  -25.5993  -33.8552   24.2234 N   0  0  0  0  0  0
  -23.4303  -30.4785   21.5409 C   0  0  2  0  0  0
  -24.8752  -28.9251   20.1028 C   0  0  0  0  0  0
  -22.7518  -29.4603   22.4881 C   0  0  0  0  0  0
  -18.0298  -28.1382   22.8507 C   0  0  0  0  0  0
  -24.1488  -36.7268   23.2630 C   0  0  0  0  0  0
  -25.9816  -30.7517   21.3878 C   0  0  0  0  0  0
  -26.0473  -29.3744   20.7218 C   0  0  0  0  0  0
  -27.2131  -28.5383   20.7199 C   0  0  0  0  0  0
  -26.0167  -26.8763   19.4418 C   0  0  0  0  0  0
  -24.8659  -27.6833   19.4546 C   0  0  0  0  0  0
  -23.6500  -29.8149   20.1557 C   0  0  0  0  0  0
  -25.4119  -36.3052   24.0319 C   0  0  1  0  0  0
  -20.5927  -28.3698   23.1272 C   0  0  2  0  0  0
  -20.6796  -26.9414   22.5426 C   0  0  0  0  0  0
  -19.5748  -26.6371   21.5244 C   0  0  0  0  0  0
  -18.1927  -26.7926   22.1657 C   0  0  0  0  0  0
  -19.1568  -28.8853   23.2887 C   0  0  0  0  0  0
  -18.9477  -30.1462   23.8885 C   0  0  0  0  0  0
  -17.6468  -30.6589   24.0557 C   0  0  0  0  0  0
  -25.9079  -34.9439   23.5077 C   0  0  0  0  0  0
  -16.5365  -29.9091   23.6337 C   0  0  0  0  0  0
  -16.7295  -28.6508   23.0357 C   0  0  0  0  0  0
  -26.4516  -31.6592   25.0744 C   0  0  0  0  0  0
  -25.3738  -31.3811   26.1466 C   0  0  0  0  0  0
  -27.0336  -30.2980   24.6295 C   0  0  0  0  0  0
  -27.6027  -32.4352   25.7549 C   0  0  0  0  0  0
  -27.5563  -37.1786   24.8464 C   0  0  0  0  0  0
  -21.4226  -29.3053   22.3642 N   0  0  0  0  0  0
  -26.4262  -37.3771   23.9414 N   0  0  0  0  0  0
  -24.7010  -31.0469   22.0972 N   0  0  0  0  0  0
  -23.4224  -28.8120   23.2954 O   0  0  0  0  0  0
  -28.3128  -26.3333   20.1827 O   0  0  0  0  0  0
  -26.5608  -34.8927   22.4628 O   0  0  0  0  0  0
  -23.5512  -32.1408   23.7264 O   0  0  0  0  0  0
  -28.6936  -21.0400   22.1715 C   0  0  0  0  0  0
  -29.5789  -18.5701   20.9656 C   0  0  0  0  0  0
  -28.8030  -19.8625   22.9355 C   0  0  0  0  0  0
  -29.1985  -18.6226   22.3468 C   0  0  0  0  0  0
  -29.0182  -21.0942   20.8060 C   0  0  0  0  0  0
  -29.4622  -19.8327   20.2223 C   0  0  0  0  0  0
  -30.2974  -17.2923   20.3810 C   0  0  0  0  0  0
  -28.8058  -23.7064   20.5470 C   0  0  0  0  0  0
  -29.2581  -17.3738   23.2324 C   0  0  0  0  0  0
  -26.1950  -20.2889   24.6176 C   0  0  0  0  0  0
  -28.5479  -20.0084   24.4340 C   0  0  0  0  0  0
  -28.2592  -24.9147   19.6394 C   0  0  0  0  0  0
  -28.8390  -22.3887   20.0807 N   0  0  0  0  0  0
  -29.9140  -15.9684   20.6360 N   0  0  0  0  0  0
  -31.2750  -17.5289   19.6624 O   0  0  0  0  0  0
  -29.2254  -23.9904   21.6718 O   0  0  0  0  0  0
  -27.3113  -19.4383   24.8452 O   0  0  0  0  0  0
  -29.8097  -19.8570   18.9126 F   0  0  0  0  0  0
  -31.4639  -12.5767   19.1862 H   0  0  0  0  0  0
  -30.3563  -11.5118   19.9929 H   0  0  0  0  0  0
  -29.7957  -11.7262   17.5476 H   0  0  0  0  0  0
  -29.6361  -13.4585   17.7138 H   0  0  0  0  0  0
  -27.8771  -11.2982   18.9084 H   0  0  0  0  0  0
  -27.3825  -12.5530   17.7981 H   0  0  0  0  0  0
  -27.6238  -14.2690   19.4657 H   0  0  0  0  0  0
  -28.7271  -12.2296   21.4523 H   0  0  0  0  0  0
  -28.4133  -13.9109   21.7824 H   0  0  0  0  0  0
  -25.2782   -9.5656   22.4744 H   0  0  0  0  0  0
  -24.0017   -7.4616   22.7465 H   0  0  0  0  0  0
  -21.0867   -8.8771   19.8946 H   0  0  0  0  0  0
  -22.3734  -10.9658   19.6166 H   0  0  0  0  0  0
  -21.2013   -7.6151   23.9700 H   0  0  0  0  0  0
  -21.1493   -6.0529   25.9067 H   0  0  0  0  0  0
  -22.0599   -2.7606   23.2829 H   0  0  0  0  0  0
  -22.4140  -11.9847   22.4796 H   0  0  0  0  0  0
  -21.1090  -13.1118   22.2705 H   0  0  0  0  0  0
  -24.6285  -15.8348   20.5255 H   0  0  0  0  0  0
  -26.2400  -15.6396   20.0418 H   0  0  0  0  0  0
  -26.7216  -32.5360   23.1006 H   0  0  0  0  0  0
  -25.0204  -33.9681   25.0411 H   0  0  0  0  0  0
  -22.7315  -31.3054   21.3976 H   0  0  0  0  0  0
  -23.3764  -35.9588   23.3305 H   0  0  0  0  0  0
  -24.3553  -36.8898   22.2039 H   0  0  0  0  0  0
  -23.7250  -37.6472   23.6660 H   0  0  0  0  0  0
  -26.1308  -31.5113   20.6201 H   0  0  0  0  0  0
  -26.8543  -30.7973   22.0290 H   0  0  0  0  0  0
  -28.1004  -28.8715   21.2381 H   0  0  0  0  0  0
  -25.9050  -25.9500   18.9076 H   0  0  0  0  0  0
  -23.9696  -27.3358   18.9563 H   0  0  0  0  0  0
  -23.7787  -30.5971   19.4077 H   0  0  0  0  0  0
  -22.7724  -29.2490   19.8391 H   0  0  0  0  0  0
  -25.1311  -36.1848   25.0807 H   0  0  0  0  0  0
  -21.0016  -28.3230   24.1392 H   0  0  0  0  0  0
  -20.5714  -26.2296   23.3633 H   0  0  0  0  0  0
  -21.6648  -26.7430   22.1191 H   0  0  0  0  0  0
  -19.6906  -25.6280   21.1249 H   0  0  0  0  0  0
  -19.6654  -27.3202   20.6787 H   0  0  0  0  0  0
  -17.4211  -26.6712   21.4037 H   0  0  0  0  0  0
  -18.0290  -26.0062   22.9043 H   0  0  0  0  0  0
  -19.7954  -30.7297   24.2221 H   0  0  0  0  0  0
  -17.5036  -31.6268   24.5170 H   0  0  0  0  0  0
  -15.5373  -30.2984   23.7665 H   0  0  0  0  0  0
  -15.8702  -28.0824   22.7066 H   0  0  0  0  0  0
  -24.5897  -30.7181   25.7800 H   0  0  0  0  0  0
  -24.8973  -32.3032   26.4809 H   0  0  0  0  0  0
  -25.8045  -30.9032   27.0279 H   0  0  0  0  0  0
  -26.2932  -29.6760   24.1264 H   0  0  0  0  0  0
  -27.3910  -29.7205   25.4824 H   0  0  0  0  0  0
  -27.8866  -30.4211   23.9633 H   0  0  0  0  0  0
  -27.2587  -33.3664   26.2064 H   0  0  0  0  0  0
  -28.3878  -32.6887   25.0423 H   0  0  0  0  0  0
  -28.0652  -31.8549   26.5545 H   0  0  0  0  0  0
  -28.2558  -38.0089   24.7477 H   0  0  0  0  0  0
  -28.1061  -36.2614   24.6303 H   0  0  0  0  0  0
  -27.2285  -37.1468   25.8864 H   0  0  0  0  0  0
  -20.9414  -29.8795   21.6853 H   0  0  0  0  0  0
  -26.0132  -38.2833   24.1420 H   0  0  0  0  0  0
  -28.3537  -21.9312   22.6736 H   0  0  0  0  0  0
  -28.7296  -16.5395   22.7698 H   0  0  0  0  0  0
  -28.7504  -17.5031   24.1858 H   0  0  0  0  0  0
  -30.2946  -17.0869   23.4343 H   0  0  0  0  0  0
  -25.2719  -19.7543   24.8409 H   0  0  0  0  0  0
  -26.1410  -20.6241   23.5793 H   0  0  0  0  0  0
  -26.2318  -21.1626   25.2731 H   0  0  0  0  0  0
  -28.6115  -21.0571   24.7330 H   0  0  0  0  0  0
  -29.3582  -19.5161   24.9733 H   0  0  0  0  0  0
  -27.2616  -24.5925   19.3676 H   0  0  0  0  0  0
  -28.8341  -24.9008   18.7136 H   0  0  0  0  0  0
  -28.6449  -22.2899   19.0917 H   0  0  0  0  0  0
  -28.9902  -15.8582   21.0159 H   0  0  0  0  0  0
  1 25  1  0  0  0
  1 30  2  0  0  0
  1 84  1  0  0  0
  2  3  1  0  0  0
  2 25  1  0  0  0
  2 89  1  0  0  0
  2 90  1  0  0  0
  3  4  1  0  0  0
  3 91  1  0  0  0
  3 92  1  0  0  0
  4  5  1  0  0  0
  4 93  1  0  0  0
  4 94  1  0  0  0
  5  6  1  0  0  0
  5 26  1  0  0  0
  5 95  1  0  0  0
  6 25  1  0  0  0
  6 96  1  0  0  0
  6 97  1  0  0  0
  7  8  2  0  0  0
  7 26  1  0  0  0
  7 29  1  0  0  0
  8  9  1  0  0  0
  8 22  1  0  0  0
  9 10  1  0  0  0
  9 27  2  0  0  0
 10 11  2  0  0  0
 10 15  1  0  0  0
 11 12  1  0  0  0
 11 98  1  0  0  0
 12 13  2  0  0  0
 12 99  1  0  0  0
 13 14  1  0  0  0
 13 31  1  0  0  0
 14 15  2  0  0  0
 14100  1  0  0  0
 15101  1  0  0  0
 16 17  2  0  0  0
 16 21  1  0  0  0
 16 31  1  0  0  0
 17 18  1  0  0  0
 17102  1  0  0  0
 18 19  2  0  0  0
 18103  1  0  0  0
 19 20  1  0  0  0
 19 24  1  0  0  0
 20 21  2  0  0  0
 20104  1  0  0  0
 21 23  1  0  0  0
 22 28  1  0  0  0
 22 32  2  0  0  0
 26 27  1  0  0  0
 28105  1  0  0  0
 28106  1  0  0  0
 29107  1  0  0  0
 29108  1  0  0  0
 33 34  1  0  0  0
 33 66  1  0  0  0
 33 70  2  0  0  0
 34 36  1  0  0  0
 34 59  1  0  0  0
 34109  1  0  0  0
 35 44  2  0  0  0
 35 45  1  0  0  0
 35 68  1  0  0  0
 36 56  1  0  0  0
 36110  1  0  0  0
 37 39  1  0  0  0
 37 47  1  0  0  0
 37 66  1  0  0  0
 37111  1  0  0  0
 38 43  2  0  0  0
 38 46  1  0  0  0
 38 47  1  0  0  0
 39 64  1  0  0  0
 39 67  2  0  0  0
 40 52  1  0  0  0
 40 53  2  0  0  0
 40 58  1  0  0  0
 41112  1  0  0  0
 41113  1  0  0  0
 41114  1  0  0  0
 41 48  1  0  0  0
 42 43  1  0  0  0
 42 66  1  0  0  0
 42115  1  0  0  0
 42116  1  0  0  0
 43 44  1  0  0  0
 44117  1  0  0  0
 45 46  2  0  0  0
 45118  1  0  0  0
 46119  1  0  0  0
 47120  1  0  0  0
 47121  1  0  0  0
 48 56  1  0  0  0
 48 65  1  0  0  0
 48122  1  0  0  0
 49 50  1  0  0  0
 49 53  1  0  0  0
 49 64  1  0  0  0
 49123  1  0  0  0
 50 51  1  0  0  0
 50124  1  0  0  0
 50125  1  0  0  0
 51 52  1  0  0  0
 51126  1  0  0  0
 51127  1  0  0  0
 52128  1  0  0  0
 52129  1  0  0  0
 53 54  1  0  0  0
 54 55  2  0  0  0
 54130  1  0  0  0
 55 57  1  0  0  0
 55131  1  0  0  0
 56 69  2  0  0  0
 57 58  2  0  0  0
 57132  1  0  0  0
 58133  1  0  0  0
 59 60  1  0  0  0
 59 61  1  0  0  0
 59 62  1  0  0  0
 60134  1  0  0  0
 60135  1  0  0  0
 60136  1  0  0  0
 61137  1  0  0  0
 61138  1  0  0  0
 61139  1  0  0  0
 62140  1  0  0  0
 62141  1  0  0  0
 62142  1  0  0  0
 63 65  1  0  0  0
 63143  1  0  0  0
 63144  1  0  0  0
 63145  1  0  0  0
 64146  1  0  0  0
 65147  1  0  0  0
 68 82  1  0  0  0
 71 73  2  0  0  0
 71 75  1  0  0  0
 71148  1  0  0  0
 72 74  2  0  0  0
 72 76  1  0  0  0
 72 77  1  0  0  0
 73 74  1  0  0  0
 73 81  1  0  0  0
 74 79  1  0  0  0
 75 76  2  0  0  0
 75 83  1  0  0  0
 76 88  1  0  0  0
 77 84  1  0  0  0
 77 85  2  0  0  0
 78 82  1  0  0  0
 78 83  1  0  0  0
 78 86  2  0  0  0
 79149  1  0  0  0
 79150  1  0  0  0
 79151  1  0  0  0
 80 87  1  0  0  0
 80152  1  0  0  0
 80153  1  0  0  0
 80154  1  0  0  0
 81 87  1  0  0  0
 81155  1  0  0  0
 81156  1  0  0  0
 82157  1  0  0  0
 82158  1  0  0  0
 83159  1  0  0  0
 84160  1  0  0  0
M  ISO  4   1 100  68 101  82 101  84 100
M  END
> <chiral flag>
0

> <version>
0

> <s_m_source_file>
/data/baiqing/PycharmProjects/Reinvent-master-3.2/result/LINK_invent/BTK/process_docking_weight1_custom_product_contain_oxygen_bond_distance_aromatic_linkinvent_7_9_3/rearranged_h_0068.sdf

> <i_m_source_file_index>
41

> <r_mmod_Potential_Energy-OPLS-2005>
171.959686279297

> <r_mmod_Stretch_Energy-OPLS-2005>
146.924026489258

> <r_mmod_Bend_Energy-OPLS-2005>
179.157348632812

> <r_mmod_Torsional_Energy-OPLS-2005>
254.183456420898

> <r_mmod_Improper_Torsional_Energy-OPLS-2005>
5.14113092422485

> <r_mmod_Van_der_Waal_Energy-OPLS-2005>
163.126861572266

> <r_mmod_Electrostatic_Energy-OPLS-2005>
-419.786834716797

> <r_mmod_Solvation_Energy-OPLS-2005>
-259.475219726562

> <b_mmod_Minimization_Converged-OPLS-2005>
0

> <r_mmod_RMS_Derivative-OPLS-2005>
4.77435874938965

$$$$
41
                    3D
 Structure written by MMmdl.
152160  0  0  1  0            999 V2000
  -30.6164  -14.6554   20.4901 C   0  0  0  0  0  0
  -30.4398  -12.4009   19.4540 C   0  0  0  0  0  0
  -29.5083  -12.5066   18.2253 C   0  0  0  0  0  0
  -28.0313  -12.3428   18.6378 C   0  0  0  0  0  0
  -27.6514  -13.2180   19.8620 C   0  0  2  0  0  0
  -28.6975  -13.0819   20.9918 C   0  0  0  0  0  0
  -25.2544  -13.8166   20.5689 C   0  0  0  0  0  0
  -24.1812  -13.0423   20.9167 C   0  0  0  0  0  0
  -24.6392  -11.6900   20.8726 C   0  0  0  0  0  0
  -23.9064  -10.4285   21.0398 C   0  0  0  0  0  0
  -24.3617   -9.4204   21.9179 C   0  0  0  0  0  0
  -23.6290   -8.2242   22.0754 C   0  0  0  0  0  0
  -22.4272   -8.0280   21.3545 C   0  0  0  0  0  0
  -21.9905   -9.0252   20.4647 C   0  0  0  0  0  0
  -22.7235  -10.2129   20.3051 C   0  0  0  0  0  0
  -21.6853   -6.0733   22.5279 C   0  0  0  0  0  0
  -21.4015   -6.5637   23.8213 C   0  0  0  0  0  0
  -21.3659   -5.6790   24.9175 C   0  0  0  0  0  0
  -21.6044   -4.3053   24.7225 C   0  0  0  0  0  0
  -21.8820   -3.8145   23.4346 C   0  0  0  0  0  0
  -21.9193   -4.6961   22.3402 C   0  0  0  0  0  0
  -22.7838  -13.5219   21.1842 C   0  0  0  0  0  0
  -22.1662   -4.2148   21.0979 F   0  0  0  0  0  0
  -21.5628   -3.4537   25.7737 F   0  0  0  0  0  0
  -30.0118  -13.4260   20.4265 N   0  0  0  0  0  0
  -26.2982  -12.9356   20.3326 N   0  0  0  0  0  0
  -25.9324  -11.6506   20.5756 N   0  0  0  0  0  0
  -22.0487  -12.8217   22.0408 N   0  0  0  0  0  0
  -25.4206  -15.1895   20.4178 N   0  0  0  0  0  0
  -31.7849  -14.8123   20.1235 O   0  0  0  0  0  0
  -21.6637   -6.8877   21.4242 O   0  0  0  0  0  0
  -22.3519  -14.5530   20.6702 O   0  0  0  0  0  0
  -24.6259  -31.8595   23.2020 C   0  0  0  0  0  0
  -25.9107  -32.4778   23.8350 C   0  0  1  0  0  0
  -27.2249  -27.3166   20.1243 C   0  0  0  0  0  0
  -25.5922  -33.8578   24.2278 N   0  0  0  0  0  0
  -23.4199  -30.4822   21.5447 C   0  0  2  0  0  0
  -24.8672  -28.9338   20.1141 C   0  0  0  0  0  0
  -22.7473  -29.4622   22.4939 C   0  0  0  0  0  0
  -18.0286  -28.1386   22.8487 C   0  0  0  0  0  0
  -24.1490  -36.7295   23.2640 C   0  0  0  0  0  0
  -25.9606  -30.7895   21.3734 C   0  0  0  0  0  0
  -26.0356  -29.4154   20.7186 C   0  0  0  0  0  0
  -27.2191  -28.6191   20.7118 C   0  0  0  0  0  0
  -26.0380  -26.8900   19.4893 C   0  0  0  0  0  0
  -24.8701  -27.6764   19.4902 C   0  0  0  0  0  0
  -23.6352  -29.8146   20.1610 C   0  0  0  0  0  0
  -25.4115  -36.3084   24.0329 C   0  0  1  0  0  0
  -20.5885  -28.3689   23.1285 C   0  0  2  0  0  0
  -20.6775  -26.9412   22.5411 C   0  0  0  0  0  0
  -19.5751  -26.6385   21.5212 C   0  0  0  0  0  0
  -18.1931  -26.7929   22.1624 C   0  0  0  0  0  0
  -19.1538  -28.8855   23.2881 C   0  0  0  0  0  0
  -18.9461  -30.1457   23.8897 C   0  0  0  0  0  0
  -17.6461  -30.6587   24.0564 C   0  0  0  0  0  0
  -25.9050  -34.9452   23.5105 C   0  0  0  0  0  0
  -16.5352  -29.9085   23.6329 C   0  0  0  0  0  0
  -16.7273  -28.6503   23.0349 C   0  0  0  0  0  0
  -26.4492  -31.6589   25.0721 C   0  0  0  0  0  0
  -25.3727  -31.3727   26.1450 C   0  0  0  0  0  0
  -27.0336  -30.3013   24.6174 C   0  0  0  0  0  0
  -27.6054  -32.4322   25.7488 C   0  0  0  0  0  0
  -27.5579  -37.1804   24.8466 C   0  0  0  0  0  0
  -21.4187  -29.3042   22.3679 N   0  0  0  0  0  0
  -26.4294  -37.3777   23.9406 N   0  0  0  0  0  0
  -24.6876  -31.0606   22.0970 N   0  0  0  0  0  0
  -23.4196  -28.8163   23.3020 O   0  0  0  0  0  0
  -28.3451  -26.4737   20.1387 O   0  0  0  0  0  0
  -26.5620  -34.8918   22.4672 O   0  0  0  0  0  0
  -23.5423  -32.1394   23.7348 O   0  0  0  0  0  0
  -28.6973  -19.3429   20.3677 C   0  0  0  0  0  0
  -31.0989  -17.8876   20.4113 C   0  0  0  0  0  0
  -29.8928  -20.0770   20.1484 C   0  0  0  0  0  0
  -29.8986  -17.1553   20.5923 C   0  0  0  0  0  0
  -28.7048  -17.9290   20.5825 C   0  0  0  0  0  0
  -31.0957  -19.3002   20.1982 C   0  0  0  0  0  0
  -29.9113  -21.5512   19.7457 C   0  0  0  0  0  0
  -29.1507  -24.0284   19.8497 C   0  0  0  0  0  0
  -28.1520  -25.0474   20.5240 C   0  0  0  0  0  0
  -29.7957  -15.7067   20.8027 N   0  0  0  0  0  0
  -29.1262  -22.5848   20.2392 N   0  0  0  0  0  0
  -30.7846  -21.8524   18.7777 N   0  3  0  0  0  0
  -29.9465  -24.4369   18.9922 O   0  0  0  0  0  0
  -27.5245  -17.2867   20.7554 F   0  0  0  0  0  0
  -32.2938  -19.9031   19.9975 F   0  0  0  0  0  0
  -31.4804  -12.5291   19.1508 H   0  0  0  0  0  0
  -30.3788  -11.4072   19.9006 H   0  0  0  0  0  0
  -29.7746  -11.7513   17.4845 H   0  0  0  0  0  0
  -29.6481  -13.4732   17.7389 H   0  0  0  0  0  0
  -27.8711  -11.2903   18.8741 H   0  0  0  0  0  0
  -27.3763  -12.5671   17.7951 H   0  0  0  0  0  0
  -27.6634  -14.2511   19.5143 H   0  0  0  0  0  0
  -28.7117  -12.0624   21.3802 H   0  0  0  0  0  0
  -28.4420  -13.7189   21.8402 H   0  0  0  0  0  0
  -25.2764   -9.5681   22.4749 H   0  0  0  0  0  0
  -24.0000   -7.4634   22.7474 H   0  0  0  0  0  0
  -21.0835   -8.8772   19.8954 H   0  0  0  0  0  0
  -22.3695  -10.9667   19.6159 H   0  0  0  0  0  0
  -21.2008   -7.6146   23.9717 H   0  0  0  0  0  0
  -21.1479   -6.0519   25.9078 H   0  0  0  0  0  0
  -22.0599   -2.7607   23.2847 H   0  0  0  0  0  0
  -22.4101  -11.9876   22.4793 H   0  0  0  0  0  0
  -21.1110  -13.1252   22.2623 H   0  0  0  0  0  0
  -24.6536  -15.8360   20.5620 H   0  0  0  0  0  0
  -26.2862  -15.6629   20.1881 H   0  0  0  0  0  0
  -26.7174  -32.5448   23.1098 H   0  0  0  0  0  0
  -25.0068  -33.9723   25.0422 H   0  0  0  0  0  0
  -22.7138  -31.3026   21.4003 H   0  0  0  0  0  0
  -23.3748  -35.9631   23.3309 H   0  0  0  0  0  0
  -24.3580  -36.8907   22.2053 H   0  0  0  0  0  0
  -23.7247  -37.6501   23.6657 H   0  0  0  0  0  0
  -26.0915  -31.5514   20.6037 H   0  0  0  0  0  0
  -26.8412  -30.8399   22.0021 H   0  0  0  0  0  0
  -28.1174  -28.9858   21.1888 H   0  0  0  0  0  0
  -26.0000  -25.9367   18.9826 H   0  0  0  0  0  0
  -23.9772  -27.3050   19.0063 H   0  0  0  0  0  0
  -23.7547  -30.5895   19.4031 H   0  0  0  0  0  0
  -22.7552  -29.2435   19.8595 H   0  0  0  0  0  0
  -25.1296  -36.1939   25.0822 H   0  0  0  0  0  0
  -20.9978  -28.3264   24.1405 H   0  0  0  0  0  0
  -20.5675  -26.2298   23.3611 H   0  0  0  0  0  0
  -21.6644  -26.7443   22.1205 H   0  0  0  0  0  0
  -19.6912  -25.6295   21.1242 H   0  0  0  0  0  0
  -19.6688  -27.3195   20.6742 H   0  0  0  0  0  0
  -17.4200  -26.6676   21.4027 H   0  0  0  0  0  0
  -18.0331  -26.0071   22.9021 H   0  0  0  0  0  0
  -19.7937  -30.7275   24.2264 H   0  0  0  0  0  0
  -17.5015  -31.6267   24.5167 H   0  0  0  0  0  0
  -15.5353  -30.2986   23.7654 H   0  0  0  0  0  0
  -15.8674  -28.0823   22.7062 H   0  0  0  0  0  0
  -24.5902  -30.7075   25.7781 H   0  0  0  0  0  0
  -24.8917  -32.2892   26.4875 H   0  0  0  0  0  0
  -25.8054  -30.8906   27.0225 H   0  0  0  0  0  0
  -26.2908  -29.6762   24.1203 H   0  0  0  0  0  0
  -27.4041  -29.7272   25.4677 H   0  0  0  0  0  0
  -27.8774  -30.4303   23.9391 H   0  0  0  0  0  0
  -27.2668  -33.3623   26.2066 H   0  0  0  0  0  0
  -28.3861  -32.6882   25.0313 H   0  0  0  0  0  0
  -28.0724  -31.8447   26.5402 H   0  0  0  0  0  0
  -28.2605  -38.0093   24.7504 H   0  0  0  0  0  0
  -28.1067  -36.2625   24.6303 H   0  0  0  0  0  0
  -27.2297  -37.1467   25.8869 H   0  0  0  0  0  0
  -20.9364  -29.8764   21.6890 H   0  0  0  0  0  0
  -26.0178  -38.2855   24.1396 H   0  0  0  0  0  0
  -27.7447  -19.8496   20.3278 H   0  0  0  0  0  0
  -32.0477  -17.3738   20.4203 H   0  0  0  0  0  0
  -28.2873  -24.9788   21.6033 H   0  0  0  0  0  0
  -27.1436  -24.6875   20.3293 H   0  0  0  0  0  0
  -28.8683  -15.4141   21.0685 H   0  0  0  0  0  0
  -28.4892  -22.2666   20.9541 H   0  0  0  0  0  0
  -31.4812  -21.1765   18.4998 H   0  0  0  0  0  0
  -30.8535  -22.8147   18.4657 H   0  0  0  0  0  0
  1 25  1  0  0  0
  1 30  2  0  0  0
  1 80  1  0  0  0
  2  3  1  0  0  0
  2 25  1  0  0  0
  2 86  1  0  0  0
  2 87  1  0  0  0
  3  4  1  0  0  0
  3 88  1  0  0  0
  3 89  1  0  0  0
  4  5  1  0  0  0
  4 90  1  0  0  0
  4 91  1  0  0  0
  5  6  1  0  0  0
  5 26  1  0  0  0
  5 92  1  0  0  0
  6 25  1  0  0  0
  6 93  1  0  0  0
  6 94  1  0  0  0
  7  8  2  0  0  0
  7 26  1  0  0  0
  7 29  1  0  0  0
  8  9  1  0  0  0
  8 22  1  0  0  0
  9 10  1  0  0  0
  9 27  2  0  0  0
 10 11  2  0  0  0
 10 15  1  0  0  0
 11 12  1  0  0  0
 11 95  1  0  0  0
 12 13  2  0  0  0
 12 96  1  0  0  0
 13 14  1  0  0  0
 13 31  1  0  0  0
 14 15  2  0  0  0
 14 97  1  0  0  0
 15 98  1  0  0  0
 16 17  2  0  0  0
 16 21  1  0  0  0
 16 31  1  0  0  0
 17 18  1  0  0  0
 17 99  1  0  0  0
 18 19  2  0  0  0
 18100  1  0  0  0
 19 20  1  0  0  0
 19 24  1  0  0  0
 20 21  2  0  0  0
 20101  1  0  0  0
 21 23  1  0  0  0
 22 28  1  0  0  0
 22 32  2  0  0  0
 26 27  1  0  0  0
 28102  1  0  0  0
 28103  1  0  0  0
 29104  1  0  0  0
 29105  1  0  0  0
 33 34  1  0  0  0
 33 66  1  0  0  0
 33 70  2  0  0  0
 34 36  1  0  0  0
 34 59  1  0  0  0
 34106  1  0  0  0
 35 44  2  0  0  0
 35 45  1  0  0  0
 35 68  1  0  0  0
 36 56  1  0  0  0
 36107  1  0  0  0
 37 39  1  0  0  0
 37 47  1  0  0  0
 37 66  1  0  0  0
 37108  1  0  0  0
 38 43  2  0  0  0
 38 46  1  0  0  0
 38 47  1  0  0  0
 39 64  1  0  0  0
 39 67  2  0  0  0
 40 52  1  0  0  0
 40 53  2  0  0  0
 40 58  1  0  0  0
 41109  1  0  0  0
 41110  1  0  0  0
 41111  1  0  0  0
 41 48  1  0  0  0
 42 43  1  0  0  0
 42 66  1  0  0  0
 42112  1  0  0  0
 42113  1  0  0  0
 43 44  1  0  0  0
 44114  1  0  0  0
 45 46  2  0  0  0
 45115  1  0  0  0
 46116  1  0  0  0
 47117  1  0  0  0
 47118  1  0  0  0
 48 56  1  0  0  0
 48 65  1  0  0  0
 48119  1  0  0  0
 49 50  1  0  0  0
 49 53  1  0  0  0
 49 64  1  0  0  0
 49120  1  0  0  0
 50 51  1  0  0  0
 50121  1  0  0  0
 50122  1  0  0  0
 51 52  1  0  0  0
 51123  1  0  0  0
 51124  1  0  0  0
 52125  1  0  0  0
 52126  1  0  0  0
 53 54  1  0  0  0
 54 55  2  0  0  0
 54127  1  0  0  0
 55 57  1  0  0  0
 55128  1  0  0  0
 56 69  2  0  0  0
 57 58  2  0  0  0
 57129  1  0  0  0
 58130  1  0  0  0
 59 60  1  0  0  0
 59 61  1  0  0  0
 59 62  1  0  0  0
 60131  1  0  0  0
 60132  1  0  0  0
 60133  1  0  0  0
 61134  1  0  0  0
 61135  1  0  0  0
 61136  1  0  0  0
 62137  1  0  0  0
 62138  1  0  0  0
 62139  1  0  0  0
 63 65  1  0  0  0
 63140  1  0  0  0
 63141  1  0  0  0
 63142  1  0  0  0
 64143  1  0  0  0
 65144  1  0  0  0
 68 79  1  0  0  0
 71 73  2  0  0  0
 71 75  1  0  0  0
 71145  1  0  0  0
 72 74  1  0  0  0
 72 76  2  0  0  0
 72146  1  0  0  0
 73 76  1  0  0  0
 73 77  1  0  0  0
 74 75  2  0  0  0
 74 80  1  0  0  0
 75 84  1  0  0  0
 76 85  1  0  0  0
 77 81  1  0  0  0
 77 82  2  0  0  0
 78 79  1  0  0  0
 78 81  1  0  0  0
 78 83  2  0  0  0
 79147  1  0  0  0
 79148  1  0  0  0
 80149  1  0  0  0
 81150  1  0  0  0
 82151  1  0  0  0
 82152  1  0  0  0
M  CHG  1  82   1
M  ISO  4   1 100  68 101  79 101  80 100
M  END
> <chiral flag>
0

> <version>
0

> <s_m_source_file>
/data/baiqing/PycharmProjects/Reinvent-master-3.2/result/LINK_invent/BTK/process_docking_weight1_custom_product_contain_oxygen_bond_distance_aromatic_linkinvent_7_9_3/rearranged_h_0068.sdf

> <i_m_source_file_index>
42

> <r_mmod_Potential_Energy-OPLS-2005>
-275.511352539062

> <r_mmod_Stretch_Energy-OPLS-2005>
87.2251205444336

> <r_mmod_Bend_Energy-OPLS-2005>
144.979293823242

> <r_mmod_Torsional_Energy-OPLS-2005>
223.871215820312

> <r_mmod_Improper_Torsional_Energy-OPLS-2005>
5.30639219284058

> <r_mmod_Van_der_Waal_Energy-OPLS-2005>
159.224716186523

> <r_mmod_Electrostatic_Energy-OPLS-2005>
-479.045654296875

> <r_mmod_Solvation_Energy-OPLS-2005>
-467.777648925781

> <b_mmod_Minimization_Converged-OPLS-2005>
0

> <r_mmod_RMS_Derivative-OPLS-2005>
0.237884268164635

$$$$
42
                    3D
 Structure written by MMmdl.
154162  0  0  1  0            999 V2000
  -30.6151  -14.6589   20.4885 C   0  0  0  0  0  0
  -30.4414  -12.4028   19.4527 C   0  0  0  0  0  0
  -29.5091  -12.5031   18.2242 C   0  0  0  0  0  0
  -28.0328  -12.3359   18.6375 C   0  0  0  0  0  0
  -27.6513  -13.2142   19.8584 C   0  0  2  0  0  0
  -28.6974  -13.0838   20.9890 C   0  0  0  0  0  0
  -25.2555  -13.8155   20.5668 C   0  0  0  0  0  0
  -24.1829  -13.0431   20.9208 C   0  0  0  0  0  0
  -24.6394  -11.6901   20.8750 C   0  0  0  0  0  0
  -23.9062  -10.4288   21.0414 C   0  0  0  0  0  0
  -24.3616   -9.4202   21.9186 C   0  0  0  0  0  0
  -23.6291   -8.2239   22.0755 C   0  0  0  0  0  0
  -22.4273   -8.0280   21.3545 C   0  0  0  0  0  0
  -21.9908   -9.0255   20.4648 C   0  0  0  0  0  0
  -22.7238  -10.2133   20.3059 C   0  0  0  0  0  0
  -21.6851   -6.0733   22.5278 C   0  0  0  0  0  0
  -21.4015   -6.5637   23.8213 C   0  0  0  0  0  0
  -21.3658   -5.6790   24.9174 C   0  0  0  0  0  0
  -21.6043   -4.3052   24.7224 C   0  0  0  0  0  0
  -21.8819   -3.8146   23.4345 C   0  0  0  0  0  0
  -21.9194   -4.6962   22.3401 C   0  0  0  0  0  0
  -22.7853  -13.5231   21.1862 C   0  0  0  0  0  0
  -22.1662   -4.2150   21.0978 F   0  0  0  0  0  0
  -21.5628   -3.4536   25.7737 F   0  0  0  0  0  0
  -30.0111  -13.4291   20.4228 N   0  0  0  0  0  0
  -26.2978  -12.9331   20.3289 N   0  0  0  0  0  0
  -25.9318  -11.6493   20.5750 N   0  0  0  0  0  0
  -22.0487  -12.8230   22.0417 N   0  0  0  0  0  0
  -25.4250  -15.1869   20.4020 N   0  0  0  0  0  0
  -31.7888  -14.8148   20.1374 O   0  0  0  0  0  0
  -21.6637   -6.8878   21.4240 O   0  0  0  0  0  0
  -22.3546  -14.5539   20.6706 O   0  0  0  0  0  0
  -24.6273  -31.8599   23.2025 C   0  0  0  0  0  0
  -25.9118  -32.4780   23.8353 C   0  0  1  0  0  0
  -27.2243  -27.3132   20.1125 C   0  0  0  0  0  0
  -25.5932  -33.8580   24.2281 N   0  0  0  0  0  0
  -23.4208  -30.4845   21.5463 C   0  0  2  0  0  0
  -24.8662  -28.9395   20.1136 C   0  0  0  0  0  0
  -22.7479  -29.4628   22.4939 C   0  0  0  0  0  0
  -18.0289  -28.1390   22.8487 C   0  0  0  0  0  0
  -24.1492  -36.7292   23.2640 C   0  0  0  0  0  0
  -25.9634  -30.7893   21.3741 C   0  0  0  0  0  0
  -26.0374  -29.4165   20.7150 C   0  0  0  0  0  0
  -27.2199  -28.6166   20.7021 C   0  0  0  0  0  0
  -26.0242  -26.8901   19.4935 C   0  0  0  0  0  0
  -24.8620  -27.6819   19.4947 C   0  0  0  0  0  0
  -23.6352  -29.8210   20.1617 C   0  0  0  0  0  0
  -25.4119  -36.3085   24.0328 C   0  0  1  0  0  0
  -20.5889  -28.3694   23.1283 C   0  0  2  0  0  0
  -20.6779  -26.9417   22.5410 C   0  0  0  0  0  0
  -19.5753  -26.6389   21.5213 C   0  0  0  0  0  0
  -18.1933  -26.7933   22.1625 C   0  0  0  0  0  0
  -19.1541  -28.8859   23.2880 C   0  0  0  0  0  0
  -18.9463  -30.1462   23.8896 C   0  0  0  0  0  0
  -17.6462  -30.6589   24.0567 C   0  0  0  0  0  0
  -25.9055  -34.9452   23.5104 C   0  0  0  0  0  0
  -16.5355  -29.9088   23.6331 C   0  0  0  0  0  0
  -16.7275  -28.6507   23.0348 C   0  0  0  0  0  0
  -26.4499  -31.6587   25.0723 C   0  0  0  0  0  0
  -25.3727  -31.3733   26.1447 C   0  0  0  0  0  0
  -27.0340  -30.3012   24.6176 C   0  0  0  0  0  0
  -27.6061  -32.4319   25.7491 C   0  0  0  0  0  0
  -27.5579  -37.1809   24.8471 C   0  0  0  0  0  0
  -21.4192  -29.3048   22.3677 N   0  0  0  0  0  0
  -26.4300  -37.3775   23.9400 N   0  0  0  0  0  0
  -24.6895  -31.0608   22.0979 N   0  0  0  0  0  0
  -23.4201  -28.8160   23.3014 O   0  0  0  0  0  0
  -28.3452  -26.4646   20.1472 O   0  0  0  0  0  0
  -26.5620  -34.8917   22.4669 O   0  0  0  0  0  0
  -23.5435  -32.1401   23.7349 O   0  0  0  0  0  0
  -31.1736  -19.3050   20.6330 C   0  0  0  0  0  0
  -31.1282  -17.8831   20.7486 C   0  0  0  0  0  0
  -28.7653  -17.9709   20.3485 C   0  0  0  0  0  0
  -30.0355  -20.1191   20.3311 C   0  0  0  0  0  0
  -29.9161  -17.1664   20.6035 C   0  0  0  0  0  0
  -28.8073  -19.3977   20.1910 C   0  0  0  0  0  0
  -30.2263  -21.6333   20.1536 C   0  0  0  0  0  0
  -29.3999  -24.0894   20.1795 C   0  0  0  0  0  0
  -28.1123  -24.9942   20.0981 C   0  0  0  0  0  0
  -27.6069  -20.0619   19.9011 N   0  0  0  0  0  0
  -29.7801  -15.7128   20.7636 N   0  0  0  0  0  0
  -29.2545  -22.6093   20.2839 N   0  0  0  0  0  0
  -31.4623  -22.0313   19.8157 N   0  3  0  0  0  0
  -30.5226  -24.6084   20.1129 O   0  0  0  0  0  0
  -31.4814  -12.5341   19.1485 H   0  0  0  0  0  0
  -30.3834  -11.4101   19.9020 H   0  0  0  0  0  0
  -29.7773  -11.7471   17.4849 H   0  0  0  0  0  0
  -29.6456  -13.4690   17.7354 H   0  0  0  0  0  0
  -27.8763  -11.2837   18.8782 H   0  0  0  0  0  0
  -27.3767  -12.5544   17.7943 H   0  0  0  0  0  0
  -27.6634  -14.2452   19.5055 H   0  0  0  0  0  0
  -28.7133  -12.0658   21.3813 H   0  0  0  0  0  0
  -28.4409  -13.7240   21.8347 H   0  0  0  0  0  0
  -25.2763   -9.5674   22.4758 H   0  0  0  0  0  0
  -24.0001   -7.4627   22.7471 H   0  0  0  0  0  0
  -21.0841   -8.8775   19.8952 H   0  0  0  0  0  0
  -22.3700  -10.9673   19.6169 H   0  0  0  0  0  0
  -21.2007   -7.6145   23.9715 H   0  0  0  0  0  0
  -21.1478   -6.0519   25.9076 H   0  0  0  0  0  0
  -22.0600   -2.7608   23.2844 H   0  0  0  0  0  0
  -22.4094  -11.9887   22.4805 H   0  0  0  0  0  0
  -21.1106  -13.1263   22.2619 H   0  0  0  0  0  0
  -24.6440  -15.8294   20.4826 H   0  0  0  0  0  0
  -26.2403  -15.6088   19.9796 H   0  0  0  0  0  0
  -26.7184  -32.5448   23.1099 H   0  0  0  0  0  0
  -25.0083  -33.9725   25.0428 H   0  0  0  0  0  0
  -22.7153  -31.3059   21.4043 H   0  0  0  0  0  0
  -23.3746  -35.9634   23.3328 H   0  0  0  0  0  0
  -24.3578  -36.8885   22.2049 H   0  0  0  0  0  0
  -23.7255  -37.6506   23.6644 H   0  0  0  0  0  0
  -26.0962  -31.5533   20.6070 H   0  0  0  0  0  0
  -26.8432  -30.8369   22.0040 H   0  0  0  0  0  0
  -28.1194  -28.9805   21.1785 H   0  0  0  0  0  0
  -25.9458  -25.9342   19.0008 H   0  0  0  0  0  0
  -23.9639  -27.3107   19.0202 H   0  0  0  0  0  0
  -23.7563  -30.5982   19.4063 H   0  0  0  0  0  0
  -22.7542  -29.2525   19.8583 H   0  0  0  0  0  0
  -25.1302  -36.1945   25.0822 H   0  0  0  0  0  0
  -20.9983  -28.3270   24.1404 H   0  0  0  0  0  0
  -20.5682  -26.2303   23.3608 H   0  0  0  0  0  0
  -21.6647  -26.7452   22.1201 H   0  0  0  0  0  0
  -19.6914  -25.6299   21.1243 H   0  0  0  0  0  0
  -19.6688  -27.3198   20.6742 H   0  0  0  0  0  0
  -17.4201  -26.6680   21.4028 H   0  0  0  0  0  0
  -18.0335  -26.0076   22.9023 H   0  0  0  0  0  0
  -19.7938  -30.7283   24.2260 H   0  0  0  0  0  0
  -17.5016  -31.6268   24.5172 H   0  0  0  0  0  0
  -15.5354  -30.2989   23.7659 H   0  0  0  0  0  0
  -15.8675  -28.0830   22.7059 H   0  0  0  0  0  0
  -24.5902  -30.7081   25.7777 H   0  0  0  0  0  0
  -24.8915  -32.2900   26.4864 H   0  0  0  0  0  0
  -25.8045  -30.8916   27.0228 H   0  0  0  0  0  0
  -26.2915  -29.6762   24.1201 H   0  0  0  0  0  0
  -27.4044  -29.7271   25.4680 H   0  0  0  0  0  0
  -27.8781  -30.4303   23.9397 H   0  0  0  0  0  0
  -27.2681  -33.3622   26.2068 H   0  0  0  0  0  0
  -28.3869  -32.6874   25.0313 H   0  0  0  0  0  0
  -28.0729  -31.8440   26.5405 H   0  0  0  0  0  0
  -28.2622  -38.0081   24.7488 H   0  0  0  0  0  0
  -28.1049  -36.2613   24.6339 H   0  0  0  0  0  0
  -27.2291  -37.1512   25.8874 H   0  0  0  0  0  0
  -20.9369  -29.8774   21.6891 H   0  0  0  0  0  0
  -26.0185  -38.2857   24.1375 H   0  0  0  0  0  0
  -32.1382  -19.7687   20.7785 H   0  0  0  0  0  0
  -32.0420  -17.3498   20.9711 H   0  0  0  0  0  0
  -27.8144  -17.4690   20.2478 H   0  0  0  0  0  0
  -27.4309  -24.7042   20.8985 H   0  0  0  0  0  0
  -27.6459  -24.7226   19.1524 H   0  0  0  0  0  0
  -26.7812  -19.4797   20.0119 H   0  0  0  0  0  0
  -27.5644  -20.4337   18.9554 H   0  0  0  0  0  0
  -28.8450  -15.4047   20.9766 H   0  0  0  0  0  0
  -28.3482  -22.1670   20.3965 H   0  0  0  0  0  0
  -32.1890  -21.3623   19.6188 H   0  0  0  0  0  0
  -31.6523  -23.0242   19.7464 H   0  0  0  0  0  0
  1 25  1  0  0  0
  1 30  2  0  0  0
  1 81  1  0  0  0
  2  3  1  0  0  0
  2 25  1  0  0  0
  2 85  1  0  0  0
  2 86  1  0  0  0
  3  4  1  0  0  0
  3 87  1  0  0  0
  3 88  1  0  0  0
  4  5  1  0  0  0
  4 89  1  0  0  0
  4 90  1  0  0  0
  5  6  1  0  0  0
  5 26  1  0  0  0
  5 91  1  0  0  0
  6 25  1  0  0  0
  6 92  1  0  0  0
  6 93  1  0  0  0
  7  8  2  0  0  0
  7 26  1  0  0  0
  7 29  1  0  0  0
  8  9  1  0  0  0
  8 22  1  0  0  0
  9 10  1  0  0  0
  9 27  2  0  0  0
 10 11  2  0  0  0
 10 15  1  0  0  0
 11 12  1  0  0  0
 11 94  1  0  0  0
 12 13  2  0  0  0
 12 95  1  0  0  0
 13 14  1  0  0  0
 13 31  1  0  0  0
 14 15  2  0  0  0
 14 96  1  0  0  0
 15 97  1  0  0  0
 16 17  2  0  0  0
 16 21  1  0  0  0
 16 31  1  0  0  0
 17 18  1  0  0  0
 17 98  1  0  0  0
 18 19  2  0  0  0
 18 99  1  0  0  0
 19 20  1  0  0  0
 19 24  1  0  0  0
 20 21  2  0  0  0
 20100  1  0  0  0
 21 23  1  0  0  0
 22 28  1  0  0  0
 22 32  2  0  0  0
 26 27  1  0  0  0
 28101  1  0  0  0
 28102  1  0  0  0
 29103  1  0  0  0
 29104  1  0  0  0
 33 34  1  0  0  0
 33 66  1  0  0  0
 33 70  2  0  0  0
 34 36  1  0  0  0
 34 59  1  0  0  0
 34105  1  0  0  0
 35 44  2  0  0  0
 35 45  1  0  0  0
 35 68  1  0  0  0
 36 56  1  0  0  0
 36106  1  0  0  0
 37 39  1  0  0  0
 37 47  1  0  0  0
 37 66  1  0  0  0
 37107  1  0  0  0
 38 43  2  0  0  0
 38 46  1  0  0  0
 38 47  1  0  0  0
 39 64  1  0  0  0
 39 67  2  0  0  0
 40 52  1  0  0  0
 40 53  2  0  0  0
 40 58  1  0  0  0
 41108  1  0  0  0
 41109  1  0  0  0
 41110  1  0  0  0
 41 48  1  0  0  0
 42 43  1  0  0  0
 42 66  1  0  0  0
 42111  1  0  0  0
 42112  1  0  0  0
 43 44  1  0  0  0
 44113  1  0  0  0
 45 46  2  0  0  0
 45114  1  0  0  0
 46115  1  0  0  0
 47116  1  0  0  0
 47117  1  0  0  0
 48 56  1  0  0  0
 48 65  1  0  0  0
 48118  1  0  0  0
 49 50  1  0  0  0
 49 53  1  0  0  0
 49 64  1  0  0  0
 49119  1  0  0  0
 50 51  1  0  0  0
 50120  1  0  0  0
 50121  1  0  0  0
 51 52  1  0  0  0
 51122  1  0  0  0
 51123  1  0  0  0
 52124  1  0  0  0
 52125  1  0  0  0
 53 54  1  0  0  0
 54 55  2  0  0  0
 54126  1  0  0  0
 55 57  1  0  0  0
 55127  1  0  0  0
 56 69  2  0  0  0
 57 58  2  0  0  0
 57128  1  0  0  0
 58129  1  0  0  0
 59 60  1  0  0  0
 59 61  1  0  0  0
 59 62  1  0  0  0
 60130  1  0  0  0
 60131  1  0  0  0
 60132  1  0  0  0
 61133  1  0  0  0
 61134  1  0  0  0
 61135  1  0  0  0
 62136  1  0  0  0
 62137  1  0  0  0
 62138  1  0  0  0
 63 65  1  0  0  0
 63139  1  0  0  0
 63140  1  0  0  0
 63141  1  0  0  0
 64142  1  0  0  0
 65143  1  0  0  0
 68 79  1  0  0  0
 71 72  2  0  0  0
 71 74  1  0  0  0
 71144  1  0  0  0
 72 75  1  0  0  0
 72145  1  0  0  0
 73 75  2  0  0  0
 73 76  1  0  0  0
 73146  1  0  0  0
 74 76  2  0  0  0
 74 77  1  0  0  0
 75 81  1  0  0  0
 76 80  1  0  0  0
 77 82  1  0  0  0
 77 83  2  0  0  0
 78 79  1  0  0  0
 78 82  1  0  0  0
 78 84  2  0  0  0
 79147  1  0  0  0
 79148  1  0  0  0
 80149  1  0  0  0
 80150  1  0  0  0
 81151  1  0  0  0
 82152  1  0  0  0
 83153  1  0  0  0
 83154  1  0  0  0
M  CHG  1  83   1
M  ISO  4   1 100  68 101  79 101  81 100
M  END
> <chiral flag>
0

> <version>
0

> <s_m_source_file>
/data/baiqing/PycharmProjects/Reinvent-master-3.2/result/LINK_invent/BTK/process_docking_weight1_custom_product_contain_oxygen_bond_distance_aromatic_linkinvent_7_9_3/rearranged_h_0068.sdf

> <i_m_source_file_index>
43

> <r_mmod_Potential_Energy-OPLS-2005>
-59.794620513916

> <r_mmod_Stretch_Energy-OPLS-2005>
90.7111740112305

> <r_mmod_Bend_Energy-OPLS-2005>
145.303558349609

> <r_mmod_Torsional_Energy-OPLS-2005>
230.414321899414

> <r_mmod_Improper_Torsional_Energy-OPLS-2005>
11.8798027038574

> <r_mmod_Van_der_Waal_Energy-OPLS-2005>
163.050445556641

> <r_mmod_Electrostatic_Energy-OPLS-2005>
-298.842834472656

> <r_mmod_Solvation_Energy-OPLS-2005>
-455.189056396484

> <b_mmod_Minimization_Converged-OPLS-2005>
0

> <r_mmod_RMS_Derivative-OPLS-2005>
0.414398461580276

$$$$
43
                    3D
 Structure written by MMmdl.
151159  0  0  1  0            999 V2000
  -30.6173  -14.7275   20.4316 C   0  0  0  0  0  0
  -30.4258  -12.4370   19.4783 C   0  0  0  0  0  0
  -29.5098  -12.5018   18.2372 C   0  0  0  0  0  0
  -28.0335  -12.3350   18.6454 C   0  0  0  0  0  0
  -27.6400  -13.2342   19.8479 C   0  0  2  0  0  0
  -28.6818  -13.1682   20.9856 C   0  0  0  0  0  0
  -25.2501  -13.8206   20.5687 C   0  0  0  0  0  0
  -24.1793  -13.0448   20.9200 C   0  0  0  0  0  0
  -24.6384  -11.6925   20.8737 C   0  0  0  0  0  0
  -23.9065  -10.4296   21.0399 C   0  0  0  0  0  0
  -24.3619   -9.4215   21.9179 C   0  0  0  0  0  0
  -23.6297   -8.2249   22.0753 C   0  0  0  0  0  0
  -22.4277   -8.0284   21.3547 C   0  0  0  0  0  0
  -21.9906   -9.0255   20.4650 C   0  0  0  0  0  0
  -22.7231  -10.2136   20.3058 C   0  0  0  0  0  0
  -21.6855   -6.0734   22.5277 C   0  0  0  0  0  0
  -21.4020   -6.5640   23.8211 C   0  0  0  0  0  0
  -21.3657   -5.6791   24.9173 C   0  0  0  0  0  0
  -21.6046   -4.3053   24.7222 C   0  0  0  0  0  0
  -21.8819   -3.8144   23.4344 C   0  0  0  0  0  0
  -21.9198   -4.6962   22.3399 C   0  0  0  0  0  0
  -22.7816  -13.5227   21.1862 C   0  0  0  0  0  0
  -22.1665   -4.2151   21.0975 F   0  0  0  0  0  0
  -21.5627   -3.4534   25.7733 F   0  0  0  0  0  0
  -29.9876  -13.5046   20.4071 N   0  0  0  0  0  0
  -26.2921  -12.9416   20.3255 N   0  0  0  0  0  0
  -25.9313  -11.6555   20.5735 N   0  0  0  0  0  0
  -22.0459  -12.8226   22.0421 N   0  0  0  0  0  0
  -25.4201  -15.1934   20.4113 N   0  0  0  0  0  0
  -31.8147  -14.7930   20.1387 O   0  0  0  0  0  0
  -21.6646   -6.8875   21.4240 O   0  0  0  0  0  0
  -22.3496  -14.5518   20.6686 O   0  0  0  0  0  0
  -24.6305  -31.8551   23.1978 C   0  0  0  0  0  0
  -25.9145  -32.4743   23.8311 C   0  0  1  0  0  0
  -27.2192  -27.2660   20.1189 C   0  0  0  0  0  0
  -25.5937  -33.8547   24.2225 N   0  0  0  0  0  0
  -23.4247  -30.4777   21.5406 C   0  0  2  0  0  0
  -24.8692  -28.9243   20.1081 C   0  0  0  0  0  0
  -22.7489  -29.4601   22.4915 C   0  0  0  0  0  0
  -18.0283  -28.1376   22.8473 C   0  0  0  0  0  0
  -24.1488  -36.7286   23.2630 C   0  0  0  0  0  0
  -25.9708  -30.7678   21.3776 C   0  0  0  0  0  0
  -26.0399  -29.3917   20.7162 C   0  0  0  0  0  0
  -27.2138  -28.5744   20.7100 C   0  0  0  0  0  0
  -26.0178  -26.8574   19.4956 C   0  0  0  0  0  0
  -24.8637  -27.6646   19.4897 C   0  0  0  0  0  0
  -23.6407  -29.8108   20.1564 C   0  0  0  0  0  0
  -25.4115  -36.3062   24.0313 C   0  0  1  0  0  0
  -20.5886  -28.3684   23.1270 C   0  0  2  0  0  0
  -20.6763  -26.9402   22.5406 C   0  0  0  0  0  0
  -19.5744  -26.6374   21.5203 C   0  0  0  0  0  0
  -18.1930  -26.7916   22.1621 C   0  0  0  0  0  0
  -19.1536  -28.8850   23.2858 C   0  0  0  0  0  0
  -18.9465  -30.1456   23.8870 C   0  0  0  0  0  0
  -17.6465  -30.6579   24.0559 C   0  0  0  0  0  0
  -25.9066  -34.9436   23.5072 C   0  0  0  0  0  0
  -16.5358  -29.9076   23.6332 C   0  0  0  0  0  0
  -16.7272  -28.6496   23.0345 C   0  0  0  0  0  0
  -26.4502  -31.6582   25.0716 C   0  0  0  0  0  0
  -25.3726  -31.3746   26.1440 C   0  0  0  0  0  0
  -27.0335  -30.2982   24.6234 C   0  0  0  0  0  0
  -27.6034  -32.4342   25.7504 C   0  0  0  0  0  0
  -27.5590  -37.1787   24.8451 C   0  0  0  0  0  0
  -21.4196  -29.3039   22.3669 N   0  0  0  0  0  0
  -26.4278  -37.3782   23.9422 N   0  0  0  0  0  0
  -24.6939  -31.0526   22.0943 N   0  0  0  0  0  0
  -23.4203  -28.8149   23.3010 O   0  0  0  0  0  0
  -28.3448  -26.4143   20.1970 O   0  0  0  0  0  0
  -26.5654  -34.8929   22.4654 O   0  0  0  0  0  0
  -23.5463  -32.1376   23.7286 O   0  0  0  0  0  0
  -29.4320  -18.4819   20.5465 C   0  0  0  0  0  0
  -30.5397  -19.8354   18.8563 C   0  0  0  0  0  0
  -30.9265  -17.4181   18.9493 C   0  0  0  0  0  0
  -29.6432  -19.8010   19.9505 C   0  0  0  0  0  0
  -30.0739  -17.2573   20.0680 C   0  0  0  0  0  0
  -31.1572  -18.6735   18.3616 C   0  0  0  0  0  0
  -28.8914  -22.3035   19.7746 C   0  0  0  0  0  0
  -28.5345  -23.6792   20.5142 C   0  0  0  0  0  0
  -28.4177  -25.0282   19.6194 C   0  0  0  0  0  0
  -29.0631  -21.0889   20.4370 N   0  0  0  0  0  0
  -29.8564  -15.8804   20.6050 N   0  0  0  0  0  0
  -28.9734  -22.3540   18.5452 O   0  0  0  0  0  0
  -31.9911  -18.7645   17.2981 F   0  0  0  0  0  0
  -31.4694  -12.5482   19.1779 H   0  0  0  0  0  0
  -30.3583  -11.4611   19.9611 H   0  0  0  0  0  0
  -29.7892  -11.7291   17.5202 H   0  0  0  0  0  0
  -29.6460  -13.4575   17.7280 H   0  0  0  0  0  0
  -27.8827  -11.2864   18.9041 H   0  0  0  0  0  0
  -27.3822  -12.5359   17.7944 H   0  0  0  0  0  0
  -27.6355  -14.2561   19.4682 H   0  0  0  0  0  0
  -28.7061  -12.1730   21.4327 H   0  0  0  0  0  0
  -28.4189  -13.8582   21.7892 H   0  0  0  0  0  0
  -25.2769   -9.5694   22.4749 H   0  0  0  0  0  0
  -24.0012   -7.4640   22.7464 H   0  0  0  0  0  0
  -21.0839   -8.8766   19.8954 H   0  0  0  0  0  0
  -22.3685  -10.9672   19.6167 H   0  0  0  0  0  0
  -21.2014   -7.6148   23.9714 H   0  0  0  0  0  0
  -21.1480   -6.0522   25.9076 H   0  0  0  0  0  0
  -22.0600   -2.7610   23.2841 H   0  0  0  0  0  0
  -22.4083  -11.9917   22.4854 H   0  0  0  0  0  0
  -21.1070  -13.1250   22.2589 H   0  0  0  0  0  0
  -24.6523  -15.8474   20.5183 H   0  0  0  0  0  0
  -26.2661  -15.6312   20.0691 H   0  0  0  0  0  0
  -26.7214  -32.5375   23.1051 H   0  0  0  0  0  0
  -25.0056  -33.9678   25.0349 H   0  0  0  0  0  0
  -22.7206  -31.2996   21.3949 H   0  0  0  0  0  0
  -23.3764  -35.9603   23.3251 H   0  0  0  0  0  0
  -24.3580  -36.8965   22.2054 H   0  0  0  0  0  0
  -23.7239  -37.6467   23.6696 H   0  0  0  0  0  0
  -26.1179  -31.5312   20.6129 H   0  0  0  0  0  0
  -26.8466  -30.8085   22.0132 H   0  0  0  0  0  0
  -28.1112  -28.9279   21.1980 H   0  0  0  0  0  0
  -25.9178  -25.8909   19.0303 H   0  0  0  0  0  0
  -23.9637  -27.2957   19.0158 H   0  0  0  0  0  0
  -23.7654  -30.5863   19.3998 H   0  0  0  0  0  0
  -22.7587  -29.2441   19.8512 H   0  0  0  0  0  0
  -25.1302  -36.1876   25.0805 H   0  0  0  0  0  0
  -20.9964  -28.3250   24.1393 H   0  0  0  0  0  0
  -20.5644  -26.2290   23.3603 H   0  0  0  0  0  0
  -21.6638  -26.7417   22.1219 H   0  0  0  0  0  0
  -19.6901  -25.6280   21.1241 H   0  0  0  0  0  0
  -19.6686  -27.3173   20.6722 H   0  0  0  0  0  0
  -17.4198  -26.6653   21.4030 H   0  0  0  0  0  0
  -18.0340  -26.0058   22.9017 H   0  0  0  0  0  0
  -19.7948  -30.7275   24.2222 H   0  0  0  0  0  0
  -17.5026  -31.6254   24.5163 H   0  0  0  0  0  0
  -15.5361  -30.2974   23.7665 H   0  0  0  0  0  0
  -15.8671  -28.0818   22.7061 H   0  0  0  0  0  0
  -24.5895  -30.7097   25.7786 H   0  0  0  0  0  0
  -24.8931  -32.2918   26.4865 H   0  0  0  0  0  0
  -25.8051  -30.8933   27.0220 H   0  0  0  0  0  0
  -26.2915  -29.6738   24.1242 H   0  0  0  0  0  0
  -27.3955  -29.7254   25.4784 H   0  0  0  0  0  0
  -27.8830  -30.4221   23.9514 H   0  0  0  0  0  0
  -27.2605  -33.3632   26.2076 H   0  0  0  0  0  0
  -28.3856  -32.6929   25.0355 H   0  0  0  0  0  0
  -28.0689  -31.8482   26.5439 H   0  0  0  0  0  0
  -28.2559  -38.0132   24.7571 H   0  0  0  0  0  0
  -28.1139  -36.2672   24.6173 H   0  0  0  0  0  0
  -27.2322  -37.1311   25.8854 H   0  0  0  0  0  0
  -20.9373  -29.8767   21.6885 H   0  0  0  0  0  0
  -26.0139  -38.2839   24.1470 H   0  0  0  0  0  0
  -28.7625  -18.4087   21.3913 H   0  0  0  0  0  0
  -30.7905  -20.7640   18.3677 H   0  0  0  0  0  0
  -31.4252  -16.5741   18.4993 H   0  0  0  0  0  0
  -29.3039  -23.8370   21.2701 H   0  0  0  0  0  0
  -27.6040  -23.5347   21.0627 H   0  0  0  0  0  0
  -27.6646  -24.8654   18.8538 H   0  0  0  0  0  0
  -29.3366  -25.0602   19.0335 H   0  0  0  0  0  0
  -28.7979  -21.1034   21.4137 H   0  0  0  0  0  0
  -28.9543  -15.7201   21.0279 H   0  0  0  0  0  0
  1 25  1  0  0  0
  1 30  2  0  0  0
  1 81  1  0  0  0
  2  3  1  0  0  0
  2 25  1  0  0  0
  2 84  1  0  0  0
  2 85  1  0  0  0
  3  4  1  0  0  0
  3 86  1  0  0  0
  3 87  1  0  0  0
  4  5  1  0  0  0
  4 88  1  0  0  0
  4 89  1  0  0  0
  5  6  1  0  0  0
  5 26  1  0  0  0
  5 90  1  0  0  0
  6 25  1  0  0  0
  6 91  1  0  0  0
  6 92  1  0  0  0
  7  8  2  0  0  0
  7 26  1  0  0  0
  7 29  1  0  0  0
  8  9  1  0  0  0
  8 22  1  0  0  0
  9 10  1  0  0  0
  9 27  2  0  0  0
 10 11  2  0  0  0
 10 15  1  0  0  0
 11 12  1  0  0  0
 11 93  1  0  0  0
 12 13  2  0  0  0
 12 94  1  0  0  0
 13 14  1  0  0  0
 13 31  1  0  0  0
 14 15  2  0  0  0
 14 95  1  0  0  0
 15 96  1  0  0  0
 16 17  2  0  0  0
 16 21  1  0  0  0
 16 31  1  0  0  0
 17 18  1  0  0  0
 17 97  1  0  0  0
 18 19  2  0  0  0
 18 98  1  0  0  0
 19 20  1  0  0  0
 19 24  1  0  0  0
 20 21  2  0  0  0
 20 99  1  0  0  0
 21 23  1  0  0  0
 22 28  1  0  0  0
 22 32  2  0  0  0
 26 27  1  0  0  0
 28100  1  0  0  0
 28101  1  0  0  0
 29102  1  0  0  0
 29103  1  0  0  0
 33 34  1  0  0  0
 33 66  1  0  0  0
 33 70  2  0  0  0
 34 36  1  0  0  0
 34 59  1  0  0  0
 34104  1  0  0  0
 35 44  2  0  0  0
 35 45  1  0  0  0
 35 68  1  0  0  0
 36 56  1  0  0  0
 36105  1  0  0  0
 37 39  1  0  0  0
 37 47  1  0  0  0
 37 66  1  0  0  0
 37106  1  0  0  0
 38 43  2  0  0  0
 38 46  1  0  0  0
 38 47  1  0  0  0
 39 64  1  0  0  0
 39 67  2  0  0  0
 40 52  1  0  0  0
 40 53  2  0  0  0
 40 58  1  0  0  0
 41107  1  0  0  0
 41108  1  0  0  0
 41109  1  0  0  0
 41 48  1  0  0  0
 42 43  1  0  0  0
 42 66  1  0  0  0
 42110  1  0  0  0
 42111  1  0  0  0
 43 44  1  0  0  0
 44112  1  0  0  0
 45 46  2  0  0  0
 45113  1  0  0  0
 46114  1  0  0  0
 47115  1  0  0  0
 47116  1  0  0  0
 48 56  1  0  0  0
 48 65  1  0  0  0
 48117  1  0  0  0
 49 50  1  0  0  0
 49 53  1  0  0  0
 49 64  1  0  0  0
 49118  1  0  0  0
 50 51  1  0  0  0
 50119  1  0  0  0
 50120  1  0  0  0
 51 52  1  0  0  0
 51121  1  0  0  0
 51122  1  0  0  0
 52123  1  0  0  0
 52124  1  0  0  0
 53 54  1  0  0  0
 54 55  2  0  0  0
 54125  1  0  0  0
 55 57  1  0  0  0
 55126  1  0  0  0
 56 69  2  0  0  0
 57 58  2  0  0  0
 57127  1  0  0  0
 58128  1  0  0  0
 59 60  1  0  0  0
 59 61  1  0  0  0
 59 62  1  0  0  0
 60129  1  0  0  0
 60130  1  0  0  0
 60131  1  0  0  0
 61132  1  0  0  0
 61133  1  0  0  0
 61134  1  0  0  0
 62135  1  0  0  0
 62136  1  0  0  0
 62137  1  0  0  0
 63 65  1  0  0  0
 63138  1  0  0  0
 63139  1  0  0  0
 63140  1  0  0  0
 64141  1  0  0  0
 65142  1  0  0  0
 68 79  1  0  0  0
 71 74  2  0  0  0
 71 75  1  0  0  0
 71143  1  0  0  0
 72 74  1  0  0  0
 72 76  2  0  0  0
 72144  1  0  0  0
 73 75  2  0  0  0
 73 76  1  0  0  0
 73145  1  0  0  0
 74 80  1  0  0  0
 75 81  1  0  0  0
 76 83  1  0  0  0
 77 78  1  0  0  0
 77 80  1  0  0  0
 77 82  2  0  0  0
 78 79  1  0  0  0
 78146  1  0  0  0
 78147  1  0  0  0
 79148  1  0  0  0
 79149  1  0  0  0
 80150  1  0  0  0
 81151  1  0  0  0
M  ISO  4   1 100  68 101  79 101  81 100
M  END
> <chiral flag>
0

> <version>
0

> <s_m_source_file>
/data/baiqing/PycharmProjects/Reinvent-master-3.2/result/LINK_invent/BTK/process_docking_weight1_custom_product_contain_oxygen_bond_distance_aromatic_linkinvent_7_9_3/rearranged_h_0068.sdf

> <i_m_source_file_index>
44

> <r_mmod_Potential_Energy-OPLS-2005>
160.487426757812

> <r_mmod_Stretch_Energy-OPLS-2005>
127.065689086914

> <r_mmod_Bend_Energy-OPLS-2005>
168.079605102539

> <r_mmod_Torsional_Energy-OPLS-2005>
232.350234985352

> <r_mmod_Improper_Torsional_Energy-OPLS-2005>
4.75796127319336

> <r_mmod_Van_der_Waal_Energy-OPLS-2005>
149.042633056641

> <r_mmod_Electrostatic_Energy-OPLS-2005>
-364.885498046875

> <r_mmod_Solvation_Energy-OPLS-2005>
-234.809768676758

> <b_mmod_Minimization_Converged-OPLS-2005>
0

> <r_mmod_RMS_Derivative-OPLS-2005>
1.30600321292877

$$$$
44
                    3D
 Structure written by MMmdl.
157165  0  0  1  0            999 V2000
  -29.8114  -16.8965   20.2530 C   0  0  0  0  0  0
  -30.2677  -14.0418   19.5329 C   0  0  0  0  0  0
  -29.5785  -13.0791   18.4556 C   0  0  0  0  0  0
  -28.2784  -12.4474   18.9528 C   0  0  0  0  0  0
  -27.5731  -13.4864   19.8307 C   0  0  2  0  0  0
  -28.4795  -14.3008   20.8529 C   0  0  0  0  0  0
  -25.2099  -13.8583   20.6010 C   0  0  0  0  0  0
  -24.1667  -13.0488   20.9364 C   0  0  0  0  0  0
  -24.6619  -11.7081   20.8726 C   0  0  0  0  0  0
  -23.9337  -10.4340   21.0308 C   0  0  0  0  0  0
  -24.3792   -9.4244   21.9132 C   0  0  0  0  0  0
  -23.6399   -8.2305   22.0737 C   0  0  0  0  0  0
  -22.4370   -8.0343   21.3539 C   0  0  0  0  0  0
  -22.0062   -9.0329   20.4626 C   0  0  0  0  0  0
  -22.7459  -10.2176   20.2999 C   0  0  0  0  0  0
  -21.6891   -6.0781   22.5274 C   0  0  0  0  0  0
  -21.4049   -6.5667   23.8214 C   0  0  0  0  0  0
  -21.3665   -5.6807   24.9168 C   0  0  0  0  0  0
  -21.6042   -4.3068   24.7213 C   0  0  0  0  0  0
  -21.8813   -3.8170   23.4328 C   0  0  0  0  0  0
  -21.9204   -4.7000   22.3391 C   0  0  0  0  0  0
  -22.7616  -13.5045   21.1946 C   0  0  0  0  0  0
  -22.1662   -4.2185   21.0968 F   0  0  0  0  0  0
  -21.5621   -3.4540   25.7719 F   0  0  0  0  0  0
  -29.4336  -15.3046   20.1443 N   0  0  0  0  0  0
  -26.2848  -13.0318   20.3589 N   0  0  0  0  0  0
  -25.9662  -11.7169   20.5673 N   0  0  0  0  0  0
  -22.0356  -12.7975   22.0510 N   0  0  0  0  0  0
  -25.3327  -15.2355   20.4402 N   0  0  0  0  0  0
  -31.0633  -16.6294   20.1944 O   0  0  0  0  0  0
  -21.6688   -6.8957   21.4251 O   0  0  0  0  0  0
  -22.3214  -14.5321   20.6787 O   0  0  0  0  0  0
  -24.7674  -31.6907   23.0841 C   0  0  0  0  0  0
  -25.9811  -32.3959   23.7720 C   0  0  1  0  0  0
  -27.2941  -25.8284   20.2748 C   0  0  0  0  0  0
  -25.6008  -33.7839   24.1481 N   0  0  0  0  0  0
  -23.6358  -30.2490   21.4579 C   0  0  2  0  0  0
  -25.1147  -28.4099   20.1458 C   0  0  0  0  0  0
  -22.8155  -29.3707   22.4496 C   0  0  0  0  0  0
  -18.0392  -28.1462   22.8411 C   0  0  0  0  0  0
  -24.1499  -36.6939   23.2675 C   0  0  0  0  0  0
  -26.2399  -30.1236   21.4974 C   0  0  0  0  0  0
  -26.3026  -28.5897   20.8638 C   0  0  0  0  0  0
  -27.3230  -27.3560   20.8963 C   0  0  0  0  0  0
  -26.0924  -26.1072   19.4766 C   0  0  0  0  0  0
  -25.1003  -27.1931   19.4277 C   0  0  0  0  0  0
  -23.9436  -29.4635   20.1332 C   0  0  0  0  0  0
  -25.4180  -36.2612   24.0229 C   0  0  1  0  0  0
  -20.6070  -28.3849   23.0991 C   0  0  2  0  0  0
  -20.6810  -26.9429   22.5429 C   0  0  0  0  0  0
  -19.5805  -26.6333   21.5231 C   0  0  0  0  0  0
  -18.1985  -26.7972   22.1600 C   0  0  0  0  0  0
  -19.1681  -28.9001   23.2653 C   0  0  0  0  0  0
  -18.9569  -30.1562   23.8739 C   0  0  0  0  0  0
  -17.6549  -30.6622   24.0529 C   0  0  0  0  0  0
  -25.9204  -34.9018   23.4771 C   0  0  0  0  0  0
  -16.5434  -29.9091   23.6367 C   0  0  0  0  0  0
  -16.7365  -28.6515   23.0385 C   0  0  0  0  0  0
  -26.4721  -31.6387   25.0694 C   0  0  0  0  0  0
  -25.3562  -31.3924   26.1141 C   0  0  0  0  0  0
  -27.0808  -30.2654   24.7233 C   0  0  0  0  0  0
  -27.6010  -32.4472   25.7525 C   0  0  0  0  0  0
  -27.5545  -37.1622   24.8468 C   0  0  0  0  0  0
  -21.4729  -29.2905   22.3215 N   0  0  0  0  0  0
  -26.4240  -37.3466   23.9409 N   0  0  0  0  0  0
  -24.9160  -30.7435   22.0639 N   0  0  0  0  0  0
  -23.4167  -28.7464   23.3254 O   0  0  0  0  0  0
  -27.9929  -24.1222   20.2222 O   0  0  0  0  0  0
  -26.5978  -34.8758   22.4480 O   0  0  0  0  0  0
  -23.6512  -32.0403   23.5193 O   0  0  0  0  0  0
  -27.4896  -23.1845   22.0745 C   0  0  0  0  0  0
  -28.9473  -24.3452   22.0452 C   0  0  0  0  0  0
  -27.5252  -21.6821   21.0917 C   0  0  0  0  0  0
  -29.7122  -22.1418   19.8872 C   0  0  0  0  0  0
  -30.0428  -23.7352   20.6663 C   0  0  0  0  0  0
  -28.7889  -20.7229   20.3370 C   0  0  0  0  0  0
  -31.9918  -23.3007   21.7244 C   0  0  0  0  0  0
  -31.4793  -22.2562   23.9496 C   0  0  0  0  0  0
  -31.7310  -20.8168   21.9584 C   0  0  0  0  0  0
  -29.5158  -22.2192   22.2180 C   0  0  0  0  0  0
  -31.1510  -22.1762   22.4332 C   0  0  0  0  0  0
  -31.3746  -24.0493   20.8143 N   0  0  0  0  0  0
  -29.0450  -18.5968   20.2804 N   0  0  0  0  0  0
  -33.1857  -23.4675   21.9858 O   0  0  0  0  0  0
  -31.1366  -14.4618   19.0256 H   0  0  0  0  0  0
  -30.7184  -13.4469   20.3304 H   0  0  0  0  0  0
  -30.2731  -12.3019   18.1354 H   0  0  0  0  0  0
  -29.3585  -13.6698   17.5663 H   0  0  0  0  0  0
  -28.5106  -11.5657   19.5509 H   0  0  0  0  0  0
  -27.6502  -12.1177   18.1240 H   0  0  0  0  0  0
  -27.2894  -14.2381   19.0913 H   0  0  0  0  0  0
  -28.9797  -13.6379   21.5623 H   0  0  0  0  0  0
  -27.8345  -14.9137   21.4827 H   0  0  0  0  0  0
  -25.2931   -9.5689   22.4732 H   0  0  0  0  0  0
  -24.0072   -7.4702   22.7484 H   0  0  0  0  0  0
  -21.0984   -8.8886   19.8936 H   0  0  0  0  0  0
  -22.3926  -10.9712   19.6096 H   0  0  0  0  0  0
  -21.2057   -7.6175   23.9733 H   0  0  0  0  0  0
  -21.1485   -6.0530   25.9076 H   0  0  0  0  0  0
  -22.0585   -2.7632   23.2814 H   0  0  0  0  0  0
  -22.4080  -11.9688   22.4906 H   0  0  0  0  0  0
  -21.0931  -13.0864   22.2700 H   0  0  0  0  0  0
  -24.5428  -15.8632   20.5459 H   0  0  0  0  0  0
  -26.1703  -15.6996   20.1145 H   0  0  0  0  0  0
  -26.8023  -32.4304   23.0546 H   0  0  0  0  0  0
  -24.9922  -33.8743   24.9477 H   0  0  0  0  0  0
  -23.0140  -31.1063   21.1901 H   0  0  0  0  0  0
  -23.3812  -35.9213   23.3209 H   0  0  0  0  0  0
  -24.3541  -36.8778   22.2117 H   0  0  0  0  0  0
  -23.7214  -37.6029   23.6903 H   0  0  0  0  0  0
  -26.5354  -30.7854   20.6825 H   0  0  0  0  0  0
  -27.0618  -30.2169   22.1912 H   0  0  0  0  0  0
  -28.1793  -27.5342   21.5307 H   0  0  0  0  0  0
  -25.8082  -25.2661   18.8598 H   0  0  0  0  0  0
  -24.2440  -27.0209   18.7901 H   0  0  0  0  0  0
  -24.1849  -30.1877   19.3545 H   0  0  0  0  0  0
  -23.0359  -28.9677   19.7855 H   0  0  0  0  0  0
  -25.1429  -36.1273   25.0717 H   0  0  0  0  0  0
  -21.0110  -28.3543   24.1136 H   0  0  0  0  0  0
  -20.5594  -26.2504   23.3773 H   0  0  0  0  0  0
  -21.6668  -26.7238   22.1306 H   0  0  0  0  0  0
  -19.6952  -25.6202   21.1368 H   0  0  0  0  0  0
  -19.6782  -27.3061   20.6703 H   0  0  0  0  0  0
  -17.4272  -26.6731   21.3986 H   0  0  0  0  0  0
  -18.0323  -26.0149   22.9020 H   0  0  0  0  0  0
  -19.8047  -30.7406   24.2060 H   0  0  0  0  0  0
  -17.5097  -31.6287   24.5163 H   0  0  0  0  0  0
  -15.5431  -30.2947   23.7772 H   0  0  0  0  0  0
  -15.8763  -28.0774   22.7202 H   0  0  0  0  0  0
  -24.5835  -30.7193   25.7396 H   0  0  0  0  0  0
  -24.8663  -32.3205   26.4101 H   0  0  0  0  0  0
  -25.7538  -30.9378   27.0226 H   0  0  0  0  0  0
  -26.3669  -29.5957   24.2433 H   0  0  0  0  0  0
  -27.4079  -29.7497   25.6272 H   0  0  0  0  0  0
  -27.9704  -30.3612   24.1011 H   0  0  0  0  0  0
  -27.2459  -33.3971   26.1540 H   0  0  0  0  0  0
  -28.4071  -32.6718   25.0524 H   0  0  0  0  0  0
  -28.0403  -31.9001   26.5878 H   0  0  0  0  0  0
  -28.2478  -37.9990   24.7529 H   0  0  0  0  0  0
  -28.1123  -36.2505   24.6287 H   0  0  0  0  0  0
  -27.2257  -37.1225   25.8865 H   0  0  0  0  0  0
  -21.0261  -29.8413   21.6013 H   0  0  0  0  0  0
  -26.0003  -38.2481   24.1424 H   0  0  0  0  0  0
  -26.6296  -23.4084   22.6890 H   0  0  0  0  0  0
  -29.1022  -25.2137   22.6708 H   0  0  0  0  0  0
  -26.6473  -21.0874   21.3015 H   0  0  0  0  0  0
  -30.5498  -21.8551   19.2677 H   0  0  0  0  0  0
  -32.5514  -22.2125   24.1477 H   0  0  0  0  0  0
  -31.0297  -21.4262   24.4964 H   0  0  0  0  0  0
  -31.1118  -23.1837   24.3906 H   0  0  0  0  0  0
  -32.7784  -20.7077   22.2429 H   0  0  0  0  0  0
  -31.6952  -20.6990   20.8771 H   0  0  0  0  0  0
  -31.1952  -19.9727   22.3915 H   0  0  0  0  0  0
  -29.2781  -22.4483   23.2741 H   0  0  0  0  0  0
  -29.2340  -21.1967   22.5032 H   0  0  0  0  0  0
  -31.8102  -24.8119   20.3139 H   0  0  0  0  0  0
  -28.0893  -18.2699   20.3344 H   0  0  0  0  0  0
  1 25  1  0  0  0
  1 30  2  0  0  0
  1 83  1  0  0  0
  2  3  1  0  0  0
  2 25  1  0  0  0
  2 85  1  0  0  0
  2 86  1  0  0  0
  3  4  1  0  0  0
  3 87  1  0  0  0
  3 88  1  0  0  0
  4  5  1  0  0  0
  4 89  1  0  0  0
  4 90  1  0  0  0
  5  6  1  0  0  0
  5 26  1  0  0  0
  5 91  1  0  0  0
  6 25  1  0  0  0
  6 92  1  0  0  0
  6 93  1  0  0  0
  7  8  2  0  0  0
  7 26  1  0  0  0
  7 29  1  0  0  0
  8  9  1  0  0  0
  8 22  1  0  0  0
  9 10  1  0  0  0
  9 27  2  0  0  0
 10 11  2  0  0  0
 10 15  1  0  0  0
 11 12  1  0  0  0
 11 94  1  0  0  0
 12 13  2  0  0  0
 12 95  1  0  0  0
 13 14  1  0  0  0
 13 31  1  0  0  0
 14 15  2  0  0  0
 14 96  1  0  0  0
 15 97  1  0  0  0
 16 17  2  0  0  0
 16 21  1  0  0  0
 16 31  1  0  0  0
 17 18  1  0  0  0
 17 98  1  0  0  0
 18 19  2  0  0  0
 18 99  1  0  0  0
 19 20  1  0  0  0
 19 24  1  0  0  0
 20 21  2  0  0  0
 20100  1  0  0  0
 21 23  1  0  0  0
 22 28  1  0  0  0
 22 32  2  0  0  0
 26 27  1  0  0  0
 28101  1  0  0  0
 28102  1  0  0  0
 29103  1  0  0  0
 29104  1  0  0  0
 33 34  1  0  0  0
 33 66  1  0  0  0
 33 70  2  0  0  0
 34 36  1  0  0  0
 34 59  1  0  0  0
 34105  1  0  0  0
 35 44  2  0  0  0
 35 45  1  0  0  0
 35 68  1  0  0  0
 36 56  1  0  0  0
 36106  1  0  0  0
 37 39  1  0  0  0
 37 47  1  0  0  0
 37 66  1  0  0  0
 37107  1  0  0  0
 38 43  2  0  0  0
 38 46  1  0  0  0
 38 47  1  0  0  0
 39 64  1  0  0  0
 39 67  2  0  0  0
 40 52  1  0  0  0
 40 53  2  0  0  0
 40 58  1  0  0  0
 41108  1  0  0  0
 41109  1  0  0  0
 41110  1  0  0  0
 41 48  1  0  0  0
 42 43  1  0  0  0
 42 66  1  0  0  0
 42111  1  0  0  0
 42112  1  0  0  0
 43 44  1  0  0  0
 44113  1  0  0  0
 45 46  2  0  0  0
 45114  1  0  0  0
 46115  1  0  0  0
 47116  1  0  0  0
 47117  1  0  0  0
 48 56  1  0  0  0
 48 65  1  0  0  0
 48118  1  0  0  0
 49 50  1  0  0  0
 49 53  1  0  0  0
 49 64  1  0  0  0
 49119  1  0  0  0
 50 51  1  0  0  0
 50120  1  0  0  0
 50121  1  0  0  0
 51 52  1  0  0  0
 51122  1  0  0  0
 51123  1  0  0  0
 52124  1  0  0  0
 52125  1  0  0  0
 53 54  1  0  0  0
 54 55  2  0  0  0
 54126  1  0  0  0
 55 57  1  0  0  0
 55127  1  0  0  0
 56 69  2  0  0  0
 57 58  2  0  0  0
 57128  1  0  0  0
 58129  1  0  0  0
 59 60  1  0  0  0
 59 61  1  0  0  0
 59 62  1  0  0  0
 60130  1  0  0  0
 60131  1  0  0  0
 60132  1  0  0  0
 61133  1  0  0  0
 61134  1  0  0  0
 61135  1  0  0  0
 62136  1  0  0  0
 62137  1  0  0  0
 62138  1  0  0  0
 63 65  1  0  0  0
 63139  1  0  0  0
 63140  1  0  0  0
 63141  1  0  0  0
 64142  1  0  0  0
 65143  1  0  0  0
 68 80  1  0  0  0
 71 72  2  0  0  0
 71 73  1  0  0  0
 71144  1  0  0  0
 72 75  1  0  0  0
 72145  1  0  0  0
 73 76  2  0  0  0
 73146  1  0  0  0
 74 75  2  0  0  0
 74 76  1  0  0  0
 74147  1  0  0  0
 75 82  1  0  0  0
 76 83  1  0  0  0
 77 81  1  0  0  0
 77 82  1  0  0  0
 77 84  2  0  0  0
 78148  1  0  0  0
 78149  1  0  0  0
 78150  1  0  0  0
 78 81  1  0  0  0
 79 81  1  0  0  0
 79151  1  0  0  0
 79152  1  0  0  0
 79153  1  0  0  0
 80 81  1  0  0  0
 80154  1  0  0  0
 80155  1  0  0  0
 82156  1  0  0  0
 83157  1  0  0  0
M  ISO  4   1 100  68 101  80 101  83 100
M  END
> <chiral flag>
0

> <version>
0

> <s_m_source_file>
/data/baiqing/PycharmProjects/Reinvent-master-3.2/result/LINK_invent/BTK/process_docking_weight1_custom_product_contain_oxygen_bond_distance_aromatic_linkinvent_7_9_3/rearranged_h_0068.sdf

> <i_m_source_file_index>
45

> <r_mmod_Potential_Energy-OPLS-2005>
15340.49609375

> <r_mmod_Stretch_Energy-OPLS-2005>
8459.3388671875

> <r_mmod_Bend_Energy-OPLS-2005>
1145.12719726562

> <r_mmod_Torsional_Energy-OPLS-2005>
418.028900146484

> <r_mmod_Improper_Torsional_Energy-OPLS-2005>
18.8183708190918

> <r_mmod_Van_der_Waal_Energy-OPLS-2005>
2070.40502929688

> <r_mmod_Electrostatic_Energy-OPLS-2005>
-377.385528564453

> <r_mmod_Solvation_Energy-OPLS-2005>
-240.677597045898

> <b_mmod_Minimization_Converged-OPLS-2005>
0

> <r_mmod_RMS_Derivative-OPLS-2005>
2.19997715950012

$$$$
45
                    3D
 Structure written by MMmdl.
160169  0  0  1  0            999 V2000
  -30.5868  -14.9170   20.3988 C   0  0  0  0  0  0
  -30.4307  -12.5626   19.4969 C   0  0  0  0  0  0
  -29.5137  -12.5194   18.2546 C   0  0  0  0  0  0
  -28.0504  -12.3050   18.6817 C   0  0  0  0  0  0
  -27.6297  -13.2514   19.8369 C   0  0  2  0  0  0
  -28.6753  -13.2918   20.9734 C   0  0  0  0  0  0
  -25.2463  -13.8244   20.5732 C   0  0  0  0  0  0
  -24.1778  -13.0456   20.9233 C   0  0  0  0  0  0
  -24.6400  -11.6945   20.8760 C   0  0  0  0  0  0
  -23.9071  -10.4321   21.0413 C   0  0  0  0  0  0
  -24.3626   -9.4226   21.9178 C   0  0  0  0  0  0
  -23.6306   -8.2251   22.0733 C   0  0  0  0  0  0
  -22.4287   -8.0288   21.3530 C   0  0  0  0  0  0
  -21.9932   -9.0255   20.4626 C   0  0  0  0  0  0
  -22.7252  -10.2137   20.3047 C   0  0  0  0  0  0
  -21.6866   -6.0735   22.5272 C   0  0  0  0  0  0
  -21.4025   -6.5637   23.8207 C   0  0  0  0  0  0
  -21.3658   -5.6788   24.9167 C   0  0  0  0  0  0
  -21.6043   -4.3054   24.7223 C   0  0  0  0  0  0
  -21.8817   -3.8141   23.4351 C   0  0  0  0  0  0
  -21.9199   -4.6958   22.3404 C   0  0  0  0  0  0
  -22.7789  -13.5194   21.1876 C   0  0  0  0  0  0
  -22.1662   -4.2151   21.0979 F   0  0  0  0  0  0
  -21.5633   -3.4536   25.7735 F   0  0  0  0  0  0
  -29.9595  -13.6749   20.3708 N   0  0  0  0  0  0
  -26.2908  -12.9474   20.3289 N   0  0  0  0  0  0
  -25.9346  -11.6605   20.5784 N   0  0  0  0  0  0
  -22.0460  -12.8159   22.0435 N   0  0  0  0  0  0
  -25.4130  -15.1974   20.4142 N   0  0  0  0  0  0
  -31.7991  -14.9284   20.1571 O   0  0  0  0  0  0
  -21.6647   -6.8883   21.4235 O   0  0  0  0  0  0
  -22.3459  -14.5496   20.6728 O   0  0  0  0  0  0
  -24.6412  -31.8451   23.1934 C   0  0  0  0  0  0
  -25.9190  -32.4713   23.8303 C   0  0  1  0  0  0
  -27.2141  -27.1542   20.1388 C   0  0  0  0  0  0
  -25.5938  -33.8526   24.2226 N   0  0  0  0  0  0
  -23.4458  -30.4664   21.5358 C   0  0  2  0  0  0
  -24.8951  -28.8971   20.1112 C   0  0  0  0  0  0
  -22.7583  -29.4543   22.4865 C   0  0  0  0  0  0
  -18.0305  -28.1392   22.8454 C   0  0  0  0  0  0
  -24.1489  -36.7273   23.2649 C   0  0  0  0  0  0
  -26.0017  -30.7222   21.3926 C   0  0  0  0  0  0
  -26.0729  -29.3348   20.7330 C   0  0  0  0  0  0
  -27.2373  -28.4786   20.7325 C   0  0  0  0  0  0
  -26.0167  -26.8259   19.4682 C   0  0  0  0  0  0
  -24.8777  -27.6549   19.4638 C   0  0  0  0  0  0
  -23.6743  -29.8009   20.1528 C   0  0  0  0  0  0
  -25.4121  -36.3055   24.0327 C   0  0  1  0  0  0
  -20.5915  -28.3699   23.1237 C   0  0  2  0  0  0
  -20.6786  -26.9430   22.5345 C   0  0  0  0  0  0
  -19.5769  -26.6453   21.5125 C   0  0  0  0  0  0
  -18.1963  -26.7940   22.1574 C   0  0  0  0  0  0
  -19.1565  -28.8845   23.2863 C   0  0  0  0  0  0
  -18.9502  -30.1430   23.8906 C   0  0  0  0  0  0
  -17.6517  -30.6564   24.0599 C   0  0  0  0  0  0
  -25.9064  -34.9418   23.5088 C   0  0  0  0  0  0
  -16.5389  -29.9085   23.6349 C   0  0  0  0  0  0
  -16.7298  -28.6529   23.0322 C   0  0  0  0  0  0
  -26.4519  -31.6570   25.0731 C   0  0  0  0  0  0
  -25.3720  -31.3744   26.1436 C   0  0  0  0  0  0
  -27.0387  -30.2976   24.6289 C   0  0  0  0  0  0
  -27.6052  -32.4334   25.7504 C   0  0  0  0  0  0
  -27.5583  -37.1788   24.8476 C   0  0  0  0  0  0
  -21.4273  -29.3074   22.3666 N   0  0  0  0  0  0
  -26.4294  -37.3762   23.9412 N   0  0  0  0  0  0
  -24.7150  -31.0315   22.0962 N   0  0  0  0  0  0
  -23.4248  -28.8050   23.2962 O   0  0  0  0  0  0
  -28.2468  -26.1520   20.1586 O   0  0  0  0  0  0
  -26.5650  -34.8905   22.4665 O   0  0  0  0  0  0
  -23.5535  -32.1325   23.7165 O   0  0  0  0  0  0
  -29.1151  -17.6269   17.6450 C   0  0  0  0  0  0
  -30.5186  -17.5010   17.7984 C   0  0  0  0  0  0
  -28.3449  -18.1210   18.7265 C   0  0  0  0  0  0
  -31.0776  -17.6127   19.0941 C   0  0  0  0  0  0
  -29.0671  -18.5880   19.8545 C   0  0  0  0  0  0
  -30.1398  -17.5955   20.1485 C   0  0  0  0  0  0
  -28.4689  -23.2441   20.2351 C   0  0  0  0  0  0
  -29.4361  -22.5037   20.9084 C   0  0  0  0  0  0
  -27.7086  -22.3821   19.3231 C   0  0  0  0  0  0
  -29.7660  -21.0007   20.7443 C   0  0  0  0  0  0
  -26.9008  -22.9322   18.3999 C   0  0  0  0  0  0
  -27.7893  -20.8277   19.3753 C   0  0  0  0  0  0
  -30.2718  -23.1971   21.9820 C   0  0  0  0  0  0
  -27.8973  -24.7370   20.6846 C   0  0  0  0  0  0
  -28.9324  -20.1303   20.0538 N   0  0  0  0  0  0
  -29.8423  -16.1270   20.5076 N   0  0  0  0  0  0
  -30.7799  -20.5276   21.2681 O   0  0  0  0  0  0
  -31.4668  -12.6940   19.1832 H   0  0  0  0  0  0
  -30.3969  -11.6144   20.0366 H   0  0  0  0  0  0
  -29.8284  -11.7230   17.5788 H   0  0  0  0  0  0
  -29.6006  -13.4501   17.6920 H   0  0  0  0  0  0
  -27.9533  -11.2689   19.0071 H   0  0  0  0  0  0
  -27.3808  -12.4163   17.8278 H   0  0  0  0  0  0
  -27.5892  -14.2478   19.3945 H   0  0  0  0  0  0
  -28.7497  -12.3270   21.4778 H   0  0  0  0  0  0
  -28.3818  -14.0168   21.7339 H   0  0  0  0  0  0
  -25.2777   -9.5700   22.4750 H   0  0  0  0  0  0
  -24.0018   -7.4653   22.7456 H   0  0  0  0  0  0
  -21.0865   -8.8769   19.8938 H   0  0  0  0  0  0
  -22.3717  -10.9662   19.6152 H   0  0  0  0  0  0
  -21.2015   -7.6151   23.9705 H   0  0  0  0  0  0
  -21.1479   -6.0524   25.9066 H   0  0  0  0  0  0
  -22.0601   -2.7612   23.2842 H   0  0  0  0  0  0
  -22.4102  -11.9837   22.4821 H   0  0  0  0  0  0
  -21.1067  -13.1131   22.2632 H   0  0  0  0  0  0
  -24.6421  -15.8490   20.5102 H   0  0  0  0  0  0
  -26.2620  -15.6377   20.0848 H   0  0  0  0  0  0
  -26.7247  -32.5331   23.1021 H   0  0  0  0  0  0
  -25.0028  -33.9651   25.0332 H   0  0  0  0  0  0
  -22.7454  -31.2899   21.3835 H   0  0  0  0  0  0
  -23.3763  -35.9596   23.3307 H   0  0  0  0  0  0
  -24.3586  -36.8905   22.2068 H   0  0  0  0  0  0
  -23.7219  -37.6458   23.6686 H   0  0  0  0  0  0
  -26.1566  -31.4810   20.6229 H   0  0  0  0  0  0
  -26.8732  -30.7724   22.0326 H   0  0  0  0  0  0
  -28.1367  -28.8067   21.2344 H   0  0  0  0  0  0
  -25.9457  -25.8864   18.9441 H   0  0  0  0  0  0
  -23.9846  -27.3216   18.9529 H   0  0  0  0  0  0
  -23.8202  -30.5782   19.4018 H   0  0  0  0  0  0
  -22.7900  -29.2469   19.8328 H   0  0  0  0  0  0
  -25.1300  -36.1901   25.0821 H   0  0  0  0  0  0
  -20.9991  -28.3247   24.1368 H   0  0  0  0  0  0
  -20.5617  -26.2325   23.3538 H   0  0  0  0  0  0
  -21.6648  -26.7415   22.1129 H   0  0  0  0  0  0
  -19.6923  -25.6404   21.1059 H   0  0  0  0  0  0
  -19.6685  -27.3341   20.6714 H   0  0  0  0  0  0
  -17.4198  -26.6669   21.4023 H   0  0  0  0  0  0
  -18.0453  -26.0048   22.8953 H   0  0  0  0  0  0
  -19.7999  -30.7239   24.2269 H   0  0  0  0  0  0
  -17.5081  -31.6217   24.5258 H   0  0  0  0  0  0
  -15.5401  -30.2991   23.7711 H   0  0  0  0  0  0
  -15.8689  -28.0865   22.7019 H   0  0  0  0  0  0
  -24.5888  -30.7102   25.7763 H   0  0  0  0  0  0
  -24.8922  -32.2923   26.4850 H   0  0  0  0  0  0
  -25.8034  -30.8919   27.0212 H   0  0  0  0  0  0
  -26.2990  -29.6679   24.1328 H   0  0  0  0  0  0
  -27.4049  -29.7294   25.4845 H   0  0  0  0  0  0
  -27.8882  -30.4242   23.9578 H   0  0  0  0  0  0
  -27.2645  -33.3641   26.2054 H   0  0  0  0  0  0
  -28.3872  -32.6880   25.0340 H   0  0  0  0  0  0
  -28.0699  -31.8468   26.5432 H   0  0  0  0  0  0
  -28.2594  -38.0086   24.7504 H   0  0  0  0  0  0
  -28.1069  -36.2609   24.6314 H   0  0  0  0  0  0
  -27.2299  -37.1451   25.8877 H   0  0  0  0  0  0
  -20.9471  -29.8919   21.6962 H   0  0  0  0  0  0
  -26.0172  -38.2835   24.1407 H   0  0  0  0  0  0
  -28.6524  -17.4499   16.6835 H   0  0  0  0  0  0
  -31.1403  -17.2341   16.9554 H   0  0  0  0  0  0
  -27.3387  -18.4400   18.5009 H   0  0  0  0  0  0
  -32.0926  -17.2613   19.2254 H   0  0  0  0  0  0
  -26.8005  -23.9975   18.2748 H   0  0  0  0  0  0
  -26.3273  -22.3112   17.7242 H   0  0  0  0  0  0
  -27.7764  -20.5341   18.3252 H   0  0  0  0  0  0
  -26.8691  -20.4579   19.8269 H   0  0  0  0  0  0
  -31.3328  -23.0016   21.8231 H   0  0  0  0  0  0
  -30.0070  -22.8233   22.9698 H   0  0  0  0  0  0
  -30.1649  -24.2805   21.9788 H   0  0  0  0  0  0
  -28.0329  -24.7992   21.7637 H   0  0  0  0  0  0
  -26.8173  -24.6312   20.6113 H   0  0  0  0  0  0
  -28.8770  -15.9639   20.7465 H   0  0  0  0  0  0
  1 25  1  0  0  0
  1 30  2  0  0  0
  1 86  1  0  0  0
  2  3  1  0  0  0
  2 25  1  0  0  0
  2 88  1  0  0  0
  2 89  1  0  0  0
  3  4  1  0  0  0
  3 90  1  0  0  0
  3 91  1  0  0  0
  4  5  1  0  0  0
  4 92  1  0  0  0
  4 93  1  0  0  0
  5  6  1  0  0  0
  5 26  1  0  0  0
  5 94  1  0  0  0
  6 25  1  0  0  0
  6 95  1  0  0  0
  6 96  1  0  0  0
  7  8  2  0  0  0
  7 26  1  0  0  0
  7 29  1  0  0  0
  8  9  1  0  0  0
  8 22  1  0  0  0
  9 10  1  0  0  0
  9 27  2  0  0  0
 10 11  2  0  0  0
 10 15  1  0  0  0
 11 12  1  0  0  0
 11 97  1  0  0  0
 12 13  2  0  0  0
 12 98  1  0  0  0
 13 14  1  0  0  0
 13 31  1  0  0  0
 14 15  2  0  0  0
 14 99  1  0  0  0
 15100  1  0  0  0
 16 17  2  0  0  0
 16 21  1  0  0  0
 16 31  1  0  0  0
 17 18  1  0  0  0
 17101  1  0  0  0
 18 19  2  0  0  0
 18102  1  0  0  0
 19 20  1  0  0  0
 19 24  1  0  0  0
 20 21  2  0  0  0
 20103  1  0  0  0
 21 23  1  0  0  0
 22 28  1  0  0  0
 22 32  2  0  0  0
 26 27  1  0  0  0
 28104  1  0  0  0
 28105  1  0  0  0
 29106  1  0  0  0
 29107  1  0  0  0
 33 34  1  0  0  0
 33 66  1  0  0  0
 33 70  2  0  0  0
 34 36  1  0  0  0
 34 59  1  0  0  0
 34108  1  0  0  0
 35 44  2  0  0  0
 35 45  1  0  0  0
 35 68  1  0  0  0
 36 56  1  0  0  0
 36109  1  0  0  0
 37 39  1  0  0  0
 37 47  1  0  0  0
 37 66  1  0  0  0
 37110  1  0  0  0
 38 43  2  0  0  0
 38 46  1  0  0  0
 38 47  1  0  0  0
 39 64  1  0  0  0
 39 67  2  0  0  0
 40 52  1  0  0  0
 40 53  2  0  0  0
 40 58  1  0  0  0
 41111  1  0  0  0
 41112  1  0  0  0
 41113  1  0  0  0
 41 48  1  0  0  0
 42 43  1  0  0  0
 42 66  1  0  0  0
 42114  1  0  0  0
 42115  1  0  0  0
 43 44  1  0  0  0
 44116  1  0  0  0
 45 46  2  0  0  0
 45117  1  0  0  0
 46118  1  0  0  0
 47119  1  0  0  0
 47120  1  0  0  0
 48 56  1  0  0  0
 48 65  1  0  0  0
 48121  1  0  0  0
 49 50  1  0  0  0
 49 53  1  0  0  0
 49 64  1  0  0  0
 49122  1  0  0  0
 50 51  1  0  0  0
 50123  1  0  0  0
 50124  1  0  0  0
 51 52  1  0  0  0
 51125  1  0  0  0
 51126  1  0  0  0
 52127  1  0  0  0
 52128  1  0  0  0
 53 54  1  0  0  0
 54 55  2  0  0  0
 54129  1  0  0  0
 55 57  1  0  0  0
 55130  1  0  0  0
 56 69  2  0  0  0
 57 58  2  0  0  0
 57131  1  0  0  0
 58132  1  0  0  0
 59 60  1  0  0  0
 59 61  1  0  0  0
 59 62  1  0  0  0
 60133  1  0  0  0
 60134  1  0  0  0
 60135  1  0  0  0
 61136  1  0  0  0
 61137  1  0  0  0
 61138  1  0  0  0
 62139  1  0  0  0
 62140  1  0  0  0
 62141  1  0  0  0
 63 65  1  0  0  0
 63142  1  0  0  0
 63143  1  0  0  0
 63144  1  0  0  0
 64145  1  0  0  0
 65146  1  0  0  0
 68 84  1  0  0  0
 71 72  2  0  0  0
 71 73  1  0  0  0
 71147  1  0  0  0
 72 74  1  0  0  0
 72148  1  0  0  0
 73 75  2  0  0  0
 73149  1  0  0  0
 74 76  2  0  0  0
 74150  1  0  0  0
 75 76  1  0  0  0
 75 85  1  0  0  0
 76 86  1  0  0  0
 77 78  2  0  0  0
 77 79  1  0  0  0
 77 84  1  0  0  0
 78 80  1  0  0  0
 78 83  1  0  0  0
 79 81  2  0  0  0
 79 82  1  0  0  0
 80 85  1  0  0  0
 80 87  2  0  0  0
 81151  1  0  0  0
 81152  1  0  0  0
 82 85  1  0  0  0
 82153  1  0  0  0
 82154  1  0  0  0
 83155  1  0  0  0
 83156  1  0  0  0
 83157  1  0  0  0
 84158  1  0  0  0
 84159  1  0  0  0
 86160  1  0  0  0
M  ISO  4   1 100  68 101  84 101  86 100
M  END
> <chiral flag>
0

> <version>
0

> <s_m_source_file>
/data/baiqing/PycharmProjects/Reinvent-master-3.2/result/LINK_invent/BTK/process_docking_weight1_custom_product_contain_oxygen_bond_distance_aromatic_linkinvent_7_9_3/rearranged_h_0068.sdf

> <i_m_source_file_index>
46

> <r_mmod_Potential_Energy-OPLS-2005>
888.44384765625

> <r_mmod_Stretch_Energy-OPLS-2005>
254.563064575195

> <r_mmod_Bend_Energy-OPLS-2005>
311.104431152344

> <r_mmod_Torsional_Energy-OPLS-2005>
507.032989501953

> <r_mmod_Improper_Torsional_Energy-OPLS-2005>
38.6180839538574

> <r_mmod_Van_der_Waal_Energy-OPLS-2005>
178.894943237305

> <r_mmod_Electrostatic_Energy-OPLS-2005>
-361.435974121094

> <r_mmod_Solvation_Energy-OPLS-2005>
-216.761978149414

> <b_mmod_Minimization_Converged-OPLS-2005>
0

> <r_mmod_RMS_Derivative-OPLS-2005>
3.40362977981567

$$$$
46
                    3D
 Structure written by MMmdl.
157166  0  0  1  0            999 V2000
  -30.6220  -14.7768   20.3397 C   0  0  0  0  0  0
  -30.4453  -12.4349   19.4606 C   0  0  0  0  0  0
  -29.4967  -12.3311   18.2437 C   0  0  0  0  0  0
  -28.0184  -12.2488   18.6722 C   0  0  0  0  0  0
  -27.6302  -13.2041   19.8334 C   0  0  2  0  0  0
  -28.7002  -13.2247   20.9446 C   0  0  0  0  0  0
  -25.2531  -13.8141   20.5804 C   0  0  0  0  0  0
  -24.1772  -13.0421   20.9230 C   0  0  0  0  0  0
  -24.6335  -11.6893   20.8808 C   0  0  0  0  0  0
  -23.9016  -10.4282   21.0437 C   0  0  0  0  0  0
  -24.3580   -9.4197   21.9204 C   0  0  0  0  0  0
  -23.6269   -8.2227   22.0758 C   0  0  0  0  0  0
  -22.4257   -8.0265   21.3536 C   0  0  0  0  0  0
  -21.9881   -9.0244   20.4647 C   0  0  0  0  0  0
  -22.7199  -10.2131   20.3073 C   0  0  0  0  0  0
  -21.6847   -6.0720   22.5272 C   0  0  0  0  0  0
  -21.4011   -6.5625   23.8204 C   0  0  0  0  0  0
  -21.3661   -5.6782   24.9169 C   0  0  0  0  0  0
  -21.6047   -4.3045   24.7223 C   0  0  0  0  0  0
  -21.8819   -3.8133   23.4345 C   0  0  0  0  0  0
  -21.9192   -4.6948   22.3401 C   0  0  0  0  0  0
  -22.7802  -13.5237   21.1863 C   0  0  0  0  0  0
  -22.1658   -4.2134   21.0979 F   0  0  0  0  0  0
  -21.5634   -3.4533   25.7738 F   0  0  0  0  0  0
  -29.9820  -13.5521   20.3052 N   0  0  0  0  0  0
  -26.2919  -12.9284   20.3397 N   0  0  0  0  0  0
  -25.9268  -11.6467   20.5903 N   0  0  0  0  0  0
  -22.0423  -12.8249   22.0412 N   0  0  0  0  0  0
  -25.4283  -15.1867   20.4332 N   0  0  0  0  0  0
  -31.8538  -14.8132   20.3198 O   0  0  0  0  0  0
  -21.6628   -6.8860   21.4230 O   0  0  0  0  0  0
  -22.3515  -14.5550   20.6707 O   0  0  0  0  0  0
  -24.6277  -31.8578   23.2025 C   0  0  0  0  0  0
  -25.9113  -32.4771   23.8361 C   0  0  1  0  0  0
  -27.2244  -27.2914   20.1259 C   0  0  0  0  0  0
  -25.5922  -33.8573   24.2286 N   0  0  0  0  0  0
  -23.4242  -30.4821   21.5442 C   0  0  2  0  0  0
  -24.8732  -28.9377   20.1080 C   0  0  0  0  0  0
  -22.7493  -29.4608   22.4916 C   0  0  0  0  0  0
  -18.0289  -28.1389   22.8483 C   0  0  0  0  0  0
  -24.1490  -36.7293   23.2640 C   0  0  0  0  0  0
  -25.9681  -30.7805   21.3794 C   0  0  0  0  0  0
  -26.0421  -29.4062   20.7207 C   0  0  0  0  0  0
  -27.2187  -28.5941   20.7224 C   0  0  0  0  0  0
  -26.0352  -26.8942   19.4690 C   0  0  0  0  0  0
  -24.8738  -27.6889   19.4707 C   0  0  0  0  0  0
  -23.6421  -29.8204   20.1582 C   0  0  0  0  0  0
  -25.4113  -36.3082   24.0332 C   0  0  1  0  0  0
  -20.5890  -28.3697   23.1275 C   0  0  2  0  0  0
  -20.6771  -26.9411   22.5416 C   0  0  0  0  0  0
  -19.5751  -26.6384   21.5213 C   0  0  0  0  0  0
  -18.1929  -26.7934   22.1619 C   0  0  0  0  0  0
  -19.1543  -28.8862   23.2875 C   0  0  0  0  0  0
  -18.9463  -30.1460   23.8900 C   0  0  0  0  0  0
  -17.6461  -30.6586   24.0563 C   0  0  0  0  0  0
  -25.9049  -34.9448   23.5112 C   0  0  0  0  0  0
  -16.5353  -29.9087   23.6323 C   0  0  0  0  0  0
  -16.7275  -28.6505   23.0344 C   0  0  0  0  0  0
  -26.4485  -31.6588   25.0740 C   0  0  0  0  0  0
  -25.3718  -31.3732   26.1473 C   0  0  0  0  0  0
  -27.0313  -30.3003   24.6208 C   0  0  0  0  0  0
  -27.6060  -32.4308   25.7498 C   0  0  0  0  0  0
  -27.5578  -37.1803   24.8458 C   0  0  0  0  0  0
  -21.4201  -29.3044   22.3666 N   0  0  0  0  0  0
  -26.4288  -37.3779   23.9405 N   0  0  0  0  0  0
  -24.6922  -31.0572   22.0986 N   0  0  0  0  0  0
  -23.4206  -28.8129   23.2992 O   0  0  0  0  0  0
  -28.3241  -26.4091   20.2093 O   0  0  0  0  0  0
  -26.5621  -34.8912   22.4679 O   0  0  0  0  0  0
  -23.5434  -32.1384   23.7337 O   0  0  0  0  0  0
  -30.6341  -19.6600   19.8985 C   0  0  0  0  0  0
  -30.8395  -18.2518   19.7619 C   0  0  0  0  0  0
  -28.7804  -19.2619   21.3083 C   0  0  0  0  0  0
  -29.5740  -20.2524   20.6465 C   0  0  0  0  0  0
  -29.9752  -17.2874   20.3571 C   0  0  0  0  0  0
  -28.9540  -17.8444   21.1704 C   0  0  0  0  0  0
  -28.4196  -22.5984   21.2964 C   0  0  0  0  0  0
  -29.4757  -15.8718   18.5808 C   0  0  0  0  0  0
  -29.6565  -22.6416   19.6449 C   0  0  0  0  0  0
  -29.0882  -23.8150   20.5291 C   0  0  1  0  0  0
  -28.1916  -16.6264   18.2254 C   0  0  0  0  0  0
  -28.0953  -24.9471   19.9802 C   0  0  0  0  0  0
  -29.3603  -21.7135   20.7453 N   0  0  0  0  0  0
  -29.9169  -15.8907   19.8675 N   0  0  0  0  0  0
  -27.4489  -22.4020   21.9987 O   0  0  0  0  0  0
  -30.1396  -15.4230   17.6417 O   0  0  0  0  0  0
  -28.0619  -17.0081   21.7539 F   0  0  0  0  0  0
  -31.4731  -12.5775   19.1242 H   0  0  0  0  0  0
  -30.4380  -11.5067   20.0345 H   0  0  0  0  0  0
  -29.7488  -11.4365   17.6723 H   0  0  0  0  0  0
  -29.6378  -13.1419   17.5417 H   0  0  0  0  0  0
  -27.8507  -11.2178   18.9855 H   0  0  0  0  0  0
  -27.3641  -12.4074   17.8143 H   0  0  0  0  0  0
  -27.5767  -14.1946   19.3980 H   0  0  0  0  0  0
  -28.7552  -12.2631   21.4565 H   0  0  0  0  0  0
  -28.4499  -13.9717   21.7004 H   0  0  0  0  0  0
  -25.2717   -9.5684   22.4786 H   0  0  0  0  0  0
  -23.9980   -7.4617   22.7480 H   0  0  0  0  0  0
  -21.0810   -8.8764   19.8953 H   0  0  0  0  0  0
  -22.3650  -10.9678   19.6193 H   0  0  0  0  0  0
  -21.1996   -7.6132   23.9701 H   0  0  0  0  0  0
  -21.1486   -6.0513   25.9071 H   0  0  0  0  0  0
  -22.0598   -2.7595   23.2852 H   0  0  0  0  0  0
  -22.4008  -11.9897   22.4798 H   0  0  0  0  0  0
  -21.1057  -13.1317   22.2622 H   0  0  0  0  0  0
  -24.6775  -15.8437   20.6131 H   0  0  0  0  0  0
  -26.3242  -15.6366   20.3074 H   0  0  0  0  0  0
  -26.7180  -32.5433   23.1109 H   0  0  0  0  0  0
  -25.0056  -33.9716   25.0421 H   0  0  0  0  0  0
  -22.7186  -31.3030   21.4010 H   0  0  0  0  0  0
  -23.3751  -35.9626   23.3303 H   0  0  0  0  0  0
  -24.3585  -36.8910   22.2053 H   0  0  0  0  0  0
  -23.7245  -37.6496   23.6660 H   0  0  0  0  0  0
  -26.1035  -31.5429   20.6112 H   0  0  0  0  0  0
  -26.8464  -30.8305   22.0108 H   0  0  0  0  0  0
  -28.1104  -28.9444   21.2230 H   0  0  0  0  0  0
  -25.9681  -25.9463   18.9564 H   0  0  0  0  0  0
  -23.9817  -27.3291   18.9770 H   0  0  0  0  0  0
  -23.7671  -30.5994   19.4051 H   0  0  0  0  0  0
  -22.7613  -29.2544   19.8499 H   0  0  0  0  0  0
  -25.1294  -36.1937   25.0824 H   0  0  0  0  0  0
  -20.9987  -28.3278   24.1396 H   0  0  0  0  0  0
  -20.5657  -26.2308   23.3621 H   0  0  0  0  0  0
  -21.6641  -26.7425   22.1221 H   0  0  0  0  0  0
  -19.6905  -25.6295   21.1244 H   0  0  0  0  0  0
  -19.6687  -27.3193   20.6740 H   0  0  0  0  0  0
  -17.4196  -26.6687   21.4018 H   0  0  0  0  0  0
  -18.0319  -26.0077   22.9015 H   0  0  0  0  0  0
  -19.7938  -30.7278   24.2273 H   0  0  0  0  0  0
  -17.5012  -31.6263   24.5170 H   0  0  0  0  0  0
  -15.5355  -30.2987   23.7647 H   0  0  0  0  0  0
  -15.8672  -28.0825   22.7058 H   0  0  0  0  0  0
  -24.5915  -30.7043   25.7821 H   0  0  0  0  0  0
  -24.8880  -32.2894   26.4869 H   0  0  0  0  0  0
  -25.8056  -30.8950   27.0265 H   0  0  0  0  0  0
  -26.2883  -29.6768   24.1221 H   0  0  0  0  0  0
  -27.3976  -29.7250   25.4720 H   0  0  0  0  0  0
  -27.8775  -30.4270   23.9453 H   0  0  0  0  0  0
  -27.2694  -33.3616   26.2071 H   0  0  0  0  0  0
  -28.3870  -32.6843   25.0321 H   0  0  0  0  0  0
  -28.0721  -31.8428   26.5413 H   0  0  0  0  0  0
  -28.2602  -38.0093   24.7499 H   0  0  0  0  0  0
  -28.1069  -36.2629   24.6288 H   0  0  0  0  0  0
  -27.2301  -37.1456   25.8862 H   0  0  0  0  0  0
  -20.9382  -29.8795   21.6899 H   0  0  0  0  0  0
  -26.0172  -38.2855   24.1408 H   0  0  0  0  0  0
  -31.3181  -20.3122   19.3743 H   0  0  0  0  0  0
  -31.6302  -17.9171   19.1046 H   0  0  0  0  0  0
  -27.9580  -19.5969   21.9228 H   0  0  0  0  0  0
  -30.7176  -22.7310   19.4084 H   0  0  0  0  0  0
  -29.0625  -22.4369   18.7501 H   0  0  0  0  0  0
  -29.8920  -24.2579   21.1175 H   0  0  0  0  0  0
  -27.5097  -16.6878   19.0718 H   0  0  0  0  0  0
  -27.6687  -16.1126   17.4189 H   0  0  0  0  0  0
  -28.4227  -17.6373   17.8904 H   0  0  0  0  0  0
  -27.1077  -24.7071   20.3754 H   0  0  0  0  0  0
  -28.0090  -24.8233   18.8999 H   0  0  0  0  0  0
  1 25  1  0  0  0
  1 30  2  0  0  0
  1 84  1  0  0  0
  2  3  1  0  0  0
  2 25  1  0  0  0
  2 88  1  0  0  0
  2 89  1  0  0  0
  3  4  1  0  0  0
  3 90  1  0  0  0
  3 91  1  0  0  0
  4  5  1  0  0  0
  4 92  1  0  0  0
  4 93  1  0  0  0
  5  6  1  0  0  0
  5 26  1  0  0  0
  5 94  1  0  0  0
  6 25  1  0  0  0
  6 95  1  0  0  0
  6 96  1  0  0  0
  7  8  2  0  0  0
  7 26  1  0  0  0
  7 29  1  0  0  0
  8  9  1  0  0  0
  8 22  1  0  0  0
  9 10  1  0  0  0
  9 27  2  0  0  0
 10 11  2  0  0  0
 10 15  1  0  0  0
 11 12  1  0  0  0
 11 97  1  0  0  0
 12 13  2  0  0  0
 12 98  1  0  0  0
 13 14  1  0  0  0
 13 31  1  0  0  0
 14 15  2  0  0  0
 14 99  1  0  0  0
 15100  1  0  0  0
 16 17  2  0  0  0
 16 21  1  0  0  0
 16 31  1  0  0  0
 17 18  1  0  0  0
 17101  1  0  0  0
 18 19  2  0  0  0
 18102  1  0  0  0
 19 20  1  0  0  0
 19 24  1  0  0  0
 20 21  2  0  0  0
 20103  1  0  0  0
 21 23  1  0  0  0
 22 28  1  0  0  0
 22 32  2  0  0  0
 26 27  1  0  0  0
 28104  1  0  0  0
 28105  1  0  0  0
 29106  1  0  0  0
 29107  1  0  0  0
 33 34  1  0  0  0
 33 66  1  0  0  0
 33 70  2  0  0  0
 34 36  1  0  0  0
 34 59  1  0  0  0
 34108  1  0  0  0
 35 44  2  0  0  0
 35 45  1  0  0  0
 35 68  1  0  0  0
 36 56  1  0  0  0
 36109  1  0  0  0
 37 39  1  0  0  0
 37 47  1  0  0  0
 37 66  1  0  0  0
 37110  1  0  0  0
 38 43  2  0  0  0
 38 46  1  0  0  0
 38 47  1  0  0  0
 39 64  1  0  0  0
 39 67  2  0  0  0
 40 52  1  0  0  0
 40 53  2  0  0  0
 40 58  1  0  0  0
 41111  1  0  0  0
 41112  1  0  0  0
 41113  1  0  0  0
 41 48  1  0  0  0
 42 43  1  0  0  0
 42 66  1  0  0  0
 42114  1  0  0  0
 42115  1  0  0  0
 43 44  1  0  0  0
 44116  1  0  0  0
 45 46  2  0  0  0
 45117  1  0  0  0
 46118  1  0  0  0
 47119  1  0  0  0
 47120  1  0  0  0
 48 56  1  0  0  0
 48 65  1  0  0  0
 48121  1  0  0  0
 49 50  1  0  0  0
 49 53  1  0  0  0
 49 64  1  0  0  0
 49122  1  0  0  0
 50 51  1  0  0  0
 50123  1  0  0  0
 50124  1  0  0  0
 51 52  1  0  0  0
 51125  1  0  0  0
 51126  1  0  0  0
 52127  1  0  0  0
 52128  1  0  0  0
 53 54  1  0  0  0
 54 55  2  0  0  0
 54129  1  0  0  0
 55 57  1  0  0  0
 55130  1  0  0  0
 56 69  2  0  0  0
 57 58  2  0  0  0
 57131  1  0  0  0
 58132  1  0  0  0
 59 60  1  0  0  0
 59 61  1  0  0  0
 59 62  1  0  0  0
 60133  1  0  0  0
 60134  1  0  0  0
 60135  1  0  0  0
 61136  1  0  0  0
 61137  1  0  0  0
 61138  1  0  0  0
 62139  1  0  0  0
 62140  1  0  0  0
 62141  1  0  0  0
 63 65  1  0  0  0
 63142  1  0  0  0
 63143  1  0  0  0
 63144  1  0  0  0
 64145  1  0  0  0
 65146  1  0  0  0
 68 82  1  0  0  0
 71 72  2  0  0  0
 71 74  1  0  0  0
 71147  1  0  0  0
 72 75  1  0  0  0
 72148  1  0  0  0
 73 74  2  0  0  0
 73 76  1  0  0  0
 73149  1  0  0  0
 74 83  1  0  0  0
 75 76  2  0  0  0
 75 84  1  0  0  0
 76 87  1  0  0  0
 77 80  1  0  0  0
 77 83  1  0  0  0
 77 85  2  0  0  0
 78 81  1  0  0  0
 78 84  1  0  0  0
 78 86  2  0  0  0
 79 80  1  0  0  0
 79 83  1  0  0  0
 79150  1  0  0  0
 79151  1  0  0  0
 80 82  1  0  0  0
 80152  1  0  0  0
 81153  1  0  0  0
 81154  1  0  0  0
 81155  1  0  0  0
 82156  1  0  0  0
 82157  1  0  0  0
M  ISO  4   1 100  68 101  82 101  84 100
M  END
> <chiral flag>
0

> <version>
0

> <s_m_source_file>
/data/baiqing/PycharmProjects/Reinvent-master-3.2/result/LINK_invent/BTK/process_docking_weight1_custom_product_contain_oxygen_bond_distance_aromatic_linkinvent_7_9_3/rearranged_h_0068.sdf

> <i_m_source_file_index>
47

> <r_mmod_Potential_Energy-OPLS-2005>
307.031921386719

> <r_mmod_Stretch_Energy-OPLS-2005>
102.237327575684

> <r_mmod_Bend_Energy-OPLS-2005>
181.199066162109

> <r_mmod_Torsional_Energy-OPLS-2005>
367.125274658203

> <r_mmod_Improper_Torsional_Energy-OPLS-2005>
27.2223148345947

> <r_mmod_Van_der_Waal_Energy-OPLS-2005>
151.284973144531

> <r_mmod_Electrostatic_Energy-OPLS-2005>
-416.682922363281

> <r_mmod_Solvation_Energy-OPLS-2005>
-212.129547119141

> <b_mmod_Minimization_Converged-OPLS-2005>
0

> <r_mmod_RMS_Derivative-OPLS-2005>
0.969558238983154

$$$$
47
                    3D
 Structure written by MMmdl.
149157  0  0  1  0            999 V2000
  -30.5896  -14.8034   20.4055 C   0  0  0  0  0  0
  -30.4231  -12.4856   19.4854 C   0  0  0  0  0  0
  -29.5039  -12.5152   18.2454 C   0  0  0  0  0  0
  -28.0311  -12.3338   18.6575 C   0  0  0  0  0  0
  -27.6323  -13.2444   19.8485 C   0  0  2  0  0  0
  -28.6775  -13.2066   20.9829 C   0  0  0  0  0  0
  -25.2435  -13.8239   20.5733 C   0  0  0  0  0  0
  -24.1751  -13.0446   20.9222 C   0  0  0  0  0  0
  -24.6366  -11.6943   20.8729 C   0  0  0  0  0  0
  -23.9050  -10.4297   21.0372 C   0  0  0  0  0  0
  -24.3596   -9.4222   21.9164 C   0  0  0  0  0  0
  -23.6269   -8.2260   22.0751 C   0  0  0  0  0  0
  -22.4257   -8.0274   21.3536 C   0  0  0  0  0  0
  -21.9876   -9.0247   20.4642 C   0  0  0  0  0  0
  -22.7209  -10.2125   20.3037 C   0  0  0  0  0  0
  -21.6861   -6.0722   22.5278 C   0  0  0  0  0  0
  -21.4020   -6.5627   23.8206 C   0  0  0  0  0  0
  -21.3674   -5.6793   24.9169 C   0  0  0  0  0  0
  -21.6036   -4.3056   24.7227 C   0  0  0  0  0  0
  -21.8825   -3.8144   23.4353 C   0  0  0  0  0  0
  -21.9191   -4.6953   22.3401 C   0  0  0  0  0  0
  -22.7769  -13.5204   21.1881 C   0  0  0  0  0  0
  -22.1649   -4.2141   21.0970 F   0  0  0  0  0  0
  -21.5635   -3.4536   25.7735 F   0  0  0  0  0  0
  -29.9740  -13.5666   20.3977 N   0  0  0  0  0  0
  -26.2872  -12.9473   20.3308 N   0  0  0  0  0  0
  -25.9298  -11.6603   20.5771 N   0  0  0  0  0  0
  -22.0420  -12.8186   22.0436 N   0  0  0  0  0  0
  -25.4071  -15.1966   20.4158 N   0  0  0  0  0  0
  -31.7874  -14.8669   20.1102 O   0  0  0  0  0  0
  -21.6648   -6.8855   21.4238 O   0  0  0  0  0  0
  -22.3434  -14.5494   20.6708 O   0  0  0  0  0  0
  -24.6326  -31.8517   23.1962 C   0  0  0  0  0  0
  -25.9142  -32.4739   23.8305 C   0  0  1  0  0  0
  -27.2196  -27.2336   20.1215 C   0  0  0  0  0  0
  -25.5951  -33.8552   24.2236 N   0  0  0  0  0  0
  -23.4280  -30.4709   21.5421 C   0  0  2  0  0  0
  -24.8759  -28.9148   20.1030 C   0  0  0  0  0  0
  -22.7488  -29.4575   22.4933 C   0  0  0  0  0  0
  -18.0281  -28.1354   22.8497 C   0  0  0  0  0  0
  -24.1491  -36.7264   23.2643 C   0  0  0  0  0  0
  -25.9737  -30.7511   21.3802 C   0  0  0  0  0  0
  -26.0458  -29.3734   20.7189 C   0  0  0  0  0  0
  -27.2153  -28.5441   20.7207 C   0  0  0  0  0  0
  -26.0256  -26.8487   19.4719 C   0  0  0  0  0  0
  -24.8723  -27.6634   19.4680 C   0  0  0  0  0  0
  -23.6438  -29.8010   20.1576 C   0  0  0  0  0  0
  -25.4132  -36.3061   24.0320 C   0  0  1  0  0  0
  -20.5889  -28.3664   23.1281 C   0  0  2  0  0  0
  -20.6770  -26.9379   22.5425 C   0  0  0  0  0  0
  -19.5754  -26.6356   21.5221 C   0  0  0  0  0  0
  -18.1925  -26.7898   22.1617 C   0  0  0  0  0  0
  -19.1538  -28.8833   23.2881 C   0  0  0  0  0  0
  -18.9459  -30.1439   23.8883 C   0  0  0  0  0  0
  -17.6468  -30.6565   24.0549 C   0  0  0  0  0  0
  -25.9077  -34.9438   23.5081 C   0  0  0  0  0  0
  -16.5353  -29.9058   23.6336 C   0  0  0  0  0  0
  -16.7268  -28.6465   23.0369 C   0  0  0  0  0  0
  -26.4507  -31.6586   25.0711 C   0  0  0  0  0  0
  -25.3730  -31.3734   26.1429 C   0  0  0  0  0  0
  -27.0368  -30.3006   24.6210 C   0  0  0  0  0  0
  -27.6050  -32.4341   25.7481 C   0  0  0  0  0  0
  -27.5579  -37.1790   24.8469 C   0  0  0  0  0  0
  -21.4196  -29.3015   22.3661 N   0  0  0  0  0  0
  -26.4289  -37.3772   23.9412 N   0  0  0  0  0  0
  -24.6962  -31.0455   22.0945 N   0  0  0  0  0  0
  -23.4181  -28.8136   23.3049 O   0  0  0  0  0  0
  -28.3048  -26.3220   20.2307 O   0  0  0  0  0  0
  -26.5645  -34.8911   22.4648 O   0  0  0  0  0  0
  -23.5483  -32.1359   23.7257 O   0  0  0  0  0  0
  -29.4182  -18.6131   20.4739 C   0  0  0  0  0  0
  -30.3487  -19.8876   18.6250 C   0  0  0  0  0  0
  -30.7341  -17.4630   18.7819 C   0  0  0  0  0  0
  -29.5735  -19.9202   19.8088 C   0  0  0  0  0  0
  -30.0004  -17.3490   19.9852 C   0  0  0  0  0  0
  -30.9030  -18.6957   18.1220 C   0  0  0  0  0  0
  -28.7045  -23.7844   20.3028 C   0  0  0  0  0  0
  -28.3066  -24.9853   19.7010 C   0  0  0  0  0  0
  -28.8343  -22.4543   19.5774 C   0  0  0  0  0  0
  -29.0733  -21.2646   20.2872 N   0  0  0  0  0  0
  -29.8265  -15.9699   20.5712 N   0  0  0  0  0  0
  -28.7290  -22.4117   18.3499 O   0  0  0  0  0  0
  -31.6151  -18.7315   16.9697 F   0  0  0  0  0  0
  -31.4619  -12.6064   19.1756 H   0  0  0  0  0  0
  -30.3700  -11.5166   19.9865 H   0  0  0  0  0  0
  -29.7931  -11.7375   17.5399 H   0  0  0  0  0  0
  -29.6302  -13.4641   17.7214 H   0  0  0  0  0  0
  -27.8954  -11.2888   18.9323 H   0  0  0  0  0  0
  -27.3727  -12.5122   17.8062 H   0  0  0  0  0  0
  -27.6154  -14.2618   19.4600 H   0  0  0  0  0  0
  -28.7209  -12.2183   21.4409 H   0  0  0  0  0  0
  -28.4029  -13.9007   21.7766 H   0  0  0  0  0  0
  -25.2741   -9.5732   22.4755 H   0  0  0  0  0  0
  -23.9992   -7.4660   22.7472 H   0  0  0  0  0  0
  -21.0811   -8.8731   19.8953 H   0  0  0  0  0  0
  -22.3625  -10.9643   19.6146 H   0  0  0  0  0  0
  -21.2014   -7.6134   23.9699 H   0  0  0  0  0  0
  -21.1488   -6.0523   25.9063 H   0  0  0  0  0  0
  -22.0588   -2.7610   23.2860 H   0  0  0  0  0  0
  -22.4034  -11.9842   22.4824 H   0  0  0  0  0  0
  -21.1030  -13.1204   22.2641 H   0  0  0  0  0  0
  -24.6367  -15.8462   20.5345 H   0  0  0  0  0  0
  -26.2521  -15.6446   20.0838 H   0  0  0  0  0  0
  -26.7191  -32.5359   23.1030 H   0  0  0  0  0  0
  -25.0143  -33.9719   25.0407 H   0  0  0  0  0  0
  -22.7255  -31.2945   21.3969 H   0  0  0  0  0  0
  -23.3781  -35.9568   23.3307 H   0  0  0  0  0  0
  -24.3572  -36.8886   22.2056 H   0  0  0  0  0  0
  -23.7225  -37.6452   23.6679 H   0  0  0  0  0  0
  -26.1211  -31.5105   20.6112 H   0  0  0  0  0  0
  -26.8472  -30.7981   22.0169 H   0  0  0  0  0  0
  -28.1025  -28.8861   21.2348 H   0  0  0  0  0  0
  -25.9516  -25.8835   18.9935 H   0  0  0  0  0  0
  -23.9749  -27.3093   18.9806 H   0  0  0  0  0  0
  -23.7569  -30.5792   19.4004 H   0  0  0  0  0  0
  -22.7614  -29.2302   19.8589 H   0  0  0  0  0  0
  -25.1328  -36.1896   25.0813 H   0  0  0  0  0  0
  -20.9980  -28.3226   24.1402 H   0  0  0  0  0  0
  -20.5666  -26.2265   23.3630 H   0  0  0  0  0  0
  -21.6632  -26.7394   22.1210 H   0  0  0  0  0  0
  -19.6919  -25.6272   21.1240 H   0  0  0  0  0  0
  -19.6702  -27.3175   20.6759 H   0  0  0  0  0  0
  -17.4214  -26.6673   21.3996 H   0  0  0  0  0  0
  -18.0305  -26.0015   22.8975 H   0  0  0  0  0  0
  -19.7941  -30.7252   24.2227 H   0  0  0  0  0  0
  -17.5017  -31.6253   24.5133 H   0  0  0  0  0  0
  -15.5351  -30.2955   23.7670 H   0  0  0  0  0  0
  -15.8664  -28.0774   22.7117 H   0  0  0  0  0  0
  -24.5947  -30.7029   25.7761 H   0  0  0  0  0  0
  -24.8887  -32.2908   26.4789 H   0  0  0  0  0  0
  -25.8062  -30.8972   27.0236 H   0  0  0  0  0  0
  -26.2957  -29.6746   24.1224 H   0  0  0  0  0  0
  -27.4048  -29.7269   25.4727 H   0  0  0  0  0  0
  -27.8833  -30.4296   23.9457 H   0  0  0  0  0  0
  -27.2651  -33.3672   26.1983 H   0  0  0  0  0  0
  -28.3887  -32.6841   25.0319 H   0  0  0  0  0  0
  -28.0673  -31.8510   26.5455 H   0  0  0  0  0  0
  -28.2597  -38.0084   24.7521 H   0  0  0  0  0  0
  -28.1067  -36.2621   24.6294 H   0  0  0  0  0  0
  -27.2287  -37.1428   25.8862 H   0  0  0  0  0  0
  -20.9382  -29.8712   21.6843 H   0  0  0  0  0  0
  -26.0167  -38.2833   24.1429 H   0  0  0  0  0  0
  -28.8394  -18.5791   21.3861 H   0  0  0  0  0  0
  -30.5502  -20.7924   18.0718 H   0  0  0  0  0  0
  -31.1760  -16.5930   18.3183 H   0  0  0  0  0  0
  -28.9826  -23.8130   21.3454 H   0  0  0  0  0  0
  -28.0000  -24.9946   18.6643 H   0  0  0  0  0  0
  -28.9254  -21.3392   21.2836 H   0  0  0  0  0  0
  -28.9349  -15.8106   21.0159 H   0  0  0  0  0  0
  1 25  1  0  0  0
  1 30  2  0  0  0
  1 81  1  0  0  0
  2  3  1  0  0  0
  2 25  1  0  0  0
  2 84  1  0  0  0
  2 85  1  0  0  0
  3  4  1  0  0  0
  3 86  1  0  0  0
  3 87  1  0  0  0
  4  5  1  0  0  0
  4 88  1  0  0  0
  4 89  1  0  0  0
  5  6  1  0  0  0
  5 26  1  0  0  0
  5 90  1  0  0  0
  6 25  1  0  0  0
  6 91  1  0  0  0
  6 92  1  0  0  0
  7  8  2  0  0  0
  7 26  1  0  0  0
  7 29  1  0  0  0
  8  9  1  0  0  0
  8 22  1  0  0  0
  9 10  1  0  0  0
  9 27  2  0  0  0
 10 11  2  0  0  0
 10 15  1  0  0  0
 11 12  1  0  0  0
 11 93  1  0  0  0
 12 13  2  0  0  0
 12 94  1  0  0  0
 13 14  1  0  0  0
 13 31  1  0  0  0
 14 15  2  0  0  0
 14 95  1  0  0  0
 15 96  1  0  0  0
 16 17  2  0  0  0
 16 21  1  0  0  0
 16 31  1  0  0  0
 17 18  1  0  0  0
 17 97  1  0  0  0
 18 19  2  0  0  0
 18 98  1  0  0  0
 19 20  1  0  0  0
 19 24  1  0  0  0
 20 21  2  0  0  0
 20 99  1  0  0  0
 21 23  1  0  0  0
 22 28  1  0  0  0
 22 32  2  0  0  0
 26 27  1  0  0  0
 28100  1  0  0  0
 28101  1  0  0  0
 29102  1  0  0  0
 29103  1  0  0  0
 33 34  1  0  0  0
 33 66  1  0  0  0
 33 70  2  0  0  0
 34 36  1  0  0  0
 34 59  1  0  0  0
 34104  1  0  0  0
 35 44  2  0  0  0
 35 45  1  0  0  0
 35 68  1  0  0  0
 36 56  1  0  0  0
 36105  1  0  0  0
 37 39  1  0  0  0
 37 47  1  0  0  0
 37 66  1  0  0  0
 37106  1  0  0  0
 38 43  2  0  0  0
 38 46  1  0  0  0
 38 47  1  0  0  0
 39 64  1  0  0  0
 39 67  2  0  0  0
 40 52  1  0  0  0
 40 53  2  0  0  0
 40 58  1  0  0  0
 41107  1  0  0  0
 41108  1  0  0  0
 41109  1  0  0  0
 41 48  1  0  0  0
 42 43  1  0  0  0
 42 66  1  0  0  0
 42110  1  0  0  0
 42111  1  0  0  0
 43 44  1  0  0  0
 44112  1  0  0  0
 45 46  2  0  0  0
 45113  1  0  0  0
 46114  1  0  0  0
 47115  1  0  0  0
 47116  1  0  0  0
 48 56  1  0  0  0
 48 65  1  0  0  0
 48117  1  0  0  0
 49 50  1  0  0  0
 49 53  1  0  0  0
 49 64  1  0  0  0
 49118  1  0  0  0
 50 51  1  0  0  0
 50119  1  0  0  0
 50120  1  0  0  0
 51 52  1  0  0  0
 51121  1  0  0  0
 51122  1  0  0  0
 52123  1  0  0  0
 52124  1  0  0  0
 53 54  1  0  0  0
 54 55  2  0  0  0
 54125  1  0  0  0
 55 57  1  0  0  0
 55126  1  0  0  0
 56 69  2  0  0  0
 57 58  2  0  0  0
 57127  1  0  0  0
 58128  1  0  0  0
 59 60  1  0  0  0
 59 61  1  0  0  0
 59 62  1  0  0  0
 60129  1  0  0  0
 60130  1  0  0  0
 60131  1  0  0  0
 61132  1  0  0  0
 61133  1  0  0  0
 61134  1  0  0  0
 62135  1  0  0  0
 62136  1  0  0  0
 62137  1  0  0  0
 63 65  1  0  0  0
 63138  1  0  0  0
 63139  1  0  0  0
 63140  1  0  0  0
 64141  1  0  0  0
 65142  1  0  0  0
 68 78  1  0  0  0
 71 74  2  0  0  0
 71 75  1  0  0  0
 71143  1  0  0  0
 72 74  1  0  0  0
 72 76  2  0  0  0
 72144  1  0  0  0
 73 75  2  0  0  0
 73 76  1  0  0  0
 73145  1  0  0  0
 74 80  1  0  0  0
 75 81  1  0  0  0
 76 83  1  0  0  0
 77 78  2  0  0  0
 77 79  1  0  0  0
 77146  1  0  0  0
 78147  1  0  0  0
 79 80  1  0  0  0
 79 82  2  0  0  0
 80148  1  0  0  0
 81149  1  0  0  0
M  ISO  4   1 100  68 101  78 101  81 100
M  END
> <chiral flag>
0

> <version>
0

> <s_m_source_file>
/data/baiqing/PycharmProjects/Reinvent-master-3.2/result/LINK_invent/BTK/process_docking_weight1_custom_product_contain_oxygen_bond_distance_aromatic_linkinvent_7_9_3/rearranged_h_0068.sdf

> <i_m_source_file_index>
48

> <r_mmod_Potential_Energy-OPLS-2005>
235.8671875

> <r_mmod_Stretch_Energy-OPLS-2005>
153.13215637207

> <r_mmod_Bend_Energy-OPLS-2005>
169.718704223633

> <r_mmod_Torsional_Energy-OPLS-2005>
247.46369934082

> <r_mmod_Improper_Torsional_Energy-OPLS-2005>
5.43815279006958

> <r_mmod_Van_der_Waal_Energy-OPLS-2005>
143.913436889648

> <r_mmod_Electrostatic_Energy-OPLS-2005>
-363.189331054688

> <r_mmod_Solvation_Energy-OPLS-2005>
-231.652267456055

> <b_mmod_Minimization_Converged-OPLS-2005>
0

> <r_mmod_RMS_Derivative-OPLS-2005>
3.23008298873901

$$$$
48
                    3D
 Structure written by MMmdl.
152160  0  0  1  0            999 V2000
  -30.4529  -15.2577   20.4043 C   0  0  0  0  0  0
  -30.4449  -12.8120   19.5117 C   0  0  0  0  0  0
  -29.5309  -12.5725   18.2827 C   0  0  0  0  0  0
  -28.0827  -12.2911   18.7209 C   0  0  0  0  0  0
  -27.6122  -13.2729   19.8217 C   0  0  2  0  0  0
  -28.6496  -13.4497   20.9516 C   0  0  0  0  0  0
  -25.2362  -13.8246   20.5744 C   0  0  0  0  0  0
  -24.1732  -13.0425   20.9253 C   0  0  0  0  0  0
  -24.6401  -11.6929   20.8787 C   0  0  0  0  0  0
  -23.9112  -10.4278   21.0405 C   0  0  0  0  0  0
  -24.3654   -9.4190   21.9179 C   0  0  0  0  0  0
  -23.6317   -8.2233   22.0751 C   0  0  0  0  0  0
  -22.4283   -8.0290   21.3547 C   0  0  0  0  0  0
  -21.9937   -9.0264   20.4636 C   0  0  0  0  0  0
  -22.7279  -10.2134   20.3045 C   0  0  0  0  0  0
  -21.6844   -6.0737   22.5275 C   0  0  0  0  0  0
  -21.4012   -6.5629   23.8219 C   0  0  0  0  0  0
  -21.3665   -5.6780   24.9175 C   0  0  0  0  0  0
  -21.6046   -4.3050   24.7219 C   0  0  0  0  0  0
  -21.8814   -3.8142   23.4336 C   0  0  0  0  0  0
  -21.9187   -4.6961   22.3393 C   0  0  0  0  0  0
  -22.7739  -13.5176   21.1930 C   0  0  0  0  0  0
  -22.1650   -4.2151   21.0974 F   0  0  0  0  0  0
  -21.5645   -3.4532   25.7733 F   0  0  0  0  0  0
  -29.8787  -13.9579   20.3157 N   0  0  0  0  0  0
  -26.2827  -12.9535   20.3232 N   0  0  0  0  0  0
  -25.9334  -11.6640   20.5753 N   0  0  0  0  0  0
  -22.0416  -12.8141   22.0485 N   0  0  0  0  0  0
  -25.3905  -15.1998   20.4176 N   0  0  0  0  0  0
  -31.6804  -15.2443   20.2320 O   0  0  0  0  0  0
  -21.6629   -6.8894   21.4248 O   0  0  0  0  0  0
  -22.3407  -14.5472   20.6764 O   0  0  0  0  0  0
  -24.6594  -31.8298   23.1715 C   0  0  0  0  0  0
  -25.9298  -32.4640   23.8163 C   0  0  1  0  0  0
  -27.2177  -26.9235   20.2182 C   0  0  0  0  0  0
  -25.5982  -33.8434   24.2086 N   0  0  0  0  0  0
  -23.4742  -30.4412   21.5215 C   0  0  2  0  0  0
  -24.9335  -28.8267   20.1191 C   0  0  0  0  0  0
  -22.7648  -29.4499   22.4789 C   0  0  0  0  0  0
  -18.0336  -28.1434   22.8510 C   0  0  0  0  0  0
  -24.1493  -36.7193   23.2643 C   0  0  0  0  0  0
  -26.0427  -30.6323   21.4081 C   0  0  0  0  0  0
  -26.1121  -29.2157   20.7692 C   0  0  0  0  0  0
  -27.2452  -28.2843   20.8055 C   0  0  0  0  0  0
  -26.0193  -26.7019   19.4979 C   0  0  0  0  0  0
  -24.9113  -27.5884   19.4626 C   0  0  0  0  0  0
  -23.7194  -29.7546   20.1478 C   0  0  0  0  0  0
  -25.4138  -36.2977   24.0309 C   0  0  1  0  0  0
  -20.5951  -28.3787   23.1203 C   0  0  2  0  0  0
  -20.6809  -26.9474   22.5409 C   0  0  0  0  0  0
  -19.5777  -26.6416   21.5241 C   0  0  0  0  0  0
  -18.1962  -26.7978   22.1646 C   0  0  0  0  0  0
  -19.1597  -28.8934   23.2839 C   0  0  0  0  0  0
  -18.9515  -30.1514   23.8889 C   0  0  0  0  0  0
  -17.6507  -30.6625   24.0584 C   0  0  0  0  0  0
  -25.9103  -34.9374   23.5018 C   0  0  0  0  0  0
  -16.5402  -29.9114   23.6350 C   0  0  0  0  0  0
  -16.7312  -28.6519   23.0400 C   0  0  0  0  0  0
  -26.4538  -31.6565   25.0693 C   0  0  0  0  0  0
  -25.3658  -31.3850   26.1349 C   0  0  0  0  0  0
  -27.0425  -30.2939   24.6410 C   0  0  0  0  0  0
  -27.6029  -32.4349   25.7488 C   0  0  0  0  0  0
  -27.5569  -37.1763   24.8466 C   0  0  0  0  0  0
  -21.4317  -29.3073   22.3535 N   0  0  0  0  0  0
  -26.4270  -37.3732   23.9420 N   0  0  0  0  0  0
  -24.7461  -30.9945   22.0866 N   0  0  0  0  0  0
  -23.4194  -28.8072   23.3039 O   0  0  0  0  0  0
  -28.2219  -25.8125   20.2081 O   0  0  0  0  0  0
  -26.5701  -34.8899   22.4608 O   0  0  0  0  0  0
  -23.5652  -32.1292   23.6801 O   0  0  0  0  0  0
  -31.2604  -19.7199   21.9782 C   0  0  0  0  0  0
  -29.2006  -19.4155   20.2620 C   0  0  0  0  0  0
  -30.6214  -20.9159   21.5315 C   0  0  0  0  0  0
  -29.4729  -20.8981   20.6559 C   0  0  0  0  0  0
  -29.9113  -18.1016   20.6828 C   0  0  0  0  0  0
  -30.9356  -18.3968   21.6037 C   0  0  0  0  0  0
  -31.3206  -22.1259   22.0124 C   0  0  0  0  0  0
  -30.7205  -23.0770   22.7200 N   0  0  0  0  0  0
  -29.6814  -16.5250   20.3919 N   0  0  0  0  0  0
  -28.8899  -22.2507   20.1353 N   0  0  0  0  0  0
  -32.6359  -22.2560   21.8196 N   0  3  0  0  0  0
  -26.5800  -23.6950   20.3350 O   0  0  0  0  0  0
  -28.2286  -23.9847   22.1922 O   0  0  0  0  0  0
  -31.6245  -17.3871   22.1899 F   0  0  0  0  0  0
  -27.9664  -23.9930   20.7408 S   0  0  0  0  0  0
  -31.4603  -13.0178   19.1657 H   0  0  0  0  0  0
  -30.5282  -11.9111   20.1224 H   0  0  0  0  0  0
  -29.9134  -11.7457   17.6830 H   0  0  0  0  0  0
  -29.5487  -13.4559   17.6423 H   0  0  0  0  0  0
  -28.0472  -11.2691   19.1012 H   0  0  0  0  0  0
  -27.4126  -12.3221   17.8605 H   0  0  0  0  0  0
  -27.5253  -14.2352   19.3166 H   0  0  0  0  0  0
  -28.8211  -12.5143   21.4870 H   0  0  0  0  0  0
  -28.2895  -14.1674   21.6910 H   0  0  0  0  0  0
  -25.2801   -9.5643   22.4761 H   0  0  0  0  0  0
  -24.0002   -7.4614   22.7473 H   0  0  0  0  0  0
  -21.0867   -8.8793   19.8950 H   0  0  0  0  0  0
  -22.3749  -10.9675   19.6153 H   0  0  0  0  0  0
  -21.1992   -7.6137   23.9726 H   0  0  0  0  0  0
  -21.1504   -6.0506   25.9087 H   0  0  0  0  0  0
  -22.0596   -2.7607   23.2824 H   0  0  0  0  0  0
  -22.4066  -11.9783   22.4806 H   0  0  0  0  0  0
  -21.1033  -13.1150   22.2768 H   0  0  0  0  0  0
  -24.6076  -15.8351   20.5334 H   0  0  0  0  0  0
  -26.2236  -15.6613   20.0813 H   0  0  0  0  0  0
  -26.7374  -32.5257   23.0873 H   0  0  0  0  0  0
  -25.0189  -33.9518   25.0283 H   0  0  0  0  0  0
  -22.7900  -31.2732   21.3510 H   0  0  0  0  0  0
  -23.3785  -35.9492   23.3279 H   0  0  0  0  0  0
  -24.3540  -36.8847   22.2051 H   0  0  0  0  0  0
  -23.7219  -37.6372   23.6694 H   0  0  0  0  0  0
  -26.2209  -31.3646   20.6190 H   0  0  0  0  0  0
  -26.8993  -30.7030   22.0623 H   0  0  0  0  0  0
  -28.1279  -28.5902   21.3475 H   0  0  0  0  0  0
  -25.9091  -25.7617   18.9742 H   0  0  0  0  0  0
  -24.0235  -27.2913   18.9199 H   0  0  0  0  0  0
  -23.8738  -30.5211   19.3897 H   0  0  0  0  0  0
  -22.8358  -29.2000   19.8272 H   0  0  0  0  0  0
  -25.1331  -36.1774   25.0801 H   0  0  0  0  0  0
  -21.0057  -28.3421   24.1313 H   0  0  0  0  0  0
  -20.5752  -26.2421   23.3650 H   0  0  0  0  0  0
  -21.6684  -26.7487   22.1212 H   0  0  0  0  0  0
  -19.6921  -25.6314   21.1296 H   0  0  0  0  0  0
  -19.6690  -27.3214   20.6751 H   0  0  0  0  0  0
  -17.4235  -26.6767   21.4025 H   0  0  0  0  0  0
  -18.0319  -26.0117   22.9027 H   0  0  0  0  0  0
  -19.8006  -30.7329   24.2269 H   0  0  0  0  0  0
  -17.5074  -31.6303   24.5176 H   0  0  0  0  0  0
  -15.5410  -30.3021   23.7666 H   0  0  0  0  0  0
  -15.8709  -28.0790   22.7176 H   0  0  0  0  0  0
  -24.5838  -30.7190   25.7673 H   0  0  0  0  0  0
  -24.8880  -32.3097   26.4612 H   0  0  0  0  0  0
  -25.7895  -30.9131   27.0241 H   0  0  0  0  0  0
  -26.3101  -29.6635   24.1385 H   0  0  0  0  0  0
  -27.3937  -29.7253   25.5038 H   0  0  0  0  0  0
  -27.9033  -30.4116   23.9829 H   0  0  0  0  0  0
  -27.2611  -33.3700   26.1928 H   0  0  0  0  0  0
  -28.3925  -32.6838   25.0384 H   0  0  0  0  0  0
  -28.0612  -31.8595   26.5545 H   0  0  0  0  0  0
  -28.2594  -38.0056   24.7549 H   0  0  0  0  0  0
  -28.1054  -36.2601   24.6262 H   0  0  0  0  0  0
  -27.2280  -37.1389   25.8862 H   0  0  0  0  0  0
  -20.9545  -29.8708   21.6626 H   0  0  0  0  0  0
  -26.0112  -38.2781   24.1458 H   0  0  0  0  0  0
  -32.0806  -19.8120   22.6778 H   0  0  0  0  0  0
  -28.3887  -19.2698   19.5666 H   0  0  0  0  0  0
  -29.7054  -23.0956   22.7970 H   0  0  0  0  0  0
  -31.2313  -23.8197   23.1687 H   0  0  0  0  0  0
  -28.7140  -16.3265   20.1908 H   0  0  0  0  0  0
  -28.5951  -22.1480   19.1728 H   0  0  0  0  0  0
  -33.1169  -21.5904   21.2330 H   0  0  0  0  0  0
  -33.1767  -23.0071   22.2180 H   0  0  0  0  0  0
  1 25  1  0  0  0
  1 30  2  0  0  0
  1 79  1  0  0  0
  2  3  1  0  0  0
  2 25  1  0  0  0
  2 86  1  0  0  0
  2 87  1  0  0  0
  3  4  1  0  0  0
  3 88  1  0  0  0
  3 89  1  0  0  0
  4  5  1  0  0  0
  4 90  1  0  0  0
  4 91  1  0  0  0
  5  6  1  0  0  0
  5 26  1  0  0  0
  5 92  1  0  0  0
  6 25  1  0  0  0
  6 93  1  0  0  0
  6 94  1  0  0  0
  7  8  2  0  0  0
  7 26  1  0  0  0
  7 29  1  0  0  0
  8  9  1  0  0  0
  8 22  1  0  0  0
  9 10  1  0  0  0
  9 27  2  0  0  0
 10 11  2  0  0  0
 10 15  1  0  0  0
 11 12  1  0  0  0
 11 95  1  0  0  0
 12 13  2  0  0  0
 12 96  1  0  0  0
 13 14  1  0  0  0
 13 31  1  0  0  0
 14 15  2  0  0  0
 14 97  1  0  0  0
 15 98  1  0  0  0
 16 17  2  0  0  0
 16 21  1  0  0  0
 16 31  1  0  0  0
 17 18  1  0  0  0
 17 99  1  0  0  0
 18 19  2  0  0  0
 18100  1  0  0  0
 19 20  1  0  0  0
 19 24  1  0  0  0
 20 21  2  0  0  0
 20101  1  0  0  0
 21 23  1  0  0  0
 22 28  1  0  0  0
 22 32  2  0  0  0
 26 27  1  0  0  0
 28102  1  0  0  0
 28103  1  0  0  0
 29104  1  0  0  0
 29105  1  0  0  0
 33 34  1  0  0  0
 33 66  1  0  0  0
 33 70  2  0  0  0
 34 36  1  0  0  0
 34 59  1  0  0  0
 34106  1  0  0  0
 35 44  2  0  0  0
 35 45  1  0  0  0
 35 68  1  0  0  0
 36 56  1  0  0  0
 36107  1  0  0  0
 37 39  1  0  0  0
 37 47  1  0  0  0
 37 66  1  0  0  0
 37108  1  0  0  0
 38 43  2  0  0  0
 38 46  1  0  0  0
 38 47  1  0  0  0
 39 64  1  0  0  0
 39 67  2  0  0  0
 40 52  1  0  0  0
 40 53  2  0  0  0
 40 58  1  0  0  0
 41109  1  0  0  0
 41110  1  0  0  0
 41111  1  0  0  0
 41 48  1  0  0  0
 42 43  1  0  0  0
 42 66  1  0  0  0
 42112  1  0  0  0
 42113  1  0  0  0
 43 44  1  0  0  0
 44114  1  0  0  0
 45 46  2  0  0  0
 45115  1  0  0  0
 46116  1  0  0  0
 47117  1  0  0  0
 47118  1  0  0  0
 48 56  1  0  0  0
 48 65  1  0  0  0
 48119  1  0  0  0
 49 50  1  0  0  0
 49 53  1  0  0  0
 49 64  1  0  0  0
 49120  1  0  0  0
 50 51  1  0  0  0
 50121  1  0  0  0
 50122  1  0  0  0
 51 52  1  0  0  0
 51123  1  0  0  0
 51124  1  0  0  0
 52125  1  0  0  0
 52126  1  0  0  0
 53 54  1  0  0  0
 54 55  2  0  0  0
 54127  1  0  0  0
 55 57  1  0  0  0
 55128  1  0  0  0
 56 69  2  0  0  0
 57 58  2  0  0  0
 57129  1  0  0  0
 58130  1  0  0  0
 59 60  1  0  0  0
 59 61  1  0  0  0
 59 62  1  0  0  0
 60131  1  0  0  0
 60132  1  0  0  0
 60133  1  0  0  0
 61134  1  0  0  0
 61135  1  0  0  0
 61136  1  0  0  0
 62137  1  0  0  0
 62138  1  0  0  0
 62139  1  0  0  0
 63 65  1  0  0  0
 63140  1  0  0  0
 63141  1  0  0  0
 63142  1  0  0  0
 64143  1  0  0  0
 65144  1  0  0  0
 68 85  1  0  0  0
 71 73  2  0  0  0
 71 76  1  0  0  0
 71145  1  0  0  0
 72 74  2  0  0  0
 72 75  1  0  0  0
 72146  1  0  0  0
 73 74  1  0  0  0
 73 77  1  0  0  0
 74 80  1  0  0  0
 75 76  2  0  0  0
 75 79  1  0  0  0
 76 84  1  0  0  0
 77 78  1  0  0  0
 77 81  2  0  0  0
 78147  1  0  0  0
 78148  1  0  0  0
 79149  1  0  0  0
 80150  1  0  0  0
 80 85  1  0  0  0
 81151  1  0  0  0
 81152  1  0  0  0
 82 85  2  0  0  0
 83 85  2  0  0  0
M  CHG  1  81   1
M  ISO  4   1 100  68 101  79 100  85 101
M  END
> <chiral flag>
0

> <version>
0

> <s_m_source_file>
/data/baiqing/PycharmProjects/Reinvent-master-3.2/result/LINK_invent/BTK/process_docking_weight1_custom_product_contain_oxygen_bond_distance_aromatic_linkinvent_7_9_3/rearranged_h_0068.sdf

> <i_m_source_file_index>
49

> <r_mmod_Potential_Energy-OPLS-2005>
853.2724609375

> <r_mmod_Stretch_Energy-OPLS-2005>
565.414672851562

> <r_mmod_Bend_Energy-OPLS-2005>
408.027435302734

> <r_mmod_Torsional_Energy-OPLS-2005>
242.125259399414

> <r_mmod_Improper_Torsional_Energy-OPLS-2005>
10.5300674438477

> <r_mmod_Van_der_Waal_Energy-OPLS-2005>
136.235412597656

> <r_mmod_Electrostatic_Energy-OPLS-2005>
-477.971832275391

> <r_mmod_Solvation_Energy-OPLS-2005>
-484.702484130859

> <b_mmod_Minimization_Converged-OPLS-2005>
0

> <r_mmod_RMS_Derivative-OPLS-2005>
4.620041847229

$$$$
49
                    3D
 Structure written by MMmdl.
157165  0  0  1  0            999 V2000
  -30.7189  -14.5291   20.4184 C   0  0  0  0  0  0
  -30.4110  -12.3053   19.4376 C   0  0  0  0  0  0
  -29.4938  -12.4806   18.2101 C   0  0  0  0  0  0
  -28.0171  -12.3448   18.6271 C   0  0  0  0  0  0
  -27.6530  -13.2239   19.8550 C   0  0  2  0  0  0
  -28.7073  -13.0995   20.9808 C   0  0  0  0  0  0
  -25.2582  -13.8191   20.5717 C   0  0  0  0  0  0
  -24.1849  -13.0456   20.9206 C   0  0  0  0  0  0
  -24.6429  -11.6916   20.8779 C   0  0  0  0  0  0
  -23.9097  -10.4293   21.0423 C   0  0  0  0  0  0
  -24.3636   -9.4198   21.9202 C   0  0  0  0  0  0
  -23.6286   -8.2245   22.0775 C   0  0  0  0  0  0
  -22.4271   -8.0299   21.3552 C   0  0  0  0  0  0
  -21.9927   -9.0278   20.4645 C   0  0  0  0  0  0
  -22.7274  -10.2145   20.3054 C   0  0  0  0  0  0
  -21.6849   -6.0739   22.5287 C   0  0  0  0  0  0
  -21.4011   -6.5647   23.8213 C   0  0  0  0  0  0
  -21.3657   -5.6807   24.9183 C   0  0  0  0  0  0
  -21.6042   -4.3063   24.7227 C   0  0  0  0  0  0
  -21.8828   -3.8144   23.4356 C   0  0  0  0  0  0
  -21.9187   -4.6964   22.3416 C   0  0  0  0  0  0
  -22.7860  -13.5234   21.1847 C   0  0  0  0  0  0
  -22.1675   -4.2153   21.0999 F   0  0  0  0  0  0
  -21.5598   -3.4553   25.7742 F   0  0  0  0  0  0
  -30.0328  -13.3532   20.3975 N   0  0  0  0  0  0
  -26.3015  -12.9385   20.3339 N   0  0  0  0  0  0
  -25.9359  -11.6529   20.5798 N   0  0  0  0  0  0
  -22.0502  -12.8201   22.0379 N   0  0  0  0  0  0
  -25.4233  -15.1905   20.4108 N   0  0  0  0  0  0
  -31.9351  -14.5765   20.2398 O   0  0  0  0  0  0
  -21.6625   -6.8894   21.4251 O   0  0  0  0  0  0
  -22.3548  -14.5558   20.6699 O   0  0  0  0  0  0
  -24.6178  -31.8650   23.2048 C   0  0  0  0  0  0
  -25.9063  -32.4803   23.8351 C   0  0  1  0  0  0
  -27.2319  -27.3807   20.1082 C   0  0  0  0  0  0
  -25.5889  -33.8596   24.2291 N   0  0  0  0  0  0
  -23.4065  -30.4891   21.5449 C   0  0  2  0  0  0
  -24.8520  -28.9477   20.1108 C   0  0  0  0  0  0
  -22.7412  -29.4667   22.4935 C   0  0  0  0  0  0
  -18.0271  -28.1390   22.8500 C   0  0  0  0  0  0
  -24.1480  -36.7280   23.2634 C   0  0  0  0  0  0
  -25.9389  -30.8136   21.3658 C   0  0  0  0  0  0
  -26.0137  -29.4432   20.7135 C   0  0  0  0  0  0
  -27.2018  -28.6678   20.7100 C   0  0  0  0  0  0
  -26.0439  -26.9093   19.5018 C   0  0  0  0  0  0
  -24.8662  -27.6816   19.4989 C   0  0  0  0  0  0
  -23.6143  -29.8188   20.1603 C   0  0  0  0  0  0
  -25.4103  -36.3095   24.0339 C   0  0  1  0  0  0
  -20.5868  -28.3689   23.1308 C   0  0  2  0  0  0
  -20.6762  -26.9418   22.5431 C   0  0  0  0  0  0
  -19.5742  -26.6398   21.5220 C   0  0  0  0  0  0
  -18.1913  -26.7938   22.1632 C   0  0  0  0  0  0
  -19.1529  -28.8843   23.2904 C   0  0  0  0  0  0
  -18.9460  -30.1441   23.8920 C   0  0  0  0  0  0
  -17.6469  -30.6602   24.0566 C   0  0  0  0  0  0
  -25.9047  -34.9471   23.5127 C   0  0  0  0  0  0
  -16.5353  -29.9105   23.6335 C   0  0  0  0  0  0
  -16.7260  -28.6520   23.0356 C   0  0  0  0  0  0
  -26.4481  -31.6577   25.0678 C   0  0  0  0  0  0
  -25.3726  -31.3633   26.1397 C   0  0  0  0  0  0
  -27.0346  -30.3036   24.6055 C   0  0  0  0  0  0
  -27.6041  -32.4298   25.7451 C   0  0  0  0  0  0
  -27.5582  -37.1781   24.8461 C   0  0  0  0  0  0
  -21.4124  -29.3056   22.3680 N   0  0  0  0  0  0
  -26.4276  -37.3807   23.9432 N   0  0  0  0  0  0
  -24.6726  -31.0712   22.0964 N   0  0  0  0  0  0
  -23.4159  -28.8232   23.3003 O   0  0  0  0  0  0
  -28.4090  -26.6413   20.1355 O   0  0  0  0  0  0
  -26.5633  -34.8943   22.4705 O   0  0  0  0  0  0
  -23.5368  -32.1413   23.7427 O   0  0  0  0  0  0
  -30.7698  -19.5234   18.7007 C   0  0  0  0  0  0
  -29.5987  -18.1109   20.3010 C   0  0  0  0  0  0
  -31.4407  -18.3879   18.2035 C   0  0  0  0  0  0
  -29.8209  -19.4060   19.7441 C   0  0  0  0  0  0
  -30.2824  -16.9489   19.8368 C   0  0  0  0  0  0
  -31.1861  -17.1115   18.7473 C   0  0  0  0  0  0
  -29.0685  -21.8455   19.9002 C   0  0  0  0  0  0
  -32.4221  -18.5328   17.0505 C   0  0  0  0  0  0
  -27.8518  -22.7098   20.3232 C   0  0  0  0  0  0
  -28.0690  -24.2020   20.7680 C   0  0  0  0  0  0
  -28.4603  -25.2583   19.6886 C   0  0  0  0  0  0
  -29.0320  -20.5218   20.2158 N   0  0  0  0  0  0
  -29.9658  -15.6563   20.4170 N   0  0  0  0  0  0
  -30.0076  -22.3827   19.3098 O   0  0  0  0  0  0
  -31.7786  -16.0511   18.1486 F   0  0  0  0  0  0
  -31.4608  -12.3610   19.1419 H   0  0  0  0  0  0
  -30.2749  -11.3183   19.8857 H   0  0  0  0  0  0
  -29.7385  -11.7389   17.4495 H   0  0  0  0  0  0
  -29.6611  -13.4589   17.7533 H   0  0  0  0  0  0
  -27.8392  -11.2930   18.8564 H   0  0  0  0  0  0
  -27.3629  -12.5831   17.7871 H   0  0  0  0  0  0
  -27.6632  -14.2559   19.5042 H   0  0  0  0  0  0
  -28.6820  -12.1042   21.4259 H   0  0  0  0  0  0
  -28.4947  -13.7994   21.7907 H   0  0  0  0  0  0
  -25.2786   -9.5671   22.4786 H   0  0  0  0  0  0
  -23.9993   -7.4632   22.7500 H   0  0  0  0  0  0
  -21.0872   -8.8804   19.8934 H   0  0  0  0  0  0
  -22.3752  -10.9695   19.6167 H   0  0  0  0  0  0
  -21.2043   -7.6161   23.9727 H   0  0  0  0  0  0
  -21.1458   -6.0535   25.9093 H   0  0  0  0  0  0
  -22.0603   -2.7604   23.2848 H   0  0  0  0  0  0
  -22.4129  -11.9856   22.4764 H   0  0  0  0  0  0
  -21.1119  -13.1195   22.2593 H   0  0  0  0  0  0
  -24.6484  -15.8359   20.5133 H   0  0  0  0  0  0
  -26.2662  -15.6332   20.0678 H   0  0  0  0  0  0
  -26.7099  -32.5510   23.1075 H   0  0  0  0  0  0
  -24.9978  -33.9748   25.0391 H   0  0  0  0  0  0
  -22.6972  -31.3071   21.4055 H   0  0  0  0  0  0
  -23.3792  -35.9569   23.3276 H   0  0  0  0  0  0
  -24.3547  -36.8931   22.2059 H   0  0  0  0  0  0
  -23.7197  -37.6443   23.6683 H   0  0  0  0  0  0
  -26.0550  -31.5763   20.5950 H   0  0  0  0  0  0
  -26.8258  -30.8683   21.9852 H   0  0  0  0  0  0
  -28.0962  -29.0475   21.1848 H   0  0  0  0  0  0
  -25.9964  -25.9399   19.0308 H   0  0  0  0  0  0
  -23.9736  -27.2932   19.0272 H   0  0  0  0  0  0
  -23.7163  -30.5927   19.3988 H   0  0  0  0  0  0
  -22.7377  -29.2362   19.8733 H   0  0  0  0  0  0
  -25.1287  -36.1935   25.0840 H   0  0  0  0  0  0
  -20.9976  -28.3297   24.1423 H   0  0  0  0  0  0
  -20.5660  -26.2302   23.3621 H   0  0  0  0  0  0
  -21.6638  -26.7448   22.1244 H   0  0  0  0  0  0
  -19.6914  -25.6317   21.1226 H   0  0  0  0  0  0
  -19.6704  -27.3225   20.6758 H   0  0  0  0  0  0
  -17.4199  -26.6716   21.4011 H   0  0  0  0  0  0
  -18.0293  -26.0057   22.9003 H   0  0  0  0  0  0
  -19.7933  -30.7246   24.2321 H   0  0  0  0  0  0
  -17.5035  -31.6299   24.5157 H   0  0  0  0  0  0
  -15.5360  -30.3036   23.7645 H   0  0  0  0  0  0
  -15.8650  -28.0856   22.7066 H   0  0  0  0  0  0
  -24.5962  -30.6924   25.7692 H   0  0  0  0  0  0
  -24.8830  -32.2757   26.4812 H   0  0  0  0  0  0
  -25.8079  -30.8816   27.0165 H   0  0  0  0  0  0
  -26.2908  -29.6742   24.1155 H   0  0  0  0  0  0
  -27.4187  -29.7317   25.4505 H   0  0  0  0  0  0
  -27.8707  -30.4372   23.9191 H   0  0  0  0  0  0
  -27.2672  -33.3615   26.2015 H   0  0  0  0  0  0
  -28.3869  -32.6817   25.0279 H   0  0  0  0  0  0
  -28.0693  -31.8409   26.5367 H   0  0  0  0  0  0
  -28.2573  -38.0108   24.7593 H   0  0  0  0  0  0
  -28.1121  -36.2649   24.6214 H   0  0  0  0  0  0
  -27.2297  -37.1340   25.8856 H   0  0  0  0  0  0
  -20.9247  -29.8734   21.6881 H   0  0  0  0  0  0
  -26.0166  -38.2870   24.1493 H   0  0  0  0  0  0
  -30.9733  -20.4741   18.2337 H   0  0  0  0  0  0
  -28.8707  -17.9965   21.0905 H   0  0  0  0  0  0
  -32.3726  -19.5240   16.5987 H   0  0  0  0  0  0
  -32.2143  -17.7997   16.2687 H   0  0  0  0  0  0
  -33.4447  -18.3787   17.3995 H   0  0  0  0  0  0
  -27.3545  -22.1876   21.1435 H   0  0  0  0  0  0
  -27.1391  -22.6907   19.4986 H   0  0  0  0  0  0
  -28.7924  -24.2285   21.5817 H   0  0  0  0  0  0
  -27.1286  -24.5270   21.2146 H   0  0  0  0  0  0
  -27.9023  -25.1093   18.7669 H   0  0  0  0  0  0
  -29.4966  -25.0721   19.4072 H   0  0  0  0  0  0
  -28.2733  -20.2670   20.8324 H   0  0  0  0  0  0
  -29.0144  -15.5323   20.7214 H   0  0  0  0  0  0
  1 25  1  0  0  0
  1 30  2  0  0  0
  1 83  1  0  0  0
  2  3  1  0  0  0
  2 25  1  0  0  0
  2 86  1  0  0  0
  2 87  1  0  0  0
  3  4  1  0  0  0
  3 88  1  0  0  0
  3 89  1  0  0  0
  4  5  1  0  0  0
  4 90  1  0  0  0
  4 91  1  0  0  0
  5  6  1  0  0  0
  5 26  1  0  0  0
  5 92  1  0  0  0
  6 25  1  0  0  0
  6 93  1  0  0  0
  6 94  1  0  0  0
  7  8  2  0  0  0
  7 26  1  0  0  0
  7 29  1  0  0  0
  8  9  1  0  0  0
  8 22  1  0  0  0
  9 10  1  0  0  0
  9 27  2  0  0  0
 10 11  2  0  0  0
 10 15  1  0  0  0
 11 12  1  0  0  0
 11 95  1  0  0  0
 12 13  2  0  0  0
 12 96  1  0  0  0
 13 14  1  0  0  0
 13 31  1  0  0  0
 14 15  2  0  0  0
 14 97  1  0  0  0
 15 98  1  0  0  0
 16 17  2  0  0  0
 16 21  1  0  0  0
 16 31  1  0  0  0
 17 18  1  0  0  0
 17 99  1  0  0  0
 18 19  2  0  0  0
 18100  1  0  0  0
 19 20  1  0  0  0
 19 24  1  0  0  0
 20 21  2  0  0  0
 20101  1  0  0  0
 21 23  1  0  0  0
 22 28  1  0  0  0
 22 32  2  0  0  0
 26 27  1  0  0  0
 28102  1  0  0  0
 28103  1  0  0  0
 29104  1  0  0  0
 29105  1  0  0  0
 33 34  1  0  0  0
 33 66  1  0  0  0
 33 70  2  0  0  0
 34 36  1  0  0  0
 34 59  1  0  0  0
 34106  1  0  0  0
 35 44  2  0  0  0
 35 45  1  0  0  0
 35 68  1  0  0  0
 36 56  1  0  0  0
 36107  1  0  0  0
 37 39  1  0  0  0
 37 47  1  0  0  0
 37 66  1  0  0  0
 37108  1  0  0  0
 38 43  2  0  0  0
 38 46  1  0  0  0
 38 47  1  0  0  0
 39 64  1  0  0  0
 39 67  2  0  0  0
 40 52  1  0  0  0
 40 53  2  0  0  0
 40 58  1  0  0  0
 41109  1  0  0  0
 41110  1  0  0  0
 41111  1  0  0  0
 41 48  1  0  0  0
 42 43  1  0  0  0
 42 66  1  0  0  0
 42112  1  0  0  0
 42113  1  0  0  0
 43 44  1  0  0  0
 44114  1  0  0  0
 45 46  2  0  0  0
 45115  1  0  0  0
 46116  1  0  0  0
 47117  1  0  0  0
 47118  1  0  0  0
 48 56  1  0  0  0
 48 65  1  0  0  0
 48119  1  0  0  0
 49 50  1  0  0  0
 49 53  1  0  0  0
 49 64  1  0  0  0
 49120  1  0  0  0
 50 51  1  0  0  0
 50121  1  0  0  0
 50122  1  0  0  0
 51 52  1  0  0  0
 51123  1  0  0  0
 51124  1  0  0  0
 52125  1  0  0  0
 52126  1  0  0  0
 53 54  1  0  0  0
 54 55  2  0  0  0
 54127  1  0  0  0
 55 57  1  0  0  0
 55128  1  0  0  0
 56 69  2  0  0  0
 57 58  2  0  0  0
 57129  1  0  0  0
 58130  1  0  0  0
 59 60  1  0  0  0
 59 61  1  0  0  0
 59 62  1  0  0  0
 60131  1  0  0  0
 60132  1  0  0  0
 60133  1  0  0  0
 61134  1  0  0  0
 61135  1  0  0  0
 61136  1  0  0  0
 62137  1  0  0  0
 62138  1  0  0  0
 62139  1  0  0  0
 63 65  1  0  0  0
 63140  1  0  0  0
 63141  1  0  0  0
 63142  1  0  0  0
 64143  1  0  0  0
 65144  1  0  0  0
 68 81  1  0  0  0
 71 73  2  0  0  0
 71 74  1  0  0  0
 71145  1  0  0  0
 72 74  2  0  0  0
 72 75  1  0  0  0
 72146  1  0  0  0
 73 76  1  0  0  0
 73 78  1  0  0  0
 74 82  1  0  0  0
 75 76  2  0  0  0
 75 83  1  0  0  0
 76 85  1  0  0  0
 77 79  1  0  0  0
 77 82  1  0  0  0
 77 84  2  0  0  0
 78147  1  0  0  0
 78148  1  0  0  0
 78149  1  0  0  0
 79 80  1  0  0  0
 79150  1  0  0  0
 79151  1  0  0  0
 80 81  1  0  0  0
 80152  1  0  0  0
 80153  1  0  0  0
 81154  1  0  0  0
 81155  1  0  0  0
 82156  1  0  0  0
 83157  1  0  0  0
M  ISO  4   1 100  68 101  81 101  83 100
M  END
> <chiral flag>
0

> <version>
0

> <s_m_source_file>
/data/baiqing/PycharmProjects/Reinvent-master-3.2/result/LINK_invent/BTK/process_docking_weight1_custom_product_contain_oxygen_bond_distance_aromatic_linkinvent_7_9_3/rearranged_h_0068.sdf

> <i_m_source_file_index>
50

> <r_mmod_Potential_Energy-OPLS-2005>
-68.702033996582

> <r_mmod_Stretch_Energy-OPLS-2005>
52.2814788818359

> <r_mmod_Bend_Energy-OPLS-2005>
126.781707763672

> <r_mmod_Torsional_Energy-OPLS-2005>
229.650802612305

> <r_mmod_Improper_Torsional_Energy-OPLS-2005>
6.00324535369873

> <r_mmod_Van_der_Waal_Energy-OPLS-2005>
155.357971191406

> <r_mmod_Electrostatic_Energy-OPLS-2005>
-432.570831298828

> <r_mmod_Solvation_Energy-OPLS-2005>
-240.076568603516

> <b_mmod_Minimization_Converged-OPLS-2005>
0

> <r_mmod_RMS_Derivative-OPLS-2005>
3.37545228004456

$$$$
50
                    3D
 Structure written by MMmdl.
162171  0  0  1  0            999 V2000
  -30.5527  -14.7350   20.4695 C   0  0  0  0  0  0
  -30.4453  -12.4512   19.4745 C   0  0  0  0  0  0
  -29.5172  -12.5253   18.2396 C   0  0  0  0  0  0
  -28.0395  -12.3441   18.6438 C   0  0  0  0  0  0
  -27.6440  -13.2247   19.8582 C   0  0  2  0  0  0
  -28.6825  -13.1104   20.9952 C   0  0  0  0  0  0
  -25.2490  -13.8187   20.5684 C   0  0  0  0  0  0
  -24.1767  -13.0445   20.9189 C   0  0  0  0  0  0
  -24.6350  -11.6918   20.8704 C   0  0  0  0  0  0
  -23.9019  -10.4297   21.0386 C   0  0  0  0  0  0
  -24.3573   -9.4224   21.9177 C   0  0  0  0  0  0
  -23.6262   -8.2253   22.0758 C   0  0  0  0  0  0
  -22.4240   -8.0286   21.3552 C   0  0  0  0  0  0
  -21.9859   -9.0247   20.4652 C   0  0  0  0  0  0
  -22.7186  -10.2121   20.3053 C   0  0  0  0  0  0
  -21.6852   -6.0717   22.5273 C   0  0  0  0  0  0
  -21.4024   -6.5615   23.8208 C   0  0  0  0  0  0
  -21.3668   -5.6768   24.9169 C   0  0  0  0  0  0
  -21.6041   -4.3032   24.7224 C   0  0  0  0  0  0
  -21.8816   -3.8133   23.4342 C   0  0  0  0  0  0
  -21.9198   -4.6945   22.3397 C   0  0  0  0  0  0
  -22.7792  -13.5254   21.1856 C   0  0  0  0  0  0
  -22.1661   -4.2128   21.0972 F   0  0  0  0  0  0
  -21.5630   -3.4516   25.7741 F   0  0  0  0  0  0
  -29.9924  -13.4796   20.4366 N   0  0  0  0  0  0
  -26.2912  -12.9376   20.3262 N   0  0  0  0  0  0
  -25.9267  -11.6520   20.5676 N   0  0  0  0  0  0
  -22.0405  -12.8287   22.0408 N   0  0  0  0  0  0
  -25.4181  -15.1918   20.4154 N   0  0  0  0  0  0
  -31.7135  -14.9108   20.0824 O   0  0  0  0  0  0
  -21.6637   -6.8859   21.4232 O   0  0  0  0  0  0
  -22.3505  -14.5571   20.6714 O   0  0  0  0  0  0
  -24.6327  -31.8590   23.1969 C   0  0  0  0  0  0
  -25.9155  -32.4785   23.8325 C   0  0  1  0  0  0
  -27.2108  -27.2737   20.1100 C   0  0  0  0  0  0
  -25.5954  -33.8579   24.2278 N   0  0  0  0  0  0
  -23.4263  -30.4807   21.5433 C   0  0  2  0  0  0
  -24.8657  -28.9254   20.1079 C   0  0  0  0  0  0
  -22.7518  -29.4621   22.4928 C   0  0  0  0  0  0
  -18.0302  -28.1413   22.8463 C   0  0  0  0  0  0
  -24.1485  -36.7294   23.2636 C   0  0  0  0  0  0
  -25.9703  -30.7692   21.3739 C   0  0  0  0  0  0
  -26.0358  -29.3912   20.7189 C   0  0  0  0  0  0
  -27.2068  -28.5731   20.7148 C   0  0  0  0  0  0
  -26.0141  -26.8644   19.4817 C   0  0  0  0  0  0
  -24.8586  -27.6700   19.4808 C   0  0  0  0  0  0
  -23.6406  -29.8161   20.1577 C   0  0  0  0  0  0
  -25.4108  -36.3091   24.0336 C   0  0  1  0  0  0
  -20.5906  -28.3721   23.1267 C   0  0  2  0  0  0
  -20.6797  -26.9438   22.5404 C   0  0  0  0  0  0
  -19.5769  -26.6394   21.5214 C   0  0  0  0  0  0
  -18.1943  -26.7955   22.1614 C   0  0  0  0  0  0
  -19.1552  -28.8880   23.2861 C   0  0  0  0  0  0
  -18.9468  -30.1477   23.8885 C   0  0  0  0  0  0
  -17.6465  -30.6594   24.0568 C   0  0  0  0  0  0
  -25.9058  -34.9460   23.5111 C   0  0  0  0  0  0
  -16.5358  -29.9094   23.6328 C   0  0  0  0  0  0
  -16.7285  -28.6525   23.0316 C   0  0  0  0  0  0
  -26.4484  -31.6608   25.0723 C   0  0  0  0  0  0
  -25.3676  -31.3777   26.1429 C   0  0  0  0  0  0
  -27.0332  -30.3034   24.6193 C   0  0  0  0  0  0
  -27.6061  -32.4326   25.7488 C   0  0  0  0  0  0
  -27.5587  -37.1807   24.8454 C   0  0  0  0  0  0
  -21.4227  -29.3064   22.3676 N   0  0  0  0  0  0
  -26.4291  -37.3787   23.9410 N   0  0  0  0  0  0
  -24.6963  -31.0559   22.0941 N   0  0  0  0  0  0
  -23.4227  -28.8162   23.3022 O   0  0  0  0  0  0
  -28.3352  -26.4272   20.1760 O   0  0  0  0  0  0
  -26.5607  -34.8938   22.4672 O   0  0  0  0  0  0
  -23.5477  -32.1401   23.7272 O   0  0  0  0  0  0
  -29.2670  -19.5462   21.4572 C   0  0  0  0  0  0
  -29.5326  -18.1527   21.6462 C   0  0  0  0  0  0
  -29.2427  -19.2463   19.1032 C   0  0  0  0  0  0
  -29.0623  -20.1751   20.1952 C   0  0  0  0  0  0
  -29.6802  -17.2363   20.5725 C   0  0  0  0  0  0
  -29.5554  -17.8355   19.2833 C   0  0  0  0  0  0
  -27.8736  -22.4693   19.3127 C   0  0  0  0  0  0
  -30.7206  -16.8107   17.4012 C   0  0  0  0  0  0
  -29.2872  -22.7222   20.8096 C   0  0  0  0  0  0
  -28.1381  -23.6887   20.3015 C   0  0  2  0  0  0
  -29.0488  -19.7849   17.6865 C   0  0  0  0  0  0
  -26.9037  -23.8655   21.1967 C   0  0  0  0  0  0
  -28.4044  -25.0780   19.5309 C   0  0  0  0  0  0
  -28.6301  -21.6013   20.1184 N   0  0  0  0  0  0
  -29.6346  -16.9618   18.1705 N   0  0  0  0  0  0
  -29.7149  -15.7745   20.8308 N   0  0  0  0  0  0
  -27.2695  -22.2931   18.2738 O   0  0  0  0  0  0
  -31.6864  -17.5791   17.4088 O   0  0  0  0  0  0
  -31.4833  -12.6017   19.1764 H   0  0  0  0  0  0
  -30.4058  -11.4634   19.9329 H   0  0  0  0  0  0
  -29.8019  -11.7706   17.5046 H   0  0  0  0  0  0
  -29.6425  -13.4891   17.7473 H   0  0  0  0  0  0
  -27.8890  -11.2931   18.8897 H   0  0  0  0  0  0
  -27.3929  -12.5597   17.7929 H   0  0  0  0  0  0
  -27.6483  -14.2525   19.4979 H   0  0  0  0  0  0
  -28.7089  -12.0927   21.3890 H   0  0  0  0  0  0
  -28.4064  -13.7450   21.8384 H   0  0  0  0  0  0
  -25.2702   -9.5706   22.4767 H   0  0  0  0  0  0
  -23.9974   -7.4641   22.7478 H   0  0  0  0  0  0
  -21.0792   -8.8762   19.8956 H   0  0  0  0  0  0
  -22.3642  -10.9659   19.6173 H   0  0  0  0  0  0
  -21.2016   -7.6117   23.9704 H   0  0  0  0  0  0
  -21.1499   -6.0496   25.9067 H   0  0  0  0  0  0
  -22.0590   -2.7591   23.2853 H   0  0  0  0  0  0
  -22.3971  -11.9958   22.4844 H   0  0  0  0  0  0
  -21.1033  -13.1370   22.2587 H   0  0  0  0  0  0
  -24.6433  -15.8385   20.5234 H   0  0  0  0  0  0
  -26.2699  -15.6433   20.1101 H   0  0  0  0  0  0
  -26.7220  -32.5434   23.1067 H   0  0  0  0  0  0
  -25.0136  -33.9704   25.0443 H   0  0  0  0  0  0
  -22.7224  -31.3024   21.3990 H   0  0  0  0  0  0
  -23.3772  -35.9600   23.3274 H   0  0  0  0  0  0
  -24.3576  -36.8932   22.2049 H   0  0  0  0  0  0
  -23.7195  -37.6482   23.6657 H   0  0  0  0  0  0
  -26.1061  -31.5216   20.5959 H   0  0  0  0  0  0
  -26.8533  -30.8264   21.9995 H   0  0  0  0  0  0
  -28.1027  -28.9193   21.2078 H   0  0  0  0  0  0
  -25.9292  -25.8996   19.0053 H   0  0  0  0  0  0
  -23.9595  -27.3102   18.9983 H   0  0  0  0  0  0
  -23.7690  -30.5921   19.4024 H   0  0  0  0  0  0
  -22.7572  -29.2538   19.8516 H   0  0  0  0  0  0
  -25.1280  -36.1959   25.0829 H   0  0  0  0  0  0
  -20.9971  -28.3304   24.1399 H   0  0  0  0  0  0
  -20.5713  -26.2332   23.3610 H   0  0  0  0  0  0
  -21.6668  -26.7477   22.1189 H   0  0  0  0  0  0
  -19.6927  -25.6299   21.1252 H   0  0  0  0  0  0
  -19.6697  -27.3193   20.6727 H   0  0  0  0  0  0
  -17.4210  -26.6683   21.4019 H   0  0  0  0  0  0
  -18.0333  -26.0120   22.9028 H   0  0  0  0  0  0
  -19.7941  -30.7300   24.2244 H   0  0  0  0  0  0
  -17.5014  -31.6260   24.5190 H   0  0  0  0  0  0
  -15.5356  -30.2978   23.7666 H   0  0  0  0  0  0
  -15.8694  -28.0851   22.7008 H   0  0  0  0  0  0
  -24.5845  -30.7146   25.7744 H   0  0  0  0  0  0
  -24.8862  -32.2953   26.4832 H   0  0  0  0  0  0
  -25.7947  -30.8956   27.0229 H   0  0  0  0  0  0
  -26.2916  -29.6800   24.1194 H   0  0  0  0  0  0
  -27.4009  -29.7296   25.4711 H   0  0  0  0  0  0
  -27.8784  -30.4351   23.9436 H   0  0  0  0  0  0
  -27.2713  -33.3645   26.2061 H   0  0  0  0  0  0
  -28.3861  -32.6863   25.0298 H   0  0  0  0  0  0
  -28.0732  -31.8446   26.5398 H   0  0  0  0  0  0
  -28.2597  -38.0118   24.7556 H   0  0  0  0  0  0
  -28.1103  -36.2668   24.6216 H   0  0  0  0  0  0
  -27.2325  -37.1370   25.8862 H   0  0  0  0  0  0
  -20.9437  -29.8801   21.6881 H   0  0  0  0  0  0
  -26.0197  -38.2875   24.1408 H   0  0  0  0  0  0
  -29.1412  -20.1481   22.3453 H   0  0  0  0  0  0
  -29.5800  -17.7827   22.6598 H   0  0  0  0  0  0
  -30.6269  -15.9338   16.7427 H   0  0  0  0  0  0
  -29.3310  -22.6104   21.8931 H   0  0  0  0  0  0
  -30.2736  -22.9485   20.3942 H   0  0  0  0  0  0
  -27.9925  -19.7641   17.4148 H   0  0  0  0  0  0
  -29.5951  -19.2346   16.9249 H   0  0  0  0  0  0
  -29.4108  -20.8083   17.6084 H   0  0  0  0  0  0
  -26.7267  -22.9873   21.8194 H   0  0  0  0  0  0
  -26.0016  -24.0216   20.6032 H   0  0  0  0  0  0
  -27.0060  -24.7211   21.8647 H   0  0  0  0  0  0
  -27.8266  -25.0942   18.6081 H   0  0  0  0  0  0
  -29.4273  -25.0347   19.1566 H   0  0  0  0  0  0
  -28.9309  -16.2382   18.1003 H   0  0  0  0  0  0
  -28.8857  -15.4347   21.2921 H   0  0  0  0  0  0
  1 25  1  0  0  0
  1 30  2  0  0  0
  1 86  1  0  0  0
  2  3  1  0  0  0
  2 25  1  0  0  0
  2 89  1  0  0  0
  2 90  1  0  0  0
  3  4  1  0  0  0
  3 91  1  0  0  0
  3 92  1  0  0  0
  4  5  1  0  0  0
  4 93  1  0  0  0
  4 94  1  0  0  0
  5  6  1  0  0  0
  5 26  1  0  0  0
  5 95  1  0  0  0
  6 25  1  0  0  0
  6 96  1  0  0  0
  6 97  1  0  0  0
  7  8  2  0  0  0
  7 26  1  0  0  0
  7 29  1  0  0  0
  8  9  1  0  0  0
  8 22  1  0  0  0
  9 10  1  0  0  0
  9 27  2  0  0  0
 10 11  2  0  0  0
 10 15  1  0  0  0
 11 12  1  0  0  0
 11 98  1  0  0  0
 12 13  2  0  0  0
 12 99  1  0  0  0
 13 14  1  0  0  0
 13 31  1  0  0  0
 14 15  2  0  0  0
 14100  1  0  0  0
 15101  1  0  0  0
 16 17  2  0  0  0
 16 21  1  0  0  0
 16 31  1  0  0  0
 17 18  1  0  0  0
 17102  1  0  0  0
 18 19  2  0  0  0
 18103  1  0  0  0
 19 20  1  0  0  0
 19 24  1  0  0  0
 20 21  2  0  0  0
 20104  1  0  0  0
 21 23  1  0  0  0
 22 28  1  0  0  0
 22 32  2  0  0  0
 26 27  1  0  0  0
 28105  1  0  0  0
 28106  1  0  0  0
 29107  1  0  0  0
 29108  1  0  0  0
 33 34  1  0  0  0
 33 66  1  0  0  0
 33 70  2  0  0  0
 34 36  1  0  0  0
 34 59  1  0  0  0
 34109  1  0  0  0
 35 44  2  0  0  0
 35 45  1  0  0  0
 35 68  1  0  0  0
 36 56  1  0  0  0
 36110  1  0  0  0
 37 39  1  0  0  0
 37 47  1  0  0  0
 37 66  1  0  0  0
 37111  1  0  0  0
 38 43  2  0  0  0
 38 46  1  0  0  0
 38 47  1  0  0  0
 39 64  1  0  0  0
 39 67  2  0  0  0
 40 52  1  0  0  0
 40 53  2  0  0  0
 40 58  1  0  0  0
 41112  1  0  0  0
 41113  1  0  0  0
 41114  1  0  0  0
 41 48  1  0  0  0
 42 43  1  0  0  0
 42 66  1  0  0  0
 42115  1  0  0  0
 42116  1  0  0  0
 43 44  1  0  0  0
 44117  1  0  0  0
 45 46  2  0  0  0
 45118  1  0  0  0
 46119  1  0  0  0
 47120  1  0  0  0
 47121  1  0  0  0
 48 56  1  0  0  0
 48 65  1  0  0  0
 48122  1  0  0  0
 49 50  1  0  0  0
 49 53  1  0  0  0
 49 64  1  0  0  0
 49123  1  0  0  0
 50 51  1  0  0  0
 50124  1  0  0  0
 50125  1  0  0  0
 51 52  1  0  0  0
 51126  1  0  0  0
 51127  1  0  0  0
 52128  1  0  0  0
 52129  1  0  0  0
 53 54  1  0  0  0
 54 55  2  0  0  0
 54130  1  0  0  0
 55 57  1  0  0  0
 55131  1  0  0  0
 56 69  2  0  0  0
 57 58  2  0  0  0
 57132  1  0  0  0
 58133  1  0  0  0
 59 60  1  0  0  0
 59 61  1  0  0  0
 59 62  1  0  0  0
 60134  1  0  0  0
 60135  1  0  0  0
 60136  1  0  0  0
 61137  1  0  0  0
 61138  1  0  0  0
 61139  1  0  0  0
 62140  1  0  0  0
 62141  1  0  0  0
 62142  1  0  0  0
 63 65  1  0  0  0
 63143  1  0  0  0
 63144  1  0  0  0
 63145  1  0  0  0
 64146  1  0  0  0
 65147  1  0  0  0
 68 83  1  0  0  0
 71 72  2  0  0  0
 71 74  1  0  0  0
 71148  1  0  0  0
 72 75  1  0  0  0
 72149  1  0  0  0
 73 74  2  0  0  0
 73 76  1  0  0  0
 73 81  1  0  0  0
 74 84  1  0  0  0
 75 76  2  0  0  0
 75 86  1  0  0  0
 76 85  1  0  0  0
 77 80  1  0  0  0
 77 84  1  0  0  0
 77 87  2  0  0  0
 78 85  1  0  0  0
 78 88  2  0  0  0
 78150  1  0  0  0
 79 80  1  0  0  0
 79 84  1  0  0  0
 79151  1  0  0  0
 79152  1  0  0  0
 80 82  1  0  0  0
 80 83  1  0  0  0
 81153  1  0  0  0
 81154  1  0  0  0
 81155  1  0  0  0
 82156  1  0  0  0
 82157  1  0  0  0
 82158  1  0  0  0
 83159  1  0  0  0
 83160  1  0  0  0
 85161  1  0  0  0
 86162  1  0  0  0
M  ISO  4   1 100  68 101  83 101  86 100
M  END
> <chiral flag>
0

> <version>
0

> <s_m_source_file>
/data/baiqing/PycharmProjects/Reinvent-master-3.2/result/LINK_invent/BTK/process_docking_weight1_custom_product_contain_oxygen_bond_distance_aromatic_linkinvent_7_9_3/rearranged_h_0068.sdf

> <i_m_source_file_index>
51

> <r_mmod_Potential_Energy-OPLS-2005>
94.0752258300781

> <r_mmod_Stretch_Energy-OPLS-2005>
110.123199462891

> <r_mmod_Bend_Energy-OPLS-2005>
207.486114501953

> <r_mmod_Torsional_Energy-OPLS-2005>
304.102172851562

> <r_mmod_Improper_Torsional_Energy-OPLS-2005>
6.62426805496216

> <r_mmod_Van_der_Waal_Energy-OPLS-2005>
135.153686523438

> <r_mmod_Electrostatic_Energy-OPLS-2005>
-492.204193115234

> <r_mmod_Solvation_Energy-OPLS-2005>
-256.315856933594

> <b_mmod_Minimization_Converged-OPLS-2005>
0

> <r_mmod_RMS_Derivative-OPLS-2005>
3.42181706428528

$$$$
51
                    3D
 Structure written by MMmdl.
163171  0  0  1  0            999 V2000
  -30.5972  -14.7296   20.4823 C   0  0  0  0  0  0
  -30.4432  -12.4554   19.4496 C   0  0  0  0  0  0
  -29.5112  -12.5009   18.2174 C   0  0  0  0  0  0
  -28.0362  -12.3210   18.6345 C   0  0  0  0  0  0
  -27.6394  -13.2222   19.8352 C   0  0  2  0  0  0
  -28.6859  -13.1475   20.9660 C   0  0  0  0  0  0
  -25.2522  -13.8158   20.5680 C   0  0  0  0  0  0
  -24.1829  -13.0433   20.9203 C   0  0  0  0  0  0
  -24.6395  -11.6899   20.8741 C   0  0  0  0  0  0
  -23.9063  -10.4294   21.0412 C   0  0  0  0  0  0
  -24.3629   -9.4203   21.9180 C   0  0  0  0  0  0
  -23.6301   -8.2240   22.0745 C   0  0  0  0  0  0
  -22.4283   -8.0281   21.3533 C   0  0  0  0  0  0
  -21.9923   -9.0249   20.4632 C   0  0  0  0  0  0
  -22.7248  -10.2127   20.3039 C   0  0  0  0  0  0
  -21.6850   -6.0749   22.5294 C   0  0  0  0  0  0
  -21.4007   -6.5643   23.8229 C   0  0  0  0  0  0
  -21.3655   -5.6788   24.9184 C   0  0  0  0  0  0
  -21.6047   -4.3054   24.7231 C   0  0  0  0  0  0
  -21.8821   -3.8156   23.4350 C   0  0  0  0  0  0
  -21.9188   -4.6976   22.3414 C   0  0  0  0  0  0
  -22.7847  -13.5211   21.1867 C   0  0  0  0  0  0
  -22.1666   -4.2169   21.0987 F   0  0  0  0  0  0
  -21.5629   -3.4530   25.7738 F   0  0  0  0  0  0
  -29.9828  -13.5057   20.3811 N   0  0  0  0  0  0
  -26.2928  -12.9355   20.3187 N   0  0  0  0  0  0
  -25.9313  -11.6503   20.5694 N   0  0  0  0  0  0
  -22.0474  -12.8220   22.0414 N   0  0  0  0  0  0
  -25.4169  -15.1901   20.4099 N   0  0  0  0  0  0
  -31.8049  -14.8419   20.2536 O   0  0  0  0  0  0
  -21.6629   -6.8897   21.4259 O   0  0  0  0  0  0
  -22.3532  -14.5510   20.6684 O   0  0  0  0  0  0
  -24.6332  -31.8554   23.1847 C   0  0  0  0  0  0
  -25.9147  -32.4771   23.8220 C   0  0  1  0  0  0
  -27.2328  -27.2436   20.1680 C   0  0  0  0  0  0
  -25.5922  -33.8566   24.2181 N   0  0  0  0  0  0
  -23.4336  -30.4699   21.5295 C   0  0  2  0  0  0
  -24.8873  -28.9010   20.1139 C   0  0  0  0  0  0
  -22.7528  -29.4606   22.4859 C   0  0  0  0  0  0
  -18.0310  -28.1428   22.8482 C   0  0  0  0  0  0
  -24.1508  -36.7277   23.2633 C   0  0  0  0  0  0
  -25.9769  -30.7611   21.3710 C   0  0  0  0  0  0
  -26.0528  -29.3766   20.7282 C   0  0  0  0  0  0
  -27.2297  -28.5620   20.7398 C   0  0  0  0  0  0
  -26.0482  -26.8291   19.5250 C   0  0  0  0  0  0
  -24.8910  -27.6379   19.4945 C   0  0  0  0  0  0
  -23.6585  -29.7915   20.1511 C   0  0  0  0  0  0
  -25.4132  -36.3073   24.0322 C   0  0  1  0  0  0
  -20.5910  -28.3764   23.1261 C   0  0  2  0  0  0
  -20.6809  -26.9478   22.5410 C   0  0  0  0  0  0
  -19.5778  -26.6425   21.5231 C   0  0  0  0  0  0
  -18.1957  -26.7966   22.1637 C   0  0  0  0  0  0
  -19.1562  -28.8902   23.2871 C   0  0  0  0  0  0
  -18.9485  -30.1492   23.8910 C   0  0  0  0  0  0
  -17.6484  -30.6616   24.0587 C   0  0  0  0  0  0
  -25.9073  -34.9469   23.5064 C   0  0  0  0  0  0
  -16.5375  -29.9123   23.6343 C   0  0  0  0  0  0
  -16.7296  -28.6547   23.0344 C   0  0  0  0  0  0
  -26.4494  -31.6580   25.0617 C   0  0  0  0  0  0
  -25.3659  -31.3726   26.1289 C   0  0  0  0  0  0
  -27.0352  -30.2999   24.6093 C   0  0  0  0  0  0
  -27.6062  -32.4297   25.7383 C   0  0  0  0  0  0
  -27.5590  -37.1785   24.8466 C   0  0  0  0  0  0
  -21.4228  -29.3086   22.3631 N   0  0  0  0  0  0
  -26.4304  -37.3777   23.9400 N   0  0  0  0  0  0
  -24.7000  -31.0480   22.0844 N   0  0  0  0  0  0
  -23.4229  -28.8178   23.2989 O   0  0  0  0  0  0
  -28.3405  -26.3662   20.1820 O   0  0  0  0  0  0
  -26.5679  -34.8965   22.4657 O   0  0  0  0  0  0
  -23.5478  -32.1399   23.7113 O   0  0  0  0  0  0
  -30.2307  -19.7818   22.2984 C   0  0  0  0  0  0
  -30.5908  -17.3499   22.2884 C   0  0  0  0  0  0
  -29.5165  -18.4463   20.3981 C   0  0  0  0  0  0
  -30.6972  -18.6030   22.9371 C   0  0  0  0  0  0
  -29.6284  -19.7613   21.0152 C   0  0  0  0  0  0
  -29.9980  -17.2174   21.0166 C   0  0  0  0  0  0
  -28.8218  -22.2697   20.9071 C   0  0  0  0  0  0
  -31.9215  -19.9322   24.8277 C   0  0  0  0  0  0
  -27.6393  -23.3347   18.9088 C   0  0  0  0  0  0
  -30.0547  -23.8747   19.3725 C   0  0  0  0  0  0
  -28.2168  -24.9851   20.7803 C   0  0  0  0  0  0
  -31.2395  -18.6307   24.3703 C   0  0  0  0  0  0
  -28.6764  -23.6137   20.0148 C   0  0  0  0  0  0
  -29.2280  -21.0478   20.3689 N   0  0  0  0  0  0
  -29.7745  -15.8467   20.5107 N   0  0  0  0  0  0
  -28.5247  -22.3500   22.1015 O   0  0  0  0  0  0
  -32.1425  -17.6610   24.5265 F   0  0  0  0  0  0
  -30.2167  -18.3773   25.1879 F   0  0  0  0  0  0
  -31.4776  -12.6127   19.1393 H   0  0  0  0  0  0
  -30.4105  -11.4740   19.9268 H   0  0  0  0  0  0
  -29.7980  -11.7315   17.4982 H   0  0  0  0  0  0
  -29.6317  -13.4555   17.6997 H   0  0  0  0  0  0
  -27.8977  -11.2727   18.9001 H   0  0  0  0  0  0
  -27.3757  -12.5041   17.7857 H   0  0  0  0  0  0
  -27.6296  -14.2423   19.4511 H   0  0  0  0  0  0
  -28.7244  -12.1461   21.3961 H   0  0  0  0  0  0
  -28.4184  -13.8273   21.7777 H   0  0  0  0  0  0
  -25.2784   -9.5685   22.4736 H   0  0  0  0  0  0
  -24.0026   -7.4632   22.7457 H   0  0  0  0  0  0
  -21.0861   -8.8754   19.8941 H   0  0  0  0  0  0
  -22.3710  -10.9656   19.6138 H   0  0  0  0  0  0
  -21.1987   -7.6148   23.9747 H   0  0  0  0  0  0
  -21.1478   -6.0508   25.9092 H   0  0  0  0  0  0
  -22.0598   -2.7618   23.2837 H   0  0  0  0  0  0
  -22.4075  -11.9899   22.4866 H   0  0  0  0  0  0
  -21.1051  -13.1218   22.2528 H   0  0  0  0  0  0
  -24.6377  -15.8307   20.5180 H   0  0  0  0  0  0
  -26.2515  -15.6453   20.0666 H   0  0  0  0  0  0
  -26.7218  -32.5452   23.0960 H   0  0  0  0  0  0
  -25.0035  -33.9685   25.0309 H   0  0  0  0  0  0
  -22.7340  -31.2941   21.3744 H   0  0  0  0  0  0
  -23.3789  -35.9591   23.3304 H   0  0  0  0  0  0
  -24.3559  -36.8905   22.2036 H   0  0  0  0  0  0
  -23.7287  -37.6484   23.6668 H   0  0  0  0  0  0
  -26.1212  -31.5096   20.5905 H   0  0  0  0  0  0
  -26.8506  -30.8162   22.0086 H   0  0  0  0  0  0
  -28.1231  -28.9188   21.2323 H   0  0  0  0  0  0
  -26.0154  -25.8562   19.0525 H   0  0  0  0  0  0
  -23.9996  -27.2730   19.0009 H   0  0  0  0  0  0
  -23.7896  -30.5633   19.3915 H   0  0  0  0  0  0
  -22.7788  -29.2220   19.8450 H   0  0  0  0  0  0
  -25.1329  -36.1885   25.0816 H   0  0  0  0  0  0
  -21.0007  -28.3363   24.1385 H   0  0  0  0  0  0
  -20.5756  -26.2372   23.3618 H   0  0  0  0  0  0
  -21.6672  -26.7537   22.1178 H   0  0  0  0  0  0
  -19.6943  -25.6341   21.1260 H   0  0  0  0  0  0
  -19.6702  -27.3256   20.6774 H   0  0  0  0  0  0
  -17.4224  -26.6740   21.4034 H   0  0  0  0  0  0
  -18.0343  -26.0106   22.9030 H   0  0  0  0  0  0
  -19.7961  -30.7297   24.2298 H   0  0  0  0  0  0
  -17.5048  -31.6296   24.5207 H   0  0  0  0  0  0
  -15.5378  -30.3038   23.7652 H   0  0  0  0  0  0
  -15.8702  -28.0881   22.7032 H   0  0  0  0  0  0
  -24.5853  -30.7090   25.7530 H   0  0  0  0  0  0
  -24.8802  -32.2890   26.4637 H   0  0  0  0  0  0
  -25.7872  -30.8893   27.0112 H   0  0  0  0  0  0
  -26.2928  -29.6695   24.1167 H   0  0  0  0  0  0
  -27.4138  -29.7292   25.4584 H   0  0  0  0  0  0
  -27.8762  -30.4280   23.9274 H   0  0  0  0  0  0
  -27.2719  -33.3628   26.1909 H   0  0  0  0  0  0
  -28.3861  -32.6794   25.0182 H   0  0  0  0  0  0
  -28.0734  -31.8434   26.5296 H   0  0  0  0  0  0
  -28.2618  -38.0074   24.7517 H   0  0  0  0  0  0
  -28.1092  -36.2611   24.6297 H   0  0  0  0  0  0
  -27.2290  -37.1424   25.8866 H   0  0  0  0  0  0
  -20.9433  -29.8765   21.6784 H   0  0  0  0  0  0
  -26.0194  -38.2873   24.1348 H   0  0  0  0  0  0
  -30.3331  -20.7234   22.8124 H   0  0  0  0  0  0
  -30.9166  -16.4589   22.8082 H   0  0  0  0  0  0
  -29.0389  -18.3717   19.4324 H   0  0  0  0  0  0
  -32.7808  -20.1693   24.2030 H   0  0  0  0  0  0
  -32.2887  -19.8292   25.8499 H   0  0  0  0  0  0
  -31.2455  -20.7848   24.8267 H   0  0  0  0  0  0
  -27.8978  -22.4575   18.3145 H   0  0  0  0  0  0
  -27.5632  -24.1772   18.2214 H   0  0  0  0  0  0
  -26.6452  -23.1685   19.3282 H   0  0  0  0  0  0
  -30.4185  -23.0118   18.8127 H   0  0  0  0  0  0
  -30.8044  -24.1263   20.1253 H   0  0  0  0  0  0
  -30.0071  -24.7094   18.6738 H   0  0  0  0  0  0
  -27.2004  -24.8454   21.1537 H   0  0  0  0  0  0
  -28.8185  -25.0389   21.6898 H   0  0  0  0  0  0
  -29.3304  -21.0647   19.3629 H   0  0  0  0  0  0
  -28.8124  -15.6376   20.2902 H   0  0  0  0  0  0
  1 25  1  0  0  0
  1 30  2  0  0  0
  1 85  1  0  0  0
  2  3  1  0  0  0
  2 25  1  0  0  0
  2 89  1  0  0  0
  2 90  1  0  0  0
  3  4  1  0  0  0
  3 91  1  0  0  0
  3 92  1  0  0  0
  4  5  1  0  0  0
  4 93  1  0  0  0
  4 94  1  0  0  0
  5  6  1  0  0  0
  5 26  1  0  0  0
  5 95  1  0  0  0
  6 25  1  0  0  0
  6 96  1  0  0  0
  6 97  1  0  0  0
  7  8  2  0  0  0
  7 26  1  0  0  0
  7 29  1  0  0  0
  8  9  1  0  0  0
  8 22  1  0  0  0
  9 10  1  0  0  0
  9 27  2  0  0  0
 10 11  2  0  0  0
 10 15  1  0  0  0
 11 12  1  0  0  0
 11 98  1  0  0  0
 12 13  2  0  0  0
 12 99  1  0  0  0
 13 14  1  0  0  0
 13 31  1  0  0  0
 14 15  2  0  0  0
 14100  1  0  0  0
 15101  1  0  0  0
 16 17  2  0  0  0
 16 21  1  0  0  0
 16 31  1  0  0  0
 17 18  1  0  0  0
 17102  1  0  0  0
 18 19  2  0  0  0
 18103  1  0  0  0
 19 20  1  0  0  0
 19 24  1  0  0  0
 20 21  2  0  0  0
 20104  1  0  0  0
 21 23  1  0  0  0
 22 28  1  0  0  0
 22 32  2  0  0  0
 26 27  1  0  0  0
 28105  1  0  0  0
 28106  1  0  0  0
 29107  1  0  0  0
 29108  1  0  0  0
 33 34  1  0  0  0
 33 66  1  0  0  0
 33 70  2  0  0  0
 34 36  1  0  0  0
 34 59  1  0  0  0
 34109  1  0  0  0
 35 44  2  0  0  0
 35 45  1  0  0  0
 35 68  1  0  0  0
 36 56  1  0  0  0
 36110  1  0  0  0
 37 39  1  0  0  0
 37 47  1  0  0  0
 37 66  1  0  0  0
 37111  1  0  0  0
 38 43  2  0  0  0
 38 46  1  0  0  0
 38 47  1  0  0  0
 39 64  1  0  0  0
 39 67  2  0  0  0
 40 52  1  0  0  0
 40 53  2  0  0  0
 40 58  1  0  0  0
 41112  1  0  0  0
 41113  1  0  0  0
 41114  1  0  0  0
 41 48  1  0  0  0
 42 43  1  0  0  0
 42 66  1  0  0  0
 42115  1  0  0  0
 42116  1  0  0  0
 43 44  1  0  0  0
 44117  1  0  0  0
 45 46  2  0  0  0
 45118  1  0  0  0
 46119  1  0  0  0
 47120  1  0  0  0
 47121  1  0  0  0
 48 56  1  0  0  0
 48 65  1  0  0  0
 48122  1  0  0  0
 49 50  1  0  0  0
 49 53  1  0  0  0
 49 64  1  0  0  0
 49123  1  0  0  0
 50 51  1  0  0  0
 50124  1  0  0  0
 50125  1  0  0  0
 51 52  1  0  0  0
 51126  1  0  0  0
 51127  1  0  0  0
 52128  1  0  0  0
 52129  1  0  0  0
 53 54  1  0  0  0
 54 55  2  0  0  0
 54130  1  0  0  0
 55 57  1  0  0  0
 55131  1  0  0  0
 56 69  2  0  0  0
 57 58  2  0  0  0
 57132  1  0  0  0
 58133  1  0  0  0
 59 60  1  0  0  0
 59 61  1  0  0  0
 59 62  1  0  0  0
 60134  1  0  0  0
 60135  1  0  0  0
 60136  1  0  0  0
 61137  1  0  0  0
 61138  1  0  0  0
 61139  1  0  0  0
 62140  1  0  0  0
 62141  1  0  0  0
 62142  1  0  0  0
 63 65  1  0  0  0
 63143  1  0  0  0
 63144  1  0  0  0
 63145  1  0  0  0
 64146  1  0  0  0
 65147  1  0  0  0
 68 81  1  0  0  0
 71 74  2  0  0  0
 71 75  1  0  0  0
 71148  1  0  0  0
 72 74  1  0  0  0
 72 76  2  0  0  0
 72149  1  0  0  0
 73 75  2  0  0  0
 73 76  1  0  0  0
 73150  1  0  0  0
 74 82  1  0  0  0
 75 84  1  0  0  0
 76 85  1  0  0  0
 77 83  1  0  0  0
 77 84  1  0  0  0
 77 86  2  0  0  0
 78151  1  0  0  0
 78152  1  0  0  0
 78153  1  0  0  0
 78 82  1  0  0  0
 79154  1  0  0  0
 79155  1  0  0  0
 79156  1  0  0  0
 79 83  1  0  0  0
 80 83  1  0  0  0
 80157  1  0  0  0
 80158  1  0  0  0
 80159  1  0  0  0
 81 83  1  0  0  0
 81160  1  0  0  0
 81161  1  0  0  0
 82 87  1  0  0  0
 82 88  1  0  0  0
 84162  1  0  0  0
 85163  1  0  0  0
M  ISO  4   1 100  68 101  81 101  85 100
M  END
> <chiral flag>
0

> <version>
0

> <s_m_source_file>
/data/baiqing/PycharmProjects/Reinvent-master-3.2/result/LINK_invent/BTK/process_docking_weight1_custom_product_contain_oxygen_bond_distance_aromatic_linkinvent_7_9_3/rearranged_h_0068.sdf

> <i_m_source_file_index>
52

> <r_mmod_Potential_Energy-OPLS-2005>
181.490844726562

> <r_mmod_Stretch_Energy-OPLS-2005>
130.596557617188

> <r_mmod_Bend_Energy-OPLS-2005>
161.718063354492

> <r_mmod_Torsional_Energy-OPLS-2005>
297.671142578125

> <r_mmod_Improper_Torsional_Energy-OPLS-2005>
9.7252082824707

> <r_mmod_Van_der_Waal_Energy-OPLS-2005>
134.6220703125

> <r_mmod_Electrostatic_Energy-OPLS-2005>
-418.093322753906

> <r_mmod_Solvation_Energy-OPLS-2005>
-223.878616333008

> <b_mmod_Minimization_Converged-OPLS-2005>
0

> <r_mmod_RMS_Derivative-OPLS-2005>
3.80414128303528

$$$$
52
                    3D
 Structure written by MMmdl.
151159  0  0  1  0            999 V2000
  -30.6182  -14.6508   20.4889 C   0  0  0  0  0  0
  -30.4343  -12.3957   19.4577 C   0  0  0  0  0  0
  -29.5097  -12.5117   18.2259 C   0  0  0  0  0  0
  -28.0316  -12.3464   18.6328 C   0  0  0  0  0  0
  -27.6501  -13.2187   19.8584 C   0  0  2  0  0  0
  -28.6913  -13.0857   20.9919 C   0  0  0  0  0  0
  -25.2542  -13.8181   20.5666 C   0  0  0  0  0  0
  -24.1812  -13.0457   20.9192 C   0  0  0  0  0  0
  -24.6371  -11.6919   20.8731 C   0  0  0  0  0  0
  -23.9039  -10.4298   21.0406 C   0  0  0  0  0  0
  -24.3594   -9.4215   21.9183 C   0  0  0  0  0  0
  -23.6271   -8.2250   22.0745 C   0  0  0  0  0  0
  -22.4261   -8.0281   21.3533 C   0  0  0  0  0  0
  -21.9897   -9.0255   20.4649 C   0  0  0  0  0  0
  -22.7219  -10.2137   20.3050 C   0  0  0  0  0  0
  -21.6860   -6.0729   22.5281 C   0  0  0  0  0  0
  -21.4019   -6.5629   23.8210 C   0  0  0  0  0  0
  -21.3666   -5.6777   24.9175 C   0  0  0  0  0  0
  -21.6047   -4.3043   24.7227 C   0  0  0  0  0  0
  -21.8817   -3.8136   23.4346 C   0  0  0  0  0  0
  -21.9196   -4.6954   22.3409 C   0  0  0  0  0  0
  -22.7839  -13.5262   21.1865 C   0  0  0  0  0  0
  -22.1667   -4.2147   21.0981 F   0  0  0  0  0  0
  -21.5637   -3.4521   25.7736 F   0  0  0  0  0  0
  -30.0088  -13.4237   20.4293 N   0  0  0  0  0  0
  -26.2954  -12.9361   20.3257 N   0  0  0  0  0  0
  -25.9298  -11.6510   20.5711 N   0  0  0  0  0  0
  -22.0461  -12.8256   22.0412 N   0  0  0  0  0  0
  -25.4244  -15.1898   20.4087 N   0  0  0  0  0  0
  -31.7887  -14.7985   20.1222 O   0  0  0  0  0  0
  -21.6635   -6.8873   21.4237 O   0  0  0  0  0  0
  -22.3540  -14.5581   20.6729 O   0  0  0  0  0  0
  -24.6265  -31.8612   23.2049 C   0  0  0  0  0  0
  -25.9115  -32.4783   23.8371 C   0  0  1  0  0  0
  -27.2165  -27.3169   20.1104 C   0  0  0  0  0  0
  -25.5942  -33.8583   24.2311 N   0  0  0  0  0  0
  -23.4198  -30.4883   21.5465 C   0  0  2  0  0  0
  -24.8649  -28.9471   20.1101 C   0  0  0  0  0  0
  -22.7481  -29.4638   22.4917 C   0  0  0  0  0  0
  -18.0294  -28.1402   22.8482 C   0  0  0  0  0  0
  -24.1486  -36.7294   23.2634 C   0  0  0  0  0  0
  -25.9617  -30.7891   21.3788 C   0  0  0  0  0  0
  -26.0343  -29.4159   20.7224 C   0  0  0  0  0  0
  -27.2132  -28.6106   20.7180 C   0  0  0  0  0  0
  -26.0288  -26.9151   19.4564 C   0  0  0  0  0  0
  -24.8642  -27.7017   19.4685 C   0  0  0  0  0  0
  -23.6357  -29.8299   20.1593 C   0  0  0  0  0  0
  -25.4107  -36.3086   24.0333 C   0  0  1  0  0  0
  -20.5895  -28.3704   23.1280 C   0  0  2  0  0  0
  -20.6783  -26.9428   22.5400 C   0  0  0  0  0  0
  -19.5755  -26.6398   21.5210 C   0  0  0  0  0  0
  -18.1942  -26.7940   22.1635 C   0  0  0  0  0  0
  -19.1544  -28.8869   23.2884 C   0  0  0  0  0  0
  -18.9462  -30.1468   23.8909 C   0  0  0  0  0  0
  -17.6458  -30.6592   24.0578 C   0  0  0  0  0  0
  -25.9045  -34.9453   23.5116 C   0  0  0  0  0  0
  -16.5355  -29.9096   23.6322 C   0  0  0  0  0  0
  -16.7281  -28.6522   23.0333 C   0  0  0  0  0  0
  -26.4503  -31.6577   25.0730 C   0  0  0  0  0  0
  -25.3742  -31.3713   26.1463 C   0  0  0  0  0  0
  -27.0335  -30.3000   24.6176 C   0  0  0  0  0  0
  -27.6078  -32.4292   25.7498 C   0  0  0  0  0  0
  -27.5580  -37.1804   24.8466 C   0  0  0  0  0  0
  -21.4193  -29.3060   22.3665 N   0  0  0  0  0  0
  -26.4292  -37.3775   23.9411 N   0  0  0  0  0  0
  -24.6879  -31.0627   22.1002 N   0  0  0  0  0  0
  -23.4203  -28.8163   23.2982 O   0  0  0  0  0  0
  -28.3230  -26.4523   20.1399 O   0  0  0  0  0  0
  -26.5595  -34.8917   22.4674 O   0  0  0  0  0  0
  -23.5429  -32.1406   23.7373 O   0  0  0  0  0  0
  -28.7814  -19.3998   20.5810 C   0  0  0  0  0  0
  -28.7609  -17.9817   20.7731 C   0  0  0  0  0  0
  -31.1007  -17.8477   20.2574 C   0  0  0  0  0  0
  -29.9706  -20.0804   20.2182 C   0  0  0  0  0  0
  -29.9121  -17.1592   20.6076 C   0  0  0  0  0  0
  -31.1242  -19.2605   20.0691 C   0  0  0  0  0  0
  -29.2411  -24.0108   20.1397 C   0  0  0  0  0  0
  -30.0931  -21.6198   19.9044 C   0  0  0  0  0  0
  -28.0412  -25.0067   20.3647 C   0  0  0  0  0  0
  -29.8001  -15.7074   20.8040 N   0  0  0  0  0  0
  -29.0635  -22.6526   20.2691 N   0  0  0  0  0  0
  -30.3382  -24.4724   19.8153 O   0  0  0  0  0  0
  -32.2977  -19.8382   19.7167 F   0  0  0  0  0  0
  -31.4775  -12.5160   19.1596 H   0  0  0  0  0  0
  -30.3632  -11.4019   19.9019 H   0  0  0  0  0  0
  -29.7794  -11.7649   17.4785 H   0  0  0  0  0  0
  -29.6500  -13.4844   17.7501 H   0  0  0  0  0  0
  -27.8647  -11.2938   18.8622 H   0  0  0  0  0  0
  -27.3798  -12.5803   17.7899 H   0  0  0  0  0  0
  -27.6650  -14.2510   19.5073 H   0  0  0  0  0  0
  -28.7009  -12.0712   21.3917 H   0  0  0  0  0  0
  -28.4306  -13.7336   21.8316 H   0  0  0  0  0  0
  -25.2738   -9.5720   22.4752 H   0  0  0  0  0  0
  -24.0009   -7.4652   22.7448 H   0  0  0  0  0  0
  -21.0841   -8.8772   19.8949 H   0  0  0  0  0  0
  -22.3676  -10.9673   19.6158 H   0  0  0  0  0  0
  -21.1998   -7.6131   23.9721 H   0  0  0  0  0  0
  -21.1495   -6.0499   25.9080 H   0  0  0  0  0  0
  -22.0587   -2.7596   23.2839 H   0  0  0  0  0  0
  -22.4054  -11.9921   22.4827 H   0  0  0  0  0  0
  -21.1072  -13.1296   22.2601 H   0  0  0  0  0  0
  -24.6471  -15.8347   20.5007 H   0  0  0  0  0  0
  -26.2574  -15.6274   20.0385 H   0  0  0  0  0  0
  -26.7182  -32.5457   23.1116 H   0  0  0  0  0  0
  -25.0132  -33.9729   25.0490 H   0  0  0  0  0  0
  -22.7132  -31.3091   21.4062 H   0  0  0  0  0  0
  -23.3736  -35.9637   23.3308 H   0  0  0  0  0  0
  -24.3581  -36.8897   22.2044 H   0  0  0  0  0  0
  -23.7254  -37.6514   23.6636 H   0  0  0  0  0  0
  -26.0922  -31.5513   20.6091 H   0  0  0  0  0  0
  -26.8433  -30.8397   22.0056 H   0  0  0  0  0  0
  -28.1077  -28.9617   21.2125 H   0  0  0  0  0  0
  -25.9695  -25.9885   18.9076 H   0  0  0  0  0  0
  -23.9746  -27.3478   18.9649 H   0  0  0  0  0  0
  -23.7605  -30.6104   19.4072 H   0  0  0  0  0  0
  -22.7537  -29.2652   19.8514 H   0  0  0  0  0  0
  -25.1279  -36.1942   25.0826 H   0  0  0  0  0  0
  -21.0004  -28.3286   24.1398 H   0  0  0  0  0  0
  -20.5708  -26.2314   23.3598 H   0  0  0  0  0  0
  -21.6651  -26.7475   22.1184 H   0  0  0  0  0  0
  -19.6917  -25.6311   21.1241 H   0  0  0  0  0  0
  -19.6692  -27.3208   20.6737 H   0  0  0  0  0  0
  -17.4204  -26.6677   21.4047 H   0  0  0  0  0  0
  -18.0367  -26.0099   22.9055 H   0  0  0  0  0  0
  -19.7934  -30.7284   24.2296 H   0  0  0  0  0  0
  -17.5009  -31.6264   24.5191 H   0  0  0  0  0  0
  -15.5358  -30.2999   23.7636 H   0  0  0  0  0  0
  -15.8689  -28.0848   22.7025 H   0  0  0  0  0  0
  -24.5909  -30.7074   25.7791 H   0  0  0  0  0  0
  -24.8940  -32.2878   26.4898 H   0  0  0  0  0  0
  -25.8070  -30.8880   27.0230 H   0  0  0  0  0  0
  -26.2901  -29.6752   24.1213 H   0  0  0  0  0  0
  -27.4052  -29.7255   25.4669 H   0  0  0  0  0  0
  -27.8764  -30.4282   23.9381 H   0  0  0  0  0  0
  -27.2719  -33.3606   26.2060 H   0  0  0  0  0  0
  -28.3899  -32.6819   25.0327 H   0  0  0  0  0  0
  -28.0724  -31.8411   26.5423 H   0  0  0  0  0  0
  -28.2588  -38.0106   24.7512 H   0  0  0  0  0  0
  -28.1086  -36.2641   24.6288 H   0  0  0  0  0  0
  -27.2304  -37.1452   25.8870 H   0  0  0  0  0  0
  -20.9361  -29.8799   21.6895 H   0  0  0  0  0  0
  -26.0172  -38.2852   24.1406 H   0  0  0  0  0  0
  -27.8640  -19.9591   20.6961 H   0  0  0  0  0  0
  -27.8212  -17.5225   21.0444 H   0  0  0  0  0  0
  -32.0249  -17.3084   20.1209 H   0  0  0  0  0  0
  -30.2153  -21.6860   18.8221 H   0  0  0  0  0  0
  -31.0487  -21.9498   20.3155 H   0  0  0  0  0  0
  -27.6810  -24.8795   21.3866 H   0  0  0  0  0  0
  -27.2591  -24.6279   19.7118 H   0  0  0  0  0  0
  -28.8868  -15.4017   21.1032 H   0  0  0  0  0  0
  -28.1503  -22.3225   20.5503 H   0  0  0  0  0  0
  1 25  1  0  0  0
  1 30  2  0  0  0
  1 80  1  0  0  0
  2  3  1  0  0  0
  2 25  1  0  0  0
  2 84  1  0  0  0
  2 85  1  0  0  0
  3  4  1  0  0  0
  3 86  1  0  0  0
  3 87  1  0  0  0
  4  5  1  0  0  0
  4 88  1  0  0  0
  4 89  1  0  0  0
  5  6  1  0  0  0
  5 26  1  0  0  0
  5 90  1  0  0  0
  6 25  1  0  0  0
  6 91  1  0  0  0
  6 92  1  0  0  0
  7  8  2  0  0  0
  7 26  1  0  0  0
  7 29  1  0  0  0
  8  9  1  0  0  0
  8 22  1  0  0  0
  9 10  1  0  0  0
  9 27  2  0  0  0
 10 11  2  0  0  0
 10 15  1  0  0  0
 11 12  1  0  0  0
 11 93  1  0  0  0
 12 13  2  0  0  0
 12 94  1  0  0  0
 13 14  1  0  0  0
 13 31  1  0  0  0
 14 15  2  0  0  0
 14 95  1  0  0  0
 15 96  1  0  0  0
 16 17  2  0  0  0
 16 21  1  0  0  0
 16 31  1  0  0  0
 17 18  1  0  0  0
 17 97  1  0  0  0
 18 19  2  0  0  0
 18 98  1  0  0  0
 19 20  1  0  0  0
 19 24  1  0  0  0
 20 21  2  0  0  0
 20 99  1  0  0  0
 21 23  1  0  0  0
 22 28  1  0  0  0
 22 32  2  0  0  0
 26 27  1  0  0  0
 28100  1  0  0  0
 28101  1  0  0  0
 29102  1  0  0  0
 29103  1  0  0  0
 33 34  1  0  0  0
 33 66  1  0  0  0
 33 70  2  0  0  0
 34 36  1  0  0  0
 34 59  1  0  0  0
 34104  1  0  0  0
 35 44  2  0  0  0
 35 45  1  0  0  0
 35 68  1  0  0  0
 36 56  1  0  0  0
 36105  1  0  0  0
 37 39  1  0  0  0
 37 47  1  0  0  0
 37 66  1  0  0  0
 37106  1  0  0  0
 38 43  2  0  0  0
 38 46  1  0  0  0
 38 47  1  0  0  0
 39 64  1  0  0  0
 39 67  2  0  0  0
 40 52  1  0  0  0
 40 53  2  0  0  0
 40 58  1  0  0  0
 41107  1  0  0  0
 41108  1  0  0  0
 41109  1  0  0  0
 41 48  1  0  0  0
 42 43  1  0  0  0
 42 66  1  0  0  0
 42110  1  0  0  0
 42111  1  0  0  0
 43 44  1  0  0  0
 44112  1  0  0  0
 45 46  2  0  0  0
 45113  1  0  0  0
 46114  1  0  0  0
 47115  1  0  0  0
 47116  1  0  0  0
 48 56  1  0  0  0
 48 65  1  0  0  0
 48117  1  0  0  0
 49 50  1  0  0  0
 49 53  1  0  0  0
 49 64  1  0  0  0
 49118  1  0  0  0
 50 51  1  0  0  0
 50119  1  0  0  0
 50120  1  0  0  0
 51 52  1  0  0  0
 51121  1  0  0  0
 51122  1  0  0  0
 52123  1  0  0  0
 52124  1  0  0  0
 53 54  1  0  0  0
 54 55  2  0  0  0
 54125  1  0  0  0
 55 57  1  0  0  0
 55126  1  0  0  0
 56 69  2  0  0  0
 57 58  2  0  0  0
 57127  1  0  0  0
 58128  1  0  0  0
 59 60  1  0  0  0
 59 61  1  0  0  0
 59 62  1  0  0  0
 60129  1  0  0  0
 60130  1  0  0  0
 60131  1  0  0  0
 61132  1  0  0  0
 61133  1  0  0  0
 61134  1  0  0  0
 62135  1  0  0  0
 62136  1  0  0  0
 62137  1  0  0  0
 63 65  1  0  0  0
 63138  1  0  0  0
 63139  1  0  0  0
 63140  1  0  0  0
 64141  1  0  0  0
 65142  1  0  0  0
 68 79  1  0  0  0
 71 72  2  0  0  0
 71 74  1  0  0  0
 71143  1  0  0  0
 72 75  1  0  0  0
 72144  1  0  0  0
 73 75  2  0  0  0
 73 76  1  0  0  0
 73145  1  0  0  0
 74 76  2  0  0  0
 74 78  1  0  0  0
 75 80  1  0  0  0
 76 83  1  0  0  0
 77 79  1  0  0  0
 77 81  1  0  0  0
 77 82  2  0  0  0
 78 81  1  0  0  0
 78146  1  0  0  0
 78147  1  0  0  0
 79148  1  0  0  0
 79149  1  0  0  0
 80150  1  0  0  0
 81151  1  0  0  0
M  ISO  4   1 100  68 101  79 101  80 100
M  END
> <chiral flag>
0

> <version>
0

> <s_m_source_file>
/data/baiqing/PycharmProjects/Reinvent-master-3.2/result/LINK_invent/BTK/process_docking_weight1_custom_product_contain_oxygen_bond_distance_aromatic_linkinvent_7_9_3/rearranged_h_0068.sdf

> <i_m_source_file_index>
53

> <r_mmod_Potential_Energy-OPLS-2005>
14.2365608215332

> <r_mmod_Stretch_Energy-OPLS-2005>
79.1475448608398

> <r_mmod_Bend_Energy-OPLS-2005>
140.470153808594

> <r_mmod_Torsional_Energy-OPLS-2005>
216.263656616211

> <r_mmod_Improper_Torsional_Energy-OPLS-2005>
4.705735206604

> <r_mmod_Van_der_Waal_Energy-OPLS-2005>
146.55354309082

> <r_mmod_Electrostatic_Energy-OPLS-2005>
-375.890625

> <r_mmod_Solvation_Energy-OPLS-2005>
-248.972244262695

> <b_mmod_Minimization_Converged-OPLS-2005>
0

> <r_mmod_RMS_Derivative-OPLS-2005>
2.50171446800232

$$$$
53
                    3D
 Structure written by MMmdl.
157165  0  0  1  0            999 V2000
  -30.6403  -14.7248   20.4429 C   0  0  0  0  0  0
  -30.4174  -12.4415   19.4770 C   0  0  0  0  0  0
  -29.5045  -12.5001   18.2343 C   0  0  0  0  0  0
  -28.0303  -12.3278   18.6480 C   0  0  0  0  0  0
  -27.6365  -13.2343   19.8453 C   0  0  2  0  0  0
  -28.6791  -13.1867   20.9834 C   0  0  0  0  0  0
  -25.2486  -13.8204   20.5683 C   0  0  0  0  0  0
  -24.1787  -13.0440   20.9201 C   0  0  0  0  0  0
  -24.6388  -11.6923   20.8751 C   0  0  0  0  0  0
  -23.9077  -10.4292   21.0409 C   0  0  0  0  0  0
  -24.3618   -9.4210   21.9194 C   0  0  0  0  0  0
  -23.6292   -8.2250   22.0759 C   0  0  0  0  0  0
  -22.4281   -8.0281   21.3542 C   0  0  0  0  0  0
  -21.9914   -9.0255   20.4648 C   0  0  0  0  0  0
  -22.7239  -10.2143   20.3063 C   0  0  0  0  0  0
  -21.6862   -6.0739   22.5272 C   0  0  0  0  0  0
  -21.4016   -6.5641   23.8204 C   0  0  0  0  0  0
  -21.3656   -5.6797   24.9166 C   0  0  0  0  0  0
  -21.6037   -4.3058   24.7221 C   0  0  0  0  0  0
  -21.8822   -3.8147   23.4341 C   0  0  0  0  0  0
  -21.9192   -4.6965   22.3394 C   0  0  0  0  0  0
  -22.7814  -13.5223   21.1857 C   0  0  0  0  0  0
  -22.1663   -4.2145   21.0974 F   0  0  0  0  0  0
  -21.5626   -3.4547   25.7732 F   0  0  0  0  0  0
  -29.9817  -13.5179   20.3971 N   0  0  0  0  0  0
  -26.2909  -12.9416   20.3263 N   0  0  0  0  0  0
  -25.9321  -11.6558   20.5749 N   0  0  0  0  0  0
  -22.0470  -12.8208   22.0414 N   0  0  0  0  0  0
  -25.4182  -15.1922   20.4076 N   0  0  0  0  0  0
  -31.8466  -14.7410   20.1903 O   0  0  0  0  0  0
  -21.6639   -6.8880   21.4231 O   0  0  0  0  0  0
  -22.3501  -14.5528   20.6693 O   0  0  0  0  0  0
  -24.6304  -31.8535   23.2025 C   0  0  0  0  0  0
  -25.9133  -32.4748   23.8340 C   0  0  1  0  0  0
  -27.2062  -27.2684   20.1195 C   0  0  0  0  0  0
  -25.5926  -33.8548   24.2244 N   0  0  0  0  0  0
  -23.4250  -30.4812   21.5447 C   0  0  2  0  0  0
  -24.8687  -28.9374   20.1019 C   0  0  0  0  0  0
  -22.7494  -29.4590   22.4909 C   0  0  0  0  0  0
  -18.0291  -28.1380   22.8453 C   0  0  0  0  0  0
  -24.1486  -36.7308   23.2633 C   0  0  0  0  0  0
  -25.9704  -30.7715   21.3797 C   0  0  0  0  0  0
  -26.0384  -29.3956   20.7187 C   0  0  0  0  0  0
  -27.2085  -28.5711   20.7223 C   0  0  0  0  0  0
  -26.0183  -26.8934   19.4465 C   0  0  0  0  0  0
  -24.8629  -27.6953   19.4534 C   0  0  0  0  0  0
  -23.6389  -29.8215   20.1575 C   0  0  0  0  0  0
  -25.4105  -36.3064   24.0316 C   0  0  1  0  0  0
  -20.5884  -28.3702   23.1257 C   0  0  2  0  0  0
  -20.6773  -26.9415   22.5397 C   0  0  0  0  0  0
  -19.5756  -26.6376   21.5195 C   0  0  0  0  0  0
  -18.1928  -26.7928   22.1590 C   0  0  0  0  0  0
  -19.1537  -28.8854   23.2842 C   0  0  0  0  0  0
  -18.9465  -30.1447   23.8877 C   0  0  0  0  0  0
  -17.6473  -30.6582   24.0555 C   0  0  0  0  0  0
  -25.9045  -34.9432   23.5082 C   0  0  0  0  0  0
  -16.5356  -29.9077   23.6327 C   0  0  0  0  0  0
  -16.7274  -28.6496   23.0342 C   0  0  0  0  0  0
  -26.4510  -31.6591   25.0740 C   0  0  0  0  0  0
  -25.3721  -31.3770   26.1464 C   0  0  0  0  0  0
  -27.0356  -30.2985   24.6251 C   0  0  0  0  0  0
  -27.6055  -32.4353   25.7501 C   0  0  0  0  0  0
  -27.5587  -37.1784   24.8450 C   0  0  0  0  0  0
  -21.4195  -29.3057   22.3657 N   0  0  0  0  0  0
  -26.4289  -37.3757   23.9404 N   0  0  0  0  0  0
  -24.6947  -31.0525   22.0988 N   0  0  0  0  0  0
  -23.4201  -28.8101   23.2985 O   0  0  0  0  0  0
  -28.2909  -26.3647   20.2097 O   0  0  0  0  0  0
  -26.5637  -34.8915   22.4668 O   0  0  0  0  0  0
  -23.5453  -32.1338   23.7338 O   0  0  0  0  0  0
  -31.8769  -18.8268   19.0984 C   0  0  0  0  0  0
  -31.4296  -17.5385   19.4208 C   0  0  0  0  0  0
  -29.5476  -18.5213   20.5844 C   0  0  0  0  0  0
  -31.2027  -19.9884   19.5221 C   0  0  0  0  0  0
  -30.2842  -17.3113   20.2186 C   0  0  0  0  0  0
  -29.9606  -19.8838   20.2311 C   0  0  0  0  0  0
  -31.9176  -21.2485   19.2426 C   0  0  0  0  0  0
  -28.9750  -22.2751   19.9385 C   0  0  0  0  0  0
  -28.9147  -23.7282   20.6041 C   0  0  0  0  0  0
  -28.0728  -24.9086   19.9000 C   0  0  0  0  0  0
  -32.2172  -22.0916   20.2291 N   0  0  0  0  0  0
  -29.2438  -21.1206   20.6635 N   0  0  0  0  0  0
  -29.9115  -15.9064   20.5735 N   0  0  0  0  0  0
  -32.3050  -21.5574   18.0050 N   0  3  0  0  0  0
  -28.8007  -22.2009   18.7209 O   0  0  0  0  0  0
  -31.4626  -12.5394   19.1787 H   0  0  0  0  0  0
  -30.3400  -11.4706   19.9676 H   0  0  0  0  0  0
  -29.7865  -11.7247   17.5205 H   0  0  0  0  0  0
  -29.6338  -13.4544   17.7199 H   0  0  0  0  0  0
  -27.8886  -11.2797   18.9152 H   0  0  0  0  0  0
  -27.3732  -12.5154   17.7982 H   0  0  0  0  0  0
  -27.6266  -14.2522   19.4563 H   0  0  0  0  0  0
  -28.7088  -12.1999   21.4470 H   0  0  0  0  0  0
  -28.4174  -13.8902   21.7749 H   0  0  0  0  0  0
  -25.2774   -9.5686   22.4755 H   0  0  0  0  0  0
  -23.9995   -7.4650   22.7496 H   0  0  0  0  0  0
  -21.0840   -8.8777   19.8961 H   0  0  0  0  0  0
  -22.3697  -10.9677   19.6161 H   0  0  0  0  0  0
  -21.2016   -7.6155   23.9695 H   0  0  0  0  0  0
  -21.1473   -6.0536   25.9063 H   0  0  0  0  0  0
  -22.0604   -2.7610   23.2842 H   0  0  0  0  0  0
  -22.4104  -11.9868   22.4791 H   0  0  0  0  0  0
  -21.1089  -13.1216   22.2626 H   0  0  0  0  0  0
  -24.6447  -15.8416   20.5009 H   0  0  0  0  0  0
  -26.2567  -15.6272   20.0445 H   0  0  0  0  0  0
  -26.7195  -32.5385   23.1073 H   0  0  0  0  0  0
  -25.0056  -33.9665   25.0377 H   0  0  0  0  0  0
  -22.7212  -31.3039   21.4043 H   0  0  0  0  0  0
  -23.3742  -35.9656   23.3261 H   0  0  0  0  0  0
  -24.3571  -36.8975   22.2054 H   0  0  0  0  0  0
  -23.7250  -37.6495   23.6701 H   0  0  0  0  0  0
  -26.1034  -31.5360   20.6134 H   0  0  0  0  0  0
  -26.8513  -30.8174   22.0086 H   0  0  0  0  0  0
  -28.0994  -28.9082   21.2318 H   0  0  0  0  0  0
  -25.9408  -25.9588   18.9117 H   0  0  0  0  0  0
  -23.9704  -27.3488   18.9495 H   0  0  0  0  0  0
  -23.7544  -30.6002   19.4027 H   0  0  0  0  0  0
  -22.7564  -29.2534   19.8574 H   0  0  0  0  0  0
  -25.1275  -36.1904   25.0810 H   0  0  0  0  0  0
  -20.9942  -28.3294   24.1383 H   0  0  0  0  0  0
  -20.5656  -26.2315   23.3611 H   0  0  0  0  0  0
  -21.6647  -26.7441   22.1195 H   0  0  0  0  0  0
  -19.6943  -25.6280   21.1233 H   0  0  0  0  0  0
  -19.6715  -27.3186   20.6723 H   0  0  0  0  0  0
  -17.4196  -26.6656   21.3988 H   0  0  0  0  0  0
  -18.0322  -26.0085   22.9003 H   0  0  0  0  0  0
  -19.7954  -30.7225   24.2259 H   0  0  0  0  0  0
  -17.5045  -31.6269   24.5162 H   0  0  0  0  0  0
  -15.5353  -30.2980   23.7680 H   0  0  0  0  0  0
  -15.8662  -28.0810   22.7083 H   0  0  0  0  0  0
  -24.5912  -30.7098   25.7798 H   0  0  0  0  0  0
  -24.8918  -32.2968   26.4818 H   0  0  0  0  0  0
  -25.8027  -30.8997   27.0270 H   0  0  0  0  0  0
  -26.2948  -29.6717   24.1290 H   0  0  0  0  0  0
  -27.4002  -29.7273   25.4795 H   0  0  0  0  0  0
  -27.8841  -30.4214   23.9520 H   0  0  0  0  0  0
  -27.2663  -33.3689   26.1994 H   0  0  0  0  0  0
  -28.3910  -32.6849   25.0357 H   0  0  0  0  0  0
  -28.0688  -31.8546   26.5479 H   0  0  0  0  0  0
  -28.2553  -38.0129   24.7515 H   0  0  0  0  0  0
  -28.1123  -36.2646   24.6237 H   0  0  0  0  0  0
  -27.2311  -37.1388   25.8855 H   0  0  0  0  0  0
  -20.9384  -29.8801   21.6879 H   0  0  0  0  0  0
  -26.0167  -38.2818   24.1443 H   0  0  0  0  0  0
  -32.8025  -18.9150   18.5462 H   0  0  0  0  0  0
  -32.0308  -16.7312   19.0365 H   0  0  0  0  0  0
  -28.6431  -18.4024   21.1619 H   0  0  0  0  0  0
  -29.9526  -24.0592   20.6529 H   0  0  0  0  0  0
  -28.5950  -23.6249   21.6402 H   0  0  0  0  0  0
  -27.0428  -24.6454   20.1365 H   0  0  0  0  0  0
  -28.1677  -24.8103   18.8185 H   0  0  0  0  0  0
  -31.9932  -21.8286   21.1780 H   0  0  0  0  0  0
  -32.7339  -22.9441   20.0890 H   0  0  0  0  0  0
  -29.0732  -21.1919   21.6583 H   0  0  0  0  0  0
  -28.9584  -15.7759   20.8739 H   0  0  0  0  0  0
  -32.0510  -20.9449   17.2434 H   0  0  0  0  0  0
  -32.7667  -22.4249   17.7817 H   0  0  0  0  0  0
  1 25  1  0  0  0
  1 30  2  0  0  0
  1 83  1  0  0  0
  2  3  1  0  0  0
  2 25  1  0  0  0
  2 86  1  0  0  0
  2 87  1  0  0  0
  3  4  1  0  0  0
  3 88  1  0  0  0
  3 89  1  0  0  0
  4  5  1  0  0  0
  4 90  1  0  0  0
  4 91  1  0  0  0
  5  6  1  0  0  0
  5 26  1  0  0  0
  5 92  1  0  0  0
  6 25  1  0  0  0
  6 93  1  0  0  0
  6 94  1  0  0  0
  7  8  2  0  0  0
  7 26  1  0  0  0
  7 29  1  0  0  0
  8  9  1  0  0  0
  8 22  1  0  0  0
  9 10  1  0  0  0
  9 27  2  0  0  0
 10 11  2  0  0  0
 10 15  1  0  0  0
 11 12  1  0  0  0
 11 95  1  0  0  0
 12 13  2  0  0  0
 12 96  1  0  0  0
 13 14  1  0  0  0
 13 31  1  0  0  0
 14 15  2  0  0  0
 14 97  1  0  0  0
 15 98  1  0  0  0
 16 17  2  0  0  0
 16 21  1  0  0  0
 16 31  1  0  0  0
 17 18  1  0  0  0
 17 99  1  0  0  0
 18 19  2  0  0  0
 18100  1  0  0  0
 19 20  1  0  0  0
 19 24  1  0  0  0
 20 21  2  0  0  0
 20101  1  0  0  0
 21 23  1  0  0  0
 22 28  1  0  0  0
 22 32  2  0  0  0
 26 27  1  0  0  0
 28102  1  0  0  0
 28103  1  0  0  0
 29104  1  0  0  0
 29105  1  0  0  0
 33 34  1  0  0  0
 33 66  1  0  0  0
 33 70  2  0  0  0
 34 36  1  0  0  0
 34 59  1  0  0  0
 34106  1  0  0  0
 35 44  2  0  0  0
 35 45  1  0  0  0
 35 68  1  0  0  0
 36 56  1  0  0  0
 36107  1  0  0  0
 37 39  1  0  0  0
 37 47  1  0  0  0
 37 66  1  0  0  0
 37108  1  0  0  0
 38 43  2  0  0  0
 38 46  1  0  0  0
 38 47  1  0  0  0
 39 64  1  0  0  0
 39 67  2  0  0  0
 40 52  1  0  0  0
 40 53  2  0  0  0
 40 58  1  0  0  0
 41109  1  0  0  0
 41110  1  0  0  0
 41111  1  0  0  0
 41 48  1  0  0  0
 42 43  1  0  0  0
 42 66  1  0  0  0
 42112  1  0  0  0
 42113  1  0  0  0
 43 44  1  0  0  0
 44114  1  0  0  0
 45 46  2  0  0  0
 45115  1  0  0  0
 46116  1  0  0  0
 47117  1  0  0  0
 47118  1  0  0  0
 48 56  1  0  0  0
 48 65  1  0  0  0
 48119  1  0  0  0
 49 50  1  0  0  0
 49 53  1  0  0  0
 49 64  1  0  0  0
 49120  1  0  0  0
 50 51  1  0  0  0
 50121  1  0  0  0
 50122  1  0  0  0
 51 52  1  0  0  0
 51123  1  0  0  0
 51124  1  0  0  0
 52125  1  0  0  0
 52126  1  0  0  0
 53 54  1  0  0  0
 54 55  2  0  0  0
 54127  1  0  0  0
 55 57  1  0  0  0
 55128  1  0  0  0
 56 69  2  0  0  0
 57 58  2  0  0  0
 57129  1  0  0  0
 58130  1  0  0  0
 59 60  1  0  0  0
 59 61  1  0  0  0
 59 62  1  0  0  0
 60131  1  0  0  0
 60132  1  0  0  0
 60133  1  0  0  0
 61134  1  0  0  0
 61135  1  0  0  0
 61136  1  0  0  0
 62137  1  0  0  0
 62138  1  0  0  0
 62139  1  0  0  0
 63 65  1  0  0  0
 63140  1  0  0  0
 63141  1  0  0  0
 63142  1  0  0  0
 64143  1  0  0  0
 65144  1  0  0  0
 68 80  1  0  0  0
 71 72  2  0  0  0
 71 74  1  0  0  0
 71145  1  0  0  0
 72 75  1  0  0  0
 72146  1  0  0  0
 73 75  2  0  0  0
 73 76  1  0  0  0
 73147  1  0  0  0
 74 76  2  0  0  0
 74 77  1  0  0  0
 75 83  1  0  0  0
 76 82  1  0  0  0
 77 81  1  0  0  0
 77 84  2  0  0  0
 78 79  1  0  0  0
 78 82  1  0  0  0
 78 85  2  0  0  0
 79 80  1  0  0  0
 79148  1  0  0  0
 79149  1  0  0  0
 80150  1  0  0  0
 80151  1  0  0  0
 81152  1  0  0  0
 81153  1  0  0  0
 82154  1  0  0  0
 83155  1  0  0  0
 84156  1  0  0  0
 84157  1  0  0  0
M  CHG  1  84   1
M  ISO  4   1 100  68 101  80 101  83 100
M  END
> <chiral flag>
0

> <version>
0

> <s_m_source_file>
/data/baiqing/PycharmProjects/Reinvent-master-3.2/result/LINK_invent/BTK/process_docking_weight1_custom_product_contain_oxygen_bond_distance_aromatic_linkinvent_7_9_3/rearranged_h_0068.sdf

> <i_m_source_file_index>
54

> <r_mmod_Potential_Energy-OPLS-2005>
-16.7921619415283

> <r_mmod_Stretch_Energy-OPLS-2005>
128.01969909668

> <r_mmod_Bend_Energy-OPLS-2005>
161.76789855957

> <r_mmod_Torsional_Energy-OPLS-2005>
265.561981201172

> <r_mmod_Improper_Torsional_Energy-OPLS-2005>
5.66583108901978

> <r_mmod_Van_der_Waal_Energy-OPLS-2005>
162.432281494141

> <r_mmod_Electrostatic_Energy-OPLS-2005>
-362.193634033203

> <r_mmod_Solvation_Energy-OPLS-2005>
-462.610565185547

> <b_mmod_Minimization_Converged-OPLS-2005>
0

> <r_mmod_RMS_Derivative-OPLS-2005>
2.51225328445435

$$$$
54
                    3D
 Structure written by MMmdl.
154162  0  0  1  0            999 V2000
  -30.6699  -14.7433   20.4160 C   0  0  0  0  0  0
  -30.4223  -12.4510   19.4740 C   0  0  0  0  0  0
  -29.5060  -12.4969   18.2336 C   0  0  0  0  0  0
  -28.0334  -12.3281   18.6516 C   0  0  0  0  0  0
  -27.6399  -13.2431   19.8422 C   0  0  2  0  0  0
  -28.6906  -13.2209   20.9746 C   0  0  0  0  0  0
  -25.2506  -13.8228   20.5708 C   0  0  0  0  0  0
  -24.1811  -13.0457   20.9221 C   0  0  0  0  0  0
  -24.6428  -11.6935   20.8773 C   0  0  0  0  0  0
  -23.9105  -10.4294   21.0415 C   0  0  0  0  0  0
  -24.3644   -9.4205   21.9196 C   0  0  0  0  0  0
  -23.6308   -8.2243   22.0758 C   0  0  0  0  0  0
  -22.4289   -8.0291   21.3554 C   0  0  0  0  0  0
  -21.9937   -9.0263   20.4650 C   0  0  0  0  0  0
  -22.7275  -10.2140   20.3060 C   0  0  0  0  0  0
  -21.6857   -6.0750   22.5283 C   0  0  0  0  0  0
  -21.4016   -6.5657   23.8216 C   0  0  0  0  0  0
  -21.3658   -5.6801   24.9177 C   0  0  0  0  0  0
  -21.6044   -4.3060   24.7223 C   0  0  0  0  0  0
  -21.8820   -3.8163   23.4339 C   0  0  0  0  0  0
  -21.9188   -4.6978   22.3399 C   0  0  0  0  0  0
  -22.7823  -13.5218   21.1876 C   0  0  0  0  0  0
  -22.1662   -4.2163   21.0978 F   0  0  0  0  0  0
  -21.5622   -3.4544   25.7739 F   0  0  0  0  0  0
  -29.9914  -13.5445   20.3767 N   0  0  0  0  0  0
  -26.2950  -12.9463   20.3288 N   0  0  0  0  0  0
  -25.9371  -11.6597   20.5779 N   0  0  0  0  0  0
  -22.0470  -12.8188   22.0420 N   0  0  0  0  0  0
  -25.4182  -15.1948   20.4113 N   0  0  0  0  0  0
  -31.8769  -14.7370   20.1764 O   0  0  0  0  0  0
  -21.6654   -6.8895   21.4248 O   0  0  0  0  0  0
  -22.3497  -14.5520   20.6723 O   0  0  0  0  0  0
  -24.6317  -31.8553   23.1990 C   0  0  0  0  0  0
  -25.9141  -32.4738   23.8335 C   0  0  1  0  0  0
  -27.2174  -27.2688   20.1233 C   0  0  0  0  0  0
  -25.5943  -33.8548   24.2267 N   0  0  0  0  0  0
  -23.4255  -30.4802   21.5430 C   0  0  2  0  0  0
  -24.8711  -28.9328   20.1060 C   0  0  0  0  0  0
  -22.7512  -29.4588   22.4912 C   0  0  0  0  0  0
  -18.0299  -28.1382   22.8482 C   0  0  0  0  0  0
  -24.1485  -36.7283   23.2641 C   0  0  0  0  0  0
  -25.9722  -30.7684   21.3795 C   0  0  0  0  0  0
  -26.0401  -29.3930   20.7225 C   0  0  0  0  0  0
  -27.2108  -28.5700   20.7273 C   0  0  0  0  0  0
  -26.0286  -26.8894   19.4524 C   0  0  0  0  0  0
  -24.8709  -27.6884   19.4613 C   0  0  0  0  0  0
  -23.6415  -29.8181   20.1578 C   0  0  0  0  0  0
  -25.4104  -36.3069   24.0335 C   0  0  1  0  0  0
  -20.5901  -28.3678   23.1281 C   0  0  2  0  0  0
  -20.6780  -26.9396   22.5427 C   0  0  0  0  0  0
  -19.5753  -26.6378   21.5229 C   0  0  0  0  0  0
  -18.1931  -26.7925   22.1636 C   0  0  0  0  0  0
  -19.1553  -28.8850   23.2870 C   0  0  0  0  0  0
  -18.9475  -30.1462   23.8876 C   0  0  0  0  0  0
  -17.6464  -30.6573   24.0565 C   0  0  0  0  0  0
  -25.9056  -34.9436   23.5103 C   0  0  0  0  0  0
  -16.5353  -29.9071   23.6332 C   0  0  0  0  0  0
  -16.7287  -28.6494   23.0341 C   0  0  0  0  0  0
  -26.4511  -31.6571   25.0728 C   0  0  0  0  0  0
  -25.3738  -31.3744   26.1453 C   0  0  0  0  0  0
  -27.0352  -30.2977   24.6205 C   0  0  0  0  0  0
  -27.6054  -32.4328   25.7494 C   0  0  0  0  0  0
  -27.5575  -37.1792   24.8467 C   0  0  0  0  0  0
  -21.4214  -29.3037   22.3677 N   0  0  0  0  0  0
  -26.4275  -37.3775   23.9413 N   0  0  0  0  0  0
  -24.6962  -31.0535   22.0961 N   0  0  0  0  0  0
  -23.4221  -28.8131   23.3005 O   0  0  0  0  0  0
  -28.3208  -26.3867   20.2193 O   0  0  0  0  0  0
  -26.5629  -34.8904   22.4674 O   0  0  0  0  0  0
  -23.5469  -32.1377   23.7299 O   0  0  0  0  0  0
  -32.0504  -18.8485   19.1404 C   0  0  0  0  0  0
  -31.5532  -17.5607   19.4058 C   0  0  0  0  0  0
  -29.6801  -18.5636   20.5712 C   0  0  0  0  0  0
  -31.3941  -20.0098   19.5922 C   0  0  0  0  0  0
  -30.3913  -17.3457   20.1888 C   0  0  0  0  0  0
  -30.1305  -19.9175   20.2465 C   0  0  0  0  0  0
  -29.2005  -22.3326   19.9536 C   0  0  0  0  0  0
  -32.1377  -21.3282   19.4033 C   0  0  0  0  0  0
  -28.9361  -23.7478   20.6542 C   0  0  0  0  0  0
  -28.2190  -24.9372   19.8242 C   0  0  0  0  0  0
  -29.4441  -21.1683   20.6704 N   0  0  0  0  0  0
  -29.9686  -15.9455   20.5181 N   0  0  0  0  0  0
  -29.1770  -22.2979   18.7210 O   0  0  0  0  0  0
  -31.4650  -12.5418   19.1669 H   0  0  0  0  0  0
  -30.3446  -11.4863   19.9784 H   0  0  0  0  0  0
  -29.7846  -11.7156   17.5259 H   0  0  0  0  0  0
  -29.6359  -13.4461   17.7099 H   0  0  0  0  0  0
  -27.8908  -11.2826   18.9275 H   0  0  0  0  0  0
  -27.3743  -12.5103   17.8019 H   0  0  0  0  0  0
  -27.6205  -14.2569   19.4408 H   0  0  0  0  0  0
  -28.7257  -12.2452   21.4601 H   0  0  0  0  0  0
  -28.4348  -13.9447   21.7501 H   0  0  0  0  0  0
  -25.2788   -9.5679   22.4777 H   0  0  0  0  0  0
  -24.0018   -7.4637   22.7476 H   0  0  0  0  0  0
  -21.0873   -8.8794   19.8947 H   0  0  0  0  0  0
  -22.3745  -10.9688   19.6168 H   0  0  0  0  0  0
  -21.2017   -7.6163   23.9724 H   0  0  0  0  0  0
  -21.1479   -6.0534   25.9079 H   0  0  0  0  0  0
  -22.0596   -2.7624   23.2840 H   0  0  0  0  0  0
  -22.4094  -11.9845   22.4797 H   0  0  0  0  0  0
  -21.1086  -13.1201   22.2632 H   0  0  0  0  0  0
  -24.6490  -15.8474   20.5122 H   0  0  0  0  0  0
  -26.2649  -15.6328   20.0732 H   0  0  0  0  0  0
  -26.7193  -32.5372   23.1062 H   0  0  0  0  0  0
  -25.0106  -33.9688   25.0423 H   0  0  0  0  0  0
  -22.7217  -31.3028   21.3999 H   0  0  0  0  0  0
  -23.3740  -35.9630   23.3314 H   0  0  0  0  0  0
  -24.3589  -36.8898   22.2061 H   0  0  0  0  0  0
  -23.7245  -37.6492   23.6652 H   0  0  0  0  0  0
  -26.1149  -31.5251   20.6076 H   0  0  0  0  0  0
  -26.8511  -30.8153   22.0107 H   0  0  0  0  0  0
  -28.1007  -28.9122   21.2354 H   0  0  0  0  0  0
  -25.9498  -25.9601   18.9108 H   0  0  0  0  0  0
  -23.9786  -27.3391   18.9590 H   0  0  0  0  0  0
  -23.7633  -30.5959   19.4039 H   0  0  0  0  0  0
  -22.7569  -29.2540   19.8526 H   0  0  0  0  0  0
  -25.1282  -36.1919   25.0830 H   0  0  0  0  0  0
  -20.9993  -28.3243   24.1398 H   0  0  0  0  0  0
  -20.5697  -26.2279   23.3623 H   0  0  0  0  0  0
  -21.6634  -26.7418   22.1196 H   0  0  0  0  0  0
  -19.6900  -25.6302   21.1232 H   0  0  0  0  0  0
  -19.6674  -27.3209   20.6781 H   0  0  0  0  0  0
  -17.4206  -26.6701   21.4022 H   0  0  0  0  0  0
  -18.0284  -26.0069   22.9030 H   0  0  0  0  0  0
  -19.7954  -30.7300   24.2198 H   0  0  0  0  0  0
  -17.5022  -31.6245   24.5190 H   0  0  0  0  0  0
  -15.5356  -30.2967   23.7666 H   0  0  0  0  0  0
  -15.8695  -28.0825   22.7034 H   0  0  0  0  0  0
  -24.5901  -30.7081   25.7829 H   0  0  0  0  0  0
  -24.8919  -32.2928   26.4832 H   0  0  0  0  0  0
  -25.8056  -30.8982   27.0262 H   0  0  0  0  0  0
  -26.2930  -29.6720   24.1220 H   0  0  0  0  0  0
  -27.4050  -29.7244   25.4723 H   0  0  0  0  0  0
  -27.8811  -30.4276   23.9441 H   0  0  0  0  0  0
  -27.2641  -33.3653   26.2015 H   0  0  0  0  0  0
  -28.3880  -32.6855   25.0323 H   0  0  0  0  0  0
  -28.0692  -31.8486   26.5458 H   0  0  0  0  0  0
  -28.2592  -38.0091   24.7518 H   0  0  0  0  0  0
  -28.1075  -36.2624   24.6278 H   0  0  0  0  0  0
  -27.2311  -37.1435   25.8879 H   0  0  0  0  0  0
  -20.9399  -29.8780   21.6903 H   0  0  0  0  0  0
  -26.0155  -38.2853   24.1411 H   0  0  0  0  0  0
  -32.9832  -18.9376   18.5992 H   0  0  0  0  0  0
  -32.1266  -16.7444   18.9978 H   0  0  0  0  0  0
  -28.7648  -18.4616   21.1380 H   0  0  0  0  0  0
  -33.2131  -21.1641   19.3234 H   0  0  0  0  0  0
  -31.9973  -21.9937   20.2552 H   0  0  0  0  0  0
  -31.8145  -21.8390   18.4973 H   0  0  0  0  0  0
  -29.9124  -24.1091   20.9767 H   0  0  0  0  0  0
  -28.3724  -23.5735   21.5700 H   0  0  0  0  0  0
  -27.1805  -24.6180   19.8029 H   0  0  0  0  0  0
  -28.5597  -24.8944   18.7896 H   0  0  0  0  0  0
  -29.2228  -21.2216   21.6567 H   0  0  0  0  0  0
  -29.0012  -15.8383   20.7811 H   0  0  0  0  0  0
  1 25  1  0  0  0
  1 30  2  0  0  0
  1 82  1  0  0  0
  2  3  1  0  0  0
  2 25  1  0  0  0
  2 84  1  0  0  0
  2 85  1  0  0  0
  3  4  1  0  0  0
  3 86  1  0  0  0
  3 87  1  0  0  0
  4  5  1  0  0  0
  4 88  1  0  0  0
  4 89  1  0  0  0
  5  6  1  0  0  0
  5 26  1  0  0  0
  5 90  1  0  0  0
  6 25  1  0  0  0
  6 91  1  0  0  0
  6 92  1  0  0  0
  7  8  2  0  0  0
  7 26  1  0  0  0
  7 29  1  0  0  0
  8  9  1  0  0  0
  8 22  1  0  0  0
  9 10  1  0  0  0
  9 27  2  0  0  0
 10 11  2  0  0  0
 10 15  1  0  0  0
 11 12  1  0  0  0
 11 93  1  0  0  0
 12 13  2  0  0  0
 12 94  1  0  0  0
 13 14  1  0  0  0
 13 31  1  0  0  0
 14 15  2  0  0  0
 14 95  1  0  0  0
 15 96  1  0  0  0
 16 17  2  0  0  0
 16 21  1  0  0  0
 16 31  1  0  0  0
 17 18  1  0  0  0
 17 97  1  0  0  0
 18 19  2  0  0  0
 18 98  1  0  0  0
 19 20  1  0  0  0
 19 24  1  0  0  0
 20 21  2  0  0  0
 20 99  1  0  0  0
 21 23  1  0  0  0
 22 28  1  0  0  0
 22 32  2  0  0  0
 26 27  1  0  0  0
 28100  1  0  0  0
 28101  1  0  0  0
 29102  1  0  0  0
 29103  1  0  0  0
 33 34  1  0  0  0
 33 66  1  0  0  0
 33 70  2  0  0  0
 34 36  1  0  0  0
 34 59  1  0  0  0
 34104  1  0  0  0
 35 44  2  0  0  0
 35 45  1  0  0  0
 35 68  1  0  0  0
 36 56  1  0  0  0
 36105  1  0  0  0
 37 39  1  0  0  0
 37 47  1  0  0  0
 37 66  1  0  0  0
 37106  1  0  0  0
 38 43  2  0  0  0
 38 46  1  0  0  0
 38 47  1  0  0  0
 39 64  1  0  0  0
 39 67  2  0  0  0
 40 52  1  0  0  0
 40 53  2  0  0  0
 40 58  1  0  0  0
 41107  1  0  0  0
 41108  1  0  0  0
 41109  1  0  0  0
 41 48  1  0  0  0
 42 43  1  0  0  0
 42 66  1  0  0  0
 42110  1  0  0  0
 42111  1  0  0  0
 43 44  1  0  0  0
 44112  1  0  0  0
 45 46  2  0  0  0
 45113  1  0  0  0
 46114  1  0  0  0
 47115  1  0  0  0
 47116  1  0  0  0
 48 56  1  0  0  0
 48 65  1  0  0  0
 48117  1  0  0  0
 49 50  1  0  0  0
 49 53  1  0  0  0
 49 64  1  0  0  0
 49118  1  0  0  0
 50 51  1  0  0  0
 50119  1  0  0  0
 50120  1  0  0  0
 51 52  1  0  0  0
 51121  1  0  0  0
 51122  1  0  0  0
 52123  1  0  0  0
 52124  1  0  0  0
 53 54  1  0  0  0
 54 55  2  0  0  0
 54125  1  0  0  0
 55 57  1  0  0  0
 55126  1  0  0  0
 56 69  2  0  0  0
 57 58  2  0  0  0
 57127  1  0  0  0
 58128  1  0  0  0
 59 60  1  0  0  0
 59 61  1  0  0  0
 59 62  1  0  0  0
 60129  1  0  0  0
 60130  1  0  0  0
 60131  1  0  0  0
 61132  1  0  0  0
 61133  1  0  0  0
 61134  1  0  0  0
 62135  1  0  0  0
 62136  1  0  0  0
 62137  1  0  0  0
 63 65  1  0  0  0
 63138  1  0  0  0
 63139  1  0  0  0
 63140  1  0  0  0
 64141  1  0  0  0
 65142  1  0  0  0
 68 80  1  0  0  0
 71 72  2  0  0  0
 71 74  1  0  0  0
 71143  1  0  0  0
 72 75  1  0  0  0
 72144  1  0  0  0
 73 75  2  0  0  0
 73 76  1  0  0  0
 73145  1  0  0  0
 74 76  2  0  0  0
 74 78  1  0  0  0
 75 82  1  0  0  0
 76 81  1  0  0  0
 77 79  1  0  0  0
 77 81  1  0  0  0
 77 83  2  0  0  0
 78146  1  0  0  0
 78147  1  0  0  0
 78148  1  0  0  0
 79 80  1  0  0  0
 79149  1  0  0  0
 79150  1  0  0  0
 80151  1  0  0  0
 80152  1  0  0  0
 81153  1  0  0  0
 82154  1  0  0  0
M  ISO  4   1 100  68 101  80 101  82 100
M  END
> <chiral flag>
0

> <version>
0

> <s_m_source_file>
/data/baiqing/PycharmProjects/Reinvent-master-3.2/result/LINK_invent/BTK/process_docking_weight1_custom_product_contain_oxygen_bond_distance_aromatic_linkinvent_7_9_3/rearranged_h_0068.sdf

> <i_m_source_file_index>
55

> <r_mmod_Potential_Energy-OPLS-2005>
157.177947998047

> <r_mmod_Stretch_Energy-OPLS-2005>
127.791641235352

> <r_mmod_Bend_Energy-OPLS-2005>
164.056900024414

> <r_mmod_Torsional_Energy-OPLS-2005>
252.723739624023

> <r_mmod_Improper_Torsional_Energy-OPLS-2005>
5.17714500427246

> <r_mmod_Van_der_Waal_Energy-OPLS-2005>
155.772583007812

> <r_mmod_Electrostatic_Energy-OPLS-2005>
-403.130828857422

> <r_mmod_Solvation_Energy-OPLS-2005>
-234.143692016602

> <b_mmod_Minimization_Converged-OPLS-2005>
0

> <r_mmod_RMS_Derivative-OPLS-2005>
2.58430528640747

$$$$
55
                    3D
 Structure written by MMmdl.
163172  0  0  1  0            999 V2000
  -30.5489  -14.8764   20.4849 C   0  0  0  0  0  0
  -30.4545  -12.5663   19.4627 C   0  0  0  0  0  0
  -29.5188  -12.5254   18.2343 C   0  0  0  0  0  0
  -28.0532  -12.3175   18.6614 C   0  0  0  0  0  0
  -27.6368  -13.2354   19.8393 C   0  0  2  0  0  0
  -28.6821  -13.2137   20.9756 C   0  0  0  0  0  0
  -25.2479  -13.8097   20.5661 C   0  0  0  0  0  0
  -24.1808  -13.0362   20.9193 C   0  0  0  0  0  0
  -24.6389  -11.6842   20.8698 C   0  0  0  0  0  0
  -23.9019  -10.4245   21.0362 C   0  0  0  0  0  0
  -24.3581   -9.4190   21.9160 C   0  0  0  0  0  0
  -23.6277   -8.2219   22.0742 C   0  0  0  0  0  0
  -22.4271   -8.0225   21.3525 C   0  0  0  0  0  0
  -21.9872   -9.0173   20.4629 C   0  0  0  0  0  0
  -22.7162  -10.2079   20.3027 C   0  0  0  0  0  0
  -21.6876   -6.0692   22.5252 C   0  0  0  0  0  0
  -21.4007   -6.5625   23.8160 C   0  0  0  0  0  0
  -21.3654   -5.6788   24.9132 C   0  0  0  0  0  0
  -21.6061   -4.3047   24.7207 C   0  0  0  0  0  0
  -21.8812   -3.8121   23.4334 C   0  0  0  0  0  0
  -21.9208   -4.6925   22.3391 C   0  0  0  0  0  0
  -22.7839  -13.5124   21.1853 C   0  0  0  0  0  0
  -22.1685   -4.2122   21.0964 F   0  0  0  0  0  0
  -21.5650   -3.4531   25.7725 F   0  0  0  0  0  0
  -29.9573  -13.6300   20.3773 N   0  0  0  0  0  0
  -26.2913  -12.9351   20.3181 N   0  0  0  0  0  0
  -25.9332  -11.6500   20.5681 N   0  0  0  0  0  0
  -22.0518  -12.8142   22.0424 N   0  0  0  0  0  0
  -25.4095  -15.1842   20.4125 N   0  0  0  0  0  0
  -31.7590  -14.9685   20.2501 O   0  0  0  0  0  0
  -21.6646   -6.8827   21.4217 O   0  0  0  0  0  0
  -22.3556  -14.5449   20.6692 O   0  0  0  0  0  0
  -24.6346  -31.8514   23.1896 C   0  0  0  0  0  0
  -25.9125  -32.4739   23.8314 C   0  0  1  0  0  0
  -27.2167  -27.2079   20.1517 C   0  0  0  0  0  0
  -25.5910  -33.8533   24.2232 N   0  0  0  0  0  0
  -23.4366  -30.4779   21.5297 C   0  0  2  0  0  0
  -24.8846  -28.9110   20.1049 C   0  0  0  0  0  0
  -22.7481  -29.4644   22.4794 C   0  0  0  0  0  0
  -18.0309  -28.1382   22.8497 C   0  0  0  0  0  0
  -24.1493  -36.7290   23.2653 C   0  0  0  0  0  0
  -25.9847  -30.7485   21.3771 C   0  0  0  0  0  0
  -26.0586  -29.3664   20.7191 C   0  0  0  0  0  0
  -27.2270  -28.5294   20.7250 C   0  0  0  0  0  0
  -26.0230  -26.8321   19.5039 C   0  0  0  0  0  0
  -24.8772  -27.6560   19.4764 C   0  0  0  0  0  0
  -23.6592  -29.8078   20.1488 C   0  0  0  0  0  0
  -25.4106  -36.3054   24.0341 C   0  0  1  0  0  0
  -20.5918  -28.3725   23.1215 C   0  0  2  0  0  0
  -20.6787  -26.9420   22.5381 C   0  0  0  0  0  0
  -19.5766  -26.6381   21.5182 C   0  0  0  0  0  0
  -18.1955  -26.7929   22.1614 C   0  0  0  0  0  0
  -19.1564  -28.8863   23.2887 C   0  0  0  0  0  0
  -18.9478  -30.1457   23.8936 C   0  0  0  0  0  0
  -17.6473  -30.6597   24.0572 C   0  0  0  0  0  0
  -25.9046  -34.9424   23.5075 C   0  0  0  0  0  0
  -16.5367  -29.9091   23.6330 C   0  0  0  0  0  0
  -16.7289  -28.6489   23.0379 C   0  0  0  0  0  0
  -26.4492  -31.6588   25.0727 C   0  0  0  0  0  0
  -25.3722  -31.3702   26.1443 C   0  0  0  0  0  0
  -27.0373  -30.3018   24.6237 C   0  0  0  0  0  0
  -27.6060  -32.4321   25.7490 C   0  0  0  0  0  0
  -27.5578  -37.1785   24.8465 C   0  0  0  0  0  0
  -21.4193  -29.3058   22.3530 N   0  0  0  0  0  0
  -26.4295  -37.3744   23.9403 N   0  0  0  0  0  0
  -24.7061  -31.0425   22.0893 N   0  0  0  0  0  0
  -23.4135  -28.8156   23.2897 O   0  0  0  0  0  0
  -28.2942  -26.2751   20.1828 O   0  0  0  0  0  0
  -26.5608  -34.8899   22.4642 O   0  0  0  0  0  0
  -23.5476  -32.1328   23.7184 O   0  0  0  0  0  0
  -29.8796  -20.1184   22.1126 C   0  0  0  0  0  0
  -30.3399  -17.7132   22.3105 C   0  0  0  0  0  0
  -29.4295  -20.0419   20.7748 C   0  0  0  0  0  0
  -30.3367  -19.0166   22.8667 C   0  0  0  0  0  0
  -29.8894  -17.4590   20.9913 C   0  0  0  0  0  0
  -29.4326  -18.6558   20.2554 C   0  0  0  0  0  0
  -29.7440  -22.6314   20.1855 C   0  0  0  0  0  0
  -31.4547  -21.6798   26.7164 C   0  0  0  0  0  0
  -31.1600  -20.4996   26.1321 C   0  0  0  0  0  0
  -31.3844  -20.2835   24.7105 C   0  0  0  0  0  0
  -27.8124  -22.0389   20.4526 C   0  0  0  0  0  0
  -28.3864  -23.4253   19.9085 C   0  0  2  0  0  0
  -28.1867  -23.6800   18.4168 C   0  0  0  0  0  0
  -28.0610  -24.8472   20.6771 C   0  0  0  0  0  0
  -29.0916  -21.3647   20.1369 N   0  0  0  0  0  0
  -30.6977  -19.2249   24.2330 N   0  0  0  0  0  0
  -29.7193  -16.0142   20.5633 N   0  0  0  0  0  0
  -30.8932  -22.9163   20.4706 O   0  0  0  0  0  0
  -32.1462  -20.9578   24.0088 O   0  0  0  0  0  0
  -28.9722  -18.4721   18.9952 F   0  0  0  0  0  0
  -31.4840  -12.7452   19.1330 H   0  0  0  0  0  0
  -30.4800  -11.6074   19.9754 H   0  0  0  0  0  0
  -29.8215  -11.7224   17.5580 H   0  0  0  0  0  0
  -29.6211  -13.4648   17.6843 H   0  0  0  0  0  0
  -27.9554  -11.2794   18.9774 H   0  0  0  0  0  0
  -27.3812  -12.4389   17.8073 H   0  0  0  0  0  0
  -27.6172  -14.2486   19.4471 H   0  0  0  0  0  0
  -28.7667  -12.2152   21.4031 H   0  0  0  0  0  0
  -28.3896  -13.8807   21.7913 H   0  0  0  0  0  0
  -25.2731   -9.5730   22.4707 H   0  0  0  0  0  0
  -24.0023   -7.4635   22.7501 H   0  0  0  0  0  0
  -21.0774   -8.8622   19.8955 H   0  0  0  0  0  0
  -22.3543  -10.9596   19.6132 H   0  0  0  0  0  0
  -21.1965   -7.6136   23.9641 H   0  0  0  0  0  0
  -21.1508   -6.0533   25.9034 H   0  0  0  0  0  0
  -22.0614   -2.7588   23.2822 H   0  0  0  0  0  0
  -22.4165  -11.9850   22.4891 H   0  0  0  0  0  0
  -21.1102  -13.1125   22.2534 H   0  0  0  0  0  0
  -24.6218  -15.8169   20.5102 H   0  0  0  0  0  0
  -26.2272  -15.6353   20.0258 H   0  0  0  0  0  0
  -26.7188  -32.5361   23.1066 H   0  0  0  0  0  0
  -25.0083  -33.9656   25.0390 H   0  0  0  0  0  0
  -22.7308  -31.3007   21.3781 H   0  0  0  0  0  0
  -23.3763  -35.9631   23.3282 H   0  0  0  0  0  0
  -24.3614  -36.8930   22.2087 H   0  0  0  0  0  0
  -23.7213  -37.6465   23.6677 H   0  0  0  0  0  0
  -26.1105  -31.5025   20.6025 H   0  0  0  0  0  0
  -26.8650  -30.8118   22.0058 H   0  0  0  0  0  0
  -28.1284  -28.8657   21.2171 H   0  0  0  0  0  0
  -25.9607  -25.8627   19.0277 H   0  0  0  0  0  0
  -23.9796  -27.2981   18.9914 H   0  0  0  0  0  0
  -23.7723  -30.5814   19.3876 H   0  0  0  0  0  0
  -22.7759  -29.2435   19.8516 H   0  0  0  0  0  0
  -25.1273  -36.1939   25.0842 H   0  0  0  0  0  0
  -21.0103  -28.3332   24.1303 H   0  0  0  0  0  0
  -20.5663  -26.2319   23.3582 H   0  0  0  0  0  0
  -21.6652  -26.7396   22.1174 H   0  0  0  0  0  0
  -19.6919  -25.6273   21.1229 H   0  0  0  0  0  0
  -19.6735  -27.3176   20.6691 H   0  0  0  0  0  0
  -17.4190  -26.6688   21.4033 H   0  0  0  0  0  0
  -18.0415  -26.0075   22.9029 H   0  0  0  0  0  0
  -19.7954  -30.7281   24.2314 H   0  0  0  0  0  0
  -17.5020  -31.6296   24.5137 H   0  0  0  0  0  0
  -15.5367  -30.2999   23.7632 H   0  0  0  0  0  0
  -15.8692  -28.0804   22.7095 H   0  0  0  0  0  0
  -24.5927  -30.7041   25.7698 H   0  0  0  0  0  0
  -24.8937  -32.2891   26.4865 H   0  0  0  0  0  0
  -25.8100  -30.8842   27.0194 H   0  0  0  0  0  0
  -26.2995  -29.6719   24.1298 H   0  0  0  0  0  0
  -27.4056  -29.7296   25.4753 H   0  0  0  0  0  0
  -27.8833  -30.4243   23.9490 H   0  0  0  0  0  0
  -27.2693  -33.3624   26.2064 H   0  0  0  0  0  0
  -28.3905  -32.6886   25.0350 H   0  0  0  0  0  0
  -28.0724  -31.8467   26.5418 H   0  0  0  0  0  0
  -28.2556  -38.0113   24.7500 H   0  0  0  0  0  0
  -28.1105  -36.2627   24.6307 H   0  0  0  0  0  0
  -27.2299  -37.1441   25.8870 H   0  0  0  0  0  0
  -20.9278  -29.8826   21.6830 H   0  0  0  0  0  0
  -26.0187  -38.2820   24.1423 H   0  0  0  0  0  0
  -29.8656  -21.0876   22.5970 H   0  0  0  0  0  0
  -30.6289  -16.8869   22.9394 H   0  0  0  0  0  0
  -31.2930  -21.8383   27.7746 H   0  0  0  0  0  0
  -31.8679  -22.5110   26.1613 H   0  0  0  0  0  0
  -30.7534  -19.7056   26.7362 H   0  0  0  0  0  0
  -26.9733  -21.6255   19.8844 H   0  0  0  0  0  0
  -27.5999  -22.0581   21.5281 H   0  0  0  0  0  0
  -28.7460  -24.5640   18.1085 H   0  0  0  0  0  0
  -27.1335  -23.8451   18.1887 H   0  0  0  0  0  0
  -28.5180  -22.8403   17.8057 H   0  0  0  0  0  0
  -28.5621  -24.8205   21.6462 H   0  0  0  0  0  0
  -27.0117  -24.7981   20.9687 H   0  0  0  0  0  0
  -30.2447  -18.6323   24.9195 H   0  0  0  0  0  0
  -28.7467  -15.7581   20.4900 H   0  0  0  0  0  0
  1 25  1  0  0  0
  1 30  2  0  0  0
  1 87  1  0  0  0
  2  3  1  0  0  0
  2 25  1  0  0  0
  2 91  1  0  0  0
  2 92  1  0  0  0
  3  4  1  0  0  0
  3 93  1  0  0  0
  3 94  1  0  0  0
  4  5  1  0  0  0
  4 95  1  0  0  0
  4 96  1  0  0  0
  5  6  1  0  0  0
  5 26  1  0  0  0
  5 97  1  0  0  0
  6 25  1  0  0  0
  6 98  1  0  0  0
  6 99  1  0  0  0
  7  8  2  0  0  0
  7 26  1  0  0  0
  7 29  1  0  0  0
  8  9  1  0  0  0
  8 22  1  0  0  0
  9 10  1  0  0  0
  9 27  2  0  0  0
 10 11  2  0  0  0
 10 15  1  0  0  0
 11 12  1  0  0  0
 11100  1  0  0  0
 12 13  2  0  0  0
 12101  1  0  0  0
 13 14  1  0  0  0
 13 31  1  0  0  0
 14 15  2  0  0  0
 14102  1  0  0  0
 15103  1  0  0  0
 16 17  2  0  0  0
 16 21  1  0  0  0
 16 31  1  0  0  0
 17 18  1  0  0  0
 17104  1  0  0  0
 18 19  2  0  0  0
 18105  1  0  0  0
 19 20  1  0  0  0
 19 24  1  0  0  0
 20 21  2  0  0  0
 20106  1  0  0  0
 21 23  1  0  0  0
 22 28  1  0  0  0
 22 32  2  0  0  0
 26 27  1  0  0  0
 28107  1  0  0  0
 28108  1  0  0  0
 29109  1  0  0  0
 29110  1  0  0  0
 33 34  1  0  0  0
 33 66  1  0  0  0
 33 70  2  0  0  0
 34 36  1  0  0  0
 34 59  1  0  0  0
 34111  1  0  0  0
 35 44  2  0  0  0
 35 45  1  0  0  0
 35 68  1  0  0  0
 36 56  1  0  0  0
 36112  1  0  0  0
 37 39  1  0  0  0
 37 47  1  0  0  0
 37 66  1  0  0  0
 37113  1  0  0  0
 38 43  2  0  0  0
 38 46  1  0  0  0
 38 47  1  0  0  0
 39 64  1  0  0  0
 39 67  2  0  0  0
 40 52  1  0  0  0
 40 53  2  0  0  0
 40 58  1  0  0  0
 41114  1  0  0  0
 41115  1  0  0  0
 41116  1  0  0  0
 41 48  1  0  0  0
 42 43  1  0  0  0
 42 66  1  0  0  0
 42117  1  0  0  0
 42118  1  0  0  0
 43 44  1  0  0  0
 44119  1  0  0  0
 45 46  2  0  0  0
 45120  1  0  0  0
 46121  1  0  0  0
 47122  1  0  0  0
 47123  1  0  0  0
 48 56  1  0  0  0
 48 65  1  0  0  0
 48124  1  0  0  0
 49 50  1  0  0  0
 49 53  1  0  0  0
 49 64  1  0  0  0
 49125  1  0  0  0
 50 51  1  0  0  0
 50126  1  0  0  0
 50127  1  0  0  0
 51 52  1  0  0  0
 51128  1  0  0  0
 51129  1  0  0  0
 52130  1  0  0  0
 52131  1  0  0  0
 53 54  1  0  0  0
 54 55  2  0  0  0
 54132  1  0  0  0
 55 57  1  0  0  0
 55133  1  0  0  0
 56 69  2  0  0  0
 57 58  2  0  0  0
 57134  1  0  0  0
 58135  1  0  0  0
 59 60  1  0  0  0
 59 61  1  0  0  0
 59 62  1  0  0  0
 60136  1  0  0  0
 60137  1  0  0  0
 60138  1  0  0  0
 61139  1  0  0  0
 61140  1  0  0  0
 61141  1  0  0  0
 62142  1  0  0  0
 62143  1  0  0  0
 62144  1  0  0  0
 63 65  1  0  0  0
 63145  1  0  0  0
 63146  1  0  0  0
 63147  1  0  0  0
 64148  1  0  0  0
 65149  1  0  0  0
 68 84  1  0  0  0
 71 73  2  0  0  0
 71 74  1  0  0  0
 71150  1  0  0  0
 72 74  2  0  0  0
 72 75  1  0  0  0
 72151  1  0  0  0
 73 76  1  0  0  0
 73 85  1  0  0  0
 74 86  1  0  0  0
 75 76  2  0  0  0
 75 87  1  0  0  0
 76 90  1  0  0  0
 77 82  1  0  0  0
 77 85  1  0  0  0
 77 88  2  0  0  0
 78 79  2  0  0  0
 78152  1  0  0  0
 78153  1  0  0  0
 79 80  1  0  0  0
 79154  1  0  0  0
 80 86  1  0  0  0
 80 89  2  0  0  0
 81 82  1  0  0  0
 81 85  1  0  0  0
 81155  1  0  0  0
 81156  1  0  0  0
 82 83  1  0  0  0
 82 84  1  0  0  0
 83157  1  0  0  0
 83158  1  0  0  0
 83159  1  0  0  0
 84160  1  0  0  0
 84161  1  0  0  0
 86162  1  0  0  0
 87163  1  0  0  0
M  ISO  4   1 100  68 101  84 101  87 100
M  END
> <chiral flag>
0

> <version>
0

> <s_m_source_file>
/data/baiqing/PycharmProjects/Reinvent-master-3.2/result/LINK_invent/BTK/process_docking_weight1_custom_product_contain_oxygen_bond_distance_aromatic_linkinvent_7_9_3/rearranged_h_0068.sdf

> <i_m_source_file_index>
56

> <r_mmod_Potential_Energy-OPLS-2005>
350.864349365234

> <r_mmod_Stretch_Energy-OPLS-2005>
173.777816772461

> <r_mmod_Bend_Energy-OPLS-2005>
224.365158081055

> <r_mmod_Torsional_Energy-OPLS-2005>
326.566436767578

> <r_mmod_Improper_Torsional_Energy-OPLS-2005>
15.4661283493042

> <r_mmod_Van_der_Waal_Energy-OPLS-2005>
131.11669921875

> <r_mmod_Electrostatic_Energy-OPLS-2005>
-397.20703125

> <r_mmod_Solvation_Energy-OPLS-2005>
-264.558166503906

> <b_mmod_Minimization_Converged-OPLS-2005>
0

> <r_mmod_RMS_Derivative-OPLS-2005>
9.66976642608643

$$$$
56
                    3D
 Structure written by MMmdl.
170179  0  0  1  0            999 V2000
  -30.6198  -14.6533   20.4811 C   0  0  0  0  0  0
  -30.4421  -12.3994   19.4461 C   0  0  0  0  0  0
  -29.5067  -12.5063   18.2210 C   0  0  0  0  0  0
  -28.0302  -12.3395   18.6358 C   0  0  0  0  0  0
  -27.6506  -13.2107   19.8625 C   0  0  2  0  0  0
  -28.7019  -13.0809   20.9885 C   0  0  0  0  0  0
  -25.2529  -13.8098   20.5721 C   0  0  0  0  0  0
  -24.1801  -13.0374   20.9210 C   0  0  0  0  0  0
  -24.6385  -11.6859   20.8750 C   0  0  0  0  0  0
  -23.9056  -10.4258   21.0409 C   0  0  0  0  0  0
  -24.3608   -9.4180   21.9190 C   0  0  0  0  0  0
  -23.6279   -8.2220   22.0757 C   0  0  0  0  0  0
  -22.4263   -8.0263   21.3542 C   0  0  0  0  0  0
  -21.9900   -9.0238   20.4646 C   0  0  0  0  0  0
  -22.7230  -10.2113   20.3056 C   0  0  0  0  0  0
  -21.6843   -6.0729   22.5281 C   0  0  0  0  0  0
  -21.4006   -6.5635   23.8214 C   0  0  0  0  0  0
  -21.3657   -5.6789   24.9177 C   0  0  0  0  0  0
  -21.6044   -4.3053   24.7228 C   0  0  0  0  0  0
  -21.8822   -3.8144   23.4350 C   0  0  0  0  0  0
  -21.9189   -4.6959   22.3405 C   0  0  0  0  0  0
  -22.7830  -13.5189   21.1864 C   0  0  0  0  0  0
  -22.1657   -4.2147   21.0981 F   0  0  0  0  0  0
  -21.5632   -3.4538   25.7741 F   0  0  0  0  0  0
  -30.0142  -13.4248   20.4163 N   0  0  0  0  0  0
  -26.2975  -12.9296   20.3339 N   0  0  0  0  0  0
  -25.9315  -11.6456   20.5768 N   0  0  0  0  0  0
  -22.0463  -12.8199   22.0423 N   0  0  0  0  0  0
  -25.4162  -15.1808   20.4176 N   0  0  0  0  0  0
  -31.7994  -14.8104   20.1534 O   0  0  0  0  0  0
  -21.6622   -6.8868   21.4242 O   0  0  0  0  0  0
  -22.3531  -14.5502   20.6708 O   0  0  0  0  0  0
  -24.6253  -31.8613   23.2047 C   0  0  0  0  0  0
  -25.9107  -32.4787   23.8371 C   0  0  1  0  0  0
  -27.2254  -27.3276   20.1203 C   0  0  0  0  0  0
  -25.5928  -33.8590   24.2297 N   0  0  0  0  0  0
  -23.4185  -30.4851   21.5470 C   0  0  2  0  0  0
  -24.8663  -28.9427   20.1130 C   0  0  0  0  0  0
  -22.7466  -29.4632   22.4947 C   0  0  0  0  0  0
  -18.0284  -28.1380   22.8493 C   0  0  0  0  0  0
  -24.1489  -36.7296   23.2637 C   0  0  0  0  0  0
  -25.9593  -30.7939   21.3763 C   0  0  0  0  0  0
  -26.0344  -29.4215   20.7205 C   0  0  0  0  0  0
  -27.2176  -28.6253   20.7161 C   0  0  0  0  0  0
  -26.0411  -26.9114   19.4700 C   0  0  0  0  0  0
  -24.8715  -27.6924   19.4779 C   0  0  0  0  0  0
  -23.6333  -29.8209   20.1621 C   0  0  0  0  0  0
  -25.4115  -36.3094   24.0329 C   0  0  1  0  0  0
  -20.5882  -28.3690   23.1287 C   0  0  2  0  0  0
  -20.6777  -26.9415   22.5412 C   0  0  0  0  0  0
  -19.5751  -26.6386   21.5218 C   0  0  0  0  0  0
  -18.1929  -26.7926   22.1627 C   0  0  0  0  0  0
  -19.1534  -28.8852   23.2887 C   0  0  0  0  0  0
  -18.9458  -30.1454   23.8905 C   0  0  0  0  0  0
  -17.6458  -30.6586   24.0566 C   0  0  0  0  0  0
  -25.9052  -34.9461   23.5114 C   0  0  0  0  0  0
  -16.5351  -29.9084   23.6329 C   0  0  0  0  0  0
  -16.7272  -28.6497   23.0359 C   0  0  0  0  0  0
  -26.4499  -31.6585   25.0732 C   0  0  0  0  0  0
  -25.3735  -31.3708   26.1455 C   0  0  0  0  0  0
  -27.0340  -30.3011   24.6175 C   0  0  0  0  0  0
  -27.6061  -32.4314   25.7501 C   0  0  0  0  0  0
  -27.5583  -37.1803   24.8465 C   0  0  0  0  0  0
  -21.4181  -29.3046   22.3682 N   0  0  0  0  0  0
  -26.4295  -37.3786   23.9411 N   0  0  0  0  0  0
  -24.6863  -31.0630   22.0996 N   0  0  0  0  0  0
  -23.4192  -28.8172   23.3024 O   0  0  0  0  0  0
  -28.3404  -26.4772   20.1516 O   0  0  0  0  0  0
  -26.5616  -34.8922   22.4679 O   0  0  0  0  0  0
  -23.5418  -32.1409   23.7378 O   0  0  0  0  0  0
  -30.8873  -19.3378   21.2662 C   0  0  0  0  0  0
  -30.8894  -17.9095   21.2755 C   0  0  0  0  0  0
  -28.9650  -19.3455   19.8336 C   0  0  0  0  0  0
  -28.9707  -17.9181   19.8201 C   0  0  0  0  0  0
  -29.9160  -20.1081   20.5568 C   0  0  0  0  0  0
  -29.9209  -17.1557   20.5656 C   0  0  0  0  0  0
  -30.9389  -22.4127   20.7412 C   0  0  0  0  0  0
  -28.6767  -22.4381   20.3958 C   0  0  0  0  0  0
  -30.5308  -23.9115   20.8080 C   0  0  2  0  0  0
  -29.1392  -23.9199   20.0807 C   0  0  1  0  0  0
  -27.9219  -17.2329   18.9661 C   0  0  0  0  0  0
  -31.5764  -24.8084   20.0957 C   0  0  0  0  0  0
  -29.2574  -24.0163   18.5373 C   0  0  0  0  0  0
  -31.6499  -24.2144   23.1994 C   0  0  0  0  0  0
  -30.4041  -24.3557   22.3013 C   0  0  0  0  0  0
  -28.1011  -25.0590   20.5141 C   0  0  0  0  0  0
  -29.8842  -21.5854   20.5655 N   0  0  0  0  0  0
  -29.7735  -15.7064   20.7076 N   0  0  0  0  0  0
  -32.1223  -22.0618   20.8075 O   0  0  0  0  0  0
  -31.4817  -12.5326   19.1406 H   0  0  0  0  0  0
  -30.3840  -11.4060   19.8930 H   0  0  0  0  0  0
  -29.7723  -11.7546   17.4767 H   0  0  0  0  0  0
  -29.6441  -13.4746   17.7374 H   0  0  0  0  0  0
  -27.8703  -11.2862   18.8683 H   0  0  0  0  0  0
  -27.3747  -12.5668   17.7943 H   0  0  0  0  0  0
  -27.6577  -14.2409   19.5143 H   0  0  0  0  0  0
  -28.7194  -12.0633   21.3816 H   0  0  0  0  0  0
  -28.4518  -13.7240   21.8341 H   0  0  0  0  0  0
  -25.2755   -9.5653   22.4767 H   0  0  0  0  0  0
  -23.9985   -7.4609   22.7476 H   0  0  0  0  0  0
  -21.0831   -8.8756   19.8952 H   0  0  0  0  0  0
  -22.3694  -10.9653   19.6164 H   0  0  0  0  0  0
  -21.1994   -7.6143   23.9718 H   0  0  0  0  0  0
  -21.1477   -6.0519   25.9080 H   0  0  0  0  0  0
  -22.0604   -2.7607   23.2851 H   0  0  0  0  0  0
  -22.4061  -11.9851   22.4808 H   0  0  0  0  0  0
  -21.1088  -13.1248   22.2627 H   0  0  0  0  0  0
  -24.6414  -15.8260   20.5271 H   0  0  0  0  0  0
  -26.2585  -15.6258   20.0832 H   0  0  0  0  0  0
  -26.7174  -32.5463   23.1120 H   0  0  0  0  0  0
  -25.0079  -33.9742   25.0444 H   0  0  0  0  0  0
  -22.7126  -31.3059   21.4047 H   0  0  0  0  0  0
  -23.3758  -35.9620   23.3296 H   0  0  0  0  0  0
  -24.3581  -36.8920   22.2053 H   0  0  0  0  0  0
  -23.7233  -37.6493   23.6660 H   0  0  0  0  0  0
  -26.0899  -31.5568   20.6078 H   0  0  0  0  0  0
  -26.8400  -30.8432   22.0048 H   0  0  0  0  0  0
  -28.1132  -28.9877   21.2013 H   0  0  0  0  0  0
  -25.9999  -25.9726   18.9388 H   0  0  0  0  0  0
  -23.9817  -27.3264   18.9841 H   0  0  0  0  0  0
  -23.7506  -30.5978   19.4055 H   0  0  0  0  0  0
  -22.7542  -29.2484   19.8608 H   0  0  0  0  0  0
  -25.1295  -36.1952   25.0821 H   0  0  0  0  0  0
  -20.9976  -28.3267   24.1408 H   0  0  0  0  0  0
  -20.5689  -26.2302   23.3611 H   0  0  0  0  0  0
  -21.6645  -26.7455   22.1200 H   0  0  0  0  0  0
  -19.6917  -25.6299   21.1243 H   0  0  0  0  0  0
  -19.6683  -27.3201   20.6751 H   0  0  0  0  0  0
  -17.4202  -26.6680   21.4025 H   0  0  0  0  0  0
  -18.0326  -26.0061   22.9016 H   0  0  0  0  0  0
  -19.7933  -30.7269   24.2276 H   0  0  0  0  0  0
  -17.5012  -31.6266   24.5167 H   0  0  0  0  0  0
  -15.5351  -30.2993   23.7644 H   0  0  0  0  0  0
  -15.8670  -28.0816   22.7081 H   0  0  0  0  0  0
  -24.5920  -30.7049   25.7776 H   0  0  0  0  0  0
  -24.8912  -32.2865   26.4886 H   0  0  0  0  0  0
  -25.8063  -30.8881   27.0226 H   0  0  0  0  0  0
  -26.2909  -29.6761   24.1208 H   0  0  0  0  0  0
  -27.4050  -29.7267   25.4673 H   0  0  0  0  0  0
  -27.8774  -30.4301   23.9388 H   0  0  0  0  0  0
  -27.2681  -33.3617   26.2080 H   0  0  0  0  0  0
  -28.3873  -32.6868   25.0329 H   0  0  0  0  0  0
  -28.0728  -31.8436   26.5416 H   0  0  0  0  0  0
  -28.2598  -38.0105   24.7528 H   0  0  0  0  0  0
  -28.1084  -36.2638   24.6275 H   0  0  0  0  0  0
  -27.2299  -37.1434   25.8866 H   0  0  0  0  0  0
  -20.9357  -29.8767   21.6891 H   0  0  0  0  0  0
  -26.0178  -38.2860   24.1417 H   0  0  0  0  0  0
  -31.6427  -19.8373   21.8557 H   0  0  0  0  0  0
  -31.6281  -17.3954   21.8743 H   0  0  0  0  0  0
  -28.2098  -19.8592   19.2565 H   0  0  0  0  0  0
  -28.0111  -22.0521   19.6243 H   0  0  0  0  0  0
  -28.1173  -22.4087   21.3320 H   0  0  0  0  0  0
  -27.6942  -17.8327   18.0843 H   0  0  0  0  0  0
  -27.0011  -17.1182   19.5326 H   0  0  0  0  0  0
  -28.2573  -16.2607   18.6074 H   0  0  0  0  0  0
  -31.8141  -24.4485   19.0947 H   0  0  0  0  0  0
  -32.5241  -24.8406   20.6305 H   0  0  0  0  0  0
  -31.2169  -25.8334   20.0044 H   0  0  0  0  0  0
  -29.9385  -23.2728   18.1220 H   0  0  0  0  0  0
  -29.6056  -25.0003   18.2215 H   0  0  0  0  0  0
  -28.2884  -23.8641   18.0602 H   0  0  0  0  0  0
  -31.4228  -24.5441   24.2136 H   0  0  0  0  0  0
  -32.4821  -24.8239   22.8494 H   0  0  0  0  0  0
  -31.9931  -23.1823   23.2720 H   0  0  0  0  0  0
  -29.5950  -23.7994   22.7771 H   0  0  0  0  0  0
  -30.1025  -25.4033   22.3354 H   0  0  0  0  0  0
  -27.9466  -25.0319   21.5920 H   0  0  0  0  0  0
  -27.1448  -24.7170   20.1276 H   0  0  0  0  0  0
  -28.8236  -15.4001   20.8438 H   0  0  0  0  0  0
  1 25  1  0  0  0
  1 30  2  0  0  0
  1 88  1  0  0  0
  2  3  1  0  0  0
  2 25  1  0  0  0
  2 90  1  0  0  0
  2 91  1  0  0  0
  3  4  1  0  0  0
  3 92  1  0  0  0
  3 93  1  0  0  0
  4  5  1  0  0  0
  4 94  1  0  0  0
  4 95  1  0  0  0
  5  6  1  0  0  0
  5 26  1  0  0  0
  5 96  1  0  0  0
  6 25  1  0  0  0
  6 97  1  0  0  0
  6 98  1  0  0  0
  7  8  2  0  0  0
  7 26  1  0  0  0
  7 29  1  0  0  0
  8  9  1  0  0  0
  8 22  1  0  0  0
  9 10  1  0  0  0
  9 27  2  0  0  0
 10 11  2  0  0  0
 10 15  1  0  0  0
 11 12  1  0  0  0
 11 99  1  0  0  0
 12 13  2  0  0  0
 12100  1  0  0  0
 13 14  1  0  0  0
 13 31  1  0  0  0
 14 15  2  0  0  0
 14101  1  0  0  0
 15102  1  0  0  0
 16 17  2  0  0  0
 16 21  1  0  0  0
 16 31  1  0  0  0
 17 18  1  0  0  0
 17103  1  0  0  0
 18 19  2  0  0  0
 18104  1  0  0  0
 19 20  1  0  0  0
 19 24  1  0  0  0
 20 21  2  0  0  0
 20105  1  0  0  0
 21 23  1  0  0  0
 22 28  1  0  0  0
 22 32  2  0  0  0
 26 27  1  0  0  0
 28106  1  0  0  0
 28107  1  0  0  0
 29108  1  0  0  0
 29109  1  0  0  0
 33 34  1  0  0  0
 33 66  1  0  0  0
 33 70  2  0  0  0
 34 36  1  0  0  0
 34 59  1  0  0  0
 34110  1  0  0  0
 35 44  2  0  0  0
 35 45  1  0  0  0
 35 68  1  0  0  0
 36 56  1  0  0  0
 36111  1  0  0  0
 37 39  1  0  0  0
 37 47  1  0  0  0
 37 66  1  0  0  0
 37112  1  0  0  0
 38 43  2  0  0  0
 38 46  1  0  0  0
 38 47  1  0  0  0
 39 64  1  0  0  0
 39 67  2  0  0  0
 40 52  1  0  0  0
 40 53  2  0  0  0
 40 58  1  0  0  0
 41113  1  0  0  0
 41114  1  0  0  0
 41115  1  0  0  0
 41 48  1  0  0  0
 42 43  1  0  0  0
 42 66  1  0  0  0
 42116  1  0  0  0
 42117  1  0  0  0
 43 44  1  0  0  0
 44118  1  0  0  0
 45 46  2  0  0  0
 45119  1  0  0  0
 46120  1  0  0  0
 47121  1  0  0  0
 47122  1  0  0  0
 48 56  1  0  0  0
 48 65  1  0  0  0
 48123  1  0  0  0
 49 50  1  0  0  0
 49 53  1  0  0  0
 49 64  1  0  0  0
 49124  1  0  0  0
 50 51  1  0  0  0
 50125  1  0  0  0
 50126  1  0  0  0
 51 52  1  0  0  0
 51127  1  0  0  0
 51128  1  0  0  0
 52129  1  0  0  0
 52130  1  0  0  0
 53 54  1  0  0  0
 54 55  2  0  0  0
 54131  1  0  0  0
 55 57  1  0  0  0
 55132  1  0  0  0
 56 69  2  0  0  0
 57 58  2  0  0  0
 57133  1  0  0  0
 58134  1  0  0  0
 59 60  1  0  0  0
 59 61  1  0  0  0
 59 62  1  0  0  0
 60135  1  0  0  0
 60136  1  0  0  0
 60137  1  0  0  0
 61138  1  0  0  0
 61139  1  0  0  0
 61140  1  0  0  0
 62141  1  0  0  0
 62142  1  0  0  0
 62143  1  0  0  0
 63 65  1  0  0  0
 63144  1  0  0  0
 63145  1  0  0  0
 63146  1  0  0  0
 64147  1  0  0  0
 65148  1  0  0  0
 68 86  1  0  0  0
 71 72  2  0  0  0
 71 75  1  0  0  0
 71149  1  0  0  0
 72 76  1  0  0  0
 72150  1  0  0  0
 73 74  1  0  0  0
 73 75  2  0  0  0
 73151  1  0  0  0
 74 76  2  0  0  0
 74 81  1  0  0  0
 75 87  1  0  0  0
 76 88  1  0  0  0
 77 79  1  0  0  0
 77 87  1  0  0  0
 77 89  2  0  0  0
 78 80  1  0  0  0
 78 87  1  0  0  0
 78152  1  0  0  0
 78153  1  0  0  0
 79 80  1  0  0  0
 79 82  1  0  0  0
 79 85  1  0  0  0
 80 83  1  0  0  0
 80 86  1  0  0  0
 81154  1  0  0  0
 81155  1  0  0  0
 81156  1  0  0  0
 82157  1  0  0  0
 82158  1  0  0  0
 82159  1  0  0  0
 83160  1  0  0  0
 83161  1  0  0  0
 83162  1  0  0  0
 84 85  1  0  0  0
 84163  1  0  0  0
 84164  1  0  0  0
 84165  1  0  0  0
 85166  1  0  0  0
 85167  1  0  0  0
 86168  1  0  0  0
 86169  1  0  0  0
 88170  1  0  0  0
M  ISO  4   1 100  68 101  86 101  88 100
M  END
> <chiral flag>
0

> <version>
0

> <s_m_source_file>
/data/baiqing/PycharmProjects/Reinvent-master-3.2/result/LINK_invent/BTK/process_docking_weight1_custom_product_contain_oxygen_bond_distance_aromatic_linkinvent_7_9_3/rearranged_h_0068.sdf

> <i_m_source_file_index>
57

> <r_mmod_Potential_Energy-OPLS-2005>
230.210647583008

> <r_mmod_Stretch_Energy-OPLS-2005>
85.2680358886719

> <r_mmod_Bend_Energy-OPLS-2005>
172.728973388672

> <r_mmod_Torsional_Energy-OPLS-2005>
314.529754638672

> <r_mmod_Improper_Torsional_Energy-OPLS-2005>
6.2535834312439

> <r_mmod_Van_der_Waal_Energy-OPLS-2005>
151.696166992188

> <r_mmod_Electrostatic_Energy-OPLS-2005>
-336.190826416016

> <r_mmod_Solvation_Energy-OPLS-2005>
-214.322906494141

> <b_mmod_Minimization_Converged-OPLS-2005>
0

> <r_mmod_RMS_Derivative-OPLS-2005>
0.545794188976288

$$$$
57
                    3D
 Structure written by MMmdl.
161169  0  0  1  0            999 V2000
  -30.6132  -14.7184   20.4579 C   0  0  0  0  0  0
  -30.4333  -12.4307   19.4508 C   0  0  0  0  0  0
  -29.5043  -12.4867   18.2204 C   0  0  0  0  0  0
  -28.0307  -12.3137   18.6432 C   0  0  0  0  0  0
  -27.6408  -13.2180   19.8438 C   0  0  2  0  0  0
  -28.6922  -13.1415   20.9692 C   0  0  0  0  0  0
  -25.2530  -13.8146   20.5677 C   0  0  0  0  0  0
  -24.1813  -13.0432   20.9183 C   0  0  0  0  0  0
  -24.6377  -11.6892   20.8735 C   0  0  0  0  0  0
  -23.9043  -10.4287   21.0399 C   0  0  0  0  0  0
  -24.3600   -9.4203   21.9172 C   0  0  0  0  0  0
  -23.6283   -8.2234   22.0748 C   0  0  0  0  0  0
  -22.4262   -8.0265   21.3540 C   0  0  0  0  0  0
  -21.9898   -9.0232   20.4633 C   0  0  0  0  0  0
  -22.7219  -10.2115   20.3043 C   0  0  0  0  0  0
  -21.6856   -6.0729   22.5270 C   0  0  0  0  0  0
  -21.4018   -6.5633   23.8205 C   0  0  0  0  0  0
  -21.3665   -5.6785   24.9168 C   0  0  0  0  0  0
  -21.6054   -4.3048   24.7216 C   0  0  0  0  0  0
  -21.8822   -3.8139   23.4335 C   0  0  0  0  0  0
  -21.9191   -4.6958   22.3395 C   0  0  0  0  0  0
  -22.7826  -13.5208   21.1852 C   0  0  0  0  0  0
  -22.1660   -4.2149   21.0973 F   0  0  0  0  0  0
  -21.5636   -3.4530   25.7728 F   0  0  0  0  0  0
  -29.9865  -13.4966   20.3706 N   0  0  0  0  0  0
  -26.2944  -12.9339   20.3258 N   0  0  0  0  0  0
  -25.9304  -11.6498   20.5729 N   0  0  0  0  0  0
  -22.0475  -12.8210   22.0401 N   0  0  0  0  0  0
  -25.4262  -15.1882   20.4142 N   0  0  0  0  0  0
  -31.8255  -14.8127   20.2454 O   0  0  0  0  0  0
  -21.6638   -6.8860   21.4225 O   0  0  0  0  0  0
  -22.3506  -14.5520   20.6684 O   0  0  0  0  0  0
  -24.6296  -31.8559   23.1961 C   0  0  0  0  0  0
  -25.9129  -32.4768   23.8299 C   0  0  1  0  0  0
  -27.2286  -27.2726   20.1357 C   0  0  0  0  0  0
  -25.5905  -33.8565   24.2213 N   0  0  0  0  0  0
  -23.4255  -30.4762   21.5444 C   0  0  2  0  0  0
  -24.8752  -28.9232   20.1145 C   0  0  0  0  0  0
  -22.7489  -29.4578   22.4945 C   0  0  0  0  0  0
  -18.0301  -28.1352   22.8537 C   0  0  0  0  0  0
  -24.1467  -36.7248   23.2651 C   0  0  0  0  0  0
  -25.9740  -30.7749   21.3760 C   0  0  0  0  0  0
  -26.0518  -29.4034   20.7059 C   0  0  0  0  0  0
  -27.2372  -28.5991   20.6889 C   0  0  0  0  0  0
  -26.0286  -26.8504   19.5299 C   0  0  0  0  0  0
  -24.8689  -27.6548   19.5117 C   0  0  0  0  0  0
  -23.6418  -29.8071   20.1632 C   0  0  0  0  0  0
  -25.4110  -36.3085   24.0330 C   0  0  1  0  0  0
  -20.5902  -28.3625   23.1311 C   0  0  2  0  0  0
  -20.6762  -26.9340   22.5437 C   0  0  0  0  0  0
  -19.5728  -26.6359   21.5246 C   0  0  0  0  0  0
  -18.1914  -26.7906   22.1666 C   0  0  0  0  0  0
  -19.1557  -28.8818   23.2916 C   0  0  0  0  0  0
  -18.9470  -30.1429   23.8924 C   0  0  0  0  0  0
  -17.6465  -30.6569   24.0552 C   0  0  0  0  0  0
  -25.9051  -34.9458   23.5075 C   0  0  0  0  0  0
  -16.5356  -29.9054   23.6348 C   0  0  0  0  0  0
  -16.7289  -28.6456   23.0412 C   0  0  0  0  0  0
  -26.4484  -31.6636   25.0725 C   0  0  0  0  0  0
  -25.3680  -31.3806   26.1428 C   0  0  0  0  0  0
  -27.0349  -30.3052   24.6267 C   0  0  0  0  0  0
  -27.6034  -32.4393   25.7498 C   0  0  0  0  0  0
  -27.5569  -37.1764   24.8473 C   0  0  0  0  0  0
  -21.4205  -29.2974   22.3686 N   0  0  0  0  0  0
  -26.4289  -37.3782   23.9419 N   0  0  0  0  0  0
  -24.6954  -31.0510   22.0954 N   0  0  0  0  0  0
  -23.4189  -28.8144   23.3058 O   0  0  0  0  0  0
  -28.3356  -26.3927   20.1317 O   0  0  0  0  0  0
  -26.5638  -34.8949   22.4649 O   0  0  0  0  0  0
  -23.5442  -32.1400   23.7240 O   0  0  0  0  0  0
  -29.5930  -18.4667   20.3356 C   0  0  0  0  0  0
  -30.2083  -19.7653   22.2998 C   0  0  0  0  0  0
  -30.5270  -17.3287   22.2725 C   0  0  0  0  0  0
  -29.6726  -19.7749   20.9823 C   0  0  0  0  0  0
  -30.0206  -17.2196   20.9638 C   0  0  0  0  0  0
  -30.5983  -18.5620   22.9507 C   0  0  0  0  0  0
  -28.9590  -22.3240   20.8742 C   0  0  0  0  0  0
  -27.6295  -23.2859   18.9046 C   0  0  0  0  0  0
  -30.0230  -23.9302   19.2163 C   0  0  0  0  0  0
  -30.7541  -19.5919   25.1168 C   0  0  0  0  0  0
  -28.2074  -25.0037   20.7091 C   0  0  0  0  0  0
  -28.7030  -23.6322   19.9533 C   0  0  0  0  0  0
  -29.2632  -21.0674   20.3418 N   0  0  0  0  0  0
  -29.8101  -15.8511   20.4312 N   0  0  0  0  0  0
  -28.8598  -22.4800   22.0937 O   0  0  0  0  0  0
  -31.0346  -18.4944   24.2573 O   0  0  0  0  0  0
  -31.4743  -12.5487   19.1471 H   0  0  0  0  0  0
  -30.3707  -11.4533   19.9339 H   0  0  0  0  0  0
  -29.7791  -11.7111   17.5051 H   0  0  0  0  0  0
  -29.6333  -13.4383   17.7058 H   0  0  0  0  0  0
  -27.8904  -11.2674   18.9140 H   0  0  0  0  0  0
  -27.3669  -12.4929   17.7972 H   0  0  0  0  0  0
  -27.6364  -14.2378   19.4625 H   0  0  0  0  0  0
  -28.7253  -12.1379   21.3983 H   0  0  0  0  0  0
  -28.4378  -13.8156   21.7884 H   0  0  0  0  0  0
  -25.2748   -9.5693   22.4742 H   0  0  0  0  0  0
  -24.0008   -7.4630   22.7471 H   0  0  0  0  0  0
  -21.0832   -8.8730   19.8934 H   0  0  0  0  0  0
  -22.3664  -10.9646   19.6147 H   0  0  0  0  0  0
  -21.2012   -7.6144   23.9706 H   0  0  0  0  0  0
  -21.1491   -6.0516   25.9073 H   0  0  0  0  0  0
  -22.0598   -2.7600   23.2831 H   0  0  0  0  0  0
  -22.4111  -11.9884   22.4809 H   0  0  0  0  0  0
  -21.1080  -13.1210   22.2600 H   0  0  0  0  0  0
  -24.6645  -15.8450   20.5452 H   0  0  0  0  0  0
  -26.2854  -15.6335   20.1210 H   0  0  0  0  0  0
  -26.7177  -32.5396   23.1009 H   0  0  0  0  0  0
  -25.0008  -33.9672   25.0333 H   0  0  0  0  0  0
  -22.7238  -31.3002   21.3949 H   0  0  0  0  0  0
  -23.3784  -35.9528   23.3354 H   0  0  0  0  0  0
  -24.3546  -36.8843   22.2062 H   0  0  0  0  0  0
  -23.7171  -37.6432   23.6654 H   0  0  0  0  0  0
  -26.1287  -31.5551   20.6286 H   0  0  0  0  0  0
  -26.8411  -30.8018   22.0255 H   0  0  0  0  0  0
  -28.1448  -28.9770   21.1388 H   0  0  0  0  0  0
  -25.9762  -25.8722   19.0765 H   0  0  0  0  0  0
  -23.9685  -27.2720   19.0512 H   0  0  0  0  0  0
  -23.7487  -30.5834   19.4048 H   0  0  0  0  0  0
  -22.7633  -29.2339   19.8642 H   0  0  0  0  0  0
  -25.1293  -36.1932   25.0826 H   0  0  0  0  0  0
  -21.0023  -28.3179   24.1421 H   0  0  0  0  0  0
  -20.5679  -26.2204   23.3617 H   0  0  0  0  0  0
  -21.6607  -26.7352   22.1201 H   0  0  0  0  0  0
  -19.6853  -25.6287   21.1228 H   0  0  0  0  0  0
  -19.6674  -27.3218   20.6813 H   0  0  0  0  0  0
  -17.4183  -26.6741   21.4060 H   0  0  0  0  0  0
  -18.0250  -26.0027   22.9032 H   0  0  0  0  0  0
  -19.7941  -30.7238   24.2307 H   0  0  0  0  0  0
  -17.5018  -31.6280   24.5081 H   0  0  0  0  0  0
  -15.5353  -30.2947   23.7654 H   0  0  0  0  0  0
  -15.8701  -28.0747   22.7154 H   0  0  0  0  0  0
  -24.5819  -30.7211   25.7725 H   0  0  0  0  0  0
  -24.8898  -32.2987   26.4852 H   0  0  0  0  0  0
  -25.7947  -30.8950   27.0213 H   0  0  0  0  0  0
  -26.2948  -29.6810   24.1245 H   0  0  0  0  0  0
  -27.3976  -29.7322   25.4818 H   0  0  0  0  0  0
  -27.8849  -30.4351   23.9568 H   0  0  0  0  0  0
  -27.2630  -33.3692   26.2061 H   0  0  0  0  0  0
  -28.3834  -32.6971   25.0323 H   0  0  0  0  0  0
  -28.0724  -31.8549   26.5427 H   0  0  0  0  0  0
  -28.2599  -38.0052   24.7540 H   0  0  0  0  0  0
  -28.1049  -36.2585   24.6281 H   0  0  0  0  0  0
  -27.2269  -37.1377   25.8871 H   0  0  0  0  0  0
  -20.9369  -29.8645   21.6868 H   0  0  0  0  0  0
  -26.0189  -38.2853   24.1475 H   0  0  0  0  0  0
  -29.1853  -18.4139   19.3348 H   0  0  0  0  0  0
  -30.3318  -20.6972   22.8322 H   0  0  0  0  0  0
  -30.8148  -16.4348   22.8069 H   0  0  0  0  0  0
  -27.8870  -22.4242   18.2855 H   0  0  0  0  0  0
  -27.4769  -24.1330   18.2360 H   0  0  0  0  0  0
  -26.6744  -23.0778   19.3858 H   0  0  0  0  0  0
  -30.8430  -24.1398   19.9053 H   0  0  0  0  0  0
  -29.9065  -24.7875   18.5537 H   0  0  0  0  0  0
  -30.3346  -23.0982   18.5833 H   0  0  0  0  0  0
  -30.9008  -19.2908   26.1548 H   0  0  0  0  0  0
  -29.7216  -19.9324   25.0255 H   0  0  0  0  0  0
  -31.4291  -20.4217   24.9125 H   0  0  0  0  0  0
  -27.1712  -24.8551   21.0182 H   0  0  0  0  0  0
  -28.7397  -25.0652   21.6591 H   0  0  0  0  0  0
  -29.2110  -21.0358   19.3320 H   0  0  0  0  0  0
  -28.8560  -15.6530   20.1723 H   0  0  0  0  0  0
  1 25  1  0  0  0
  1 30  2  0  0  0
  1 84  1  0  0  0
  2  3  1  0  0  0
  2 25  1  0  0  0
  2 87  1  0  0  0
  2 88  1  0  0  0
  3  4  1  0  0  0
  3 89  1  0  0  0
  3 90  1  0  0  0
  4  5  1  0  0  0
  4 91  1  0  0  0
  4 92  1  0  0  0
  5  6  1  0  0  0
  5 26  1  0  0  0
  5 93  1  0  0  0
  6 25  1  0  0  0
  6 94  1  0  0  0
  6 95  1  0  0  0
  7  8  2  0  0  0
  7 26  1  0  0  0
  7 29  1  0  0  0
  8  9  1  0  0  0
  8 22  1  0  0  0
  9 10  1  0  0  0
  9 27  2  0  0  0
 10 11  2  0  0  0
 10 15  1  0  0  0
 11 12  1  0  0  0
 11 96  1  0  0  0
 12 13  2  0  0  0
 12 97  1  0  0  0
 13 14  1  0  0  0
 13 31  1  0  0  0
 14 15  2  0  0  0
 14 98  1  0  0  0
 15 99  1  0  0  0
 16 17  2  0  0  0
 16 21  1  0  0  0
 16 31  1  0  0  0
 17 18  1  0  0  0
 17100  1  0  0  0
 18 19  2  0  0  0
 18101  1  0  0  0
 19 20  1  0  0  0
 19 24  1  0  0  0
 20 21  2  0  0  0
 20102  1  0  0  0
 21 23  1  0  0  0
 22 28  1  0  0  0
 22 32  2  0  0  0
 26 27  1  0  0  0
 28103  1  0  0  0
 28104  1  0  0  0
 29105  1  0  0  0
 29106  1  0  0  0
 33 34  1  0  0  0
 33 66  1  0  0  0
 33 70  2  0  0  0
 34 36  1  0  0  0
 34 59  1  0  0  0
 34107  1  0  0  0
 35 44  2  0  0  0
 35 45  1  0  0  0
 35 68  1  0  0  0
 36 56  1  0  0  0
 36108  1  0  0  0
 37 39  1  0  0  0
 37 47  1  0  0  0
 37 66  1  0  0  0
 37109  1  0  0  0
 38 43  2  0  0  0
 38 46  1  0  0  0
 38 47  1  0  0  0
 39 64  1  0  0  0
 39 67  2  0  0  0
 40 52  1  0  0  0
 40 53  2  0  0  0
 40 58  1  0  0  0
 41110  1  0  0  0
 41111  1  0  0  0
 41112  1  0  0  0
 41 48  1  0  0  0
 42 43  1  0  0  0
 42 66  1  0  0  0
 42113  1  0  0  0
 42114  1  0  0  0
 43 44  1  0  0  0
 44115  1  0  0  0
 45 46  2  0  0  0
 45116  1  0  0  0
 46117  1  0  0  0
 47118  1  0  0  0
 47119  1  0  0  0
 48 56  1  0  0  0
 48 65  1  0  0  0
 48120  1  0  0  0
 49 50  1  0  0  0
 49 53  1  0  0  0
 49 64  1  0  0  0
 49121  1  0  0  0
 50 51  1  0  0  0
 50122  1  0  0  0
 50123  1  0  0  0
 51 52  1  0  0  0
 51124  1  0  0  0
 51125  1  0  0  0
 52126  1  0  0  0
 52127  1  0  0  0
 53 54  1  0  0  0
 54 55  2  0  0  0
 54128  1  0  0  0
 55 57  1  0  0  0
 55129  1  0  0  0
 56 69  2  0  0  0
 57 58  2  0  0  0
 57130  1  0  0  0
 58131  1  0  0  0
 59 60  1  0  0  0
 59 61  1  0  0  0
 59 62  1  0  0  0
 60132  1  0  0  0
 60133  1  0  0  0
 60134  1  0  0  0
 61135  1  0  0  0
 61136  1  0  0  0
 61137  1  0  0  0
 62138  1  0  0  0
 62139  1  0  0  0
 62140  1  0  0  0
 63 65  1  0  0  0
 63141  1  0  0  0
 63142  1  0  0  0
 63143  1  0  0  0
 64144  1  0  0  0
 65145  1  0  0  0
 68 81  1  0  0  0
 71 74  2  0  0  0
 71 75  1  0  0  0
 71146  1  0  0  0
 72 74  1  0  0  0
 72 76  2  0  0  0
 72147  1  0  0  0
 73 75  2  0  0  0
 73 76  1  0  0  0
 73148  1  0  0  0
 74 83  1  0  0  0
 75 84  1  0  0  0
 76 86  1  0  0  0
 77 82  1  0  0  0
 77 83  1  0  0  0
 77 85  2  0  0  0
 78149  1  0  0  0
 78150  1  0  0  0
 78151  1  0  0  0
 78 82  1  0  0  0
 79 82  1  0  0  0
 79152  1  0  0  0
 79153  1  0  0  0
 79154  1  0  0  0
 80 86  1  0  0  0
 80155  1  0  0  0
 80156  1  0  0  0
 80157  1  0  0  0
 81 82  1  0  0  0
 81158  1  0  0  0
 81159  1  0  0  0
 83160  1  0  0  0
 84161  1  0  0  0
M  ISO  4   1 100  68 101  81 101  84 100
M  END
> <chiral flag>
0

> <version>
0

> <s_m_source_file>
/data/baiqing/PycharmProjects/Reinvent-master-3.2/result/LINK_invent/BTK/process_docking_weight1_custom_product_contain_oxygen_bond_distance_aromatic_linkinvent_7_9_3/rearranged_h_0068.sdf

> <i_m_source_file_index>
58

> <r_mmod_Potential_Energy-OPLS-2005>
230.433441162109

> <r_mmod_Stretch_Energy-OPLS-2005>
138.003982543945

> <r_mmod_Bend_Energy-OPLS-2005>
172.843124389648

> <r_mmod_Torsional_Energy-OPLS-2005>
298.171356201172

> <r_mmod_Improper_Torsional_Energy-OPLS-2005>
10.1784200668335

> <r_mmod_Van_der_Waal_Energy-OPLS-2005>
139.05598449707

> <r_mmod_Electrostatic_Energy-OPLS-2005>
-371.063598632812

> <r_mmod_Solvation_Energy-OPLS-2005>
-234.682968139648

> <b_mmod_Minimization_Converged-OPLS-2005>
0

> <r_mmod_RMS_Derivative-OPLS-2005>
4.13049221038818

$$$$
58
                    3D
 Structure written by MMmdl.
150158  0  0  1  0            999 V2000
  -30.5140  -15.0469   20.3838 C   0  0  0  0  0  0
  -30.4357  -12.6493   19.5147 C   0  0  0  0  0  0
  -29.5269  -12.5396   18.2673 C   0  0  0  0  0  0
  -28.0621  -12.3112   18.6830 C   0  0  0  0  0  0
  -27.6218  -13.2586   19.8288 C   0  0  2  0  0  0
  -28.6592  -13.3390   20.9680 C   0  0  0  0  0  0
  -25.2430  -13.8234   20.5704 C   0  0  0  0  0  0
  -24.1758  -13.0443   20.9229 C   0  0  0  0  0  0
  -24.6387  -11.6933   20.8755 C   0  0  0  0  0  0
  -23.9081  -10.4298   21.0406 C   0  0  0  0  0  0
  -24.3634   -9.4216   21.9182 C   0  0  0  0  0  0
  -23.6313   -8.2246   22.0751 C   0  0  0  0  0  0
  -22.4293   -8.0281   21.3539 C   0  0  0  0  0  0
  -21.9928   -9.0259   20.4644 C   0  0  0  0  0  0
  -22.7253  -10.2140   20.3058 C   0  0  0  0  0  0
  -21.6853   -6.0738   22.5275 C   0  0  0  0  0  0
  -21.4015   -6.5640   23.8215 C   0  0  0  0  0  0
  -21.3660   -5.6791   24.9174 C   0  0  0  0  0  0
  -21.6044   -4.3052   24.7219 C   0  0  0  0  0  0
  -21.8815   -3.8149   23.4341 C   0  0  0  0  0  0
  -21.9192   -4.6965   22.3399 C   0  0  0  0  0  0
  -22.7774  -13.5207   21.1887 C   0  0  0  0  0  0
  -22.1656   -4.2152   21.0977 F   0  0  0  0  0  0
  -21.5638   -3.4539   25.7733 F   0  0  0  0  0  0
  -29.9248  -13.7725   20.3631 N   0  0  0  0  0  0
  -26.2851  -12.9482   20.3206 N   0  0  0  0  0  0
  -25.9320  -11.6604   20.5720 N   0  0  0  0  0  0
  -22.0427  -12.8199   22.0448 N   0  0  0  0  0  0
  -25.4096  -15.1968   20.4138 N   0  0  0  0  0  0
  -31.7319  -15.0547   20.1693 O   0  0  0  0  0  0
  -21.6641   -6.8888   21.4243 O   0  0  0  0  0  0
  -22.3446  -14.5501   20.6721 O   0  0  0  0  0  0
  -24.6500  -31.8382   23.1840 C   0  0  0  0  0  0
  -25.9245  -32.4666   23.8246 C   0  0  1  0  0  0
  -27.2038  -27.0597   20.1584 C   0  0  0  0  0  0
  -25.5962  -33.8473   24.2158 N   0  0  0  0  0  0
  -23.4558  -30.4567   21.5327 C   0  0  2  0  0  0
  -24.9032  -28.8728   20.1115 C   0  0  0  0  0  0
  -22.7592  -29.4510   22.4858 C   0  0  0  0  0  0
  -18.0301  -28.1390   22.8479 C   0  0  0  0  0  0
  -24.1487  -36.7235   23.2646 C   0  0  0  0  0  0
  -26.0183  -30.6856   21.3952 C   0  0  0  0  0  0
  -26.0856  -29.2907   20.7354 C   0  0  0  0  0  0
  -27.2364  -28.4022   20.7392 C   0  0  0  0  0  0
  -25.9938  -26.7649   19.4913 C   0  0  0  0  0  0
  -24.8752  -27.6261   19.4718 C   0  0  0  0  0  0
  -23.6854  -29.7862   20.1528 C   0  0  0  0  0  0
  -25.4127  -36.3017   24.0314 C   0  0  1  0  0  0
  -20.5914  -28.3714   23.1239 C   0  0  2  0  0  0
  -20.6782  -26.9417   22.5412 C   0  0  0  0  0  0
  -19.5761  -26.6372   21.5212 C   0  0  0  0  0  0
  -18.1940  -26.7929   22.1621 C   0  0  0  0  0  0
  -19.1559  -28.8872   23.2845 C   0  0  0  0  0  0
  -18.9474  -30.1468   23.8870 C   0  0  0  0  0  0
  -17.6473  -30.6592   24.0550 C   0  0  0  0  0  0
  -25.9085  -34.9394   23.5053 C   0  0  0  0  0  0
  -16.5362  -29.9080   23.6340 C   0  0  0  0  0  0
  -16.7285  -28.6493   23.0369 C   0  0  0  0  0  0
  -26.4533  -31.6557   25.0721 C   0  0  0  0  0  0
  -25.3691  -31.3764   26.1400 C   0  0  0  0  0  0
  -27.0410  -30.2946   24.6349 C   0  0  0  0  0  0
  -27.6057  -32.4332   25.7503 C   0  0  0  0  0  0
  -27.5580  -37.1777   24.8469 C   0  0  0  0  0  0
  -21.4278  -29.3035   22.3611 N   0  0  0  0  0  0
  -26.4284  -37.3743   23.9418 N   0  0  0  0  0  0
  -24.7285  -31.0165   22.0915 N   0  0  0  0  0  0
  -23.4216  -28.8067   23.3031 O   0  0  0  0  0  0
  -28.2233  -26.0154   20.2231 O   0  0  0  0  0  0
  -26.5680  -34.8903   22.4638 O   0  0  0  0  0  0
  -23.5603  -32.1292   23.7025 O   0  0  0  0  0  0
  -31.0266  -19.2556   18.4194 C   0  0  0  0  0  0
  -29.2383  -19.0400   20.4696 C   0  0  0  0  0  0
  -30.3251  -20.4313   18.7844 C   0  0  0  0  0  0
  -29.4099  -20.4354   19.8932 C   0  0  0  0  0  0
  -29.9370  -17.7591   20.0539 C   0  0  0  0  0  0
  -30.8417  -17.9853   18.9917 C   0  0  0  0  0  0
  -30.5337  -21.5915   17.8449 C   0  0  0  0  0  0
  -28.9527  -23.1826   20.2257 C   0  0  0  0  0  0
  -27.8596  -24.4665   20.1415 C   0  0  0  0  0  0
  -28.6441  -21.7644   20.2535 N   0  0  0  0  0  0
  -29.7492  -16.2702   20.5163 N   0  0  0  0  0  0
  -29.5551  -22.1695   17.3260 O   0  5  0  0  0  0
  -31.6933  -21.9031   17.5007 O   0  0  0  0  0  0
  -30.1385  -23.5125   20.3144 O   0  0  0  0  0  0
  -31.5060  -16.9609   18.4131 F   0  0  0  0  0  0
  -31.4688  -12.8102   19.2024 H   0  0  0  0  0  0
  -30.4402  -11.7126   20.0753 H   0  0  0  0  0  0
  -29.8673  -11.7303   17.6194 H   0  0  0  0  0  0
  -29.6015  -13.4556   17.6789 H   0  0  0  0  0  0
  -27.9709  -11.2748   19.0097 H   0  0  0  0  0  0
  -27.3997  -12.4181   17.8228 H   0  0  0  0  0  0
  -27.5691  -14.2484   19.3748 H   0  0  0  0  0  0
  -28.7658  -12.3795   21.4758 H   0  0  0  0  0  0
  -28.3398  -14.0565   21.7243 H   0  0  0  0  0  0
  -25.2782   -9.5691   22.4750 H   0  0  0  0  0  0
  -24.0019   -7.4638   22.7471 H   0  0  0  0  0  0
  -21.0850   -8.8778   19.8956 H   0  0  0  0  0  0
  -22.3706  -10.9679   19.6163 H   0  0  0  0  0  0
  -21.2003   -7.6153   23.9719 H   0  0  0  0  0  0
  -21.1488   -6.0520   25.9079 H   0  0  0  0  0  0
  -22.0596   -2.7613   23.2833 H   0  0  0  0  0  0
  -22.4053  -11.9877   22.4861 H   0  0  0  0  0  0
  -21.1034  -13.1218   22.2650 H   0  0  0  0  0  0
  -24.6408  -15.8494   20.5248 H   0  0  0  0  0  0
  -26.2517  -15.6364   20.0655 H   0  0  0  0  0  0
  -26.7307  -32.5237   23.0960 H   0  0  0  0  0  0
  -25.0061  -33.9564   25.0273 H   0  0  0  0  0  0
  -22.7611  -31.2849   21.3772 H   0  0  0  0  0  0
  -23.3765  -35.9551   23.3290 H   0  0  0  0  0  0
  -24.3567  -36.8891   22.2065 H   0  0  0  0  0  0
  -23.7219  -37.6414   23.6698 H   0  0  0  0  0  0
  -26.1845  -31.4367   20.6223 H   0  0  0  0  0  0
  -26.8841  -30.7357   22.0434 H   0  0  0  0  0  0
  -28.1334  -28.7152   21.2548 H   0  0  0  0  0  0
  -25.8666  -25.8172   18.9920 H   0  0  0  0  0  0
  -23.9748  -27.3018   18.9678 H   0  0  0  0  0  0
  -23.8304  -30.5609   19.3989 H   0  0  0  0  0  0
  -22.7959  -29.2370   19.8390 H   0  0  0  0  0  0
  -25.1316  -36.1836   25.0806 H   0  0  0  0  0  0
  -20.9989  -28.3292   24.1367 H   0  0  0  0  0  0
  -20.5656  -26.2326   23.3627 H   0  0  0  0  0  0
  -21.6653  -26.7415   22.1226 H   0  0  0  0  0  0
  -19.6926  -25.6272   21.1266 H   0  0  0  0  0  0
  -19.6704  -27.3157   20.6721 H   0  0  0  0  0  0
  -17.4214  -26.6666   21.4021 H   0  0  0  0  0  0
  -18.0344  -26.0071   22.9017 H   0  0  0  0  0  0
  -19.7946  -30.7285   24.2235 H   0  0  0  0  0  0
  -17.5024  -31.6275   24.5145 H   0  0  0  0  0  0
  -15.5359  -30.2976   23.7680 H   0  0  0  0  0  0
  -15.8679  -28.0795   22.7125 H   0  0  0  0  0  0
  -24.5876  -30.7112   25.7708 H   0  0  0  0  0  0
  -24.8865  -32.2948   26.4751 H   0  0  0  0  0  0
  -25.7947  -30.8975   27.0226 H   0  0  0  0  0  0
  -26.3047  -29.6657   24.1331 H   0  0  0  0  0  0
  -27.3973  -29.7265   25.4949 H   0  0  0  0  0  0
  -27.8974  -30.4169   23.9719 H   0  0  0  0  0  0
  -27.2653  -33.3657   26.2011 H   0  0  0  0  0  0
  -28.3896  -32.6852   25.0352 H   0  0  0  0  0  0
  -28.0691  -31.8502   26.5468 H   0  0  0  0  0  0
  -28.2592  -38.0080   24.7530 H   0  0  0  0  0  0
  -28.1080  -36.2613   24.6275 H   0  0  0  0  0  0
  -27.2305  -37.1406   25.8874 H   0  0  0  0  0  0
  -20.9501  -29.8736   21.6769 H   0  0  0  0  0  0
  -26.0146  -38.2810   24.1417 H   0  0  0  0  0  0
  -31.6990  -19.3048   17.5754 H   0  0  0  0  0  0
  -28.5148  -18.9439   21.2660 H   0  0  0  0  0  0
  -27.0920  -24.2745   20.8916 H   0  0  0  0  0  0
  -27.3732  -24.3106   19.1795 H   0  0  0  0  0  0
  -27.6675  -21.6105   20.4671 H   0  0  0  0  0  0
  -28.8266  -16.0883   20.8808 H   0  0  0  0  0  0
  1 25  1  0  0  0
  1 30  2  0  0  0
  1 81  1  0  0  0
  2  3  1  0  0  0
  2 25  1  0  0  0
  2 86  1  0  0  0
  2 87  1  0  0  0
  3  4  1  0  0  0
  3 88  1  0  0  0
  3 89  1  0  0  0
  4  5  1  0  0  0
  4 90  1  0  0  0
  4 91  1  0  0  0
  5  6  1  0  0  0
  5 26  1  0  0  0
  5 92  1  0  0  0
  6 25  1  0  0  0
  6 93  1  0  0  0
  6 94  1  0  0  0
  7  8  2  0  0  0
  7 26  1  0  0  0
  7 29  1  0  0  0
  8  9  1  0  0  0
  8 22  1  0  0  0
  9 10  1  0  0  0
  9 27  2  0  0  0
 10 11  2  0  0  0
 10 15  1  0  0  0
 11 12  1  0  0  0
 11 95  1  0  0  0
 12 13  2  0  0  0
 12 96  1  0  0  0
 13 14  1  0  0  0
 13 31  1  0  0  0
 14 15  2  0  0  0
 14 97  1  0  0  0
 15 98  1  0  0  0
 16 17  2  0  0  0
 16 21  1  0  0  0
 16 31  1  0  0  0
 17 18  1  0  0  0
 17 99  1  0  0  0
 18 19  2  0  0  0
 18100  1  0  0  0
 19 20  1  0  0  0
 19 24  1  0  0  0
 20 21  2  0  0  0
 20101  1  0  0  0
 21 23  1  0  0  0
 22 28  1  0  0  0
 22 32  2  0  0  0
 26 27  1  0  0  0
 28102  1  0  0  0
 28103  1  0  0  0
 29104  1  0  0  0
 29105  1  0  0  0
 33 34  1  0  0  0
 33 66  1  0  0  0
 33 70  2  0  0  0
 34 36  1  0  0  0
 34 59  1  0  0  0
 34106  1  0  0  0
 35 44  2  0  0  0
 35 45  1  0  0  0
 35 68  1  0  0  0
 36 56  1  0  0  0
 36107  1  0  0  0
 37 39  1  0  0  0
 37 47  1  0  0  0
 37 66  1  0  0  0
 37108  1  0  0  0
 38 43  2  0  0  0
 38 46  1  0  0  0
 38 47  1  0  0  0
 39 64  1  0  0  0
 39 67  2  0  0  0
 40 52  1  0  0  0
 40 53  2  0  0  0
 40 58  1  0  0  0
 41109  1  0  0  0
 41110  1  0  0  0
 41111  1  0  0  0
 41 48  1  0  0  0
 42 43  1  0  0  0
 42 66  1  0  0  0
 42112  1  0  0  0
 42113  1  0  0  0
 43 44  1  0  0  0
 44114  1  0  0  0
 45 46  2  0  0  0
 45115  1  0  0  0
 46116  1  0  0  0
 47117  1  0  0  0
 47118  1  0  0  0
 48 56  1  0  0  0
 48 65  1  0  0  0
 48119  1  0  0  0
 49 50  1  0  0  0
 49 53  1  0  0  0
 49 64  1  0  0  0
 49120  1  0  0  0
 50 51  1  0  0  0
 50121  1  0  0  0
 50122  1  0  0  0
 51 52  1  0  0  0
 51123  1  0  0  0
 51124  1  0  0  0
 52125  1  0  0  0
 52126  1  0  0  0
 53 54  1  0  0  0
 54 55  2  0  0  0
 54127  1  0  0  0
 55 57  1  0  0  0
 55128  1  0  0  0
 56 69  2  0  0  0
 57 58  2  0  0  0
 57129  1  0  0  0
 58130  1  0  0  0
 59 60  1  0  0  0
 59 61  1  0  0  0
 59 62  1  0  0  0
 60131  1  0  0  0
 60132  1  0  0  0
 60133  1  0  0  0
 61134  1  0  0  0
 61135  1  0  0  0
 61136  1  0  0  0
 62137  1  0  0  0
 62138  1  0  0  0
 62139  1  0  0  0
 63 65  1  0  0  0
 63140  1  0  0  0
 63141  1  0  0  0
 63142  1  0  0  0
 64143  1  0  0  0
 65144  1  0  0  0
 68 79  1  0  0  0
 71 73  2  0  0  0
 71 76  1  0  0  0
 71145  1  0  0  0
 72 74  2  0  0  0
 72 75  1  0  0  0
 72146  1  0  0  0
 73 74  1  0  0  0
 73 77  1  0  0  0
 74 80  1  0  0  0
 75 76  2  0  0  0
 75 81  1  0  0  0
 76 85  1  0  0  0
 77 82  1  0  0  0
 77 83  2  0  0  0
 78 79  1  0  0  0
 78 80  1  0  0  0
 78 84  2  0  0  0
 79147  1  0  0  0
 79148  1  0  0  0
 80149  1  0  0  0
 81150  1  0  0  0
M  CHG  1  82  -1
M  ISO  4   1 100  68 101  79 101  81 100
M  END
> <chiral flag>
0

> <version>
0

> <s_m_source_file>
/data/baiqing/PycharmProjects/Reinvent-master-3.2/result/LINK_invent/BTK/process_docking_weight1_custom_product_contain_oxygen_bond_distance_aromatic_linkinvent_7_9_3/rearranged_h_0068.sdf

> <i_m_source_file_index>
59

> <r_mmod_Potential_Energy-OPLS-2005>
394.276916503906

> <r_mmod_Stretch_Energy-OPLS-2005>
357.6923828125

> <r_mmod_Bend_Energy-OPLS-2005>
284.012847900391

> <r_mmod_Torsional_Energy-OPLS-2005>
274.349945068359

> <r_mmod_Improper_Torsional_Energy-OPLS-2005>
5.43385601043701

> <r_mmod_Van_der_Waal_Energy-OPLS-2005>
142.959686279297

> <r_mmod_Electrostatic_Energy-OPLS-2005>
-352.607269287109

> <r_mmod_Solvation_Energy-OPLS-2005>
-586.136962890625

> <b_mmod_Minimization_Converged-OPLS-2005>
0

> <r_mmod_RMS_Derivative-OPLS-2005>
1.48336505889893

$$$$
59
                    3D
 Structure written by MMmdl.
157165  0  0  1  0            999 V2000
  -30.7096  -14.4749   20.6069 C   0  0  0  0  0  0
  -30.4248  -12.3257   19.4187 C   0  0  0  0  0  0
  -29.4915  -12.5090   18.2043 C   0  0  0  0  0  0
  -28.0167  -12.3567   18.6222 C   0  0  0  0  0  0
  -27.6597  -13.2046   19.8720 C   0  0  2  0  0  0
  -28.7006  -12.9960   20.9945 C   0  0  0  0  0  0
  -25.2584  -13.8151   20.5663 C   0  0  0  0  0  0
  -24.1843  -13.0434   20.9180 C   0  0  0  0  0  0
  -24.6396  -11.6897   20.8735 C   0  0  0  0  0  0
  -23.9062  -10.4291   21.0413 C   0  0  0  0  0  0
  -24.3618   -9.4204   21.9182 C   0  0  0  0  0  0
  -23.6295   -8.2238   22.0755 C   0  0  0  0  0  0
  -22.4275   -8.0279   21.3544 C   0  0  0  0  0  0
  -21.9907   -9.0256   20.4647 C   0  0  0  0  0  0
  -22.7240  -10.2135   20.3059 C   0  0  0  0  0  0
  -21.6848   -6.0738   22.5279 C   0  0  0  0  0  0
  -21.4011   -6.5639   23.8216 C   0  0  0  0  0  0
  -21.3654   -5.6791   24.9175 C   0  0  0  0  0  0
  -21.6046   -4.3059   24.7224 C   0  0  0  0  0  0
  -21.8819   -3.8148   23.4349 C   0  0  0  0  0  0
  -21.9194   -4.6963   22.3403 C   0  0  0  0  0  0
  -22.7873  -13.5237   21.1853 C   0  0  0  0  0  0
  -22.1661   -4.2156   21.0974 F   0  0  0  0  0  0
  -21.5631   -3.4544   25.7740 F   0  0  0  0  0  0
  -30.0284  -13.3077   20.4408 N   0  0  0  0  0  0
  -26.3015  -12.9313   20.3345 N   0  0  0  0  0  0
  -25.9317  -11.6477   20.5761 N   0  0  0  0  0  0
  -22.0515  -12.8224   22.0406 N   0  0  0  0  0  0
  -25.4316  -15.1866   20.4043 N   0  0  0  0  0  0
  -31.8346  -14.6582   20.1310 O   0  0  0  0  0  0
  -21.6637   -6.8882   21.4240 O   0  0  0  0  0  0
  -22.3558  -14.5550   20.6718 O   0  0  0  0  0  0
  -24.6186  -31.8686   23.2126 C   0  0  0  0  0  0
  -25.9081  -32.4818   23.8403 C   0  0  1  0  0  0
  -27.2167  -27.4071   20.0782 C   0  0  0  0  0  0
  -25.5934  -33.8619   24.2317 N   0  0  0  0  0  0
  -23.4055  -30.4970   21.5556 C   0  0  2  0  0  0
  -24.8461  -28.9720   20.1101 C   0  0  0  0  0  0
  -22.7421  -29.4671   22.4997 C   0  0  0  0  0  0
  -18.0276  -28.1389   22.8486 C   0  0  0  0  0  0
  -24.1484  -36.7293   23.2618 C   0  0  0  0  0  0
  -25.9430  -30.8213   21.3779 C   0  0  0  0  0  0
  -26.0143  -29.4612   20.7092 C   0  0  0  0  0  0
  -27.2025  -28.6872   20.6893 C   0  0  0  0  0  0
  -26.0250  -26.9559   19.4585 C   0  0  0  0  0  0
  -24.8487  -27.7191   19.4831 C   0  0  0  0  0  0
  -23.6128  -29.8429   20.1668 C   0  0  0  0  0  0
  -25.4109  -36.3105   24.0332 C   0  0  1  0  0  0
  -20.5870  -28.3684   23.1315 C   0  0  2  0  0  0
  -20.6776  -26.9416   22.5428 C   0  0  0  0  0  0
  -19.5763  -26.6388   21.5216 C   0  0  0  0  0  0
  -18.1923  -26.7941   22.1593 C   0  0  0  0  0  0
  -19.1528  -28.8851   23.2890 C   0  0  0  0  0  0
  -18.9452  -30.1449   23.8916 C   0  0  0  0  0  0
  -17.6460  -30.6593   24.0571 C   0  0  0  0  0  0
  -25.9063  -34.9475   23.5123 C   0  0  0  0  0  0
  -16.5349  -29.9101   23.6331 C   0  0  0  0  0  0
  -16.7265  -28.6513   23.0356 C   0  0  0  0  0  0
  -26.4484  -31.6614   25.0750 C   0  0  0  0  0  0
  -25.3721  -31.3772   26.1488 C   0  0  0  0  0  0
  -27.0285  -30.3018   24.6194 C   0  0  0  0  0  0
  -27.6068  -32.4331   25.7496 C   0  0  0  0  0  0
  -27.5617  -37.1747   24.8423 C   0  0  0  0  0  0
  -21.4153  -29.3043   22.3712 N   0  0  0  0  0  0
  -26.4273  -37.3816   23.9458 N   0  0  0  0  0  0
  -24.6736  -31.0760   22.1053 N   0  0  0  0  0  0
  -23.4171  -28.8202   23.3043 O   0  0  0  0  0  0
  -28.3601  -26.6174   20.1102 O   0  0  0  0  0  0
  -26.5621  -34.8930   22.4685 O   0  0  0  0  0  0
  -23.5374  -32.1457   23.7497 O   0  0  0  0  0  0
  -31.4837  -19.3891   22.0546 C   0  0  0  0  0  0
  -31.7056  -16.9684   22.1734 C   0  0  0  0  0  0
  -29.7370  -17.9661   21.1103 C   0  0  0  0  0  0
  -30.2613  -19.2783   21.3464 C   0  0  0  0  0  0
  -30.4892  -16.8045   21.4747 C   0  0  0  0  0  0
  -32.1893  -18.2500   22.4750 C   0  0  0  0  0  0
  -29.9150  -21.7468   20.8102 C   0  0  0  0  0  0
  -28.3673  -17.8103   20.4580 C   0  0  0  0  0  0
  -28.8886  -22.7537   20.2479 C   0  0  0  0  0  0
  -29.2878  -24.2623   20.3534 C   0  0  0  0  0  0
  -28.1629  -25.2041   19.8640 C   0  0  0  0  0  0
  -29.5396  -20.4422   20.8798 N   0  0  0  0  0  0
  -30.0206  -15.4754   21.1998 N   0  0  0  0  0  0
  -31.0198  -22.1663   21.1571 O   0  0  0  0  0  0
  -33.3433  -18.3896   23.1706 F   0  0  0  0  0  0
  -31.4663  -12.4371   19.1129 H   0  0  0  0  0  0
  -30.3400  -11.3146   19.8203 H   0  0  0  0  0  0
  -29.7360  -11.7820   17.4282 H   0  0  0  0  0  0
  -29.6466  -13.4935   17.7598 H   0  0  0  0  0  0
  -27.8437  -11.3007   18.8297 H   0  0  0  0  0  0
  -27.3598  -12.6160   17.7913 H   0  0  0  0  0  0
  -27.7012  -14.2502   19.5656 H   0  0  0  0  0  0
  -28.6848  -11.9618   21.3411 H   0  0  0  0  0  0
  -28.4559  -13.5993   21.8697 H   0  0  0  0  0  0
  -25.2764   -9.5669   22.4751 H   0  0  0  0  0  0
  -24.0003   -7.4625   22.7465 H   0  0  0  0  0  0
  -21.0838   -8.8779   19.8951 H   0  0  0  0  0  0
  -22.3705  -10.9678   19.6170 H   0  0  0  0  0  0
  -21.1999   -7.6146   23.9715 H   0  0  0  0  0  0
  -21.1474   -6.0523   25.9072 H   0  0  0  0  0  0
  -22.0604   -2.7610   23.2845 H   0  0  0  0  0  0
  -22.4147  -11.9877   22.4758 H   0  0  0  0  0  0
  -21.1136  -13.1241   22.2639 H   0  0  0  0  0  0
  -24.6618  -15.8396   20.4985 H   0  0  0  0  0  0
  -26.2702  -15.6137   20.0346 H   0  0  0  0  0  0
  -26.7148  -32.5503   23.1153 H   0  0  0  0  0  0
  -25.0108  -33.9787   25.0479 H   0  0  0  0  0  0
  -22.6945  -31.3151   21.4220 H   0  0  0  0  0  0
  -23.3804  -35.9558   23.3175 H   0  0  0  0  0  0
  -24.3605  -36.9031   22.2057 H   0  0  0  0  0  0
  -23.7138  -37.6419   23.6709 H   0  0  0  0  0  0
  -26.0766  -31.5983   20.6249 H   0  0  0  0  0  0
  -26.8219  -30.8519   22.0108 H   0  0  0  0  0  0
  -28.1025  -29.0584   21.1607 H   0  0  0  0  0  0
  -25.9679  -26.0079   18.9454 H   0  0  0  0  0  0
  -23.9532  -27.3397   19.0100 H   0  0  0  0  0  0
  -23.7248  -30.6269   19.4166 H   0  0  0  0  0  0
  -22.7341  -29.2716   19.8632 H   0  0  0  0  0  0
  -25.1264  -36.1950   25.0816 H   0  0  0  0  0  0
  -20.9945  -28.3264   24.1447 H   0  0  0  0  0  0
  -20.5698  -26.2290   23.3619 H   0  0  0  0  0  0
  -21.6644  -26.7457   22.1215 H   0  0  0  0  0  0
  -19.6934  -25.6300   21.1239 H   0  0  0  0  0  0
  -19.6733  -27.3206   20.6760 H   0  0  0  0  0  0
  -17.4211  -26.6727   21.3961 H   0  0  0  0  0  0
  -18.0282  -26.0058   22.8957 H   0  0  0  0  0  0
  -19.7929  -30.7251   24.2298 H   0  0  0  0  0  0
  -17.5018  -31.6280   24.5161 H   0  0  0  0  0  0
  -15.5358  -30.3016   23.7663 H   0  0  0  0  0  0
  -15.8655  -28.0845   22.7086 H   0  0  0  0  0  0
  -24.5970  -30.7014   25.7853 H   0  0  0  0  0  0
  -24.8825  -32.2942   26.4788 H   0  0  0  0  0  0
  -25.8064  -30.9080   27.0323 H   0  0  0  0  0  0
  -26.2837  -29.6814   24.1200 H   0  0  0  0  0  0
  -27.3933  -29.7255   25.4705 H   0  0  0  0  0  0
  -27.8743  -30.4273   23.9432 H   0  0  0  0  0  0
  -27.2697  -33.3632   26.2080 H   0  0  0  0  0  0
  -28.3872  -32.6886   25.0312 H   0  0  0  0  0  0
  -28.0741  -31.8451   26.5402 H   0  0  0  0  0  0
  -28.2498  -38.0178   24.7707 H   0  0  0  0  0  0
  -28.1250  -36.2738   24.5936 H   0  0  0  0  0  0
  -27.2374  -37.1026   25.8818 H   0  0  0  0  0  0
  -20.9323  -29.8746   21.6913 H   0  0  0  0  0  0
  -26.0156  -38.2854   24.1629 H   0  0  0  0  0  0
  -31.9148  -20.3421   22.3111 H   0  0  0  0  0  0
  -32.2753  -16.1104   22.4991 H   0  0  0  0  0  0
  -27.6478  -18.4955   20.9061 H   0  0  0  0  0  0
  -27.9520  -16.8128   20.5907 H   0  0  0  0  0  0
  -28.4234  -18.0136   19.3892 H   0  0  0  0  0  0
  -27.9461  -22.5946   20.7729 H   0  0  0  0  0  0
  -28.7030  -22.5009   19.2034 H   0  0  0  0  0  0
  -30.1945  -24.4493   19.7769 H   0  0  0  0  0  0
  -29.5264  -24.5046   21.3888 H   0  0  0  0  0  0
  -27.2539  -24.8720   20.3683 H   0  0  0  0  0  0
  -28.0130  -25.0484   18.7934 H   0  0  0  0  0  0
  -28.6202  -20.2542   20.5038 H   0  0  0  0  0  0
  -29.0502  -15.2805   21.3918 H   0  0  0  0  0  0
  1 25  1  0  0  0
  1 30  2  0  0  0
  1 83  1  0  0  0
  2  3  1  0  0  0
  2 25  1  0  0  0
  2 86  1  0  0  0
  2 87  1  0  0  0
  3  4  1  0  0  0
  3 88  1  0  0  0
  3 89  1  0  0  0
  4  5  1  0  0  0
  4 90  1  0  0  0
  4 91  1  0  0  0
  5  6  1  0  0  0
  5 26  1  0  0  0
  5 92  1  0  0  0
  6 25  1  0  0  0
  6 93  1  0  0  0
  6 94  1  0  0  0
  7  8  2  0  0  0
  7 26  1  0  0  0
  7 29  1  0  0  0
  8  9  1  0  0  0
  8 22  1  0  0  0
  9 10  1  0  0  0
  9 27  2  0  0  0
 10 11  2  0  0  0
 10 15  1  0  0  0
 11 12  1  0  0  0
 11 95  1  0  0  0
 12 13  2  0  0  0
 12 96  1  0  0  0
 13 14  1  0  0  0
 13 31  1  0  0  0
 14 15  2  0  0  0
 14 97  1  0  0  0
 15 98  1  0  0  0
 16 17  2  0  0  0
 16 21  1  0  0  0
 16 31  1  0  0  0
 17 18  1  0  0  0
 17 99  1  0  0  0
 18 19  2  0  0  0
 18100  1  0  0  0
 19 20  1  0  0  0
 19 24  1  0  0  0
 20 21  2  0  0  0
 20101  1  0  0  0
 21 23  1  0  0  0
 22 28  1  0  0  0
 22 32  2  0  0  0
 26 27  1  0  0  0
 28102  1  0  0  0
 28103  1  0  0  0
 29104  1  0  0  0
 29105  1  0  0  0
 33 34  1  0  0  0
 33 66  1  0  0  0
 33 70  2  0  0  0
 34 36  1  0  0  0
 34 59  1  0  0  0
 34106  1  0  0  0
 35 44  2  0  0  0
 35 45  1  0  0  0
 35 68  1  0  0  0
 36 56  1  0  0  0
 36107  1  0  0  0
 37 39  1  0  0  0
 37 47  1  0  0  0
 37 66  1  0  0  0
 37108  1  0  0  0
 38 43  2  0  0  0
 38 46  1  0  0  0
 38 47  1  0  0  0
 39 64  1  0  0  0
 39 67  2  0  0  0
 40 52  1  0  0  0
 40 53  2  0  0  0
 40 58  1  0  0  0
 41109  1  0  0  0
 41110  1  0  0  0
 41111  1  0  0  0
 41 48  1  0  0  0
 42 43  1  0  0  0
 42 66  1  0  0  0
 42112  1  0  0  0
 42113  1  0  0  0
 43 44  1  0  0  0
 44114  1  0  0  0
 45 46  2  0  0  0
 45115  1  0  0  0
 46116  1  0  0  0
 47117  1  0  0  0
 47118  1  0  0  0
 48 56  1  0  0  0
 48 65  1  0  0  0
 48119  1  0  0  0
 49 50  1  0  0  0
 49 53  1  0  0  0
 49 64  1  0  0  0
 49120  1  0  0  0
 50 51  1  0  0  0
 50121  1  0  0  0
 50122  1  0  0  0
 51 52  1  0  0  0
 51123  1  0  0  0
 51124  1  0  0  0
 52125  1  0  0  0
 52126  1  0  0  0
 53 54  1  0  0  0
 54 55  2  0  0  0
 54127  1  0  0  0
 55 57  1  0  0  0
 55128  1  0  0  0
 56 69  2  0  0  0
 57 58  2  0  0  0
 57129  1  0  0  0
 58130  1  0  0  0
 59 60  1  0  0  0
 59 61  1  0  0  0
 59 62  1  0  0  0
 60131  1  0  0  0
 60132  1  0  0  0
 60133  1  0  0  0
 61134  1  0  0  0
 61135  1  0  0  0
 61136  1  0  0  0
 62137  1  0  0  0
 62138  1  0  0  0
 62139  1  0  0  0
 63 65  1  0  0  0
 63140  1  0  0  0
 63141  1  0  0  0
 63142  1  0  0  0
 64143  1  0  0  0
 65144  1  0  0  0
 68 81  1  0  0  0
 71 74  2  0  0  0
 71 76  1  0  0  0
 71145  1  0  0  0
 72 75  1  0  0  0
 72 76  2  0  0  0
 72146  1  0  0  0
 73 74  1  0  0  0
 73 75  2  0  0  0
 73 78  1  0  0  0
 74 82  1  0  0  0
 75 83  1  0  0  0
 76 85  1  0  0  0
 77 79  1  0  0  0
 77 82  1  0  0  0
 77 84  2  0  0  0
 78147  1  0  0  0
 78148  1  0  0  0
 78149  1  0  0  0
 79 80  1  0  0  0
 79150  1  0  0  0
 79151  1  0  0  0
 80 81  1  0  0  0
 80152  1  0  0  0
 80153  1  0  0  0
 81154  1  0  0  0
 81155  1  0  0  0
 82156  1  0  0  0
 83157  1  0  0  0
M  ISO  4   1 100  68 101  81 101  83 100
M  END
> <chiral flag>
0

> <version>
0

> <s_m_source_file>
/data/baiqing/PycharmProjects/Reinvent-master-3.2/result/LINK_invent/BTK/process_docking_weight1_custom_product_contain_oxygen_bond_distance_aromatic_linkinvent_7_9_3/rearranged_h_0068.sdf

> <i_m_source_file_index>
60

> <r_mmod_Potential_Energy-OPLS-2005>
-84.7662887573242

> <r_mmod_Stretch_Energy-OPLS-2005>
46.5299453735352

> <r_mmod_Bend_Energy-OPLS-2005>
101.608932495117

> <r_mmod_Torsional_Energy-OPLS-2005>
225.838531494141

> <r_mmod_Improper_Torsional_Energy-OPLS-2005>
3.3509476184845

> <r_mmod_Van_der_Waal_Energy-OPLS-2005>
169.608108520508

> <r_mmod_Electrostatic_Energy-OPLS-2005>
-412.264404296875

> <r_mmod_Solvation_Energy-OPLS-2005>
-236.804077148438

> <b_mmod_Minimization_Converged-OPLS-2005>
0

> <r_mmod_RMS_Derivative-OPLS-2005>
1.83152377605438

$$$$
60
                    3D
 Structure written by MMmdl.
163171  0  0  1  0            999 V2000
  -30.6074  -14.7507   20.4581 C   0  0  0  0  0  0
  -30.4331  -12.4548   19.4891 C   0  0  0  0  0  0
  -29.5158  -12.5197   18.2472 C   0  0  0  0  0  0
  -28.0394  -12.3472   18.6520 C   0  0  0  0  0  0
  -27.6466  -13.2373   19.8613 C   0  0  2  0  0  0
  -28.6884  -13.1602   21.0008 C   0  0  0  0  0  0
  -25.2517  -13.8212   20.5707 C   0  0  0  0  0  0
  -24.1808  -13.0447   20.9199 C   0  0  0  0  0  0
  -24.6406  -11.6925   20.8743 C   0  0  0  0  0  0
  -23.9079  -10.4298   21.0406 C   0  0  0  0  0  0
  -24.3624   -9.4211   21.9184 C   0  0  0  0  0  0
  -23.6296   -8.2247   22.0750 C   0  0  0  0  0  0
  -22.4275   -8.0285   21.3549 C   0  0  0  0  0  0
  -21.9918   -9.0256   20.4647 C   0  0  0  0  0  0
  -22.7248  -10.2135   20.3056 C   0  0  0  0  0  0
  -21.6856   -6.0735   22.5273 C   0  0  0  0  0  0
  -21.4017   -6.5640   23.8207 C   0  0  0  0  0  0
  -21.3660   -5.6793   24.9172 C   0  0  0  0  0  0
  -21.6046   -4.3055   24.7226 C   0  0  0  0  0  0
  -21.8817   -3.8145   23.4348 C   0  0  0  0  0  0
  -21.9191   -4.6962   22.3403 C   0  0  0  0  0  0
  -22.7827  -13.5225   21.1858 C   0  0  0  0  0  0
  -22.1662   -4.2148   21.0983 F   0  0  0  0  0  0
  -21.5629   -3.4536   25.7741 F   0  0  0  0  0  0
  -29.9962  -13.5138   20.4326 N   0  0  0  0  0  0
  -26.2959  -12.9435   20.3325 N   0  0  0  0  0  0
  -25.9346  -11.6566   20.5763 N   0  0  0  0  0  0
  -22.0473  -12.8214   22.0413 N   0  0  0  0  0  0
  -25.4203  -15.1939   20.4143 N   0  0  0  0  0  0
  -31.7717  -14.8599   20.0604 O   0  0  0  0  0  0
  -21.6640   -6.8882   21.4240 O   0  0  0  0  0  0
  -22.3510  -14.5525   20.6697 O   0  0  0  0  0  0
  -24.6323  -31.8542   23.1984 C   0  0  0  0  0  0
  -25.9134  -32.4756   23.8338 C   0  0  1  0  0  0
  -27.2243  -27.2529   20.1251 C   0  0  0  0  0  0
  -25.5919  -33.8560   24.2259 N   0  0  0  0  0  0
  -23.4302  -30.4764   21.5430 C   0  0  2  0  0  0
  -24.8769  -28.9227   20.1107 C   0  0  0  0  0  0
  -22.7509  -29.4590   22.4922 C   0  0  0  0  0  0
  -18.0289  -28.1381   22.8483 C   0  0  0  0  0  0
  -24.1489  -36.7275   23.2645 C   0  0  0  0  0  0
  -25.9774  -30.7633   21.3812 C   0  0  0  0  0  0
  -26.0484  -29.3865   20.7203 C   0  0  0  0  0  0
  -27.2207  -28.5639   20.7152 C   0  0  0  0  0  0
  -26.0265  -26.8631   19.4807 C   0  0  0  0  0  0
  -24.8725  -27.6706   19.4795 C   0  0  0  0  0  0
  -23.6482  -29.8095   20.1594 C   0  0  0  0  0  0
  -25.4119  -36.3077   24.0333 C   0  0  1  0  0  0
  -20.5894  -28.3697   23.1265 C   0  0  2  0  0  0
  -20.6777  -26.9412   22.5408 C   0  0  0  0  0  0
  -19.5749  -26.6380   21.5211 C   0  0  0  0  0  0
  -18.1934  -26.7926   22.1628 C   0  0  0  0  0  0
  -19.1543  -28.8859   23.2869 C   0  0  0  0  0  0
  -18.9465  -30.1459   23.8891 C   0  0  0  0  0  0
  -17.6465  -30.6588   24.0564 C   0  0  0  0  0  0
  -25.9055  -34.9442   23.5105 C   0  0  0  0  0  0
  -16.5355  -29.9085   23.6332 C   0  0  0  0  0  0
  -16.7277  -28.6500   23.0357 C   0  0  0  0  0  0
  -26.4497  -31.6584   25.0731 C   0  0  0  0  0  0
  -25.3708  -31.3719   26.1440 C   0  0  0  0  0  0
  -27.0354  -30.3006   24.6221 C   0  0  0  0  0  0
  -27.6058  -32.4327   25.7487 C   0  0  0  0  0  0
  -27.5581  -37.1797   24.8469 C   0  0  0  0  0  0
  -21.4215  -29.3036   22.3653 N   0  0  0  0  0  0
  -26.4299  -37.3776   23.9410 N   0  0  0  0  0  0
  -24.6992  -31.0491   22.0970 N   0  0  0  0  0  0
  -23.4196  -28.8136   23.3034 O   0  0  0  0  0  0
  -28.3382  -26.3775   20.2233 O   0  0  0  0  0  0
  -26.5639  -34.8915   22.4679 O   0  0  0  0  0  0
  -23.5465  -32.1369   23.7260 O   0  0  0  0  0  0
  -29.7883  -18.5342   18.0955 C   0  0  0  0  0  0
  -29.5916  -19.7520   18.7813 C   0  0  0  0  0  0
  -29.9194  -17.3075   18.7804 C   0  0  0  0  0  0
  -29.6411  -18.5053   20.8735 C   0  0  0  0  0  0
  -29.5203  -19.7937   20.1895 C   0  0  0  0  0  0
  -29.8458  -17.2316   20.1892 C   0  0  0  0  0  0
  -29.4908  -21.1856   20.8971 C   0  0  0  0  0  0
  -26.1532  -23.3395   21.6944 C   0  0  0  0  0  0
  -27.9450  -22.7543   23.3215 C   0  0  0  0  0  0
  -27.4936  -25.1210   22.8400 C   0  0  0  0  0  0
  -28.3033  -24.8951   19.9048 C   0  0  0  0  0  0
  -28.6045  -23.7045   20.9871 C   0  0  1  0  0  0
  -27.5654  -23.7256   22.1807 C   0  0  0  0  0  0
  -29.8699  -15.8770   20.8118 N   0  0  0  0  0  0
  -28.7663  -22.2734   20.4178 N   0  0  0  0  0  0
  -30.1720  -21.2952   21.9167 O   0  0  0  0  0  0
  -31.4756  -12.5717   19.1881 H   0  0  0  0  0  0
  -30.3715  -11.4742   19.9633 H   0  0  0  0  0  0
  -29.7977  -11.7518   17.5257 H   0  0  0  0  0  0
  -29.6475  -13.4780   17.7418 H   0  0  0  0  0  0
  -27.8863  -11.2965   18.9002 H   0  0  0  0  0  0
  -27.3867  -12.5549   17.8028 H   0  0  0  0  0  0
  -27.6447  -14.2638   19.4923 H   0  0  0  0  0  0
  -28.7190  -12.1579   21.4304 H   0  0  0  0  0  0
  -28.4184  -13.8318   21.8173 H   0  0  0  0  0  0
  -25.2766   -9.5686   22.4766 H   0  0  0  0  0  0
  -23.9997   -7.4644   22.7476 H   0  0  0  0  0  0
  -21.0845   -8.8782   19.8962 H   0  0  0  0  0  0
  -22.3702  -10.9677   19.6167 H   0  0  0  0  0  0
  -21.2010   -7.6146   23.9715 H   0  0  0  0  0  0
  -21.1488   -6.0521   25.9076 H   0  0  0  0  0  0
  -22.0596   -2.7606   23.2846 H   0  0  0  0  0  0
  -22.4088  -11.9876   22.4810 H   0  0  0  0  0  0
  -21.1096  -13.1251   22.2628 H   0  0  0  0  0  0
  -24.6514  -15.8462   20.5247 H   0  0  0  0  0  0
  -26.2708  -15.6364   20.0896 H   0  0  0  0  0  0
  -26.7198  -32.5405   23.1075 H   0  0  0  0  0  0
  -25.0055  -33.9696   25.0399 H   0  0  0  0  0  0
  -22.7277  -31.2996   21.3956 H   0  0  0  0  0  0
  -23.3767  -35.9593   23.3312 H   0  0  0  0  0  0
  -24.3580  -36.8891   22.2058 H   0  0  0  0  0  0
  -23.7215  -37.6467   23.6663 H   0  0  0  0  0  0
  -26.1201  -31.5256   20.6140 H   0  0  0  0  0  0
  -26.8539  -30.8095   22.0162 H   0  0  0  0  0  0
  -28.1170  -28.9143   21.2075 H   0  0  0  0  0  0
  -25.9303  -25.9177   18.9751 H   0  0  0  0  0  0
  -23.9756  -27.3112   18.9937 H   0  0  0  0  0  0
  -23.7746  -30.5855   19.4035 H   0  0  0  0  0  0
  -22.7672  -29.2418   19.8553 H   0  0  0  0  0  0
  -25.1300  -36.1942   25.0828 H   0  0  0  0  0  0
  -20.9986  -28.3282   24.1387 H   0  0  0  0  0  0
  -20.5669  -26.2314   23.3617 H   0  0  0  0  0  0
  -21.6649  -26.7432   22.1206 H   0  0  0  0  0  0
  -19.6915  -25.6288   21.1250 H   0  0  0  0  0  0
  -19.6688  -27.3188   20.6736 H   0  0  0  0  0  0
  -17.4201  -26.6668   21.4035 H   0  0  0  0  0  0
  -18.0339  -26.0070   22.9024 H   0  0  0  0  0  0
  -19.7941  -30.7274   24.2264 H   0  0  0  0  0  0
  -17.5018  -31.6267   24.5160 H   0  0  0  0  0  0
  -15.5354  -30.2985   23.7652 H   0  0  0  0  0  0
  -15.8677  -28.0813   22.7080 H   0  0  0  0  0  0
  -24.5885  -30.7080   25.7738 H   0  0  0  0  0  0
  -24.8893  -32.2880   26.4873 H   0  0  0  0  0  0
  -25.8009  -30.8870   27.0213 H   0  0  0  0  0  0
  -26.2949  -29.6741   24.1237 H   0  0  0  0  0  0
  -27.4031  -29.7279   25.4742 H   0  0  0  0  0  0
  -27.8825  -30.4290   23.9480 H   0  0  0  0  0  0
  -27.2685  -33.3637   26.2055 H   0  0  0  0  0  0
  -28.3859  -32.6872   25.0299 H   0  0  0  0  0  0
  -28.0741  -31.8460   26.5399 H   0  0  0  0  0  0
  -28.2610  -38.0086   24.7524 H   0  0  0  0  0  0
  -28.1071  -36.2618   24.6301 H   0  0  0  0  0  0
  -27.2298  -37.1449   25.8873 H   0  0  0  0  0  0
  -20.9410  -29.8758   21.6847 H   0  0  0  0  0  0
  -26.0184  -38.2858   24.1403 H   0  0  0  0  0  0
  -29.8518  -18.5420   17.0163 H   0  0  0  0  0  0
  -29.5410  -20.6691   18.2104 H   0  0  0  0  0  0
  -30.0557  -16.4083   18.1967 H   0  0  0  0  0  0
  -29.5937  -18.5065   21.9538 H   0  0  0  0  0  0
  -25.4380  -23.3393   22.5182 H   0  0  0  0  0  0
  -26.1351  -22.3437   21.2512 H   0  0  0  0  0  0
  -25.7735  -24.0360   20.9475 H   0  0  0  0  0  0
  -28.9704  -22.9147   23.6574 H   0  0  0  0  0  0
  -27.8378  -21.7103   23.0316 H   0  0  0  0  0  0
  -27.3029  -22.8818   24.1937 H   0  0  0  0  0  0
  -27.0203  -25.0878   23.8218 H   0  0  0  0  0  0
  -26.8950  -25.8178   22.2589 H   0  0  0  0  0  0
  -28.4846  -25.5561   22.9751 H   0  0  0  0  0  0
  -29.0775  -24.7923   19.1445 H   0  0  0  0  0  0
  -27.4052  -24.6139   19.3687 H   0  0  0  0  0  0
  -29.5820  -23.9467   21.4084 H   0  0  0  0  0  0
  -29.0623  -15.6702   21.3814 H   0  0  0  0  0  0
  -28.2369  -22.0858   19.5780 H   0  0  0  0  0  0
  1 25  1  0  0  0
  1 30  2  0  0  0
  1 84  1  0  0  0
  2  3  1  0  0  0
  2 25  1  0  0  0
  2 87  1  0  0  0
  2 88  1  0  0  0
  3  4  1  0  0  0
  3 89  1  0  0  0
  3 90  1  0  0  0
  4  5  1  0  0  0
  4 91  1  0  0  0
  4 92  1  0  0  0
  5  6  1  0  0  0
  5 26  1  0  0  0
  5 93  1  0  0  0
  6 25  1  0  0  0
  6 94  1  0  0  0
  6 95  1  0  0  0
  7  8  2  0  0  0
  7 26  1  0  0  0
  7 29  1  0  0  0
  8  9  1  0  0  0
  8 22  1  0  0  0
  9 10  1  0  0  0
  9 27  2  0  0  0
 10 11  2  0  0  0
 10 15  1  0  0  0
 11 12  1  0  0  0
 11 96  1  0  0  0
 12 13  2  0  0  0
 12 97  1  0  0  0
 13 14  1  0  0  0
 13 31  1  0  0  0
 14 15  2  0  0  0
 14 98  1  0  0  0
 15 99  1  0  0  0
 16 17  2  0  0  0
 16 21  1  0  0  0
 16 31  1  0  0  0
 17 18  1  0  0  0
 17100  1  0  0  0
 18 19  2  0  0  0
 18101  1  0  0  0
 19 20  1  0  0  0
 19 24  1  0  0  0
 20 21  2  0  0  0
 20102  1  0  0  0
 21 23  1  0  0  0
 22 28  1  0  0  0
 22 32  2  0  0  0
 26 27  1  0  0  0
 28103  1  0  0  0
 28104  1  0  0  0
 29105  1  0  0  0
 29106  1  0  0  0
 33 34  1  0  0  0
 33 66  1  0  0  0
 33 70  2  0  0  0
 34 36  1  0  0  0
 34 59  1  0  0  0
 34107  1  0  0  0
 35 44  2  0  0  0
 35 45  1  0  0  0
 35 68  1  0  0  0
 36 56  1  0  0  0
 36108  1  0  0  0
 37 39  1  0  0  0
 37 47  1  0  0  0
 37 66  1  0  0  0
 37109  1  0  0  0
 38 43  2  0  0  0
 38 46  1  0  0  0
 38 47  1  0  0  0
 39 64  1  0  0  0
 39 67  2  0  0  0
 40 52  1  0  0  0
 40 53  2  0  0  0
 40 58  1  0  0  0
 41110  1  0  0  0
 41111  1  0  0  0
 41112  1  0  0  0
 41 48  1  0  0  0
 42 43  1  0  0  0
 42 66  1  0  0  0
 42113  1  0  0  0
 42114  1  0  0  0
 43 44  1  0  0  0
 44115  1  0  0  0
 45 46  2  0  0  0
 45116  1  0  0  0
 46117  1  0  0  0
 47118  1  0  0  0
 47119  1  0  0  0
 48 56  1  0  0  0
 48 65  1  0  0  0
 48120  1  0  0  0
 49 50  1  0  0  0
 49 53  1  0  0  0
 49 64  1  0  0  0
 49121  1  0  0  0
 50 51  1  0  0  0
 50122  1  0  0  0
 50123  1  0  0  0
 51 52  1  0  0  0
 51124  1  0  0  0
 51125  1  0  0  0
 52126  1  0  0  0
 52127  1  0  0  0
 53 54  1  0  0  0
 54 55  2  0  0  0
 54128  1  0  0  0
 55 57  1  0  0  0
 55129  1  0  0  0
 56 69  2  0  0  0
 57 58  2  0  0  0
 57130  1  0  0  0
 58131  1  0  0  0
 59 60  1  0  0  0
 59 61  1  0  0  0
 59 62  1  0  0  0
 60132  1  0  0  0
 60133  1  0  0  0
 60134  1  0  0  0
 61135  1  0  0  0
 61136  1  0  0  0
 61137  1  0  0  0
 62138  1  0  0  0
 62139  1  0  0  0
 62140  1  0  0  0
 63 65  1  0  0  0
 63141  1  0  0  0
 63142  1  0  0  0
 63143  1  0  0  0
 64144  1  0  0  0
 65145  1  0  0  0
 68 81  1  0  0  0
 71 72  2  0  0  0
 71 73  1  0  0  0
 71146  1  0  0  0
 72 75  1  0  0  0
 72147  1  0  0  0
 73 76  2  0  0  0
 73148  1  0  0  0
 74 75  2  0  0  0
 74 76  1  0  0  0
 74149  1  0  0  0
 75 77  1  0  0  0
 76 84  1  0  0  0
 77 85  1  0  0  0
 77 86  2  0  0  0
 78150  1  0  0  0
 78151  1  0  0  0
 78152  1  0  0  0
 78 83  1  0  0  0
 79 83  1  0  0  0
 79153  1  0  0  0
 79154  1  0  0  0
 79155  1  0  0  0
 80 83  1  0  0  0
 80156  1  0  0  0
 80157  1  0  0  0
 80158  1  0  0  0
 81159  1  0  0  0
 81160  1  0  0  0
 81 82  1  0  0  0
 82 83  1  0  0  0
 82 85  1  0  0  0
 82161  1  0  0  0
 84162  1  0  0  0
 85163  1  0  0  0
M  ISO  4   1 100  68 101  81 101  84 100
M  END
> <chiral flag>
0

> <version>
0

> <s_m_source_file>
/data/baiqing/PycharmProjects/Reinvent-master-3.2/result/LINK_invent/BTK/process_docking_weight1_custom_product_contain_oxygen_bond_distance_aromatic_linkinvent_7_9_3/rearranged_h_0068.sdf

> <i_m_source_file_index>
61

> <r_mmod_Potential_Energy-OPLS-2005>
137.067886352539

> <r_mmod_Stretch_Energy-OPLS-2005>
141.030868530273

> <r_mmod_Bend_Energy-OPLS-2005>
182.407501220703

> <r_mmod_Torsional_Energy-OPLS-2005>
265.742095947266

> <r_mmod_Improper_Torsional_Energy-OPLS-2005>
4.91073656082153

> <r_mmod_Van_der_Waal_Energy-OPLS-2005>
141.593566894531

> <r_mmod_Electrostatic_Energy-OPLS-2005>
-459.204315185547

> <r_mmod_Solvation_Energy-OPLS-2005>
-226.274566650391

> <b_mmod_Minimization_Converged-OPLS-2005>
0

> <r_mmod_RMS_Derivative-OPLS-2005>
1.4337991476059

$$$$
61
                    3D
 Structure written by MMmdl.
160169  0  0  1  0            999 V2000
  -30.6194  -14.7373   20.4259 C   0  0  0  0  0  0
  -30.4253  -12.4431   19.4796 C   0  0  0  0  0  0
  -29.5084  -12.5109   18.2390 C   0  0  0  0  0  0
  -28.0331  -12.3408   18.6490 C   0  0  0  0  0  0
  -27.6410  -13.2364   19.8553 C   0  0  2  0  0  0
  -28.6863  -13.1710   20.9905 C   0  0  0  0  0  0
  -25.2508  -13.8213   20.5764 C   0  0  0  0  0  0
  -24.1789  -13.0450   20.9217 C   0  0  0  0  0  0
  -24.6383  -11.6926   20.8733 C   0  0  0  0  0  0
  -23.9049  -10.4304   21.0392 C   0  0  0  0  0  0
  -24.3597   -9.4234   21.9176 C   0  0  0  0  0  0
  -23.6280   -8.2265   22.0737 C   0  0  0  0  0  0
  -22.4259   -8.0290   21.3544 C   0  0  0  0  0  0
  -21.9889   -9.0247   20.4645 C   0  0  0  0  0  0
  -22.7207  -10.2134   20.3053 C   0  0  0  0  0  0
  -21.6849   -6.0731   22.5280 C   0  0  0  0  0  0
  -21.4014   -6.5636   23.8210 C   0  0  0  0  0  0
  -21.3675   -5.6791   24.9169 C   0  0  0  0  0  0
  -21.6047   -4.3049   24.7226 C   0  0  0  0  0  0
  -21.8818   -3.8138   23.4348 C   0  0  0  0  0  0
  -21.9187   -4.6959   22.3404 C   0  0  0  0  0  0
  -22.7815  -13.5222   21.1875 C   0  0  0  0  0  0
  -22.1630   -4.2146   21.0979 F   0  0  0  0  0  0
  -21.5647   -3.4541   25.7744 F   0  0  0  0  0  0
  -29.9901  -13.5112   20.4091 N   0  0  0  0  0  0
  -26.2943  -12.9429   20.3325 N   0  0  0  0  0  0
  -25.9326  -11.6560   20.5748 N   0  0  0  0  0  0
  -22.0458  -12.8206   22.0433 N   0  0  0  0  0  0
  -25.4205  -15.1956   20.4244 N   0  0  0  0  0  0
  -31.8110  -14.8107   20.1123 O   0  0  0  0  0  0
  -21.6644   -6.8875   21.4237 O   0  0  0  0  0  0
  -22.3510  -14.5534   20.6731 O   0  0  0  0  0  0
  -24.6331  -31.8548   23.1986 C   0  0  0  0  0  0
  -25.9160  -32.4738   23.8327 C   0  0  1  0  0  0
  -27.2081  -27.2469   20.1257 C   0  0  0  0  0  0
  -25.5969  -33.8547   24.2263 N   0  0  0  0  0  0
  -23.4282  -30.4789   21.5432 C   0  0  2  0  0  0
  -24.8721  -28.9312   20.1038 C   0  0  0  0  0  0
  -22.7504  -29.4599   22.4907 C   0  0  0  0  0  0
  -18.0290  -28.1390   22.8482 C   0  0  0  0  0  0
  -24.1496  -36.7275   23.2636 C   0  0  0  0  0  0
  -25.9738  -30.7637   21.3792 C   0  0  0  0  0  0
  -26.0436  -29.3852   20.7216 C   0  0  0  0  0  0
  -27.2130  -28.5544   20.7255 C   0  0  0  0  0  0
  -26.0163  -26.8779   19.4606 C   0  0  0  0  0  0
  -24.8651  -27.6871   19.4604 C   0  0  0  0  0  0
  -23.6432  -29.8178   20.1570 C   0  0  0  0  0  0
  -25.4112  -36.3058   24.0327 C   0  0  1  0  0  0
  -20.5899  -28.3691   23.1268 C   0  0  2  0  0  0
  -20.6785  -26.9407   22.5413 C   0  0  0  0  0  0
  -19.5759  -26.6382   21.5219 C   0  0  0  0  0  0
  -18.1937  -26.7926   22.1623 C   0  0  0  0  0  0
  -19.1548  -28.8855   23.2869 C   0  0  0  0  0  0
  -18.9464  -30.1453   23.8888 C   0  0  0  0  0  0
  -17.6467  -30.6588   24.0557 C   0  0  0  0  0  0
  -25.9068  -34.9430   23.5097 C   0  0  0  0  0  0
  -16.5357  -29.9082   23.6338 C   0  0  0  0  0  0
  -16.7276  -28.6502   23.0352 C   0  0  0  0  0  0
  -26.4530  -31.6543   25.0694 C   0  0  0  0  0  0
  -25.3764  -31.3685   26.1423 C   0  0  0  0  0  0
  -27.0362  -30.2957   24.6177 C   0  0  0  0  0  0
  -27.6114  -32.4256   25.7452 C   0  0  0  0  0  0
  -27.5575  -37.1795   24.8461 C   0  0  0  0  0  0
  -21.4208  -29.3038   22.3651 N   0  0  0  0  0  0
  -26.4279  -37.3761   23.9407 N   0  0  0  0  0  0
  -24.6978  -31.0509   22.0971 N   0  0  0  0  0  0
  -23.4198  -28.8143   23.3014 O   0  0  0  0  0  0
  -28.2853  -26.3253   20.2064 O   0  0  0  0  0  0
  -26.5620  -34.8904   22.4657 O   0  0  0  0  0  0
  -23.5485  -32.1372   23.7283 O   0  0  0  0  0  0
  -30.7940  -18.5467   18.0614 C   0  0  0  0  0  0
  -30.3158  -19.7513   18.6089 C   0  0  0  0  0  0
  -30.6667  -17.3252   18.7453 C   0  0  0  0  0  0
  -29.5290  -18.5138   20.5394 C   0  0  0  0  0  0
  -29.6833  -19.8141   19.8741 C   0  0  0  0  0  0
  -30.0349  -17.2464   20.0070 C   0  0  0  0  0  0
  -29.0937  -21.6462   21.6346 C   0  0  0  0  0  0
  -29.3004  -20.9818   22.7928 C   0  0  0  0  0  0
  -29.1497  -21.5591   24.1415 C   0  0  0  0  0  0
  -29.0415  -22.3178   19.4619 C   0  0  0  0  0  0
  -29.0062  -23.6287   20.3486 C   0  0  1  0  0  0
  -29.8441  -20.8216   25.2779 C   0  0  0  0  0  0
  -28.0240  -24.8600   19.9348 C   0  0  0  0  0  0
  -29.2728  -21.1410   20.3472 N   0  0  0  0  0  0
  -29.8652  -15.8931   20.6162 N   0  0  0  0  0  0
  -28.4930  -22.5707   24.4053 O   0  0  0  0  0  0
  -28.7489  -22.9970   21.6173 O   0  0  0  0  0  0
  -31.4677  -12.5523   19.1788 H   0  0  0  0  0  0
  -30.3544  -11.4660   19.9592 H   0  0  0  0  0  0
  -29.7863  -11.7431   17.5162 H   0  0  0  0  0  0
  -29.6433  -13.4686   17.7327 H   0  0  0  0  0  0
  -27.8794  -11.2902   18.8969 H   0  0  0  0  0  0
  -27.3801  -12.5483   17.8016 H   0  0  0  0  0  0
  -27.6358  -14.2613   19.4842 H   0  0  0  0  0  0
  -28.7144  -12.1756   21.4360 H   0  0  0  0  0  0
  -28.4274  -13.8606   21.7964 H   0  0  0  0  0  0
  -25.2745   -9.5738   22.4740 H   0  0  0  0  0  0
  -24.0008   -7.4647   22.7431 H   0  0  0  0  0  0
  -21.0822   -8.8732   19.8954 H   0  0  0  0  0  0
  -22.3625  -10.9652   19.6158 H   0  0  0  0  0  0
  -21.1986   -7.6141   23.9722 H   0  0  0  0  0  0
  -21.1498   -6.0512   25.9076 H   0  0  0  0  0  0
  -22.0587   -2.7602   23.2840 H   0  0  0  0  0  0
  -22.4060  -11.9883   22.4862 H   0  0  0  0  0  0
  -21.1097  -13.1271   22.2650 H   0  0  0  0  0  0
  -24.6546  -15.8513   20.5339 H   0  0  0  0  0  0
  -26.2761  -15.6398   20.1143 H   0  0  0  0  0  0
  -26.7206  -32.5387   23.1059 H   0  0  0  0  0  0
  -25.0134  -33.9685   25.0421 H   0  0  0  0  0  0
  -22.7259  -31.3032   21.4009 H   0  0  0  0  0  0
  -23.3774  -35.9595   23.3270 H   0  0  0  0  0  0
  -24.3603  -36.8932   22.2060 H   0  0  0  0  0  0
  -23.7239  -37.6460   23.6679 H   0  0  0  0  0  0
  -26.1115  -31.5239   20.6088 H   0  0  0  0  0  0
  -26.8527  -30.8154   22.0088 H   0  0  0  0  0  0
  -28.1052  -28.8920   21.2344 H   0  0  0  0  0  0
  -25.9323  -25.9342   18.9443 H   0  0  0  0  0  0
  -23.9696  -27.3395   18.9613 H   0  0  0  0  0  0
  -23.7644  -30.5965   19.4035 H   0  0  0  0  0  0
  -22.7603  -29.2520   19.8514 H   0  0  0  0  0  0
  -25.1308  -36.1898   25.0819 H   0  0  0  0  0  0
  -20.9985  -28.3271   24.1388 H   0  0  0  0  0  0
  -20.5699  -26.2298   23.3619 H   0  0  0  0  0  0
  -21.6649  -26.7450   22.1195 H   0  0  0  0  0  0
  -19.6929  -25.6298   21.1237 H   0  0  0  0  0  0
  -19.6695  -27.3196   20.6753 H   0  0  0  0  0  0
  -17.4214  -26.6674   21.4021 H   0  0  0  0  0  0
  -18.0332  -26.0065   22.9014 H   0  0  0  0  0  0
  -19.7938  -30.7271   24.2256 H   0  0  0  0  0  0
  -17.5014  -31.6263   24.5150 H   0  0  0  0  0  0
  -15.5353  -30.2979   23.7652 H   0  0  0  0  0  0
  -15.8676  -28.0807   22.7081 H   0  0  0  0  0  0
  -24.5960  -30.7015   25.7742 H   0  0  0  0  0  0
  -24.8938  -32.2839   26.4850 H   0  0  0  0  0  0
  -25.8098  -30.8856   27.0195 H   0  0  0  0  0  0
  -26.2924  -29.6698   24.1237 H   0  0  0  0  0  0
  -27.4069  -29.7233   25.4694 H   0  0  0  0  0  0
  -27.8798  -30.4223   23.9392 H   0  0  0  0  0  0
  -27.2782  -33.3589   26.2004 H   0  0  0  0  0  0
  -28.3933  -32.6753   25.0264 H   0  0  0  0  0  0
  -28.0765  -31.8375   26.5377 H   0  0  0  0  0  0
  -28.2584  -38.0104   24.7530 H   0  0  0  0  0  0
  -28.1093  -36.2643   24.6268 H   0  0  0  0  0  0
  -27.2301  -37.1402   25.8867 H   0  0  0  0  0  0
  -20.9392  -29.8735   21.6834 H   0  0  0  0  0  0
  -26.0164  -38.2832   24.1438 H   0  0  0  0  0  0
  -31.2672  -18.5632   17.0889 H   0  0  0  0  0  0
  -30.4791  -20.6381   18.0169 H   0  0  0  0  0  0
  -31.0425  -16.4382   18.2545 H   0  0  0  0  0  0
  -28.9920  -18.4715   21.4731 H   0  0  0  0  0  0
  -29.6480  -19.9627   22.7805 H   0  0  0  0  0  0
  -29.8096  -22.4384   18.7018 H   0  0  0  0  0  0
  -28.0903  -22.1865   18.9461 H   0  0  0  0  0  0
  -30.0238  -24.0182   20.3940 H   0  0  0  0  0  0
  -29.2940  -19.9133   25.5258 H   0  0  0  0  0  0
  -29.9126  -21.4493   26.1673 H   0  0  0  0  0  0
  -30.8542  -20.5390   24.9802 H   0  0  0  0  0  0
  -27.0398  -24.5968   20.3238 H   0  0  0  0  0  0
  -27.9301  -24.8025   18.8498 H   0  0  0  0  0  0
  -28.9799  -15.7386   21.0748 H   0  0  0  0  0  0
  1 25  1  0  0  0
  1 30  2  0  0  0
  1 85  1  0  0  0
  2  3  1  0  0  0
  2 25  1  0  0  0
  2 88  1  0  0  0
  2 89  1  0  0  0
  3  4  1  0  0  0
  3 90  1  0  0  0
  3 91  1  0  0  0
  4  5  1  0  0  0
  4 92  1  0  0  0
  4 93  1  0  0  0
  5  6  1  0  0  0
  5 26  1  0  0  0
  5 94  1  0  0  0
  6 25  1  0  0  0
  6 95  1  0  0  0
  6 96  1  0  0  0
  7  8  2  0  0  0
  7 26  1  0  0  0
  7 29  1  0  0  0
  8  9  1  0  0  0
  8 22  1  0  0  0
  9 10  1  0  0  0
  9 27  2  0  0  0
 10 11  2  0  0  0
 10 15  1  0  0  0
 11 12  1  0  0  0
 11 97  1  0  0  0
 12 13  2  0  0  0
 12 98  1  0  0  0
 13 14  1  0  0  0
 13 31  1  0  0  0
 14 15  2  0  0  0
 14 99  1  0  0  0
 15100  1  0  0  0
 16 17  2  0  0  0
 16 21  1  0  0  0
 16 31  1  0  0  0
 17 18  1  0  0  0
 17101  1  0  0  0
 18 19  2  0  0  0
 18102  1  0  0  0
 19 20  1  0  0  0
 19 24  1  0  0  0
 20 21  2  0  0  0
 20103  1  0  0  0
 21 23  1  0  0  0
 22 28  1  0  0  0
 22 32  2  0  0  0
 26 27  1  0  0  0
 28104  1  0  0  0
 28105  1  0  0  0
 29106  1  0  0  0
 29107  1  0  0  0
 33 34  1  0  0  0
 33 66  1  0  0  0
 33 70  2  0  0  0
 34 36  1  0  0  0
 34 59  1  0  0  0
 34108  1  0  0  0
 35 44  2  0  0  0
 35 45  1  0  0  0
 35 68  1  0  0  0
 36 56  1  0  0  0
 36109  1  0  0  0
 37 39  1  0  0  0
 37 47  1  0  0  0
 37 66  1  0  0  0
 37110  1  0  0  0
 38 43  2  0  0  0
 38 46  1  0  0  0
 38 47  1  0  0  0
 39 64  1  0  0  0
 39 67  2  0  0  0
 40 52  1  0  0  0
 40 53  2  0  0  0
 40 58  1  0  0  0
 41111  1  0  0  0
 41112  1  0  0  0
 41113  1  0  0  0
 41 48  1  0  0  0
 42 43  1  0  0  0
 42 66  1  0  0  0
 42114  1  0  0  0
 42115  1  0  0  0
 43 44  1  0  0  0
 44116  1  0  0  0
 45 46  2  0  0  0
 45117  1  0  0  0
 46118  1  0  0  0
 47119  1  0  0  0
 47120  1  0  0  0
 48 56  1  0  0  0
 48 65  1  0  0  0
 48121  1  0  0  0
 49 50  1  0  0  0
 49 53  1  0  0  0
 49 64  1  0  0  0
 49122  1  0  0  0
 50 51  1  0  0  0
 50123  1  0  0  0
 50124  1  0  0  0
 51 52  1  0  0  0
 51125  1  0  0  0
 51126  1  0  0  0
 52127  1  0  0  0
 52128  1  0  0  0
 53 54  1  0  0  0
 54 55  2  0  0  0
 54129  1  0  0  0
 55 57  1  0  0  0
 55130  1  0  0  0
 56 69  2  0  0  0
 57 58  2  0  0  0
 57131  1  0  0  0
 58132  1  0  0  0
 59 60  1  0  0  0
 59 61  1  0  0  0
 59 62  1  0  0  0
 60133  1  0  0  0
 60134  1  0  0  0
 60135  1  0  0  0
 61136  1  0  0  0
 61137  1  0  0  0
 61138  1  0  0  0
 62139  1  0  0  0
 62140  1  0  0  0
 62141  1  0  0  0
 63 65  1  0  0  0
 63142  1  0  0  0
 63143  1  0  0  0
 63144  1  0  0  0
 64145  1  0  0  0
 65146  1  0  0  0
 68 83  1  0  0  0
 71 72  2  0  0  0
 71 73  1  0  0  0
 71147  1  0  0  0
 72 75  1  0  0  0
 72148  1  0  0  0
 73 76  2  0  0  0
 73149  1  0  0  0
 74 75  2  0  0  0
 74 76  1  0  0  0
 74150  1  0  0  0
 75 84  1  0  0  0
 76 85  1  0  0  0
 77 78  2  0  0  0
 77 84  1  0  0  0
 77 87  1  0  0  0
 78 79  1  0  0  0
 78151  1  0  0  0
 79 82  1  0  0  0
 79 86  2  0  0  0
 80 81  1  0  0  0
 80 84  1  0  0  0
 80152  1  0  0  0
 80153  1  0  0  0
 81 83  1  0  0  0
 81 87  1  0  0  0
 81154  1  0  0  0
 82155  1  0  0  0
 82156  1  0  0  0
 82157  1  0  0  0
 83158  1  0  0  0
 83159  1  0  0  0
 85160  1  0  0  0
M  ISO  4   1 100  68 101  83 101  85 100
M  END
> <chiral flag>
0

> <version>
0

> <s_m_source_file>
/data/baiqing/PycharmProjects/Reinvent-master-3.2/result/LINK_invent/BTK/process_docking_weight1_custom_product_contain_oxygen_bond_distance_aromatic_linkinvent_7_9_3/rearranged_h_0068.sdf

> <i_m_source_file_index>
62

> <r_mmod_Potential_Energy-OPLS-2005>
267.537719726562

> <r_mmod_Stretch_Energy-OPLS-2005>
128.917297363281

> <r_mmod_Bend_Energy-OPLS-2005>
210.783737182617

> <r_mmod_Torsional_Energy-OPLS-2005>
252.72575378418

> <r_mmod_Improper_Torsional_Energy-OPLS-2005>
4.80492687225342

> <r_mmod_Van_der_Waal_Energy-OPLS-2005>
147.156585693359

> <r_mmod_Electrostatic_Energy-OPLS-2005>
-318.313201904297

> <r_mmod_Solvation_Energy-OPLS-2005>
-249.041778564453

> <b_mmod_Minimization_Converged-OPLS-2005>
0

> <r_mmod_RMS_Derivative-OPLS-2005>
2.47690725326538

$$$$
62
                    3D
 Structure written by MMmdl.
154162  0  0  1  0            999 V2000
  -30.6283  -14.7585   20.4317 C   0  0  0  0  0  0
  -30.4313  -12.4567   19.4565 C   0  0  0  0  0  0
  -29.5049  -12.4813   18.2203 C   0  0  0  0  0  0
  -28.0334  -12.3020   18.6501 C   0  0  0  0  0  0
  -27.6333  -13.2299   19.8254 C   0  0  2  0  0  0
  -28.6829  -13.2013   20.9569 C   0  0  0  0  0  0
  -25.2473  -13.8184   20.5673 C   0  0  0  0  0  0
  -24.1784  -13.0427   20.9226 C   0  0  0  0  0  0
  -24.6384  -11.6894   20.8733 C   0  0  0  0  0  0
  -23.9044  -10.4286   21.0402 C   0  0  0  0  0  0
  -24.3605   -9.4188   21.9179 C   0  0  0  0  0  0
  -23.6296   -8.2219   22.0744 C   0  0  0  0  0  0
  -22.4260   -8.0274   21.3545 C   0  0  0  0  0  0
  -21.9904   -9.0230   20.4630 C   0  0  0  0  0  0
  -22.7228  -10.2118   20.3042 C   0  0  0  0  0  0
  -21.6845   -6.0700   22.5282 C   0  0  0  0  0  0
  -21.4013   -6.5614   23.8206 C   0  0  0  0  0  0
  -21.3658   -5.6767   24.9176 C   0  0  0  0  0  0
  -21.6055   -4.3048   24.7228 C   0  0  0  0  0  0
  -21.8810   -3.8117   23.4357 C   0  0  0  0  0  0
  -21.9192   -4.6916   22.3411 C   0  0  0  0  0  0
  -22.7799  -13.5203   21.1899 C   0  0  0  0  0  0
  -22.1653   -4.2112   21.0992 F   0  0  0  0  0  0
  -21.5634   -3.4540   25.7748 F   0  0  0  0  0  0
  -29.9816  -13.5434   20.3576 N   0  0  0  0  0  0
  -26.2898  -12.9399   20.3182 N   0  0  0  0  0  0
  -25.9312  -11.6545   20.5715 N   0  0  0  0  0  0
  -22.0439  -12.8184   22.0452 N   0  0  0  0  0  0
  -25.4144  -15.1914   20.4050 N   0  0  0  0  0  0
  -31.8394  -14.8106   20.2101 O   0  0  0  0  0  0
  -21.6633   -6.8856   21.4254 O   0  0  0  0  0  0
  -22.3466  -14.5484   20.6701 O   0  0  0  0  0  0
  -24.6332  -31.8538   23.1954 C   0  0  0  0  0  0
  -25.9160  -32.4739   23.8312 C   0  0  1  0  0  0
  -27.2356  -27.2685   20.1223 C   0  0  0  0  0  0
  -25.5924  -33.8541   24.2218 N   0  0  0  0  0  0
  -23.4303  -30.4762   21.5338 C   0  0  2  0  0  0
  -24.8810  -28.9193   20.1047 C   0  0  0  0  0  0
  -22.7507  -29.4583   22.4822 C   0  0  0  0  0  0
  -18.0299  -28.1418   22.8485 C   0  0  0  0  0  0
  -24.1485  -36.7282   23.2640 C   0  0  0  0  0  0
  -25.9753  -30.7722   21.3684 C   0  0  0  0  0  0
  -26.0482  -29.3916   20.7162 C   0  0  0  0  0  0
  -27.2229  -28.5759   20.7156 C   0  0  0  0  0  0
  -26.0386  -26.8495   19.5015 C   0  0  0  0  0  0
  -24.8808  -27.6568   19.4859 C   0  0  0  0  0  0
  -23.6534  -29.8099   20.1471 C   0  0  0  0  0  0
  -25.4108  -36.3051   24.0320 C   0  0  1  0  0  0
  -20.5923  -28.3732   23.1233 C   0  0  2  0  0  0
  -20.6790  -26.9439   22.5406 C   0  0  0  0  0  0
  -19.5747  -26.6393   21.5227 C   0  0  0  0  0  0
  -18.1923  -26.7957   22.1631 C   0  0  0  0  0  0
  -19.1572  -28.8884   23.2866 C   0  0  0  0  0  0
  -18.9484  -30.1476   23.8905 C   0  0  0  0  0  0
  -17.6479  -30.6598   24.0591 C   0  0  0  0  0  0
  -25.9056  -34.9426   23.5073 C   0  0  0  0  0  0
  -16.5370  -29.9105   23.6332 C   0  0  0  0  0  0
  -16.7293  -28.6537   23.0342 C   0  0  0  0  0  0
  -26.4536  -31.6591   25.0704 C   0  0  0  0  0  0
  -25.3767  -31.3785   26.1431 C   0  0  0  0  0  0
  -27.0385  -30.3006   24.6166 C   0  0  0  0  0  0
  -27.6056  -32.4365   25.7500 C   0  0  0  0  0  0
  -27.5564  -37.1765   24.8447 C   0  0  0  0  0  0
  -21.4221  -29.3073   22.3608 N   0  0  0  0  0  0
  -26.4249  -37.3773   23.9429 N   0  0  0  0  0  0
  -24.6990  -31.0515   22.0908 N   0  0  0  0  0  0
  -23.4222  -28.8111   23.2900 O   0  0  0  0  0  0
  -28.3661  -26.4228   20.1996 O   0  0  0  0  0  0
  -26.5606  -34.8915   22.4624 O   0  0  0  0  0  0
  -23.5458  -32.1332   23.7237 O   0  0  0  0  0  0
  -30.8484  -20.0084   21.6606 C   0  0  0  0  0  0
  -31.3030  -17.5898   21.6045 C   0  0  0  0  0  0
  -29.4683  -18.5314   20.3125 C   0  0  0  0  0  0
  -31.5836  -18.8844   22.0923 C   0  0  0  0  0  0
  -29.7799  -19.8975   20.7357 C   0  0  0  0  0  0
  -30.2132  -17.3448   20.7424 C   0  0  0  0  0  0
  -29.3170  -22.4817   20.4131 C   0  0  0  0  0  0
  -32.6516  -19.0579   23.1543 C   0  0  0  0  0  0
  -28.2089  -23.6436   20.2926 C   0  0  0  0  0  0
  -28.4849  -25.0694   19.5552 C   0  0  0  0  0  0
  -28.9989  -21.1211   20.3633 N   0  0  0  0  0  0
  -29.8630  -15.9263   20.4345 N   0  0  0  0  0  0
  -30.4869  -22.8460   20.5615 O   0  0  0  0  0  0
  -31.4738  -12.5766   19.1511 H   0  0  0  0  0  0
  -30.3768  -11.4897   19.9584 H   0  0  0  0  0  0
  -29.7882  -11.6881   17.5238 H   0  0  0  0  0  0
  -29.6288  -13.4209   17.6787 H   0  0  0  0  0  0
  -27.9151  -11.2628   18.9526 H   0  0  0  0  0  0
  -27.3634  -12.4450   17.8016 H   0  0  0  0  0  0
  -27.6157  -14.2406   19.4159 H   0  0  0  0  0  0
  -28.7176  -12.2179   21.4294 H   0  0  0  0  0  0
  -28.4174  -13.9178   21.7369 H   0  0  0  0  0  0
  -25.2754   -9.5639   22.4751 H   0  0  0  0  0  0
  -23.9980   -7.4595   22.7464 H   0  0  0  0  0  0
  -21.0828   -8.8751   19.8946 H   0  0  0  0  0  0
  -22.3703  -10.9641   19.6131 H   0  0  0  0  0  0
  -21.2009   -7.6126   23.9703 H   0  0  0  0  0  0
  -21.1496   -6.0513   25.9085 H   0  0  0  0  0  0
  -22.0596   -2.7581   23.2882 H   0  0  0  0  0  0
  -22.4054  -11.9885   22.4897 H   0  0  0  0  0  0
  -21.1038  -13.1170   22.2593 H   0  0  0  0  0  0
  -24.6401  -15.8407   20.5022 H   0  0  0  0  0  0
  -26.2555  -15.6364   20.0615 H   0  0  0  0  0  0
  -26.7231  -32.5394   23.1057 H   0  0  0  0  0  0
  -25.0177  -33.9680   25.0427 H   0  0  0  0  0  0
  -22.7303  -31.3015   21.3820 H   0  0  0  0  0  0
  -23.3714  -35.9639   23.3281 H   0  0  0  0  0  0
  -24.3615  -36.8924   22.2062 H   0  0  0  0  0  0
  -23.7252  -37.6476   23.6700 H   0  0  0  0  0  0
  -26.1040  -31.5289   20.5926 H   0  0  0  0  0  0
  -26.8595  -30.8335   21.9932 H   0  0  0  0  0  0
  -28.1169  -28.9331   21.2087 H   0  0  0  0  0  0
  -25.9574  -25.8736   19.0497 H   0  0  0  0  0  0
  -23.9874  -27.2866   19.0044 H   0  0  0  0  0  0
  -23.7884  -30.5891   19.3936 H   0  0  0  0  0  0
  -22.7732  -29.2453   19.8296 H   0  0  0  0  0  0
  -25.1283  -36.1880   25.0805 H   0  0  0  0  0  0
  -21.0060  -28.3343   24.1338 H   0  0  0  0  0  0
  -20.5694  -26.2368   23.3635 H   0  0  0  0  0  0
  -21.6645  -26.7449   22.1190 H   0  0  0  0  0  0
  -19.6907  -25.6309   21.1232 H   0  0  0  0  0  0
  -19.6655  -27.3239   20.6782 H   0  0  0  0  0  0
  -17.4202  -26.6735   21.4020 H   0  0  0  0  0  0
  -18.0291  -26.0113   22.9042 H   0  0  0  0  0  0
  -19.7984  -30.7289   24.2260 H   0  0  0  0  0  0
  -17.5055  -31.6275   24.5217 H   0  0  0  0  0  0
  -15.5389  -30.3018   23.7640 H   0  0  0  0  0  0
  -15.8708  -28.0866   22.7017 H   0  0  0  0  0  0
  -24.5920  -30.7155   25.7776 H   0  0  0  0  0  0
  -24.8997  -32.2989   26.4803 H   0  0  0  0  0  0
  -25.8080  -30.9001   27.0236 H   0  0  0  0  0  0
  -26.2966  -29.6731   24.1206 H   0  0  0  0  0  0
  -27.4115  -29.7287   25.4679 H   0  0  0  0  0  0
  -27.8841  -30.4268   23.9404 H   0  0  0  0  0  0
  -27.2613  -33.3668   26.2039 H   0  0  0  0  0  0
  -28.3906  -32.6918   25.0378 H   0  0  0  0  0  0
  -28.0704  -31.8538   26.5458 H   0  0  0  0  0  0
  -28.2511  -38.0126   24.7544 H   0  0  0  0  0  0
  -28.1115  -36.2639   24.6187 H   0  0  0  0  0  0
  -27.2309  -37.1331   25.8856 H   0  0  0  0  0  0
  -20.9417  -29.8869   21.6877 H   0  0  0  0  0  0
  -26.0094  -38.2819   24.1491 H   0  0  0  0  0  0
  -31.1028  -20.9709   22.0868 H   0  0  0  0  0  0
  -31.9108  -16.7697   21.9599 H   0  0  0  0  0  0
  -28.6272  -18.3934   19.6446 H   0  0  0  0  0  0
  -33.2802  -18.1719   23.2562 H   0  0  0  0  0  0
  -32.1763  -19.2345   24.1222 H   0  0  0  0  0  0
  -33.2977  -19.9063   22.9326 H   0  0  0  0  0  0
  -27.8678  -23.8597   21.3063 H   0  0  0  0  0  0
  -27.3517  -23.1911   19.7913 H   0  0  0  0  0  0
  -29.5127  -25.0419   19.1912 H   0  0  0  0  0  0
  -27.9093  -25.0796   18.6286 H   0  0  0  0  0  0
  -28.0474  -20.9443   20.0680 H   0  0  0  0  0  0
  -28.8841  -15.7636   20.2539 H   0  0  0  0  0  0
  1 25  1  0  0  0
  1 30  2  0  0  0
  1 82  1  0  0  0
  2  3  1  0  0  0
  2 25  1  0  0  0
  2 84  1  0  0  0
  2 85  1  0  0  0
  3  4  1  0  0  0
  3 86  1  0  0  0
  3 87  1  0  0  0
  4  5  1  0  0  0
  4 88  1  0  0  0
  4 89  1  0  0  0
  5  6  1  0  0  0
  5 26  1  0  0  0
  5 90  1  0  0  0
  6 25  1  0  0  0
  6 91  1  0  0  0
  6 92  1  0  0  0
  7  8  2  0  0  0
  7 26  1  0  0  0
  7 29  1  0  0  0
  8  9  1  0  0  0
  8 22  1  0  0  0
  9 10  1  0  0  0
  9 27  2  0  0  0
 10 11  2  0  0  0
 10 15  1  0  0  0
 11 12  1  0  0  0
 11 93  1  0  0  0
 12 13  2  0  0  0
 12 94  1  0  0  0
 13 14  1  0  0  0
 13 31  1  0  0  0
 14 15  2  0  0  0
 14 95  1  0  0  0
 15 96  1  0  0  0
 16 17  2  0  0  0
 16 21  1  0  0  0
 16 31  1  0  0  0
 17 18  1  0  0  0
 17 97  1  0  0  0
 18 19  2  0  0  0
 18 98  1  0  0  0
 19 20  1  0  0  0
 19 24  1  0  0  0
 20 21  2  0  0  0
 20 99  1  0  0  0
 21 23  1  0  0  0
 22 28  1  0  0  0
 22 32  2  0  0  0
 26 27  1  0  0  0
 28100  1  0  0  0
 28101  1  0  0  0
 29102  1  0  0  0
 29103  1  0  0  0
 33 34  1  0  0  0
 33 66  1  0  0  0
 33 70  2  0  0  0
 34 36  1  0  0  0
 34 59  1  0  0  0
 34104  1  0  0  0
 35 44  2  0  0  0
 35 45  1  0  0  0
 35 68  1  0  0  0
 36 56  1  0  0  0
 36105  1  0  0  0
 37 39  1  0  0  0
 37 47  1  0  0  0
 37 66  1  0  0  0
 37106  1  0  0  0
 38 43  2  0  0  0
 38 46  1  0  0  0
 38 47  1  0  0  0
 39 64  1  0  0  0
 39 67  2  0  0  0
 40 52  1  0  0  0
 40 53  2  0  0  0
 40 58  1  0  0  0
 41107  1  0  0  0
 41108  1  0  0  0
 41109  1  0  0  0
 41 48  1  0  0  0
 42 43  1  0  0  0
 42 66  1  0  0  0
 42110  1  0  0  0
 42111  1  0  0  0
 43 44  1  0  0  0
 44112  1  0  0  0
 45 46  2  0  0  0
 45113  1  0  0  0
 46114  1  0  0  0
 47115  1  0  0  0
 47116  1  0  0  0
 48 56  1  0  0  0
 48 65  1  0  0  0
 48117  1  0  0  0
 49 50  1  0  0  0
 49 53  1  0  0  0
 49 64  1  0  0  0
 49118  1  0  0  0
 50 51  1  0  0  0
 50119  1  0  0  0
 50120  1  0  0  0
 51 52  1  0  0  0
 51121  1  0  0  0
 51122  1  0  0  0
 52123  1  0  0  0
 52124  1  0  0  0
 53 54  1  0  0  0
 54 55  2  0  0  0
 54125  1  0  0  0
 55 57  1  0  0  0
 55126  1  0  0  0
 56 69  2  0  0  0
 57 58  2  0  0  0
 57127  1  0  0  0
 58128  1  0  0  0
 59 60  1  0  0  0
 59 61  1  0  0  0
 59 62  1  0  0  0
 60129  1  0  0  0
 60130  1  0  0  0
 60131  1  0  0  0
 61132  1  0  0  0
 61133  1  0  0  0
 61134  1  0  0  0
 62135  1  0  0  0
 62136  1  0  0  0
 62137  1  0  0  0
 63 65  1  0  0  0
 63138  1  0  0  0
 63139  1  0  0  0
 63140  1  0  0  0
 64141  1  0  0  0
 65142  1  0  0  0
 68 80  1  0  0  0
 71 74  2  0  0  0
 71 75  1  0  0  0
 71143  1  0  0  0
 72 74  1  0  0  0
 72 76  2  0  0  0
 72144  1  0  0  0
 73 75  2  0  0  0
 73 76  1  0  0  0
 73145  1  0  0  0
 74 78  1  0  0  0
 75 81  1  0  0  0
 76 82  1  0  0  0
 77 79  1  0  0  0
 77 81  1  0  0  0
 77 83  2  0  0  0
 78146  1  0  0  0
 78147  1  0  0  0
 78148  1  0  0  0
 79 80  1  0  0  0
 79149  1  0  0  0
 79150  1  0  0  0
 80151  1  0  0  0
 80152  1  0  0  0
 81153  1  0  0  0
 82154  1  0  0  0
M  ISO  4   1 100  68 101  80 101  82 100
M  END
> <chiral flag>
0

> <version>
0

> <s_m_source_file>
/data/baiqing/PycharmProjects/Reinvent-master-3.2/result/LINK_invent/BTK/process_docking_weight1_custom_product_contain_oxygen_bond_distance_aromatic_linkinvent_7_9_3/rearranged_h_0068.sdf

> <i_m_source_file_index>
63

> <r_mmod_Potential_Energy-OPLS-2005>
179.576324462891

> <r_mmod_Stretch_Energy-OPLS-2005>
135.895095825195

> <r_mmod_Bend_Energy-OPLS-2005>
183.284194946289

> <r_mmod_Torsional_Energy-OPLS-2005>
236.21647644043

> <r_mmod_Improper_Torsional_Energy-OPLS-2005>
8.60268115997314

> <r_mmod_Van_der_Waal_Energy-OPLS-2005>
137.448715209961

> <r_mmod_Electrostatic_Energy-OPLS-2005>
-368.944854736328

> <r_mmod_Solvation_Energy-OPLS-2005>
-242.350021362305

> <b_mmod_Minimization_Converged-OPLS-2005>
0

> <r_mmod_RMS_Derivative-OPLS-2005>
5.53964376449585

$$$$
63
                    3D
 Structure written by MMmdl.
154162  0  0  1  0            999 V2000
  -30.6313  -14.7188   20.4487 C   0  0  0  0  0  0
  -30.4355  -12.4453   19.4308 C   0  0  0  0  0  0
  -29.4972  -12.4668   18.2063 C   0  0  0  0  0  0
  -28.0236  -12.3128   18.6356 C   0  0  0  0  0  0
  -27.6358  -13.2235   19.8308 C   0  0  2  0  0  0
  -28.6923  -13.1546   20.9494 C   0  0  0  0  0  0
  -25.2528  -13.8196   20.5751 C   0  0  0  0  0  0
  -24.1802  -13.0445   20.9261 C   0  0  0  0  0  0
  -24.6391  -11.6937   20.8761 C   0  0  0  0  0  0
  -23.9060  -10.4302   21.0392 C   0  0  0  0  0  0
  -24.3604   -9.4215   21.9166 C   0  0  0  0  0  0
  -23.6285   -8.2241   22.0719 C   0  0  0  0  0  0
  -22.4265   -8.0271   21.3518 C   0  0  0  0  0  0
  -21.9911   -9.0249   20.4618 C   0  0  0  0  0  0
  -22.7234  -10.2137   20.3045 C   0  0  0  0  0  0
  -21.6860   -6.0731   22.5289 C   0  0  0  0  0  0
  -21.3983   -6.5637   23.8224 C   0  0  0  0  0  0
  -21.3649   -5.6770   24.9190 C   0  0  0  0  0  0
  -21.6054   -4.3038   24.7228 C   0  0  0  0  0  0
  -21.8818   -3.8151   23.4344 C   0  0  0  0  0  0
  -21.9182   -4.6957   22.3409 C   0  0  0  0  0  0
  -22.7839  -13.5230   21.1912 C   0  0  0  0  0  0
  -22.1663   -4.2168   21.0982 F   0  0  0  0  0  0
  -21.5633   -3.4512   25.7727 F   0  0  0  0  0  0
  -29.9851  -13.5094   20.3502 N   0  0  0  0  0  0
  -26.2906  -12.9368   20.3236 N   0  0  0  0  0  0
  -25.9298  -11.6527   20.5733 N   0  0  0  0  0  0
  -22.0432  -12.8220   22.0447 N   0  0  0  0  0  0
  -25.4275  -15.1920   20.4273 N   0  0  0  0  0  0
  -31.8427  -14.7920   20.2285 O   0  0  0  0  0  0
  -21.6626   -6.8868   21.4245 O   0  0  0  0  0  0
  -22.3538  -14.5535   20.6732 O   0  0  0  0  0  0
  -24.6324  -31.8564   23.1971 C   0  0  0  0  0  0
  -25.9151  -32.4787   23.8316 C   0  0  1  0  0  0
  -27.2110  -27.2515   20.1658 C   0  0  0  0  0  0
  -25.5939  -33.8587   24.2244 N   0  0  0  0  0  0
  -23.4288  -30.4765   21.5361 C   0  0  2  0  0  0
  -24.8810  -28.9224   20.1065 C   0  0  0  0  0  0
  -22.7510  -29.4602   22.4868 C   0  0  0  0  0  0
  -18.0294  -28.1412   22.8517 C   0  0  0  0  0  0
  -24.1485  -36.7268   23.2633 C   0  0  0  0  0  0
  -25.9728  -30.7687   21.3769 C   0  0  0  0  0  0
  -26.0468  -29.3873   20.7269 C   0  0  0  0  0  0
  -27.2166  -28.5632   20.7461 C   0  0  0  0  0  0
  -26.0342  -26.8592   19.4938 C   0  0  0  0  0  0
  -24.8822  -27.6715   19.4666 C   0  0  0  0  0  0
  -23.6518  -29.8097   20.1509 C   0  0  0  0  0  0
  -25.4110  -36.3076   24.0327 C   0  0  1  0  0  0
  -20.5913  -28.3690   23.1285 C   0  0  2  0  0  0
  -20.6771  -26.9409   22.5416 C   0  0  0  0  0  0
  -19.5742  -26.6399   21.5233 C   0  0  0  0  0  0
  -18.1926  -26.7958   22.1653 C   0  0  0  0  0  0
  -19.1564  -28.8868   23.2902 C   0  0  0  0  0  0
  -18.9482  -30.1473   23.8912 C   0  0  0  0  0  0
  -17.6479  -30.6606   24.0574 C   0  0  0  0  0  0
  -25.9043  -34.9462   23.5073 C   0  0  0  0  0  0
  -16.5371  -29.9107   23.6347 C   0  0  0  0  0  0
  -16.7284  -28.6529   23.0363 C   0  0  0  0  0  0
  -26.4492  -31.6636   25.0733 C   0  0  0  0  0  0
  -25.3679  -31.3832   26.1424 C   0  0  0  0  0  0
  -27.0326  -30.3061   24.6211 C   0  0  0  0  0  0
  -27.6012  -32.4401   25.7509 C   0  0  0  0  0  0
  -27.5568  -37.1769   24.8455 C   0  0  0  0  0  0
  -21.4206  -29.3046   22.3663 N   0  0  0  0  0  0
  -26.4265  -37.3793   23.9438 N   0  0  0  0  0  0
  -24.6958  -31.0525   22.0929 N   0  0  0  0  0  0
  -23.4234  -28.8118   23.2939 O   0  0  0  0  0  0
  -28.2962  -26.3487   20.2231 O   0  0  0  0  0  0
  -26.5607  -34.8925   22.4639 O   0  0  0  0  0  0
  -23.5472  -32.1351   23.7282 O   0  0  0  0  0  0
  -29.6220  -18.4827   20.3687 C   0  0  0  0  0  0
  -31.1005  -17.3982   21.9613 C   0  0  0  0  0  0
  -30.7890  -19.8436   22.0313 C   0  0  0  0  0  0
  -30.1968  -17.2485   20.8922 C   0  0  0  0  0  0
  -29.8941  -19.8114   20.9171 C   0  0  0  0  0  0
  -31.3835  -18.6556   22.5204 C   0  0  0  0  0  0
  -28.8541  -22.2320   20.8645 C   0  0  0  0  0  0
  -31.1831  -21.1426   22.7204 C   0  0  0  0  0  0
  -28.9564  -23.6844   20.1841 C   0  0  0  0  0  0
  -28.0538  -24.9353   20.6999 C   0  0  0  0  0  0
  -29.4366  -21.0970   20.3034 N   0  0  0  0  0  0
  -29.8557  -15.8692   20.4651 N   0  0  0  0  0  0
  -28.2145  -22.1384   21.9154 O   0  0  0  0  0  0
  -32.2515  -18.7085   23.5604 F   0  0  0  0  0  0
  -31.4668  -12.5869   19.1067 H   0  0  0  0  0  0
  -30.4042  -11.4727   19.9247 H   0  0  0  0  0  0
  -29.7659  -11.6632   17.5182 H   0  0  0  0  0  0
  -29.6290  -13.3969   17.6538 H   0  0  0  0  0  0
  -27.8800  -11.2684   18.9108 H   0  0  0  0  0  0
  -27.3617  -12.4879   17.7873 H   0  0  0  0  0  0
  -27.6236  -14.2425   19.4435 H   0  0  0  0  0  0
  -28.7299  -12.1545   21.3831 H   0  0  0  0  0  0
  -28.4380  -13.8316   21.7632 H   0  0  0  0  0  0
  -25.2730   -9.5695   22.4755 H   0  0  0  0  0  0
  -23.9997   -7.4624   22.7425 H   0  0  0  0  0  0
  -21.0837   -8.8751   19.8930 H   0  0  0  0  0  0
  -22.3661  -10.9657   19.6161 H   0  0  0  0  0  0
  -21.1956   -7.6146   23.9726 H   0  0  0  0  0  0
  -21.1476   -6.0509   25.9089 H   0  0  0  0  0  0
  -22.0605   -2.7614   23.2843 H   0  0  0  0  0  0
  -22.3997  -11.9935   22.4945 H   0  0  0  0  0  0
  -21.1015  -13.1240   22.2515 H   0  0  0  0  0  0
  -24.6724  -15.8554   20.5735 H   0  0  0  0  0  0
  -26.2900  -15.6353   20.1397 H   0  0  0  0  0  0
  -26.7193  -32.5468   23.1026 H   0  0  0  0  0  0
  -25.0135  -33.9703   25.0425 H   0  0  0  0  0  0
  -22.7267  -31.2985   21.3889 H   0  0  0  0  0  0
  -23.3755  -35.9579   23.3293 H   0  0  0  0  0  0
  -24.3574  -36.8916   22.2040 H   0  0  0  0  0  0
  -23.7206  -37.6452   23.6675 H   0  0  0  0  0  0
  -26.1015  -31.5267   20.6040 H   0  0  0  0  0  0
  -26.8510  -30.8274   22.0064 H   0  0  0  0  0  0
  -28.1050  -28.9039   21.2549 H   0  0  0  0  0  0
  -25.9979  -25.9019   18.9935 H   0  0  0  0  0  0
  -23.9953  -27.3267   18.9511 H   0  0  0  0  0  0
  -23.7788  -30.5885   19.3959 H   0  0  0  0  0  0
  -22.7716  -29.2427   19.8414 H   0  0  0  0  0  0
  -25.1288  -36.1859   25.0809 H   0  0  0  0  0  0
  -21.0014  -28.3240   24.1406 H   0  0  0  0  0  0
  -20.5681  -26.2283   23.3604 H   0  0  0  0  0  0
  -21.6621  -26.7416   22.1201 H   0  0  0  0  0  0
  -19.6876  -25.6306   21.1261 H   0  0  0  0  0  0
  -19.6687  -27.3206   20.6767 H   0  0  0  0  0  0
  -17.4185  -26.6744   21.4056 H   0  0  0  0  0  0
  -18.0311  -26.0098   22.9049 H   0  0  0  0  0  0
  -19.7949  -30.7304   24.2289 H   0  0  0  0  0  0
  -17.5027  -31.6285   24.5163 H   0  0  0  0  0  0
  -15.5376  -30.3007   23.7661 H   0  0  0  0  0  0
  -15.8693  -28.0843   22.7069 H   0  0  0  0  0  0
  -24.5825  -30.7234   25.7737 H   0  0  0  0  0  0
  -24.8892  -32.3042   26.4778 H   0  0  0  0  0  0
  -25.7935  -30.9033   27.0242 H   0  0  0  0  0  0
  -26.2895  -29.6835   24.1206 H   0  0  0  0  0  0
  -27.3988  -29.7314   25.4718 H   0  0  0  0  0  0
  -27.8796  -30.4365   23.9464 H   0  0  0  0  0  0
  -27.2570  -33.3684   26.2062 H   0  0  0  0  0  0
  -28.3819  -32.6994   25.0364 H   0  0  0  0  0  0
  -28.0667  -31.8559   26.5452 H   0  0  0  0  0  0
  -28.2531  -38.0114   24.7578 H   0  0  0  0  0  0
  -28.1118  -36.2652   24.6182 H   0  0  0  0  0  0
  -27.2313  -37.1278   25.8861 H   0  0  0  0  0  0
  -20.9382  -29.8796   21.6892 H   0  0  0  0  0  0
  -26.0135  -38.2847   24.1518 H   0  0  0  0  0  0
  -28.9611  -18.4126   19.5184 H   0  0  0  0  0  0
  -31.5817  -16.5395   22.4041 H   0  0  0  0  0  0
  -31.5214  -21.8817   21.9977 H   0  0  0  0  0  0
  -31.9940  -21.0041   23.4343 H   0  0  0  0  0  0
  -30.3357  -21.5440   23.2755 H   0  0  0  0  0  0
  -28.8180  -23.5676   19.1085 H   0  0  0  0  0  0
  -29.9952  -23.9868   20.3218 H   0  0  0  0  0  0
  -27.0071  -24.6573   20.5690 H   0  0  0  0  0  0
  -28.1654  -24.9792   21.7860 H   0  0  0  0  0  0
  -29.7249  -21.2222   19.3413 H   0  0  0  0  0  0
  -28.8860  -15.7153   20.2337 H   0  0  0  0  0  0
  1 25  1  0  0  0
  1 30  2  0  0  0
  1 82  1  0  0  0
  2  3  1  0  0  0
  2 25  1  0  0  0
  2 85  1  0  0  0
  2 86  1  0  0  0
  3  4  1  0  0  0
  3 87  1  0  0  0
  3 88  1  0  0  0
  4  5  1  0  0  0
  4 89  1  0  0  0
  4 90  1  0  0  0
  5  6  1  0  0  0
  5 26  1  0  0  0
  5 91  1  0  0  0
  6 25  1  0  0  0
  6 92  1  0  0  0
  6 93  1  0  0  0
  7  8  2  0  0  0
  7 26  1  0  0  0
  7 29  1  0  0  0
  8  9  1  0  0  0
  8 22  1  0  0  0
  9 10  1  0  0  0
  9 27  2  0  0  0
 10 11  2  0  0  0
 10 15  1  0  0  0
 11 12  1  0  0  0
 11 94  1  0  0  0
 12 13  2  0  0  0
 12 95  1  0  0  0
 13 14  1  0  0  0
 13 31  1  0  0  0
 14 15  2  0  0  0
 14 96  1  0  0  0
 15 97  1  0  0  0
 16 17  2  0  0  0
 16 21  1  0  0  0
 16 31  1  0  0  0
 17 18  1  0  0  0
 17 98  1  0  0  0
 18 19  2  0  0  0
 18 99  1  0  0  0
 19 20  1  0  0  0
 19 24  1  0  0  0
 20 21  2  0  0  0
 20100  1  0  0  0
 21 23  1  0  0  0
 22 28  1  0  0  0
 22 32  2  0  0  0
 26 27  1  0  0  0
 28101  1  0  0  0
 28102  1  0  0  0
 29103  1  0  0  0
 29104  1  0  0  0
 33 34  1  0  0  0
 33 66  1  0  0  0
 33 70  2  0  0  0
 34 36  1  0  0  0
 34 59  1  0  0  0
 34105  1  0  0  0
 35 44  2  0  0  0
 35 45  1  0  0  0
 35 68  1  0  0  0
 36 56  1  0  0  0
 36106  1  0  0  0
 37 39  1  0  0  0
 37 47  1  0  0  0
 37 66  1  0  0  0
 37107  1  0  0  0
 38 43  2  0  0  0
 38 46  1  0  0  0
 38 47  1  0  0  0
 39 64  1  0  0  0
 39 67  2  0  0  0
 40 52  1  0  0  0
 40 53  2  0  0  0
 40 58  1  0  0  0
 41108  1  0  0  0
 41109  1  0  0  0
 41110  1  0  0  0
 41 48  1  0  0  0
 42 43  1  0  0  0
 42 66  1  0  0  0
 42111  1  0  0  0
 42112  1  0  0  0
 43 44  1  0  0  0
 44113  1  0  0  0
 45 46  2  0  0  0
 45114  1  0  0  0
 46115  1  0  0  0
 47116  1  0  0  0
 47117  1  0  0  0
 48 56  1  0  0  0
 48 65  1  0  0  0
 48118  1  0  0  0
 49 50  1  0  0  0
 49 53  1  0  0  0
 49 64  1  0  0  0
 49119  1  0  0  0
 50 51  1  0  0  0
 50120  1  0  0  0
 50121  1  0  0  0
 51 52  1  0  0  0
 51122  1  0  0  0
 51123  1  0  0  0
 52124  1  0  0  0
 52125  1  0  0  0
 53 54  1  0  0  0
 54 55  2  0  0  0
 54126  1  0  0  0
 55 57  1  0  0  0
 55127  1  0  0  0
 56 69  2  0  0  0
 57 58  2  0  0  0
 57128  1  0  0  0
 58129  1  0  0  0
 59 60  1  0  0  0
 59 61  1  0  0  0
 59 62  1  0  0  0
 60130  1  0  0  0
 60131  1  0  0  0
 60132  1  0  0  0
 61133  1  0  0  0
 61134  1  0  0  0
 61135  1  0  0  0
 62136  1  0  0  0
 62137  1  0  0  0
 62138  1  0  0  0
 63 65  1  0  0  0
 63139  1  0  0  0
 63140  1  0  0  0
 63141  1  0  0  0
 64142  1  0  0  0
 65143  1  0  0  0
 68 80  1  0  0  0
 71 74  2  0  0  0
 71 75  1  0  0  0
 71144  1  0  0  0
 72 74  1  0  0  0
 72 76  2  0  0  0
 72145  1  0  0  0
 73 75  2  0  0  0
 73 76  1  0  0  0
 73 78  1  0  0  0
 74 82  1  0  0  0
 75 81  1  0  0  0
 76 84  1  0  0  0
 77 79  1  0  0  0
 77 81  1  0  0  0
 77 83  2  0  0  0
 78146  1  0  0  0
 78147  1  0  0  0
 78148  1  0  0  0
 79 80  1  0  0  0
 79149  1  0  0  0
 79150  1  0  0  0
 80151  1  0  0  0
 80152  1  0  0  0
 81153  1  0  0  0
 82154  1  0  0  0
M  ISO  4   1 100  68 101  80 101  82 100
M  END
> <chiral flag>
0

> <version>
0

> <s_m_source_file>
/data/baiqing/PycharmProjects/Reinvent-master-3.2/result/LINK_invent/BTK/process_docking_weight1_custom_product_contain_oxygen_bond_distance_aromatic_linkinvent_7_9_3/rearranged_h_0068.sdf

> <i_m_source_file_index>
64

> <r_mmod_Potential_Energy-OPLS-2005>
191.581604003906

> <r_mmod_Stretch_Energy-OPLS-2005>
127.399795532227

> <r_mmod_Bend_Energy-OPLS-2005>
154.76953125

> <r_mmod_Torsional_Energy-OPLS-2005>
281.894165039062

> <r_mmod_Improper_Torsional_Energy-OPLS-2005>
9.1177453994751

> <r_mmod_Van_der_Waal_Energy-OPLS-2005>
142.193405151367

> <r_mmod_Electrostatic_Energy-OPLS-2005>
-379.675903320312

> <r_mmod_Solvation_Energy-OPLS-2005>
-233.211334228516

> <b_mmod_Minimization_Converged-OPLS-2005>
0

> <r_mmod_RMS_Derivative-OPLS-2005>
4.88482999801636

$$$$
64
                    3D
 Structure written by MMmdl.
158167  0  0  1  0            999 V2000
  -30.5667  -14.8150   20.4233 C   0  0  0  0  0  0
  -30.4456  -12.4702   19.5213 C   0  0  0  0  0  0
  -29.5374  -12.4189   18.2694 C   0  0  0  0  0  0
  -28.0451  -12.3235   18.6560 C   0  0  0  0  0  0
  -27.6406  -13.2303   19.8525 C   0  0  2  0  0  0
  -28.6806  -13.1896   20.9933 C   0  0  0  0  0  0
  -25.2513  -13.8177   20.5714 C   0  0  0  0  0  0
  -24.1800  -13.0425   20.9206 C   0  0  0  0  0  0
  -24.6386  -11.6905   20.8746 C   0  0  0  0  0  0
  -23.9073  -10.4284   21.0409 C   0  0  0  0  0  0
  -24.3619   -9.4193   21.9185 C   0  0  0  0  0  0
  -23.6289   -8.2233   22.0753 C   0  0  0  0  0  0
  -22.4266   -8.0284   21.3546 C   0  0  0  0  0  0
  -21.9909   -9.0256   20.4639 C   0  0  0  0  0  0
  -22.7248  -10.2130   20.3052 C   0  0  0  0  0  0
  -21.6850   -6.0728   22.5276 C   0  0  0  0  0  0
  -21.4016   -6.5626   23.8210 C   0  0  0  0  0  0
  -21.3671   -5.6778   24.9175 C   0  0  0  0  0  0
  -21.6047   -4.3039   24.7220 C   0  0  0  0  0  0
  -21.8816   -3.8136   23.4336 C   0  0  0  0  0  0
  -21.9184   -4.6957   22.3394 C   0  0  0  0  0  0
  -22.7821  -13.5212   21.1860 C   0  0  0  0  0  0
  -22.1654   -4.2144   21.0969 F   0  0  0  0  0  0
  -21.5636   -3.4521   25.7733 F   0  0  0  0  0  0
  -29.9788  -13.5613   20.4158 N   0  0  0  0  0  0
  -26.2931  -12.9370   20.3289 N   0  0  0  0  0  0
  -25.9316  -11.6518   20.5760 N   0  0  0  0  0  0
  -22.0459  -12.8212   22.0415 N   0  0  0  0  0  0
  -25.4210  -15.1906   20.4167 N   0  0  0  0  0  0
  -31.7431  -14.9238   20.0652 O   0  0  0  0  0  0
  -21.6626   -6.8881   21.4245 O   0  0  0  0  0  0
  -22.3515  -14.5521   20.6710 O   0  0  0  0  0  0
  -24.6323  -31.8546   23.1966 C   0  0  0  0  0  0
  -25.9141  -32.4749   23.8328 C   0  0  1  0  0  0
  -27.2157  -27.2207   20.1433 C   0  0  0  0  0  0
  -25.5930  -33.8550   24.2240 N   0  0  0  0  0  0
  -23.4330  -30.4754   21.5409 C   0  0  2  0  0  0
  -24.8830  -28.9199   20.1102 C   0  0  0  0  0  0
  -22.7523  -29.4591   22.4904 C   0  0  0  0  0  0
  -18.0304  -28.1399   22.8500 C   0  0  0  0  0  0
  -24.1488  -36.7271   23.2640 C   0  0  0  0  0  0
  -25.9824  -30.7510   21.3893 C   0  0  0  0  0  0
  -26.0532  -29.3691   20.7346 C   0  0  0  0  0  0
  -27.2190  -28.5287   20.7481 C   0  0  0  0  0  0
  -26.0321  -26.8697   19.4539 C   0  0  0  0  0  0
  -24.8798  -27.6797   19.4568 C   0  0  0  0  0  0
  -23.6554  -29.8110   20.1572 C   0  0  0  0  0  0
  -25.4118  -36.3057   24.0315 C   0  0  1  0  0  0
  -20.5910  -28.3709   23.1267 C   0  0  2  0  0  0
  -20.6780  -26.9420   22.5410 C   0  0  0  0  0  0
  -19.5748  -26.6394   21.5219 C   0  0  0  0  0  0
  -18.1937  -26.7946   22.1640 C   0  0  0  0  0  0
  -19.1562  -28.8871   23.2880 C   0  0  0  0  0  0
  -18.9474  -30.1475   23.8898 C   0  0  0  0  0  0
  -17.6468  -30.6592   24.0570 C   0  0  0  0  0  0
  -25.9061  -34.9434   23.5082 C   0  0  0  0  0  0
  -16.5363  -29.9084   23.6339 C   0  0  0  0  0  0
  -16.7291  -28.6504   23.0363 C   0  0  0  0  0  0
  -26.4490  -31.6595   25.0742 C   0  0  0  0  0  0
  -25.3686  -31.3778   26.1447 C   0  0  0  0  0  0
  -27.0327  -30.2990   24.6281 C   0  0  0  0  0  0
  -27.6050  -32.4338   25.7509 C   0  0  0  0  0  0
  -27.5577  -37.1789   24.8461 C   0  0  0  0  0  0
  -21.4229  -29.3044   22.3638 N   0  0  0  0  0  0
  -26.4288  -37.3762   23.9407 N   0  0  0  0  0  0
  -24.7012  -31.0470   22.0971 N   0  0  0  0  0  0
  -23.4206  -28.8135   23.3015 O   0  0  0  0  0  0
  -28.2880  -26.2832   20.2094 O   0  0  0  0  0  0
  -26.5652  -34.8907   22.4661 O   0  0  0  0  0  0
  -23.5464  -32.1417   23.7212 O   0  0  0  0  0  0
  -28.3665  -17.3119   15.8620 C   0  0  0  0  0  0
  -28.6268  -16.0949   16.5078 C   0  0  0  0  0  0
  -28.5009  -18.5113   16.5783 C   0  0  0  0  0  0
  -29.0354  -16.0901   17.8540 C   0  0  0  0  0  0
  -28.9454  -19.7390   18.5940 C   0  0  0  0  0  0
  -29.6202  -18.5924   20.6273 C   0  0  0  0  0  0
  -28.8950  -18.5006   17.9351 C   0  0  0  0  0  0
  -29.1977  -17.2787   18.6046 C   0  0  0  0  0  0
  -29.2793  -19.8572   19.9561 C   0  0  0  0  0  0
  -29.6019  -17.2676   19.9805 C   0  0  0  0  0  0
  -28.0445  -24.8586   20.2267 C   0  0  0  0  0  0
  -28.9337  -23.7831   20.3283 C   0  0  0  0  0  0
  -28.4672  -22.3342   20.1981 C   0  0  0  0  0  0
  -30.4210  -24.0248   20.5132 C   0  0  0  0  0  0
  -29.3264  -21.2634   20.4830 N   0  0  0  0  0  0
  -29.7756  -15.9426   20.6899 N   0  0  0  0  0  0
  -27.3166  -22.0746   19.8371 O   0  0  0  0  0  0
  -31.4885  -12.5950   19.2261 H   0  0  0  0  0  0
  -30.4065  -11.5182   20.0530 H   0  0  0  0  0  0
  -29.8052  -11.5494   17.6673 H   0  0  0  0  0  0
  -29.7276  -13.2668   17.6177 H   0  0  0  0  0  0
  -27.8561  -11.2812   18.9141 H   0  0  0  0  0  0
  -27.4175  -12.5363   17.7898 H   0  0  0  0  0  0
  -27.6141  -14.2481   19.4715 H   0  0  0  0  0  0
  -28.7272  -12.1947   21.4394 H   0  0  0  0  0  0
  -28.3994  -13.8704   21.7987 H   0  0  0  0  0  0
  -25.2764   -9.5650   22.4762 H   0  0  0  0  0  0
  -23.9985   -7.4616   22.7470 H   0  0  0  0  0  0
  -21.0843   -8.8782   19.8939 H   0  0  0  0  0  0
  -22.3723  -10.9670   19.6156 H   0  0  0  0  0  0
  -21.2016   -7.6131   23.9714 H   0  0  0  0  0  0
  -21.1505   -6.0505   25.9077 H   0  0  0  0  0  0
  -22.0588   -2.7597   23.2832 H   0  0  0  0  0  0
  -22.4058  -11.9866   22.4802 H   0  0  0  0  0  0
  -21.1083  -13.1258   22.2613 H   0  0  0  0  0  0
  -24.6526  -15.8421   20.5311 H   0  0  0  0  0  0
  -26.2650  -15.6320   20.0755 H   0  0  0  0  0  0
  -26.7210  -32.5390   23.1069 H   0  0  0  0  0  0
  -25.0018  -33.9687   25.0342 H   0  0  0  0  0  0
  -22.7308  -31.2978   21.3926 H   0  0  0  0  0  0
  -23.3748  -35.9604   23.3295 H   0  0  0  0  0  0
  -24.3583  -36.8915   22.2059 H   0  0  0  0  0  0
  -23.7236  -37.6460   23.6684 H   0  0  0  0  0  0
  -26.1317  -31.5086   20.6179 H   0  0  0  0  0  0
  -26.8542  -30.7983   22.0300 H   0  0  0  0  0  0
  -28.1094  -28.8609   21.2634 H   0  0  0  0  0  0
  -25.9683  -25.9380   18.9126 H   0  0  0  0  0  0
  -23.9926  -27.3393   18.9419 H   0  0  0  0  0  0
  -23.7818  -30.5882   19.4027 H   0  0  0  0  0  0
  -22.7741  -29.2466   19.8480 H   0  0  0  0  0  0
  -25.1295  -36.1903   25.0805 H   0  0  0  0  0  0
  -21.0018  -28.3289   24.1383 H   0  0  0  0  0  0
  -20.5680  -26.2311   23.3614 H   0  0  0  0  0  0
  -21.6644  -26.7434   22.1202 H   0  0  0  0  0  0
  -19.6891  -25.6302   21.1250 H   0  0  0  0  0  0
  -19.6678  -27.3203   20.6745 H   0  0  0  0  0  0
  -17.4200  -26.6720   21.4048 H   0  0  0  0  0  0
  -18.0325  -26.0086   22.9030 H   0  0  0  0  0  0
  -19.7945  -30.7306   24.2263 H   0  0  0  0  0  0
  -17.5012  -31.6270   24.5170 H   0  0  0  0  0  0
  -15.5358  -30.2971   23.7655 H   0  0  0  0  0  0
  -15.8704  -28.0804   22.7082 H   0  0  0  0  0  0
  -24.5841  -30.7162   25.7752 H   0  0  0  0  0  0
  -24.8903  -32.2963   26.4857 H   0  0  0  0  0  0
  -25.7963  -30.8944   27.0240 H   0  0  0  0  0  0
  -26.2922  -29.6743   24.1269 H   0  0  0  0  0  0
  -27.3917  -29.7260   25.4841 H   0  0  0  0  0  0
  -27.8848  -30.4215   23.9591 H   0  0  0  0  0  0
  -27.2671  -33.3651   26.2061 H   0  0  0  0  0  0
  -28.3866  -32.6881   25.0337 H   0  0  0  0  0  0
  -28.0707  -31.8486   26.5449 H   0  0  0  0  0  0
  -28.2578  -38.0098   24.7507 H   0  0  0  0  0  0
  -28.1088  -36.2627   24.6280 H   0  0  0  0  0  0
  -27.2304  -37.1425   25.8867 H   0  0  0  0  0  0
  -20.9416  -29.8749   21.6828 H   0  0  0  0  0  0
  -26.0159  -38.2831   24.1418 H   0  0  0  0  0  0
  -28.0517  -17.3268   14.8270 H   0  0  0  0  0  0
  -28.5101  -15.1605   15.9748 H   0  0  0  0  0  0
  -28.2790  -19.4454   16.0784 H   0  0  0  0  0  0
  -29.2078  -15.1353   18.2956 H   0  0  0  0  0  0
  -28.7150  -20.6285   18.0245 H   0  0  0  0  0  0
  -29.8823  -18.6344   21.6749 H   0  0  0  0  0  0
  -26.9932  -24.6310   20.1395 H   0  0  0  0  0  0
  -30.6496  -25.0906   20.5425 H   0  0  0  0  0  0
  -30.9840  -23.5834   19.6894 H   0  0  0  0  0  0
  -30.7657  -23.5832   21.4484 H   0  0  0  0  0  0
  -30.1658  -21.5105   20.9900 H   0  0  0  0  0  0
  -28.9597  -15.6887   21.2267 H   0  0  0  0  0  0
  1 25  1  0  0  0
  1 30  2  0  0  0
  1 86  1  0  0  0
  2  3  1  0  0  0
  2 25  1  0  0  0
  2 88  1  0  0  0
  2 89  1  0  0  0
  3  4  1  0  0  0
  3 90  1  0  0  0
  3 91  1  0  0  0
  4  5  1  0  0  0
  4 92  1  0  0  0
  4 93  1  0  0  0
  5  6  1  0  0  0
  5 26  1  0  0  0
  5 94  1  0  0  0
  6 25  1  0  0  0
  6 95  1  0  0  0
  6 96  1  0  0  0
  7  8  2  0  0  0
  7 26  1  0  0  0
  7 29  1  0  0  0
  8  9  1  0  0  0
  8 22  1  0  0  0
  9 10  1  0  0  0
  9 27  2  0  0  0
 10 11  2  0  0  0
 10 15  1  0  0  0
 11 12  1  0  0  0
 11 97  1  0  0  0
 12 13  2  0  0  0
 12 98  1  0  0  0
 13 14  1  0  0  0
 13 31  1  0  0  0
 14 15  2  0  0  0
 14 99  1  0  0  0
 15100  1  0  0  0
 16 17  2  0  0  0
 16 21  1  0  0  0
 16 31  1  0  0  0
 17 18  1  0  0  0
 17101  1  0  0  0
 18 19  2  0  0  0
 18102  1  0  0  0
 19 20  1  0  0  0
 19 24  1  0  0  0
 20 21  2  0  0  0
 20103  1  0  0  0
 21 23  1  0  0  0
 22 28  1  0  0  0
 22 32  2  0  0  0
 26 27  1  0  0  0
 28104  1  0  0  0
 28105  1  0  0  0
 29106  1  0  0  0
 29107  1  0  0  0
 33 34  1  0  0  0
 33 66  1  0  0  0
 33 70  2  0  0  0
 34 36  1  0  0  0
 34 59  1  0  0  0
 34108  1  0  0  0
 35 44  2  0  0  0
 35 45  1  0  0  0
 35 68  1  0  0  0
 36 56  1  0  0  0
 36109  1  0  0  0
 37 39  1  0  0  0
 37 47  1  0  0  0
 37 66  1  0  0  0
 37110  1  0  0  0
 38 43  2  0  0  0
 38 46  1  0  0  0
 38 47  1  0  0  0
 39 64  1  0  0  0
 39 67  2  0  0  0
 40 52  1  0  0  0
 40 53  2  0  0  0
 40 58  1  0  0  0
 41111  1  0  0  0
 41112  1  0  0  0
 41113  1  0  0  0
 41 48  1  0  0  0
 42 43  1  0  0  0
 42 66  1  0  0  0
 42114  1  0  0  0
 42115  1  0  0  0
 43 44  1  0  0  0
 44116  1  0  0  0
 45 46  2  0  0  0
 45117  1  0  0  0
 46118  1  0  0  0
 47119  1  0  0  0
 47120  1  0  0  0
 48 56  1  0  0  0
 48 65  1  0  0  0
 48121  1  0  0  0
 49 50  1  0  0  0
 49 53  1  0  0  0
 49 64  1  0  0  0
 49122  1  0  0  0
 50 51  1  0  0  0
 50123  1  0  0  0
 50124  1  0  0  0
 51 52  1  0  0  0
 51125  1  0  0  0
 51126  1  0  0  0
 52127  1  0  0  0
 52128  1  0  0  0
 53 54  1  0  0  0
 54 55  2  0  0  0
 54129  1  0  0  0
 55 57  1  0  0  0
 55130  1  0  0  0
 56 69  2  0  0  0
 57 58  2  0  0  0
 57131  1  0  0  0
 58132  1  0  0  0
 59 60  1  0  0  0
 59 61  1  0  0  0
 59 62  1  0  0  0
 60133  1  0  0  0
 60134  1  0  0  0
 60135  1  0  0  0
 61136  1  0  0  0
 61137  1  0  0  0
 61138  1  0  0  0
 62139  1  0  0  0
 62140  1  0  0  0
 62141  1  0  0  0
 63 65  1  0  0  0
 63142  1  0  0  0
 63143  1  0  0  0
 63144  1  0  0  0
 64145  1  0  0  0
 65146  1  0  0  0
 68 81  1  0  0  0
 71 72  2  0  0  0
 71 73  1  0  0  0
 71147  1  0  0  0
 72 74  1  0  0  0
 72148  1  0  0  0
 73 77  2  0  0  0
 73149  1  0  0  0
 74 78  2  0  0  0
 74150  1  0  0  0
 75 77  1  0  0  0
 75 79  2  0  0  0
 75151  1  0  0  0
 76 79  1  0  0  0
 76 80  2  0  0  0
 76152  1  0  0  0
 77 78  1  0  0  0
 78 80  1  0  0  0
 79 85  1  0  0  0
 80 86  1  0  0  0
 81 82  2  0  0  0
 81153  1  0  0  0
 82 83  1  0  0  0
 82 84  1  0  0  0
 83 85  1  0  0  0
 83 87  2  0  0  0
 84154  1  0  0  0
 84155  1  0  0  0
 84156  1  0  0  0
 85157  1  0  0  0
 86158  1  0  0  0
M  ISO  4   1 100  68 101  81 101  86 100
M  END
> <chiral flag>
0

> <version>
0

> <s_m_source_file>
/data/baiqing/PycharmProjects/Reinvent-master-3.2/result/LINK_invent/BTK/process_docking_weight1_custom_product_contain_oxygen_bond_distance_aromatic_linkinvent_7_9_3/rearranged_h_0068.sdf

> <i_m_source_file_index>
65

> <r_mmod_Potential_Energy-OPLS-2005>
297.057250976562

> <r_mmod_Stretch_Energy-OPLS-2005>
159.683151245117

> <r_mmod_Bend_Energy-OPLS-2005>
173.164932250977

> <r_mmod_Torsional_Energy-OPLS-2005>
289.99609375

> <r_mmod_Improper_Torsional_Energy-OPLS-2005>
6.63989591598511

> <r_mmod_Van_der_Waal_Energy-OPLS-2005>
167.300827026367

> <r_mmod_Electrostatic_Energy-OPLS-2005>
-392.426116943359

> <r_mmod_Solvation_Energy-OPLS-2005>
-226.977951049805

> <b_mmod_Minimization_Converged-OPLS-2005>
0

> <r_mmod_RMS_Derivative-OPLS-2005>
1.61683177947998

$$$$
65
                    3D
 Structure written by MMmdl.
151159  0  0  1  0            999 V2000
  -30.6158  -14.7137   20.4529 C   0  0  0  0  0  0
  -30.4330  -12.4223   19.4945 C   0  0  0  0  0  0
  -29.5262  -12.5195   18.2454 C   0  0  0  0  0  0
  -28.0443  -12.3522   18.6420 C   0  0  0  0  0  0
  -27.6498  -13.2345   19.8569 C   0  0  2  0  0  0
  -28.6875  -13.1448   20.9980 C   0  0  0  0  0  0
  -25.2547  -13.8207   20.5710 C   0  0  0  0  0  0
  -24.1826  -13.0428   20.9187 C   0  0  0  0  0  0
  -24.6428  -11.6919   20.8719 C   0  0  0  0  0  0
  -23.9103  -10.4293   21.0389 C   0  0  0  0  0  0
  -24.3645   -9.4212   21.9172 C   0  0  0  0  0  0
  -23.6308   -8.2249   22.0750 C   0  0  0  0  0  0
  -22.4285   -8.0288   21.3541 C   0  0  0  0  0  0
  -21.9929   -9.0267   20.4645 C   0  0  0  0  0  0
  -22.7267  -10.2138   20.3045 C   0  0  0  0  0  0
  -21.6852   -6.0739   22.5287 C   0  0  0  0  0  0
  -21.4017   -6.5641   23.8214 C   0  0  0  0  0  0
  -21.3662   -5.6791   24.9176 C   0  0  0  0  0  0
  -21.6040   -4.3050   24.7224 C   0  0  0  0  0  0
  -21.8819   -3.8145   23.4344 C   0  0  0  0  0  0
  -21.9199   -4.6971   22.3405 C   0  0  0  0  0  0
  -22.7847  -13.5219   21.1843 C   0  0  0  0  0  0
  -22.1660   -4.2151   21.0986 F   0  0  0  0  0  0
  -21.5634   -3.4536   25.7738 F   0  0  0  0  0  0
  -30.0008  -13.4820   20.4361 N   0  0  0  0  0  0
  -26.2979  -12.9423   20.3269 N   0  0  0  0  0  0
  -25.9362  -11.6559   20.5710 N   0  0  0  0  0  0
  -22.0496  -12.8212   22.0409 N   0  0  0  0  0  0
  -25.4277  -15.1929   20.4212 N   0  0  0  0  0  0
  -31.7914  -14.8162   20.0891 O   0  0  0  0  0  0
  -21.6635   -6.8887   21.4244 O   0  0  0  0  0  0
  -22.3521  -14.5512   20.6680 O   0  0  0  0  0  0
  -24.6361  -31.8583   23.1997 C   0  0  0  0  0  0
  -25.9163  -32.4799   23.8371 C   0  0  1  0  0  0
  -27.2043  -27.2587   20.1114 C   0  0  0  0  0  0
  -25.5944  -33.8602   24.2286 N   0  0  0  0  0  0
  -23.4312  -30.4835   21.5473 C   0  0  2  0  0  0
  -24.8713  -28.9351   20.1116 C   0  0  0  0  0  0
  -22.7552  -29.4626   22.4960 C   0  0  0  0  0  0
  -18.0302  -28.1408   22.8503 C   0  0  0  0  0  0
  -24.1477  -36.7281   23.2635 C   0  0  0  0  0  0
  -25.9810  -30.7720   21.3768 C   0  0  0  0  0  0
  -26.0495  -29.3952   20.7135 C   0  0  0  0  0  0
  -27.2226  -28.5711   20.6979 C   0  0  0  0  0  0
  -25.9975  -26.8712   19.4841 C   0  0  0  0  0  0
  -24.8501  -27.6823   19.4876 C   0  0  0  0  0  0
  -23.6464  -29.8252   20.1612 C   0  0  0  0  0  0
  -25.4108  -36.3109   24.0342 C   0  0  1  0  0  0
  -20.5909  -28.3702   23.1292 C   0  0  2  0  0  0
  -20.6790  -26.9430   22.5415 C   0  0  0  0  0  0
  -19.5745  -26.6395   21.5238 C   0  0  0  0  0  0
  -18.1922  -26.7947   22.1641 C   0  0  0  0  0  0
  -19.1555  -28.8879   23.2886 C   0  0  0  0  0  0
  -18.9462  -30.1472   23.8915 C   0  0  0  0  0  0
  -17.6457  -30.6601   24.0570 C   0  0  0  0  0  0
  -25.9055  -34.9477   23.5119 C   0  0  0  0  0  0
  -16.5349  -29.9099   23.6328 C   0  0  0  0  0  0
  -16.7286  -28.6514   23.0368 C   0  0  0  0  0  0
  -26.4495  -31.6635   25.0773 C   0  0  0  0  0  0
  -25.3674  -31.3784   26.1461 C   0  0  0  0  0  0
  -27.0318  -30.3061   24.6223 C   0  0  0  0  0  0
  -27.6061  -32.4378   25.7519 C   0  0  0  0  0  0
  -27.5587  -37.1804   24.8473 C   0  0  0  0  0  0
  -21.4258  -29.3048   22.3696 N   0  0  0  0  0  0
  -26.4291  -37.3804   23.9424 N   0  0  0  0  0  0
  -24.7024  -31.0563   22.0960 N   0  0  0  0  0  0
  -23.4272  -28.8165   23.3040 O   0  0  0  0  0  0
  -28.2844  -26.3443   20.1707 O   0  0  0  0  0  0
  -26.5632  -34.8948   22.4688 O   0  0  0  0  0  0
  -23.5509  -32.1382   23.7307 O   0  0  0  0  0  0
  -30.1881  -17.1580   18.6494 C   0  0  0  0  0  0
  -30.1876  -18.3449   17.8940 C   0  0  0  0  0  0
  -29.5561  -18.4608   20.6082 C   0  0  0  0  0  0
  -29.8899  -17.1604   20.0298 C   0  0  0  0  0  0
  -29.5470  -19.7081   19.8451 C   0  0  0  0  0  0
  -29.8974  -19.5935   18.4737 C   0  0  0  0  0  0
  -28.7419  -22.1912   19.8403 C   0  0  0  0  0  0
  -29.0192  -23.6874   20.3538 C   0  0  0  0  0  0
  -27.9987  -24.8786   19.9525 C   0  0  0  0  0  0
  -29.3293  -21.0685   20.4128 N   0  0  0  0  0  0
  -29.8577  -15.8455   20.7202 N   0  0  0  0  0  0
  -27.9356  -22.0566   18.9171 O   0  0  0  0  0  0
  -30.0259  -20.6919   17.6919 F   0  0  0  0  0  0
  -31.4832  -12.5183   19.2137 H   0  0  0  0  0  0
  -30.3442  -11.4384   19.9598 H   0  0  0  0  0  0
  -29.8120  -11.7626   17.5131 H   0  0  0  0  0  0
  -29.6708  -13.4877   17.7611 H   0  0  0  0  0  0
  -27.8870  -11.2999   18.8807 H   0  0  0  0  0  0
  -27.3976  -12.5699   17.7908 H   0  0  0  0  0  0
  -27.6572  -14.2621   19.4928 H   0  0  0  0  0  0
  -28.7049  -12.1404   21.4264 H   0  0  0  0  0  0
  -28.4251  -13.8204   21.8121 H   0  0  0  0  0  0
  -25.2799   -9.5660   22.4727 H   0  0  0  0  0  0
  -24.0009   -7.4636   22.7469 H   0  0  0  0  0  0
  -21.0850   -8.8784   19.8960 H   0  0  0  0  0  0
  -22.3736  -10.9663   19.6129 H   0  0  0  0  0  0
  -21.2006   -7.6142   23.9724 H   0  0  0  0  0  0
  -21.1481   -6.0514   25.9078 H   0  0  0  0  0  0
  -22.0601   -2.7610   23.2845 H   0  0  0  0  0  0
  -22.4116  -11.9879   22.4790 H   0  0  0  0  0  0
  -21.1114  -13.1219   22.2621 H   0  0  0  0  0  0
  -24.6659  -15.8495   20.5532 H   0  0  0  0  0  0
  -26.2857  -15.6371   20.1191 H   0  0  0  0  0  0
  -26.7259  -32.5459   23.1151 H   0  0  0  0  0  0
  -25.0134  -33.9738   25.0463 H   0  0  0  0  0  0
  -22.7245  -31.3041   21.4074 H   0  0  0  0  0  0
  -23.3775  -35.9578   23.3309 H   0  0  0  0  0  0
  -24.3561  -36.8878   22.2044 H   0  0  0  0  0  0
  -23.7181  -37.6469   23.6639 H   0  0  0  0  0  0
  -26.1215  -31.5323   20.6072 H   0  0  0  0  0  0
  -26.8590  -30.8214   22.0096 H   0  0  0  0  0  0
  -28.1277  -28.9194   21.1744 H   0  0  0  0  0  0
  -25.8900  -25.9129   18.9996 H   0  0  0  0  0  0
  -23.9471  -27.3233   19.0144 H   0  0  0  0  0  0
  -23.7816  -30.6049   19.4101 H   0  0  0  0  0  0
  -22.7602  -29.2678   19.8533 H   0  0  0  0  0  0
  -25.1281  -36.1964   25.0836 H   0  0  0  0  0  0
  -20.9987  -28.3273   24.1420 H   0  0  0  0  0  0
  -20.5705  -26.2324   23.3620 H   0  0  0  0  0  0
  -21.6653  -26.7469   22.1183 H   0  0  0  0  0  0
  -19.6891  -25.6305   21.1274 H   0  0  0  0  0  0
  -19.6668  -27.3207   20.6767 H   0  0  0  0  0  0
  -17.4197  -26.6730   21.4033 H   0  0  0  0  0  0
  -18.0294  -26.0094   22.9035 H   0  0  0  0  0  0
  -19.7929  -30.7288   24.2317 H   0  0  0  0  0  0
  -17.4998  -31.6277   24.5167 H   0  0  0  0  0  0
  -15.5346  -30.3002   23.7627 H   0  0  0  0  0  0
  -15.8689  -28.0814   22.7106 H   0  0  0  0  0  0
  -24.5893  -30.7086   25.7782 H   0  0  0  0  0  0
  -24.8797  -32.2939   26.4827 H   0  0  0  0  0  0
  -25.7957  -30.9018   27.0282 H   0  0  0  0  0  0
  -26.2887  -29.6853   24.1206 H   0  0  0  0  0  0
  -27.3965  -29.7300   25.4729 H   0  0  0  0  0  0
  -27.8787  -30.4367   23.9485 H   0  0  0  0  0  0
  -27.2705  -33.3719   26.2035 H   0  0  0  0  0  0
  -28.3875  -32.6873   25.0333 H   0  0  0  0  0  0
  -28.0710  -31.8534   26.5459 H   0  0  0  0  0  0
  -28.2618  -38.0096   24.7571 H   0  0  0  0  0  0
  -28.1080  -36.2643   24.6250 H   0  0  0  0  0  0
  -27.2321  -37.1391   25.8880 H   0  0  0  0  0  0
  -20.9474  -29.8775   21.6883 H   0  0  0  0  0  0
  -26.0188  -38.2884   24.1435 H   0  0  0  0  0  0
  -30.4128  -16.2336   18.1347 H   0  0  0  0  0  0
  -30.4358  -18.3065   16.8419 H   0  0  0  0  0  0
  -29.3122  -18.5062   21.6598 H   0  0  0  0  0  0
  -30.0016  -23.9599   19.9662 H   0  0  0  0  0  0
  -29.1281  -23.6633   21.4370 H   0  0  0  0  0  0
  -27.7679  -24.7561   18.8925 H   0  0  0  0  0  0
  -27.0774  -24.6514   20.4918 H   0  0  0  0  0  0
  -29.7587  -21.2269   21.3137 H   0  0  0  0  0  0
  -29.0294  -15.6705   21.2711 H   0  0  0  0  0  0
  1 25  1  0  0  0
  1 30  2  0  0  0
  1 81  1  0  0  0
  2  3  1  0  0  0
  2 25  1  0  0  0
  2 84  1  0  0  0
  2 85  1  0  0  0
  3  4  1  0  0  0
  3 86  1  0  0  0
  3 87  1  0  0  0
  4  5  1  0  0  0
  4 88  1  0  0  0
  4 89  1  0  0  0
  5  6  1  0  0  0
  5 26  1  0  0  0
  5 90  1  0  0  0
  6 25  1  0  0  0
  6 91  1  0  0  0
  6 92  1  0  0  0
  7  8  2  0  0  0
  7 26  1  0  0  0
  7 29  1  0  0  0
  8  9  1  0  0  0
  8 22  1  0  0  0
  9 10  1  0  0  0
  9 27  2  0  0  0
 10 11  2  0  0  0
 10 15  1  0  0  0
 11 12  1  0  0  0
 11 93  1  0  0  0
 12 13  2  0  0  0
 12 94  1  0  0  0
 13 14  1  0  0  0
 13 31  1  0  0  0
 14 15  2  0  0  0
 14 95  1  0  0  0
 15 96  1  0  0  0
 16 17  2  0  0  0
 16 21  1  0  0  0
 16 31  1  0  0  0
 17 18  1  0  0  0
 17 97  1  0  0  0
 18 19  2  0  0  0
 18 98  1  0  0  0
 19 20  1  0  0  0
 19 24  1  0  0  0
 20 21  2  0  0  0
 20 99  1  0  0  0
 21 23  1  0  0  0
 22 28  1  0  0  0
 22 32  2  0  0  0
 26 27  1  0  0  0
 28100  1  0  0  0
 28101  1  0  0  0
 29102  1  0  0  0
 29103  1  0  0  0
 33 34  1  0  0  0
 33 66  1  0  0  0
 33 70  2  0  0  0
 34 36  1  0  0  0
 34 59  1  0  0  0
 34104  1  0  0  0
 35 44  2  0  0  0
 35 45  1  0  0  0
 35 68  1  0  0  0
 36 56  1  0  0  0
 36105  1  0  0  0
 37 39  1  0  0  0
 37 47  1  0  0  0
 37 66  1  0  0  0
 37106  1  0  0  0
 38 43  2  0  0  0
 38 46  1  0  0  0
 38 47  1  0  0  0
 39 64  1  0  0  0
 39 67  2  0  0  0
 40 52  1  0  0  0
 40 53  2  0  0  0
 40 58  1  0  0  0
 41107  1  0  0  0
 41108  1  0  0  0
 41109  1  0  0  0
 41 48  1  0  0  0
 42 43  1  0  0  0
 42 66  1  0  0  0
 42110  1  0  0  0
 42111  1  0  0  0
 43 44  1  0  0  0
 44112  1  0  0  0
 45 46  2  0  0  0
 45113  1  0  0  0
 46114  1  0  0  0
 47115  1  0  0  0
 47116  1  0  0  0
 48 56  1  0  0  0
 48 65  1  0  0  0
 48117  1  0  0  0
 49 50  1  0  0  0
 49 53  1  0  0  0
 49 64  1  0  0  0
 49118  1  0  0  0
 50 51  1  0  0  0
 50119  1  0  0  0
 50120  1  0  0  0
 51 52  1  0  0  0
 51121  1  0  0  0
 51122  1  0  0  0
 52123  1  0  0  0
 52124  1  0  0  0
 53 54  1  0  0  0
 54 55  2  0  0  0
 54125  1  0  0  0
 55 57  1  0  0  0
 55126  1  0  0  0
 56 69  2  0  0  0
 57 58  2  0  0  0
 57127  1  0  0  0
 58128  1  0  0  0
 59 60  1  0  0  0
 59 61  1  0  0  0
 59 62  1  0  0  0
 60129  1  0  0  0
 60130  1  0  0  0
 60131  1  0  0  0
 61132  1  0  0  0
 61133  1  0  0  0
 61134  1  0  0  0
 62135  1  0  0  0
 62136  1  0  0  0
 62137  1  0  0  0
 63 65  1  0  0  0
 63138  1  0  0  0
 63139  1  0  0  0
 63140  1  0  0  0
 64141  1  0  0  0
 65142  1  0  0  0
 68 79  1  0  0  0
 71 72  2  0  0  0
 71 74  1  0  0  0
 71143  1  0  0  0
 72 76  1  0  0  0
 72144  1  0  0  0
 73 74  2  0  0  0
 73 75  1  0  0  0
 73145  1  0  0  0
 74 81  1  0  0  0
 75 76  2  0  0  0
 75 80  1  0  0  0
 76 83  1  0  0  0
 77 78  1  0  0  0
 77 80  1  0  0  0
 77 82  2  0  0  0
 78 79  1  0  0  0
 78146  1  0  0  0
 78147  1  0  0  0
 79148  1  0  0  0
 79149  1  0  0  0
 80150  1  0  0  0
 81151  1  0  0  0
M  ISO  4   1 100  68 101  79 101  81 100
M  END
> <chiral flag>
0

> <version>
0

> <s_m_source_file>
/data/baiqing/PycharmProjects/Reinvent-master-3.2/result/LINK_invent/BTK/process_docking_weight1_custom_product_contain_oxygen_bond_distance_aromatic_linkinvent_7_9_3/rearranged_h_0068.sdf

> <i_m_source_file_index>
66

> <r_mmod_Potential_Energy-OPLS-2005>
118.15348815918

> <r_mmod_Stretch_Energy-OPLS-2005>
125.266761779785

> <r_mmod_Bend_Energy-OPLS-2005>
152.227920532227

> <r_mmod_Torsional_Energy-OPLS-2005>
259.404388427734

> <r_mmod_Improper_Torsional_Energy-OPLS-2005>
5.40083837509155

> <r_mmod_Van_der_Waal_Energy-OPLS-2005>
146.966934204102

> <r_mmod_Electrostatic_Energy-OPLS-2005>
-411.594879150391

> <r_mmod_Solvation_Energy-OPLS-2005>
-239.772827148438

> <b_mmod_Minimization_Converged-OPLS-2005>
0

> <r_mmod_RMS_Derivative-OPLS-2005>
3.22829723358154

$$$$
66
                    3D
 Structure written by MMmdl.
160168  0  0  1  0            999 V2000
  -30.7359  -14.4732   20.5713 C   0  0  0  0  0  0
  -30.4107  -12.3085   19.4309 C   0  0  0  0  0  0
  -29.4917  -12.4999   18.2093 C   0  0  0  0  0  0
  -28.0137  -12.3653   18.6213 C   0  0  0  0  0  0
  -27.6580  -13.2151   19.8711 C   0  0  2  0  0  0
  -28.7013  -13.0290   20.9967 C   0  0  0  0  0  0
  -25.2571  -13.8182   20.5691 C   0  0  0  0  0  0
  -24.1836  -13.0446   20.9187 C   0  0  0  0  0  0
  -24.6397  -11.6915   20.8737 C   0  0  0  0  0  0
  -23.9068  -10.4296   21.0410 C   0  0  0  0  0  0
  -24.3617   -9.4211   21.9191 C   0  0  0  0  0  0
  -23.6290   -8.2247   22.0757 C   0  0  0  0  0  0
  -22.4274   -8.0286   21.3545 C   0  0  0  0  0  0
  -21.9917   -9.0261   20.4645 C   0  0  0  0  0  0
  -22.7243  -10.2140   20.3056 C   0  0  0  0  0  0
  -21.6851   -6.0739   22.5279 C   0  0  0  0  0  0
  -21.4013   -6.5642   23.8212 C   0  0  0  0  0  0
  -21.3660   -5.6796   24.9175 C   0  0  0  0  0  0
  -21.6047   -4.3060   24.7226 C   0  0  0  0  0  0
  -21.8817   -3.8152   23.4346 C   0  0  0  0  0  0
  -21.9191   -4.6968   22.3402 C   0  0  0  0  0  0
  -22.7858  -13.5238   21.1857 C   0  0  0  0  0  0
  -22.1659   -4.2152   21.0980 F   0  0  0  0  0  0
  -21.5633   -3.4544   25.7739 F   0  0  0  0  0  0
  -30.0296  -13.3167   20.4343 N   0  0  0  0  0  0
  -26.3010  -12.9367   20.3359 N   0  0  0  0  0  0
  -25.9326  -11.6519   20.5767 N   0  0  0  0  0  0
  -22.0505  -12.8215   22.0407 N   0  0  0  0  0  0
  -25.4288  -15.1904   20.4094 N   0  0  0  0  0  0
  -31.8645  -14.6057   20.0911 O   0  0  0  0  0  0
  -21.6637   -6.8883   21.4241 O   0  0  0  0  0  0
  -22.3544  -14.5549   20.6715 O   0  0  0  0  0  0
  -24.6174  -31.8683   23.2116 C   0  0  0  0  0  0
  -25.9064  -32.4823   23.8408 C   0  0  1  0  0  0
  -27.2216  -27.4104   20.0931 C   0  0  0  0  0  0
  -25.5914  -33.8624   24.2333 N   0  0  0  0  0  0
  -23.4045  -30.4949   21.5540 C   0  0  2  0  0  0
  -24.8473  -28.9670   20.1110 C   0  0  0  0  0  0
  -22.7422  -29.4660   22.4993 C   0  0  0  0  0  0
  -18.0274  -28.1379   22.8501 C   0  0  0  0  0  0
  -24.1489  -36.7313   23.2640 C   0  0  0  0  0  0
  -25.9382  -30.8259   21.3700 C   0  0  0  0  0  0
  -26.0121  -29.4620   20.7105 C   0  0  0  0  0  0
  -27.2021  -28.6920   20.6985 C   0  0  0  0  0  0
  -26.0363  -26.9522   19.4664 C   0  0  0  0  0  0
  -24.8560  -27.7126   19.4844 C   0  0  0  0  0  0
  -23.6112  -29.8354   20.1664 C   0  0  0  0  0  0
  -25.4114  -36.3115   24.0336 C   0  0  1  0  0  0
  -20.5868  -28.3671   23.1319 C   0  0  2  0  0  0
  -20.6764  -26.9407   22.5418 C   0  0  0  0  0  0
  -19.5734  -26.6382   21.5219 C   0  0  0  0  0  0
  -18.1917  -26.7925   22.1631 C   0  0  0  0  0  0
  -19.1525  -28.8843   23.2900 C   0  0  0  0  0  0
  -18.9451  -30.1452   23.8900 C   0  0  0  0  0  0
  -17.6455  -30.6590   24.0562 C   0  0  0  0  0  0
  -25.9040  -34.9478   23.5128 C   0  0  0  0  0  0
  -16.5344  -29.9088   23.6330 C   0  0  0  0  0  0
  -16.7261  -28.6503   23.0354 C   0  0  0  0  0  0
  -26.4482  -31.6603   25.0739 C   0  0  0  0  0  0
  -25.3737  -31.3681   26.1470 C   0  0  0  0  0  0
  -27.0341  -30.3057   24.6126 C   0  0  0  0  0  0
  -27.6051  -32.4326   25.7511 C   0  0  0  0  0  0
  -27.5580  -37.1815   24.8470 C   0  0  0  0  0  0
  -21.4149  -29.3039   22.3731 N   0  0  0  0  0  0
  -26.4302  -37.3798   23.9403 N   0  0  0  0  0  0
  -24.6718  -31.0768   22.1032 N   0  0  0  0  0  0
  -23.4191  -28.8188   23.3027 O   0  0  0  0  0  0
  -28.3669  -26.6269   20.1419 O   0  0  0  0  0  0
  -26.5596  -34.8928   22.4687 O   0  0  0  0  0  0
  -23.5359  -32.1449   23.7493 O   0  0  0  0  0  0
  -31.7764  -19.4041   21.7298 C   0  0  0  0  0  0
  -31.9386  -16.9762   21.8797 C   0  0  0  0  0  0
  -29.9016  -18.0128   21.0305 C   0  0  0  0  0  0
  -32.5076  -18.2491   22.0648 C   0  0  0  0  0  0
  -30.4596  -19.3114   21.2152 C   0  0  0  0  0  0
  -30.6412  -16.8357   21.3357 C   0  0  0  0  0  0
  -29.9264  -21.7901   21.0337 C   0  0  0  0  0  0
  -33.9139  -18.6150   24.1326 C   0  0  0  0  0  0
  -33.9140  -18.3801   22.6191 C   0  0  0  0  0  0
  -28.9256  -22.7809   20.4050 C   0  0  0  0  0  0
  -29.2811  -24.2956   20.5450 C   0  0  0  0  0  0
  -28.1702  -25.2045   19.9715 C   0  0  0  0  0  0
  -29.6909  -20.4688   20.8341 N   0  0  0  0  0  0
  -30.0869  -15.5280   21.1172 N   0  0  0  0  0  0
  -30.8652  -22.2347   21.6974 O   0  0  0  0  0  0
  -31.4574  -12.3807   19.1312 H   0  0  0  0  0  0
  -30.2922  -11.3062   19.8456 H   0  0  0  0  0  0
  -29.7316  -11.7663   17.4384 H   0  0  0  0  0  0
  -29.6652  -13.4812   17.7644 H   0  0  0  0  0  0
  -27.8228  -11.3108   18.8238 H   0  0  0  0  0  0
  -27.3647  -12.6354   17.7875 H   0  0  0  0  0  0
  -27.6934  -14.2585   19.5574 H   0  0  0  0  0  0
  -28.6774  -12.0057   21.3746 H   0  0  0  0  0  0
  -28.4671  -13.6643   21.8525 H   0  0  0  0  0  0
  -25.2761   -9.5690   22.4767 H   0  0  0  0  0  0
  -24.0000   -7.4642   22.7477 H   0  0  0  0  0  0
  -21.0854   -8.8781   19.8946 H   0  0  0  0  0  0
  -22.3707  -10.9680   19.6163 H   0  0  0  0  0  0
  -21.2002   -7.6152   23.9714 H   0  0  0  0  0  0
  -21.1489   -6.0530   25.9078 H   0  0  0  0  0  0
  -22.0597   -2.7615   23.2846 H   0  0  0  0  0  0
  -22.4122  -11.9853   22.4755 H   0  0  0  0  0  0
  -21.1128  -13.1242   22.2635 H   0  0  0  0  0  0
  -24.6636  -15.8473   20.5183 H   0  0  0  0  0  0
  -26.2807  -15.6274   20.0813 H   0  0  0  0  0  0
  -26.7129  -32.5530   23.1165 H   0  0  0  0  0  0
  -25.0074  -33.9787   25.0483 H   0  0  0  0  0  0
  -22.6930  -31.3126   21.4196 H   0  0  0  0  0  0
  -23.3760  -35.9637   23.3309 H   0  0  0  0  0  0
  -24.3570  -36.8931   22.2053 H   0  0  0  0  0  0
  -23.7234  -37.6513   23.6660 H   0  0  0  0  0  0
  -26.0572  -31.5952   20.6054 H   0  0  0  0  0  0
  -26.8236  -30.8726   21.9923 H   0  0  0  0  0  0
  -28.0974  -29.0662   21.1752 H   0  0  0  0  0  0
  -25.9918  -26.0006   18.9577 H   0  0  0  0  0  0
  -23.9635  -27.3291   19.0090 H   0  0  0  0  0  0
  -23.7190  -30.6144   19.4107 H   0  0  0  0  0  0
  -22.7328  -29.2586   19.8704 H   0  0  0  0  0  0
  -25.1289  -36.1983   25.0830 H   0  0  0  0  0  0
  -20.9955  -28.3239   24.1440 H   0  0  0  0  0  0
  -20.5693  -26.2269   23.3603 H   0  0  0  0  0  0
  -21.6632  -26.7465   22.1193 H   0  0  0  0  0  0
  -19.6895  -25.6298   21.1237 H   0  0  0  0  0  0
  -19.6668  -27.3196   20.6756 H   0  0  0  0  0  0
  -17.4191  -26.6700   21.4025 H   0  0  0  0  0  0
  -18.0295  -26.0063   22.9019 H   0  0  0  0  0  0
  -19.7929  -30.7272   24.2259 H   0  0  0  0  0  0
  -17.5013  -31.6269   24.5166 H   0  0  0  0  0  0
  -15.5345  -30.2989   23.7655 H   0  0  0  0  0  0
  -15.8664  -28.0823   22.7063 H   0  0  0  0  0  0
  -24.5917  -30.7034   25.7779 H   0  0  0  0  0  0
  -24.8918  -32.2823   26.4945 H   0  0  0  0  0  0
  -25.8085  -30.8818   27.0213 H   0  0  0  0  0  0
  -26.2904  -29.6790   24.1193 H   0  0  0  0  0  0
  -27.4140  -29.7314   25.4587 H   0  0  0  0  0  0
  -27.8719  -30.4393   23.9277 H   0  0  0  0  0  0
  -27.2672  -33.3621   26.2107 H   0  0  0  0  0  0
  -28.3855  -32.6895   25.0334 H   0  0  0  0  0  0
  -28.0728  -31.8440   26.5413 H   0  0  0  0  0  0
  -28.2608  -38.0104   24.7527 H   0  0  0  0  0  0
  -28.1073  -36.2637   24.6306 H   0  0  0  0  0  0
  -27.2286  -37.1475   25.8870 H   0  0  0  0  0  0
  -20.9303  -29.8775   21.6970 H   0  0  0  0  0  0
  -26.0196  -38.2882   24.1399 H   0  0  0  0  0  0
  -32.2643  -20.3551   21.8727 H   0  0  0  0  0  0
  -32.5171  -16.1019   22.1456 H   0  0  0  0  0  0
  -28.9042  -17.9168   20.6252 H   0  0  0  0  0  0
  -34.9319  -18.7144   24.5099 H   0  0  0  0  0  0
  -33.4431  -17.7852   24.6607 H   0  0  0  0  0  0
  -33.3729  -19.5261   24.3902 H   0  0  0  0  0  0
  -34.4239  -19.2034   22.1166 H   0  0  0  0  0  0
  -34.4868  -17.4819   22.3824 H   0  0  0  0  0  0
  -27.9536  -22.5967   20.8639 H   0  0  0  0  0  0
  -28.8194  -22.5331   19.3482 H   0  0  0  0  0  0
  -30.2247  -24.5051   20.0403 H   0  0  0  0  0  0
  -29.4306  -24.5400   21.5973 H   0  0  0  0  0  0
  -27.2475  -24.8995   20.4691 H   0  0  0  0  0  0
  -28.0500  -24.9909   18.9082 H   0  0  0  0  0  0
  -28.8396  -20.2716   20.3261 H   0  0  0  0  0  0
  -29.1057  -15.3989   21.3129 H   0  0  0  0  0  0
  1 25  1  0  0  0
  1 30  2  0  0  0
  1 84  1  0  0  0
  2  3  1  0  0  0
  2 25  1  0  0  0
  2 86  1  0  0  0
  2 87  1  0  0  0
  3  4  1  0  0  0
  3 88  1  0  0  0
  3 89  1  0  0  0
  4  5  1  0  0  0
  4 90  1  0  0  0
  4 91  1  0  0  0
  5  6  1  0  0  0
  5 26  1  0  0  0
  5 92  1  0  0  0
  6 25  1  0  0  0
  6 93  1  0  0  0
  6 94  1  0  0  0
  7  8  2  0  0  0
  7 26  1  0  0  0
  7 29  1  0  0  0
  8  9  1  0  0  0
  8 22  1  0  0  0
  9 10  1  0  0  0
  9 27  2  0  0  0
 10 11  2  0  0  0
 10 15  1  0  0  0
 11 12  1  0  0  0
 11 95  1  0  0  0
 12 13  2  0  0  0
 12 96  1  0  0  0
 13 14  1  0  0  0
 13 31  1  0  0  0
 14 15  2  0  0  0
 14 97  1  0  0  0
 15 98  1  0  0  0
 16 17  2  0  0  0
 16 21  1  0  0  0
 16 31  1  0  0  0
 17 18  1  0  0  0
 17 99  1  0  0  0
 18 19  2  0  0  0
 18100  1  0  0  0
 19 20  1  0  0  0
 19 24  1  0  0  0
 20 21  2  0  0  0
 20101  1  0  0  0
 21 23  1  0  0  0
 22 28  1  0  0  0
 22 32  2  0  0  0
 26 27  1  0  0  0
 28102  1  0  0  0
 28103  1  0  0  0
 29104  1  0  0  0
 29105  1  0  0  0
 33 34  1  0  0  0
 33 66  1  0  0  0
 33 70  2  0  0  0
 34 36  1  0  0  0
 34 59  1  0  0  0
 34106  1  0  0  0
 35 44  2  0  0  0
 35 45  1  0  0  0
 35 68  1  0  0  0
 36 56  1  0  0  0
 36107  1  0  0  0
 37 39  1  0  0  0
 37 47  1  0  0  0
 37 66  1  0  0  0
 37108  1  0  0  0
 38 43  2  0  0  0
 38 46  1  0  0  0
 38 47  1  0  0  0
 39 64  1  0  0  0
 39 67  2  0  0  0
 40 52  1  0  0  0
 40 53  2  0  0  0
 40 58  1  0  0  0
 41109  1  0  0  0
 41110  1  0  0  0
 41111  1  0  0  0
 41 48  1  0  0  0
 42 43  1  0  0  0
 42 66  1  0  0  0
 42112  1  0  0  0
 42113  1  0  0  0
 43 44  1  0  0  0
 44114  1  0  0  0
 45 46  2  0  0  0
 45115  1  0  0  0
 46116  1  0  0  0
 47117  1  0  0  0
 47118  1  0  0  0
 48 56  1  0  0  0
 48 65  1  0  0  0
 48119  1  0  0  0
 49 50  1  0  0  0
 49 53  1  0  0  0
 49 64  1  0  0  0
 49120  1  0  0  0
 50 51  1  0  0  0
 50121  1  0  0  0
 50122  1  0  0  0
 51 52  1  0  0  0
 51123  1  0  0  0
 51124  1  0  0  0
 52125  1  0  0  0
 52126  1  0  0  0
 53 54  1  0  0  0
 54 55  2  0  0  0
 54127  1  0  0  0
 55 57  1  0  0  0
 55128  1  0  0  0
 56 69  2  0  0  0
 57 58  2  0  0  0
 57129  1  0  0  0
 58130  1  0  0  0
 59 60  1  0  0  0
 59 61  1  0  0  0
 59 62  1  0  0  0
 60131  1  0  0  0
 60132  1  0  0  0
 60133  1  0  0  0
 61134  1  0  0  0
 61135  1  0  0  0
 61136  1  0  0  0
 62137  1  0  0  0
 62138  1  0  0  0
 62139  1  0  0  0
 63 65  1  0  0  0
 63140  1  0  0  0
 63141  1  0  0  0
 63142  1  0  0  0
 64143  1  0  0  0
 65144  1  0  0  0
 68 82  1  0  0  0
 71 74  2  0  0  0
 71 75  1  0  0  0
 71145  1  0  0  0
 72 74  1  0  0  0
 72 76  2  0  0  0
 72146  1  0  0  0
 73 75  2  0  0  0
 73 76  1  0  0  0
 73147  1  0  0  0
 74 79  1  0  0  0
 75 83  1  0  0  0
 76 84  1  0  0  0
 77 80  1  0  0  0
 77 83  1  0  0  0
 77 85  2  0  0  0
 78 79  1  0  0  0
 78148  1  0  0  0
 78149  1  0  0  0
 78150  1  0  0  0
 79151  1  0  0  0
 79152  1  0  0  0
 80 81  1  0  0  0
 80153  1  0  0  0
 80154  1  0  0  0
 81 82  1  0  0  0
 81155  1  0  0  0
 81156  1  0  0  0
 82157  1  0  0  0
 82158  1  0  0  0
 83159  1  0  0  0
 84160  1  0  0  0
M  ISO  4   1 100  68 101  82 101  84 100
M  END
> <chiral flag>
0

> <version>
0

> <s_m_source_file>
/data/baiqing/PycharmProjects/Reinvent-master-3.2/result/LINK_invent/BTK/process_docking_weight1_custom_product_contain_oxygen_bond_distance_aromatic_linkinvent_7_9_3/rearranged_h_0068.sdf

> <i_m_source_file_index>
67

> <r_mmod_Potential_Energy-OPLS-2005>
-83.5590515136719

> <r_mmod_Stretch_Energy-OPLS-2005>
43.6580848693848

> <r_mmod_Bend_Energy-OPLS-2005>
102.072731018066

> <r_mmod_Torsional_Energy-OPLS-2005>
222.999221801758

> <r_mmod_Improper_Torsional_Energy-OPLS-2005>
3.44068741798401

> <r_mmod_Van_der_Waal_Energy-OPLS-2005>
166.811233520508

> <r_mmod_Electrostatic_Energy-OPLS-2005>
-405.658142089844

> <r_mmod_Solvation_Energy-OPLS-2005>
-234.547546386719

> <b_mmod_Minimization_Converged-OPLS-2005>
0

> <r_mmod_RMS_Derivative-OPLS-2005>
0.690267741680145

$$$$
67
                    3D
 Structure written by MMmdl.
154162  0  0  1  0            999 V2000
  -30.5108  -15.0485   20.4208 C   0  0  0  0  0  0
  -30.4416  -12.6633   19.4986 C   0  0  0  0  0  0
  -29.5222  -12.5404   18.2601 C   0  0  0  0  0  0
  -28.0610  -12.3045   18.6859 C   0  0  0  0  0  0
  -27.6213  -13.2538   19.8303 C   0  0  2  0  0  0
  -28.6650  -13.3343   20.9644 C   0  0  0  0  0  0
  -25.2437  -13.8222   20.5724 C   0  0  0  0  0  0
  -24.1767  -13.0443   20.9256 C   0  0  0  0  0  0
  -24.6393  -11.6928   20.8769 C   0  0  0  0  0  0
  -23.9075  -10.4294   21.0416 C   0  0  0  0  0  0
  -24.3623   -9.4208   21.9191 C   0  0  0  0  0  0
  -23.6299   -8.2244   22.0753 C   0  0  0  0  0  0
  -22.4282   -8.0281   21.3541 C   0  0  0  0  0  0
  -21.9917   -9.0255   20.4643 C   0  0  0  0  0  0
  -22.7246  -10.2139   20.3061 C   0  0  0  0  0  0
  -21.6855   -6.0737   22.5277 C   0  0  0  0  0  0
  -21.4013   -6.5644   23.8208 C   0  0  0  0  0  0
  -21.3653   -5.6798   24.9172 C   0  0  0  0  0  0
  -21.6046   -4.3059   24.7225 C   0  0  0  0  0  0
  -21.8818   -3.8150   23.4343 C   0  0  0  0  0  0
  -21.9194   -4.6965   22.3400 C   0  0  0  0  0  0
  -22.7787  -13.5213   21.1893 C   0  0  0  0  0  0
  -22.1665   -4.2154   21.0976 F   0  0  0  0  0  0
  -21.5624   -3.4538   25.7734 F   0  0  0  0  0  0
  -29.9205  -13.7787   20.3467 N   0  0  0  0  0  0
  -26.2853  -12.9456   20.3236 N   0  0  0  0  0  0
  -25.9322  -11.6584   20.5738 N   0  0  0  0  0  0
  -22.0427  -12.8203   22.0443 N   0  0  0  0  0  0
  -25.4087  -15.1949   20.4119 N   0  0  0  0  0  0
  -31.7318  -15.0786   20.2218 O   0  0  0  0  0  0
  -21.6646   -6.8881   21.4238 O   0  0  0  0  0  0
  -22.3479  -14.5515   20.6727 O   0  0  0  0  0  0
  -24.6510  -31.8370   23.1814 C   0  0  0  0  0  0
  -25.9244  -32.4662   23.8227 C   0  0  1  0  0  0
  -27.2107  -27.0536   20.1648 C   0  0  0  0  0  0
  -25.5960  -33.8468   24.2143 N   0  0  0  0  0  0
  -23.4593  -30.4539   21.5296 C   0  0  2  0  0  0
  -24.9093  -28.8676   20.1110 C   0  0  0  0  0  0
  -22.7612  -29.4508   22.4832 C   0  0  0  0  0  0
  -18.0322  -28.1387   22.8468 C   0  0  0  0  0  0
  -24.1503  -36.7242   23.2641 C   0  0  0  0  0  0
  -26.0211  -30.6842   21.3936 C   0  0  0  0  0  0
  -26.0909  -29.2872   20.7355 C   0  0  0  0  0  0
  -27.2423  -28.3987   20.7419 C   0  0  0  0  0  0
  -26.0028  -26.7616   19.4916 C   0  0  0  0  0  0
  -24.8830  -27.6212   19.4706 C   0  0  0  0  0  0
  -23.6907  -29.7794   20.1513 C   0  0  0  0  0  0
  -25.4135  -36.3015   24.0312 C   0  0  1  0  0  0
  -20.5936  -28.3726   23.1211 C   0  0  2  0  0  0
  -20.6807  -26.9424   22.5394 C   0  0  0  0  0  0
  -19.5778  -26.6373   21.5206 C   0  0  0  0  0  0
  -18.1959  -26.7922   22.1616 C   0  0  0  0  0  0
  -19.1580  -28.8876   23.2830 C   0  0  0  0  0  0
  -18.9488  -30.1469   23.8863 C   0  0  0  0  0  0
  -17.6481  -30.6584   24.0552 C   0  0  0  0  0  0
  -25.9088  -34.9392   23.5048 C   0  0  0  0  0  0
  -16.5376  -29.9072   23.6334 C   0  0  0  0  0  0
  -16.7305  -28.6489   23.0357 C   0  0  0  0  0  0
  -26.4536  -31.6546   25.0696 C   0  0  0  0  0  0
  -25.3681  -31.3740   26.1356 C   0  0  0  0  0  0
  -27.0423  -30.2940   24.6319 C   0  0  0  0  0  0
  -27.6061  -32.4322   25.7475 C   0  0  0  0  0  0
  -27.5583  -37.1775   24.8463 C   0  0  0  0  0  0
  -21.4299  -29.3045   22.3578 N   0  0  0  0  0  0
  -26.4296  -37.3731   23.9397 N   0  0  0  0  0  0
  -24.7311  -31.0151   22.0890 N   0  0  0  0  0  0
  -23.4216  -28.8060   23.3017 O   0  0  0  0  0  0
  -28.2318  -26.0087   20.2261 O   0  0  0  0  0  0
  -26.5692  -34.8907   22.4639 O   0  0  0  0  0  0
  -23.5608  -32.1283   23.6982 O   0  0  0  0  0  0
  -31.4834  -19.3398   21.9034 C   0  0  0  0  0  0
  -31.1791  -18.0453   21.4402 C   0  0  0  0  0  0
  -29.2437  -19.0366   20.3749 C   0  0  0  0  0  0
  -30.7047  -20.5034   21.6529 C   0  0  0  0  0  0
  -30.0203  -17.7747   20.6964 C   0  0  0  0  0  0
  -29.5612  -20.4687   20.7729 C   0  0  0  0  0  0
  -31.1377  -21.6428   22.4927 C   0  0  0  0  0  0
  -28.9704  -23.1758   20.2391 C   0  0  0  0  0  0
  -27.8671  -24.4555   20.2634 C   0  0  0  0  0  0
  -31.2077  -21.4878   23.8157 N   0  0  0  0  0  0
  -28.7100  -21.7708   20.4957 N   0  0  0  0  0  0
  -29.7248  -16.2623   20.4443 N   0  0  0  0  0  0
  -31.5424  -22.8062   22.0014 N   0  3  0  0  0  0
  -30.1092  -23.4833   19.8791 O   0  0  0  0  0  0
  -31.4679  -12.8473   19.1764 H   0  0  0  0  0  0
  -30.4683  -11.7286   20.0612 H   0  0  0  0  0  0
  -29.8615  -11.7320   17.6115 H   0  0  0  0  0  0
  -29.5856  -13.4546   17.6680 H   0  0  0  0  0  0
  -27.9794  -11.2684   19.0177 H   0  0  0  0  0  0
  -27.3935  -12.4026   17.8293 H   0  0  0  0  0  0
  -27.5655  -14.2428   19.3746 H   0  0  0  0  0  0
  -28.7837  -12.3733   21.4664 H   0  0  0  0  0  0
  -28.3474  -14.0472   21.7269 H   0  0  0  0  0  0
  -25.2755   -9.5696   22.4778 H   0  0  0  0  0  0
  -24.0002   -7.4640   22.7477 H   0  0  0  0  0  0
  -21.0845   -8.8781   19.8949 H   0  0  0  0  0  0
  -22.3695  -10.9686   19.6177 H   0  0  0  0  0  0
  -21.2006   -7.6151   23.9714 H   0  0  0  0  0  0
  -21.1472   -6.0526   25.9077 H   0  0  0  0  0  0
  -22.0599   -2.7612   23.2843 H   0  0  0  0  0  0
  -22.4040  -11.9872   22.4843 H   0  0  0  0  0  0
  -21.1035  -13.1218   22.2620 H   0  0  0  0  0  0
  -24.6344  -15.8415   20.5179 H   0  0  0  0  0  0
  -26.2364  -15.6315   20.0301 H   0  0  0  0  0  0
  -26.7301  -32.5247   23.0937 H   0  0  0  0  0  0
  -25.0054  -33.9556   25.0250 H   0  0  0  0  0  0
  -22.7667  -31.2825   21.3688 H   0  0  0  0  0  0
  -23.3784  -35.9557   23.3287 H   0  0  0  0  0  0
  -24.3581  -36.8902   22.2060 H   0  0  0  0  0  0
  -23.7241  -37.6420   23.6702 H   0  0  0  0  0  0
  -26.1868  -31.4350   20.6195 H   0  0  0  0  0  0
  -26.8882  -30.7362   22.0413 H   0  0  0  0  0  0
  -28.1411  -28.7149   21.2538 H   0  0  0  0  0  0
  -25.8822  -25.8184   18.9836 H   0  0  0  0  0  0
  -23.9838  -27.2966   18.9645 H   0  0  0  0  0  0
  -23.8353  -30.5524   19.3953 H   0  0  0  0  0  0
  -22.8040  -29.2255   19.8382 H   0  0  0  0  0  0
  -25.1324  -36.1849   25.0807 H   0  0  0  0  0  0
  -21.0019  -28.3334   24.1336 H   0  0  0  0  0  0
  -20.5703  -26.2341   23.3621 H   0  0  0  0  0  0
  -21.6669  -26.7429   22.1186 H   0  0  0  0  0  0
  -19.6943  -25.6274   21.1260 H   0  0  0  0  0  0
  -19.6718  -27.3167   20.6720 H   0  0  0  0  0  0
  -17.4225  -26.6673   21.4024 H   0  0  0  0  0  0
  -18.0361  -26.0067   22.9017 H   0  0  0  0  0  0
  -19.7969  -30.7282   24.2231 H   0  0  0  0  0  0
  -17.5039  -31.6263   24.5149 H   0  0  0  0  0  0
  -15.5371  -30.2954   23.7674 H   0  0  0  0  0  0
  -15.8713  -28.0788   22.7090 H   0  0  0  0  0  0
  -24.5894  -30.7070   25.7626 H   0  0  0  0  0  0
  -24.8823  -32.2918   26.4688 H   0  0  0  0  0  0
  -25.7917  -30.8948   27.0191 H   0  0  0  0  0  0
  -26.3056  -29.6631   24.1335 H   0  0  0  0  0  0
  -27.4024  -29.7280   25.4913 H   0  0  0  0  0  0
  -27.8968  -30.4164   23.9664 H   0  0  0  0  0  0
  -27.2676  -33.3679   26.1940 H   0  0  0  0  0  0
  -28.3918  -32.6789   25.0319 H   0  0  0  0  0  0
  -28.0676  -31.8511   26.5468 H   0  0  0  0  0  0
  -28.2576  -38.0100   24.7529 H   0  0  0  0  0  0
  -28.1120  -36.2623   24.6289 H   0  0  0  0  0  0
  -27.2295  -37.1403   25.8868 H   0  0  0  0  0  0
  -20.9534  -29.8742   21.6731 H   0  0  0  0  0  0
  -26.0181  -38.2805   24.1405 H   0  0  0  0  0  0
  -32.3529  -19.4240   22.5418 H   0  0  0  0  0  0
  -31.8265  -17.2357   21.7435 H   0  0  0  0  0  0
  -28.3399  -18.8940   19.8025 H   0  0  0  0  0  0
  -27.2471  -24.3045   21.1475 H   0  0  0  0  0  0
  -27.2191  -24.2437   19.4156 H   0  0  0  0  0  0
  -30.8959  -20.6165   24.2201 H   0  0  0  0  0  0
  -31.5198  -22.2125   24.4424 H   0  0  0  0  0  0
  -27.7142  -21.5970   20.5363 H   0  0  0  0  0  0
  -28.7423  -16.0672   20.3336 H   0  0  0  0  0  0
  -31.2599  -23.0375   21.0448 H   0  0  0  0  0  0
  -31.9261  -23.5416   22.5721 H   0  0  0  0  0  0
  1 25  1  0  0  0
  1 30  2  0  0  0
  1 82  1  0  0  0
  2  3  1  0  0  0
  2 25  1  0  0  0
  2 85  1  0  0  0
  2 86  1  0  0  0
  3  4  1  0  0  0
  3 87  1  0  0  0
  3 88  1  0  0  0
  4  5  1  0  0  0
  4 89  1  0  0  0
  4 90  1  0  0  0
  5  6  1  0  0  0
  5 26  1  0  0  0
  5 91  1  0  0  0
  6 25  1  0  0  0
  6 92  1  0  0  0
  6 93  1  0  0  0
  7  8  2  0  0  0
  7 26  1  0  0  0
  7 29  1  0  0  0
  8  9  1  0  0  0
  8 22  1  0  0  0
  9 10  1  0  0  0
  9 27  2  0  0  0
 10 11  2  0  0  0
 10 15  1  0  0  0
 11 12  1  0  0  0
 11 94  1  0  0  0
 12 13  2  0  0  0
 12 95  1  0  0  0
 13 14  1  0  0  0
 13 31  1  0  0  0
 14 15  2  0  0  0
 14 96  1  0  0  0
 15 97  1  0  0  0
 16 17  2  0  0  0
 16 21  1  0  0  0
 16 31  1  0  0  0
 17 18  1  0  0  0
 17 98  1  0  0  0
 18 19  2  0  0  0
 18 99  1  0  0  0
 19 20  1  0  0  0
 19 24  1  0  0  0
 20 21  2  0  0  0
 20100  1  0  0  0
 21 23  1  0  0  0
 22 28  1  0  0  0
 22 32  2  0  0  0
 26 27  1  0  0  0
 28101  1  0  0  0
 28102  1  0  0  0
 29103  1  0  0  0
 29104  1  0  0  0
 33 34  1  0  0  0
 33 66  1  0  0  0
 33 70  2  0  0  0
 34 36  1  0  0  0
 34 59  1  0  0  0
 34105  1  0  0  0
 35 44  2  0  0  0
 35 45  1  0  0  0
 35 68  1  0  0  0
 36 56  1  0  0  0
 36106  1  0  0  0
 37 39  1  0  0  0
 37 47  1  0  0  0
 37 66  1  0  0  0
 37107  1  0  0  0
 38 43  2  0  0  0
 38 46  1  0  0  0
 38 47  1  0  0  0
 39 64  1  0  0  0
 39 67  2  0  0  0
 40 52  1  0  0  0
 40 53  2  0  0  0
 40 58  1  0  0  0
 41108  1  0  0  0
 41109  1  0  0  0
 41110  1  0  0  0
 41 48  1  0  0  0
 42 43  1  0  0  0
 42 66  1  0  0  0
 42111  1  0  0  0
 42112  1  0  0  0
 43 44  1  0  0  0
 44113  1  0  0  0
 45 46  2  0  0  0
 45114  1  0  0  0
 46115  1  0  0  0
 47116  1  0  0  0
 47117  1  0  0  0
 48 56  1  0  0  0
 48 65  1  0  0  0
 48118  1  0  0  0
 49 50  1  0  0  0
 49 53  1  0  0  0
 49 64  1  0  0  0
 49119  1  0  0  0
 50 51  1  0  0  0
 50120  1  0  0  0
 50121  1  0  0  0
 51 52  1  0  0  0
 51122  1  0  0  0
 51123  1  0  0  0
 52124  1  0  0  0
 52125  1  0  0  0
 53 54  1  0  0  0
 54 55  2  0  0  0
 54126  1  0  0  0
 55 57  1  0  0  0
 55127  1  0  0  0
 56 69  2  0  0  0
 57 58  2  0  0  0
 57128  1  0  0  0
 58129  1  0  0  0
 59 60  1  0  0  0
 59 61  1  0  0  0
 59 62  1  0  0  0
 60130  1  0  0  0
 60131  1  0  0  0
 60132  1  0  0  0
 61133  1  0  0  0
 61134  1  0  0  0
 61135  1  0  0  0
 62136  1  0  0  0
 62137  1  0  0  0
 62138  1  0  0  0
 63 65  1  0  0  0
 63139  1  0  0  0
 63140  1  0  0  0
 63141  1  0  0  0
 64142  1  0  0  0
 65143  1  0  0  0
 68 79  1  0  0  0
 71 72  2  0  0  0
 71 74  1  0  0  0
 71144  1  0  0  0
 72 75  1  0  0  0
 72145  1  0  0  0
 73 75  2  0  0  0
 73 76  1  0  0  0
 73146  1  0  0  0
 74 76  2  0  0  0
 74 77  1  0  0  0
 75 82  1  0  0  0
 76 81  1  0  0  0
 77 80  1  0  0  0
 77 83  2  0  0  0
 78 79  1  0  0  0
 78 81  1  0  0  0
 78 84  2  0  0  0
 79147  1  0  0  0
 79148  1  0  0  0
 80149  1  0  0  0
 80150  1  0  0  0
 81151  1  0  0  0
 82152  1  0  0  0
 83153  1  0  0  0
 83154  1  0  0  0
M  CHG  1  83   1
M  ISO  4   1 100  68 101  79 101  82 100
M  END
> <chiral flag>
0

> <version>
0

> <s_m_source_file>
/data/baiqing/PycharmProjects/Reinvent-master-3.2/result/LINK_invent/BTK/process_docking_weight1_custom_product_contain_oxygen_bond_distance_aromatic_linkinvent_7_9_3/rearranged_h_0068.sdf

> <i_m_source_file_index>
68

> <r_mmod_Potential_Energy-OPLS-2005>
517.477844238281

> <r_mmod_Stretch_Energy-OPLS-2005>
358.858734130859

> <r_mmod_Bend_Energy-OPLS-2005>
288.999145507812

> <r_mmod_Torsional_Energy-OPLS-2005>
263.021606445312

> <r_mmod_Improper_Torsional_Energy-OPLS-2005>
9.51687622070312

> <r_mmod_Van_der_Waal_Energy-OPLS-2005>
150.356796264648

> <r_mmod_Electrostatic_Energy-OPLS-2005>
-372.952239990234

> <r_mmod_Solvation_Energy-OPLS-2005>
-454.676086425781

> <b_mmod_Minimization_Converged-OPLS-2005>
0

> <r_mmod_RMS_Derivative-OPLS-2005>
1.51757621765137

$$$$
68
                    3D
 Structure written by MMmdl.
159167  0  0  1  0            999 V2000
  -30.7198  -14.4718   20.5207 C   0  0  0  0  0  0
  -30.4049  -12.2809   19.4573 C   0  0  0  0  0  0
  -29.4958  -12.4794   18.2246 C   0  0  0  0  0  0
  -28.0145  -12.3422   18.6319 C   0  0  0  0  0  0
  -27.6513  -13.2114   19.8686 C   0  0  2  0  0  0
  -28.6922  -13.0513   21.0019 C   0  0  0  0  0  0
  -25.2537  -13.8190   20.5693 C   0  0  0  0  0  0
  -24.1811  -13.0481   20.9178 C   0  0  0  0  0  0
  -24.6347  -11.6922   20.8756 C   0  0  0  0  0  0
  -23.9035  -10.4308   21.0405 C   0  0  0  0  0  0
  -24.3595   -9.4210   21.9189 C   0  0  0  0  0  0
  -23.6280   -8.2241   22.0740 C   0  0  0  0  0  0
  -22.4279   -8.0253   21.3514 C   0  0  0  0  0  0
  -21.9895   -9.0233   20.4626 C   0  0  0  0  0  0
  -22.7203  -10.2127   20.3045 C   0  0  0  0  0  0
  -21.6848   -6.0704   22.5272 C   0  0  0  0  0  0
  -21.4004   -6.5618   23.8196 C   0  0  0  0  0  0
  -21.3670   -5.6784   24.9168 C   0  0  0  0  0  0
  -21.6050   -4.3046   24.7236 C   0  0  0  0  0  0
  -21.8822   -3.8123   23.4360 C   0  0  0  0  0  0
  -21.9184   -4.6928   22.3407 C   0  0  0  0  0  0
  -22.7818  -13.5212   21.1844 C   0  0  0  0  0  0
  -22.1670   -4.2097   21.0995 F   0  0  0  0  0  0
  -21.5621   -3.4545   25.7761 F   0  0  0  0  0  0
  -30.0263  -13.3054   20.4441 N   0  0  0  0  0  0
  -26.2966  -12.9362   20.3371 N   0  0  0  0  0  0
  -25.9272  -11.6520   20.5828 N   0  0  0  0  0  0
  -22.0487  -12.8207   22.0415 N   0  0  0  0  0  0
  -25.4314  -15.1932   20.4085 N   0  0  0  0  0  0
  -31.9044  -14.5551   20.1940 O   0  0  0  0  0  0
  -21.6640   -6.8846   21.4231 O   0  0  0  0  0  0
  -22.3517  -14.5547   20.6686 O   0  0  0  0  0  0
  -24.6178  -31.8705   23.2155 C   0  0  0  0  0  0
  -25.9054  -32.4857   23.8446 C   0  0  1  0  0  0
  -27.2166  -27.4287   20.0901 C   0  0  0  0  0  0
  -25.5901  -33.8661   24.2392 N   0  0  0  0  0  0
  -23.3996  -30.5038   21.5617 C   0  0  2  0  0  0
  -24.8352  -28.9782   20.1153 C   0  0  0  0  0  0
  -22.7428  -29.4727   22.5033 C   0  0  0  0  0  0
  -18.0304  -28.1362   22.8616 C   0  0  0  0  0  0
  -24.1474  -36.7334   23.2630 C   0  0  0  0  0  0
  -25.9349  -30.8393   21.3607 C   0  0  0  0  0  0
  -26.0049  -29.4801   20.6962 C   0  0  0  0  0  0
  -27.1993  -28.7219   20.6650 C   0  0  0  0  0  0
  -26.0205  -26.9524   19.4935 C   0  0  0  0  0  0
  -24.8379  -27.7149   19.5111 C   0  0  0  0  0  0
  -23.5965  -29.8435   20.1747 C   0  0  0  0  0  0
  -25.4098  -36.3146   24.0334 C   0  0  1  0  0  0
  -20.5923  -28.3658   23.1319 C   0  0  2  0  0  0
  -20.6860  -26.9464   22.5264 C   0  0  0  0  0  0
  -19.5685  -26.6461   21.5205 C   0  0  0  0  0  0
  -18.1996  -26.7811   22.1964 C   0  0  0  0  0  0
  -19.1595  -28.8840   23.2966 C   0  0  0  0  0  0
  -18.9540  -30.1488   23.8923 C   0  0  0  0  0  0
  -17.6545  -30.6605   24.0650 C   0  0  0  0  0  0
  -25.9030  -34.9503   23.5177 C   0  0  0  0  0  0
  -16.5415  -29.9119   23.6469 C   0  0  0  0  0  0
  -16.7304  -28.6527   23.0450 C   0  0  0  0  0  0
  -26.4455  -31.6659   25.0809 C   0  0  0  0  0  0
  -25.3716  -31.3740   26.1564 C   0  0  0  0  0  0
  -27.0252  -30.3084   24.6215 C   0  0  0  0  0  0
  -27.6034  -32.4385   25.7571 C   0  0  0  0  0  0
  -27.5579  -37.1836   24.8459 C   0  0  0  0  0  0
  -21.4183  -29.3073   22.3767 N   0  0  0  0  0  0
  -26.4299  -37.3814   23.9407 N   0  0  0  0  0  0
  -24.6709  -31.0818   22.1035 N   0  0  0  0  0  0
  -23.4219  -28.8202   23.3020 O   0  0  0  0  0  0
  -28.3779  -26.6697   20.1514 O   0  0  0  0  0  0
  -26.5599  -34.8936   22.4747 O   0  0  0  0  0  0
  -23.5378  -32.1443   23.7572 O   0  0  0  0  0  0
  -29.8476  -18.0834   20.6254 C   0  0  0  0  0  0
  -30.5848  -19.2769   18.6116 C   0  0  0  0  0  0
  -30.8610  -16.8656   18.7725 C   0  0  0  0  0  0
  -29.9701  -19.2914   19.8813 C   0  0  0  0  0  0
  -30.2701  -16.8496   20.0640 C   0  0  0  0  0  0
  -31.0280  -18.0641   18.0605 C   0  0  0  0  0  0
  -29.3001  -20.5296   20.2987 C   0  0  0  0  0  0
  -29.2696  -24.1351   21.8967 C   0  0  0  0  0  0
  -28.9821  -22.9362   19.6556 C   0  0  0  0  0  0
  -28.2306  -25.2726   19.8439 C   0  0  0  0  0  0
  -29.3052  -24.2789   20.3587 C   0  0  1  0  0  0
  -28.1004  -20.4376   20.8659 N   0  0  0  0  0  0
  -30.0059  -15.6000   20.7289 N   0  0  0  0  0  0
  -29.8003  -21.7516   20.0133 N   0  3  0  0  0  0
  -31.5637  -18.0366   16.8154 F   0  0  0  0  0  0
  -31.4593  -12.3332   19.1773 H   0  0  0  0  0  0
  -30.2652  -11.2822   19.8738 H   0  0  0  0  0  0
  -29.7335  -11.7480   17.4507 H   0  0  0  0  0  0
  -29.6784  -13.4632   17.7924 H   0  0  0  0  0  0
  -27.8293  -11.2896   18.8565 H   0  0  0  0  0  0
  -27.3635  -12.5886   17.7922 H   0  0  0  0  0  0
  -27.6785  -14.2467   19.5292 H   0  0  0  0  0  0
  -28.6609  -12.0471   21.4207 H   0  0  0  0  0  0
  -28.4812  -13.7199   21.8391 H   0  0  0  0  0  0
  -25.2734   -9.5680   22.4769 H   0  0  0  0  0  0
  -23.9955   -7.4643   22.7480 H   0  0  0  0  0  0
  -21.0798   -8.8719   19.8983 H   0  0  0  0  0  0
  -22.3615  -10.9639   19.6147 H   0  0  0  0  0  0
  -21.2010   -7.6132   23.9659 H   0  0  0  0  0  0
  -21.1504   -6.0545   25.9060 H   0  0  0  0  0  0
  -22.0599   -2.7580   23.2875 H   0  0  0  0  0  0
  -22.4067  -11.9862   22.4828 H   0  0  0  0  0  0
  -21.1106  -13.1199   22.2662 H   0  0  0  0  0  0
  -24.6598  -15.8466   20.4864 H   0  0  0  0  0  0
  -26.2878  -15.6271   20.0899 H   0  0  0  0  0  0
  -26.7141  -32.5521   23.1217 H   0  0  0  0  0  0
  -25.0014  -33.9863   25.0508 H   0  0  0  0  0  0
  -22.6887  -31.3252   21.4416 H   0  0  0  0  0  0
  -23.3746  -35.9663   23.3316 H   0  0  0  0  0  0
  -24.3526  -36.8925   22.2033 H   0  0  0  0  0  0
  -23.7247  -37.6553   23.6636 H   0  0  0  0  0  0
  -26.0725  -31.6114   20.6014 H   0  0  0  0  0  0
  -26.8162  -30.8719   21.9888 H   0  0  0  0  0  0
  -28.1053  -29.1169   21.0988 H   0  0  0  0  0  0
  -25.9626  -25.9864   19.0089 H   0  0  0  0  0  0
  -23.9243  -27.3468   19.0629 H   0  0  0  0  0  0
  -23.6878  -30.6324   19.4277 H   0  0  0  0  0  0
  -22.7187  -29.2649   19.8784 H   0  0  0  0  0  0
  -25.1290  -36.1984   25.0823 H   0  0  0  0  0  0
  -21.0113  -28.3116   24.1412 H   0  0  0  0  0  0
  -20.5994  -26.2236   23.3392 H   0  0  0  0  0  0
  -21.6678  -26.7658   22.0824 H   0  0  0  0  0  0
  -19.6864  -25.6448   21.1103 H   0  0  0  0  0  0
  -19.6360  -27.3398   20.6814 H   0  0  0  0  0  0
  -17.3963  -26.6143   21.4788 H   0  0  0  0  0  0
  -18.0971  -26.0104   22.9644 H   0  0  0  0  0  0
  -19.8039  -30.7318   24.2218 H   0  0  0  0  0  0
  -17.5154  -31.6290   24.5241 H   0  0  0  0  0  0
  -15.5437  -30.3010   23.7929 H   0  0  0  0  0  0
  -15.8659  -28.0881   22.7201 H   0  0  0  0  0  0
  -24.5911  -30.7068   25.7894 H   0  0  0  0  0  0
  -24.8883  -32.2874   26.5043 H   0  0  0  0  0  0
  -25.8064  -30.8896   27.0319 H   0  0  0  0  0  0
  -26.2789  -29.6938   24.1188 H   0  0  0  0  0  0
  -27.3871  -29.7256   25.4696 H   0  0  0  0  0  0
  -27.8712  -30.4387   23.9472 H   0  0  0  0  0  0
  -27.2672  -33.3685   26.2181 H   0  0  0  0  0  0
  -28.3839  -32.6966   25.0399 H   0  0  0  0  0  0
  -28.0748  -31.8515   26.5482 H   0  0  0  0  0  0
  -28.2638  -38.0094   24.7503 H   0  0  0  0  0  0
  -28.1054  -36.2650   24.6308 H   0  0  0  0  0  0
  -27.2304  -37.1506   25.8862 H   0  0  0  0  0  0
  -20.9372  -29.8704   21.6919 H   0  0  0  0  0  0
  -26.0188  -38.2898   24.1378 H   0  0  0  0  0  0
  -29.3781  -18.0959   21.5997 H   0  0  0  0  0  0
  -30.6531  -20.1781   18.0187 H   0  0  0  0  0  0
  -31.1689  -15.9553   18.2818 H   0  0  0  0  0  0
  -30.1498  -23.6099   22.2678 H   0  0  0  0  0  0
  -28.3992  -23.5606   22.2203 H   0  0  0  0  0  0
  -29.2610  -25.1069   22.3973 H   0  0  0  0  0  0
  -29.1183  -23.0882   18.5855 H   0  0  0  0  0  0
  -27.9171  -22.7091   19.7388 H   0  0  0  0  0  0
  -27.2933  -24.8884   20.2462 H   0  0  0  0  0  0
  -28.1617  -25.2092   18.7561 H   0  0  0  0  0  0
  -30.2921  -24.6230   20.0418 H   0  0  0  0  0  0
  -27.6644  -19.5319   20.9514 H   0  0  0  0  0  0
  -27.6743  -21.2182   21.3352 H   0  0  0  0  0  0
  -29.0790  -15.4872   21.1133 H   0  0  0  0  0  0
  -30.7692  -21.7927   19.7215 H   0  0  0  0  0  0
  1 25  1  0  0  0
  1 30  2  0  0  0
  1 83  1  0  0  0
  2  3  1  0  0  0
  2 25  1  0  0  0
  2 86  1  0  0  0
  2 87  1  0  0  0
  3  4  1  0  0  0
  3 88  1  0  0  0
  3 89  1  0  0  0
  4  5  1  0  0  0
  4 90  1  0  0  0
  4 91  1  0  0  0
  5  6  1  0  0  0
  5 26  1  0  0  0
  5 92  1  0  0  0
  6 25  1  0  0  0
  6 93  1  0  0  0
  6 94  1  0  0  0
  7  8  2  0  0  0
  7 26  1  0  0  0
  7 29  1  0  0  0
  8  9  1  0  0  0
  8 22  1  0  0  0
  9 10  1  0  0  0
  9 27  2  0  0  0
 10 11  2  0  0  0
 10 15  1  0  0  0
 11 12  1  0  0  0
 11 95  1  0  0  0
 12 13  2  0  0  0
 12 96  1  0  0  0
 13 14  1  0  0  0
 13 31  1  0  0  0
 14 15  2  0  0  0
 14 97  1  0  0  0
 15 98  1  0  0  0
 16 17  2  0  0  0
 16 21  1  0  0  0
 16 31  1  0  0  0
 17 18  1  0  0  0
 17 99  1  0  0  0
 18 19  2  0  0  0
 18100  1  0  0  0
 19 20  1  0  0  0
 19 24  1  0  0  0
 20 21  2  0  0  0
 20101  1  0  0  0
 21 23  1  0  0  0
 22 28  1  0  0  0
 22 32  2  0  0  0
 26 27  1  0  0  0
 28102  1  0  0  0
 28103  1  0  0  0
 29104  1  0  0  0
 29105  1  0  0  0
 33 34  1  0  0  0
 33 66  1  0  0  0
 33 70  2  0  0  0
 34 36  1  0  0  0
 34 59  1  0  0  0
 34106  1  0  0  0
 35 44  2  0  0  0
 35 45  1  0  0  0
 35 68  1  0  0  0
 36 56  1  0  0  0
 36107  1  0  0  0
 37 39  1  0  0  0
 37 47  1  0  0  0
 37 66  1  0  0  0
 37108  1  0  0  0
 38 43  2  0  0  0
 38 46  1  0  0  0
 38 47  1  0  0  0
 39 64  1  0  0  0
 39 67  2  0  0  0
 40 52  1  0  0  0
 40 53  2  0  0  0
 40 58  1  0  0  0
 41109  1  0  0  0
 41110  1  0  0  0
 41111  1  0  0  0
 41 48  1  0  0  0
 42 43  1  0  0  0
 42 66  1  0  0  0
 42112  1  0  0  0
 42113  1  0  0  0
 43 44  1  0  0  0
 44114  1  0  0  0
 45 46  2  0  0  0
 45115  1  0  0  0
 46116  1  0  0  0
 47117  1  0  0  0
 47118  1  0  0  0
 48 56  1  0  0  0
 48 65  1  0  0  0
 48119  1  0  0  0
 49 50  1  0  0  0
 49 53  1  0  0  0
 49 64  1  0  0  0
 49120  1  0  0  0
 50 51  1  0  0  0
 50121  1  0  0  0
 50122  1  0  0  0
 51 52  1  0  0  0
 51123  1  0  0  0
 51124  1  0  0  0
 52125  1  0  0  0
 52126  1  0  0  0
 53 54  1  0  0  0
 54 55  2  0  0  0
 54127  1  0  0  0
 55 57  1  0  0  0
 55128  1  0  0  0
 56 69  2  0  0  0
 57 58  2  0  0  0
 57129  1  0  0  0
 58130  1  0  0  0
 59 60  1  0  0  0
 59 61  1  0  0  0
 59 62  1  0  0  0
 60131  1  0  0  0
 60132  1  0  0  0
 60133  1  0  0  0
 61134  1  0  0  0
 61135  1  0  0  0
 61136  1  0  0  0
 62137  1  0  0  0
 62138  1  0  0  0
 62139  1  0  0  0
 63 65  1  0  0  0
 63140  1  0  0  0
 63141  1  0  0  0
 63142  1  0  0  0
 64143  1  0  0  0
 65144  1  0  0  0
 68 80  1  0  0  0
 71 74  2  0  0  0
 71 75  1  0  0  0
 71145  1  0  0  0
 72 74  1  0  0  0
 72 76  2  0  0  0
 72146  1  0  0  0
 73 75  2  0  0  0
 73 76  1  0  0  0
 73147  1  0  0  0
 74 77  1  0  0  0
 75 83  1  0  0  0
 76 85  1  0  0  0
 77 82  1  0  0  0
 77 84  2  0  0  0
 78148  1  0  0  0
 78149  1  0  0  0
 78150  1  0  0  0
 78 81  1  0  0  0
 79 81  1  0  0  0
 79 84  1  0  0  0
 79151  1  0  0  0
 79152  1  0  0  0
 80 81  1  0  0  0
 80153  1  0  0  0
 80154  1  0  0  0
 81155  1  0  0  0
 82156  1  0  0  0
 82157  1  0  0  0
 83158  1  0  0  0
 84159  1  0  0  0
M  CHG  1  84   1
M  ISO  4   1 100  68 101  80 101  83 100
M  END
> <chiral flag>
0

> <version>
0

> <s_m_source_file>
/data/baiqing/PycharmProjects/Reinvent-master-3.2/result/LINK_invent/BTK/process_docking_weight1_custom_product_contain_oxygen_bond_distance_aromatic_linkinvent_7_9_3/rearranged_h_0068.sdf

> <i_m_source_file_index>
69

> <r_mmod_Potential_Energy-OPLS-2005>
-252.672332763672

> <r_mmod_Stretch_Energy-OPLS-2005>
40.3346328735352

> <r_mmod_Bend_Energy-OPLS-2005>
108.352760314941

> <r_mmod_Torsional_Energy-OPLS-2005>
264.014739990234

> <r_mmod_Improper_Torsional_Energy-OPLS-2005>
10.4158134460449

> <r_mmod_Van_der_Waal_Energy-OPLS-2005>
172.346572875977

> <r_mmod_Electrostatic_Energy-OPLS-2005>
-434.63134765625

> <r_mmod_Solvation_Energy-OPLS-2005>
-436.355529785156

> <b_mmod_Minimization_Converged-OPLS-2005>
0

> <r_mmod_RMS_Derivative-OPLS-2005>
7.22541904449463

$$$$
69
                    3D
 Structure written by MMmdl.
158167  0  0  1  0            999 V2000
  -30.6171  -14.7596   20.4149 C   0  0  0  0  0  0
  -30.4312  -12.4572   19.4770 C   0  0  0  0  0  0
  -29.5132  -12.5107   18.2361 C   0  0  0  0  0  0
  -28.0382  -12.3376   18.6466 C   0  0  0  0  0  0
  -27.6438  -13.2376   19.8478 C   0  0  2  0  0  0
  -28.6891  -13.1838   20.9831 C   0  0  0  0  0  0
  -25.2515  -13.8196   20.5671 C   0  0  0  0  0  0
  -24.1792  -13.0444   20.9179 C   0  0  0  0  0  0
  -24.6385  -11.6923   20.8725 C   0  0  0  0  0  0
  -23.9057  -10.4301   21.0391 C   0  0  0  0  0  0
  -24.3607   -9.4214   21.9182 C   0  0  0  0  0  0
  -23.6273   -8.2248   22.0758 C   0  0  0  0  0  0
  -22.4262   -8.0279   21.3550 C   0  0  0  0  0  0
  -21.9891   -9.0260   20.4650 C   0  0  0  0  0  0
  -22.7223  -10.2138   20.3055 C   0  0  0  0  0  0
  -21.6854   -6.0715   22.5267 C   0  0  0  0  0  0
  -21.4019   -6.5623   23.8194 C   0  0  0  0  0  0
  -21.3664   -5.6773   24.9149 C   0  0  0  0  0  0
  -21.6050   -4.3037   24.7209 C   0  0  0  0  0  0
  -21.8815   -3.8130   23.4329 C   0  0  0  0  0  0
  -21.9192   -4.6944   22.3385 C   0  0  0  0  0  0
  -22.7816  -13.5244   21.1818 C   0  0  0  0  0  0
  -22.1662   -4.2126   21.0962 F   0  0  0  0  0  0
  -21.5639   -3.4525   25.7731 F   0  0  0  0  0  0
  -29.9912  -13.5296   20.3998 N   0  0  0  0  0  0
  -26.2943  -12.9420   20.3253 N   0  0  0  0  0  0
  -25.9325  -11.6559   20.5729 N   0  0  0  0  0  0
  -22.0424  -12.8274   22.0368 N   0  0  0  0  0  0
  -25.4262  -15.1912   20.4107 N   0  0  0  0  0  0
  -31.8160  -14.8280   20.1321 O   0  0  0  0  0  0
  -21.6635   -6.8872   21.4235 O   0  0  0  0  0  0
  -22.3526  -14.5546   20.6640 O   0  0  0  0  0  0
  -24.6320  -31.8552   23.1987 C   0  0  0  0  0  0
  -25.9137  -32.4762   23.8329 C   0  0  1  0  0  0
  -27.2185  -27.2566   20.1194 C   0  0  0  0  0  0
  -25.5918  -33.8567   24.2245 N   0  0  0  0  0  0
  -23.4293  -30.4788   21.5431 C   0  0  2  0  0  0
  -24.8747  -28.9268   20.1107 C   0  0  0  0  0  0
  -22.7522  -29.4601   22.4920 C   0  0  0  0  0  0
  -18.0298  -28.1385   22.8494 C   0  0  0  0  0  0
  -24.1490  -36.7290   23.2636 C   0  0  0  0  0  0
  -25.9768  -30.7672   21.3791 C   0  0  0  0  0  0
  -26.0478  -29.3891   20.7197 C   0  0  0  0  0  0
  -27.2204  -28.5651   20.7157 C   0  0  0  0  0  0
  -26.0220  -26.8726   19.4708 C   0  0  0  0  0  0
  -24.8670  -27.6766   19.4762 C   0  0  0  0  0  0
  -23.6483  -29.8173   20.1586 C   0  0  0  0  0  0
  -25.4117  -36.3089   24.0327 C   0  0  1  0  0  0
  -20.5903  -28.3700   23.1291 C   0  0  2  0  0  0
  -20.6781  -26.9416   22.5420 C   0  0  0  0  0  0
  -19.5747  -26.6388   21.5227 C   0  0  0  0  0  0
  -18.1929  -26.7936   22.1632 C   0  0  0  0  0  0
  -19.1550  -28.8857   23.2889 C   0  0  0  0  0  0
  -18.9466  -30.1464   23.8896 C   0  0  0  0  0  0
  -17.6465  -30.6588   24.0562 C   0  0  0  0  0  0
  -25.9052  -34.9448   23.5087 C   0  0  0  0  0  0
  -16.5361  -29.9090   23.6329 C   0  0  0  0  0  0
  -16.7285  -28.6510   23.0353 C   0  0  0  0  0  0
  -26.4484  -31.6594   25.0728 C   0  0  0  0  0  0
  -25.3696  -31.3755   26.1442 C   0  0  0  0  0  0
  -27.0309  -30.3013   24.6201 C   0  0  0  0  0  0
  -27.6032  -32.4335   25.7501 C   0  0  0  0  0  0
  -27.5588  -37.1795   24.8457 C   0  0  0  0  0  0
  -21.4224  -29.3043   22.3678 N   0  0  0  0  0  0
  -26.4289  -37.3793   23.9412 N   0  0  0  0  0  0
  -24.6992  -31.0515   22.0966 N   0  0  0  0  0  0
  -23.4220  -28.8132   23.3014 O   0  0  0  0  0  0
  -28.3114  -26.3534   20.1870 O   0  0  0  0  0  0
  -26.5641  -34.8926   22.4670 O   0  0  0  0  0  0
  -23.5471  -32.1356   23.7283 O   0  0  0  0  0  0
  -30.1070  -19.6506   18.3230 C   0  0  0  0  0  0
  -30.4613  -18.4048   17.7795 C   0  0  0  0  0  0
  -29.6065  -18.5455   20.4239 C   0  0  0  0  0  0
  -29.6575  -19.7971   19.6585 C   0  0  0  0  0  0
  -29.9810  -17.2317   19.8854 C   0  0  0  0  0  0
  -30.3952  -17.2196   18.5294 C   0  0  0  0  0  0
  -29.1529  -22.3685   19.4406 C   0  0  0  0  0  0
  -28.8259  -23.0365   21.6593 C   0  0  0  0  0  0
  -29.2593  -21.5382   21.5639 C   0  0  0  0  0  0
  -29.1310  -23.7019   20.2999 C   0  0  1  0  0  0
  -30.5536  -24.2973   20.2766 C   0  0  0  0  0  0
  -28.1096  -24.8933   19.8510 C   0  0  0  0  0  0
  -29.3293  -21.1856   20.1470 N   0  0  0  0  0  0
  -29.8585  -15.9164   20.5841 N   0  0  0  0  0  0
  -29.0055  -22.4419   18.2172 O   0  0  0  0  0  0
  -30.6848  -16.0595   17.8934 F   0  0  0  0  0  0
  -31.4741  -12.5718   19.1758 H   0  0  0  0  0  0
  -30.3679  -11.4840   19.9673 H   0  0  0  0  0  0
  -29.7960  -11.7353   17.5214 H   0  0  0  0  0  0
  -29.6408  -13.4649   17.7213 H   0  0  0  0  0  0
  -27.8880  -11.2904   18.9100 H   0  0  0  0  0  0
  -27.3840  -12.5367   17.7970 H   0  0  0  0  0  0
  -27.6389  -14.2573   19.4622 H   0  0  0  0  0  0
  -28.7249  -12.1917   21.4346 H   0  0  0  0  0  0
  -28.4263  -13.8727   21.7865 H   0  0  0  0  0  0
  -25.2750   -9.5694   22.4757 H   0  0  0  0  0  0
  -23.9974   -7.4650   22.7493 H   0  0  0  0  0  0
  -21.0823   -8.8790   19.8972 H   0  0  0  0  0  0
  -22.3681  -10.9680   19.6166 H   0  0  0  0  0  0
  -21.2019   -7.6138   23.9690 H   0  0  0  0  0  0
  -21.1498   -6.0503   25.9054 H   0  0  0  0  0  0
  -22.0601   -2.7601   23.2819 H   0  0  0  0  0  0
  -22.4005  -11.9948   22.4804 H   0  0  0  0  0  0
  -21.1052  -13.1374   22.2530 H   0  0  0  0  0  0
  -24.6633  -15.8520   20.5143 H   0  0  0  0  0  0
  -26.2798  -15.6233   20.0802 H   0  0  0  0  0  0
  -26.7214  -32.5410   23.1077 H   0  0  0  0  0  0
  -25.0039  -33.9691   25.0376 H   0  0  0  0  0  0
  -22.7270  -31.3026   21.4003 H   0  0  0  0  0  0
  -23.3766  -35.9608   23.3287 H   0  0  0  0  0  0
  -24.3586  -36.8921   22.2050 H   0  0  0  0  0  0
  -23.7214  -37.6475   23.6669 H   0  0  0  0  0  0
  -26.1145  -31.5296   20.6104 H   0  0  0  0  0  0
  -26.8554  -30.8172   22.0117 H   0  0  0  0  0  0
  -28.1163  -28.9127   21.2101 H   0  0  0  0  0  0
  -25.9439  -25.9257   18.9606 H   0  0  0  0  0  0
  -23.9717  -27.3209   18.9857 H   0  0  0  0  0  0
  -23.7776  -30.5955   19.4048 H   0  0  0  0  0  0
  -22.7651  -29.2550   19.8505 H   0  0  0  0  0  0
  -25.1294  -36.1929   25.0821 H   0  0  0  0  0  0
  -21.0001  -28.3267   24.1409 H   0  0  0  0  0  0
  -20.5696  -26.2301   23.3624 H   0  0  0  0  0  0
  -21.6651  -26.7440   22.1201 H   0  0  0  0  0  0
  -19.6903  -25.6299   21.1260 H   0  0  0  0  0  0
  -19.6684  -27.3211   20.6767 H   0  0  0  0  0  0
  -17.4203  -26.6708   21.4025 H   0  0  0  0  0  0
  -18.0307  -26.0078   22.9025 H   0  0  0  0  0  0
  -19.7935  -30.7291   24.2262 H   0  0  0  0  0  0
  -17.5009  -31.6269   24.5168 H   0  0  0  0  0  0
  -15.5349  -30.2988   23.7642 H   0  0  0  0  0  0
  -15.8691  -28.0833   22.7053 H   0  0  0  0  0  0
  -24.5870  -30.7104   25.7775 H   0  0  0  0  0  0
  -24.8878  -32.2923   26.4851 H   0  0  0  0  0  0
  -25.8000  -30.8941   27.0231 H   0  0  0  0  0  0
  -26.2877  -29.6792   24.1201 H   0  0  0  0  0  0
  -27.3962  -29.7253   25.4708 H   0  0  0  0  0  0
  -27.8779  -30.4289   23.9460 H   0  0  0  0  0  0
  -27.2636  -33.3646   26.2060 H   0  0  0  0  0  0
  -28.3853  -32.6875   25.0334 H   0  0  0  0  0  0
  -28.0693  -31.8467   26.5425 H   0  0  0  0  0  0
  -28.2584  -38.0119   24.7551 H   0  0  0  0  0  0
  -28.1100  -36.2639   24.6226 H   0  0  0  0  0  0
  -27.2310  -37.1396   25.8864 H   0  0  0  0  0  0
  -20.9412  -29.8778   21.6895 H   0  0  0  0  0  0
  -26.0164  -38.2863   24.1437 H   0  0  0  0  0  0
  -30.2075  -20.4971   17.6607 H   0  0  0  0  0  0
  -30.7848  -18.3536   16.7498 H   0  0  0  0  0  0
  -29.2640  -18.5933   21.4471 H   0  0  0  0  0  0
  -29.3190  -23.5372   22.4931 H   0  0  0  0  0  0
  -27.7544  -23.0820   21.8619 H   0  0  0  0  0  0
  -28.5682  -20.8905   22.1019 H   0  0  0  0  0  0
  -30.2486  -21.4006   22.0025 H   0  0  0  0  0  0
  -31.3114  -23.5834   20.6031 H   0  0  0  0  0  0
  -30.6231  -25.1667   20.9317 H   0  0  0  0  0  0
  -30.8221  -24.6282   19.2729 H   0  0  0  0  0  0
  -27.1273  -24.5878   20.2100 H   0  0  0  0  0  0
  -28.0399  -24.8636   18.7629 H   0  0  0  0  0  0
  -28.9727  -15.7715   21.0438 H   0  0  0  0  0  0
  1 25  1  0  0  0
  1 30  2  0  0  0
  1 84  1  0  0  0
  2  3  1  0  0  0
  2 25  1  0  0  0
  2 87  1  0  0  0
  2 88  1  0  0  0
  3  4  1  0  0  0
  3 89  1  0  0  0
  3 90  1  0  0  0
  4  5  1  0  0  0
  4 91  1  0  0  0
  4 92  1  0  0  0
  5  6  1  0  0  0
  5 26  1  0  0  0
  5 93  1  0  0  0
  6 25  1  0  0  0
  6 94  1  0  0  0
  6 95  1  0  0  0
  7  8  2  0  0  0
  7 26  1  0  0  0
  7 29  1  0  0  0
  8  9  1  0  0  0
  8 22  1  0  0  0
  9 10  1  0  0  0
  9 27  2  0  0  0
 10 11  2  0  0  0
 10 15  1  0  0  0
 11 12  1  0  0  0
 11 96  1  0  0  0
 12 13  2  0  0  0
 12 97  1  0  0  0
 13 14  1  0  0  0
 13 31  1  0  0  0
 14 15  2  0  0  0
 14 98  1  0  0  0
 15 99  1  0  0  0
 16 17  2  0  0  0
 16 21  1  0  0  0
 16 31  1  0  0  0
 17 18  1  0  0  0
 17100  1  0  0  0
 18 19  2  0  0  0
 18101  1  0  0  0
 19 20  1  0  0  0
 19 24  1  0  0  0
 20 21  2  0  0  0
 20102  1  0  0  0
 21 23  1  0  0  0
 22 28  1  0  0  0
 22 32  2  0  0  0
 26 27  1  0  0  0
 28103  1  0  0  0
 28104  1  0  0  0
 29105  1  0  0  0
 29106  1  0  0  0
 33 34  1  0  0  0
 33 66  1  0  0  0
 33 70  2  0  0  0
 34 36  1  0  0  0
 34 59  1  0  0  0
 34107  1  0  0  0
 35 44  2  0  0  0
 35 45  1  0  0  0
 35 68  1  0  0  0
 36 56  1  0  0  0
 36108  1  0  0  0
 37 39  1  0  0  0
 37 47  1  0  0  0
 37 66  1  0  0  0
 37109  1  0  0  0
 38 43  2  0  0  0
 38 46  1  0  0  0
 38 47  1  0  0  0
 39 64  1  0  0  0
 39 67  2  0  0  0
 40 52  1  0  0  0
 40 53  2  0  0  0
 40 58  1  0  0  0
 41110  1  0  0  0
 41111  1  0  0  0
 41112  1  0  0  0
 41 48  1  0  0  0
 42 43  1  0  0  0
 42 66  1  0  0  0
 42113  1  0  0  0
 42114  1  0  0  0
 43 44  1  0  0  0
 44115  1  0  0  0
 45 46  2  0  0  0
 45116  1  0  0  0
 46117  1  0  0  0
 47118  1  0  0  0
 47119  1  0  0  0
 48 56  1  0  0  0
 48 65  1  0  0  0
 48120  1  0  0  0
 49 50  1  0  0  0
 49 53  1  0  0  0
 49 64  1  0  0  0
 49121  1  0  0  0
 50 51  1  0  0  0
 50122  1  0  0  0
 50123  1  0  0  0
 51 52  1  0  0  0
 51124  1  0  0  0
 51125  1  0  0  0
 52126  1  0  0  0
 52127  1  0  0  0
 53 54  1  0  0  0
 54 55  2  0  0  0
 54128  1  0  0  0
 55 57  1  0  0  0
 55129  1  0  0  0
 56 69  2  0  0  0
 57 58  2  0  0  0
 57130  1  0  0  0
 58131  1  0  0  0
 59 60  1  0  0  0
 59 61  1  0  0  0
 59 62  1  0  0  0
 60132  1  0  0  0
 60133  1  0  0  0
 60134  1  0  0  0
 61135  1  0  0  0
 61136  1  0  0  0
 61137  1  0  0  0
 62138  1  0  0  0
 62139  1  0  0  0
 62140  1  0  0  0
 63 65  1  0  0  0
 63141  1  0  0  0
 63142  1  0  0  0
 63143  1  0  0  0
 64144  1  0  0  0
 65145  1  0  0  0
 68 82  1  0  0  0
 71 72  2  0  0  0
 71 74  1  0  0  0
 71146  1  0  0  0
 72 76  1  0  0  0
 72147  1  0  0  0
 73 74  2  0  0  0
 73 75  1  0  0  0
 73148  1  0  0  0
 74 83  1  0  0  0
 75 76  2  0  0  0
 75 84  1  0  0  0
 76 86  1  0  0  0
 77 80  1  0  0  0
 77 83  1  0  0  0
 77 85  2  0  0  0
 78 79  1  0  0  0
 78 80  1  0  0  0
 78149  1  0  0  0
 78150  1  0  0  0
 79 83  1  0  0  0
 79151  1  0  0  0
 79152  1  0  0  0
 80 81  1  0  0  0
 80 82  1  0  0  0
 81153  1  0  0  0
 81154  1  0  0  0
 81155  1  0  0  0
 82156  1  0  0  0
 82157  1  0  0  0
 84158  1  0  0  0
M  ISO  4   1 100  68 101  82 101  84 100
M  END
> <chiral flag>
0

> <version>
0

> <s_m_source_file>
/data/baiqing/PycharmProjects/Reinvent-master-3.2/result/LINK_invent/BTK/process_docking_weight1_custom_product_contain_oxygen_bond_distance_aromatic_linkinvent_7_9_3/rearranged_h_0068.sdf

> <i_m_source_file_index>
70

> <r_mmod_Potential_Energy-OPLS-2005>
285.759857177734

> <r_mmod_Stretch_Energy-OPLS-2005>
139.275497436523

> <r_mmod_Bend_Energy-OPLS-2005>
191.412673950195

> <r_mmod_Torsional_Energy-OPLS-2005>
296.812408447266

> <r_mmod_Improper_Torsional_Energy-OPLS-2005>
4.93957567214966

> <r_mmod_Van_der_Waal_Energy-OPLS-2005>
147.520858764648

> <r_mmod_Electrostatic_Energy-OPLS-2005>
-364.627960205078

> <r_mmod_Solvation_Energy-OPLS-2005>
-221.108856201172

> <b_mmod_Minimization_Converged-OPLS-2005>
0

> <r_mmod_RMS_Derivative-OPLS-2005>
2.84266328811646

$$$$
70
                    3D
 Structure written by MMmdl.
154162  0  0  1  0            999 V2000
  -30.5171  -15.0504   20.3682 C   0  0  0  0  0  0
  -30.4360  -12.6544   19.5066 C   0  0  0  0  0  0
  -29.5232  -12.5449   18.2632 C   0  0  0  0  0  0
  -28.0640  -12.3048   18.6894 C   0  0  0  0  0  0
  -27.6222  -13.2589   19.8296 C   0  0  2  0  0  0
  -28.6625  -13.3463   20.9659 C   0  0  0  0  0  0
  -25.2436  -13.8236   20.5725 C   0  0  0  0  0  0
  -24.1762  -13.0444   20.9233 C   0  0  0  0  0  0
  -24.6390  -11.6933   20.8753 C   0  0  0  0  0  0
  -23.9079  -10.4299   21.0404 C   0  0  0  0  0  0
  -24.3624   -9.4211   21.9179 C   0  0  0  0  0  0
  -23.6294   -8.2251   22.0751 C   0  0  0  0  0  0
  -22.4277   -8.0291   21.3544 C   0  0  0  0  0  0
  -21.9908   -9.0267   20.4649 C   0  0  0  0  0  0
  -22.7248  -10.2140   20.3058 C   0  0  0  0  0  0
  -21.6856   -6.0736   22.5275 C   0  0  0  0  0  0
  -21.4023   -6.5635   23.8212 C   0  0  0  0  0  0
  -21.3661   -5.6786   24.9171 C   0  0  0  0  0  0
  -21.6043   -4.3050   24.7221 C   0  0  0  0  0  0
  -21.8819   -3.8146   23.4342 C   0  0  0  0  0  0
  -21.9194   -4.6961   22.3402 C   0  0  0  0  0  0
  -22.7781  -13.5212   21.1888 C   0  0  0  0  0  0
  -22.1659   -4.2148   21.0978 F   0  0  0  0  0  0
  -21.5622   -3.4535   25.7731 F   0  0  0  0  0  0
  -29.9259  -13.7783   20.3541 N   0  0  0  0  0  0
  -26.2856  -12.9483   20.3225 N   0  0  0  0  0  0
  -25.9325  -11.6604   20.5728 N   0  0  0  0  0  0
  -22.0433  -12.8207   22.0449 N   0  0  0  0  0  0
  -25.4090  -15.1968   20.4155 N   0  0  0  0  0  0
  -31.7362  -15.0553   20.1680 O   0  0  0  0  0  0
  -21.6645   -6.8886   21.4241 O   0  0  0  0  0  0
  -22.3469  -14.5516   20.6728 O   0  0  0  0  0  0
  -24.6509  -31.8381   23.1840 C   0  0  0  0  0  0
  -25.9249  -32.4667   23.8250 C   0  0  1  0  0  0
  -27.2095  -27.0668   20.1602 C   0  0  0  0  0  0
  -25.5966  -33.8474   24.2161 N   0  0  0  0  0  0
  -23.4577  -30.4573   21.5309 C   0  0  2  0  0  0
  -24.9068  -28.8732   20.1127 C   0  0  0  0  0  0
  -22.7607  -29.4520   22.4836 C   0  0  0  0  0  0
  -18.0317  -28.1402   22.8478 C   0  0  0  0  0  0
  -24.1493  -36.7245   23.2641 C   0  0  0  0  0  0
  -26.0198  -30.6892   21.3942 C   0  0  0  0  0  0
  -26.0887  -29.2939   20.7363 C   0  0  0  0  0  0
  -27.2418  -28.4092   20.7388 C   0  0  0  0  0  0
  -26.0026  -26.7707   19.4893 C   0  0  0  0  0  0
  -24.8811  -27.6274   19.4714 C   0  0  0  0  0  0
  -23.6889  -29.7858   20.1520 C   0  0  0  0  0  0
  -25.4126  -36.3015   24.0311 C   0  0  1  0  0  0
  -20.5933  -28.3736   23.1221 C   0  0  2  0  0  0
  -20.6801  -26.9430   22.5405 C   0  0  0  0  0  0
  -19.5771  -26.6381   21.5220 C   0  0  0  0  0  0
  -18.1954  -26.7939   22.1630 C   0  0  0  0  0  0
  -19.1575  -28.8889   23.2841 C   0  0  0  0  0  0
  -18.9484  -30.1483   23.8873 C   0  0  0  0  0  0
  -17.6477  -30.6596   24.0560 C   0  0  0  0  0  0
  -25.9085  -34.9392   23.5054 C   0  0  0  0  0  0
  -16.5373  -29.9087   23.6333 C   0  0  0  0  0  0
  -16.7299  -28.6505   23.0359 C   0  0  0  0  0  0
  -26.4538  -31.6556   25.0719 C   0  0  0  0  0  0
  -25.3698  -31.3781   26.1402 C   0  0  0  0  0  0
  -27.0397  -30.2932   24.6358 C   0  0  0  0  0  0
  -27.6066  -32.4326   25.7504 C   0  0  0  0  0  0
  -27.5581  -37.1773   24.8461 C   0  0  0  0  0  0
  -21.4290  -29.3049   22.3580 N   0  0  0  0  0  0
  -26.4283  -37.3735   23.9413 N   0  0  0  0  0  0
  -24.7299  -31.0178   22.0905 N   0  0  0  0  0  0
  -23.4219  -28.8072   23.3013 O   0  0  0  0  0  0
  -28.2344  -26.0275   20.2041 O   0  0  0  0  0  0
  -26.5682  -34.8898   22.4638 O   0  0  0  0  0  0
  -23.5611  -32.1288   23.7015 O   0  0  0  0  0  0
  -30.8913  -19.3735   18.3313 C   0  0  0  0  0  0
  -30.2841  -20.5157   18.8879 C   0  0  0  0  0  0
  -29.2552  -19.0306   20.4966 C   0  0  0  0  0  0
  -30.7017  -18.0524   18.8075 C   0  0  0  0  0  0
  -29.4019  -20.4485   19.9826 C   0  0  0  0  0  0
  -29.9203  -17.7718   19.9719 C   0  0  0  0  0  0
  -28.9309  -23.1991   20.1056 C   0  0  0  0  0  0
  -31.3173  -16.9686   17.9351 C   0  0  0  0  0  0
  -27.3959  -24.3886   21.8751 C   0  0  0  0  0  0
  -27.8850  -24.4885   20.4227 C   0  0  1  0  0  0
  -28.7033  -21.7930   20.3876 N   0  0  0  0  0  0
  -29.7486  -16.2788   20.4428 N   0  0  0  0  0  0
  -30.0009  -23.5275   19.5884 O   0  0  0  0  0  0
  -31.4676  -12.8145   19.1894 H   0  0  0  0  0  0
  -30.4420  -11.7193   20.0684 H   0  0  0  0  0  0
  -29.8617  -11.7391   17.6098 H   0  0  0  0  0  0
  -29.5883  -13.4645   17.6791 H   0  0  0  0  0  0
  -27.9892  -11.2707   19.0278 H   0  0  0  0  0  0
  -27.3961  -12.3967   17.8324 H   0  0  0  0  0  0
  -27.5668  -14.2464   19.3705 H   0  0  0  0  0  0
  -28.7738  -12.3900   21.4779 H   0  0  0  0  0  0
  -28.3453  -14.0683   21.7205 H   0  0  0  0  0  0
  -25.2764   -9.5682   22.4760 H   0  0  0  0  0  0
  -23.9998   -7.4638   22.7467 H   0  0  0  0  0  0
  -21.0838   -8.8796   19.8955 H   0  0  0  0  0  0
  -22.3709  -10.9680   19.6173 H   0  0  0  0  0  0
  -21.2025   -7.6142   23.9715 H   0  0  0  0  0  0
  -21.1478   -6.0514   25.9072 H   0  0  0  0  0  0
  -22.0596   -2.7605   23.2847 H   0  0  0  0  0  0
  -22.4051  -11.9882   22.4859 H   0  0  0  0  0  0
  -21.1054  -13.1242   22.2654 H   0  0  0  0  0  0
  -24.6364  -15.8453   20.5216 H   0  0  0  0  0  0
  -26.2502  -15.6396   20.0687 H   0  0  0  0  0  0
  -26.7317  -32.5246   23.0975 H   0  0  0  0  0  0
  -25.0067  -33.9568   25.0280 H   0  0  0  0  0  0
  -22.7640  -31.2859   21.3732 H   0  0  0  0  0  0
  -23.3759  -35.9573   23.3286 H   0  0  0  0  0  0
  -24.3579  -36.8896   22.2060 H   0  0  0  0  0  0
  -23.7248  -37.6433   23.6692 H   0  0  0  0  0  0
  -26.1863  -31.4384   20.6190 H   0  0  0  0  0  0
  -26.8863  -30.7396   22.0419 H   0  0  0  0  0  0
  -28.1409  -28.7269   21.2477 H   0  0  0  0  0  0
  -25.8926  -25.8285   18.9754 H   0  0  0  0  0  0
  -23.9828  -27.3036   18.9632 H   0  0  0  0  0  0
  -23.8364  -30.5601   19.3981 H   0  0  0  0  0  0
  -22.8004  -29.2365   19.8355 H   0  0  0  0  0  0
  -25.1315  -36.1835   25.0803 H   0  0  0  0  0  0
  -21.0029  -28.3338   24.1340 H   0  0  0  0  0  0
  -20.5703  -26.2349   23.3634 H   0  0  0  0  0  0
  -21.6666  -26.7435   22.1197 H   0  0  0  0  0  0
  -19.6928  -25.6284   21.1271 H   0  0  0  0  0  0
  -19.6701  -27.3176   20.6737 H   0  0  0  0  0  0
  -17.4219  -26.6683   21.4038 H   0  0  0  0  0  0
  -18.0348  -26.0093   22.9036 H   0  0  0  0  0  0
  -19.7958  -30.7309   24.2234 H   0  0  0  0  0  0
  -17.5028  -31.6274   24.5169 H   0  0  0  0  0  0
  -15.5369  -30.2981   23.7670 H   0  0  0  0  0  0
  -15.8700  -28.0814   22.7089 H   0  0  0  0  0  0
  -24.5865  -30.7147   25.7717 H   0  0  0  0  0  0
  -24.8902  -32.2977   26.4764 H   0  0  0  0  0  0
  -25.7948  -30.8981   27.0225 H   0  0  0  0  0  0
  -26.3022  -29.6648   24.1350 H   0  0  0  0  0  0
  -27.3954  -29.7253   25.4966 H   0  0  0  0  0  0
  -27.8963  -30.4138   23.9722 H   0  0  0  0  0  0
  -27.2660  -33.3647   26.2027 H   0  0  0  0  0  0
  -28.3901  -32.6854   25.0347 H   0  0  0  0  0  0
  -28.0708  -31.8487   26.5463 H   0  0  0  0  0  0
  -28.2579  -38.0086   24.7523 H   0  0  0  0  0  0
  -28.1093  -36.2618   24.6263 H   0  0  0  0  0  0
  -27.2302  -37.1396   25.8863 H   0  0  0  0  0  0
  -20.9518  -29.8746   21.6732 H   0  0  0  0  0  0
  -26.0148  -38.2799   24.1419 H   0  0  0  0  0  0
  -31.5049  -19.5292   17.4543 H   0  0  0  0  0  0
  -30.4780  -21.4585   18.3990 H   0  0  0  0  0  0
  -28.5875  -18.8980   21.3353 H   0  0  0  0  0  0
  -31.4982  -17.3318   16.9228 H   0  0  0  0  0  0
  -30.6548  -16.1104   17.8302 H   0  0  0  0  0  0
  -32.2803  -16.6506   18.3319 H   0  0  0  0  0  0
  -27.1016  -23.3722   22.1354 H   0  0  0  0  0  0
  -26.5278  -25.0263   22.0405 H   0  0  0  0  0  0
  -28.1756  -24.6997   22.5703 H   0  0  0  0  0  0
  -27.0369  -24.2556   19.7826 H   0  0  0  0  0  0
  -27.8605  -21.6573   20.9295 H   0  0  0  0  0  0
  -28.8248  -16.0941   20.8044 H   0  0  0  0  0  0
  1 25  1  0  0  0
  1 30  2  0  0  0
  1 82  1  0  0  0
  2  3  1  0  0  0
  2 25  1  0  0  0
  2 84  1  0  0  0
  2 85  1  0  0  0
  3  4  1  0  0  0
  3 86  1  0  0  0
  3 87  1  0  0  0
  4  5  1  0  0  0
  4 88  1  0  0  0
  4 89  1  0  0  0
  5  6  1  0  0  0
  5 26  1  0  0  0
  5 90  1  0  0  0
  6 25  1  0  0  0
  6 91  1  0  0  0
  6 92  1  0  0  0
  7  8  2  0  0  0
  7 26  1  0  0  0
  7 29  1  0  0  0
  8  9  1  0  0  0
  8 22  1  0  0  0
  9 10  1  0  0  0
  9 27  2  0  0  0
 10 11  2  0  0  0
 10 15  1  0  0  0
 11 12  1  0  0  0
 11 93  1  0  0  0
 12 13  2  0  0  0
 12 94  1  0  0  0
 13 14  1  0  0  0
 13 31  1  0  0  0
 14 15  2  0  0  0
 14 95  1  0  0  0
 15 96  1  0  0  0
 16 17  2  0  0  0
 16 21  1  0  0  0
 16 31  1  0  0  0
 17 18  1  0  0  0
 17 97  1  0  0  0
 18 19  2  0  0  0
 18 98  1  0  0  0
 19 20  1  0  0  0
 19 24  1  0  0  0
 20 21  2  0  0  0
 20 99  1  0  0  0
 21 23  1  0  0  0
 22 28  1  0  0  0
 22 32  2  0  0  0
 26 27  1  0  0  0
 28100  1  0  0  0
 28101  1  0  0  0
 29102  1  0  0  0
 29103  1  0  0  0
 33 34  1  0  0  0
 33 66  1  0  0  0
 33 70  2  0  0  0
 34 36  1  0  0  0
 34 59  1  0  0  0
 34104  1  0  0  0
 35 44  2  0  0  0
 35 45  1  0  0  0
 35 68  1  0  0  0
 36 56  1  0  0  0
 36105  1  0  0  0
 37 39  1  0  0  0
 37 47  1  0  0  0
 37 66  1  0  0  0
 37106  1  0  0  0
 38 43  2  0  0  0
 38 46  1  0  0  0
 38 47  1  0  0  0
 39 64  1  0  0  0
 39 67  2  0  0  0
 40 52  1  0  0  0
 40 53  2  0  0  0
 40 58  1  0  0  0
 41107  1  0  0  0
 41108  1  0  0  0
 41109  1  0  0  0
 41 48  1  0  0  0
 42 43  1  0  0  0
 42 66  1  0  0  0
 42110  1  0  0  0
 42111  1  0  0  0
 43 44  1  0  0  0
 44112  1  0  0  0
 45 46  2  0  0  0
 45113  1  0  0  0
 46114  1  0  0  0
 47115  1  0  0  0
 47116  1  0  0  0
 48 56  1  0  0  0
 48 65  1  0  0  0
 48117  1  0  0  0
 49 50  1  0  0  0
 49 53  1  0  0  0
 49 64  1  0  0  0
 49118  1  0  0  0
 50 51  1  0  0  0
 50119  1  0  0  0
 50120  1  0  0  0
 51 52  1  0  0  0
 51121  1  0  0  0
 51122  1  0  0  0
 52123  1  0  0  0
 52124  1  0  0  0
 53 54  1  0  0  0
 54 55  2  0  0  0
 54125  1  0  0  0
 55 57  1  0  0  0
 55126  1  0  0  0
 56 69  2  0  0  0
 57 58  2  0  0  0
 57127  1  0  0  0
 58128  1  0  0  0
 59 60  1  0  0  0
 59 61  1  0  0  0
 59 62  1  0  0  0
 60129  1  0  0  0
 60130  1  0  0  0
 60131  1  0  0  0
 61132  1  0  0  0
 61133  1  0  0  0
 61134  1  0  0  0
 62135  1  0  0  0
 62136  1  0  0  0
 62137  1  0  0  0
 63 65  1  0  0  0
 63138  1  0  0  0
 63139  1  0  0  0
 63140  1  0  0  0
 64141  1  0  0  0
 65142  1  0  0  0
 68 80  1  0  0  0
 71 72  2  0  0  0
 71 74  1  0  0  0
 71143  1  0  0  0
 72 75  1  0  0  0
 72144  1  0  0  0
 73 75  2  0  0  0
 73 76  1  0  0  0
 73145  1  0  0  0
 74 76  2  0  0  0
 74 78  1  0  0  0
 75 81  1  0  0  0
 76 82  1  0  0  0
 77 80  1  0  0  0
 77 81  1  0  0  0
 77 83  2  0  0  0
 78146  1  0  0  0
 78147  1  0  0  0
 78148  1  0  0  0
 79149  1  0  0  0
 79150  1  0  0  0
 79151  1  0  0  0
 79 80  1  0  0  0
 80152  1  0  0  0
 81153  1  0  0  0
 82154  1  0  0  0
M  ISO  4   1 100  68 101  80 101  82 100
M  END
> <chiral flag>
0

> <version>
0

> <s_m_source_file>
/data/baiqing/PycharmProjects/Reinvent-master-3.2/result/LINK_invent/BTK/process_docking_weight1_custom_product_contain_oxygen_bond_distance_aromatic_linkinvent_7_9_3/rearranged_h_0068.sdf

> <i_m_source_file_index>
71

> <r_mmod_Potential_Energy-OPLS-2005>
674.295593261719

> <r_mmod_Stretch_Energy-OPLS-2005>
353.799163818359

> <r_mmod_Bend_Energy-OPLS-2005>
279.745544433594

> <r_mmod_Torsional_Energy-OPLS-2005>
255.448867797852

> <r_mmod_Improper_Torsional_Energy-OPLS-2005>
4.30113458633423

> <r_mmod_Van_der_Waal_Energy-OPLS-2005>
138.283020019531

> <r_mmod_Electrostatic_Energy-OPLS-2005>
-383.891418457031

> <r_mmod_Solvation_Energy-OPLS-2005>
-240.500396728516

> <b_mmod_Minimization_Converged-OPLS-2005>
0

> <r_mmod_RMS_Derivative-OPLS-2005>
1.18307328224182

$$$$
71
                    3D
 Structure written by MMmdl.
154162  0  0  1  0            999 V2000
  -30.6699  -14.7433   20.4160 C   0  0  0  0  0  0
  -30.4223  -12.4510   19.4740 C   0  0  0  0  0  0
  -29.5060  -12.4969   18.2336 C   0  0  0  0  0  0
  -28.0334  -12.3281   18.6516 C   0  0  0  0  0  0
  -27.6399  -13.2431   19.8422 C   0  0  2  0  0  0
  -28.6906  -13.2209   20.9746 C   0  0  0  0  0  0
  -25.2506  -13.8228   20.5708 C   0  0  0  0  0  0
  -24.1811  -13.0457   20.9221 C   0  0  0  0  0  0
  -24.6428  -11.6935   20.8773 C   0  0  0  0  0  0
  -23.9105  -10.4294   21.0415 C   0  0  0  0  0  0
  -24.3644   -9.4205   21.9196 C   0  0  0  0  0  0
  -23.6308   -8.2243   22.0758 C   0  0  0  0  0  0
  -22.4289   -8.0291   21.3554 C   0  0  0  0  0  0
  -21.9937   -9.0263   20.4650 C   0  0  0  0  0  0
  -22.7275  -10.2140   20.3060 C   0  0  0  0  0  0
  -21.6857   -6.0750   22.5283 C   0  0  0  0  0  0
  -21.4016   -6.5657   23.8216 C   0  0  0  0  0  0
  -21.3658   -5.6801   24.9177 C   0  0  0  0  0  0
  -21.6044   -4.3060   24.7223 C   0  0  0  0  0  0
  -21.8820   -3.8163   23.4339 C   0  0  0  0  0  0
  -21.9188   -4.6978   22.3399 C   0  0  0  0  0  0
  -22.7823  -13.5218   21.1876 C   0  0  0  0  0  0
  -22.1662   -4.2163   21.0978 F   0  0  0  0  0  0
  -21.5622   -3.4544   25.7739 F   0  0  0  0  0  0
  -29.9914  -13.5445   20.3767 N   0  0  0  0  0  0
  -26.2950  -12.9463   20.3288 N   0  0  0  0  0  0
  -25.9371  -11.6597   20.5779 N   0  0  0  0  0  0
  -22.0470  -12.8188   22.0420 N   0  0  0  0  0  0
  -25.4182  -15.1948   20.4113 N   0  0  0  0  0  0
  -31.8769  -14.7370   20.1764 O   0  0  0  0  0  0
  -21.6654   -6.8895   21.4248 O   0  0  0  0  0  0
  -22.3497  -14.5520   20.6723 O   0  0  0  0  0  0
  -24.6317  -31.8553   23.1990 C   0  0  0  0  0  0
  -25.9141  -32.4738   23.8335 C   0  0  1  0  0  0
  -27.2174  -27.2688   20.1233 C   0  0  0  0  0  0
  -25.5943  -33.8548   24.2267 N   0  0  0  0  0  0
  -23.4255  -30.4802   21.5430 C   0  0  2  0  0  0
  -24.8711  -28.9328   20.1060 C   0  0  0  0  0  0
  -22.7512  -29.4588   22.4912 C   0  0  0  0  0  0
  -18.0299  -28.1382   22.8482 C   0  0  0  0  0  0
  -24.1485  -36.7283   23.2641 C   0  0  0  0  0  0
  -25.9722  -30.7684   21.3795 C   0  0  0  0  0  0
  -26.0401  -29.3930   20.7225 C   0  0  0  0  0  0
  -27.2108  -28.5700   20.7273 C   0  0  0  0  0  0
  -26.0286  -26.8894   19.4524 C   0  0  0  0  0  0
  -24.8709  -27.6884   19.4613 C   0  0  0  0  0  0
  -23.6415  -29.8181   20.1578 C   0  0  0  0  0  0
  -25.4104  -36.3069   24.0335 C   0  0  1  0  0  0
  -20.5901  -28.3678   23.1281 C   0  0  2  0  0  0
  -20.6780  -26.9396   22.5427 C   0  0  0  0  0  0
  -19.5753  -26.6378   21.5229 C   0  0  0  0  0  0
  -18.1931  -26.7925   22.1636 C   0  0  0  0  0  0
  -19.1553  -28.8850   23.2870 C   0  0  0  0  0  0
  -18.9475  -30.1462   23.8876 C   0  0  0  0  0  0
  -17.6464  -30.6573   24.0565 C   0  0  0  0  0  0
  -25.9056  -34.9436   23.5103 C   0  0  0  0  0  0
  -16.5353  -29.9071   23.6332 C   0  0  0  0  0  0
  -16.7287  -28.6494   23.0341 C   0  0  0  0  0  0
  -26.4511  -31.6571   25.0728 C   0  0  0  0  0  0
  -25.3738  -31.3744   26.1453 C   0  0  0  0  0  0
  -27.0352  -30.2977   24.6205 C   0  0  0  0  0  0
  -27.6054  -32.4328   25.7494 C   0  0  0  0  0  0
  -27.5575  -37.1792   24.8467 C   0  0  0  0  0  0
  -21.4214  -29.3037   22.3677 N   0  0  0  0  0  0
  -26.4275  -37.3775   23.9413 N   0  0  0  0  0  0
  -24.6962  -31.0535   22.0961 N   0  0  0  0  0  0
  -23.4221  -28.8131   23.3005 O   0  0  0  0  0  0
  -28.3208  -26.3867   20.2193 O   0  0  0  0  0  0
  -26.5629  -34.8904   22.4674 O   0  0  0  0  0  0
  -23.5469  -32.1377   23.7299 O   0  0  0  0  0  0
  -32.0504  -18.8485   19.1404 C   0  0  0  0  0  0
  -31.5532  -17.5607   19.4058 C   0  0  0  0  0  0
  -29.6801  -18.5636   20.5712 C   0  0  0  0  0  0
  -31.3941  -20.0098   19.5922 C   0  0  0  0  0  0
  -30.3913  -17.3457   20.1888 C   0  0  0  0  0  0
  -30.1305  -19.9175   20.2465 C   0  0  0  0  0  0
  -29.2005  -22.3326   19.9536 C   0  0  0  0  0  0
  -32.1377  -21.3282   19.4033 C   0  0  0  0  0  0
  -28.9361  -23.7478   20.6542 C   0  0  0  0  0  0
  -28.2190  -24.9372   19.8242 C   0  0  0  0  0  0
  -29.4441  -21.1683   20.6704 N   0  0  0  0  0  0
  -29.9686  -15.9455   20.5181 N   0  0  0  0  0  0
  -29.1770  -22.2979   18.7210 O   0  0  0  0  0  0
  -31.4650  -12.5418   19.1669 H   0  0  0  0  0  0
  -30.3446  -11.4863   19.9784 H   0  0  0  0  0  0
  -29.7846  -11.7156   17.5259 H   0  0  0  0  0  0
  -29.6359  -13.4461   17.7099 H   0  0  0  0  0  0
  -27.8908  -11.2826   18.9275 H   0  0  0  0  0  0
  -27.3743  -12.5103   17.8019 H   0  0  0  0  0  0
  -27.6205  -14.2569   19.4408 H   0  0  0  0  0  0
  -28.7257  -12.2452   21.4601 H   0  0  0  0  0  0
  -28.4348  -13.9447   21.7501 H   0  0  0  0  0  0
  -25.2788   -9.5679   22.4777 H   0  0  0  0  0  0
  -24.0018   -7.4637   22.7476 H   0  0  0  0  0  0
  -21.0873   -8.8794   19.8947 H   0  0  0  0  0  0
  -22.3745  -10.9688   19.6168 H   0  0  0  0  0  0
  -21.2017   -7.6163   23.9724 H   0  0  0  0  0  0
  -21.1479   -6.0534   25.9079 H   0  0  0  0  0  0
  -22.0596   -2.7624   23.2840 H   0  0  0  0  0  0
  -22.4094  -11.9845   22.4797 H   0  0  0  0  0  0
  -21.1086  -13.1201   22.2632 H   0  0  0  0  0  0
  -24.6490  -15.8474   20.5122 H   0  0  0  0  0  0
  -26.2649  -15.6328   20.0732 H   0  0  0  0  0  0
  -26.7193  -32.5372   23.1062 H   0  0  0  0  0  0
  -25.0106  -33.9688   25.0423 H   0  0  0  0  0  0
  -22.7217  -31.3028   21.3999 H   0  0  0  0  0  0
  -23.3740  -35.9630   23.3314 H   0  0  0  0  0  0
  -24.3589  -36.8898   22.2061 H   0  0  0  0  0  0
  -23.7245  -37.6492   23.6652 H   0  0  0  0  0  0
  -26.1149  -31.5251   20.6076 H   0  0  0  0  0  0
  -26.8511  -30.8153   22.0107 H   0  0  0  0  0  0
  -28.1007  -28.9122   21.2354 H   0  0  0  0  0  0
  -25.9498  -25.9601   18.9108 H   0  0  0  0  0  0
  -23.9786  -27.3391   18.9590 H   0  0  0  0  0  0
  -23.7633  -30.5959   19.4039 H   0  0  0  0  0  0
  -22.7569  -29.2540   19.8526 H   0  0  0  0  0  0
  -25.1282  -36.1919   25.0830 H   0  0  0  0  0  0
  -20.9993  -28.3243   24.1398 H   0  0  0  0  0  0
  -20.5697  -26.2279   23.3623 H   0  0  0  0  0  0
  -21.6634  -26.7418   22.1196 H   0  0  0  0  0  0
  -19.6900  -25.6302   21.1232 H   0  0  0  0  0  0
  -19.6674  -27.3209   20.6781 H   0  0  0  0  0  0
  -17.4206  -26.6701   21.4022 H   0  0  0  0  0  0
  -18.0284  -26.0069   22.9030 H   0  0  0  0  0  0
  -19.7954  -30.7300   24.2198 H   0  0  0  0  0  0
  -17.5022  -31.6245   24.5190 H   0  0  0  0  0  0
  -15.5356  -30.2967   23.7666 H   0  0  0  0  0  0
  -15.8695  -28.0825   22.7034 H   0  0  0  0  0  0
  -24.5901  -30.7081   25.7829 H   0  0  0  0  0  0
  -24.8919  -32.2928   26.4832 H   0  0  0  0  0  0
  -25.8056  -30.8982   27.0262 H   0  0  0  0  0  0
  -26.2930  -29.6720   24.1220 H   0  0  0  0  0  0
  -27.4050  -29.7244   25.4723 H   0  0  0  0  0  0
  -27.8811  -30.4276   23.9441 H   0  0  0  0  0  0
  -27.2641  -33.3653   26.2015 H   0  0  0  0  0  0
  -28.3880  -32.6855   25.0323 H   0  0  0  0  0  0
  -28.0692  -31.8486   26.5458 H   0  0  0  0  0  0
  -28.2592  -38.0091   24.7518 H   0  0  0  0  0  0
  -28.1075  -36.2624   24.6278 H   0  0  0  0  0  0
  -27.2311  -37.1435   25.8879 H   0  0  0  0  0  0
  -20.9399  -29.8780   21.6903 H   0  0  0  0  0  0
  -26.0155  -38.2853   24.1411 H   0  0  0  0  0  0
  -32.9832  -18.9376   18.5992 H   0  0  0  0  0  0
  -32.1266  -16.7444   18.9978 H   0  0  0  0  0  0
  -28.7648  -18.4616   21.1380 H   0  0  0  0  0  0
  -33.2131  -21.1641   19.3234 H   0  0  0  0  0  0
  -31.9973  -21.9937   20.2552 H   0  0  0  0  0  0
  -31.8145  -21.8390   18.4973 H   0  0  0  0  0  0
  -29.9124  -24.1091   20.9767 H   0  0  0  0  0  0
  -28.3724  -23.5735   21.5700 H   0  0  0  0  0  0
  -27.1805  -24.6180   19.8029 H   0  0  0  0  0  0
  -28.5597  -24.8944   18.7896 H   0  0  0  0  0  0
  -29.2228  -21.2216   21.6567 H   0  0  0  0  0  0
  -29.0012  -15.8383   20.7811 H   0  0  0  0  0  0
  1 25  1  0  0  0
  1 30  2  0  0  0
  1 82  1  0  0  0
  2  3  1  0  0  0
  2 25  1  0  0  0
  2 84  1  0  0  0
  2 85  1  0  0  0
  3  4  1  0  0  0
  3 86  1  0  0  0
  3 87  1  0  0  0
  4  5  1  0  0  0
  4 88  1  0  0  0
  4 89  1  0  0  0
  5  6  1  0  0  0
  5 26  1  0  0  0
  5 90  1  0  0  0
  6 25  1  0  0  0
  6 91  1  0  0  0
  6 92  1  0  0  0
  7  8  2  0  0  0
  7 26  1  0  0  0
  7 29  1  0  0  0
  8  9  1  0  0  0
  8 22  1  0  0  0
  9 10  1  0  0  0
  9 27  2  0  0  0
 10 11  2  0  0  0
 10 15  1  0  0  0
 11 12  1  0  0  0
 11 93  1  0  0  0
 12 13  2  0  0  0
 12 94  1  0  0  0
 13 14  1  0  0  0
 13 31  1  0  0  0
 14 15  2  0  0  0
 14 95  1  0  0  0
 15 96  1  0  0  0
 16 17  2  0  0  0
 16 21  1  0  0  0
 16 31  1  0  0  0
 17 18  1  0  0  0
 17 97  1  0  0  0
 18 19  2  0  0  0
 18 98  1  0  0  0
 19 20  1  0  0  0
 19 24  1  0  0  0
 20 21  2  0  0  0
 20 99  1  0  0  0
 21 23  1  0  0  0
 22 28  1  0  0  0
 22 32  2  0  0  0
 26 27  1  0  0  0
 28100  1  0  0  0
 28101  1  0  0  0
 29102  1  0  0  0
 29103  1  0  0  0
 33 34  1  0  0  0
 33 66  1  0  0  0
 33 70  2  0  0  0
 34 36  1  0  0  0
 34 59  1  0  0  0
 34104  1  0  0  0
 35 44  2  0  0  0
 35 45  1  0  0  0
 35 68  1  0  0  0
 36 56  1  0  0  0
 36105  1  0  0  0
 37 39  1  0  0  0
 37 47  1  0  0  0
 37 66  1  0  0  0
 37106  1  0  0  0
 38 43  2  0  0  0
 38 46  1  0  0  0
 38 47  1  0  0  0
 39 64  1  0  0  0
 39 67  2  0  0  0
 40 52  1  0  0  0
 40 53  2  0  0  0
 40 58  1  0  0  0
 41107  1  0  0  0
 41108  1  0  0  0
 41109  1  0  0  0
 41 48  1  0  0  0
 42 43  1  0  0  0
 42 66  1  0  0  0
 42110  1  0  0  0
 42111  1  0  0  0
 43 44  1  0  0  0
 44112  1  0  0  0
 45 46  2  0  0  0
 45113  1  0  0  0
 46114  1  0  0  0
 47115  1  0  0  0
 47116  1  0  0  0
 48 56  1  0  0  0
 48 65  1  0  0  0
 48117  1  0  0  0
 49 50  1  0  0  0
 49 53  1  0  0  0
 49 64  1  0  0  0
 49118  1  0  0  0
 50 51  1  0  0  0
 50119  1  0  0  0
 50120  1  0  0  0
 51 52  1  0  0  0
 51121  1  0  0  0
 51122  1  0  0  0
 52123  1  0  0  0
 52124  1  0  0  0
 53 54  1  0  0  0
 54 55  2  0  0  0
 54125  1  0  0  0
 55 57  1  0  0  0
 55126  1  0  0  0
 56 69  2  0  0  0
 57 58  2  0  0  0
 57127  1  0  0  0
 58128  1  0  0  0
 59 60  1  0  0  0
 59 61  1  0  0  0
 59 62  1  0  0  0
 60129  1  0  0  0
 60130  1  0  0  0
 60131  1  0  0  0
 61132  1  0  0  0
 61133  1  0  0  0
 61134  1  0  0  0
 62135  1  0  0  0
 62136  1  0  0  0
 62137  1  0  0  0
 63 65  1  0  0  0
 63138  1  0  0  0
 63139  1  0  0  0
 63140  1  0  0  0
 64141  1  0  0  0
 65142  1  0  0  0
 68 80  1  0  0  0
 71 72  2  0  0  0
 71 74  1  0  0  0
 71143  1  0  0  0
 72 75  1  0  0  0
 72144  1  0  0  0
 73 75  2  0  0  0
 73 76  1  0  0  0
 73145  1  0  0  0
 74 76  2  0  0  0
 74 78  1  0  0  0
 75 82  1  0  0  0
 76 81  1  0  0  0
 77 79  1  0  0  0
 77 81  1  0  0  0
 77 83  2  0  0  0
 78146  1  0  0  0
 78147  1  0  0  0
 78148  1  0  0  0
 79 80  1  0  0  0
 79149  1  0  0  0
 79150  1  0  0  0
 80151  1  0  0  0
 80152  1  0  0  0
 81153  1  0  0  0
 82154  1  0  0  0
M  ISO  4   1 100  68 101  80 101  82 100
M  END
> <chiral flag>
0

> <version>
0

> <s_m_source_file>
/data/baiqing/PycharmProjects/Reinvent-master-3.2/result/LINK_invent/BTK/process_docking_weight1_custom_product_contain_oxygen_bond_distance_aromatic_linkinvent_7_9_3/rearranged_h_0068.sdf

> <i_m_source_file_index>
72

> <r_mmod_Potential_Energy-OPLS-2005>
157.177947998047

> <r_mmod_Stretch_Energy-OPLS-2005>
127.791641235352

> <r_mmod_Bend_Energy-OPLS-2005>
164.056900024414

> <r_mmod_Torsional_Energy-OPLS-2005>
252.723739624023

> <r_mmod_Improper_Torsional_Energy-OPLS-2005>
5.17714500427246

> <r_mmod_Van_der_Waal_Energy-OPLS-2005>
155.772583007812

> <r_mmod_Electrostatic_Energy-OPLS-2005>
-403.130828857422

> <r_mmod_Solvation_Energy-OPLS-2005>
-234.143692016602

> <b_mmod_Minimization_Converged-OPLS-2005>
0

> <r_mmod_RMS_Derivative-OPLS-2005>
2.58430528640747

$$$$
72
                    3D
 Structure written by MMmdl.
165174  0  0  1  0            999 V2000
  -30.6276  -14.7453   20.4583 C   0  0  0  0  0  0
  -30.4169  -12.4568   19.4851 C   0  0  0  0  0  0
  -29.4996  -12.5019   18.2453 C   0  0  0  0  0  0
  -28.0311  -12.3171   18.6653 C   0  0  0  0  0  0
  -27.6333  -13.2334   19.8518 C   0  0  2  0  0  0
  -28.6733  -13.1936   20.9918 C   0  0  0  0  0  0
  -25.2464  -13.8207   20.5694 C   0  0  0  0  0  0
  -24.1756  -13.0431   20.9197 C   0  0  0  0  0  0
  -24.6365  -11.6925   20.8773 C   0  0  0  0  0  0
  -23.9049  -10.4294   21.0428 C   0  0  0  0  0  0
  -24.3603   -9.4210   21.9206 C   0  0  0  0  0  0
  -23.6279   -8.2240   22.0769 C   0  0  0  0  0  0
  -22.4269   -8.0279   21.3546 C   0  0  0  0  0  0
  -21.9909   -9.0250   20.4644 C   0  0  0  0  0  0
  -22.7230  -10.2135   20.3065 C   0  0  0  0  0  0
  -21.6855   -6.0730   22.5266 C   0  0  0  0  0  0
  -21.4020   -6.5639   23.8205 C   0  0  0  0  0  0
  -21.3658   -5.6795   24.9168 C   0  0  0  0  0  0
  -21.6040   -4.3058   24.7224 C   0  0  0  0  0  0
  -21.8817   -3.8141   23.4348 C   0  0  0  0  0  0
  -21.9193   -4.6957   22.3396 C   0  0  0  0  0  0
  -22.7789  -13.5226   21.1836 C   0  0  0  0  0  0
  -22.1663   -4.2137   21.0977 F   0  0  0  0  0  0
  -21.5623   -3.4540   25.7742 F   0  0  0  0  0  0
  -29.9751  -13.5334   20.4067 N   0  0  0  0  0  0
  -26.2878  -12.9410   20.3303 N   0  0  0  0  0  0
  -25.9288  -11.6551   20.5780 N   0  0  0  0  0  0
  -22.0438  -12.8224   22.0409 N   0  0  0  0  0  0
  -25.4174  -15.1921   20.4090 N   0  0  0  0  0  0
  -31.8272  -14.7612   20.1762 O   0  0  0  0  0  0
  -21.6643   -6.8875   21.4227 O   0  0  0  0  0  0
  -22.3481  -14.5527   20.6681 O   0  0  0  0  0  0
  -24.6291  -31.8580   23.1995 C   0  0  0  0  0  0
  -25.9145  -32.4748   23.8313 C   0  0  1  0  0  0
  -27.1987  -27.2577   20.1594 C   0  0  0  0  0  0
  -25.5939  -33.8545   24.2218 N   0  0  0  0  0  0
  -23.4231  -30.4785   21.5453 C   0  0  2  0  0  0
  -24.8696  -28.9238   20.1141 C   0  0  0  0  0  0
  -22.7502  -29.4585   22.4952 C   0  0  0  0  0  0
  -18.0279  -28.1374   22.8485 C   0  0  0  0  0  0
  -24.1503  -36.7274   23.2641 C   0  0  0  0  0  0
  -25.9659  -30.7730   21.3766 C   0  0  0  0  0  0
  -26.0402  -29.3936   20.7220 C   0  0  0  0  0  0
  -27.2136  -28.5743   20.7303 C   0  0  0  0  0  0
  -26.0100  -26.8475   19.5240 C   0  0  0  0  0  0
  -24.8574  -27.6584   19.5049 C   0  0  0  0  0  0
  -23.6430  -29.8158   20.1603 C   0  0  0  0  0  0
  -25.4124  -36.3049   24.0308 C   0  0  1  0  0  0
  -20.5884  -28.3679   23.1281 C   0  0  2  0  0  0
  -20.6782  -26.9403   22.5417 C   0  0  0  0  0  0
  -19.5758  -26.6374   21.5213 C   0  0  0  0  0  0
  -18.1924  -26.7910   22.1620 C   0  0  0  0  0  0
  -19.1539  -28.8844   23.2865 C   0  0  0  0  0  0
  -18.9477  -30.1458   23.8877 C   0  0  0  0  0  0
  -17.6480  -30.6594   24.0558 C   0  0  0  0  0  0
  -25.9073  -34.9429   23.5063 C   0  0  0  0  0  0
  -16.5367  -29.9095   23.6341 C   0  0  0  0  0  0
  -16.7270  -28.6509   23.0355 C   0  0  0  0  0  0
  -26.4527  -31.6568   25.0696 C   0  0  0  0  0  0
  -25.3727  -31.3696   26.1394 C   0  0  0  0  0  0
  -27.0416  -30.2996   24.6172 C   0  0  0  0  0  0
  -27.6065  -32.4318   25.7497 C   0  0  0  0  0  0
  -27.5572  -37.1788   24.8461 C   0  0  0  0  0  0
  -21.4210  -29.3027   22.3691 N   0  0  0  0  0  0
  -26.4296  -37.3749   23.9388 N   0  0  0  0  0  0
  -24.6914  -31.0556   22.0967 N   0  0  0  0  0  0
  -23.4228  -28.8122   23.3028 O   0  0  0  0  0  0
  -28.2749  -26.3476   20.1780 O   0  0  0  0  0  0
  -26.5675  -34.8921   22.4651 O   0  0  0  0  0  0
  -23.5450  -32.1418   23.7322 O   0  0  0  0  0  0
  -31.8166  -18.9472   19.3187 C   0  0  0  0  0  0
  -31.4723  -17.6498   19.7089 C   0  0  0  0  0  0
  -29.3790  -18.5218   20.5412 C   0  0  0  0  0  0
  -30.9746  -20.0582   19.5126 C   0  0  0  0  0  0
  -29.7142  -19.9145   20.1813 C   0  0  0  0  0  0
  -30.2345  -17.3540   20.3161 C   0  0  0  0  0  0
  -27.8046  -21.1998   21.3052 C   0  0  0  0  0  0
  -32.7262  -21.8058   19.2245 C   0  0  0  0  0  0
  -31.5157  -21.2990   18.9369 C   0  0  0  0  0  0
  -29.1368  -22.5910   20.0868 C   0  0  0  0  0  0
  -27.2908  -22.6416   21.5599 C   0  0  1  0  0  0
  -27.9418  -23.5570   20.4907 C   0  0  1  0  0  0
  -25.2492  -23.3482   22.9827 C   0  0  0  0  0  0
  -25.7401  -22.7497   21.6568 C   0  0  0  0  0  0
  -28.1521  -25.0966   20.9991 C   0  0  0  0  0  0
  -28.8727  -21.1428   20.4794 N   0  0  0  0  0  0
  -29.8979  -15.9256   20.6405 N   0  0  0  0  0  0
  -27.2592  -20.2328   21.8469 O   0  0  0  0  0  0
  -31.4571  -12.5675   19.1767 H   0  0  0  0  0  0
  -30.3583  -11.4868   19.9808 H   0  0  0  0  0  0
  -29.7853  -11.7274   17.5316 H   0  0  0  0  0  0
  -29.6141  -13.4569   17.7303 H   0  0  0  0  0  0
  -27.9015  -11.2710   18.9489 H   0  0  0  0  0  0
  -27.3666  -12.4829   17.8169 H   0  0  0  0  0  0
  -27.6241  -14.2483   19.4539 H   0  0  0  0  0  0
  -28.7026  -12.2085   21.4571 H   0  0  0  0  0  0
  -28.4030  -13.8983   21.7807 H   0  0  0  0  0  0
  -25.2740   -9.5696   22.4797 H   0  0  0  0  0  0
  -23.9978   -7.4648   22.7515 H   0  0  0  0  0  0
  -21.0838   -8.8762   19.8958 H   0  0  0  0  0  0
  -22.3677  -10.9673   19.6177 H   0  0  0  0  0  0
  -21.2023   -7.6150   23.9697 H   0  0  0  0  0  0
  -21.1479   -6.0536   25.9072 H   0  0  0  0  0  0
  -22.0598   -2.7602   23.2850 H   0  0  0  0  0  0
  -22.4078  -11.9881   22.4769 H   0  0  0  0  0  0
  -21.1057  -13.1254   22.2636 H   0  0  0  0  0  0
  -24.6448  -15.8433   20.5014 H   0  0  0  0  0  0
  -26.2649  -15.6272   20.0666 H   0  0  0  0  0  0
  -26.7192  -32.5420   23.1039 H   0  0  0  0  0  0
  -25.0020  -33.9676   25.0320 H   0  0  0  0  0  0
  -22.7149  -31.2976   21.4039 H   0  0  0  0  0  0
  -23.3783  -35.9601   23.3309 H   0  0  0  0  0  0
  -24.3571  -36.8914   22.2055 H   0  0  0  0  0  0
  -23.7268  -37.6463   23.6706 H   0  0  0  0  0  0
  -26.1016  -31.5412   20.6142 H   0  0  0  0  0  0
  -26.8387  -30.8161   22.0152 H   0  0  0  0  0  0
  -28.1104  -28.9263   21.2187 H   0  0  0  0  0  0
  -25.9634  -25.8707   19.0620 H   0  0  0  0  0  0
  -23.9526  -27.2954   19.0377 H   0  0  0  0  0  0
  -23.7742  -30.5975   19.4102 H   0  0  0  0  0  0
  -22.7589  -29.2562   19.8518 H   0  0  0  0  0  0
  -25.1316  -36.1894   25.0797 H   0  0  0  0  0  0
  -20.9906  -28.3284   24.1435 H   0  0  0  0  0  0
  -20.5722  -26.2279   23.3617 H   0  0  0  0  0  0
  -21.6645  -26.7466   22.1188 H   0  0  0  0  0  0
  -19.6935  -25.6285   21.1267 H   0  0  0  0  0  0
  -19.6722  -27.3176   20.6746 H   0  0  0  0  0  0
  -17.4198  -26.6666   21.4025 H   0  0  0  0  0  0
  -18.0314  -26.0054   22.9014 H   0  0  0  0  0  0
  -19.7979  -30.7242   24.2261 H   0  0  0  0  0  0
  -17.5068  -31.6279   24.5144 H   0  0  0  0  0  0
  -15.5369  -30.2989   23.7696 H   0  0  0  0  0  0
  -15.8660  -28.0832   22.7068 H   0  0  0  0  0  0
  -24.5903  -30.7069   25.7669 H   0  0  0  0  0  0
  -24.8935  -32.2871   26.4827 H   0  0  0  0  0  0
  -25.8006  -30.8841   27.0168 H   0  0  0  0  0  0
  -26.3018  -29.6676   24.1242 H   0  0  0  0  0  0
  -27.4176  -29.7306   25.4686 H   0  0  0  0  0  0
  -27.8846  -30.4291   23.9367 H   0  0  0  0  0  0
  -27.2671  -33.3643   26.2019 H   0  0  0  0  0  0
  -28.3917  -32.6817   25.0345 H   0  0  0  0  0  0
  -28.0681  -31.8465   26.5460 H   0  0  0  0  0  0
  -28.2563  -38.0112   24.7504 H   0  0  0  0  0  0
  -28.1087  -36.2625   24.6312 H   0  0  0  0  0  0
  -27.2266  -37.1428   25.8857 H   0  0  0  0  0  0
  -20.9418  -29.8773   21.6905 H   0  0  0  0  0  0
  -26.0185  -38.2817   24.1425 H   0  0  0  0  0  0
  -32.7654  -19.0785   18.8174 H   0  0  0  0  0  0
  -32.2073  -16.8991   19.4812 H   0  0  0  0  0  0
  -28.4251  -18.3224   21.0052 H   0  0  0  0  0  0
  -33.0868  -22.7003   18.7366 H   0  0  0  0  0  0
  -33.3790  -21.3386   19.9480 H   0  0  0  0  0  0
  -30.9199  -21.7927   18.1845 H   0  0  0  0  0  0
  -30.0613  -22.9297   20.5545 H   0  0  0  0  0  0
  -29.2442  -22.6745   19.0086 H   0  0  0  0  0  0
  -27.7254  -22.8913   22.5304 H   0  0  0  0  0  0
  -27.2616  -23.6008   19.6402 H   0  0  0  0  0  0
  -24.1598  -23.4032   22.9984 H   0  0  0  0  0  0
  -25.6313  -24.3573   23.1414 H   0  0  0  0  0  0
  -25.5581  -22.7371   23.8315 H   0  0  0  0  0  0
  -25.2730  -21.7683   21.5533 H   0  0  0  0  0  0
  -25.3397  -23.3377   20.8303 H   0  0  0  0  0  0
  -29.0172  -25.0971   21.6632 H   0  0  0  0  0  0
  -27.3192  -25.2919   21.6781 H   0  0  0  0  0  0
  -28.9521  -15.7705   20.9540 H   0  0  0  0  0  0
  1 25  1  0  0  0
  1 30  2  0  0  0
  1 87  1  0  0  0
  2  3  1  0  0  0
  2 25  1  0  0  0
  2 89  1  0  0  0
  2 90  1  0  0  0
  3  4  1  0  0  0
  3 91  1  0  0  0
  3 92  1  0  0  0
  4  5  1  0  0  0
  4 93  1  0  0  0
  4 94  1  0  0  0
  5  6  1  0  0  0
  5 26  1  0  0  0
  5 95  1  0  0  0
  6 25  1  0  0  0
  6 96  1  0  0  0
  6 97  1  0  0  0
  7  8  2  0  0  0
  7 26  1  0  0  0
  7 29  1  0  0  0
  8  9  1  0  0  0
  8 22  1  0  0  0
  9 10  1  0  0  0
  9 27  2  0  0  0
 10 11  2  0  0  0
 10 15  1  0  0  0
 11 12  1  0  0  0
 11 98  1  0  0  0
 12 13  2  0  0  0
 12 99  1  0  0  0
 13 14  1  0  0  0
 13 31  1  0  0  0
 14 15  2  0  0  0
 14100  1  0  0  0
 15101  1  0  0  0
 16 17  2  0  0  0
 16 21  1  0  0  0
 16 31  1  0  0  0
 17 18  1  0  0  0
 17102  1  0  0  0
 18 19  2  0  0  0
 18103  1  0  0  0
 19 20  1  0  0  0
 19 24  1  0  0  0
 20 21  2  0  0  0
 20104  1  0  0  0
 21 23  1  0  0  0
 22 28  1  0  0  0
 22 32  2  0  0  0
 26 27  1  0  0  0
 28105  1  0  0  0
 28106  1  0  0  0
 29107  1  0  0  0
 29108  1  0  0  0
 33 34  1  0  0  0
 33 66  1  0  0  0
 33 70  2  0  0  0
 34 36  1  0  0  0
 34 59  1  0  0  0
 34109  1  0  0  0
 35 44  2  0  0  0
 35 45  1  0  0  0
 35 68  1  0  0  0
 36 56  1  0  0  0
 36110  1  0  0  0
 37 39  1  0  0  0
 37 47  1  0  0  0
 37 66  1  0  0  0
 37111  1  0  0  0
 38 43  2  0  0  0
 38 46  1  0  0  0
 38 47  1  0  0  0
 39 64  1  0  0  0
 39 67  2  0  0  0
 40 52  1  0  0  0
 40 53  2  0  0  0
 40 58  1  0  0  0
 41112  1  0  0  0
 41113  1  0  0  0
 41114  1  0  0  0
 41 48  1  0  0  0
 42 43  1  0  0  0
 42 66  1  0  0  0
 42115  1  0  0  0
 42116  1  0  0  0
 43 44  1  0  0  0
 44117  1  0  0  0
 45 46  2  0  0  0
 45118  1  0  0  0
 46119  1  0  0  0
 47120  1  0  0  0
 47121  1  0  0  0
 48 56  1  0  0  0
 48 65  1  0  0  0
 48122  1  0  0  0
 49 50  1  0  0  0
 49 53  1  0  0  0
 49 64  1  0  0  0
 49123  1  0  0  0
 50 51  1  0  0  0
 50124  1  0  0  0
 50125  1  0  0  0
 51 52  1  0  0  0
 51126  1  0  0  0
 51127  1  0  0  0
 52128  1  0  0  0
 52129  1  0  0  0
 53 54  1  0  0  0
 54 55  2  0  0  0
 54130  1  0  0  0
 55 57  1  0  0  0
 55131  1  0  0  0
 56 69  2  0  0  0
 57 58  2  0  0  0
 57132  1  0  0  0
 58133  1  0  0  0
 59 60  1  0  0  0
 59 61  1  0  0  0
 59 62  1  0  0  0
 60134  1  0  0  0
 60135  1  0  0  0
 60136  1  0  0  0
 61137  1  0  0  0
 61138  1  0  0  0
 61139  1  0  0  0
 62140  1  0  0  0
 62141  1  0  0  0
 62142  1  0  0  0
 63 65  1  0  0  0
 63143  1  0  0  0
 63144  1  0  0  0
 63145  1  0  0  0
 64146  1  0  0  0
 65147  1  0  0  0
 68 85  1  0  0  0
 71 72  2  0  0  0
 71 74  1  0  0  0
 71148  1  0  0  0
 72 76  1  0  0  0
 72149  1  0  0  0
 73 75  1  0  0  0
 73 76  2  0  0  0
 73150  1  0  0  0
 74 75  2  0  0  0
 74 79  1  0  0  0
 75 86  1  0  0  0
 76 87  1  0  0  0
 77 81  1  0  0  0
 77 86  1  0  0  0
 77 88  2  0  0  0
 78 79  2  0  0  0
 78151  1  0  0  0
 78152  1  0  0  0
 79153  1  0  0  0
 80 82  1  0  0  0
 80 86  1  0  0  0
 80154  1  0  0  0
 80155  1  0  0  0
 81 82  1  0  0  0
 81 84  1  0  0  0
 81156  1  0  0  0
 82 85  1  0  0  0
 82157  1  0  0  0
 83 84  1  0  0  0
 83158  1  0  0  0
 83159  1  0  0  0
 83160  1  0  0  0
 84161  1  0  0  0
 84162  1  0  0  0
 85163  1  0  0  0
 85164  1  0  0  0
 87165  1  0  0  0
M  ISO  4   1 100  68 101  85 101  87 100
M  END
> <chiral flag>
0

> <version>
0

> <s_m_source_file>
/data/baiqing/PycharmProjects/Reinvent-master-3.2/result/LINK_invent/BTK/process_docking_weight1_custom_product_contain_oxygen_bond_distance_aromatic_linkinvent_7_9_3/rearranged_h_0068.sdf

> <i_m_source_file_index>
73

> <r_mmod_Potential_Energy-OPLS-2005>
373.301666259766

> <r_mmod_Stretch_Energy-OPLS-2005>
145.739028930664

> <r_mmod_Bend_Energy-OPLS-2005>
225.163635253906

> <r_mmod_Torsional_Energy-OPLS-2005>
319.393432617188

> <r_mmod_Improper_Torsional_Energy-OPLS-2005>
4.97312688827515

> <r_mmod_Van_der_Waal_Energy-OPLS-2005>
155.684371948242

> <r_mmod_Electrostatic_Energy-OPLS-2005>
-358.250274658203

> <r_mmod_Solvation_Energy-OPLS-2005>
-208.703735351562

> <b_mmod_Minimization_Converged-OPLS-2005>
0

> <r_mmod_RMS_Derivative-OPLS-2005>
3.33672046661377

$$$$
73
                    3D
 Structure written by MMmdl.
161170  0  0  1  0            999 V2000
  -30.5677  -14.7556   20.5378 C   0  0  0  0  0  0
  -30.4519  -12.4759   19.4790 C   0  0  0  0  0  0
  -29.5222  -12.5416   18.2439 C   0  0  0  0  0  0
  -28.0472  -12.3522   18.6483 C   0  0  0  0  0  0
  -27.6536  -13.2260   19.8673 C   0  0  2  0  0  0
  -28.6929  -13.0999   21.0048 C   0  0  0  0  0  0
  -25.2532  -13.8155   20.5588 C   0  0  0  0  0  0
  -24.1833  -13.0436   20.9195 C   0  0  0  0  0  0
  -24.6415  -11.6912   20.8751 C   0  0  0  0  0  0
  -23.9079  -10.4297   21.0414 C   0  0  0  0  0  0
  -24.3625   -9.4209   21.9190 C   0  0  0  0  0  0
  -23.6293   -8.2250   22.0759 C   0  0  0  0  0  0
  -22.4275   -8.0295   21.3547 C   0  0  0  0  0  0
  -21.9910   -9.0271   20.4648 C   0  0  0  0  0  0
  -22.7249  -10.2144   20.3060 C   0  0  0  0  0  0
  -21.6857   -6.0738   22.5275 C   0  0  0  0  0  0
  -21.4017   -6.5637   23.8213 C   0  0  0  0  0  0
  -21.3656   -5.6783   24.9172 C   0  0  0  0  0  0
  -21.6047   -4.3048   24.7220 C   0  0  0  0  0  0
  -21.8820   -3.8143   23.4340 C   0  0  0  0  0  0
  -21.9195   -4.6964   22.3396 C   0  0  0  0  0  0
  -22.7862  -13.5250   21.1854 C   0  0  0  0  0  0
  -22.1665   -4.2152   21.0973 F   0  0  0  0  0  0
  -21.5626   -3.4528   25.7732 F   0  0  0  0  0  0
  -30.0050  -13.4950   20.4618 N   0  0  0  0  0  0
  -26.2990  -12.9361   20.3287 N   0  0  0  0  0  0
  -25.9347  -11.6514   20.5750 N   0  0  0  0  0  0
  -22.0491  -12.8249   22.0405 N   0  0  0  0  0  0
  -25.4187  -15.1833   20.3767 N   0  0  0  0  0  0
  -31.6591  -14.9795   20.0040 O   0  0  0  0  0  0
  -21.6646   -6.8885   21.4240 O   0  0  0  0  0  0
  -22.3541  -14.5546   20.6686 O   0  0  0  0  0  0
  -24.6342  -31.8534   23.1980 C   0  0  0  0  0  0
  -25.9159  -32.4742   23.8330 C   0  0  1  0  0  0
  -27.2208  -27.2433   20.1260 C   0  0  0  0  0  0
  -25.5943  -33.8544   24.2252 N   0  0  0  0  0  0
  -23.4321  -30.4777   21.5410 C   0  0  2  0  0  0
  -24.8800  -28.9266   20.1085 C   0  0  0  0  0  0
  -22.7520  -29.4594   22.4890 C   0  0  0  0  0  0
  -18.0296  -28.1389   22.8478 C   0  0  0  0  0  0
  -24.1489  -36.7278   23.2640 C   0  0  0  0  0  0
  -25.9813  -30.7606   21.3824 C   0  0  0  0  0  0
  -26.0540  -29.3834   20.7206 C   0  0  0  0  0  0
  -27.2267  -28.5553   20.7181 C   0  0  0  0  0  0
  -26.0207  -26.8676   19.4764 C   0  0  0  0  0  0
  -24.8700  -27.6771   19.4748 C   0  0  0  0  0  0
  -23.6524  -29.8159   20.1563 C   0  0  0  0  0  0
  -25.4114  -36.3058   24.0326 C   0  0  1  0  0  0
  -20.5903  -28.3698   23.1253 C   0  0  2  0  0  0
  -20.6785  -26.9406   22.5407 C   0  0  0  0  0  0
  -19.5759  -26.6372   21.5211 C   0  0  0  0  0  0
  -18.1938  -26.7927   22.1622 C   0  0  0  0  0  0
  -19.1553  -28.8861   23.2858 C   0  0  0  0  0  0
  -18.9475  -30.1459   23.8884 C   0  0  0  0  0  0
  -17.6473  -30.6585   24.0561 C   0  0  0  0  0  0
  -25.9059  -34.9431   23.5092 C   0  0  0  0  0  0
  -16.5364  -29.9082   23.6331 C   0  0  0  0  0  0
  -16.7282  -28.6503   23.0347 C   0  0  0  0  0  0
  -26.4518  -31.6576   25.0732 C   0  0  0  0  0  0
  -25.3738  -31.3730   26.1452 C   0  0  0  0  0  0
  -27.0374  -30.2985   24.6246 C   0  0  0  0  0  0
  -27.6057  -32.4330   25.7510 C   0  0  0  0  0  0
  -27.5574  -37.1794   24.8462 C   0  0  0  0  0  0
  -21.4223  -29.3043   22.3638 N   0  0  0  0  0  0
  -26.4280  -37.3764   23.9411 N   0  0  0  0  0  0
  -24.7016  -31.0488   22.0965 N   0  0  0  0  0  0
  -23.4211  -28.8129   23.2993 O   0  0  0  0  0  0
  -28.2994  -26.3172   20.1941 O   0  0  0  0  0  0
  -26.5627  -34.8911   22.4658 O   0  0  0  0  0  0
  -23.5485  -32.1365   23.7260 O   0  0  0  0  0  0
  -27.9212  -16.9275   21.7138 C   0  0  0  0  0  0
  -29.6231  -18.3540   20.7171 C   0  0  0  0  0  0
  -27.0700  -18.0362   21.8557 C   0  0  0  0  0  0
  -28.7609  -19.5505   20.8462 C   0  0  0  0  0  0
  -29.2065  -17.0104   21.1431 C   0  0  0  0  0  0
  -27.4719  -19.3069   21.4032 C   0  0  0  0  0  0
  -30.0535  -21.4755   19.7087 C   0  0  0  0  0  0
  -28.2109  -22.2029   20.8091 C   0  0  0  0  0  0
  -29.9492  -23.0131   19.4459 C   0  0  1  0  0  0
  -28.9333  -23.5758   20.4683 C   0  0  1  0  0  0
  -31.3123  -23.7245   19.4948 C   0  0  0  0  0  0
  -27.9920  -24.8423   20.0386 C   0  0  0  0  0  0
  -25.7044  -17.8743   22.5217 C   0  0  0  0  0  0
  -29.0665  -20.9925   20.4921 N   0  0  0  0  0  0
  -29.9062  -15.6980   21.3073 N   0  0  0  0  0  0
  -30.9635  -20.7998   19.2201 O   0  0  0  0  0  0
  -26.5631  -20.3034   21.5218 F   0  0  0  0  0  0
  -25.5716  -16.6858   23.1140 F   0  0  0  0  0  0
  -25.5271  -18.8020   23.4640 F   0  0  0  0  0  0
  -24.7371  -18.0005   21.6127 F   0  0  0  0  0  0
  -31.4894  -12.6303   19.1790 H   0  0  0  0  0  0
  -30.4201  -11.4826   19.9289 H   0  0  0  0  0  0
  -29.8085  -11.7840   17.5128 H   0  0  0  0  0  0
  -29.6431  -13.5051   17.7463 H   0  0  0  0  0  0
  -27.9006  -11.2979   18.8866 H   0  0  0  0  0  0
  -27.3936  -12.5676   17.8022 H   0  0  0  0  0  0
  -27.6652  -14.2603   19.5222 H   0  0  0  0  0  0
  -28.7309  -12.0735   21.3726 H   0  0  0  0  0  0
  -28.3988  -13.7042   21.8626 H   0  0  0  0  0  0
  -25.2768   -9.5685   22.4765 H   0  0  0  0  0  0
  -24.0001   -7.4640   22.7473 H   0  0  0  0  0  0
  -21.0842   -8.8797   19.8951 H   0  0  0  0  0  0
  -22.3713  -10.9690   19.6175 H   0  0  0  0  0  0
  -21.2007   -7.6143   23.9717 H   0  0  0  0  0  0
  -21.1477   -6.0510   25.9074 H   0  0  0  0  0  0
  -22.0598   -2.7604   23.2838 H   0  0  0  0  0  0
  -22.4107  -11.9927   22.4821 H   0  0  0  0  0  0
  -21.1116  -13.1294   22.2604 H   0  0  0  0  0  0
  -24.6401  -15.8247   20.4724 H   0  0  0  0  0  0
  -26.2269  -15.5942   19.9311 H   0  0  0  0  0  0
  -26.7224  -32.5387   23.1067 H   0  0  0  0  0  0
  -25.0081  -33.9671   25.0392 H   0  0  0  0  0  0
  -22.7296  -31.3009   21.3947 H   0  0  0  0  0  0
  -23.3749  -35.9611   23.3296 H   0  0  0  0  0  0
  -24.3584  -36.8912   22.2058 H   0  0  0  0  0  0
  -23.7250  -37.6479   23.6674 H   0  0  0  0  0  0
  -26.1266  -31.5223   20.6152 H   0  0  0  0  0  0
  -26.8563  -30.8056   22.0191 H   0  0  0  0  0  0
  -28.1220  -28.8988   21.2176 H   0  0  0  0  0  0
  -25.9312  -25.9174   18.9730 H   0  0  0  0  0  0
  -23.9740  -27.3233   18.9836 H   0  0  0  0  0  0
  -23.7799  -30.5944   19.4029 H   0  0  0  0  0  0
  -22.7700  -29.2524   19.8478 H   0  0  0  0  0  0
  -25.1296  -36.1898   25.0816 H   0  0  0  0  0  0
  -20.9991  -28.3287   24.1375 H   0  0  0  0  0  0
  -20.5676  -26.2310   23.3619 H   0  0  0  0  0  0
  -21.6656  -26.7420   22.1213 H   0  0  0  0  0  0
  -19.6919  -25.6279   21.1250 H   0  0  0  0  0  0
  -19.6697  -27.3173   20.6734 H   0  0  0  0  0  0
  -17.4205  -26.6665   21.4028 H   0  0  0  0  0  0
  -18.0332  -26.0077   22.9026 H   0  0  0  0  0  0
  -19.7949  -30.7273   24.2256 H   0  0  0  0  0  0
  -17.5028  -31.6264   24.5159 H   0  0  0  0  0  0
  -15.5366  -30.2979   23.7668 H   0  0  0  0  0  0
  -15.8679  -28.0821   22.7066 H   0  0  0  0  0  0
  -24.5915  -30.7070   25.7793 H   0  0  0  0  0  0
  -24.8929  -32.2899   26.4869 H   0  0  0  0  0  0
  -25.8065  -30.8925   27.0236 H   0  0  0  0  0  0
  -26.2972  -29.6716   24.1260 H   0  0  0  0  0  0
  -27.4026  -29.7268   25.4789 H   0  0  0  0  0  0
  -27.8863  -30.4246   23.9523 H   0  0  0  0  0  0
  -27.2650  -33.3636   26.2061 H   0  0  0  0  0  0
  -28.3885  -32.6883   25.0355 H   0  0  0  0  0  0
  -28.0704  -31.8476   26.5454 H   0  0  0  0  0  0
  -28.2583  -38.0097   24.7513 H   0  0  0  0  0  0
  -28.1077  -36.2630   24.6278 H   0  0  0  0  0  0
  -27.2294  -37.1433   25.8864 H   0  0  0  0  0  0
  -20.9407  -29.8779   21.6855 H   0  0  0  0  0  0
  -26.0154  -38.2833   24.1421 H   0  0  0  0  0  0
  -27.5655  -15.9793   22.0883 H   0  0  0  0  0  0
  -30.6247  -18.4762   20.3288 H   0  0  0  0  0  0
  -27.2995  -22.1379   20.2122 H   0  0  0  0  0  0
  -27.9167  -22.2065   21.8593 H   0  0  0  0  0  0
  -29.5309  -23.1226   18.4446 H   0  0  0  0  0  0
  -29.4748  -23.8714   21.3675 H   0  0  0  0  0  0
  -31.7957  -23.5918   20.4635 H   0  0  0  0  0  0
  -31.1986  -24.7951   19.3227 H   0  0  0  0  0  0
  -31.9870  -23.3386   18.7297 H   0  0  0  0  0  0
  -27.0713  -24.6873   20.6034 H   0  0  0  0  0  0
  -27.7238  -24.6811   18.9942 H   0  0  0  0  0  0
  -29.3761  -15.1395   21.9582 H   0  0  0  0  0  0
  1 25  1  0  0  0
  1 30  2  0  0  0
  1 85  1  0  0  0
  2  3  1  0  0  0
  2 25  1  0  0  0
  2 91  1  0  0  0
  2 92  1  0  0  0
  3  4  1  0  0  0
  3 93  1  0  0  0
  3 94  1  0  0  0
  4  5  1  0  0  0
  4 95  1  0  0  0
  4 96  1  0  0  0
  5  6  1  0  0  0
  5 26  1  0  0  0
  5 97  1  0  0  0
  6 25  1  0  0  0
  6 98  1  0  0  0
  6 99  1  0  0  0
  7  8  2  0  0  0
  7 26  1  0  0  0
  7 29  1  0  0  0
  8  9  1  0  0  0
  8 22  1  0  0  0
  9 10  1  0  0  0
  9 27  2  0  0  0
 10 11  2  0  0  0
 10 15  1  0  0  0
 11 12  1  0  0  0
 11100  1  0  0  0
 12 13  2  0  0  0
 12101  1  0  0  0
 13 14  1  0  0  0
 13 31  1  0  0  0
 14 15  2  0  0  0
 14102  1  0  0  0
 15103  1  0  0  0
 16 17  2  0  0  0
 16 21  1  0  0  0
 16 31  1  0  0  0
 17 18  1  0  0  0
 17104  1  0  0  0
 18 19  2  0  0  0
 18105  1  0  0  0
 19 20  1  0  0  0
 19 24  1  0  0  0
 20 21  2  0  0  0
 20106  1  0  0  0
 21 23  1  0  0  0
 22 28  1  0  0  0
 22 32  2  0  0  0
 26 27  1  0  0  0
 28107  1  0  0  0
 28108  1  0  0  0
 29109  1  0  0  0
 29110  1  0  0  0
 33 34  1  0  0  0
 33 66  1  0  0  0
 33 70  2  0  0  0
 34 36  1  0  0  0
 34 59  1  0  0  0
 34111  1  0  0  0
 35 44  2  0  0  0
 35 45  1  0  0  0
 35 68  1  0  0  0
 36 56  1  0  0  0
 36112  1  0  0  0
 37 39  1  0  0  0
 37 47  1  0  0  0
 37 66  1  0  0  0
 37113  1  0  0  0
 38 43  2  0  0  0
 38 46  1  0  0  0
 38 47  1  0  0  0
 39 64  1  0  0  0
 39 67  2  0  0  0
 40 52  1  0  0  0
 40 53  2  0  0  0
 40 58  1  0  0  0
 41114  1  0  0  0
 41115  1  0  0  0
 41116  1  0  0  0
 41 48  1  0  0  0
 42 43  1  0  0  0
 42 66  1  0  0  0
 42117  1  0  0  0
 42118  1  0  0  0
 43 44  1  0  0  0
 44119  1  0  0  0
 45 46  2  0  0  0
 45120  1  0  0  0
 46121  1  0  0  0
 47122  1  0  0  0
 47123  1  0  0  0
 48 56  1  0  0  0
 48 65  1  0  0  0
 48124  1  0  0  0
 49 50  1  0  0  0
 49 53  1  0  0  0
 49 64  1  0  0  0
 49125  1  0  0  0
 50 51  1  0  0  0
 50126  1  0  0  0
 50127  1  0  0  0
 51 52  1  0  0  0
 51128  1  0  0  0
 51129  1  0  0  0
 52130  1  0  0  0
 52131  1  0  0  0
 53 54  1  0  0  0
 54 55  2  0  0  0
 54132  1  0  0  0
 55 57  1  0  0  0
 55133  1  0  0  0
 56 69  2  0  0  0
 57 58  2  0  0  0
 57134  1  0  0  0
 58135  1  0  0  0
 59 60  1  0  0  0
 59 61  1  0  0  0
 59 62  1  0  0  0
 60136  1  0  0  0
 60137  1  0  0  0
 60138  1  0  0  0
 61139  1  0  0  0
 61140  1  0  0  0
 61141  1  0  0  0
 62142  1  0  0  0
 62143  1  0  0  0
 62144  1  0  0  0
 63 65  1  0  0  0
 63145  1  0  0  0
 63146  1  0  0  0
 63147  1  0  0  0
 64148  1  0  0  0
 65149  1  0  0  0
 68 82  1  0  0  0
 71 73  2  0  0  0
 71 75  1  0  0  0
 71150  1  0  0  0
 72 74  1  0  0  0
 72 75  2  0  0  0
 72151  1  0  0  0
 73 76  1  0  0  0
 73 83  1  0  0  0
 74 76  2  0  0  0
 74 84  1  0  0  0
 75 85  1  0  0  0
 76 87  1  0  0  0
 77 79  1  0  0  0
 77 84  1  0  0  0
 77 86  2  0  0  0
 78 80  1  0  0  0
 78 84  1  0  0  0
 78152  1  0  0  0
 78153  1  0  0  0
 79 80  1  0  0  0
 79 81  1  0  0  0
 79154  1  0  0  0
 80 82  1  0  0  0
 80155  1  0  0  0
 81156  1  0  0  0
 81157  1  0  0  0
 81158  1  0  0  0
 82159  1  0  0  0
 82160  1  0  0  0
 83 88  1  0  0  0
 83 89  1  0  0  0
 83 90  1  0  0  0
 85161  1  0  0  0
M  ISO  4   1 100  68 101  82 101  85 100
M  END
> <chiral flag>
0

> <version>
0

> <s_m_source_file>
/data/baiqing/PycharmProjects/Reinvent-master-3.2/result/LINK_invent/BTK/process_docking_weight1_custom_product_contain_oxygen_bond_distance_aromatic_linkinvent_7_9_3/rearranged_h_0068.sdf

> <i_m_source_file_index>
74

> <r_mmod_Potential_Energy-OPLS-2005>
371.594085693359

> <r_mmod_Stretch_Energy-OPLS-2005>
149.427749633789

> <r_mmod_Bend_Energy-OPLS-2005>
262.627593994141

> <r_mmod_Torsional_Energy-OPLS-2005>
290.886596679688

> <r_mmod_Improper_Torsional_Energy-OPLS-2005>
7.98035717010498

> <r_mmod_Van_der_Waal_Energy-OPLS-2005>
142.458587646484

> <r_mmod_Electrostatic_Energy-OPLS-2005>
-357.049865722656

> <r_mmod_Solvation_Energy-OPLS-2005>
-221.493392944336

> <b_mmod_Minimization_Converged-OPLS-2005>
0

> <r_mmod_RMS_Derivative-OPLS-2005>
1.16556262969971

$$$$
74
                    3D
 Structure written by MMmdl.
154162  0  0  1  0            999 V2000
  -30.5821  -14.7317   20.4739 C   0  0  0  0  0  0
  -30.4250  -12.4452   19.5072 C   0  0  0  0  0  0
  -29.5194  -12.5240   18.2581 C   0  0  0  0  0  0
  -28.0404  -12.3388   18.6521 C   0  0  0  0  0  0
  -27.6359  -13.2333   19.8568 C   0  0  2  0  0  0
  -28.6660  -13.1524   21.0046 C   0  0  0  0  0  0
  -25.2463  -13.8228   20.5668 C   0  0  0  0  0  0
  -24.1764  -13.0468   20.9192 C   0  0  0  0  0  0
  -24.6362  -11.6952   20.8734 C   0  0  0  0  0  0
  -23.9061  -10.4324   21.0392 C   0  0  0  0  0  0
  -24.3616   -9.4241   21.9159 C   0  0  0  0  0  0
  -23.6310   -8.2259   22.0730 C   0  0  0  0  0  0
  -22.4279   -8.0261   21.3532 C   0  0  0  0  0  0
  -21.9917   -9.0235   20.4625 C   0  0  0  0  0  0
  -22.7225  -10.2138   20.3038 C   0  0  0  0  0  0
  -21.6857   -6.0733   22.5294 C   0  0  0  0  0  0
  -21.4011   -6.5637   23.8223 C   0  0  0  0  0  0
  -21.3675   -5.6772   24.9185 C   0  0  0  0  0  0
  -21.6043   -4.3035   24.7213 C   0  0  0  0  0  0
  -21.8821   -3.8144   23.4340 C   0  0  0  0  0  0
  -21.9188   -4.6970   22.3397 C   0  0  0  0  0  0
  -22.7789  -13.5232   21.1843 C   0  0  0  0  0  0
  -22.1648   -4.2169   21.0973 F   0  0  0  0  0  0
  -21.5644   -3.4497   25.7722 F   0  0  0  0  0  0
  -29.9798  -13.4959   20.4512 N   0  0  0  0  0  0
  -26.2874  -12.9421   20.3239 N   0  0  0  0  0  0
  -25.9277  -11.6581   20.5727 N   0  0  0  0  0  0
  -22.0401  -12.8255   22.0420 N   0  0  0  0  0  0
  -25.4191  -15.1943   20.4146 N   0  0  0  0  0  0
  -31.7571  -14.8449   20.1104 O   0  0  0  0  0  0
  -21.6640   -6.8868   21.4248 O   0  0  0  0  0  0
  -22.3499  -14.5517   20.6632 O   0  0  0  0  0  0
  -24.6321  -31.8550   23.2001 C   0  0  0  0  0  0
  -25.9111  -32.4773   23.8354 C   0  0  1  0  0  0
  -27.2177  -27.2549   20.1207 C   0  0  0  0  0  0
  -25.5886  -33.8571   24.2274 N   0  0  0  0  0  0
  -23.4309  -30.4795   21.5427 C   0  0  2  0  0  0
  -24.8748  -28.9303   20.1069 C   0  0  0  0  0  0
  -22.7526  -29.4590   22.4903 C   0  0  0  0  0  0
  -18.0282  -28.1420   22.8453 C   0  0  0  0  0  0
  -24.1476  -36.7359   23.2631 C   0  0  0  0  0  0
  -25.9731  -30.7719   21.3699 C   0  0  0  0  0  0
  -26.0454  -29.3852   20.7296 C   0  0  0  0  0  0
  -27.2122  -28.5538   20.7391 C   0  0  0  0  0  0
  -26.0342  -26.8958   19.4348 C   0  0  0  0  0  0
  -24.8789  -27.6946   19.4474 C   0  0  0  0  0  0
  -23.6473  -29.8169   20.1569 C   0  0  0  0  0  0
  -25.4094  -36.3106   24.0318 C   0  0  1  0  0  0
  -20.5890  -28.3718   23.1269 C   0  0  2  0  0  0
  -20.6765  -26.9435   22.5409 C   0  0  0  0  0  0
  -19.5733  -26.6407   21.5211 C   0  0  0  0  0  0
  -18.1919  -26.7950   22.1629 C   0  0  0  0  0  0
  -19.1537  -28.8887   23.2853 C   0  0  0  0  0  0
  -18.9469  -30.1501   23.8855 C   0  0  0  0  0  0
  -17.6464  -30.6592   24.0593 C   0  0  0  0  0  0
  -25.9035  -34.9456   23.5110 C   0  0  0  0  0  0
  -16.5357  -29.9115   23.6317 C   0  0  0  0  0  0
  -16.7279  -28.6561   23.0269 C   0  0  0  0  0  0
  -26.4458  -31.6567   25.0714 C   0  0  0  0  0  0
  -25.3702  -31.3727   26.1464 C   0  0  0  0  0  0
  -27.0243  -30.2985   24.6109 C   0  0  0  0  0  0
  -27.6008  -32.4277   25.7510 C   0  0  0  0  0  0
  -27.5580  -37.1832   24.8447 C   0  0  0  0  0  0
  -21.4218  -29.3081   22.3677 N   0  0  0  0  0  0
  -26.4278  -37.3809   23.9406 N   0  0  0  0  0  0
  -24.7000  -31.0520   22.0973 N   0  0  0  0  0  0
  -23.4222  -28.8086   23.2968 O   0  0  0  0  0  0
  -28.3112  -26.3578   20.2143 O   0  0  0  0  0  0
  -26.5637  -34.8926   22.4698 O   0  0  0  0  0  0
  -23.5467  -32.1324   23.7317 O   0  0  0  0  0  0
  -30.1534  -17.1628   18.6665 C   0  0  0  0  0  0
  -29.5116  -18.4723   20.6141 C   0  0  0  0  0  0
  -30.2057  -18.3469   17.8987 C   0  0  0  0  0  0
  -29.8416  -17.1696   20.0433 C   0  0  0  0  0  0
  -29.5466  -19.7161   19.8533 C   0  0  0  0  0  0
  -29.9289  -19.6029   18.4876 C   0  0  0  0  0  0
  -28.7372  -22.2062   19.8864 C   0  0  0  0  0  0
  -28.7791  -23.6492   20.5887 C   0  0  0  0  0  0
  -28.2161  -24.9211   19.7584 C   0  0  0  0  0  0
  -30.5958  -18.2785   16.4252 C   0  0  0  0  0  0
  -29.3234  -21.0700   20.4354 N   0  0  0  0  0  0
  -29.8096  -15.8556   20.7382 N   0  0  0  0  0  0
  -28.0950  -22.1212   18.8379 O   0  0  0  0  0  0
  -30.0880  -20.7156   17.7301 F   0  0  0  0  0  0
  -30.8885  -17.0330   16.0431 F   0  0  0  0  0  0
  -29.5939  -18.7188   15.6621 F   0  0  0  0  0  0
  -31.6723  -19.0311   16.1963 F   0  0  0  0  0  0
  -31.4686  -12.5695   19.2154 H   0  0  0  0  0  0
  -30.3556  -11.4635   19.9783 H   0  0  0  0  0  0
  -29.8168  -11.7709   17.5272 H   0  0  0  0  0  0
  -29.6494  -13.4931   17.7736 H   0  0  0  0  0  0
  -27.8940  -11.2891   18.9084 H   0  0  0  0  0  0
  -27.3950  -12.5331   17.7938 H   0  0  0  0  0  0
  -27.6345  -14.2590   19.4881 H   0  0  0  0  0  0
  -28.6815  -12.1519   21.4368 H   0  0  0  0  0  0
  -28.3822  -13.8283   21.8124 H   0  0  0  0  0  0
  -25.2763   -9.5732   22.4747 H   0  0  0  0  0  0
  -24.0019   -7.4660   22.7453 H   0  0  0  0  0  0
  -21.0838   -8.8735   19.8938 H   0  0  0  0  0  0
  -22.3645  -10.9658   19.6151 H   0  0  0  0  0  0
  -21.1988   -7.6137   23.9744 H   0  0  0  0  0  0
  -21.1498   -6.0486   25.9091 H   0  0  0  0  0  0
  -22.0588   -2.7601   23.2815 H   0  0  0  0  0  0
  -22.3945  -11.9952   22.4919 H   0  0  0  0  0  0
  -21.0995  -13.1297   22.2518 H   0  0  0  0  0  0
  -24.6543  -15.8526   20.5216 H   0  0  0  0  0  0
  -26.2792  -15.6334   20.1157 H   0  0  0  0  0  0
  -26.7192  -32.5438   23.1119 H   0  0  0  0  0  0
  -24.9901  -33.9685   25.0333 H   0  0  0  0  0  0
  -22.7283  -31.3017   21.3966 H   0  0  0  0  0  0
  -23.3703  -35.9732   23.3263 H   0  0  0  0  0  0
  -24.3600  -36.9010   22.2057 H   0  0  0  0  0  0
  -23.7238  -37.6558   23.6681 H   0  0  0  0  0  0
  -26.0676  -31.5129   20.5741 H   0  0  0  0  0  0
  -26.8737  -30.8654   21.9671 H   0  0  0  0  0  0
  -28.1035  -28.8868   21.2532 H   0  0  0  0  0  0
  -25.9505  -25.9885   18.8608 H   0  0  0  0  0  0
  -23.9956  -27.3534   18.9222 H   0  0  0  0  0  0
  -23.7733  -30.5904   19.3996 H   0  0  0  0  0  0
  -22.7668  -29.2488   19.8511 H   0  0  0  0  0  0
  -25.1262  -36.1961   25.0812 H   0  0  0  0  0  0
  -21.0001  -28.3296   24.1382 H   0  0  0  0  0  0
  -20.5650  -26.2339   23.3616 H   0  0  0  0  0  0
  -21.6630  -26.7429   22.1217 H   0  0  0  0  0  0
  -19.6894  -25.6317   21.1231 H   0  0  0  0  0  0
  -19.6666  -27.3217   20.6733 H   0  0  0  0  0  0
  -17.4188  -26.6669   21.4043 H   0  0  0  0  0  0
  -18.0337  -26.0112   22.9045 H   0  0  0  0  0  0
  -19.7951  -30.7352   24.2167 H   0  0  0  0  0  0
  -17.5012  -31.6239   24.5256 H   0  0  0  0  0  0
  -15.5358  -30.3020   23.7658 H   0  0  0  0  0  0
  -15.8673  -28.0951   22.6889 H   0  0  0  0  0  0
  -24.5876  -30.7041   25.7855 H   0  0  0  0  0  0
  -24.8888  -32.2898   26.4877 H   0  0  0  0  0  0
  -25.8056  -30.8954   27.0252 H   0  0  0  0  0  0
  -26.2773  -29.6787   24.1133 H   0  0  0  0  0  0
  -27.3928  -29.7168   25.4564 H   0  0  0  0  0  0
  -27.8654  -30.4243   23.9287 H   0  0  0  0  0  0
  -27.2594  -33.3560   26.2114 H   0  0  0  0  0  0
  -28.3845  -32.6855   25.0370 H   0  0  0  0  0  0
  -28.0641  -31.8365   26.5418 H   0  0  0  0  0  0
  -28.2575  -38.0154   24.7511 H   0  0  0  0  0  0
  -28.1092  -36.2675   24.6234 H   0  0  0  0  0  0
  -27.2324  -37.1442   25.8862 H   0  0  0  0  0  0
  -20.9405  -29.8900   21.6960 H   0  0  0  0  0  0
  -26.0145  -38.2881   24.1438 H   0  0  0  0  0  0
  -30.3718  -16.2255   18.1750 H   0  0  0  0  0  0
  -29.2337  -18.5339   21.6577 H   0  0  0  0  0  0
  -29.7986  -23.8403   20.9198 H   0  0  0  0  0  0
  -28.1775  -23.5686   21.4975 H   0  0  0  0  0  0
  -27.1859  -24.6301   19.5971 H   0  0  0  0  0  0
  -28.6814  -24.9043   18.7720 H   0  0  0  0  0  0
  -29.7053  -21.2023   21.3632 H   0  0  0  0  0  0
  -28.9852  -15.6778   21.2935 H   0  0  0  0  0  0
  1 25  1  0  0  0
  1 30  2  0  0  0
  1 82  1  0  0  0
  2  3  1  0  0  0
  2 25  1  0  0  0
  2 88  1  0  0  0
  2 89  1  0  0  0
  3  4  1  0  0  0
  3 90  1  0  0  0
  3 91  1  0  0  0
  4  5  1  0  0  0
  4 92  1  0  0  0
  4 93  1  0  0  0
  5  6  1  0  0  0
  5 26  1  0  0  0
  5 94  1  0  0  0
  6 25  1  0  0  0
  6 95  1  0  0  0
  6 96  1  0  0  0
  7  8  2  0  0  0
  7 26  1  0  0  0
  7 29  1  0  0  0
  8  9  1  0  0  0
  8 22  1  0  0  0
  9 10  1  0  0  0
  9 27  2  0  0  0
 10 11  2  0  0  0
 10 15  1  0  0  0
 11 12  1  0  0  0
 11 97  1  0  0  0
 12 13  2  0  0  0
 12 98  1  0  0  0
 13 14  1  0  0  0
 13 31  1  0  0  0
 14 15  2  0  0  0
 14 99  1  0  0  0
 15100  1  0  0  0
 16 17  2  0  0  0
 16 21  1  0  0  0
 16 31  1  0  0  0
 17 18  1  0  0  0
 17101  1  0  0  0
 18 19  2  0  0  0
 18102  1  0  0  0
 19 20  1  0  0  0
 19 24  1  0  0  0
 20 21  2  0  0  0
 20103  1  0  0  0
 21 23  1  0  0  0
 22 28  1  0  0  0
 22 32  2  0  0  0
 26 27  1  0  0  0
 28104  1  0  0  0
 28105  1  0  0  0
 29106  1  0  0  0
 29107  1  0  0  0
 33 34  1  0  0  0
 33 66  1  0  0  0
 33 70  2  0  0  0
 34 36  1  0  0  0
 34 59  1  0  0  0
 34108  1  0  0  0
 35 44  2  0  0  0
 35 45  1  0  0  0
 35 68  1  0  0  0
 36 56  1  0  0  0
 36109  1  0  0  0
 37 39  1  0  0  0
 37 47  1  0  0  0
 37 66  1  0  0  0
 37110  1  0  0  0
 38 43  2  0  0  0
 38 46  1  0  0  0
 38 47  1  0  0  0
 39 64  1  0  0  0
 39 67  2  0  0  0
 40 52  1  0  0  0
 40 53  2  0  0  0
 40 58  1  0  0  0
 41111  1  0  0  0
 41112  1  0  0  0
 41113  1  0  0  0
 41 48  1  0  0  0
 42 43  1  0  0  0
 42 66  1  0  0  0
 42114  1  0  0  0
 42115  1  0  0  0
 43 44  1  0  0  0
 44116  1  0  0  0
 45 46  2  0  0  0
 45117  1  0  0  0
 46118  1  0  0  0
 47119  1  0  0  0
 47120  1  0  0  0
 48 56  1  0  0  0
 48 65  1  0  0  0
 48121  1  0  0  0
 49 50  1  0  0  0
 49 53  1  0  0  0
 49 64  1  0  0  0
 49122  1  0  0  0
 50 51  1  0  0  0
 50123  1  0  0  0
 50124  1  0  0  0
 51 52  1  0  0  0
 51125  1  0  0  0
 51126  1  0  0  0
 52127  1  0  0  0
 52128  1  0  0  0
 53 54  1  0  0  0
 54 55  2  0  0  0
 54129  1  0  0  0
 55 57  1  0  0  0
 55130  1  0  0  0
 56 69  2  0  0  0
 57 58  2  0  0  0
 57131  1  0  0  0
 58132  1  0  0  0
 59 60  1  0  0  0
 59 61  1  0  0  0
 59 62  1  0  0  0
 60133  1  0  0  0
 60134  1  0  0  0
 60135  1  0  0  0
 61136  1  0  0  0
 61137  1  0  0  0
 61138  1  0  0  0
 62139  1  0  0  0
 62140  1  0  0  0
 62141  1  0  0  0
 63 65  1  0  0  0
 63142  1  0  0  0
 63143  1  0  0  0
 63144  1  0  0  0
 64145  1  0  0  0
 65146  1  0  0  0
 68 79  1  0  0  0
 71 73  2  0  0  0
 71 74  1  0  0  0
 71147  1  0  0  0
 72 74  2  0  0  0
 72 75  1  0  0  0
 72148  1  0  0  0
 73 76  1  0  0  0
 73 80  1  0  0  0
 74 82  1  0  0  0
 75 76  2  0  0  0
 75 81  1  0  0  0
 76 84  1  0  0  0
 77 78  1  0  0  0
 77 81  1  0  0  0
 77 83  2  0  0  0
 78 79  1  0  0  0
 78149  1  0  0  0
 78150  1  0  0  0
 79151  1  0  0  0
 79152  1  0  0  0
 80 85  1  0  0  0
 80 86  1  0  0  0
 80 87  1  0  0  0
 81153  1  0  0  0
 82154  1  0  0  0
M  ISO  4   1 100  68 101  79 101  82 100
M  END
> <chiral flag>
0

> <version>
0

> <s_m_source_file>
/data/baiqing/PycharmProjects/Reinvent-master-3.2/result/LINK_invent/BTK/process_docking_weight1_custom_product_contain_oxygen_bond_distance_aromatic_linkinvent_7_9_3/rearranged_h_0068.sdf

> <i_m_source_file_index>
75

> <r_mmod_Potential_Energy-OPLS-2005>
149.417388916016

> <r_mmod_Stretch_Energy-OPLS-2005>
125.389678955078

> <r_mmod_Bend_Energy-OPLS-2005>
161.747802734375

> <r_mmod_Torsional_Energy-OPLS-2005>
253.36376953125

> <r_mmod_Improper_Torsional_Energy-OPLS-2005>
5.53138256072998

> <r_mmod_Van_der_Waal_Energy-OPLS-2005>
152.699157714844

> <r_mmod_Electrostatic_Energy-OPLS-2005>
-392.028778076172

> <r_mmod_Solvation_Energy-OPLS-2005>
-243.278518676758

> <b_mmod_Minimization_Converged-OPLS-2005>
0

> <r_mmod_RMS_Derivative-OPLS-2005>
5.2359938621521

$$$$
75
                    3D
 Structure written by MMmdl.
162170  0  0  1  0            999 V2000
  -30.5913  -14.7483   20.4688 C   0  0  0  0  0  0
  -30.4410  -12.4642   19.4482 C   0  0  0  0  0  0
  -29.5066  -12.5023   18.2193 C   0  0  0  0  0  0
  -28.0340  -12.3222   18.6413 C   0  0  0  0  0  0
  -27.6387  -13.2236   19.8407 C   0  0  2  0  0  0
  -28.6883  -13.1573   20.9686 C   0  0  0  0  0  0
  -25.2516  -13.8173   20.5674 C   0  0  0  0  0  0
  -24.1805  -13.0427   20.9213 C   0  0  0  0  0  0
  -24.6390  -11.6905   20.8755 C   0  0  0  0  0  0
  -23.9061  -10.4286   21.0417 C   0  0  0  0  0  0
  -24.3613   -9.4203   21.9189 C   0  0  0  0  0  0
  -23.6291   -8.2237   22.0752 C   0  0  0  0  0  0
  -22.4273   -8.0276   21.3542 C   0  0  0  0  0  0
  -21.9912   -9.0250   20.4643 C   0  0  0  0  0  0
  -22.7239  -10.2133   20.3057 C   0  0  0  0  0  0
  -21.6855   -6.0739   22.5281 C   0  0  0  0  0  0
  -21.4014   -6.5641   23.8214 C   0  0  0  0  0  0
  -21.3658   -5.6791   24.9175 C   0  0  0  0  0  0
  -21.6040   -4.3054   24.7228 C   0  0  0  0  0  0
  -21.8819   -3.8148   23.4349 C   0  0  0  0  0  0
  -21.9193   -4.6965   22.3405 C   0  0  0  0  0  0
  -22.7827  -13.5222   21.1866 C   0  0  0  0  0  0
  -22.1660   -4.2152   21.0982 F   0  0  0  0  0  0
  -21.5632   -3.4536   25.7743 F   0  0  0  0  0  0
  -29.9796  -13.5206   20.3734 N   0  0  0  0  0  0
  -26.2923  -12.9360   20.3236 N   0  0  0  0  0  0
  -25.9312  -11.6517   20.5733 N   0  0  0  0  0  0
  -22.0453  -12.8224   22.0420 N   0  0  0  0  0  0
  -25.4199  -15.1895   20.4082 N   0  0  0  0  0  0
  -31.8023  -14.8543   20.2539 O   0  0  0  0  0  0
  -21.6634   -6.8879   21.4243 O   0  0  0  0  0  0
  -22.3522  -14.5524   20.6701 O   0  0  0  0  0  0
  -24.6319  -31.8545   23.1956 C   0  0  0  0  0  0
  -25.9139  -32.4751   23.8306 C   0  0  1  0  0  0
  -27.2240  -27.2600   20.1434 C   0  0  0  0  0  0
  -25.5936  -33.8553   24.2228 N   0  0  0  0  0  0
  -23.4293  -30.4747   21.5391 C   0  0  2  0  0  0
  -24.8773  -28.9133   20.1166 C   0  0  0  0  0  0
  -22.7504  -29.4596   22.4910 C   0  0  0  0  0  0
  -18.0288  -28.1407   22.8479 C   0  0  0  0  0  0
  -24.1487  -36.7274   23.2642 C   0  0  0  0  0  0
  -25.9741  -30.7678   21.3749 C   0  0  0  0  0  0
  -26.0485  -29.3871   20.7227 C   0  0  0  0  0  0
  -27.2273  -28.5754   20.7182 C   0  0  0  0  0  0
  -26.0303  -26.8444   19.5212 C   0  0  0  0  0  0
  -24.8727  -27.6490   19.5045 C   0  0  0  0  0  0
  -23.6497  -29.8037   20.1569 C   0  0  0  0  0  0
  -25.4117  -36.3064   24.0322 C   0  0  1  0  0  0
  -20.5887  -28.3712   23.1273 C   0  0  2  0  0  0
  -20.6774  -26.9433   22.5411 C   0  0  0  0  0  0
  -19.5753  -26.6400   21.5214 C   0  0  0  0  0  0
  -18.1931  -26.7946   22.1624 C   0  0  0  0  0  0
  -19.1541  -28.8874   23.2868 C   0  0  0  0  0  0
  -18.9473  -30.1472   23.8889 C   0  0  0  0  0  0
  -17.6476  -30.6602   24.0572 C   0  0  0  0  0  0
  -25.9063  -34.9440   23.5078 C   0  0  0  0  0  0
  -16.5360  -29.9107   23.6337 C   0  0  0  0  0  0
  -16.7275  -28.6526   23.0350 C   0  0  0  0  0  0
  -26.4506  -31.6580   25.0696 C   0  0  0  0  0  0
  -25.3727  -31.3734   26.1415 C   0  0  0  0  0  0
  -27.0363  -30.3001   24.6177 C   0  0  0  0  0  0
  -27.6051  -32.4332   25.7475 C   0  0  0  0  0  0
  -27.5571  -37.1793   24.8469 C   0  0  0  0  0  0
  -21.4208  -29.3052   22.3659 N   0  0  0  0  0  0
  -26.4282  -37.3771   23.9411 N   0  0  0  0  0  0
  -24.6973  -31.0509   22.0932 N   0  0  0  0  0  0
  -23.4195  -28.8147   23.3024 O   0  0  0  0  0  0
  -28.3324  -26.3877   20.1323 O   0  0  0  0  0  0
  -26.5644  -34.8924   22.4653 O   0  0  0  0  0  0
  -23.5467  -32.1371   23.7249 O   0  0  0  0  0  0
  -30.4993  -17.3732   22.2698 C   0  0  0  0  0  0
  -29.4366  -18.4740   20.3799 C   0  0  0  0  0  0
  -30.4549  -18.5958   22.9774 C   0  0  0  0  0  0
  -29.9432  -17.2453   20.9840 C   0  0  0  0  0  0
  -29.4713  -19.7838   21.0288 C   0  0  0  0  0  0
  -29.9404  -19.7750   22.3733 C   0  0  0  0  0  0
  -30.9772  -18.5900   24.3723 C   0  0  0  0  0  0
  -29.2680  -22.3975   20.6299 C   0  0  0  0  0  0
  -30.2659  -19.4456   25.4160 C   0  0  0  0  0  0
  -27.2920  -23.1252   19.1391 C   0  0  0  0  0  0
  -29.5849  -24.0456   18.7561 C   0  0  0  0  0  0
  -28.2146  -24.9879   20.6833 C   0  0  0  0  0  0
  -28.5704  -23.6300   19.8400 C   0  0  0  0  0  0
  -28.9639  -21.0510   20.4042 N   0  0  0  0  0  0
  -29.7695  -15.8702   20.4542 N   0  0  0  0  0  0
  -31.9077  -17.8647   24.7384 O   0  0  0  0  0  0
  -30.1905  -22.7100   21.3835 O   0  0  0  0  0  0
  -29.8517  -20.8967   23.1248 F   0  0  0  0  0  0
  -31.4763  -12.6166   19.1378 H   0  0  0  0  0  0
  -30.4096  -11.4864   19.9319 H   0  0  0  0  0  0
  -29.7889  -11.7272   17.5054 H   0  0  0  0  0  0
  -29.6252  -13.4543   17.6990 H   0  0  0  0  0  0
  -27.8976  -11.2742   18.9093 H   0  0  0  0  0  0
  -27.3722  -12.5060   17.7941 H   0  0  0  0  0  0
  -27.6289  -14.2428   19.4556 H   0  0  0  0  0  0
  -28.7309  -12.1576   21.4040 H   0  0  0  0  0  0
  -28.4265  -13.8382   21.7802 H   0  0  0  0  0  0
  -25.2760   -9.5681   22.4763 H   0  0  0  0  0  0
  -24.0004   -7.4629   22.7469 H   0  0  0  0  0  0
  -21.0847   -8.8769   19.8946 H   0  0  0  0  0  0
  -22.3698  -10.9673   19.6164 H   0  0  0  0  0  0
  -21.1999   -7.6148   23.9722 H   0  0  0  0  0  0
  -21.1479   -6.0519   25.9081 H   0  0  0  0  0  0
  -22.0597   -2.7610   23.2849 H   0  0  0  0  0  0
  -22.4062  -11.9901   22.4846 H   0  0  0  0  0  0
  -21.1052  -13.1243   22.2566 H   0  0  0  0  0  0
  -24.6495  -15.8396   20.5192 H   0  0  0  0  0  0
  -26.2612  -15.6335   20.0656 H   0  0  0  0  0  0
  -26.7207  -32.5403   23.1050 H   0  0  0  0  0  0
  -25.0079  -33.9687   25.0369 H   0  0  0  0  0  0
  -22.7262  -31.2964   21.3891 H   0  0  0  0  0  0
  -23.3753  -35.9604   23.3312 H   0  0  0  0  0  0
  -24.3569  -36.8894   22.2055 H   0  0  0  0  0  0
  -23.7240  -37.6473   23.6670 H   0  0  0  0  0  0
  -26.1110  -31.5270   20.6032 H   0  0  0  0  0  0
  -26.8525  -30.8193   22.0067 H   0  0  0  0  0  0
  -28.1290  -28.9371   21.1923 H   0  0  0  0  0  0
  -25.9855  -25.8763   19.0478 H   0  0  0  0  0  0
  -23.9771  -27.2780   19.0250 H   0  0  0  0  0  0
  -23.7827  -30.5786   19.4010 H   0  0  0  0  0  0
  -22.7679  -29.2402   19.8465 H   0  0  0  0  0  0
  -25.1304  -36.1900   25.0816 H   0  0  0  0  0  0
  -20.9968  -28.3295   24.1398 H   0  0  0  0  0  0
  -20.5679  -26.2328   23.3618 H   0  0  0  0  0  0
  -21.6645  -26.7468   22.1207 H   0  0  0  0  0  0
  -19.6921  -25.6310   21.1250 H   0  0  0  0  0  0
  -19.6687  -27.3207   20.6741 H   0  0  0  0  0  0
  -17.4199  -26.6686   21.4028 H   0  0  0  0  0  0
  -18.0335  -26.0091   22.9028 H   0  0  0  0  0  0
  -19.7953  -30.7284   24.2254 H   0  0  0  0  0  0
  -17.5039  -31.6281   24.5186 H   0  0  0  0  0  0
  -15.5364  -30.3019   23.7672 H   0  0  0  0  0  0
  -15.8669  -28.0857   22.7064 H   0  0  0  0  0  0
  -24.5905  -30.7080   25.7738 H   0  0  0  0  0  0
  -24.8917  -32.2908   26.4821 H   0  0  0  0  0  0
  -25.8043  -30.8921   27.0200 H   0  0  0  0  0  0
  -26.2946  -29.6732   24.1214 H   0  0  0  0  0  0
  -27.4072  -29.7277   25.4688 H   0  0  0  0  0  0
  -27.8807  -30.4283   23.9399 H   0  0  0  0  0  0
  -27.2649  -33.3642   26.2024 H   0  0  0  0  0  0
  -28.3876  -32.6883   25.0313 H   0  0  0  0  0  0
  -28.0703  -31.8476   26.5416 H   0  0  0  0  0  0
  -28.2604  -38.0077   24.7512 H   0  0  0  0  0  0
  -28.1055  -36.2612   24.6306 H   0  0  0  0  0  0
  -27.2291  -37.1450   25.8873 H   0  0  0  0  0  0
  -20.9404  -29.8770   21.6853 H   0  0  0  0  0  0
  -26.0157  -38.2843   24.1416 H   0  0  0  0  0  0
  -30.8803  -16.4944   22.7722 H   0  0  0  0  0  0
  -29.0019  -18.4075   19.3929 H   0  0  0  0  0  0
  -29.1994  -19.5015   25.2005 H   0  0  0  0  0  0
  -30.6744  -20.4553   25.4293 H   0  0  0  0  0  0
  -30.3900  -19.0139   26.4088 H   0  0  0  0  0  0
  -27.4943  -22.2845   18.4751 H   0  0  0  0  0  0
  -26.8456  -23.9037   18.5220 H   0  0  0  0  0  0
  -26.5407  -22.8068   19.8629 H   0  0  0  0  0  0
  -29.9034  -23.1955   18.1511 H   0  0  0  0  0  0
  -30.4798  -24.4830   19.2009 H   0  0  0  0  0  0
  -29.1626  -24.7885   18.0794 H   0  0  0  0  0  0
  -27.2212  -24.8677   21.1184 H   0  0  0  0  0  0
  -28.8692  -24.9998   21.5543 H   0  0  0  0  0  0
  -28.2995  -20.9144   19.6565 H   0  0  0  0  0  0
  -28.8229  -15.6544   20.1848 H   0  0  0  0  0  0
  1 25  1  0  0  0
  1 30  2  0  0  0
  1 85  1  0  0  0
  2  3  1  0  0  0
  2 25  1  0  0  0
  2 89  1  0  0  0
  2 90  1  0  0  0
  3  4  1  0  0  0
  3 91  1  0  0  0
  3 92  1  0  0  0
  4  5  1  0  0  0
  4 93  1  0  0  0
  4 94  1  0  0  0
  5  6  1  0  0  0
  5 26  1  0  0  0
  5 95  1  0  0  0
  6 25  1  0  0  0
  6 96  1  0  0  0
  6 97  1  0  0  0
  7  8  2  0  0  0
  7 26  1  0  0  0
  7 29  1  0  0  0
  8  9  1  0  0  0
  8 22  1  0  0  0
  9 10  1  0  0  0
  9 27  2  0  0  0
 10 11  2  0  0  0
 10 15  1  0  0  0
 11 12  1  0  0  0
 11 98  1  0  0  0
 12 13  2  0  0  0
 12 99  1  0  0  0
 13 14  1  0  0  0
 13 31  1  0  0  0
 14 15  2  0  0  0
 14100  1  0  0  0
 15101  1  0  0  0
 16 17  2  0  0  0
 16 21  1  0  0  0
 16 31  1  0  0  0
 17 18  1  0  0  0
 17102  1  0  0  0
 18 19  2  0  0  0
 18103  1  0  0  0
 19 20  1  0  0  0
 19 24  1  0  0  0
 20 21  2  0  0  0
 20104  1  0  0  0
 21 23  1  0  0  0
 22 28  1  0  0  0
 22 32  2  0  0  0
 26 27  1  0  0  0
 28105  1  0  0  0
 28106  1  0  0  0
 29107  1  0  0  0
 29108  1  0  0  0
 33 34  1  0  0  0
 33 66  1  0  0  0
 33 70  2  0  0  0
 34 36  1  0  0  0
 34 59  1  0  0  0
 34109  1  0  0  0
 35 44  2  0  0  0
 35 45  1  0  0  0
 35 68  1  0  0  0
 36 56  1  0  0  0
 36110  1  0  0  0
 37 39  1  0  0  0
 37 47  1  0  0  0
 37 66  1  0  0  0
 37111  1  0  0  0
 38 43  2  0  0  0
 38 46  1  0  0  0
 38 47  1  0  0  0
 39 64  1  0  0  0
 39 67  2  0  0  0
 40 52  1  0  0  0
 40 53  2  0  0  0
 40 58  1  0  0  0
 41112  1  0  0  0
 41113  1  0  0  0
 41114  1  0  0  0
 41 48  1  0  0  0
 42 43  1  0  0  0
 42 66  1  0  0  0
 42115  1  0  0  0
 42116  1  0  0  0
 43 44  1  0  0  0
 44117  1  0  0  0
 45 46  2  0  0  0
 45118  1  0  0  0
 46119  1  0  0  0
 47120  1  0  0  0
 47121  1  0  0  0
 48 56  1  0  0  0
 48 65  1  0  0  0
 48122  1  0  0  0
 49 50  1  0  0  0
 49 53  1  0  0  0
 49 64  1  0  0  0
 49123  1  0  0  0
 50 51  1  0  0  0
 50124  1  0  0  0
 50125  1  0  0  0
 51 52  1  0  0  0
 51126  1  0  0  0
 51127  1  0  0  0
 52128  1  0  0  0
 52129  1  0  0  0
 53 54  1  0  0  0
 54 55  2  0  0  0
 54130  1  0  0  0
 55 57  1  0  0  0
 55131  1  0  0  0
 56 69  2  0  0  0
 57 58  2  0  0  0
 57132  1  0  0  0
 58133  1  0  0  0
 59 60  1  0  0  0
 59 61  1  0  0  0
 59 62  1  0  0  0
 60134  1  0  0  0
 60135  1  0  0  0
 60136  1  0  0  0
 61137  1  0  0  0
 61138  1  0  0  0
 61139  1  0  0  0
 62140  1  0  0  0
 62141  1  0  0  0
 62142  1  0  0  0
 63 65  1  0  0  0
 63143  1  0  0  0
 63144  1  0  0  0
 63145  1  0  0  0
 64146  1  0  0  0
 65147  1  0  0  0
 68 82  1  0  0  0
 71 73  2  0  0  0
 71 74  1  0  0  0
 71148  1  0  0  0
 72 74  2  0  0  0
 72 75  1  0  0  0
 72149  1  0  0  0
 73 76  1  0  0  0
 73 77  1  0  0  0
 74 85  1  0  0  0
 75 76  2  0  0  0
 75 84  1  0  0  0
 76 88  1  0  0  0
 77 79  1  0  0  0
 77 86  2  0  0  0
 78 83  1  0  0  0
 78 84  1  0  0  0
 78 87  2  0  0  0
 79150  1  0  0  0
 79151  1  0  0  0
 79152  1  0  0  0
 80153  1  0  0  0
 80154  1  0  0  0
 80155  1  0  0  0
 80 83  1  0  0  0
 81 83  1  0  0  0
 81156  1  0  0  0
 81157  1  0  0  0
 81158  1  0  0  0
 82 83  1  0  0  0
 82159  1  0  0  0
 82160  1  0  0  0
 84161  1  0  0  0
 85162  1  0  0  0
M  ISO  4   1 100  68 101  82 101  85 100
M  END
> <chiral flag>
0

> <version>
0

> <s_m_source_file>
/data/baiqing/PycharmProjects/Reinvent-master-3.2/result/LINK_invent/BTK/process_docking_weight1_custom_product_contain_oxygen_bond_distance_aromatic_linkinvent_7_9_3/rearranged_h_0068.sdf

> <i_m_source_file_index>
76

> <r_mmod_Potential_Energy-OPLS-2005>
184.213455200195

> <r_mmod_Stretch_Energy-OPLS-2005>
136.893188476562

> <r_mmod_Bend_Energy-OPLS-2005>
171.486434936523

> <r_mmod_Torsional_Energy-OPLS-2005>
325.984313964844

> <r_mmod_Improper_Torsional_Energy-OPLS-2005>
12.122688293457

> <r_mmod_Van_der_Waal_Energy-OPLS-2005>
146.163833618164

> <r_mmod_Electrostatic_Energy-OPLS-2005>
-446.159973144531

> <r_mmod_Solvation_Energy-OPLS-2005>
-249.692947387695

> <b_mmod_Minimization_Converged-OPLS-2005>
0

> <r_mmod_RMS_Derivative-OPLS-2005>
1.21295201778412

$$$$
76
                    3D
 Structure written by MMmdl.
157166  0  0  1  0            999 V2000
  -30.4818  -15.0741   20.4125 C   0  0  0  0  0  0
  -30.4526  -12.6802   19.4947 C   0  0  0  0  0  0
  -29.5278  -12.5272   18.2636 C   0  0  0  0  0  0
  -28.0673  -12.2883   18.6922 C   0  0  0  0  0  0
  -27.6201  -13.2502   19.8219 C   0  0  2  0  0  0
  -28.6634  -13.3409   20.9518 C   0  0  0  0  0  0
  -25.2409  -13.8191   20.5734 C   0  0  0  0  0  0
  -24.1742  -13.0419   20.9229 C   0  0  0  0  0  0
  -24.6376  -11.6904   20.8734 C   0  0  0  0  0  0
  -23.9081  -10.4256   21.0386 C   0  0  0  0  0  0
  -24.3606   -9.4171   21.9184 C   0  0  0  0  0  0
  -23.6282   -8.2210   22.0749 C   0  0  0  0  0  0
  -22.4259   -8.0243   21.3548 C   0  0  0  0  0  0
  -21.9904   -9.0211   20.4640 C   0  0  0  0  0  0
  -22.7236  -10.2092   20.3067 C   0  0  0  0  0  0
  -21.6845   -6.0705   22.5290 C   0  0  0  0  0  0
  -21.4007   -6.5627   23.8206 C   0  0  0  0  0  0
  -21.3653   -5.6789   24.9170 C   0  0  0  0  0  0
  -21.6046   -4.3051   24.7226 C   0  0  0  0  0  0
  -21.8810   -3.8134   23.4351 C   0  0  0  0  0  0
  -21.9177   -4.6938   22.3408 C   0  0  0  0  0  0
  -22.7732  -13.5155   21.1928 C   0  0  0  0  0  0
  -22.1651   -4.2130   21.0980 F   0  0  0  0  0  0
  -21.5632   -3.4553   25.7750 F   0  0  0  0  0  0
  -29.9124  -13.7947   20.3298 N   0  0  0  0  0  0
  -26.2837  -12.9440   20.3212 N   0  0  0  0  0  0
  -25.9329  -11.6552   20.5771 N   0  0  0  0  0  0
  -22.0431  -12.8145   22.0490 N   0  0  0  0  0  0
  -25.4100  -15.1948   20.4292 N   0  0  0  0  0  0
  -31.7078  -15.1224   20.2438 O   0  0  0  0  0  0
  -21.6603   -6.8865   21.4268 O   0  0  0  0  0  0
  -22.3347  -14.5409   20.6709 O   0  0  0  0  0  0
  -24.6501  -31.8366   23.1826 C   0  0  0  0  0  0
  -25.9252  -32.4644   23.8206 C   0  0  1  0  0  0
  -27.2099  -27.0483   20.1570 C   0  0  0  0  0  0
  -25.5965  -33.8460   24.2104 N   0  0  0  0  0  0
  -23.4536  -30.4561   21.5332 C   0  0  2  0  0  0
  -24.9074  -28.8671   20.1129 C   0  0  0  0  0  0
  -22.7553  -29.4528   22.4846 C   0  0  0  0  0  0
  -18.0325  -28.1339   22.8488 C   0  0  0  0  0  0
  -24.1516  -36.7230   23.2636 C   0  0  0  0  0  0
  -26.0199  -30.6863   21.3922 C   0  0  0  0  0  0
  -26.0913  -29.2881   20.7301 C   0  0  0  0  0  0
  -27.2432  -28.3971   20.7344 C   0  0  0  0  0  0
  -25.9924  -26.7545   19.5011 C   0  0  0  0  0  0
  -24.8746  -27.6160   19.4841 C   0  0  0  0  0  0
  -23.6860  -29.7799   20.1553 C   0  0  0  0  0  0
  -25.4147  -36.2977   24.0283 C   0  0  1  0  0  0
  -20.5922  -28.3700   23.1186 C   0  0  2  0  0  0
  -20.6838  -26.9393   22.5381 C   0  0  0  0  0  0
  -19.5829  -26.6345   21.5210 C   0  0  0  0  0  0
  -18.2024  -26.7863   22.1659 C   0  0  0  0  0  0
  -19.1566  -28.8859   23.2838 C   0  0  0  0  0  0
  -18.9463  -30.1471   23.8848 C   0  0  0  0  0  0
  -17.6447  -30.6555   24.0550 C   0  0  0  0  0  0
  -25.9096  -34.9366   23.4992 C   0  0  0  0  0  0
  -16.5373  -29.9009   23.6335 C   0  0  0  0  0  0
  -16.7316  -28.6427   23.0374 C   0  0  0  0  0  0
  -26.4578  -31.6531   25.0679 C   0  0  0  0  0  0
  -25.3729  -31.3770   26.1341 C   0  0  0  0  0  0
  -27.0450  -30.2897   24.6321 C   0  0  0  0  0  0
  -27.6057  -32.4333   25.7502 C   0  0  0  0  0  0
  -27.5569  -37.1764   24.8455 C   0  0  0  0  0  0
  -21.4248  -29.3030   22.3563 N   0  0  0  0  0  0
  -26.4280  -37.3703   23.9401 N   0  0  0  0  0  0
  -24.7283  -31.0137   22.0902 N   0  0  0  0  0  0
  -23.4182  -28.8079   23.2999 O   0  0  0  0  0  0
  -28.2208  -25.9879   20.2376 O   0  0  0  0  0  0
  -26.5705  -34.8873   22.4601 O   0  0  0  0  0  0
  -23.5590  -32.1299   23.6997 O   0  0  0  0  0  0
  -28.5426  -17.7763   22.8794 C   0  0  0  0  0  0
  -29.7984  -17.6425   22.2397 C   0  0  0  0  0  0
  -27.6061  -18.7607   20.8528 C   0  0  0  0  0  0
  -30.0552  -21.2687   21.1701 C   0  0  0  0  0  0
  -27.4255  -18.2372   22.1481 C   0  0  0  0  0  0
  -28.6656  -22.9774   20.3172 C   0  0  0  0  0  0
  -28.9329  -18.9584   20.4181 C   0  0  0  0  0  0
  -29.7995  -17.7638   20.8322 C   0  0  0  0  0  0
  -29.8197  -22.6486   21.1204 C   0  0  0  0  0  0
  -28.3434  -21.6389   19.8980 C   0  0  0  0  0  0
  -26.0620  -18.3308   22.7964 C   0  0  0  0  0  0
  -27.8455  -24.4490   20.0285 C   0  0  0  0  0  0
  -29.1348  -20.5190   20.4320 N   0  0  0  0  0  0
  -29.6708  -16.2723   20.3690 N   0  0  0  0  0  0
  -30.5685  -23.5630   21.8013 O   0  0  0  0  0  0
  -27.3167  -21.3294   19.0534 O   0  0  0  0  0  0
  -30.5116  -11.7536   20.0635 H   0  0  0  0  0  0
  -31.4718  -12.8888   19.1647 H   0  0  0  0  0  0
  -29.8674  -11.7038   17.6304 H   0  0  0  0  0  0
  -29.5872  -13.4360   17.6633 H   0  0  0  0  0  0
  -27.9936  -11.2614   19.0573 H   0  0  0  0  0  0
  -27.3965  -12.3573   17.8395 H   0  0  0  0  0  0
  -27.5569  -14.2328   19.3496 H   0  0  0  0  0  0
  -28.3523  -14.0601   21.7107 H   0  0  0  0  0  0
  -28.7891  -12.3818   21.4559 H   0  0  0  0  0  0
  -25.2759   -9.5586   22.4743 H   0  0  0  0  0  0
  -23.9942   -7.4595   22.7484 H   0  0  0  0  0  0
  -21.0813   -8.8703   19.8983 H   0  0  0  0  0  0
  -22.3681  -10.9579   19.6130 H   0  0  0  0  0  0
  -21.2020   -7.6136   23.9695 H   0  0  0  0  0  0
  -21.1500   -6.0536   25.9068 H   0  0  0  0  0  0
  -22.0606   -2.7600   23.2854 H   0  0  0  0  0  0
  -22.4018  -11.9776   22.4808 H   0  0  0  0  0  0
  -21.1051  -13.1131   22.2729 H   0  0  0  0  0  0
  -24.6548  -15.8489   20.5971 H   0  0  0  0  0  0
  -26.2789  -15.6445   20.1745 H   0  0  0  0  0  0
  -26.7304  -32.5198   23.0900 H   0  0  0  0  0  0
  -25.0055  -33.9586   25.0197 H   0  0  0  0  0  0
  -22.7578  -31.2852   21.3761 H   0  0  0  0  0  0
  -23.3760  -35.9577   23.3279 H   0  0  0  0  0  0
  -24.3574  -36.8899   22.2046 H   0  0  0  0  0  0
  -23.7296  -37.6418   23.6724 H   0  0  0  0  0  0
  -26.1715  -31.4464   20.6220 H   0  0  0  0  0  0
  -26.8827  -30.7388   22.0467 H   0  0  0  0  0  0
  -28.1395  -28.7142   21.2481 H   0  0  0  0  0  0
  -25.8526  -25.7950   19.0258 H   0  0  0  0  0  0
  -23.9666  -27.2809   19.0055 H   0  0  0  0  0  0
  -23.8218  -30.5547   19.3992 H   0  0  0  0  0  0
  -22.7973  -29.2309   19.8403 H   0  0  0  0  0  0
  -25.1355  -36.1761   25.0768 H   0  0  0  0  0  0
  -20.9997  -28.3317   24.1305 H   0  0  0  0  0  0
  -20.5694  -26.2347   23.3629 H   0  0  0  0  0  0
  -21.6694  -26.7440   22.1134 H   0  0  0  0  0  0
  -19.6969  -25.6219   21.1312 H   0  0  0  0  0  0
  -19.6809  -27.3139   20.6703 H   0  0  0  0  0  0
  -17.4318  -26.6514   21.4069 H   0  0  0  0  0  0
  -18.0419  -25.9980   22.9057 H   0  0  0  0  0  0
  -19.7946  -30.7317   24.2151 H   0  0  0  0  0  0
  -17.4980  -31.6235   24.5119 H   0  0  0  0  0  0
  -15.5367  -30.2904   23.7602 H   0  0  0  0  0  0
  -15.8738  -28.0746   22.7031 H   0  0  0  0  0  0
  -24.5912  -30.7137   25.7648 H   0  0  0  0  0  0
  -24.8946  -32.2986   26.4652 H   0  0  0  0  0  0
  -25.7970  -30.8990   27.0171 H   0  0  0  0  0  0
  -26.3090  -29.6586   24.1335 H   0  0  0  0  0  0
  -27.4024  -29.7240   25.4932 H   0  0  0  0  0  0
  -27.9008  -30.4082   23.9676 H   0  0  0  0  0  0
  -27.2586  -33.3638   26.2004 H   0  0  0  0  0  0
  -28.3926  -32.6872   25.0398 H   0  0  0  0  0  0
  -28.0661  -31.8506   26.5482 H   0  0  0  0  0  0
  -28.2560  -38.0084   24.7490 H   0  0  0  0  0  0
  -28.1093  -36.2600   24.6307 H   0  0  0  0  0  0
  -27.2275  -37.1421   25.8853 H   0  0  0  0  0  0
  -20.9449  -29.8722   21.6728 H   0  0  0  0  0  0
  -26.0121  -38.2754   24.1429 H   0  0  0  0  0  0
  -28.4110  -17.4469   23.9011 H   0  0  0  0  0  0
  -30.5260  -17.0299   22.7551 H   0  0  0  0  0  0
  -26.7926  -19.3742   20.4902 H   0  0  0  0  0  0
  -30.8093  -20.7333   21.7311 H   0  0  0  0  0  0
  -26.0505  -19.1718   23.4894 H   0  0  0  0  0  0
  -25.8177  -17.4195   23.3469 H   0  0  0  0  0  0
  -25.2795  -18.4916   22.0487 H   0  0  0  0  0  0
  -26.9473  -24.3274   20.6347 H   0  0  0  0  0  0
  -27.5078  -24.3609   18.9940 H   0  0  0  0  0  0
  -28.7143  -16.0367   20.1636 H   0  0  0  0  0  0
  -31.2988  -23.1754   22.2775 H   0  0  0  0  0  0
  -27.4213  -20.4236   18.7752 H   0  0  0  0  0  0
  1 25  1  0  0  0
  1 30  2  0  0  0
  1 84  1  0  0  0
  2  3  1  0  0  0
  2 25  1  0  0  0
  2 87  1  0  0  0
  2 88  1  0  0  0
  3  4  1  0  0  0
  3 89  1  0  0  0
  3 90  1  0  0  0
  4  5  1  0  0  0
  4 91  1  0  0  0
  4 92  1  0  0  0
  5  6  1  0  0  0
  5 26  1  0  0  0
  5 93  1  0  0  0
  6 25  1  0  0  0
  6 94  1  0  0  0
  6 95  1  0  0  0
  7  8  2  0  0  0
  7 26  1  0  0  0
  7 29  1  0  0  0
  8  9  1  0  0  0
  8 22  1  0  0  0
  9 10  1  0  0  0
  9 27  2  0  0  0
 10 11  2  0  0  0
 10 15  1  0  0  0
 11 12  1  0  0  0
 11 96  1  0  0  0
 12 13  2  0  0  0
 12 97  1  0  0  0
 13 14  1  0  0  0
 13 31  1  0  0  0
 14 15  2  0  0  0
 14 98  1  0  0  0
 15 99  1  0  0  0
 16 17  2  0  0  0
 16 21  1  0  0  0
 16 31  1  0  0  0
 17 18  1  0  0  0
 17100  1  0  0  0
 18 19  2  0  0  0
 18101  1  0  0  0
 19 20  1  0  0  0
 19 24  1  0  0  0
 20 21  2  0  0  0
 20102  1  0  0  0
 21 23  1  0  0  0
 22 28  1  0  0  0
 22 32  2  0  0  0
 26 27  1  0  0  0
 28103  1  0  0  0
 28104  1  0  0  0
 29105  1  0  0  0
 29106  1  0  0  0
 33 34  1  0  0  0
 33 66  1  0  0  0
 33 70  2  0  0  0
 34 36  1  0  0  0
 34 59  1  0  0  0
 34107  1  0  0  0
 35 44  2  0  0  0
 35 45  1  0  0  0
 35 68  1  0  0  0
 36 56  1  0  0  0
 36108  1  0  0  0
 37 39  1  0  0  0
 37 47  1  0  0  0
 37 66  1  0  0  0
 37109  1  0  0  0
 38 43  2  0  0  0
 38 46  1  0  0  0
 38 47  1  0  0  0
 39 64  1  0  0  0
 39 67  2  0  0  0
 40 52  1  0  0  0
 40 53  2  0  0  0
 40 58  1  0  0  0
 41110  1  0  0  0
 41111  1  0  0  0
 41112  1  0  0  0
 41 48  1  0  0  0
 42 43  1  0  0  0
 42 66  1  0  0  0
 42113  1  0  0  0
 42114  1  0  0  0
 43 44  1  0  0  0
 44115  1  0  0  0
 45 46  2  0  0  0
 45116  1  0  0  0
 46117  1  0  0  0
 47118  1  0  0  0
 47119  1  0  0  0
 48 56  1  0  0  0
 48 65  1  0  0  0
 48120  1  0  0  0
 49 50  1  0  0  0
 49 53  1  0  0  0
 49 64  1  0  0  0
 49121  1  0  0  0
 50 51  1  0  0  0
 50122  1  0  0  0
 50123  1  0  0  0
 51 52  1  0  0  0
 51124  1  0  0  0
 51125  1  0  0  0
 52126  1  0  0  0
 52127  1  0  0  0
 53 54  1  0  0  0
 54 55  2  0  0  0
 54128  1  0  0  0
 55 57  1  0  0  0
 55129  1  0  0  0
 56 69  2  0  0  0
 57 58  2  0  0  0
 57130  1  0  0  0
 58131  1  0  0  0
 59 60  1  0  0  0
 59 61  1  0  0  0
 59 62  1  0  0  0
 60132  1  0  0  0
 60133  1  0  0  0
 60134  1  0  0  0
 61135  1  0  0  0
 61136  1  0  0  0
 61137  1  0  0  0
 62138  1  0  0  0
 62139  1  0  0  0
 62140  1  0  0  0
 63 65  1  0  0  0
 63141  1  0  0  0
 63142  1  0  0  0
 63143  1  0  0  0
 64144  1  0  0  0
 65145  1  0  0  0
 68 82  1  0  0  0
 71 72  2  0  0  0
 71 75  1  0  0  0
 71146  1  0  0  0
 72 78  1  0  0  0
 72147  1  0  0  0
 73 75  2  0  0  0
 73 77  1  0  0  0
 73148  1  0  0  0
 74 79  2  0  0  0
 74 83  1  0  0  0
 74149  1  0  0  0
 75 81  1  0  0  0
 76 79  1  0  0  0
 76 80  2  0  0  0
 76 82  1  0  0  0
 77 78  2  0  0  0
 77 83  1  0  0  0
 78 84  1  0  0  0
 79 85  1  0  0  0
 80 83  1  0  0  0
 80 86  1  0  0  0
 81150  1  0  0  0
 81151  1  0  0  0
 81152  1  0  0  0
 82153  1  0  0  0
 82154  1  0  0  0
 84155  1  0  0  0
 85156  1  0  0  0
 86157  1  0  0  0
M  ISO  4   1 100  68 101  82 101  84 100
M  END
> <chiral flag>
0

> <version>
0

> <s_m_source_file>
/data/baiqing/PycharmProjects/Reinvent-master-3.2/result/LINK_invent/BTK/process_docking_weight1_custom_product_contain_oxygen_bond_distance_aromatic_linkinvent_7_9_3/rearranged_h_0068.sdf

> <i_m_source_file_index>
77

> <r_mmod_Potential_Energy-OPLS-2005>
1054.365234375

> <r_mmod_Stretch_Energy-OPLS-2005>
358.036956787109

> <r_mmod_Bend_Energy-OPLS-2005>
348.357299804688

> <r_mmod_Torsional_Energy-OPLS-2005>
471.957885742188

> <r_mmod_Improper_Torsional_Energy-OPLS-2005>
50.08447265625

> <r_mmod_Van_der_Waal_Energy-OPLS-2005>
128.579025268555

> <r_mmod_Electrostatic_Energy-OPLS-2005>
-344.016418457031

> <r_mmod_Solvation_Energy-OPLS-2005>
-253.437606811523

> <b_mmod_Minimization_Converged-OPLS-2005>
0

> <r_mmod_RMS_Derivative-OPLS-2005>
7.06407356262207

$$$$
77
                    3D
 Structure written by MMmdl.
157165  0  0  1  0            999 V2000
  -30.6220  -14.7104   20.4667 C   0  0  0  0  0  0
  -30.4210  -12.4308   19.4695 C   0  0  0  0  0  0
  -29.5037  -12.5013   18.2305 C   0  0  0  0  0  0
  -28.0290  -12.3377   18.6418 C   0  0  0  0  0  0
  -27.6392  -13.2287   19.8516 C   0  0  2  0  0  0
  -28.6838  -13.1482   20.9861 C   0  0  0  0  0  0
  -25.2476  -13.8194   20.5662 C   0  0  0  0  0  0
  -24.1777  -13.0440   20.9201 C   0  0  0  0  0  0
  -24.6361  -11.6916   20.8748 C   0  0  0  0  0  0
  -23.9040  -10.4292   21.0413 C   0  0  0  0  0  0
  -24.3606   -9.4204   21.9178 C   0  0  0  0  0  0
  -23.6284   -8.2236   22.0755 C   0  0  0  0  0  0
  -22.4262   -8.0272   21.3539 C   0  0  0  0  0  0
  -21.9893   -9.0246   20.4641 C   0  0  0  0  0  0
  -22.7221  -10.2124   20.3052 C   0  0  0  0  0  0
  -21.6854   -6.0716   22.5266 C   0  0  0  0  0  0
  -21.4019   -6.5628   23.8200 C   0  0  0  0  0  0
  -21.3666   -5.6785   24.9165 C   0  0  0  0  0  0
  -21.6043   -4.3044   24.7221 C   0  0  0  0  0  0
  -21.8827   -3.8132   23.4344 C   0  0  0  0  0  0
  -21.9192   -4.6942   22.3396 C   0  0  0  0  0  0
  -22.7797  -13.5221   21.1868 C   0  0  0  0  0  0
  -22.1658   -4.2126   21.0970 F   0  0  0  0  0  0
  -21.5635   -3.4532   25.7739 F   0  0  0  0  0  0
  -29.9849  -13.4927   20.4043 N   0  0  0  0  0  0
  -26.2905  -12.9392   20.3283 N   0  0  0  0  0  0
  -25.9288  -11.6536   20.5759 N   0  0  0  0  0  0
  -22.0452  -12.8211   22.0431 N   0  0  0  0  0  0
  -25.4146  -15.1916   20.4019 N   0  0  0  0  0  0
  -31.8109  -14.7831   20.1437 O   0  0  0  0  0  0
  -21.6633   -6.8857   21.4228 O   0  0  0  0  0  0
  -22.3481  -14.5519   20.6701 O   0  0  0  0  0  0
  -24.6294  -31.8578   23.1965 C   0  0  0  0  0  0
  -25.9127  -32.4762   23.8324 C   0  0  1  0  0  0
  -27.2001  -27.2565   20.1344 C   0  0  0  0  0  0
  -25.5917  -33.8570   24.2257 N   0  0  0  0  0  0
  -23.4266  -30.4795   21.5411 C   0  0  2  0  0  0
  -24.8677  -28.9239   20.1107 C   0  0  0  0  0  0
  -22.7492  -29.4604   22.4912 C   0  0  0  0  0  0
  -18.0300  -28.1385   22.8494 C   0  0  0  0  0  0
  -24.1484  -36.7285   23.2647 C   0  0  0  0  0  0
  -25.9730  -30.7661   21.3776 C   0  0  0  0  0  0
  -26.0412  -29.3874   20.7217 C   0  0  0  0  0  0
  -27.2141  -28.5680   20.7169 C   0  0  0  0  0  0
  -26.0102  -26.8608   19.4954 C   0  0  0  0  0  0
  -24.8559  -27.6676   19.4865 C   0  0  0  0  0  0
  -23.6432  -29.8165   20.1560 C   0  0  0  0  0  0
  -25.4110  -36.3090   24.0342 C   0  0  1  0  0  0
  -20.5906  -28.3685   23.1285 C   0  0  2  0  0  0
  -20.6789  -26.9410   22.5417 C   0  0  0  0  0  0
  -19.5771  -26.6373   21.5216 C   0  0  0  0  0  0
  -18.1945  -26.7933   22.1617 C   0  0  0  0  0  0
  -19.1560  -28.8852   23.2881 C   0  0  0  0  0  0
  -18.9476  -30.1461   23.8872 C   0  0  0  0  0  0
  -17.6482  -30.6583   24.0580 C   0  0  0  0  0  0
  -25.9063  -34.9456   23.5106 C   0  0  0  0  0  0
  -16.5370  -29.9098   23.6331 C   0  0  0  0  0  0
  -16.7292  -28.6523   23.0342 C   0  0  0  0  0  0
  -26.4460  -31.6581   25.0719 C   0  0  0  0  0  0
  -25.3678  -31.3748   26.1449 C   0  0  0  0  0  0
  -27.0316  -30.2998   24.6218 C   0  0  0  0  0  0
  -27.6008  -32.4313   25.7513 C   0  0  0  0  0  0
  -27.5585  -37.1801   24.8481 C   0  0  0  0  0  0
  -21.4199  -29.3043   22.3666 N   0  0  0  0  0  0
  -26.4293  -37.3796   23.9437 N   0  0  0  0  0  0
  -24.6962  -31.0554   22.0923 N   0  0  0  0  0  0
  -23.4189  -28.8143   23.3006 O   0  0  0  0  0  0
  -28.2806  -26.3516   20.1404 O   0  0  0  0  0  0
  -26.5666  -34.8938   22.4690 O   0  0  0  0  0  0
  -23.5432  -32.1392   23.7247 O   0  0  0  0  0  0
  -31.9905  -18.9689   21.0891 C   0  0  0  0  0  0
  -31.1125  -20.0344   20.8322 C   0  0  0  0  0  0
  -31.5561  -17.6323   21.0404 C   0  0  0  0  0  0
  -29.3166  -18.4196   20.4788 C   0  0  0  0  0  0
  -29.7490  -19.8196   20.5368 C   0  0  0  0  0  0
  -30.2249  -17.2921   20.7113 C   0  0  0  0  0  0
  -29.0465  -22.3402   20.6389 C   0  0  0  0  0  0
  -27.8624  -18.1173   20.1580 C   0  0  0  0  0  0
  -26.9258  -23.0463   19.3933 C   0  0  0  0  0  0
  -28.0862  -24.9758   20.7244 C   0  0  0  0  0  0
  -28.2806  -23.5644   19.9223 C   0  0  1  0  0  0
  -28.9201  -21.0151   20.2204 N   0  0  0  0  0  0
  -29.8473  -15.8507   20.6614 N   0  0  0  0  0  0
  -29.7498  -22.6107   21.6148 O   0  0  0  0  0  0
  -31.4673  -12.5372   19.1755 H   0  0  0  0  0  0
  -30.3468  -11.4542   19.9491 H   0  0  0  0  0  0
  -29.7817  -11.7289   17.5108 H   0  0  0  0  0  0
  -29.6404  -13.4578   17.7229 H   0  0  0  0  0  0
  -27.8723  -11.2884   18.8914 H   0  0  0  0  0  0
  -27.3743  -12.5468   17.7950 H   0  0  0  0  0  0
  -27.6371  -14.2530   19.4801 H   0  0  0  0  0  0
  -28.7126  -12.1472   21.4186 H   0  0  0  0  0  0
  -28.4251  -13.8224   21.8032 H   0  0  0  0  0  0
  -25.2759   -9.5684   22.4743 H   0  0  0  0  0  0
  -23.9989   -7.4639   22.7491 H   0  0  0  0  0  0
  -21.0819   -8.8759   19.8959 H   0  0  0  0  0  0
  -22.3678  -10.9653   19.6158 H   0  0  0  0  0  0
  -21.2014   -7.6142   23.9695 H   0  0  0  0  0  0
  -21.1482   -6.0515   25.9066 H   0  0  0  0  0  0
  -22.0600   -2.7588   23.2849 H   0  0  0  0  0  0
  -22.4072  -11.9875   22.4826 H   0  0  0  0  0  0
  -21.1078  -13.1231   22.2653 H   0  0  0  0  0  0
  -24.6390  -15.8384   20.4989 H   0  0  0  0  0  0
  -26.2369  -15.6178   19.9987 H   0  0  0  0  0  0
  -26.7190  -32.5391   23.1063 H   0  0  0  0  0  0
  -25.0064  -33.9714   25.0405 H   0  0  0  0  0  0
  -22.7239  -31.3023   21.3941 H   0  0  0  0  0  0
  -23.3764  -35.9596   23.3324 H   0  0  0  0  0  0
  -24.3594  -36.8888   22.2061 H   0  0  0  0  0  0
  -23.7208  -37.6482   23.6653 H   0  0  0  0  0  0
  -26.1272  -31.5232   20.6090 H   0  0  0  0  0  0
  -26.8481  -30.8051   22.0173 H   0  0  0  0  0  0
  -28.1140  -28.9181   21.2012 H   0  0  0  0  0  0
  -25.9633  -25.9052   19.0014 H   0  0  0  0  0  0
  -23.9585  -27.3099   18.9995 H   0  0  0  0  0  0
  -23.7757  -30.5951   19.4019 H   0  0  0  0  0  0
  -22.7575  -29.2576   19.8460 H   0  0  0  0  0  0
  -25.1286  -36.1934   25.0830 H   0  0  0  0  0  0
  -21.0015  -28.3259   24.1401 H   0  0  0  0  0  0
  -20.5674  -26.2299   23.3621 H   0  0  0  0  0  0
  -21.6653  -26.7424   22.1223 H   0  0  0  0  0  0
  -19.6936  -25.6280   21.1251 H   0  0  0  0  0  0
  -19.6709  -27.3196   20.6756 H   0  0  0  0  0  0
  -17.4221  -26.6696   21.4015 H   0  0  0  0  0  0
  -18.0321  -26.0068   22.8995 H   0  0  0  0  0  0
  -19.7945  -30.7310   24.2185 H   0  0  0  0  0  0
  -17.5034  -31.6254   24.5207 H   0  0  0  0  0  0
  -15.5372  -30.2999   23.7664 H   0  0  0  0  0  0
  -15.8686  -28.0851   22.7033 H   0  0  0  0  0  0
  -24.5890  -30.7031   25.7828 H   0  0  0  0  0  0
  -24.8812  -32.2913   26.4800 H   0  0  0  0  0  0
  -25.7995  -30.9019   27.0279 H   0  0  0  0  0  0
  -26.2920  -29.6782   24.1170 H   0  0  0  0  0  0
  -27.3962  -29.7210   25.4710 H   0  0  0  0  0  0
  -27.8793  -30.4340   23.9502 H   0  0  0  0  0  0
  -27.2623  -33.3645   26.2028 H   0  0  0  0  0  0
  -28.3850  -32.6814   25.0359 H   0  0  0  0  0  0
  -28.0640  -31.8464   26.5497 H   0  0  0  0  0  0
  -28.2599  -38.0103   24.7558 H   0  0  0  0  0  0
  -28.1072  -36.2628   24.6244 H   0  0  0  0  0  0
  -27.2320  -37.1402   25.8894 H   0  0  0  0  0  0
  -20.9367  -29.8785   21.6907 H   0  0  0  0  0  0
  -26.0164  -38.2870   24.1417 H   0  0  0  0  0  0
  -33.0242  -19.1811   21.3184 H   0  0  0  0  0  0
  -31.5199  -21.0340   20.8518 H   0  0  0  0  0  0
  -32.2883  -16.8721   21.2698 H   0  0  0  0  0  0
  -27.2212  -18.9737   20.3672 H   0  0  0  0  0  0
  -27.4912  -17.2899   20.7612 H   0  0  0  0  0  0
  -27.7531  -17.8564   19.1060 H   0  0  0  0  0  0
  -27.0503  -22.2235   18.6891 H   0  0  0  0  0  0
  -26.3646  -23.8183   18.8718 H   0  0  0  0  0  0
  -26.3022  -22.6817   20.2101 H   0  0  0  0  0  0
  -28.7657  -24.9613   21.5757 H   0  0  0  0  0  0
  -27.1029  -24.9461   21.1985 H   0  0  0  0  0  0
  -28.9035  -23.8015   19.0600 H   0  0  0  0  0  0
  -28.1880  -20.8604   19.5422 H   0  0  0  0  0  0
  -28.8617  -15.6572   20.7489 H   0  0  0  0  0  0
  1 25  1  0  0  0
  1 30  2  0  0  0
  1 83  1  0  0  0
  2  3  1  0  0  0
  2 25  1  0  0  0
  2 85  1  0  0  0
  2 86  1  0  0  0
  3  4  1  0  0  0
  3 87  1  0  0  0
  3 88  1  0  0  0
  4  5  1  0  0  0
  4 89  1  0  0  0
  4 90  1  0  0  0
  5  6  1  0  0  0
  5 26  1  0  0  0
  5 91  1  0  0  0
  6 25  1  0  0  0
  6 92  1  0  0  0
  6 93  1  0  0  0
  7  8  2  0  0  0
  7 26  1  0  0  0
  7 29  1  0  0  0
  8  9  1  0  0  0
  8 22  1  0  0  0
  9 10  1  0  0  0
  9 27  2  0  0  0
 10 11  2  0  0  0
 10 15  1  0  0  0
 11 12  1  0  0  0
 11 94  1  0  0  0
 12 13  2  0  0  0
 12 95  1  0  0  0
 13 14  1  0  0  0
 13 31  1  0  0  0
 14 15  2  0  0  0
 14 96  1  0  0  0
 15 97  1  0  0  0
 16 17  2  0  0  0
 16 21  1  0  0  0
 16 31  1  0  0  0
 17 18  1  0  0  0
 17 98  1  0  0  0
 18 19  2  0  0  0
 18 99  1  0  0  0
 19 20  1  0  0  0
 19 24  1  0  0  0
 20 21  2  0  0  0
 20100  1  0  0  0
 21 23  1  0  0  0
 22 28  1  0  0  0
 22 32  2  0  0  0
 26 27  1  0  0  0
 28101  1  0  0  0
 28102  1  0  0  0
 29103  1  0  0  0
 29104  1  0  0  0
 33 34  1  0  0  0
 33 66  1  0  0  0
 33 70  2  0  0  0
 34 36  1  0  0  0
 34 59  1  0  0  0
 34105  1  0  0  0
 35 44  2  0  0  0
 35 45  1  0  0  0
 35 68  1  0  0  0
 36 56  1  0  0  0
 36106  1  0  0  0
 37 39  1  0  0  0
 37 47  1  0  0  0
 37 66  1  0  0  0
 37107  1  0  0  0
 38 43  2  0  0  0
 38 46  1  0  0  0
 38 47  1  0  0  0
 39 64  1  0  0  0
 39 67  2  0  0  0
 40 52  1  0  0  0
 40 53  2  0  0  0
 40 58  1  0  0  0
 41108  1  0  0  0
 41109  1  0  0  0
 41110  1  0  0  0
 41 48  1  0  0  0
 42 43  1  0  0  0
 42 66  1  0  0  0
 42111  1  0  0  0
 42112  1  0  0  0
 43 44  1  0  0  0
 44113  1  0  0  0
 45 46  2  0  0  0
 45114  1  0  0  0
 46115  1  0  0  0
 47116  1  0  0  0
 47117  1  0  0  0
 48 56  1  0  0  0
 48 65  1  0  0  0
 48118  1  0  0  0
 49 50  1  0  0  0
 49 53  1  0  0  0
 49 64  1  0  0  0
 49119  1  0  0  0
 50 51  1  0  0  0
 50120  1  0  0  0
 50121  1  0  0  0
 51 52  1  0  0  0
 51122  1  0  0  0
 51123  1  0  0  0
 52124  1  0  0  0
 52125  1  0  0  0
 53 54  1  0  0  0
 54 55  2  0  0  0
 54126  1  0  0  0
 55 57  1  0  0  0
 55127  1  0  0  0
 56 69  2  0  0  0
 57 58  2  0  0  0
 57128  1  0  0  0
 58129  1  0  0  0
 59 60  1  0  0  0
 59 61  1  0  0  0
 59 62  1  0  0  0
 60130  1  0  0  0
 60131  1  0  0  0
 60132  1  0  0  0
 61133  1  0  0  0
 61134  1  0  0  0
 61135  1  0  0  0
 62136  1  0  0  0
 62137  1  0  0  0
 62138  1  0  0  0
 63 65  1  0  0  0
 63139  1  0  0  0
 63140  1  0  0  0
 63141  1  0  0  0
 64142  1  0  0  0
 65143  1  0  0  0
 68 80  1  0  0  0
 71 72  2  0  0  0
 71 73  1  0  0  0
 71144  1  0  0  0
 72 75  1  0  0  0
 72145  1  0  0  0
 73 76  2  0  0  0
 73146  1  0  0  0
 74 75  2  0  0  0
 74 76  1  0  0  0
 74 78  1  0  0  0
 75 82  1  0  0  0
 76 83  1  0  0  0
 77 81  1  0  0  0
 77 82  1  0  0  0
 77 84  2  0  0  0
 78147  1  0  0  0
 78148  1  0  0  0
 78149  1  0  0  0
 79150  1  0  0  0
 79151  1  0  0  0
 79152  1  0  0  0
 79 81  1  0  0  0
 80 81  1  0  0  0
 80153  1  0  0  0
 80154  1  0  0  0
 81155  1  0  0  0
 82156  1  0  0  0
 83157  1  0  0  0
M  ISO  4   1 100  68 101  80 101  83 100
M  END
> <chiral flag>
0

> <version>
0

> <s_m_source_file>
/data/baiqing/PycharmProjects/Reinvent-master-3.2/result/LINK_invent/BTK/process_docking_weight1_custom_product_contain_oxygen_bond_distance_aromatic_linkinvent_7_9_3/rearranged_h_0068.sdf

> <i_m_source_file_index>
78

> <r_mmod_Potential_Energy-OPLS-2005>
147.76025390625

> <r_mmod_Stretch_Energy-OPLS-2005>
131.807357788086

> <r_mmod_Bend_Energy-OPLS-2005>
160.843658447266

> <r_mmod_Torsional_Energy-OPLS-2005>
263.331787109375

> <r_mmod_Improper_Torsional_Energy-OPLS-2005>
5.91619253158569

> <r_mmod_Van_der_Waal_Energy-OPLS-2005>
146.065536499023

> <r_mmod_Electrostatic_Energy-OPLS-2005>
-408.268188476562

> <r_mmod_Solvation_Energy-OPLS-2005>
-230.778198242188

> <b_mmod_Minimization_Converged-OPLS-2005>
0

> <r_mmod_RMS_Derivative-OPLS-2005>
3.27054405212402

$$$$
78
                    3D
 Structure written by MMmdl.
165174  0  0  1  0            999 V2000
  -30.6127  -14.7522   20.4505 C   0  0  0  0  0  0
  -30.4199  -12.4597   19.4805 C   0  0  0  0  0  0
  -29.5034  -12.5091   18.2396 C   0  0  0  0  0  0
  -28.0291  -12.3339   18.6491 C   0  0  0  0  0  0
  -27.6333  -13.2369   19.8475 C   0  0  2  0  0  0
  -28.6745  -13.1850   20.9856 C   0  0  0  0  0  0
  -25.2461  -13.8213   20.5695 C   0  0  0  0  0  0
  -24.1761  -13.0453   20.9214 C   0  0  0  0  0  0
  -24.6361  -11.6933   20.8755 C   0  0  0  0  0  0
  -23.9049  -10.4305   21.0409 C   0  0  0  0  0  0
  -24.3598   -9.4220   21.9187 C   0  0  0  0  0  0
  -23.6283   -8.2246   22.0757 C   0  0  0  0  0  0
  -22.4270   -8.0269   21.3537 C   0  0  0  0  0  0
  -21.9904   -9.0239   20.4636 C   0  0  0  0  0  0
  -22.7226  -10.2131   20.3050 C   0  0  0  0  0  0
  -21.6852   -6.0729   22.5269 C   0  0  0  0  0  0
  -21.4015   -6.5633   23.8199 C   0  0  0  0  0  0
  -21.3664   -5.6789   24.9163 C   0  0  0  0  0  0
  -21.6042   -4.3054   24.7218 C   0  0  0  0  0  0
  -21.8820   -3.8144   23.4341 C   0  0  0  0  0  0
  -21.9190   -4.6955   22.3395 C   0  0  0  0  0  0
  -22.7782  -13.5221   21.1870 C   0  0  0  0  0  0
  -22.1656   -4.2142   21.0973 F   0  0  0  0  0  0
  -21.5633   -3.4541   25.7732 F   0  0  0  0  0  0
  -29.9756  -13.5316   20.4036 N   0  0  0  0  0  0
  -26.2881  -12.9425   20.3266 N   0  0  0  0  0  0
  -25.9289  -11.6569   20.5753 N   0  0  0  0  0  0
  -22.0422  -12.8198   22.0410 N   0  0  0  0  0  0
  -25.4165  -15.1935   20.4106 N   0  0  0  0  0  0
  -31.8136  -14.7916   20.1713 O   0  0  0  0  0  0
  -21.6635   -6.8868   21.4229 O   0  0  0  0  0  0
  -22.3464  -14.5523   20.6716 O   0  0  0  0  0  0
  -24.6308  -31.8541   23.1945 C   0  0  0  0  0  0
  -25.9137  -32.4744   23.8299 C   0  0  1  0  0  0
  -27.2186  -27.2560   20.1598 C   0  0  0  0  0  0
  -25.5953  -33.8543   24.2258 N   0  0  0  0  0  0
  -23.4292  -30.4723   21.5378 C   0  0  2  0  0  0
  -24.8776  -28.9086   20.1174 C   0  0  0  0  0  0
  -22.7502  -29.4583   22.4910 C   0  0  0  0  0  0
  -18.0292  -28.1374   22.8480 C   0  0  0  0  0  0
  -24.1487  -36.7265   23.2647 C   0  0  0  0  0  0
  -25.9706  -30.7703   21.3686 C   0  0  0  0  0  0
  -26.0482  -29.3862   20.7230 C   0  0  0  0  0  0
  -27.2259  -28.5728   20.7284 C   0  0  0  0  0  0
  -26.0306  -26.8364   19.5323 C   0  0  0  0  0  0
  -24.8725  -27.6415   19.5098 C   0  0  0  0  0  0
  -23.6497  -29.7982   20.1568 C   0  0  0  0  0  0
  -25.4118  -36.3066   24.0341 C   0  0  1  0  0  0
  -20.5900  -28.3699   23.1265 C   0  0  2  0  0  0
  -20.6783  -26.9425   22.5390 C   0  0  0  0  0  0
  -19.5755  -26.6393   21.5189 C   0  0  0  0  0  0
  -18.1931  -26.7913   22.1611 C   0  0  0  0  0  0
  -19.1546  -28.8854   23.2856 C   0  0  0  0  0  0
  -18.9468  -30.1442   23.8892 C   0  0  0  0  0  0
  -17.6471  -30.6583   24.0565 C   0  0  0  0  0  0
  -25.9070  -34.9433   23.5103 C   0  0  0  0  0  0
  -16.5366  -29.9084   23.6331 C   0  0  0  0  0  0
  -16.7280  -28.6496   23.0359 C   0  0  0  0  0  0
  -26.4515  -31.6559   25.0678 C   0  0  0  0  0  0
  -25.3748  -31.3660   26.1400 C   0  0  0  0  0  0
  -27.0398  -30.3009   24.6112 C   0  0  0  0  0  0
  -27.6052  -32.4301   25.7472 C   0  0  0  0  0  0
  -27.5565  -37.1800   24.8479 C   0  0  0  0  0  0
  -21.4212  -29.3045   22.3660 N   0  0  0  0  0  0
  -26.4292  -37.3764   23.9411 N   0  0  0  0  0  0
  -24.6963  -31.0511   22.0904 N   0  0  0  0  0  0
  -23.4188  -28.8139   23.3027 O   0  0  0  0  0  0
  -28.3139  -26.3695   20.1538 O   0  0  0  0  0  0
  -26.5622  -34.8926   22.4661 O   0  0  0  0  0  0
  -23.5466  -32.1343   23.7253 O   0  0  0  0  0  0
  -30.8379  -20.0863   19.6413 C   0  0  0  0  0  0
  -31.3546  -17.6909   19.6436 C   0  0  0  0  0  0
  -29.2956  -18.4960   20.6480 C   0  0  0  0  0  0
  -31.6865  -19.0169   19.3074 C   0  0  0  0  0  0
  -29.6114  -19.8899   20.3102 C   0  0  0  0  0  0
  -30.1610  -17.3560   20.3310 C   0  0  0  0  0  0
  -27.6355  -21.2416   21.2136 C   0  0  0  0  0  0
  -29.2411  -22.5537   20.2389 C   0  0  0  0  0  0
  -27.1932  -22.7153   21.4140 C   0  0  1  0  0  0
  -28.0373  -23.5790   20.4394 C   0  0  1  0  0  0
  -32.9705  -19.2992   18.5528 C   0  0  0  0  0  0
  -24.9321  -22.3472   23.5108 C   0  0  0  0  0  0
  -25.6632  -22.9531   21.3154 C   0  0  0  0  0  0
  -28.2580  -25.1104   20.9695 C   0  0  0  0  0  0
  -28.8172  -21.1363   20.5752 N   0  0  0  0  0  0
  -29.8566  -15.9165   20.6294 N   0  0  0  0  0  0
  -26.9576  -20.2962   21.6276 O   0  0  0  0  0  0
  -25.1099  -23.3870   22.5564 O   0  0  0  0  0  0
  -31.4627  -12.5732   19.1796 H   0  0  0  0  0  0
  -30.3588  -11.4880   19.9724 H   0  0  0  0  0  0
  -29.7888  -11.7371   17.5243 H   0  0  0  0  0  0
  -29.6289  -13.4648   17.7286 H   0  0  0  0  0  0
  -27.8818  -11.2861   18.9102 H   0  0  0  0  0  0
  -27.3749  -12.5287   17.7986 H   0  0  0  0  0  0
  -27.6227  -14.2558   19.4598 H   0  0  0  0  0  0
  -28.7082  -12.1937   21.4385 H   0  0  0  0  0  0
  -28.4076  -13.8796   21.7847 H   0  0  0  0  0  0
  -25.2732   -9.5704   22.4775 H   0  0  0  0  0  0
  -23.9983   -7.4644   22.7487 H   0  0  0  0  0  0
  -21.0836   -8.8755   19.8934 H   0  0  0  0  0  0
  -22.3674  -10.9666   19.6157 H   0  0  0  0  0  0
  -21.2010   -7.6140   23.9698 H   0  0  0  0  0  0
  -21.1487   -6.0522   25.9062 H   0  0  0  0  0  0
  -22.0598   -2.7607   23.2840 H   0  0  0  0  0  0
  -22.4029  -11.9845   22.4782 H   0  0  0  0  0  0
  -21.1033  -13.1214   22.2613 H   0  0  0  0  0  0
  -24.6502  -15.8502   20.5126 H   0  0  0  0  0  0
  -26.2626  -15.6280   20.0663 H   0  0  0  0  0  0
  -26.7203  -32.5427   23.1048 H   0  0  0  0  0  0
  -25.0132  -33.9641   25.0430 H   0  0  0  0  0  0
  -22.7277  -31.2947   21.3849 H   0  0  0  0  0  0
  -23.3760  -35.9583   23.3304 H   0  0  0  0  0  0
  -24.3590  -36.8886   22.2061 H   0  0  0  0  0  0
  -23.7209  -37.6459   23.6669 H   0  0  0  0  0  0
  -26.0984  -31.5238   20.5908 H   0  0  0  0  0  0
  -26.8526  -30.8319   21.9945 H   0  0  0  0  0  0
  -28.1266  -28.9364   21.2031 H   0  0  0  0  0  0
  -25.9967  -25.8612   19.0692 H   0  0  0  0  0  0
  -23.9771  -27.2655   19.0328 H   0  0  0  0  0  0
  -23.7797  -30.5689   19.3959 H   0  0  0  0  0  0
  -22.7684  -29.2320   19.8513 H   0  0  0  0  0  0
  -25.1281  -36.1917   25.0831 H   0  0  0  0  0  0
  -20.9976  -28.3274   24.1392 H   0  0  0  0  0  0
  -20.5705  -26.2299   23.3590 H   0  0  0  0  0  0
  -21.6642  -26.7450   22.1171 H   0  0  0  0  0  0
  -19.6929  -25.6304   21.1214 H   0  0  0  0  0  0
  -19.6689  -27.3216   20.6727 H   0  0  0  0  0  0
  -17.4197  -26.6670   21.4016 H   0  0  0  0  0  0
  -18.0334  -26.0045   22.9002 H   0  0  0  0  0  0
  -19.7950  -30.7237   24.2276 H   0  0  0  0  0  0
  -17.5040  -31.6268   24.5158 H   0  0  0  0  0  0
  -15.5368  -30.2992   23.7658 H   0  0  0  0  0  0
  -15.8673  -28.0820   22.7088 H   0  0  0  0  0  0
  -24.5948  -30.6987   25.7716 H   0  0  0  0  0  0
  -24.8904  -32.2794   26.4848 H   0  0  0  0  0  0
  -25.8074  -30.8825   27.0163 H   0  0  0  0  0  0
  -26.2968  -29.6724   24.1187 H   0  0  0  0  0  0
  -27.4201  -29.7294   25.4586 H   0  0  0  0  0  0
  -27.8778  -30.4352   23.9270 H   0  0  0  0  0  0
  -27.2667  -33.3643   26.1967 H   0  0  0  0  0  0
  -28.3910  -32.6784   25.0324 H   0  0  0  0  0  0
  -28.0657  -31.8463   26.5454 H   0  0  0  0  0  0
  -28.2575  -38.0098   24.7530 H   0  0  0  0  0  0
  -28.1065  -36.2631   24.6311 H   0  0  0  0  0  0
  -27.2287  -37.1450   25.8882 H   0  0  0  0  0  0
  -20.9412  -29.8772   21.6872 H   0  0  0  0  0  0
  -26.0173  -38.2839   24.1403 H   0  0  0  0  0  0
  -31.1546  -21.0782   19.3565 H   0  0  0  0  0  0
  -32.0570  -16.9352   19.3325 H   0  0  0  0  0  0
  -28.3680  -18.2874   21.1611 H   0  0  0  0  0  0
  -30.0763  -22.8248   20.8852 H   0  0  0  0  0  0
  -29.5937  -22.6158   19.2097 H   0  0  0  0  0  0
  -27.5206  -22.9577   22.4251 H   0  0  0  0  0  0
  -27.4950  -23.6357   19.4952 H   0  0  0  0  0  0
  -33.2663  -20.3440   18.6506 H   0  0  0  0  0  0
  -32.8352  -19.0855   17.4929 H   0  0  0  0  0  0
  -33.7875  -18.6823   18.9268 H   0  0  0  0  0  0
  -25.8767  -21.8694   23.7729 H   0  0  0  0  0  0
  -24.2462  -21.5842   23.1422 H   0  0  0  0  0  0
  -24.5068  -22.7599   24.4266 H   0  0  0  0  0  0
  -25.1246  -22.0796   20.9443 H   0  0  0  0  0  0
  -25.4614  -23.7420   20.5910 H   0  0  0  0  0  0
  -29.1820  -25.1050   21.5477 H   0  0  0  0  0  0
  -27.4933  -25.2966   21.7264 H   0  0  0  0  0  0
  -28.9077  -15.7356   20.9208 H   0  0  0  0  0  0
  1 25  1  0  0  0
  1 30  2  0  0  0
  1 86  1  0  0  0
  2  3  1  0  0  0
  2 25  1  0  0  0
  2 89  1  0  0  0
  2 90  1  0  0  0
  3  4  1  0  0  0
  3 91  1  0  0  0
  3 92  1  0  0  0
  4  5  1  0  0  0
  4 93  1  0  0  0
  4 94  1  0  0  0
  5  6  1  0  0  0
  5 26  1  0  0  0
  5 95  1  0  0  0
  6 25  1  0  0  0
  6 96  1  0  0  0
  6 97  1  0  0  0
  7  8  2  0  0  0
  7 26  1  0  0  0
  7 29  1  0  0  0
  8  9  1  0  0  0
  8 22  1  0  0  0
  9 10  1  0  0  0
  9 27  2  0  0  0
 10 11  2  0  0  0
 10 15  1  0  0  0
 11 12  1  0  0  0
 11 98  1  0  0  0
 12 13  2  0  0  0
 12 99  1  0  0  0
 13 14  1  0  0  0
 13 31  1  0  0  0
 14 15  2  0  0  0
 14100  1  0  0  0
 15101  1  0  0  0
 16 17  2  0  0  0
 16 21  1  0  0  0
 16 31  1  0  0  0
 17 18  1  0  0  0
 17102  1  0  0  0
 18 19  2  0  0  0
 18103  1  0  0  0
 19 20  1  0  0  0
 19 24  1  0  0  0
 20 21  2  0  0  0
 20104  1  0  0  0
 21 23  1  0  0  0
 22 28  1  0  0  0
 22 32  2  0  0  0
 26 27  1  0  0  0
 28105  1  0  0  0
 28106  1  0  0  0
 29107  1  0  0  0
 29108  1  0  0  0
 33 34  1  0  0  0
 33 66  1  0  0  0
 33 70  2  0  0  0
 34 36  1  0  0  0
 34 59  1  0  0  0
 34109  1  0  0  0
 35 44  2  0  0  0
 35 45  1  0  0  0
 35 68  1  0  0  0
 36 56  1  0  0  0
 36110  1  0  0  0
 37 39  1  0  0  0
 37 47  1  0  0  0
 37 66  1  0  0  0
 37111  1  0  0  0
 38 43  2  0  0  0
 38 46  1  0  0  0
 38 47  1  0  0  0
 39 64  1  0  0  0
 39 67  2  0  0  0
 40 52  1  0  0  0
 40 53  2  0  0  0
 40 58  1  0  0  0
 41112  1  0  0  0
 41113  1  0  0  0
 41114  1  0  0  0
 41 48  1  0  0  0
 42 43  1  0  0  0
 42 66  1  0  0  0
 42115  1  0  0  0
 42116  1  0  0  0
 43 44  1  0  0  0
 44117  1  0  0  0
 45 46  2  0  0  0
 45118  1  0  0  0
 46119  1  0  0  0
 47120  1  0  0  0
 47121  1  0  0  0
 48 56  1  0  0  0
 48 65  1  0  0  0
 48122  1  0  0  0
 49 50  1  0  0  0
 49 53  1  0  0  0
 49 64  1  0  0  0
 49123  1  0  0  0
 50 51  1  0  0  0
 50124  1  0  0  0
 50125  1  0  0  0
 51 52  1  0  0  0
 51126  1  0  0  0
 51127  1  0  0  0
 52128  1  0  0  0
 52129  1  0  0  0
 53 54  1  0  0  0
 54 55  2  0  0  0
 54130  1  0  0  0
 55 57  1  0  0  0
 55131  1  0  0  0
 56 69  2  0  0  0
 57 58  2  0  0  0
 57132  1  0  0  0
 58133  1  0  0  0
 59 60  1  0  0  0
 59 61  1  0  0  0
 59 62  1  0  0  0
 60134  1  0  0  0
 60135  1  0  0  0
 60136  1  0  0  0
 61137  1  0  0  0
 61138  1  0  0  0
 61139  1  0  0  0
 62140  1  0  0  0
 62141  1  0  0  0
 62142  1  0  0  0
 63 65  1  0  0  0
 63143  1  0  0  0
 63144  1  0  0  0
 63145  1  0  0  0
 64146  1  0  0  0
 65147  1  0  0  0
 68 84  1  0  0  0
 71 74  2  0  0  0
 71 75  1  0  0  0
 71148  1  0  0  0
 72 74  1  0  0  0
 72 76  2  0  0  0
 72149  1  0  0  0
 73 75  2  0  0  0
 73 76  1  0  0  0
 73150  1  0  0  0
 74 81  1  0  0  0
 75 85  1  0  0  0
 76 86  1  0  0  0
 77 79  1  0  0  0
 77 85  1  0  0  0
 77 87  2  0  0  0
 78 80  1  0  0  0
 78 85  1  0  0  0
 78151  1  0  0  0
 78152  1  0  0  0
 79 80  1  0  0  0
 79 83  1  0  0  0
 79153  1  0  0  0
 80 84  1  0  0  0
 80154  1  0  0  0
 81155  1  0  0  0
 81156  1  0  0  0
 81157  1  0  0  0
 82 88  1  0  0  0
 82158  1  0  0  0
 82159  1  0  0  0
 82160  1  0  0  0
 83 88  1  0  0  0
 83161  1  0  0  0
 83162  1  0  0  0
 84163  1  0  0  0
 84164  1  0  0  0
 86165  1  0  0  0
M  ISO  4   1 100  68 101  84 101  86 100
M  END
> <chiral flag>
0

> <version>
0

> <s_m_source_file>
/data/baiqing/PycharmProjects/Reinvent-master-3.2/result/LINK_invent/BTK/process_docking_weight1_custom_product_contain_oxygen_bond_distance_aromatic_linkinvent_7_9_3/rearranged_h_0068.sdf

> <i_m_source_file_index>
79

> <r_mmod_Potential_Energy-OPLS-2005>
309.623626708984

> <r_mmod_Stretch_Energy-OPLS-2005>
135.649291992188

> <r_mmod_Bend_Energy-OPLS-2005>
213.75146484375

> <r_mmod_Torsional_Energy-OPLS-2005>
294.947998046875

> <r_mmod_Improper_Torsional_Energy-OPLS-2005>
4.16112899780273

> <r_mmod_Van_der_Waal_Energy-OPLS-2005>
139.497619628906

> <r_mmod_Electrostatic_Energy-OPLS-2005>
-346.276580810547

> <r_mmod_Solvation_Energy-OPLS-2005>
-219.864410400391

> <b_mmod_Minimization_Converged-OPLS-2005>
0

> <r_mmod_RMS_Derivative-OPLS-2005>
2.10934829711914

$$$$
79
                    3D
 Structure written by MMmdl.
150158  0  0  1  0            999 V2000
  -30.6092  -14.6769   20.4845 C   0  0  0  0  0  0
  -30.4402  -12.4124   19.4596 C   0  0  0  0  0  0
  -29.5102  -12.5078   18.2289 C   0  0  0  0  0  0
  -28.0332  -12.3423   18.6405 C   0  0  0  0  0  0
  -27.6511  -13.2203   19.8620 C   0  0  2  0  0  0
  -28.6967  -13.0942   20.9931 C   0  0  0  0  0  0
  -25.2546  -13.8174   20.5689 C   0  0  0  0  0  0
  -24.1816  -13.0431   20.9174 C   0  0  0  0  0  0
  -24.6396  -11.6906   20.8732 C   0  0  0  0  0  0
  -23.9067  -10.4289   21.0401 C   0  0  0  0  0  0
  -24.3619   -9.4205   21.9182 C   0  0  0  0  0  0
  -23.6291   -8.2242   22.0753 C   0  0  0  0  0  0
  -22.4274   -8.0281   21.3543 C   0  0  0  0  0  0
  -21.9908   -9.0255   20.4646 C   0  0  0  0  0  0
  -22.7237  -10.2134   20.3054 C   0  0  0  0  0  0
  -21.6854   -6.0736   22.5278 C   0  0  0  0  0  0
  -21.4016   -6.5640   23.8212 C   0  0  0  0  0  0
  -21.3658   -5.6792   24.9173 C   0  0  0  0  0  0
  -21.6043   -4.3055   24.7223 C   0  0  0  0  0  0
  -21.8820   -3.8146   23.4345 C   0  0  0  0  0  0
  -21.9193   -4.6963   22.3401 C   0  0  0  0  0  0
  -22.7840  -13.5224   21.1845 C   0  0  0  0  0  0
  -22.1660   -4.2149   21.0979 F   0  0  0  0  0  0
  -21.5627   -3.4539   25.7737 F   0  0  0  0  0  0
  -30.0083  -13.4435   20.4259 N   0  0  0  0  0  0
  -26.2982  -12.9365   20.3325 N   0  0  0  0  0  0
  -25.9329  -11.6515   20.5761 N   0  0  0  0  0  0
  -22.0489  -12.8221   22.0411 N   0  0  0  0  0  0
  -25.4242  -15.1899   20.4148 N   0  0  0  0  0  0
  -31.7779  -14.8289   20.1175 O   0  0  0  0  0  0
  -21.6639   -6.8878   21.4241 O   0  0  0  0  0  0
  -22.3517  -14.5528   20.6695 O   0  0  0  0  0  0
  -24.6277  -31.8581   23.2011 C   0  0  0  0  0  0
  -25.9116  -32.4770   23.8347 C   0  0  1  0  0  0
  -27.2236  -27.3005   20.1187 C   0  0  0  0  0  0
  -25.5924  -33.8571   24.2269 N   0  0  0  0  0  0
  -23.4226  -30.4817   21.5440 C   0  0  2  0  0  0
  -24.8694  -28.9351   20.1102 C   0  0  0  0  0  0
  -22.7484  -29.4615   22.4925 C   0  0  0  0  0  0
  -18.0289  -28.1385   22.8485 C   0  0  0  0  0  0
  -24.1488  -36.7292   23.2638 C   0  0  0  0  0  0
  -25.9657  -30.7832   21.3756 C   0  0  0  0  0  0
  -26.0394  -29.4095   20.7164 C   0  0  0  0  0  0
  -27.2193  -28.6043   20.7099 C   0  0  0  0  0  0
  -26.0295  -26.8855   19.4847 C   0  0  0  0  0  0
  -24.8676  -27.6797   19.4848 C   0  0  0  0  0  0
  -23.6383  -29.8171   20.1594 C   0  0  0  0  0  0
  -25.4114  -36.3078   24.0327 C   0  0  1  0  0  0
  -20.5891  -28.3692   23.1277 C   0  0  2  0  0  0
  -20.6776  -26.9411   22.5410 C   0  0  0  0  0  0
  -19.5752  -26.6382   21.5213 C   0  0  0  0  0  0
  -18.1932  -26.7927   22.1626 C   0  0  0  0  0  0
  -19.1542  -28.8855   23.2877 C   0  0  0  0  0  0
  -18.9463  -30.1457   23.8893 C   0  0  0  0  0  0
  -17.6462  -30.6586   24.0564 C   0  0  0  0  0  0
  -25.9052  -34.9448   23.5100 C   0  0  0  0  0  0
  -16.5354  -29.9085   23.6329 C   0  0  0  0  0  0
  -16.7276  -28.6503   23.0350 C   0  0  0  0  0  0
  -26.4493  -31.6588   25.0725 C   0  0  0  0  0  0
  -25.3722  -31.3739   26.1450 C   0  0  0  0  0  0
  -27.0338  -30.3007   24.6196 C   0  0  0  0  0  0
  -27.6046  -32.4331   25.7496 C   0  0  0  0  0  0
  -27.5582  -37.1797   24.8461 C   0  0  0  0  0  0
  -21.4196  -29.3042   22.3668 N   0  0  0  0  0  0
  -26.4290  -37.3775   23.9411 N   0  0  0  0  0  0
  -24.6909  -31.0580   22.0969 N   0  0  0  0  0  0
  -23.4200  -28.8154   23.3010 O   0  0  0  0  0  0
  -28.3343  -26.4371   20.1768 O   0  0  0  0  0  0
  -26.5624  -34.8917   22.4668 O   0  0  0  0  0  0
  -23.5435  -32.1387   23.7329 O   0  0  0  0  0  0
  -28.8249  -19.4399   21.0208 C   0  0  0  0  0  0
  -31.0269  -17.9133   20.1821 C   0  0  0  0  0  0
  -29.9665  -20.1597   20.5758 C   0  0  0  0  0  0
  -29.9035  -17.1986   20.6733 C   0  0  0  0  0  0
  -28.7995  -18.0086   21.0658 C   0  0  0  0  0  0
  -31.0575  -19.3426   20.1369 C   0  0  0  0  0  0
  -30.1427  -21.6927   20.7573 C   0  0  0  0  0  0
  -29.2848  -24.0216   20.4863 C   0  0  0  0  0  0
  -28.1109  -24.9684   20.0028 C   0  0  0  0  0  0
  -29.7895  -15.7344   20.8002 N   0  0  0  0  0  0
  -29.1993  -22.6355   20.3885 N   0  0  0  0  0  0
  -31.2168  -22.0301   21.2681 O   0  0  0  0  0  0
  -30.2740  -24.6004   20.9533 O   0  0  0  0  0  0
  -27.6853  -17.3900   21.5244 F   0  0  0  0  0  0
  -32.1897  -19.9258   19.6726 F   0  0  0  0  0  0
  -31.4807  -12.5414   19.1571 H   0  0  0  0  0  0
  -30.3816  -11.4213   19.9124 H   0  0  0  0  0  0
  -29.7795  -11.7493   17.4925 H   0  0  0  0  0  0
  -29.6477  -13.4725   17.7379 H   0  0  0  0  0  0
  -27.8742  -11.2899   18.8786 H   0  0  0  0  0  0
  -27.3787  -12.5637   17.7967 H   0  0  0  0  0  0
  -27.6615  -14.2523   19.5108 H   0  0  0  0  0  0
  -28.7160  -12.0770   21.3870 H   0  0  0  0  0  0
  -28.4387  -13.7357   21.8372 H   0  0  0  0  0  0
  -25.2767   -9.5679   22.4751 H   0  0  0  0  0  0
  -23.9999   -7.4635   22.7475 H   0  0  0  0  0  0
  -21.0837   -8.8776   19.8955 H   0  0  0  0  0  0
  -22.3697  -10.9673   19.6162 H   0  0  0  0  0  0
  -21.2013   -7.6149   23.9716 H   0  0  0  0  0  0
  -21.1478   -6.0522   25.9075 H   0  0  0  0  0  0
  -22.0601   -2.7609   23.2846 H   0  0  0  0  0  0
  -22.4112  -11.9885   22.4799 H   0  0  0  0  0  0
  -21.1111  -13.1249   22.2626 H   0  0  0  0  0  0
  -24.6637  -15.8445   20.5599 H   0  0  0  0  0  0
  -26.2916  -15.6472   20.1653 H   0  0  0  0  0  0
  -26.7184  -32.5433   23.1093 H   0  0  0  0  0  0
  -25.0064  -33.9713   25.0409 H   0  0  0  0  0  0
  -22.7171  -31.3028   21.4004 H   0  0  0  0  0  0
  -23.3748  -35.9627   23.3298 H   0  0  0  0  0  0
  -24.3580  -36.8918   22.2054 H   0  0  0  0  0  0
  -23.7243  -37.6494   23.6664 H   0  0  0  0  0  0
  -26.1007  -31.5464   20.6079 H   0  0  0  0  0  0
  -26.8448  -30.8305   22.0068 H   0  0  0  0  0  0
  -28.1158  -28.9630   21.1963 H   0  0  0  0  0  0
  -25.9629  -25.9283   18.9898 H   0  0  0  0  0  0
  -23.9717  -27.3120   19.0034 H   0  0  0  0  0  0
  -23.7589  -30.5940   19.4035 H   0  0  0  0  0  0
  -22.7577  -29.2480   19.8558 H   0  0  0  0  0  0
  -25.1292  -36.1929   25.0819 H   0  0  0  0  0  0
  -20.9984  -28.3269   24.1398 H   0  0  0  0  0  0
  -20.5675  -26.2301   23.3613 H   0  0  0  0  0  0
  -21.6644  -26.7436   22.1205 H   0  0  0  0  0  0
  -19.6913  -25.6292   21.1244 H   0  0  0  0  0  0
  -19.6690  -27.3191   20.6743 H   0  0  0  0  0  0
  -17.4200  -26.6671   21.4031 H   0  0  0  0  0  0
  -18.0336  -26.0071   22.9026 H   0  0  0  0  0  0
  -19.7938  -30.7275   24.2260 H   0  0  0  0  0  0
  -17.5016  -31.6264   24.5169 H   0  0  0  0  0  0
  -15.5354  -30.2987   23.7653 H   0  0  0  0  0  0
  -15.8677  -28.0823   22.7064 H   0  0  0  0  0  0
  -24.5893  -30.7090   25.7783 H   0  0  0  0  0  0
  -24.8919  -32.2913   26.4865 H   0  0  0  0  0  0
  -25.8041  -30.8924   27.0232 H   0  0  0  0  0  0
  -26.2920  -29.6758   24.1208 H   0  0  0  0  0  0
  -27.4014  -29.7263   25.4710 H   0  0  0  0  0  0
  -27.8799  -30.4284   23.9440 H   0  0  0  0  0  0
  -27.2645  -33.3625   26.2076 H   0  0  0  0  0  0
  -28.3854  -32.6904   25.0326 H   0  0  0  0  0  0
  -28.0719  -31.8460   26.5413 H   0  0  0  0  0  0
  -28.2587  -38.0106   24.7521 H   0  0  0  0  0  0
  -28.1089  -36.2637   24.6266 H   0  0  0  0  0  0
  -27.2303  -37.1421   25.8864 H   0  0  0  0  0  0
  -20.9375  -29.8769   21.6881 H   0  0  0  0  0  0
  -26.0169  -38.2846   24.1422 H   0  0  0  0  0  0
  -27.9687  -19.9831   21.3923 H   0  0  0  0  0  0
  -31.9013  -17.3762   19.8474 H   0  0  0  0  0  0
  -27.2182  -24.6652   20.5514 H   0  0  0  0  0  0
  -27.9328  -24.7575   18.9481 H   0  0  0  0  0  0
  -28.8779  -15.4391   21.1169 H   0  0  0  0  0  0
  -28.3521  -22.2703   19.9827 H   0  0  0  0  0  0
  1 25  1  0  0  0
  1 30  2  0  0  0
  1 80  1  0  0  0
  2  3  1  0  0  0
  2 25  1  0  0  0
  2 86  1  0  0  0
  2 87  1  0  0  0
  3  4  1  0  0  0
  3 88  1  0  0  0
  3 89  1  0  0  0
  4  5  1  0  0  0
  4 90  1  0  0  0
  4 91  1  0  0  0
  5  6  1  0  0  0
  5 26  1  0  0  0
  5 92  1  0  0  0
  6 25  1  0  0  0
  6 93  1  0  0  0
  6 94  1  0  0  0
  7  8  2  0  0  0
  7 26  1  0  0  0
  7 29  1  0  0  0
  8  9  1  0  0  0
  8 22  1  0  0  0
  9 10  1  0  0  0
  9 27  2  0  0  0
 10 11  2  0  0  0
 10 15  1  0  0  0
 11 12  1  0  0  0
 11 95  1  0  0  0
 12 13  2  0  0  0
 12 96  1  0  0  0
 13 14  1  0  0  0
 13 31  1  0  0  0
 14 15  2  0  0  0
 14 97  1  0  0  0
 15 98  1  0  0  0
 16 17  2  0  0  0
 16 21  1  0  0  0
 16 31  1  0  0  0
 17 18  1  0  0  0
 17 99  1  0  0  0
 18 19  2  0  0  0
 18100  1  0  0  0
 19 20  1  0  0  0
 19 24  1  0  0  0
 20 21  2  0  0  0
 20101  1  0  0  0
 21 23  1  0  0  0
 22 28  1  0  0  0
 22 32  2  0  0  0
 26 27  1  0  0  0
 28102  1  0  0  0
 28103  1  0  0  0
 29104  1  0  0  0
 29105  1  0  0  0
 33 34  1  0  0  0
 33 66  1  0  0  0
 33 70  2  0  0  0
 34 36  1  0  0  0
 34 59  1  0  0  0
 34106  1  0  0  0
 35 44  2  0  0  0
 35 45  1  0  0  0
 35 68  1  0  0  0
 36 56  1  0  0  0
 36107  1  0  0  0
 37 39  1  0  0  0
 37 47  1  0  0  0
 37 66  1  0  0  0
 37108  1  0  0  0
 38 43  2  0  0  0
 38 46  1  0  0  0
 38 47  1  0  0  0
 39 64  1  0  0  0
 39 67  2  0  0  0
 40 52  1  0  0  0
 40 53  2  0  0  0
 40 58  1  0  0  0
 41109  1  0  0  0
 41110  1  0  0  0
 41111  1  0  0  0
 41 48  1  0  0  0
 42 43  1  0  0  0
 42 66  1  0  0  0
 42112  1  0  0  0
 42113  1  0  0  0
 43 44  1  0  0  0
 44114  1  0  0  0
 45 46  2  0  0  0
 45115  1  0  0  0
 46116  1  0  0  0
 47117  1  0  0  0
 47118  1  0  0  0
 48 56  1  0  0  0
 48 65  1  0  0  0
 48119  1  0  0  0
 49 50  1  0  0  0
 49 53  1  0  0  0
 49 64  1  0  0  0
 49120  1  0  0  0
 50 51  1  0  0  0
 50121  1  0  0  0
 50122  1  0  0  0
 51 52  1  0  0  0
 51123  1  0  0  0
 51124  1  0  0  0
 52125  1  0  0  0
 52126  1  0  0  0
 53 54  1  0  0  0
 54 55  2  0  0  0
 54127  1  0  0  0
 55 57  1  0  0  0
 55128  1  0  0  0
 56 69  2  0  0  0
 57 58  2  0  0  0
 57129  1  0  0  0
 58130  1  0  0  0
 59 60  1  0  0  0
 59 61  1  0  0  0
 59 62  1  0  0  0
 60131  1  0  0  0
 60132  1  0  0  0
 60133  1  0  0  0
 61134  1  0  0  0
 61135  1  0  0  0
 61136  1  0  0  0
 62137  1  0  0  0
 62138  1  0  0  0
 62139  1  0  0  0
 63 65  1  0  0  0
 63140  1  0  0  0
 63141  1  0  0  0
 63142  1  0  0  0
 64143  1  0  0  0
 65144  1  0  0  0
 68 79  1  0  0  0
 71 73  2  0  0  0
 71 75  1  0  0  0
 71145  1  0  0  0
 72 74  1  0  0  0
 72 76  2  0  0  0
 72146  1  0  0  0
 73 76  1  0  0  0
 73 77  1  0  0  0
 74 75  2  0  0  0
 74 80  1  0  0  0
 75 84  1  0  0  0
 76 85  1  0  0  0
 77 81  1  0  0  0
 77 82  2  0  0  0
 78 79  1  0  0  0
 78 81  1  0  0  0
 78 83  2  0  0  0
 79147  1  0  0  0
 79148  1  0  0  0
 80149  1  0  0  0
 81150  1  0  0  0
M  ISO  4   1 100  68 101  79 101  80 100
M  END
> <chiral flag>
0

> <version>
0

> <s_m_source_file>
/data/baiqing/PycharmProjects/Reinvent-master-3.2/result/LINK_invent/BTK/process_docking_weight1_custom_product_contain_oxygen_bond_distance_aromatic_linkinvent_7_9_3/rearranged_h_0068.sdf

> <i_m_source_file_index>
80

> <r_mmod_Potential_Energy-OPLS-2005>
-96.7902450561523

> <r_mmod_Stretch_Energy-OPLS-2005>
92.008171081543

> <r_mmod_Bend_Energy-OPLS-2005>
148.511520385742

> <r_mmod_Torsional_Energy-OPLS-2005>
225.097518920898

> <r_mmod_Improper_Torsional_Energy-OPLS-2005>
4.9792046546936

> <r_mmod_Van_der_Waal_Energy-OPLS-2005>
150.998489379883

> <r_mmod_Electrostatic_Energy-OPLS-2005>
-485.469848632812

> <r_mmod_Solvation_Energy-OPLS-2005>
-292.6416015625

> <b_mmod_Minimization_Converged-OPLS-2005>
0

> <r_mmod_RMS_Derivative-OPLS-2005>
0.295761317014694

$$$$
80
                    3D
 Structure written by MMmdl.
157166  0  0  1  0            999 V2000
  -30.6168  -14.7414   20.4960 C   0  0  0  0  0  0
  -30.4425  -12.4527   19.5009 C   0  0  0  0  0  0
  -29.5320  -12.5284   18.2553 C   0  0  0  0  0  0
  -28.0538  -12.3527   18.6549 C   0  0  0  0  0  0
  -27.6544  -13.2355   19.8692 C   0  0  2  0  0  0
  -28.6913  -13.1473   21.0128 C   0  0  0  0  0  0
  -25.2564  -13.8205   20.5708 C   0  0  0  0  0  0
  -24.1833  -13.0452   20.9164 C   0  0  0  0  0  0
  -24.6433  -11.6927   20.8716 C   0  0  0  0  0  0
  -23.9106  -10.4300   21.0387 C   0  0  0  0  0  0
  -24.3651   -9.4210   21.9156 C   0  0  0  0  0  0
  -23.6309   -8.2256   22.0743 C   0  0  0  0  0  0
  -22.4288   -8.0311   21.3553 C   0  0  0  0  0  0
  -21.9913   -9.0285   20.4645 C   0  0  0  0  0  0
  -22.7261  -10.2147   20.3042 C   0  0  0  0  0  0
  -21.6856   -6.0751   22.5268 C   0  0  0  0  0  0
  -21.4025   -6.5634   23.8209 C   0  0  0  0  0  0
  -21.3649   -5.6787   24.9167 C   0  0  0  0  0  0
  -21.6042   -4.3047   24.7201 C   0  0  0  0  0  0
  -21.8816   -3.8151   23.4323 C   0  0  0  0  0  0
  -21.9194   -4.6983   22.3386 C   0  0  0  0  0  0
  -22.7848  -13.5229   21.1843 C   0  0  0  0  0  0
  -22.1656   -4.2183   21.0964 F   0  0  0  0  0  0
  -21.5625   -3.4510   25.7699 F   0  0  0  0  0  0
  -30.0038  -13.5034   20.4542 N   0  0  0  0  0  0
  -26.3011  -12.9415   20.3319 N   0  0  0  0  0  0
  -25.9361  -11.6548   20.5725 N   0  0  0  0  0  0
  -22.0509  -12.8230   22.0424 N   0  0  0  0  0  0
  -25.4291  -15.1932   20.4187 N   0  0  0  0  0  0
  -31.7609  -14.8677   20.0537 O   0  0  0  0  0  0
  -21.6649   -6.8905   21.4240 O   0  0  0  0  0  0
  -22.3518  -14.5549   20.6721 O   0  0  0  0  0  0
  -24.6340  -31.8506   23.1954 C   0  0  0  0  0  0
  -25.9144  -32.4739   23.8324 C   0  0  1  0  0  0
  -27.2569  -27.2507   20.1655 C   0  0  0  0  0  0
  -25.5913  -33.8543   24.2241 N   0  0  0  0  0  0
  -23.4354  -30.4672   21.5370 C   0  0  2  0  0  0
  -24.8935  -28.9083   20.1113 C   0  0  0  0  0  0
  -22.7528  -29.4555   22.4904 C   0  0  0  0  0  0
  -18.0295  -28.1411   22.8487 C   0  0  0  0  0  0
  -24.1477  -36.7272   23.2639 C   0  0  0  0  0  0
  -25.9795  -30.7623   21.3778 C   0  0  0  0  0  0
  -26.0590  -29.3830   20.7228 C   0  0  0  0  0  0
  -27.2387  -28.5707   20.7333 C   0  0  0  0  0  0
  -26.0627  -26.8354   19.5312 C   0  0  0  0  0  0
  -24.9021  -27.6409   19.5013 C   0  0  0  0  0  0
  -23.6589  -29.7919   20.1554 C   0  0  0  0  0  0
  -25.4104  -36.3061   24.0327 C   0  0  1  0  0  0
  -20.5895  -28.3703   23.1271 C   0  0  2  0  0  0
  -20.6777  -26.9415   22.5414 C   0  0  0  0  0  0
  -19.5741  -26.6377   21.5234 C   0  0  0  0  0  0
  -18.1928  -26.7943   22.1645 C   0  0  0  0  0  0
  -19.1552  -28.8882   23.2864 C   0  0  0  0  0  0
  -18.9464  -30.1483   23.8887 C   0  0  0  0  0  0
  -17.6465  -30.6602   24.0565 C   0  0  0  0  0  0
  -25.9046  -34.9430   23.5087 C   0  0  0  0  0  0
  -16.5358  -29.9100   23.6337 C   0  0  0  0  0  0
  -16.7285  -28.6520   23.0355 C   0  0  0  0  0  0
  -26.4501  -31.6594   25.0741 C   0  0  0  0  0  0
  -25.3717  -31.3813   26.1471 C   0  0  0  0  0  0
  -27.0325  -30.2985   24.6276 C   0  0  0  0  0  0
  -27.6055  -32.4349   25.7498 C   0  0  0  0  0  0
  -27.5582  -37.1779   24.8455 C   0  0  0  0  0  0
  -21.4229  -29.3032   22.3651 N   0  0  0  0  0  0
  -26.4281  -37.3765   23.9425 N   0  0  0  0  0  0
  -24.7016  -31.0447   22.0928 N   0  0  0  0  0  0
  -23.4212  -28.8100   23.3026 O   0  0  0  0  0  0
  -28.3712  -26.3748   20.2905 O   0  0  0  0  0  0
  -26.5621  -34.8912   22.4659 O   0  0  0  0  0  0
  -23.5479  -32.1332   23.7218 O   0  0  0  0  0  0
  -28.8939  -19.5937   18.9771 C   0  0  0  0  0  0
  -29.7959  -18.4906   20.9406 C   0  0  0  0  0  0
  -29.2007  -17.1546   18.9930 C   0  0  0  0  0  0
  -29.4291  -19.7570   20.2799 C   0  0  0  0  0  0
  -28.7796  -18.3360   18.3498 C   0  0  0  0  0  0
  -29.7017  -17.1718   20.3108 C   0  0  0  0  0  0
  -28.9123  -23.8661   20.5624 C   0  0  0  0  0  0
  -29.5603  -23.9613   21.8746 C   0  0  0  0  0  0
  -30.3406  -21.5075   21.8530 C   0  0  0  0  0  0
  -28.3509  -24.9849   19.9348 C   0  0  0  0  0  0
  -28.9441  -22.3724   20.0041 C   0  0  0  0  0  0
  -30.7033  -22.9787   22.1508 C   0  0  0  0  0  0
  -29.5514  -21.1846   20.7867 N   0  0  0  0  0  0
  -28.2235  -18.2597   17.0736 N   0  0  0  0  0  0
  -29.9110  -15.8448   20.9554 N   0  0  0  0  0  0
  -29.2481  -24.7915   22.7351 O   0  0  0  0  0  0
  -30.8343  -20.6655   22.6107 O   0  0  0  0  0  0
  -31.4896  -12.5647   19.2111 H   0  0  0  0  0  0
  -30.3748  -11.4682   19.9673 H   0  0  0  0  0  0
  -29.8173  -11.7633   17.5324 H   0  0  0  0  0  0
  -29.6722  -13.4895   17.7585 H   0  0  0  0  0  0
  -27.9007  -11.2995   18.8955 H   0  0  0  0  0  0
  -27.4093  -12.5679   17.8020 H   0  0  0  0  0  0
  -27.6591  -14.2644   19.5094 H   0  0  0  0  0  0
  -28.7153  -12.1398   21.4333 H   0  0  0  0  0  0
  -28.4172  -13.8106   21.8347 H   0  0  0  0  0  0
  -25.2800   -9.5654   22.4728 H   0  0  0  0  0  0
  -24.0011   -7.4616   22.7430 H   0  0  0  0  0  0
  -21.0848   -8.8802   19.8935 H   0  0  0  0  0  0
  -22.3726  -10.9690   19.6156 H   0  0  0  0  0  0
  -21.2041   -7.6140   23.9719 H   0  0  0  0  0  0
  -21.1465   -6.0512   25.9072 H   0  0  0  0  0  0
  -22.0616   -2.7618   23.2804 H   0  0  0  0  0  0
  -22.4117  -11.9899   22.4836 H   0  0  0  0  0  0
  -21.1126  -13.1250   22.2627 H   0  0  0  0  0  0
  -24.6760  -15.8567   20.5575 H   0  0  0  0  0  0
  -26.2960  -15.6323   20.1348 H   0  0  0  0  0  0
  -26.7223  -32.5385   23.1079 H   0  0  0  0  0  0
  -25.0078  -33.9670   25.0399 H   0  0  0  0  0  0
  -22.7349  -31.2910   21.3873 H   0  0  0  0  0  0
  -23.3757  -35.9584   23.3270 H   0  0  0  0  0  0
  -24.3585  -36.8922   22.2062 H   0  0  0  0  0  0
  -23.7200  -37.6451   23.6684 H   0  0  0  0  0  0
  -26.1234  -31.5219   20.6084 H   0  0  0  0  0  0
  -26.8536  -30.8116   22.0150 H   0  0  0  0  0  0
  -28.1295  -28.9349   21.2266 H   0  0  0  0  0  0
  -25.9944  -25.8513   19.0922 H   0  0  0  0  0  0
  -24.0100  -27.2590   19.0259 H   0  0  0  0  0  0
  -23.7825  -30.5655   19.3979 H   0  0  0  0  0  0
  -22.7806  -29.2219   19.8485 H   0  0  0  0  0  0
  -25.1277  -36.1913   25.0819 H   0  0  0  0  0  0
  -20.9987  -28.3294   24.1392 H   0  0  0  0  0  0
  -20.5702  -26.2310   23.3621 H   0  0  0  0  0  0
  -21.6643  -26.7443   22.1197 H   0  0  0  0  0  0
  -19.6882  -25.6283   21.1273 H   0  0  0  0  0  0
  -19.6668  -27.3182   20.6761 H   0  0  0  0  0  0
  -17.4179  -26.6688   21.4065 H   0  0  0  0  0  0
  -18.0319  -26.0119   22.9073 H   0  0  0  0  0  0
  -19.7940  -30.7305   24.2252 H   0  0  0  0  0  0
  -17.5014  -31.6289   24.5156 H   0  0  0  0  0  0
  -15.5357  -30.2989   23.7670 H   0  0  0  0  0  0
  -15.8681  -28.0832   22.7074 H   0  0  0  0  0  0
  -24.5775  -30.7307   25.7797 H   0  0  0  0  0  0
  -24.9071  -32.3034   26.4978 H   0  0  0  0  0  0
  -25.7994  -30.8882   27.0207 H   0  0  0  0  0  0
  -26.2913  -29.6755   24.1256 H   0  0  0  0  0  0
  -27.3911  -29.7251   25.4837 H   0  0  0  0  0  0
  -27.8843  -30.4228   23.9586 H   0  0  0  0  0  0
  -27.2658  -33.3655   26.2061 H   0  0  0  0  0  0
  -28.3853  -32.6904   25.0311 H   0  0  0  0  0  0
  -28.0732  -31.8496   26.5424 H   0  0  0  0  0  0
  -28.2562  -38.0111   24.7542 H   0  0  0  0  0  0
  -28.1106  -36.2642   24.6210 H   0  0  0  0  0  0
  -27.2313  -37.1345   25.8858 H   0  0  0  0  0  0
  -20.9441  -29.8756   21.6832 H   0  0  0  0  0  0
  -26.0153  -38.2826   24.1475 H   0  0  0  0  0  0
  -28.5557  -20.4512   18.4149 H   0  0  0  0  0  0
  -30.1504  -18.5058   21.9606 H   0  0  0  0  0  0
  -29.0829  -16.2097   18.4829 H   0  0  0  0  0  0
  -27.9077  -24.8587   18.9606 H   0  0  0  0  0  0
  -29.4629  -22.4201   19.0457 H   0  0  0  0  0  0
  -27.9088  -22.1168   19.7877 H   0  0  0  0  0  0
  -31.0151  -23.0701   23.1928 H   0  0  0  0  0  0
  -31.5660  -23.2581   21.5457 H   0  0  0  0  0  0
  -27.5837  -18.9981   16.7965 H   0  0  0  0  0  0
  -27.9156  -17.3508   16.7449 H   0  0  0  0  0  0
  -29.1415  -15.5737   21.5500 H   0  0  0  0  0  0
  1 25  1  0  0  0
  1 30  2  0  0  0
  1 85  1  0  0  0
  2  3  1  0  0  0
  2 25  1  0  0  0
  2 88  1  0  0  0
  2 89  1  0  0  0
  3  4  1  0  0  0
  3 90  1  0  0  0
  3 91  1  0  0  0
  4  5  1  0  0  0
  4 92  1  0  0  0
  4 93  1  0  0  0
  5  6  1  0  0  0
  5 26  1  0  0  0
  5 94  1  0  0  0
  6 25  1  0  0  0
  6 95  1  0  0  0
  6 96  1  0  0  0
  7  8  2  0  0  0
  7 26  1  0  0  0
  7 29  1  0  0  0
  8  9  1  0  0  0
  8 22  1  0  0  0
  9 10  1  0  0  0
  9 27  2  0  0  0
 10 11  2  0  0  0
 10 15  1  0  0  0
 11 12  1  0  0  0
 11 97  1  0  0  0
 12 13  2  0  0  0
 12 98  1  0  0  0
 13 14  1  0  0  0
 13 31  1  0  0  0
 14 15  2  0  0  0
 14 99  1  0  0  0
 15100  1  0  0  0
 16 17  2  0  0  0
 16 21  1  0  0  0
 16 31  1  0  0  0
 17 18  1  0  0  0
 17101  1  0  0  0
 18 19  2  0  0  0
 18102  1  0  0  0
 19 20  1  0  0  0
 19 24  1  0  0  0
 20 21  2  0  0  0
 20103  1  0  0  0
 21 23  1  0  0  0
 22 28  1  0  0  0
 22 32  2  0  0  0
 26 27  1  0  0  0
 28104  1  0  0  0
 28105  1  0  0  0
 29106  1  0  0  0
 29107  1  0  0  0
 33 34  1  0  0  0
 33 66  1  0  0  0
 33 70  2  0  0  0
 34 36  1  0  0  0
 34 59  1  0  0  0
 34108  1  0  0  0
 35 44  2  0  0  0
 35 45  1  0  0  0
 35 68  1  0  0  0
 36 56  1  0  0  0
 36109  1  0  0  0
 37 39  1  0  0  0
 37 47  1  0  0  0
 37 66  1  0  0  0
 37110  1  0  0  0
 38 43  2  0  0  0
 38 46  1  0  0  0
 38 47  1  0  0  0
 39 64  1  0  0  0
 39 67  2  0  0  0
 40 52  1  0  0  0
 40 53  2  0  0  0
 40 58  1  0  0  0
 41111  1  0  0  0
 41112  1  0  0  0
 41113  1  0  0  0
 41 48  1  0  0  0
 42 43  1  0  0  0
 42 66  1  0  0  0
 42114  1  0  0  0
 42115  1  0  0  0
 43 44  1  0  0  0
 44116  1  0  0  0
 45 46  2  0  0  0
 45117  1  0  0  0
 46118  1  0  0  0
 47119  1  0  0  0
 47120  1  0  0  0
 48 56  1  0  0  0
 48 65  1  0  0  0
 48121  1  0  0  0
 49 50  1  0  0  0
 49 53  1  0  0  0
 49 64  1  0  0  0
 49122  1  0  0  0
 50 51  1  0  0  0
 50123  1  0  0  0
 50124  1  0  0  0
 51 52  1  0  0  0
 51125  1  0  0  0
 51126  1  0  0  0
 52127  1  0  0  0
 52128  1  0  0  0
 53 54  1  0  0  0
 54 55  2  0  0  0
 54129  1  0  0  0
 55 57  1  0  0  0
 55130  1  0  0  0
 56 69  2  0  0  0
 57 58  2  0  0  0
 57131  1  0  0  0
 58132  1  0  0  0
 59 60  1  0  0  0
 59 61  1  0  0  0
 59 62  1  0  0  0
 60133  1  0  0  0
 60134  1  0  0  0
 60135  1  0  0  0
 61136  1  0  0  0
 61137  1  0  0  0
 61138  1  0  0  0
 62139  1  0  0  0
 62140  1  0  0  0
 62141  1  0  0  0
 63 65  1  0  0  0
 63142  1  0  0  0
 63143  1  0  0  0
 63144  1  0  0  0
 64145  1  0  0  0
 65146  1  0  0  0
 68 80  1  0  0  0
 71 74  2  0  0  0
 71 75  1  0  0  0
 71147  1  0  0  0
 72 74  1  0  0  0
 72 76  2  0  0  0
 72148  1  0  0  0
 73 75  2  0  0  0
 73 76  1  0  0  0
 73149  1  0  0  0
 74 83  1  0  0  0
 75 84  1  0  0  0
 76 85  1  0  0  0
 77 78  1  0  0  0
 77 80  2  0  0  0
 77 81  1  0  0  0
 78 82  1  0  0  0
 78 86  2  0  0  0
 79 82  1  0  0  0
 79 83  1  0  0  0
 79 87  2  0  0  0
 80150  1  0  0  0
 81 83  1  0  0  0
 81151  1  0  0  0
 81152  1  0  0  0
 82153  1  0  0  0
 82154  1  0  0  0
 84155  1  0  0  0
 84156  1  0  0  0
 85157  1  0  0  0
M  ISO  4   1 100  68 101  80 101  85 100
M  END
> <chiral flag>
0

> <version>
0

> <s_m_source_file>
/data/baiqing/PycharmProjects/Reinvent-master-3.2/result/LINK_invent/BTK/process_docking_weight1_custom_product_contain_oxygen_bond_distance_aromatic_linkinvent_7_9_3/rearranged_h_0068.sdf

> <i_m_source_file_index>
81

> <r_mmod_Potential_Energy-OPLS-2005>
262.485870361328

> <r_mmod_Stretch_Energy-OPLS-2005>
149.021575927734

> <r_mmod_Bend_Energy-OPLS-2005>
179.677658081055

> <r_mmod_Torsional_Energy-OPLS-2005>
293.382110595703

> <r_mmod_Improper_Torsional_Energy-OPLS-2005>
9.39756870269775

> <r_mmod_Van_der_Waal_Energy-OPLS-2005>
152.100646972656

> <r_mmod_Electrostatic_Energy-OPLS-2005>
-349.477264404297

> <r_mmod_Solvation_Energy-OPLS-2005>
-260.252716064453

> <b_mmod_Minimization_Converged-OPLS-2005>
0

> <r_mmod_RMS_Derivative-OPLS-2005>
3.96160554885864

$$$$
81
                    3D
 Structure written by MMmdl.
160169  0  0  1  0            999 V2000
  -30.6103  -14.7776   20.4495 C   0  0  0  0  0  0
  -30.4416  -12.4665   19.5073 C   0  0  0  0  0  0
  -29.5303  -12.5277   18.2594 C   0  0  0  0  0  0
  -28.0502  -12.3570   18.6573 C   0  0  0  0  0  0
  -27.6510  -13.2480   19.8640 C   0  0  2  0  0  0
  -28.6948  -13.1805   21.0039 C   0  0  0  0  0  0
  -25.2523  -13.8249   20.5712 C   0  0  0  0  0  0
  -24.1817  -13.0476   20.9210 C   0  0  0  0  0  0
  -24.6438  -11.6958   20.8752 C   0  0  0  0  0  0
  -23.9123  -10.4316   21.0417 C   0  0  0  0  0  0
  -24.3665   -9.4220   21.9194 C   0  0  0  0  0  0
  -23.6347   -8.2255   22.0755 C   0  0  0  0  0  0
  -22.4319   -8.0308   21.3551 C   0  0  0  0  0  0
  -21.9960   -9.0288   20.4655 C   0  0  0  0  0  0
  -22.7292  -10.2160   20.3071 C   0  0  0  0  0  0
  -21.6848   -6.0791   22.5285 C   0  0  0  0  0  0
  -21.4017   -6.5679   23.8231 C   0  0  0  0  0  0
  -21.3640   -5.6809   24.9172 C   0  0  0  0  0  0
  -21.6047   -4.3072   24.7208 C   0  0  0  0  0  0
  -21.8808   -3.8185   23.4316 C   0  0  0  0  0  0
  -21.9181   -4.7016   22.3385 C   0  0  0  0  0  0
  -22.7820  -13.5244   21.1813 C   0  0  0  0  0  0
  -22.1650   -4.2214   21.0961 F   0  0  0  0  0  0
  -21.5608   -3.4542   25.7706 F   0  0  0  0  0  0
  -30.0013  -13.5370   20.4364 N   0  0  0  0  0  0
  -26.2992  -12.9489   20.3346 N   0  0  0  0  0  0
  -25.9387  -11.6618   20.5780 N   0  0  0  0  0  0
  -22.0441  -12.8280   22.0384 N   0  0  0  0  0  0
  -25.4191  -15.1971   20.4113 N   0  0  0  0  0  0
  -31.7760  -14.8748   20.0536 O   0  0  0  0  0  0
  -21.6648   -6.8942   21.4261 O   0  0  0  0  0  0
  -22.3521  -14.5527   20.6617 O   0  0  0  0  0  0
  -24.6298  -31.8575   23.2027 C   0  0  0  0  0  0
  -25.9137  -32.4770   23.8362 C   0  0  1  0  0  0
  -27.2057  -27.2510   20.1229 C   0  0  0  0  0  0
  -25.5953  -33.8576   24.2268 N   0  0  0  0  0  0
  -23.4251  -30.4877   21.5439 C   0  0  2  0  0  0
  -24.8700  -28.9404   20.1066 C   0  0  0  0  0  0
  -22.7483  -29.4657   22.4889 C   0  0  0  0  0  0
  -18.0299  -28.1387   22.8469 C   0  0  0  0  0  0
  -24.1489  -36.7264   23.2637 C   0  0  0  0  0  0
  -25.9750  -30.7621   21.3946 C   0  0  0  0  0  0
  -26.0414  -29.3876   20.7283 C   0  0  0  0  0  0
  -27.2061  -28.5524   20.7350 C   0  0  0  0  0  0
  -26.0165  -26.8963   19.4403 C   0  0  0  0  0  0
  -24.8638  -27.7018   19.4542 C   0  0  0  0  0  0
  -23.6417  -29.8276   20.1580 C   0  0  0  0  0  0
  -25.4122  -36.3072   24.0320 C   0  0  1  0  0  0
  -20.5903  -28.3711   23.1234 C   0  0  2  0  0  0
  -20.6799  -26.9432   22.5385 C   0  0  0  0  0  0
  -19.5783  -26.6377   21.5191 C   0  0  0  0  0  0
  -18.1955  -26.7932   22.1599 C   0  0  0  0  0  0
  -19.1552  -28.8865   23.2847 C   0  0  0  0  0  0
  -18.9475  -30.1465   23.8872 C   0  0  0  0  0  0
  -17.6478  -30.6597   24.0558 C   0  0  0  0  0  0
  -25.9060  -34.9446   23.5085 C   0  0  0  0  0  0
  -16.5366  -29.9084   23.6345 C   0  0  0  0  0  0
  -16.7287  -28.6500   23.0360 C   0  0  0  0  0  0
  -26.4509  -31.6611   25.0770 C   0  0  0  0  0  0
  -25.3705  -31.3772   26.1472 C   0  0  0  0  0  0
  -27.0389  -30.3021   24.6326 C   0  0  0  0  0  0
  -27.6079  -32.4349   25.7521 C   0  0  0  0  0  0
  -27.5585  -37.1788   24.8461 C   0  0  0  0  0  0
  -21.4200  -29.3066   22.3614 N   0  0  0  0  0  0
  -26.4295  -37.3773   23.9410 N   0  0  0  0  0  0
  -24.6946  -31.0545   22.1012 N   0  0  0  0  0  0
  -23.4186  -28.8198   23.2984 O   0  0  0  0  0  0
  -28.2966  -26.3452   20.2170 O   0  0  0  0  0  0
  -26.5630  -34.8921   22.4645 O   0  0  0  0  0  0
  -23.5445  -32.1412   23.7308 O   0  0  0  0  0  0
  -29.7170  -19.8110   18.7547 C   0  0  0  0  0  0
  -30.0574  -17.3752   18.7626 C   0  0  0  0  0  0
  -29.6020  -18.5587   20.8363 C   0  0  0  0  0  0
  -29.9692  -18.6041   18.0682 C   0  0  0  0  0  0
  -29.5331  -19.8506   20.1485 C   0  0  0  0  0  0
  -29.8779  -17.2855   20.1643 C   0  0  0  0  0  0
  -30.4403  -22.0492   20.8879 C   0  0  0  0  0  0
  -30.1541  -23.3672   20.8617 C   0  0  0  0  0  0
  -28.2778  -22.1275   20.3142 C   0  0  0  0  0  0
  -28.6763  -23.6323   20.7216 C   0  0  2  0  0  0
  -31.1343  -24.5106   20.9958 C   0  0  0  0  0  0
  -28.1826  -24.8874   19.8172 C   0  0  0  0  0  0
  -30.1574  -18.6253   16.5590 C   0  0  0  0  0  0
  -29.3695  -21.1719   20.7368 N   0  0  0  0  0  0
  -29.8780  -15.9184   20.7816 N   0  0  0  0  0  0
  -29.8269  -19.8048   16.0275 F   0  0  0  0  0  0
  -31.4316  -18.3758   16.2633 F   0  0  0  0  0  0
  -29.3951  -17.6905   15.9928 F   0  0  0  0  0  0
  -31.4890  -12.5727   19.2195 H   0  0  0  0  0  0
  -30.3735  -11.4913   19.9924 H   0  0  0  0  0  0
  -29.8196  -11.7568   17.5446 H   0  0  0  0  0  0
  -29.6693  -13.4837   17.7507 H   0  0  0  0  0  0
  -27.8971  -11.3079   18.9098 H   0  0  0  0  0  0
  -27.4009  -12.5618   17.8041 H   0  0  0  0  0  0
  -27.6502  -14.2733   19.4933 H   0  0  0  0  0  0
  -28.7248  -12.1800   21.4390 H   0  0  0  0  0  0
  -28.4279  -13.8564   21.8164 H   0  0  0  0  0  0
  -25.2811   -9.5697   22.4769 H   0  0  0  0  0  0
  -24.0034   -7.4649   22.7490 H   0  0  0  0  0  0
  -21.0858   -8.8829   19.8986 H   0  0  0  0  0  0
  -22.3750  -10.9709   19.6179 H   0  0  0  0  0  0
  -21.2039   -7.6198   23.9770 H   0  0  0  0  0  0
  -21.1462   -6.0521   25.9079 H   0  0  0  0  0  0
  -22.0604   -2.7656   23.2777 H   0  0  0  0  0  0
  -22.4025  -11.9970   22.4858 H   0  0  0  0  0  0
  -21.1066  -13.1353   22.2538 H   0  0  0  0  0  0
  -24.6558  -15.8518   20.5405 H   0  0  0  0  0  0
  -26.2701  -15.6365   20.0843 H   0  0  0  0  0  0
  -26.7199  -32.5407   23.1090 H   0  0  0  0  0  0
  -25.0135  -33.9733   25.0443 H   0  0  0  0  0  0
  -22.7222  -31.3113   21.4024 H   0  0  0  0  0  0
  -23.3779  -35.9564   23.3270 H   0  0  0  0  0  0
  -24.3579  -36.8923   22.2057 H   0  0  0  0  0  0
  -23.7206  -37.6436   23.6683 H   0  0  0  0  0  0
  -26.1315  -31.5307   20.6373 H   0  0  0  0  0  0
  -26.8430  -30.7950   22.0402 H   0  0  0  0  0  0
  -28.0946  -28.8830   21.2544 H   0  0  0  0  0  0
  -25.9229  -25.9838   18.8772 H   0  0  0  0  0  0
  -23.9715  -27.3626   18.9469 H   0  0  0  0  0  0
  -23.7625  -30.6051   19.4025 H   0  0  0  0  0  0
  -22.7580  -29.2628   19.8556 H   0  0  0  0  0  0
  -25.1303  -36.1915   25.0814 H   0  0  0  0  0  0
  -21.0011  -28.3306   24.1347 H   0  0  0  0  0  0
  -20.5687  -26.2342   23.3593 H   0  0  0  0  0  0
  -21.6670  -26.7461   22.1200 H   0  0  0  0  0  0
  -19.6952  -25.6270   21.1262 H   0  0  0  0  0  0
  -19.6719  -27.3149   20.6685 H   0  0  0  0  0  0
  -17.4225  -26.6662   21.3998 H   0  0  0  0  0  0
  -18.0373  -26.0075   22.9000 H   0  0  0  0  0  0
  -19.7954  -30.7285   24.2223 H   0  0  0  0  0  0
  -17.5040  -31.6280   24.5149 H   0  0  0  0  0  0
  -15.5371  -30.2980   23.7687 H   0  0  0  0  0  0
  -15.8689  -28.0822   22.7078 H   0  0  0  0  0  0
  -24.5861  -30.7174   25.7741 H   0  0  0  0  0  0
  -24.8931  -32.2963   26.4884 H   0  0  0  0  0  0
  -25.7988  -30.8908   27.0248 H   0  0  0  0  0  0
  -26.3019  -29.6733   24.1330 H   0  0  0  0  0  0
  -27.4013  -29.7341   25.4903 H   0  0  0  0  0  0
  -27.8916  -30.4271   23.9650 H   0  0  0  0  0  0
  -27.2733  -33.3684   26.2043 H   0  0  0  0  0  0
  -28.3914  -32.6841   25.0356 H   0  0  0  0  0  0
  -28.0721  -31.8506   26.5473 H   0  0  0  0  0  0
  -28.2593  -38.0098   24.7549 H   0  0  0  0  0  0
  -28.1100  -36.2638   24.6245 H   0  0  0  0  0  0
  -27.2315  -37.1383   25.8867 H   0  0  0  0  0  0
  -20.9366  -29.8746   21.6797 H   0  0  0  0  0  0
  -26.0173  -38.2845   24.1413 H   0  0  0  0  0  0
  -29.6857  -20.7371   18.1990 H   0  0  0  0  0  0
  -30.2459  -16.4860   18.1797 H   0  0  0  0  0  0
  -29.4589  -18.5587   21.9082 H   0  0  0  0  0  0
  -31.4261  -21.6150   20.9948 H   0  0  0  0  0  0
  -28.1543  -22.0777   19.2304 H   0  0  0  0  0  0
  -27.3195  -21.8456   20.7526 H   0  0  0  0  0  0
  -28.3070  -23.8092   21.7329 H   0  0  0  0  0  0
  -32.1655  -24.1549   21.0096 H   0  0  0  0  0  0
  -30.9444  -25.0702   21.9107 H   0  0  0  0  0  0
  -31.0242  -25.1981   20.1583 H   0  0  0  0  0  0
  -27.1410  -24.6324   19.6699 H   0  0  0  0  0  0
  -28.6406  -24.7946   18.8314 H   0  0  0  0  0  0
  -29.0906  -15.7332   21.3866 H   0  0  0  0  0  0
  1 25  1  0  0  0
  1 30  2  0  0  0
  1 85  1  0  0  0
  2  3  1  0  0  0
  2 25  1  0  0  0
  2 89  1  0  0  0
  2 90  1  0  0  0
  3  4  1  0  0  0
  3 91  1  0  0  0
  3 92  1  0  0  0
  4  5  1  0  0  0
  4 93  1  0  0  0
  4 94  1  0  0  0
  5  6  1  0  0  0
  5 26  1  0  0  0
  5 95  1  0  0  0
  6 25  1  0  0  0
  6 96  1  0  0  0
  6 97  1  0  0  0
  7  8  2  0  0  0
  7 26  1  0  0  0
  7 29  1  0  0  0
  8  9  1  0  0  0
  8 22  1  0  0  0
  9 10  1  0  0  0
  9 27  2  0  0  0
 10 11  2  0  0  0
 10 15  1  0  0  0
 11 12  1  0  0  0
 11 98  1  0  0  0
 12 13  2  0  0  0
 12 99  1  0  0  0
 13 14  1  0  0  0
 13 31  1  0  0  0
 14 15  2  0  0  0
 14100  1  0  0  0
 15101  1  0  0  0
 16 17  2  0  0  0
 16 21  1  0  0  0
 16 31  1  0  0  0
 17 18  1  0  0  0
 17102  1  0  0  0
 18 19  2  0  0  0
 18103  1  0  0  0
 19 20  1  0  0  0
 19 24  1  0  0  0
 20 21  2  0  0  0
 20104  1  0  0  0
 21 23  1  0  0  0
 22 28  1  0  0  0
 22 32  2  0  0  0
 26 27  1  0  0  0
 28105  1  0  0  0
 28106  1  0  0  0
 29107  1  0  0  0
 29108  1  0  0  0
 33 34  1  0  0  0
 33 66  1  0  0  0
 33 70  2  0  0  0
 34 36  1  0  0  0
 34 59  1  0  0  0
 34109  1  0  0  0
 35 44  2  0  0  0
 35 45  1  0  0  0
 35 68  1  0  0  0
 36 56  1  0  0  0
 36110  1  0  0  0
 37 39  1  0  0  0
 37 47  1  0  0  0
 37 66  1  0  0  0
 37111  1  0  0  0
 38 43  2  0  0  0
 38 46  1  0  0  0
 38 47  1  0  0  0
 39 64  1  0  0  0
 39 67  2  0  0  0
 40 52  1  0  0  0
 40 53  2  0  0  0
 40 58  1  0  0  0
 41112  1  0  0  0
 41113  1  0  0  0
 41114  1  0  0  0
 41 48  1  0  0  0
 42 43  1  0  0  0
 42 66  1  0  0  0
 42115  1  0  0  0
 42116  1  0  0  0
 43 44  1  0  0  0
 44117  1  0  0  0
 45 46  2  0  0  0
 45118  1  0  0  0
 46119  1  0  0  0
 47120  1  0  0  0
 47121  1  0  0  0
 48 56  1  0  0  0
 48 65  1  0  0  0
 48122  1  0  0  0
 49 50  1  0  0  0
 49 53  1  0  0  0
 49 64  1  0  0  0
 49123  1  0  0  0
 50 51  1  0  0  0
 50124  1  0  0  0
 50125  1  0  0  0
 51 52  1  0  0  0
 51126  1  0  0  0
 51127  1  0  0  0
 52128  1  0  0  0
 52129  1  0  0  0
 53 54  1  0  0  0
 54 55  2  0  0  0
 54130  1  0  0  0
 55 57  1  0  0  0
 55131  1  0  0  0
 56 69  2  0  0  0
 57 58  2  0  0  0
 57132  1  0  0  0
 58133  1  0  0  0
 59 60  1  0  0  0
 59 61  1  0  0  0
 59 62  1  0  0  0
 60134  1  0  0  0
 60135  1  0  0  0
 60136  1  0  0  0
 61137  1  0  0  0
 61138  1  0  0  0
 61139  1  0  0  0
 62140  1  0  0  0
 62141  1  0  0  0
 62142  1  0  0  0
 63 65  1  0  0  0
 63143  1  0  0  0
 63144  1  0  0  0
 63145  1  0  0  0
 64146  1  0  0  0
 65147  1  0  0  0
 68 82  1  0  0  0
 71 74  2  0  0  0
 71 75  1  0  0  0
 71148  1  0  0  0
 72 74  1  0  0  0
 72 76  2  0  0  0
 72149  1  0  0  0
 73 75  2  0  0  0
 73 76  1  0  0  0
 73150  1  0  0  0
 74 83  1  0  0  0
 75 84  1  0  0  0
 76 85  1  0  0  0
 77 78  2  0  0  0
 77 84  1  0  0  0
 77151  1  0  0  0
 78 80  1  0  0  0
 78 81  1  0  0  0
 79 80  1  0  0  0
 79 84  1  0  0  0
 79152  1  0  0  0
 79153  1  0  0  0
 80 82  1  0  0  0
 80154  1  0  0  0
 81155  1  0  0  0
 81156  1  0  0  0
 81157  1  0  0  0
 82158  1  0  0  0
 82159  1  0  0  0
 83 86  1  0  0  0
 83 87  1  0  0  0
 83 88  1  0  0  0
 85160  1  0  0  0
M  ISO  4   1 100  68 101  82 101  85 100
M  END
> <chiral flag>
0

> <version>
0

> <s_m_source_file>
/data/baiqing/PycharmProjects/Reinvent-master-3.2/result/LINK_invent/BTK/process_docking_weight1_custom_product_contain_oxygen_bond_distance_aromatic_linkinvent_7_9_3/rearranged_h_0068.sdf

> <i_m_source_file_index>
82

> <r_mmod_Potential_Energy-OPLS-2005>
327.828552246094

> <r_mmod_Stretch_Energy-OPLS-2005>
132.761184692383

> <r_mmod_Bend_Energy-OPLS-2005>
247.445861816406

> <r_mmod_Torsional_Energy-OPLS-2005>
275.870727539062

> <r_mmod_Improper_Torsional_Energy-OPLS-2005>
7.47803640365601

> <r_mmod_Van_der_Waal_Energy-OPLS-2005>
138.276702880859

> <r_mmod_Electrostatic_Energy-OPLS-2005>
-360.838165283203

> <r_mmod_Solvation_Energy-OPLS-2005>
-210.271621704102

> <b_mmod_Minimization_Converged-OPLS-2005>
0

> <r_mmod_RMS_Derivative-OPLS-2005>
3.69043016433716

$$$$
82
                    3D
 Structure written by MMmdl.
156165  0  0  1  0            999 V2000
  -30.6139  -14.7643   20.4662 C   0  0  0  0  0  0
  -30.4384  -12.4658   19.4984 C   0  0  0  0  0  0
  -29.5305  -12.5180   18.2471 C   0  0  0  0  0  0
  -28.0533  -12.3404   18.6495 C   0  0  0  0  0  0
  -27.6507  -13.2402   19.8515 C   0  0  2  0  0  0
  -28.6882  -13.1737   20.9977 C   0  0  0  0  0  0
  -25.2570  -13.8208   20.5717 C   0  0  0  0  0  0
  -24.1820  -13.0489   20.9190 C   0  0  0  0  0  0
  -24.6395  -11.6957   20.8733 C   0  0  0  0  0  0
  -23.9068  -10.4335   21.0398 C   0  0  0  0  0  0
  -24.3614   -9.4261   21.9177 C   0  0  0  0  0  0
  -23.6307   -8.2263   22.0738 C   0  0  0  0  0  0
  -22.4268   -8.0291   21.3555 C   0  0  0  0  0  0
  -21.9918   -9.0269   20.4644 C   0  0  0  0  0  0
  -22.7248  -10.2156   20.3070 C   0  0  0  0  0  0
  -21.6816   -6.0744   22.5295 C   0  0  0  0  0  0
  -21.4015   -6.5662   23.8237 C   0  0  0  0  0  0
  -21.3666   -5.6797   24.9188 C   0  0  0  0  0  0
  -21.6045   -4.3063   24.7245 C   0  0  0  0  0  0
  -21.8815   -3.8164   23.4364 C   0  0  0  0  0  0
  -21.9201   -4.6979   22.3415 C   0  0  0  0  0  0
  -22.7856  -13.5284   21.1865 C   0  0  0  0  0  0
  -22.1668   -4.2179   21.0983 F   0  0  0  0  0  0
  -21.5624   -3.4542   25.7755 F   0  0  0  0  0  0
  -29.9958  -13.5281   20.4342 N   0  0  0  0  0  0
  -26.2998  -12.9451   20.3275 N   0  0  0  0  0  0
  -25.9346  -11.6591   20.5705 N   0  0  0  0  0  0
  -22.0429  -12.8281   22.0377 N   0  0  0  0  0  0
  -25.4301  -15.1890   20.4086 N   0  0  0  0  0  0
  -31.7798  -14.8644   20.0681 O   0  0  0  0  0  0
  -21.6652   -6.8878   21.4246 O   0  0  0  0  0  0
  -22.3576  -14.5585   20.6687 O   0  0  0  0  0  0
  -24.6354  -31.8528   23.2005 C   0  0  0  0  0  0
  -25.9181  -32.4724   23.8339 C   0  0  1  0  0  0
  -27.2106  -27.2350   20.1543 C   0  0  0  0  0  0
  -25.5968  -33.8524   24.2277 N   0  0  0  0  0  0
  -23.4330  -30.4798   21.5406 C   0  0  2  0  0  0
  -24.8837  -28.9376   20.1096 C   0  0  0  0  0  0
  -22.7533  -29.4601   22.4900 C   0  0  0  0  0  0
  -18.0304  -28.1378   22.8476 C   0  0  0  0  0  0
  -24.1492  -36.7287   23.2646 C   0  0  0  0  0  0
  -25.9817  -30.7612   21.3856 C   0  0  0  0  0  0
  -26.0551  -29.3843   20.7348 C   0  0  0  0  0  0
  -27.2235  -28.5435   20.7525 C   0  0  0  0  0  0
  -26.0258  -26.8931   19.4581 C   0  0  0  0  0  0
  -24.8811  -27.7042   19.4536 C   0  0  0  0  0  0
  -23.6512  -29.8197   20.1561 C   0  0  0  0  0  0
  -25.4108  -36.3071   24.0355 C   0  0  1  0  0  0
  -20.5905  -28.3705   23.1254 C   0  0  2  0  0  0
  -20.6784  -26.9414   22.5405 C   0  0  0  0  0  0
  -19.5751  -26.6381   21.5209 C   0  0  0  0  0  0
  -18.1939  -26.7914   22.1620 C   0  0  0  0  0  0
  -19.1551  -28.8854   23.2861 C   0  0  0  0  0  0
  -18.9474  -30.1451   23.8885 C   0  0  0  0  0  0
  -17.6462  -30.6576   24.0549 C   0  0  0  0  0  0
  -25.9039  -34.9434   23.5111 C   0  0  0  0  0  0
  -16.5355  -29.9062   23.6318 C   0  0  0  0  0  0
  -16.7289  -28.6480   23.0346 C   0  0  0  0  0  0
  -26.4516  -31.6547   25.0738 C   0  0  0  0  0  0
  -25.3721  -31.3723   26.1457 C   0  0  0  0  0  0
  -27.0371  -30.2954   24.6263 C   0  0  0  0  0  0
  -27.6072  -32.4290   25.7510 C   0  0  0  0  0  0
  -27.5573  -37.1807   24.8468 C   0  0  0  0  0  0
  -21.4226  -29.3066   22.3655 N   0  0  0  0  0  0
  -26.4298  -37.3764   23.9400 N   0  0  0  0  0  0
  -24.7020  -31.0499   22.0977 N   0  0  0  0  0  0
  -23.4215  -28.8125   23.3004 O   0  0  0  0  0  0
  -28.2565  -26.2689   20.2527 O   0  0  0  0  0  0
  -26.5592  -34.8939   22.4667 O   0  0  0  0  0  0
  -23.5488  -32.1389   23.7275 O   0  0  0  0  0  0
  -29.8100  -23.2164   21.4042 C   0  0  0  0  0  0
  -29.3530  -19.5991   18.5608 C   0  0  0  0  0  0
  -29.6343  -18.5480   20.7389 C   0  0  0  0  0  0
  -29.7008  -17.1756   18.7164 C   0  0  0  0  0  0
  -28.6839  -23.4966   20.5605 C   0  0  0  0  0  0
  -29.4236  -19.7739   19.9631 C   0  0  0  0  0  0
  -29.4705  -18.3362   17.9495 C   0  0  0  0  0  0
  -29.7921  -17.2209   20.1288 C   0  0  0  0  0  0
  -30.1470  -21.8771   21.3135 C   0  0  0  0  0  0
  -28.4267  -22.2302   20.0108 C   0  0  0  0  0  0
  -27.7944  -24.8329   20.4293 C   0  0  0  0  0  0
  -29.3140  -21.1920   20.4312 N   0  0  0  0  0  0
  -29.3574  -18.2332   16.5609 N   0  0  0  0  0  0
  -29.8952  -15.9025   20.8289 N   0  0  0  0  0  0
  -31.1592  -21.2169   21.9419 O   0  0  0  0  0  0
  -27.4171  -21.9133   19.1486 O   0  0  0  0  0  0
  -31.4841  -12.5763   19.2092 H   0  0  0  0  0  0
  -30.3700  -11.4947   19.9837 H   0  0  0  0  0  0
  -29.8344  -11.7490   17.5362 H   0  0  0  0  0  0
  -29.6580  -13.4705   17.7290 H   0  0  0  0  0  0
  -27.9082  -11.2944   18.9140 H   0  0  0  0  0  0
  -27.3983  -12.5342   17.7945 H   0  0  0  0  0  0
  -27.6541  -14.2636   19.4712 H   0  0  0  0  0  0
  -28.7222  -12.1758   21.4368 H   0  0  0  0  0  0
  -28.4165  -13.8496   21.8097 H   0  0  0  0  0  0
  -25.2759   -9.5774   22.4753 H   0  0  0  0  0  0
  -24.0069   -7.4668   22.7442 H   0  0  0  0  0  0
  -21.0860   -8.8797   19.8926 H   0  0  0  0  0  0
  -22.3718  -10.9697   19.6175 H   0  0  0  0  0  0
  -21.1982   -7.6164   23.9765 H   0  0  0  0  0  0
  -21.1483   -6.0498   25.9077 H   0  0  0  0  0  0
  -22.0575   -2.7646   23.2835 H   0  0  0  0  0  0
  -22.3994  -12.0027   22.4955 H   0  0  0  0  0  0
  -21.1007  -13.1345   22.2393 H   0  0  0  0  0  0
  -24.6723  -15.8539   20.5104 H   0  0  0  0  0  0
  -26.2835  -15.6197   20.0762 H   0  0  0  0  0  0
  -26.7236  -32.5365   23.1059 H   0  0  0  0  0  0
  -25.0107  -33.9613   25.0421 H   0  0  0  0  0  0
  -22.7328  -31.3048   21.3957 H   0  0  0  0  0  0
  -23.3751  -35.9618   23.3309 H   0  0  0  0  0  0
  -24.3586  -36.8897   22.2063 H   0  0  0  0  0  0
  -23.7285  -37.6521   23.6627 H   0  0  0  0  0  0
  -26.1298  -31.5214   20.6172 H   0  0  0  0  0  0
  -26.8529  -30.8067   22.0237 H   0  0  0  0  0  0
  -28.1064  -28.8724   21.2813 H   0  0  0  0  0  0
  -25.9277  -25.9768   18.8978 H   0  0  0  0  0  0
  -23.9988  -27.3662   18.9272 H   0  0  0  0  0  0
  -23.7652  -30.5915   19.3947 H   0  0  0  0  0  0
  -22.7707  -29.2474   19.8557 H   0  0  0  0  0  0
  -25.1294  -36.1914   25.0851 H   0  0  0  0  0  0
  -21.0017  -28.3294   24.1358 H   0  0  0  0  0  0
  -20.5692  -26.2312   23.3617 H   0  0  0  0  0  0
  -21.6659  -26.7411   22.1200 H   0  0  0  0  0  0
  -19.6904  -25.6293   21.1245 H   0  0  0  0  0  0
  -19.6682  -27.3189   20.6730 H   0  0  0  0  0  0
  -17.4213  -26.6679   21.4021 H   0  0  0  0  0  0
  -18.0315  -26.0048   22.9000 H   0  0  0  0  0  0
  -19.7957  -30.7275   24.2256 H   0  0  0  0  0  0
  -17.5018  -31.6255   24.5155 H   0  0  0  0  0  0
  -15.5362  -30.2949   23.7648 H   0  0  0  0  0  0
  -15.8693  -28.0789   22.7057 H   0  0  0  0  0  0
  -24.5897  -30.7056   25.7796 H   0  0  0  0  0  0
  -24.8902  -32.2902   26.4841 H   0  0  0  0  0  0
  -25.8053  -30.8937   27.0253 H   0  0  0  0  0  0
  -26.2962  -29.6687   24.1280 H   0  0  0  0  0  0
  -27.4020  -29.7253   25.4820 H   0  0  0  0  0  0
  -27.8862  -30.4219   23.9547 H   0  0  0  0  0  0
  -27.2671  -33.3606   26.2052 H   0  0  0  0  0  0
  -28.3894  -32.6821   25.0334 H   0  0  0  0  0  0
  -28.0699  -31.8420   26.5459 H   0  0  0  0  0  0
  -28.2615  -38.0074   24.7467 H   0  0  0  0  0  0
  -28.1051  -36.2617   24.6326 H   0  0  0  0  0  0
  -27.2281  -37.1514   25.8870 H   0  0  0  0  0  0
  -20.9410  -29.8816   21.6878 H   0  0  0  0  0  0
  -26.0186  -38.2859   24.1325 H   0  0  0  0  0  0
  -30.3085  -23.9371   22.0381 H   0  0  0  0  0  0
  -29.2080  -20.4694   17.9352 H   0  0  0  0  0  0
  -29.6847  -18.6322   21.8166 H   0  0  0  0  0  0
  -29.7645  -16.2257   18.2036 H   0  0  0  0  0  0
  -27.1413  -24.8310   21.3101 H   0  0  0  0  0  0
  -27.1601  -24.5634   19.5908 H   0  0  0  0  0  0
  -29.2609  -19.0598   15.9761 H   0  0  0  0  0  0
  -29.5573  -17.3755   16.0538 H   0  0  0  0  0  0
  -29.1404  -15.7207   21.4745 H   0  0  0  0  0  0
  -31.6237  -21.8426   22.4911 H   0  0  0  0  0  0
  -27.0280  -22.7236   18.8392 H   0  0  0  0  0  0
  1 25  1  0  0  0
  1 30  2  0  0  0
  1 84  1  0  0  0
  2  3  1  0  0  0
  2 25  1  0  0  0
  2 87  1  0  0  0
  2 88  1  0  0  0
  3  4  1  0  0  0
  3 89  1  0  0  0
  3 90  1  0  0  0
  4  5  1  0  0  0
  4 91  1  0  0  0
  4 92  1  0  0  0
  5  6  1  0  0  0
  5 26  1  0  0  0
  5 93  1  0  0  0
  6 25  1  0  0  0
  6 94  1  0  0  0
  6 95  1  0  0  0
  7  8  2  0  0  0
  7 26  1  0  0  0
  7 29  1  0  0  0
  8  9  1  0  0  0
  8 22  1  0  0  0
  9 10  1  0  0  0
  9 27  2  0  0  0
 10 11  2  0  0  0
 10 15  1  0  0  0
 11 12  1  0  0  0
 11 96  1  0  0  0
 12 13  2  0  0  0
 12 97  1  0  0  0
 13 14  1  0  0  0
 13 31  1  0  0  0
 14 15  2  0  0  0
 14 98  1  0  0  0
 15 99  1  0  0  0
 16 17  2  0  0  0
 16 21  1  0  0  0
 16 31  1  0  0  0
 17 18  1  0  0  0
 17100  1  0  0  0
 18 19  2  0  0  0
 18101  1  0  0  0
 19 20  1  0  0  0
 19 24  1  0  0  0
 20 21  2  0  0  0
 20102  1  0  0  0
 21 23  1  0  0  0
 22 28  1  0  0  0
 22 32  2  0  0  0
 26 27  1  0  0  0
 28103  1  0  0  0
 28104  1  0  0  0
 29105  1  0  0  0
 29106  1  0  0  0
 33 34  1  0  0  0
 33 66  1  0  0  0
 33 70  2  0  0  0
 34 36  1  0  0  0
 34 59  1  0  0  0
 34107  1  0  0  0
 35 44  2  0  0  0
 35 45  1  0  0  0
 35 68  1  0  0  0
 36 56  1  0  0  0
 36108  1  0  0  0
 37 39  1  0  0  0
 37 47  1  0  0  0
 37 66  1  0  0  0
 37109  1  0  0  0
 38 43  2  0  0  0
 38 46  1  0  0  0
 38 47  1  0  0  0
 39 64  1  0  0  0
 39 67  2  0  0  0
 40 52  1  0  0  0
 40 53  2  0  0  0
 40 58  1  0  0  0
 41110  1  0  0  0
 41111  1  0  0  0
 41112  1  0  0  0
 41 48  1  0  0  0
 42 43  1  0  0  0
 42 66  1  0  0  0
 42113  1  0  0  0
 42114  1  0  0  0
 43 44  1  0  0  0
 44115  1  0  0  0
 45 46  2  0  0  0
 45116  1  0  0  0
 46117  1  0  0  0
 47118  1  0  0  0
 47119  1  0  0  0
 48 56  1  0  0  0
 48 65  1  0  0  0
 48120  1  0  0  0
 49 50  1  0  0  0
 49 53  1  0  0  0
 49 64  1  0  0  0
 49121  1  0  0  0
 50 51  1  0  0  0
 50122  1  0  0  0
 50123  1  0  0  0
 51 52  1  0  0  0
 51124  1  0  0  0
 51125  1  0  0  0
 52126  1  0  0  0
 52127  1  0  0  0
 53 54  1  0  0  0
 54 55  2  0  0  0
 54128  1  0  0  0
 55 57  1  0  0  0
 55129  1  0  0  0
 56 69  2  0  0  0
 57 58  2  0  0  0
 57130  1  0  0  0
 58131  1  0  0  0
 59 60  1  0  0  0
 59 61  1  0  0  0
 59 62  1  0  0  0
 60132  1  0  0  0
 60133  1  0  0  0
 60134  1  0  0  0
 61135  1  0  0  0
 61136  1  0  0  0
 61137  1  0  0  0
 62138  1  0  0  0
 62139  1  0  0  0
 62140  1  0  0  0
 63 65  1  0  0  0
 63141  1  0  0  0
 63142  1  0  0  0
 63143  1  0  0  0
 64144  1  0  0  0
 65145  1  0  0  0
 68 81  1  0  0  0
 71 75  1  0  0  0
 71 79  2  0  0  0
 71146  1  0  0  0
 72 76  2  0  0  0
 72 77  1  0  0  0
 72147  1  0  0  0
 73 76  1  0  0  0
 73 78  2  0  0  0
 73148  1  0  0  0
 74 77  2  0  0  0
 74 78  1  0  0  0
 74149  1  0  0  0
 75 80  2  0  0  0
 75 81  1  0  0  0
 76 82  1  0  0  0
 77 83  1  0  0  0
 78 84  1  0  0  0
 79 82  1  0  0  0
 79 85  1  0  0  0
 80 82  1  0  0  0
 80 86  1  0  0  0
 81150  1  0  0  0
 81151  1  0  0  0
 83152  1  0  0  0
 83153  1  0  0  0
 84154  1  0  0  0
 85155  1  0  0  0
 86156  1  0  0  0
M  ISO  4   1 100  68 101  81 101  84 100
M  END
> <chiral flag>
0

> <version>
0

> <s_m_source_file>
/data/baiqing/PycharmProjects/Reinvent-master-3.2/result/LINK_invent/BTK/process_docking_weight1_custom_product_contain_oxygen_bond_distance_aromatic_linkinvent_7_9_3/rearranged_h_0068.sdf

> <i_m_source_file_index>
83

> <r_mmod_Potential_Energy-OPLS-2005>
299.934661865234

> <r_mmod_Stretch_Energy-OPLS-2005>
141.275253295898

> <r_mmod_Bend_Energy-OPLS-2005>
190.281265258789

> <r_mmod_Torsional_Energy-OPLS-2005>
270.635559082031

> <r_mmod_Improper_Torsional_Energy-OPLS-2005>
6.25952482223511

> <r_mmod_Van_der_Waal_Energy-OPLS-2005>
138.100143432617

> <r_mmod_Electrostatic_Energy-OPLS-2005>
-300.546356201172

> <r_mmod_Solvation_Energy-OPLS-2005>
-250.447143554688

> <b_mmod_Minimization_Converged-OPLS-2005>
0

> <r_mmod_RMS_Derivative-OPLS-2005>
5.31467866897583

$$$$
83
                    3D
 Structure written by MMmdl.
153161  0  0  1  0            999 V2000
  -30.5972  -14.6504   20.5177 C   0  0  0  0  0  0
  -30.4500  -12.4034   19.4493 C   0  0  0  0  0  0
  -29.5124  -12.5135   18.2243 C   0  0  0  0  0  0
  -28.0345  -12.3459   18.6351 C   0  0  0  0  0  0
  -27.6575  -13.2101   19.8673 C   0  0  2  0  0  0
  -28.7020  -13.0447   20.9949 C   0  0  0  0  0  0
  -25.2589  -13.8161   20.5676 C   0  0  0  0  0  0
  -24.1846  -13.0438   20.9190 C   0  0  0  0  0  0
  -24.6402  -11.6904   20.8739 C   0  0  0  0  0  0
  -23.9062  -10.4291   21.0406 C   0  0  0  0  0  0
  -24.3614   -9.4205   21.9181 C   0  0  0  0  0  0
  -23.6291   -8.2242   22.0750 C   0  0  0  0  0  0
  -22.4271   -8.0282   21.3543 C   0  0  0  0  0  0
  -21.9907   -9.0256   20.4643 C   0  0  0  0  0  0
  -22.7236  -10.2135   20.3052 C   0  0  0  0  0  0
  -21.6853   -6.0733   22.5279 C   0  0  0  0  0  0
  -21.4012   -6.5636   23.8213 C   0  0  0  0  0  0
  -21.3659   -5.6789   24.9175 C   0  0  0  0  0  0
  -21.6044   -4.3053   24.7225 C   0  0  0  0  0  0
  -21.8821   -3.8143   23.4348 C   0  0  0  0  0  0
  -21.9192   -4.6960   22.3402 C   0  0  0  0  0  0
  -22.7867  -13.5235   21.1849 C   0  0  0  0  0  0
  -22.1663   -4.2146   21.0981 F   0  0  0  0  0  0
  -21.5628   -3.4537   25.7738 F   0  0  0  0  0  0
  -30.0180  -13.4088   20.4404 N   0  0  0  0  0  0
  -26.3009  -12.9322   20.3321 N   0  0  0  0  0  0
  -25.9327  -11.6486   20.5756 N   0  0  0  0  0  0
  -22.0503  -12.8232   22.0407 N   0  0  0  0  0  0
  -25.4325  -15.1877   20.4063 N   0  0  0  0  0  0
  -31.7406  -14.8568   20.0963 O   0  0  0  0  0  0
  -21.6639   -6.8877   21.4241 O   0  0  0  0  0  0
  -22.3556  -14.5542   20.6694 O   0  0  0  0  0  0
  -24.6259  -31.8593   23.2025 C   0  0  0  0  0  0
  -25.9106  -32.4781   23.8355 C   0  0  1  0  0  0
  -27.2280  -27.3218   20.1164 C   0  0  0  0  0  0
  -25.5916  -33.8581   24.2278 N   0  0  0  0  0  0
  -23.4197  -30.4835   21.5442 C   0  0  2  0  0  0
  -24.8668  -28.9383   20.1108 C   0  0  0  0  0  0
  -22.7474  -29.4621   22.4923 C   0  0  0  0  0  0
  -18.0288  -28.1392   22.8488 C   0  0  0  0  0  0
  -24.1488  -36.7296   23.2641 C   0  0  0  0  0  0
  -25.9604  -30.7919   21.3718 C   0  0  0  0  0  0
  -26.0354  -29.4190   20.7145 C   0  0  0  0  0  0
  -27.2186  -28.6229   20.7070 C   0  0  0  0  0  0
  -26.0348  -26.8918   19.4905 C   0  0  0  0  0  0
  -24.8680  -27.6794   19.4909 C   0  0  0  0  0  0
  -23.6349  -29.8188   20.1592 C   0  0  0  0  0  0
  -25.4112  -36.3086   24.0330 C   0  0  1  0  0  0
  -20.5888  -28.3688   23.1285 C   0  0  2  0  0  0
  -20.6778  -26.9413   22.5413 C   0  0  0  0  0  0
  -19.5755  -26.6389   21.5216 C   0  0  0  0  0  0
  -18.1933  -26.7934   22.1626 C   0  0  0  0  0  0
  -19.1541  -28.8857   23.2883 C   0  0  0  0  0  0
  -18.9462  -30.1457   23.8899 C   0  0  0  0  0  0
  -17.6466  -30.6592   24.0567 C   0  0  0  0  0  0
  -25.9047  -34.9455   23.5108 C   0  0  0  0  0  0
  -16.5355  -29.9094   23.6334 C   0  0  0  0  0  0
  -16.7274  -28.6513   23.0350 C   0  0  0  0  0  0
  -26.4492  -31.6592   25.0727 C   0  0  0  0  0  0
  -25.3732  -31.3726   26.1458 C   0  0  0  0  0  0
  -27.0338  -30.3021   24.6178 C   0  0  0  0  0  0
  -27.6053  -32.4324   25.7497 C   0  0  0  0  0  0
  -27.5576  -37.1804   24.8465 C   0  0  0  0  0  0
  -21.4187  -29.3042   22.3674 N   0  0  0  0  0  0
  -26.4287  -37.3778   23.9409 N   0  0  0  0  0  0
  -24.6876  -31.0616   22.0965 N   0  0  0  0  0  0
  -23.4199  -28.8151   23.2996 O   0  0  0  0  0  0
  -28.3535  -26.4836   20.1675 O   0  0  0  0  0  0
  -26.5626  -34.8923   22.4679 O   0  0  0  0  0  0
  -23.5423  -32.1386   23.7353 O   0  0  0  0  0  0
  -30.4644  -19.3861   20.1732 C   0  0  0  0  0  0
  -30.6023  -17.9550   20.1507 C   0  0  0  0  0  0
  -28.7407  -17.7747   21.6575 C   0  0  0  0  0  0
  -29.4835  -20.0475   20.9696 C   0  0  0  0  0  0
  -29.7475  -17.1069   20.9131 C   0  0  0  0  0  0
  -28.6139  -19.1913   21.6986 C   0  0  0  0  0  0
  -29.4636  -21.5494   21.2082 C   0  0  0  0  0  0
  -29.3544  -24.0709   20.4823 C   0  0  0  0  0  0
  -28.1656  -25.0198   20.0219 C   0  0  0  0  0  0
  -29.7419  -21.9504   22.4485 N   0  0  0  0  0  0
  -29.7699  -15.6412   20.9758 N   0  0  0  0  0  0
  -29.2071  -22.5555   20.3061 N   0  3  0  0  0  0
  -27.6452  -19.7244   22.4830 F   0  0  0  0  0  0
  -31.4876  -12.5492   19.1444 H   0  0  0  0  0  0
  -30.4045  -11.4030   19.8825 H   0  0  0  0  0  0
  -29.7802  -11.7656   17.4768 H   0  0  0  0  0  0
  -29.6489  -13.4841   17.7452 H   0  0  0  0  0  0
  -27.8714  -11.2916   18.8612 H   0  0  0  0  0  0
  -27.3794  -12.5800   17.7950 H   0  0  0  0  0  0
  -27.6815  -14.2483   19.5353 H   0  0  0  0  0  0
  -28.7197  -12.0127   21.3496 H   0  0  0  0  0  0
  -28.4381  -13.6459   21.8659 H   0  0  0  0  0  0
  -25.2764   -9.5680   22.4748 H   0  0  0  0  0  0
  -24.0001   -7.4633   22.7469 H   0  0  0  0  0  0
  -21.0837   -8.8774   19.8950 H   0  0  0  0  0  0
  -22.3699  -10.9670   19.6157 H   0  0  0  0  0  0
  -21.2005   -7.6144   23.9716 H   0  0  0  0  0  0
  -21.1478   -6.0518   25.9078 H   0  0  0  0  0  0
  -22.0601   -2.7605   23.2849 H   0  0  0  0  0  0
  -22.4114  -11.9889   22.4787 H   0  0  0  0  0  0
  -21.1120  -13.1256   22.2605 H   0  0  0  0  0  0
  -24.6599  -15.8386   20.4972 H   0  0  0  0  0  0
  -26.2666  -15.6166   20.0270 H   0  0  0  0  0  0
  -26.7175  -32.5449   23.1104 H   0  0  0  0  0  0
  -25.0055  -33.9722   25.0420 H   0  0  0  0  0  0
  -22.7133  -31.3038   21.4015 H   0  0  0  0  0  0
  -23.3749  -35.9633   23.3311 H   0  0  0  0  0  0
  -24.3578  -36.8911   22.2055 H   0  0  0  0  0  0
  -23.7244  -37.6503   23.6660 H   0  0  0  0  0  0
  -26.0921  -31.5555   20.6036 H   0  0  0  0  0  0
  -26.8399  -30.8406   22.0020 H   0  0  0  0  0  0
  -28.1154  -28.9878   21.1878 H   0  0  0  0  0  0
  -25.9768  -25.9305   19.0020 H   0  0  0  0  0  0
  -23.9713  -27.3053   19.0160 H   0  0  0  0  0  0
  -23.7559  -30.5963   19.4038 H   0  0  0  0  0  0
  -22.7541  -29.2503   19.8553 H   0  0  0  0  0  0
  -25.1295  -36.1939   25.0823 H   0  0  0  0  0  0
  -20.9989  -28.3268   24.1403 H   0  0  0  0  0  0
  -20.5690  -26.2296   23.3610 H   0  0  0  0  0  0
  -21.6645  -26.7451   22.1199 H   0  0  0  0  0  0
  -19.6920  -25.6302   21.1243 H   0  0  0  0  0  0
  -19.6697  -27.3202   20.6749 H   0  0  0  0  0  0
  -17.4203  -26.6681   21.4028 H   0  0  0  0  0  0
  -18.0328  -26.0078   22.9025 H   0  0  0  0  0  0
  -19.7938  -30.7276   24.2264 H   0  0  0  0  0  0
  -17.5022  -31.6272   24.5168 H   0  0  0  0  0  0
  -15.5358  -30.3000   23.7656 H   0  0  0  0  0  0
  -15.8673  -28.0839   22.7056 H   0  0  0  0  0  0
  -24.5904  -30.7071   25.7795 H   0  0  0  0  0  0
  -24.8923  -32.2888   26.4896 H   0  0  0  0  0  0
  -25.8060  -30.8900   27.0228 H   0  0  0  0  0  0
  -26.2911  -29.6776   24.1200 H   0  0  0  0  0  0
  -27.4037  -29.7273   25.4681 H   0  0  0  0  0  0
  -27.8782  -30.4320   23.9402 H   0  0  0  0  0  0
  -27.2663  -33.3617   26.2087 H   0  0  0  0  0  0
  -28.3859  -32.6894   25.0323 H   0  0  0  0  0  0
  -28.0736  -31.8446   26.5404 H   0  0  0  0  0  0
  -28.2596  -38.0098   24.7509 H   0  0  0  0  0  0
  -28.1063  -36.2628   24.6293 H   0  0  0  0  0  0
  -27.2292  -37.1462   25.8868 H   0  0  0  0  0  0
  -20.9358  -29.8771   21.6897 H   0  0  0  0  0  0
  -26.0172  -38.2857   24.1411 H   0  0  0  0  0  0
  -31.1681  -19.9856   19.6130 H   0  0  0  0  0  0
  -31.3849  -17.5174   19.5472 H   0  0  0  0  0  0
  -28.0448  -17.1956   22.2461 H   0  0  0  0  0  0
  -29.5723  -24.3044   21.5240 H   0  0  0  0  0  0
  -30.2503  -24.3684   19.9363 H   0  0  0  0  0  0
  -27.9481  -24.8061   18.9754 H   0  0  0  0  0  0
  -27.2819  -24.7242   20.5898 H   0  0  0  0  0  0
  -29.9485  -21.2597   23.1549 H   0  0  0  0  0  0
  -29.7192  -22.9161   22.7243 H   0  0  0  0  0  0
  -28.9356  -15.2457   21.3797 H   0  0  0  0  0  0
  -29.0022  -22.2492   19.3617 H   0  0  0  0  0  0
  1 25  1  0  0  0
  1 30  2  0  0  0
  1 81  1  0  0  0
  2  3  1  0  0  0
  2 25  1  0  0  0
  2 84  1  0  0  0
  2 85  1  0  0  0
  3  4  1  0  0  0
  3 86  1  0  0  0
  3 87  1  0  0  0
  4  5  1  0  0  0
  4 88  1  0  0  0
  4 89  1  0  0  0
  5  6  1  0  0  0
  5 26  1  0  0  0
  5 90  1  0  0  0
  6 25  1  0  0  0
  6 91  1  0  0  0
  6 92  1  0  0  0
  7  8  2  0  0  0
  7 26  1  0  0  0
  7 29  1  0  0  0
  8  9  1  0  0  0
  8 22  1  0  0  0
  9 10  1  0  0  0
  9 27  2  0  0  0
 10 11  2  0  0  0
 10 15  1  0  0  0
 11 12  1  0  0  0
 11 93  1  0  0  0
 12 13  2  0  0  0
 12 94  1  0  0  0
 13 14  1  0  0  0
 13 31  1  0  0  0
 14 15  2  0  0  0
 14 95  1  0  0  0
 15 96  1  0  0  0
 16 17  2  0  0  0
 16 21  1  0  0  0
 16 31  1  0  0  0
 17 18  1  0  0  0
 17 97  1  0  0  0
 18 19  2  0  0  0
 18 98  1  0  0  0
 19 20  1  0  0  0
 19 24  1  0  0  0
 20 21  2  0  0  0
 20 99  1  0  0  0
 21 23  1  0  0  0
 22 28  1  0  0  0
 22 32  2  0  0  0
 26 27  1  0  0  0
 28100  1  0  0  0
 28101  1  0  0  0
 29102  1  0  0  0
 29103  1  0  0  0
 33 34  1  0  0  0
 33 66  1  0  0  0
 33 70  2  0  0  0
 34 36  1  0  0  0
 34 59  1  0  0  0
 34104  1  0  0  0
 35 44  2  0  0  0
 35 45  1  0  0  0
 35 68  1  0  0  0
 36 56  1  0  0  0
 36105  1  0  0  0
 37 39  1  0  0  0
 37 47  1  0  0  0
 37 66  1  0  0  0
 37106  1  0  0  0
 38 43  2  0  0  0
 38 46  1  0  0  0
 38 47  1  0  0  0
 39 64  1  0  0  0
 39 67  2  0  0  0
 40 52  1  0  0  0
 40 53  2  0  0  0
 40 58  1  0  0  0
 41107  1  0  0  0
 41108  1  0  0  0
 41109  1  0  0  0
 41 48  1  0  0  0
 42 43  1  0  0  0
 42 66  1  0  0  0
 42110  1  0  0  0
 42111  1  0  0  0
 43 44  1  0  0  0
 44112  1  0  0  0
 45 46  2  0  0  0
 45113  1  0  0  0
 46114  1  0  0  0
 47115  1  0  0  0
 47116  1  0  0  0
 48 56  1  0  0  0
 48 65  1  0  0  0
 48117  1  0  0  0
 49 50  1  0  0  0
 49 53  1  0  0  0
 49 64  1  0  0  0
 49118  1  0  0  0
 50 51  1  0  0  0
 50119  1  0  0  0
 50120  1  0  0  0
 51 52  1  0  0  0
 51121  1  0  0  0
 51122  1  0  0  0
 52123  1  0  0  0
 52124  1  0  0  0
 53 54  1  0  0  0
 54 55  2  0  0  0
 54125  1  0  0  0
 55 57  1  0  0  0
 55126  1  0  0  0
 56 69  2  0  0  0
 57 58  2  0  0  0
 57127  1  0  0  0
 58128  1  0  0  0
 59 60  1  0  0  0
 59 61  1  0  0  0
 59 62  1  0  0  0
 60129  1  0  0  0
 60130  1  0  0  0
 60131  1  0  0  0
 61132  1  0  0  0
 61133  1  0  0  0
 61134  1  0  0  0
 62135  1  0  0  0
 62136  1  0  0  0
 62137  1  0  0  0
 63 65  1  0  0  0
 63138  1  0  0  0
 63139  1  0  0  0
 63140  1  0  0  0
 64141  1  0  0  0
 65142  1  0  0  0
 68 79  1  0  0  0
 71 72  2  0  0  0
 71 74  1  0  0  0
 71143  1  0  0  0
 72 75  1  0  0  0
 72144  1  0  0  0
 73 75  2  0  0  0
 73 76  1  0  0  0
 73145  1  0  0  0
 74 76  2  0  0  0
 74 77  1  0  0  0
 75 81  1  0  0  0
 76 83  1  0  0  0
 77 80  1  0  0  0
 77 82  2  0  0  0
 78 79  1  0  0  0
 78 82  1  0  0  0
 78146  1  0  0  0
 78147  1  0  0  0
 79148  1  0  0  0
 79149  1  0  0  0
 80150  1  0  0  0
 80151  1  0  0  0
 81152  1  0  0  0
 82153  1  0  0  0
M  CHG  1  82   1
M  ISO  4   1 100  68 101  79 101  81 100
M  END
> <chiral flag>
0

> <version>
0

> <s_m_source_file>
/data/baiqing/PycharmProjects/Reinvent-master-3.2/result/LINK_invent/BTK/process_docking_weight1_custom_product_contain_oxygen_bond_distance_aromatic_linkinvent_7_9_3/rearranged_h_0068.sdf

> <i_m_source_file_index>
84

> <r_mmod_Potential_Energy-OPLS-2005>
-115.205070495605

> <r_mmod_Stretch_Energy-OPLS-2005>
81.7860870361328

> <r_mmod_Bend_Energy-OPLS-2005>
145.963592529297

> <r_mmod_Torsional_Energy-OPLS-2005>
222.431106567383

> <r_mmod_Improper_Torsional_Energy-OPLS-2005>
4.4931321144104

> <r_mmod_Van_der_Waal_Energy-OPLS-2005>
145.859436035156

> <r_mmod_Electrostatic_Energy-OPLS-2005>
-343.29931640625

> <r_mmod_Solvation_Energy-OPLS-2005>
-422.086303710938

> <b_mmod_Minimization_Converged-OPLS-2005>
0

> <r_mmod_RMS_Derivative-OPLS-2005>
0.86594831943512

$$$$
84
                    3D
 Structure written by MMmdl.
149157  0  0  1  0            999 V2000
  -30.6030  -14.8080   20.3914 C   0  0  0  0  0  0
  -30.4349  -12.4940   19.4626 C   0  0  0  0  0  0
  -29.5072  -12.5063   18.2258 C   0  0  0  0  0  0
  -28.0369  -12.3246   18.6482 C   0  0  0  0  0  0
  -27.6401  -13.2366   19.8398 C   0  0  2  0  0  0
  -28.6916  -13.2148   20.9709 C   0  0  0  0  0  0
  -25.2558  -13.8202   20.5679 C   0  0  0  0  0  0
  -24.1854  -13.0442   20.9207 C   0  0  0  0  0  0
  -24.6455  -11.6925   20.8780 C   0  0  0  0  0  0
  -23.9143  -10.4293   21.0430 C   0  0  0  0  0  0
  -24.3683   -9.4192   21.9195 C   0  0  0  0  0  0
  -23.6328   -8.2243   22.0765 C   0  0  0  0  0  0
  -22.4307   -8.0306   21.3553 C   0  0  0  0  0  0
  -21.9959   -9.0297   20.4666 C   0  0  0  0  0  0
  -22.7322  -10.2155   20.3074 C   0  0  0  0  0  0
  -21.6855   -6.0766   22.5287 C   0  0  0  0  0  0
  -21.4015   -6.5664   23.8217 C   0  0  0  0  0  0
  -21.3646   -5.6810   24.9175 C   0  0  0  0  0  0
  -21.6037   -4.3075   24.7214 C   0  0  0  0  0  0
  -21.8823   -3.8175   23.4332 C   0  0  0  0  0  0
  -21.9193   -4.6994   22.3394 C   0  0  0  0  0  0
  -22.7877  -13.5233   21.1838 C   0  0  0  0  0  0
  -22.1666   -4.2190   21.0968 F   0  0  0  0  0  0
  -21.5616   -3.4551   25.7719 F   0  0  0  0  0  0
  -29.9821  -13.5750   20.3734 N   0  0  0  0  0  0
  -26.2983  -12.9412   20.3270 N   0  0  0  0  0  0
  -25.9385  -11.6560   20.5778 N   0  0  0  0  0  0
  -22.0522  -12.8220   22.0388 N   0  0  0  0  0  0
  -25.4223  -15.1913   20.4027 N   0  0  0  0  0  0
  -31.8077  -14.8615   20.1260 O   0  0  0  0  0  0
  -21.6647   -6.8915   21.4253 O   0  0  0  0  0  0
  -22.3567  -14.5524   20.6665 O   0  0  0  0  0  0
  -24.6376  -31.8509   23.1952 C   0  0  0  0  0  0
  -25.9184  -32.4715   23.8298 C   0  0  1  0  0  0
  -27.2019  -27.2140   20.1194 C   0  0  0  0  0  0
  -25.5972  -33.8526   24.2229 N   0  0  0  0  0  0
  -23.4330  -30.4768   21.5396 C   0  0  2  0  0  0
  -24.8767  -28.9204   20.1066 C   0  0  0  0  0  0
  -22.7519  -29.4602   22.4888 C   0  0  0  0  0  0
  -18.0294  -28.1412   22.8482 C   0  0  0  0  0  0
  -24.1506  -36.7238   23.2639 C   0  0  0  0  0  0
  -25.9863  -30.7474   21.3863 C   0  0  0  0  0  0
  -26.0534  -29.3698   20.7189 C   0  0  0  0  0  0
  -27.2164  -28.5280   20.7157 C   0  0  0  0  0  0
  -25.9946  -26.8398   19.4891 C   0  0  0  0  0  0
  -24.8550  -27.6652   19.4835 C   0  0  0  0  0  0
  -23.6521  -29.8140   20.1548 C   0  0  0  0  0  0
  -25.4138  -36.3047   24.0325 C   0  0  1  0  0  0
  -20.5912  -28.3733   23.1273 C   0  0  2  0  0  0
  -20.6804  -26.9450   22.5413 C   0  0  0  0  0  0
  -19.5764  -26.6407   21.5226 C   0  0  0  0  0  0
  -18.1941  -26.7948   22.1622 C   0  0  0  0  0  0
  -19.1552  -28.8884   23.2871 C   0  0  0  0  0  0
  -18.9468  -30.1485   23.8897 C   0  0  0  0  0  0
  -17.6468  -30.6610   24.0578 C   0  0  0  0  0  0
  -25.9082  -34.9422   23.5073 C   0  0  0  0  0  0
  -16.5359  -29.9113   23.6350 C   0  0  0  0  0  0
  -16.7278  -28.6535   23.0355 C   0  0  0  0  0  0
  -26.4546  -31.6569   25.0711 C   0  0  0  0  0  0
  -25.3743  -31.3775   26.1422 C   0  0  0  0  0  0
  -27.0390  -30.2954   24.6276 C   0  0  0  0  0  0
  -27.6136  -32.4300   25.7441 C   0  0  0  0  0  0
  -27.5580  -37.1772   24.8472 C   0  0  0  0  0  0
  -21.4224  -29.3067   22.3642 N   0  0  0  0  0  0
  -26.4300  -37.3751   23.9403 N   0  0  0  0  0  0
  -24.7052  -31.0450   22.0952 N   0  0  0  0  0  0
  -23.4195  -28.8140   23.3016 O   0  0  0  0  0  0
  -28.2737  -26.2813   20.2060 O   0  0  0  0  0  0
  -26.5649  -34.8911   22.4638 O   0  0  0  0  0  0
  -23.5520  -32.1367   23.7225 O   0  0  0  0  0  0
  -30.9619  -17.5508   18.9162 C   0  0  0  0  0  0
  -30.0658  -17.3686   19.9959 C   0  0  0  0  0  0
  -29.5944  -19.9243   19.8627 C   0  0  0  0  0  0
  -31.1815  -18.8151   18.3339 C   0  0  0  0  0  0
  -29.3863  -18.5922   20.4513 C   0  0  0  0  0  0
  -30.5221  -19.9733   18.7931 C   0  0  0  0  0  0
  -28.6450  -23.7337   20.3141 C   0  0  0  0  0  0
  -28.1957  -24.9231   19.7275 C   0  0  0  0  0  0
  -28.6236  -22.3621   19.6511 C   0  0  0  0  0  0
  -29.0395  -21.2328   20.3602 N   0  0  0  0  0  0
  -29.8380  -15.9742   20.5178 N   0  0  0  0  0  0
  -28.2082  -22.2174   18.4977 O   0  0  0  0  0  0
  -32.0609  -18.9207   17.3083 F   0  0  0  0  0  0
  -28.5175  -18.4841   21.4855 F   0  0  0  0  0  0
  -30.8398  -21.1559   18.2101 F   0  0  0  0  0  0
  -31.4718  -12.6273   19.1467 H   0  0  0  0  0  0
  -30.3940  -11.5278   19.9685 H   0  0  0  0  0  0
  -29.7948  -11.7161   17.5305 H   0  0  0  0  0  0
  -29.6149  -13.4452   17.6807 H   0  0  0  0  0  0
  -27.9028  -11.2771   18.9217 H   0  0  0  0  0  0
  -27.3737  -12.5034   17.7992 H   0  0  0  0  0  0
  -27.6211  -14.2477   19.4360 H   0  0  0  0  0  0
  -28.7507  -12.2320   21.4418 H   0  0  0  0  0  0
  -28.4236  -13.9200   21.7597 H   0  0  0  0  0  0
  -25.2838   -9.5633   22.4762 H   0  0  0  0  0  0
  -24.0029   -7.4625   22.7472 H   0  0  0  0  0  0
  -21.0893   -8.8860   19.8963 H   0  0  0  0  0  0
  -22.3829  -10.9713   19.6183 H   0  0  0  0  0  0
  -21.2022   -7.6178   23.9734 H   0  0  0  0  0  0
  -21.1452   -6.0534   25.9072 H   0  0  0  0  0  0
  -22.0610   -2.7641   23.2820 H   0  0  0  0  0  0
  -22.4175  -11.9896   22.4781 H   0  0  0  0  0  0
  -21.1129  -13.1221   22.2549 H   0  0  0  0  0  0
  -24.6506  -15.8412   20.5026 H   0  0  0  0  0  0
  -26.2587  -15.6277   20.0372 H   0  0  0  0  0  0
  -26.7244  -32.5351   23.1024 H   0  0  0  0  0  0
  -25.0152  -33.9649   25.0401 H   0  0  0  0  0  0
  -22.7324  -31.3030   21.3933 H   0  0  0  0  0  0
  -23.3779  -35.9562   23.3342 H   0  0  0  0  0  0
  -24.3581  -36.8809   22.2041 H   0  0  0  0  0  0
  -23.7260  -37.6446   23.6641 H   0  0  0  0  0  0
  -26.1466  -31.5143   20.6258 H   0  0  0  0  0  0
  -26.8556  -30.7799   22.0320 H   0  0  0  0  0  0
  -28.1148  -28.8623   21.2152 H   0  0  0  0  0  0
  -25.8829  -25.8706   19.0259 H   0  0  0  0  0  0
  -23.9487  -27.3132   19.0108 H   0  0  0  0  0  0
  -23.7797  -30.5916   19.4010 H   0  0  0  0  0  0
  -22.7670  -29.2525   19.8483 H   0  0  0  0  0  0
  -25.1333  -36.1870   25.0818 H   0  0  0  0  0  0
  -21.0005  -28.3329   24.1392 H   0  0  0  0  0  0
  -20.5752  -26.2338   23.3623 H   0  0  0  0  0  0
  -21.6664  -26.7504   22.1176 H   0  0  0  0  0  0
  -19.6954  -25.6320   21.1243 H   0  0  0  0  0  0
  -19.6714  -27.3237   20.6771 H   0  0  0  0  0  0
  -17.4224  -26.6723   21.4011 H   0  0  0  0  0  0
  -18.0331  -26.0091   22.9022 H   0  0  0  0  0  0
  -19.7944  -30.7312   24.2259 H   0  0  0  0  0  0
  -17.5018  -31.6276   24.5179 H   0  0  0  0  0  0
  -15.5359  -30.3010   23.7679 H   0  0  0  0  0  0
  -15.8679  -28.0854   22.7070 H   0  0  0  0  0  0
  -24.5863  -30.7209   25.7714 H   0  0  0  0  0  0
  -24.9025  -32.2990   26.4850 H   0  0  0  0  0  0
  -25.8001  -30.8883   27.0188 H   0  0  0  0  0  0
  -26.2985  -29.6651   24.1330 H   0  0  0  0  0  0
  -27.4065  -29.7277   25.4833 H   0  0  0  0  0  0
  -27.8894  -30.4185   23.9558 H   0  0  0  0  0  0
  -27.2813  -33.3669   26.1922 H   0  0  0  0  0  0
  -28.3971  -32.6711   25.0243 H   0  0  0  0  0  0
  -28.0775  -31.8458   26.5392 H   0  0  0  0  0  0
  -28.2629  -38.0037   24.7484 H   0  0  0  0  0  0
  -28.1041  -36.2559   24.6356 H   0  0  0  0  0  0
  -27.2284  -37.1508   25.8874 H   0  0  0  0  0  0
  -20.9429  -29.8735   21.6802 H   0  0  0  0  0  0
  -26.0173  -38.2827   24.1379 H   0  0  0  0  0  0
  -31.5041  -16.7192   18.4952 H   0  0  0  0  0  0
  -29.0745  -23.7971   21.3020 H   0  0  0  0  0  0
  -27.7541  -24.8949   18.7413 H   0  0  0  0  0  0
  -29.0828  -21.3493   21.3623 H   0  0  0  0  0  0
  -28.9157  -15.8247   20.8981 H   0  0  0  0  0  0
  1 25  1  0  0  0
  1 30  2  0  0  0
  1 81  1  0  0  0
  2  3  1  0  0  0
  2 25  1  0  0  0
  2 86  1  0  0  0
  2 87  1  0  0  0
  3  4  1  0  0  0
  3 88  1  0  0  0
  3 89  1  0  0  0
  4  5  1  0  0  0
  4 90  1  0  0  0
  4 91  1  0  0  0
  5  6  1  0  0  0
  5 26  1  0  0  0
  5 92  1  0  0  0
  6 25  1  0  0  0
  6 93  1  0  0  0
  6 94  1  0  0  0
  7  8  2  0  0  0
  7 26  1  0  0  0
  7 29  1  0  0  0
  8  9  1  0  0  0
  8 22  1  0  0  0
  9 10  1  0  0  0
  9 27  2  0  0  0
 10 11  2  0  0  0
 10 15  1  0  0  0
 11 12  1  0  0  0
 11 95  1  0  0  0
 12 13  2  0  0  0
 12 96  1  0  0  0
 13 14  1  0  0  0
 13 31  1  0  0  0
 14 15  2  0  0  0
 14 97  1  0  0  0
 15 98  1  0  0  0
 16 17  2  0  0  0
 16 21  1  0  0  0
 16 31  1  0  0  0
 17 18  1  0  0  0
 17 99  1  0  0  0
 18 19  2  0  0  0
 18100  1  0  0  0
 19 20  1  0  0  0
 19 24  1  0  0  0
 20 21  2  0  0  0
 20101  1  0  0  0
 21 23  1  0  0  0
 22 28  1  0  0  0
 22 32  2  0  0  0
 26 27  1  0  0  0
 28102  1  0  0  0
 28103  1  0  0  0
 29104  1  0  0  0
 29105  1  0  0  0
 33 34  1  0  0  0
 33 66  1  0  0  0
 33 70  2  0  0  0
 34 36  1  0  0  0
 34 59  1  0  0  0
 34106  1  0  0  0
 35 44  2  0  0  0
 35 45  1  0  0  0
 35 68  1  0  0  0
 36 56  1  0  0  0
 36107  1  0  0  0
 37 39  1  0  0  0
 37 47  1  0  0  0
 37 66  1  0  0  0
 37108  1  0  0  0
 38 43  2  0  0  0
 38 46  1  0  0  0
 38 47  1  0  0  0
 39 64  1  0  0  0
 39 67  2  0  0  0
 40 52  1  0  0  0
 40 53  2  0  0  0
 40 58  1  0  0  0
 41109  1  0  0  0
 41110  1  0  0  0
 41111  1  0  0  0
 41 48  1  0  0  0
 42 43  1  0  0  0
 42 66  1  0  0  0
 42112  1  0  0  0
 42113  1  0  0  0
 43 44  1  0  0  0
 44114  1  0  0  0
 45 46  2  0  0  0
 45115  1  0  0  0
 46116  1  0  0  0
 47117  1  0  0  0
 47118  1  0  0  0
 48 56  1  0  0  0
 48 65  1  0  0  0
 48119  1  0  0  0
 49 50  1  0  0  0
 49 53  1  0  0  0
 49 64  1  0  0  0
 49120  1  0  0  0
 50 51  1  0  0  0
 50121  1  0  0  0
 50122  1  0  0  0
 51 52  1  0  0  0
 51123  1  0  0  0
 51124  1  0  0  0
 52125  1  0  0  0
 52126  1  0  0  0
 53 54  1  0  0  0
 54 55  2  0  0  0
 54127  1  0  0  0
 55 57  1  0  0  0
 55128  1  0  0  0
 56 69  2  0  0  0
 57 58  2  0  0  0
 57129  1  0  0  0
 58130  1  0  0  0
 59 60  1  0  0  0
 59 61  1  0  0  0
 59 62  1  0  0  0
 60131  1  0  0  0
 60132  1  0  0  0
 60133  1  0  0  0
 61134  1  0  0  0
 61135  1  0  0  0
 61136  1  0  0  0
 62137  1  0  0  0
 62138  1  0  0  0
 62139  1  0  0  0
 63 65  1  0  0  0
 63140  1  0  0  0
 63141  1  0  0  0
 63142  1  0  0  0
 64143  1  0  0  0
 65144  1  0  0  0
 68 78  1  0  0  0
 71 72  2  0  0  0
 71 74  1  0  0  0
 71145  1  0  0  0
 72 75  1  0  0  0
 72 81  1  0  0  0
 73 75  2  0  0  0
 73 76  1  0  0  0
 73 80  1  0  0  0
 74 76  2  0  0  0
 74 83  1  0  0  0
 75 84  1  0  0  0
 76 85  1  0  0  0
 77 78  2  0  0  0
 77 79  1  0  0  0
 77146  1  0  0  0
 78147  1  0  0  0
 79 80  1  0  0  0
 79 82  2  0  0  0
 80148  1  0  0  0
 81149  1  0  0  0
M  ISO  4   1 100  68 101  78 101  81 100
M  END
> <chiral flag>
0

> <version>
0

> <s_m_source_file>
/data/baiqing/PycharmProjects/Reinvent-master-3.2/result/LINK_invent/BTK/process_docking_weight1_custom_product_contain_oxygen_bond_distance_aromatic_linkinvent_7_9_3/rearranged_h_0068.sdf

> <i_m_source_file_index>
85

> <r_mmod_Potential_Energy-OPLS-2005>
168.617309570312

> <r_mmod_Stretch_Energy-OPLS-2005>
148.463943481445

> <r_mmod_Bend_Energy-OPLS-2005>
164.189041137695

> <r_mmod_Torsional_Energy-OPLS-2005>
256.430206298828

> <r_mmod_Improper_Torsional_Energy-OPLS-2005>
6.00666379928589

> <r_mmod_Van_der_Waal_Energy-OPLS-2005>
144.816711425781

> <r_mmod_Electrostatic_Energy-OPLS-2005>
-448.445739746094

> <r_mmod_Solvation_Energy-OPLS-2005>
-222.477249145508

> <b_mmod_Minimization_Converged-OPLS-2005>
0

> <r_mmod_RMS_Derivative-OPLS-2005>
3.73375201225281

$$$$
85
                    3D
 Structure written by MMmdl.
148156  0  0  1  0            999 V2000
  -30.5220  -15.0437   20.4036 C   0  0  0  0  0  0
  -30.4379  -12.6537   19.5054 C   0  0  0  0  0  0
  -29.5227  -12.5371   18.2642 C   0  0  0  0  0  0
  -28.0607  -12.3060   18.6877 C   0  0  0  0  0  0
  -27.6222  -13.2566   19.8315 C   0  0  2  0  0  0
  -28.6639  -13.3374   20.9672 C   0  0  0  0  0  0
  -25.2435  -13.8228   20.5721 C   0  0  0  0  0  0
  -24.1766  -13.0443   20.9244 C   0  0  0  0  0  0
  -24.6394  -11.6930   20.8765 C   0  0  0  0  0  0
  -23.9083  -10.4295   21.0413 C   0  0  0  0  0  0
  -24.3630   -9.4206   21.9187 C   0  0  0  0  0  0
  -23.6300   -8.2243   22.0753 C   0  0  0  0  0  0
  -22.4280   -8.0284   21.3544 C   0  0  0  0  0  0
  -21.9923   -9.0260   20.4645 C   0  0  0  0  0  0
  -22.7257  -10.2137   20.3057 C   0  0  0  0  0  0
  -21.6854   -6.0739   22.5277 C   0  0  0  0  0  0
  -21.4015   -6.5642   23.8211 C   0  0  0  0  0  0
  -21.3658   -5.6794   24.9173 C   0  0  0  0  0  0
  -21.6045   -4.3057   24.7223 C   0  0  0  0  0  0
  -21.8819   -3.8148   23.4344 C   0  0  0  0  0  0
  -21.9194   -4.6966   22.3400 C   0  0  0  0  0  0
  -22.7785  -13.5207   21.1897 C   0  0  0  0  0  0
  -22.1662   -4.2153   21.0978 F   0  0  0  0  0  0
  -21.5629   -3.4538   25.7736 F   0  0  0  0  0  0
  -29.9253  -13.7745   20.3548 N   0  0  0  0  0  0
  -26.2856  -12.9471   20.3237 N   0  0  0  0  0  0
  -25.9327  -11.6593   20.5743 N   0  0  0  0  0  0
  -22.0434  -12.8187   22.0446 N   0  0  0  0  0  0
  -25.4088  -15.1958   20.4133 N   0  0  0  0  0  0
  -31.7360  -15.0590   20.1686 O   0  0  0  0  0  0
  -21.6643   -6.8882   21.4238 O   0  0  0  0  0  0
  -22.3466  -14.5508   20.6736 O   0  0  0  0  0  0
  -24.6505  -31.8372   23.1817 C   0  0  0  0  0  0
  -25.9246  -32.4658   23.8229 C   0  0  1  0  0  0
  -27.2158  -27.0635   20.1631 C   0  0  0  0  0  0
  -25.5966  -33.8466   24.2147 N   0  0  0  0  0  0
  -23.4579  -30.4547   21.5285 C   0  0  2  0  0  0
  -24.9086  -28.8690   20.1098 C   0  0  0  0  0  0
  -22.7601  -29.4517   22.4823 C   0  0  0  0  0  0
  -18.0314  -28.1408   22.8472 C   0  0  0  0  0  0
  -24.1493  -36.7241   23.2645 C   0  0  0  0  0  0
  -26.0186  -30.6886   21.3902 C   0  0  0  0  0  0
  -26.0893  -29.2922   20.7335 C   0  0  0  0  0  0
  -27.2427  -28.4078   20.7399 C   0  0  0  0  0  0
  -26.0073  -26.7614   19.4959 C   0  0  0  0  0  0
  -24.8851  -27.6199   19.4731 C   0  0  0  0  0  0
  -23.6891  -29.7807   20.1498 C   0  0  0  0  0  0
  -25.4127  -36.3007   24.0307 C   0  0  1  0  0  0
  -20.5930  -28.3743   23.1215 C   0  0  2  0  0  0
  -20.6797  -26.9438   22.5400 C   0  0  0  0  0  0
  -19.5769  -26.6387   21.5213 C   0  0  0  0  0  0
  -18.1952  -26.7944   22.1622 C   0  0  0  0  0  0
  -19.1571  -28.8891   23.2835 C   0  0  0  0  0  0
  -18.9487  -30.1485   23.8864 C   0  0  0  0  0  0
  -17.6484  -30.6600   24.0560 C   0  0  0  0  0  0
  -25.9084  -34.9387   23.5041 C   0  0  0  0  0  0
  -16.5374  -29.9094   23.6340 C   0  0  0  0  0  0
  -16.7298  -28.6512   23.0354 C   0  0  0  0  0  0
  -26.4545  -31.6549   25.0698 C   0  0  0  0  0  0
  -25.3708  -31.3756   26.1377 C   0  0  0  0  0  0
  -27.0421  -30.2936   24.6324 C   0  0  0  0  0  0
  -27.6060  -32.4327   25.7490 C   0  0  0  0  0  0
  -27.5569  -37.1778   24.8467 C   0  0  0  0  0  0
  -21.4285  -29.3056   22.3576 N   0  0  0  0  0  0
  -26.4283  -37.3727   23.9405 N   0  0  0  0  0  0
  -24.7296  -31.0162   22.0886 N   0  0  0  0  0  0
  -23.4211  -28.8069   23.3004 O   0  0  0  0  0  0
  -28.2415  -26.0268   20.2389 O   0  0  0  0  0  0
  -26.5680  -34.8899   22.4626 O   0  0  0  0  0  0
  -23.5607  -32.1279   23.6995 O   0  0  0  0  0  0
  -31.8649  -19.5095   20.6266 C   0  0  0  0  0  0
  -30.9861  -20.6121   20.5274 C   0  0  0  0  0  0
  -31.4359  -18.1640   20.6044 C   0  0  0  0  0  0
  -29.1772  -19.0126   20.3791 C   0  0  0  0  0  0
  -29.5847  -20.4712   20.3983 C   0  0  0  0  0  0
  -30.0776  -17.7989   20.4774 C   0  0  0  0  0  0
  -28.9969  -23.2121   20.3600 C   0  0  0  0  0  0
  -27.9076  -24.4764   20.1028 C   0  0  0  0  0  0
  -28.7313  -21.7855   20.2773 N   0  0  0  0  0  0
  -29.7509  -16.2668   20.4868 N   0  0  0  0  0  0
  -30.1346  -23.5828   20.6573 O   0  0  0  0  0  0
  -31.4670  -12.8213   19.1851 H   0  0  0  0  0  0
  -30.4530  -11.7187   20.0677 H   0  0  0  0  0  0
  -29.8591  -11.7247   17.6188 H   0  0  0  0  0  0
  -29.5924  -13.4502   17.6711 H   0  0  0  0  0  0
  -27.9766  -11.2704   19.0196 H   0  0  0  0  0  0
  -27.3942  -12.4057   17.8299 H   0  0  0  0  0  0
  -27.5687  -14.2462   19.3765 H   0  0  0  0  0  0
  -28.7768  -12.3767   21.4714 H   0  0  0  0  0  0
  -28.3468  -14.0528   21.7274 H   0  0  0  0  0  0
  -25.2770   -9.5684   22.4771 H   0  0  0  0  0  0
  -24.0007   -7.4633   22.7473 H   0  0  0  0  0  0
  -21.0854   -8.8783   19.8948 H   0  0  0  0  0  0
  -22.3712  -10.9681   19.6171 H   0  0  0  0  0  0
  -21.2006   -7.6149   23.9715 H   0  0  0  0  0  0
  -21.1481   -6.0524   25.9078 H   0  0  0  0  0  0
  -22.0598   -2.7610   23.2842 H   0  0  0  0  0  0
  -22.4064  -11.9854   22.4832 H   0  0  0  0  0  0
  -21.1046  -13.1201   22.2649 H   0  0  0  0  0  0
  -24.6358  -15.8443   20.5182 H   0  0  0  0  0  0
  -26.2447  -15.6342   20.0502 H   0  0  0  0  0  0
  -26.7307  -32.5242   23.0947 H   0  0  0  0  0  0
  -25.0069  -33.9565   25.0264 H   0  0  0  0  0  0
  -22.7647  -31.2828   21.3683 H   0  0  0  0  0  0
  -23.3755  -35.9575   23.3299 H   0  0  0  0  0  0
  -24.3569  -36.8889   22.2061 H   0  0  0  0  0  0
  -23.7254  -37.6433   23.6697 H   0  0  0  0  0  0
  -26.1802  -31.4382   20.6145 H   0  0  0  0  0  0
  -26.8867  -30.7435   22.0354 H   0  0  0  0  0  0
  -28.1393  -28.7268   21.2528 H   0  0  0  0  0  0
  -25.8913  -25.8079   19.0039 H   0  0  0  0  0  0
  -23.9856  -27.2910   18.9705 H   0  0  0  0  0  0
  -23.8338  -30.5538   19.3944 H   0  0  0  0  0  0
  -22.8023  -29.2283   19.8351 H   0  0  0  0  0  0
  -25.1320  -36.1824   25.0798 H   0  0  0  0  0  0
  -21.0020  -28.3346   24.1338 H   0  0  0  0  0  0
  -20.5697  -26.2358   23.3629 H   0  0  0  0  0  0
  -21.6662  -26.7442   22.1194 H   0  0  0  0  0  0
  -19.6933  -25.6289   21.1266 H   0  0  0  0  0  0
  -19.6708  -27.3180   20.6727 H   0  0  0  0  0  0
  -17.4219  -26.6687   21.4030 H   0  0  0  0  0  0
  -18.0347  -26.0097   22.9029 H   0  0  0  0  0  0
  -19.7964  -30.7305   24.2223 H   0  0  0  0  0  0
  -17.5040  -31.6278   24.5170 H   0  0  0  0  0  0
  -15.5373  -30.2986   23.7685 H   0  0  0  0  0  0
  -15.8696  -28.0826   22.7084 H   0  0  0  0  0  0
  -24.5907  -30.7086   25.7687 H   0  0  0  0  0  0
  -24.8877  -32.2943   26.4712 H   0  0  0  0  0  0
  -25.7973  -30.8985   27.0210 H   0  0  0  0  0  0
  -26.3055  -29.6635   24.1326 H   0  0  0  0  0  0
  -27.4006  -29.7263   25.4923 H   0  0  0  0  0  0
  -27.8973  -30.4149   23.9673 H   0  0  0  0  0  0
  -27.2652  -33.3668   26.1969 H   0  0  0  0  0  0
  -28.3925  -32.6823   25.0354 H   0  0  0  0  0  0
  -28.0668  -31.8515   26.5488 H   0  0  0  0  0  0
  -28.2580  -38.0080   24.7498 H   0  0  0  0  0  0
  -28.1073  -36.2604   24.6316 H   0  0  0  0  0  0
  -27.2282  -37.1447   25.8870 H   0  0  0  0  0  0
  -20.9511  -29.8758   21.6734 H   0  0  0  0  0  0
  -26.0145  -38.2792   24.1409 H   0  0  0  0  0  0
  -32.9234  -19.7062   20.7251 H   0  0  0  0  0  0
  -31.4396  -21.5900   20.5469 H   0  0  0  0  0  0
  -32.1991  -17.4058   20.6980 H   0  0  0  0  0  0
  -28.1196  -18.8144   20.2809 H   0  0  0  0  0  0
  -27.0616  -24.2795   20.7615 H   0  0  0  0  0  0
  -27.5341  -24.3206   19.0912 H   0  0  0  0  0  0
  -27.7552  -21.6080   20.0792 H   0  0  0  0  0  0
  -28.7644  -16.0703   20.5597 H   0  0  0  0  0  0
  1 25  1  0  0  0
  1 30  2  0  0  0
  1 80  1  0  0  0
  2  3  1  0  0  0
  2 25  1  0  0  0
  2 82  1  0  0  0
  2 83  1  0  0  0
  3  4  1  0  0  0
  3 84  1  0  0  0
  3 85  1  0  0  0
  4  5  1  0  0  0
  4 86  1  0  0  0
  4 87  1  0  0  0
  5  6  1  0  0  0
  5 26  1  0  0  0
  5 88  1  0  0  0
  6 25  1  0  0  0
  6 89  1  0  0  0
  6 90  1  0  0  0
  7  8  2  0  0  0
  7 26  1  0  0  0
  7 29  1  0  0  0
  8  9  1  0  0  0
  8 22  1  0  0  0
  9 10  1  0  0  0
  9 27  2  0  0  0
 10 11  2  0  0  0
 10 15  1  0  0  0
 11 12  1  0  0  0
 11 91  1  0  0  0
 12 13  2  0  0  0
 12 92  1  0  0  0
 13 14  1  0  0  0
 13 31  1  0  0  0
 14 15  2  0  0  0
 14 93  1  0  0  0
 15 94  1  0  0  0
 16 17  2  0  0  0
 16 21  1  0  0  0
 16 31  1  0  0  0
 17 18  1  0  0  0
 17 95  1  0  0  0
 18 19  2  0  0  0
 18 96  1  0  0  0
 19 20  1  0  0  0
 19 24  1  0  0  0
 20 21  2  0  0  0
 20 97  1  0  0  0
 21 23  1  0  0  0
 22 28  1  0  0  0
 22 32  2  0  0  0
 26 27  1  0  0  0
 28 98  1  0  0  0
 28 99  1  0  0  0
 29100  1  0  0  0
 29101  1  0  0  0
 33 34  1  0  0  0
 33 66  1  0  0  0
 33 70  2  0  0  0
 34 36  1  0  0  0
 34 59  1  0  0  0
 34102  1  0  0  0
 35 44  2  0  0  0
 35 45  1  0  0  0
 35 68  1  0  0  0
 36 56  1  0  0  0
 36103  1  0  0  0
 37 39  1  0  0  0
 37 47  1  0  0  0
 37 66  1  0  0  0
 37104  1  0  0  0
 38 43  2  0  0  0
 38 46  1  0  0  0
 38 47  1  0  0  0
 39 64  1  0  0  0
 39 67  2  0  0  0
 40 52  1  0  0  0
 40 53  2  0  0  0
 40 58  1  0  0  0
 41105  1  0  0  0
 41106  1  0  0  0
 41107  1  0  0  0
 41 48  1  0  0  0
 42 43  1  0  0  0
 42 66  1  0  0  0
 42108  1  0  0  0
 42109  1  0  0  0
 43 44  1  0  0  0
 44110  1  0  0  0
 45 46  2  0  0  0
 45111  1  0  0  0
 46112  1  0  0  0
 47113  1  0  0  0
 47114  1  0  0  0
 48 56  1  0  0  0
 48 65  1  0  0  0
 48115  1  0  0  0
 49 50  1  0  0  0
 49 53  1  0  0  0
 49 64  1  0  0  0
 49116  1  0  0  0
 50 51  1  0  0  0
 50117  1  0  0  0
 50118  1  0  0  0
 51 52  1  0  0  0
 51119  1  0  0  0
 51120  1  0  0  0
 52121  1  0  0  0
 52122  1  0  0  0
 53 54  1  0  0  0
 54 55  2  0  0  0
 54123  1  0  0  0
 55 57  1  0  0  0
 55124  1  0  0  0
 56 69  2  0  0  0
 57 58  2  0  0  0
 57125  1  0  0  0
 58126  1  0  0  0
 59 60  1  0  0  0
 59 61  1  0  0  0
 59 62  1  0  0  0
 60127  1  0  0  0
 60128  1  0  0  0
 60129  1  0  0  0
 61130  1  0  0  0
 61131  1  0  0  0
 61132  1  0  0  0
 62133  1  0  0  0
 62134  1  0  0  0
 62135  1  0  0  0
 63 65  1  0  0  0
 63136  1  0  0  0
 63137  1  0  0  0
 63138  1  0  0  0
 64139  1  0  0  0
 65140  1  0  0  0
 68 78  1  0  0  0
 71 72  2  0  0  0
 71 73  1  0  0  0
 71141  1  0  0  0
 72 75  1  0  0  0
 72142  1  0  0  0
 73 76  2  0  0  0
 73143  1  0  0  0
 74 75  2  0  0  0
 74 76  1  0  0  0
 74144  1  0  0  0
 75 79  1  0  0  0
 76 80  1  0  0  0
 77 78  1  0  0  0
 77 79  1  0  0  0
 77 81  2  0  0  0
 78145  1  0  0  0
 78146  1  0  0  0
 79147  1  0  0  0
 80148  1  0  0  0
M  ISO  4   1 100  68 101  78 101  80 100
M  END
> <chiral flag>
0

> <version>
0

> <s_m_source_file>
/data/baiqing/PycharmProjects/Reinvent-master-3.2/result/LINK_invent/BTK/process_docking_weight1_custom_product_contain_oxygen_bond_distance_aromatic_linkinvent_7_9_3/rearranged_h_0068.sdf

> <i_m_source_file_index>
86

> <r_mmod_Potential_Energy-OPLS-2005>
642.395446777344

> <r_mmod_Stretch_Energy-OPLS-2005>
346.726654052734

> <r_mmod_Bend_Energy-OPLS-2005>
270.735565185547

> <r_mmod_Torsional_Energy-OPLS-2005>
218.890808105469

> <r_mmod_Improper_Torsional_Energy-OPLS-2005>
4.89793395996094

> <r_mmod_Van_der_Waal_Energy-OPLS-2005>
135.26286315918

> <r_mmod_Electrostatic_Energy-OPLS-2005>
-350.632385253906

> <r_mmod_Solvation_Energy-OPLS-2005>
-248.620330810547

> <b_mmod_Minimization_Converged-OPLS-2005>
0

> <r_mmod_RMS_Derivative-OPLS-2005>
0.669019103050232

$$$$
86
                    3D
 Structure written by MMmdl.
164173  0  0  1  0            999 V2000
  -30.4717  -15.1188   20.3914 C   0  0  0  0  0  0
  -30.4458  -12.7103   19.4870 C   0  0  0  0  0  0
  -29.5313  -12.5684   18.2457 C   0  0  0  0  0  0
  -28.0720  -12.3128   18.6719 C   0  0  0  0  0  0
  -27.6181  -13.2618   19.8126 C   0  0  2  0  0  0
  -28.6621  -13.3667   20.9426 C   0  0  0  0  0  0
  -25.2446  -13.8229   20.5721 C   0  0  0  0  0  0
  -24.1785  -13.0442   20.9249 C   0  0  0  0  0  0
  -24.6417  -11.6936   20.8762 C   0  0  0  0  0  0
  -23.9087  -10.4301   21.0388 C   0  0  0  0  0  0
  -24.3627   -9.4223   21.9163 C   0  0  0  0  0  0
  -23.6313   -8.2249   22.0738 C   0  0  0  0  0  0
  -22.4297   -8.0263   21.3523 C   0  0  0  0  0  0
  -21.9923   -9.0238   20.4626 C   0  0  0  0  0  0
  -22.7253  -10.2127   20.3028 C   0  0  0  0  0  0
  -21.6868   -6.0734   22.5273 C   0  0  0  0  0  0
  -21.4021   -6.5618   23.8220 C   0  0  0  0  0  0
  -21.3684   -5.6768   24.9174 C   0  0  0  0  0  0
  -21.6040   -4.3037   24.7222 C   0  0  0  0  0  0
  -21.8807   -3.8133   23.4348 C   0  0  0  0  0  0
  -21.9200   -4.6955   22.3408 C   0  0  0  0  0  0
  -22.7798  -13.5214   21.1896 C   0  0  0  0  0  0
  -22.1656   -4.2139   21.0991 F   0  0  0  0  0  0
  -21.5650   -3.4522   25.7738 F   0  0  0  0  0  0
  -29.9054  -13.8341   20.3146 N   0  0  0  0  0  0
  -26.2866  -12.9473   20.3163 N   0  0  0  0  0  0
  -25.9350  -11.6602   20.5678 N   0  0  0  0  0  0
  -22.0412  -12.8224   22.0436 N   0  0  0  0  0  0
  -25.4057  -15.1968   20.4198 N   0  0  0  0  0  0
  -31.7048  -15.1534   20.2731 O   0  0  0  0  0  0
  -21.6636   -6.8883   21.4235 O   0  0  0  0  0  0
  -22.3499  -14.5497   20.6708 O   0  0  0  0  0  0
  -24.6583  -31.8351   23.1757 C   0  0  0  0  0  0
  -25.9299  -32.4650   23.8205 C   0  0  1  0  0  0
  -27.2027  -27.0066   20.1715 C   0  0  0  0  0  0
  -25.6018  -33.8450   24.2133 N   0  0  0  0  0  0
  -23.4645  -30.4508   21.5299 C   0  0  2  0  0  0
  -24.9047  -28.8421   20.1282 C   0  0  0  0  0  0
  -22.7635  -29.4539   22.4877 C   0  0  0  0  0  0
  -18.0316  -28.1406   22.8489 C   0  0  0  0  0  0
  -24.1506  -36.7201   23.2645 C   0  0  0  0  0  0
  -26.0302  -30.6678   21.3879 C   0  0  0  0  0  0
  -26.0940  -29.2632   20.7369 C   0  0  0  0  0  0
  -27.2454  -28.3683   20.7250 C   0  0  0  0  0  0
  -25.9709  -26.6997   19.5602 C   0  0  0  0  0  0
  -24.8600  -27.5752   19.5270 C   0  0  0  0  0  0
  -23.6920  -29.7629   20.1585 C   0  0  0  0  0  0
  -25.4145  -36.2986   24.0300 C   0  0  1  0  0  0
  -20.5933  -28.3758   23.1225 C   0  0  2  0  0  0
  -20.6801  -26.9458   22.5404 C   0  0  0  0  0  0
  -19.5769  -26.6398   21.5224 C   0  0  0  0  0  0
  -18.1953  -26.7945   22.1624 C   0  0  0  0  0  0
  -19.1566  -28.8898   23.2844 C   0  0  0  0  0  0
  -18.9466  -30.1485   23.8894 C   0  0  0  0  0  0
  -17.6458  -30.6602   24.0557 C   0  0  0  0  0  0
  -25.9122  -34.9377   23.5024 C   0  0  0  0  0  0
  -16.5356  -29.9088   23.6340 C   0  0  0  0  0  0
  -16.7287  -28.6490   23.0390 C   0  0  0  0  0  0
  -26.4568  -31.6550   25.0696 C   0  0  0  0  0  0
  -25.3695  -31.3730   26.1346 C   0  0  0  0  0  0
  -27.0468  -30.2955   24.6332 C   0  0  0  0  0  0
  -27.6106  -32.4319   25.7479 C   0  0  0  0  0  0
  -27.5579  -37.1744   24.8466 C   0  0  0  0  0  0
  -21.4328  -29.3058   22.3584 N   0  0  0  0  0  0
  -26.4285  -37.3719   23.9417 N   0  0  0  0  0  0
  -24.7396  -31.0093   22.0849 N   0  0  0  0  0  0
  -23.4208  -28.8125   23.3104 O   0  0  0  0  0  0
  -28.2692  -25.9992   20.0994 O   0  0  0  0  0  0
  -26.5697  -34.8890   22.4608 O   0  0  0  0  0  0
  -23.5671  -32.1300   23.6886 O   0  0  0  0  0  0
  -29.8417  -19.5347   22.4954 C   0  0  0  0  0  0
  -29.4430  -20.6569   21.7155 C   0  0  0  0  0  0
  -29.2618  -19.0918   19.8784 C   0  0  0  0  0  0
  -29.9658  -18.1976   22.0090 C   0  0  0  0  0  0
  -29.1379  -20.5378   20.3500 C   0  0  0  0  0  0
  -29.6846  -17.8585   20.6543 C   0  0  0  0  0  0
  -28.5649  -23.3810   19.4936 C   0  0  0  0  0  0
  -29.2235  -22.4890   17.4090 C   0  0  0  0  0  0
  -31.1145  -22.2759   15.9049 C   0  0  0  0  0  0
  -28.2591  -24.5078   20.3524 C   0  0  0  0  0  0
  -29.7823  -22.3743   16.0793 C   0  0  0  0  0  0
  -28.5725  -23.6985   17.9859 C   0  0  0  0  0  0
  -30.3587  -17.1179   23.0092 C   0  0  0  0  0  0
  -29.3502  -24.9719   17.5687 C   0  0  0  0  0  0
  -27.1289  -23.7518   17.4247 C   0  0  0  0  0  0
  -29.2617  -21.5144   18.2315 N   0  0  0  0  0  0
  -28.8551  -21.8302   19.4861 N   0  0  0  0  0  0
  -29.6619  -16.3247   20.2558 N   0  0  0  0  0  0
  -31.4730  -12.9069   19.1755 H   0  0  0  0  0  0
  -30.4755  -11.7811   20.0584 H   0  0  0  0  0  0
  -29.8912  -11.7661   17.6003 H   0  0  0  0  0  0
  -29.5813  -13.4793   17.6458 H   0  0  0  0  0  0
  -27.9985  -11.2793   19.0130 H   0  0  0  0  0  0
  -27.4068  -12.3896   17.8087 H   0  0  0  0  0  0
  -27.5459  -14.2448   19.3470 H   0  0  0  0  0  0
  -28.8022  -12.4119   21.4502 H   0  0  0  0  0  0
  -28.3368  -14.0856   21.6961 H   0  0  0  0  0  0
  -25.2763   -9.5724   22.4741 H   0  0  0  0  0  0
  -24.0024   -7.4649   22.7464 H   0  0  0  0  0  0
  -21.0848   -8.8753   19.8949 H   0  0  0  0  0  0
  -22.3689  -10.9650   19.6127 H   0  0  0  0  0  0
  -21.1976   -7.6121   23.9729 H   0  0  0  0  0  0
  -21.1541   -6.0489   25.9082 H   0  0  0  0  0  0
  -22.0571   -2.7589   23.2840 H   0  0  0  0  0  0
  -22.4004  -11.9934   22.4941 H   0  0  0  0  0  0
  -21.0994  -13.1248   22.2523 H   0  0  0  0  0  0
  -24.6309  -15.8421   20.5217 H   0  0  0  0  0  0
  -26.2574  -15.6474   20.1149 H   0  0  0  0  0  0
  -26.7382  -32.5196   23.0929 H   0  0  0  0  0  0
  -25.0155  -33.9574   25.0276 H   0  0  0  0  0  0
  -22.7752  -31.2809   21.3648 H   0  0  0  0  0  0
  -23.3791  -35.9514   23.3276 H   0  0  0  0  0  0
  -24.3613  -36.8871   22.2076 H   0  0  0  0  0  0
  -23.7227  -37.6355   23.6727 H   0  0  0  0  0  0
  -26.1970  -31.4091   20.6050 H   0  0  0  0  0  0
  -26.8974  -30.7296   22.0330 H   0  0  0  0  0  0
  -28.1644  -28.7028   21.1823 H   0  0  0  0  0  0
  -25.8408  -25.7198   19.1302 H   0  0  0  0  0  0
  -23.9425  -27.2347   19.0680 H   0  0  0  0  0  0
  -23.8423  -30.5279   19.3973 H   0  0  0  0  0  0
  -22.8009  -29.2141   19.8497 H   0  0  0  0  0  0
  -25.1341  -36.1790   25.0785 H   0  0  0  0  0  0
  -21.0021  -28.3342   24.1346 H   0  0  0  0  0  0
  -20.5738  -26.2379   23.3632 H   0  0  0  0  0  0
  -21.6661  -26.7502   22.1172 H   0  0  0  0  0  0
  -19.6955  -25.6301   21.1279 H   0  0  0  0  0  0
  -19.6690  -27.3193   20.6738 H   0  0  0  0  0  0
  -17.4236  -26.6717   21.4012 H   0  0  0  0  0  0
  -18.0330  -26.0088   22.9009 H   0  0  0  0  0  0
  -19.7940  -30.7300   24.2288 H   0  0  0  0  0  0
  -17.5006  -31.6293   24.5134 H   0  0  0  0  0  0
  -15.5352  -30.2973   23.7681 H   0  0  0  0  0  0
  -15.8690  -28.0788   22.7151 H   0  0  0  0  0  0
  -24.5911  -30.7083   25.7590 H   0  0  0  0  0  0
  -24.8830  -32.2894   26.4706 H   0  0  0  0  0  0
  -25.7920  -30.8897   27.0170 H   0  0  0  0  0  0
  -26.3123  -29.6633   24.1341 H   0  0  0  0  0  0
  -27.4087  -29.7321   25.4942 H   0  0  0  0  0  0
  -27.9024  -30.4219   23.9695 H   0  0  0  0  0  0
  -27.2765  -33.3682   26.1968 H   0  0  0  0  0  0
  -28.3955  -32.6765   25.0307 H   0  0  0  0  0  0
  -28.0753  -31.8475   26.5434 H   0  0  0  0  0  0
  -28.2547  -38.0079   24.7556 H   0  0  0  0  0  0
  -28.1101  -36.2604   24.6239 H   0  0  0  0  0  0
  -27.2299  -37.1326   25.8860 H   0  0  0  0  0  0
  -20.9592  -29.8684   21.6652 H   0  0  0  0  0  0
  -26.0127  -38.2775   24.1410 H   0  0  0  0  0  0
  -30.0653  -19.7187   23.5367 H   0  0  0  0  0  0
  -29.4053  -21.6333   22.1763 H   0  0  0  0  0  0
  -29.0225  -18.9150   18.8401 H   0  0  0  0  0  0
  -31.5342  -22.2053   14.9110 H   0  0  0  0  0  0
  -31.8132  -22.2691   16.7325 H   0  0  0  0  0  0
  -28.1797  -24.3332   21.4149 H   0  0  0  0  0  0
  -29.1088  -22.3910   15.2332 H   0  0  0  0  0  0
  -30.4302  -17.5053   24.0264 H   0  0  0  0  0  0
  -31.3330  -16.7020   22.7507 H   0  0  0  0  0  0
  -29.6223  -16.3113   23.0275 H   0  0  0  0  0  0
  -30.3248  -25.0248   18.0508 H   0  0  0  0  0  0
  -28.8063  -25.8830   17.8061 H   0  0  0  0  0  0
  -29.5094  -25.0138   16.4905 H   0  0  0  0  0  0
  -26.4554  -23.0821   17.9608 H   0  0  0  0  0  0
  -27.0873  -23.4730   16.3694 H   0  0  0  0  0  0
  -26.7128  -24.7542   17.4772 H   0  0  0  0  0  0
  -28.7582  -16.0612   19.8972 H   0  0  0  0  0  0
  1 25  1  0  0  0
  1 30  2  0  0  0
  1 88  1  0  0  0
  2  3  1  0  0  0
  2 25  1  0  0  0
  2 89  1  0  0  0
  2 90  1  0  0  0
  3  4  1  0  0  0
  3 91  1  0  0  0
  3 92  1  0  0  0
  4  5  1  0  0  0
  4 93  1  0  0  0
  4 94  1  0  0  0
  5  6  1  0  0  0
  5 26  1  0  0  0
  5 95  1  0  0  0
  6 25  1  0  0  0
  6 96  1  0  0  0
  6 97  1  0  0  0
  7  8  2  0  0  0
  7 26  1  0  0  0
  7 29  1  0  0  0
  8  9  1  0  0  0
  8 22  1  0  0  0
  9 10  1  0  0  0
  9 27  2  0  0  0
 10 11  2  0  0  0
 10 15  1  0  0  0
 11 12  1  0  0  0
 11 98  1  0  0  0
 12 13  2  0  0  0
 12 99  1  0  0  0
 13 14  1  0  0  0
 13 31  1  0  0  0
 14 15  2  0  0  0
 14100  1  0  0  0
 15101  1  0  0  0
 16 17  2  0  0  0
 16 21  1  0  0  0
 16 31  1  0  0  0
 17 18  1  0  0  0
 17102  1  0  0  0
 18 19  2  0  0  0
 18103  1  0  0  0
 19 20  1  0  0  0
 19 24  1  0  0  0
 20 21  2  0  0  0
 20104  1  0  0  0
 21 23  1  0  0  0
 22 28  1  0  0  0
 22 32  2  0  0  0
 26 27  1  0  0  0
 28105  1  0  0  0
 28106  1  0  0  0
 29107  1  0  0  0
 29108  1  0  0  0
 33 34  1  0  0  0
 33 66  1  0  0  0
 33 70  2  0  0  0
 34 36  1  0  0  0
 34 59  1  0  0  0
 34109  1  0  0  0
 35 44  2  0  0  0
 35 45  1  0  0  0
 35 68  1  0  0  0
 36 56  1  0  0  0
 36110  1  0  0  0
 37 39  1  0  0  0
 37 47  1  0  0  0
 37 66  1  0  0  0
 37111  1  0  0  0
 38 43  2  0  0  0
 38 46  1  0  0  0
 38 47  1  0  0  0
 39 64  1  0  0  0
 39 67  2  0  0  0
 40 52  1  0  0  0
 40 53  2  0  0  0
 40 58  1  0  0  0
 41112  1  0  0  0
 41113  1  0  0  0
 41114  1  0  0  0
 41 48  1  0  0  0
 42 43  1  0  0  0
 42 66  1  0  0  0
 42115  1  0  0  0
 42116  1  0  0  0
 43 44  1  0  0  0
 44117  1  0  0  0
 45 46  2  0  0  0
 45118  1  0  0  0
 46119  1  0  0  0
 47120  1  0  0  0
 47121  1  0  0  0
 48 56  1  0  0  0
 48 65  1  0  0  0
 48122  1  0  0  0
 49 50  1  0  0  0
 49 53  1  0  0  0
 49 64  1  0  0  0
 49123  1  0  0  0
 50 51  1  0  0  0
 50124  1  0  0  0
 50125  1  0  0  0
 51 52  1  0  0  0
 51126  1  0  0  0
 51127  1  0  0  0
 52128  1  0  0  0
 52129  1  0  0  0
 53 54  1  0  0  0
 54 55  2  0  0  0
 54130  1  0  0  0
 55 57  1  0  0  0
 55131  1  0  0  0
 56 69  2  0  0  0
 57 58  2  0  0  0
 57132  1  0  0  0
 58133  1  0  0  0
 59 60  1  0  0  0
 59 61  1  0  0  0
 59 62  1  0  0  0
 60134  1  0  0  0
 60135  1  0  0  0
 60136  1  0  0  0
 61137  1  0  0  0
 61138  1  0  0  0
 61139  1  0  0  0
 62140  1  0  0  0
 62141  1  0  0  0
 62142  1  0  0  0
 63 65  1  0  0  0
 63143  1  0  0  0
 63144  1  0  0  0
 63145  1  0  0  0
 64146  1  0  0  0
 65147  1  0  0  0
 68 80  1  0  0  0
 71 72  2  0  0  0
 71 74  1  0  0  0
 71148  1  0  0  0
 72 75  1  0  0  0
 72149  1  0  0  0
 73 75  2  0  0  0
 73 76  1  0  0  0
 73150  1  0  0  0
 74 76  2  0  0  0
 74 83  1  0  0  0
 75 87  1  0  0  0
 76 88  1  0  0  0
 77 80  2  0  0  0
 77 82  1  0  0  0
 77 87  1  0  0  0
 78 81  1  0  0  0
 78 82  1  0  0  0
 78 86  2  0  0  0
 79 81  2  0  0  0
 79151  1  0  0  0
 79152  1  0  0  0
 80153  1  0  0  0
 81154  1  0  0  0
 82 84  1  0  0  0
 82 85  1  0  0  0
 83155  1  0  0  0
 83156  1  0  0  0
 83157  1  0  0  0
 84158  1  0  0  0
 84159  1  0  0  0
 84160  1  0  0  0
 85161  1  0  0  0
 85162  1  0  0  0
 85163  1  0  0  0
 86 87  1  0  0  0
 88164  1  0  0  0
M  ISO  4   1 100  68 101  80 101  88 100
M  END
> <chiral flag>
0

> <version>
0

> <s_m_source_file>
/data/baiqing/PycharmProjects/Reinvent-master-3.2/result/LINK_invent/BTK/process_docking_weight1_custom_product_contain_oxygen_bond_distance_aromatic_linkinvent_7_9_3/rearranged_h_0068.sdf

> <i_m_source_file_index>
87

> <r_mmod_Potential_Energy-OPLS-2005>
1001.97875976562

> <r_mmod_Stretch_Energy-OPLS-2005>
407.424743652344

> <r_mmod_Bend_Energy-OPLS-2005>
414.444885253906

> <r_mmod_Torsional_Energy-OPLS-2005>
289.161956787109

> <r_mmod_Improper_Torsional_Energy-OPLS-2005>
11.8160247802734

> <r_mmod_Van_der_Waal_Energy-OPLS-2005>
129.221740722656

> <r_mmod_Electrostatic_Energy-OPLS-2005>
-372.867919921875

> <r_mmod_Solvation_Energy-OPLS-2005>
-200.629516601562

> <b_mmod_Minimization_Converged-OPLS-2005>
0

> <r_mmod_RMS_Derivative-OPLS-2005>
3.69125962257385

$$$$
87
                    3D
 Structure written by MMmdl.
151159  0  0  1  0            999 V2000
  -30.6173  -14.7275   20.4316 C   0  0  0  0  0  0
  -30.4258  -12.4370   19.4783 C   0  0  0  0  0  0
  -29.5098  -12.5018   18.2372 C   0  0  0  0  0  0
  -28.0335  -12.3350   18.6454 C   0  0  0  0  0  0
  -27.6400  -13.2342   19.8479 C   0  0  2  0  0  0
  -28.6818  -13.1682   20.9856 C   0  0  0  0  0  0
  -25.2501  -13.8206   20.5687 C   0  0  0  0  0  0
  -24.1793  -13.0448   20.9200 C   0  0  0  0  0  0
  -24.6384  -11.6925   20.8737 C   0  0  0  0  0  0
  -23.9065  -10.4296   21.0399 C   0  0  0  0  0  0
  -24.3619   -9.4215   21.9179 C   0  0  0  0  0  0
  -23.6297   -8.2249   22.0753 C   0  0  0  0  0  0
  -22.4277   -8.0284   21.3547 C   0  0  0  0  0  0
  -21.9906   -9.0255   20.4650 C   0  0  0  0  0  0
  -22.7231  -10.2136   20.3058 C   0  0  0  0  0  0
  -21.6855   -6.0734   22.5277 C   0  0  0  0  0  0
  -21.4020   -6.5640   23.8211 C   0  0  0  0  0  0
  -21.3657   -5.6791   24.9173 C   0  0  0  0  0  0
  -21.6046   -4.3053   24.7222 C   0  0  0  0  0  0
  -21.8819   -3.8144   23.4344 C   0  0  0  0  0  0
  -21.9198   -4.6962   22.3399 C   0  0  0  0  0  0
  -22.7816  -13.5227   21.1862 C   0  0  0  0  0  0
  -22.1665   -4.2151   21.0975 F   0  0  0  0  0  0
  -21.5627   -3.4534   25.7733 F   0  0  0  0  0  0
  -29.9876  -13.5046   20.4071 N   0  0  0  0  0  0
  -26.2921  -12.9416   20.3255 N   0  0  0  0  0  0
  -25.9313  -11.6555   20.5735 N   0  0  0  0  0  0
  -22.0459  -12.8226   22.0421 N   0  0  0  0  0  0
  -25.4201  -15.1934   20.4113 N   0  0  0  0  0  0
  -31.8147  -14.7930   20.1387 O   0  0  0  0  0  0
  -21.6646   -6.8875   21.4240 O   0  0  0  0  0  0
  -22.3496  -14.5518   20.6686 O   0  0  0  0  0  0
  -24.6305  -31.8551   23.1978 C   0  0  0  0  0  0
  -25.9145  -32.4743   23.8311 C   0  0  1  0  0  0
  -27.2192  -27.2660   20.1189 C   0  0  0  0  0  0
  -25.5937  -33.8547   24.2225 N   0  0  0  0  0  0
  -23.4247  -30.4777   21.5406 C   0  0  2  0  0  0
  -24.8692  -28.9243   20.1081 C   0  0  0  0  0  0
  -22.7489  -29.4601   22.4915 C   0  0  0  0  0  0
  -18.0283  -28.1376   22.8473 C   0  0  0  0  0  0
  -24.1488  -36.7286   23.2630 C   0  0  0  0  0  0
  -25.9708  -30.7678   21.3776 C   0  0  0  0  0  0
  -26.0399  -29.3917   20.7162 C   0  0  0  0  0  0
  -27.2138  -28.5744   20.7100 C   0  0  0  0  0  0
  -26.0178  -26.8574   19.4956 C   0  0  0  0  0  0
  -24.8637  -27.6646   19.4897 C   0  0  0  0  0  0
  -23.6407  -29.8108   20.1564 C   0  0  0  0  0  0
  -25.4115  -36.3062   24.0313 C   0  0  1  0  0  0
  -20.5886  -28.3684   23.1270 C   0  0  2  0  0  0
  -20.6763  -26.9402   22.5406 C   0  0  0  0  0  0
  -19.5744  -26.6374   21.5203 C   0  0  0  0  0  0
  -18.1930  -26.7916   22.1621 C   0  0  0  0  0  0
  -19.1536  -28.8850   23.2858 C   0  0  0  0  0  0
  -18.9465  -30.1456   23.8870 C   0  0  0  0  0  0
  -17.6465  -30.6579   24.0559 C   0  0  0  0  0  0
  -25.9066  -34.9436   23.5072 C   0  0  0  0  0  0
  -16.5358  -29.9076   23.6332 C   0  0  0  0  0  0
  -16.7272  -28.6496   23.0345 C   0  0  0  0  0  0
  -26.4502  -31.6582   25.0716 C   0  0  0  0  0  0
  -25.3726  -31.3746   26.1440 C   0  0  0  0  0  0
  -27.0335  -30.2982   24.6234 C   0  0  0  0  0  0
  -27.6034  -32.4342   25.7504 C   0  0  0  0  0  0
  -27.5590  -37.1787   24.8451 C   0  0  0  0  0  0
  -21.4196  -29.3039   22.3669 N   0  0  0  0  0  0
  -26.4278  -37.3782   23.9422 N   0  0  0  0  0  0
  -24.6939  -31.0526   22.0943 N   0  0  0  0  0  0
  -23.4203  -28.8149   23.3010 O   0  0  0  0  0  0
  -28.3448  -26.4143   20.1970 O   0  0  0  0  0  0
  -26.5654  -34.8929   22.4654 O   0  0  0  0  0  0
  -23.5463  -32.1376   23.7286 O   0  0  0  0  0  0
  -29.4320  -18.4819   20.5465 C   0  0  0  0  0  0
  -30.5397  -19.8354   18.8563 C   0  0  0  0  0  0
  -30.9265  -17.4181   18.9493 C   0  0  0  0  0  0
  -29.6432  -19.8010   19.9505 C   0  0  0  0  0  0
  -30.0739  -17.2573   20.0680 C   0  0  0  0  0  0
  -31.1572  -18.6735   18.3616 C   0  0  0  0  0  0
  -28.8914  -22.3035   19.7746 C   0  0  0  0  0  0
  -28.5345  -23.6792   20.5142 C   0  0  0  0  0  0
  -28.4177  -25.0282   19.6194 C   0  0  0  0  0  0
  -29.0631  -21.0889   20.4370 N   0  0  0  0  0  0
  -29.8564  -15.8804   20.6050 N   0  0  0  0  0  0
  -28.9734  -22.3540   18.5452 O   0  0  0  0  0  0
  -31.9911  -18.7645   17.2981 F   0  0  0  0  0  0
  -31.4694  -12.5482   19.1779 H   0  0  0  0  0  0
  -30.3583  -11.4611   19.9611 H   0  0  0  0  0  0
  -29.7892  -11.7291   17.5202 H   0  0  0  0  0  0
  -29.6460  -13.4575   17.7280 H   0  0  0  0  0  0
  -27.8827  -11.2864   18.9041 H   0  0  0  0  0  0
  -27.3822  -12.5359   17.7944 H   0  0  0  0  0  0
  -27.6355  -14.2561   19.4682 H   0  0  0  0  0  0
  -28.7061  -12.1730   21.4327 H   0  0  0  0  0  0
  -28.4189  -13.8582   21.7892 H   0  0  0  0  0  0
  -25.2769   -9.5694   22.4749 H   0  0  0  0  0  0
  -24.0012   -7.4640   22.7464 H   0  0  0  0  0  0
  -21.0839   -8.8766   19.8954 H   0  0  0  0  0  0
  -22.3685  -10.9672   19.6167 H   0  0  0  0  0  0
  -21.2014   -7.6148   23.9714 H   0  0  0  0  0  0
  -21.1480   -6.0522   25.9076 H   0  0  0  0  0  0
  -22.0600   -2.7610   23.2841 H   0  0  0  0  0  0
  -22.4083  -11.9917   22.4854 H   0  0  0  0  0  0
  -21.1070  -13.1250   22.2589 H   0  0  0  0  0  0
  -24.6523  -15.8474   20.5183 H   0  0  0  0  0  0
  -26.2661  -15.6312   20.0691 H   0  0  0  0  0  0
  -26.7214  -32.5375   23.1051 H   0  0  0  0  0  0
  -25.0056  -33.9678   25.0349 H   0  0  0  0  0  0
  -22.7206  -31.2996   21.3949 H   0  0  0  0  0  0
  -23.3764  -35.9603   23.3251 H   0  0  0  0  0  0
  -24.3580  -36.8965   22.2054 H   0  0  0  0  0  0
  -23.7239  -37.6467   23.6696 H   0  0  0  0  0  0
  -26.1179  -31.5312   20.6129 H   0  0  0  0  0  0
  -26.8466  -30.8085   22.0132 H   0  0  0  0  0  0
  -28.1112  -28.9279   21.1980 H   0  0  0  0  0  0
  -25.9178  -25.8909   19.0303 H   0  0  0  0  0  0
  -23.9637  -27.2957   19.0158 H   0  0  0  0  0  0
  -23.7654  -30.5863   19.3998 H   0  0  0  0  0  0
  -22.7587  -29.2441   19.8512 H   0  0  0  0  0  0
  -25.1302  -36.1876   25.0805 H   0  0  0  0  0  0
  -20.9964  -28.3250   24.1393 H   0  0  0  0  0  0
  -20.5644  -26.2290   23.3603 H   0  0  0  0  0  0
  -21.6638  -26.7417   22.1219 H   0  0  0  0  0  0
  -19.6901  -25.6280   21.1241 H   0  0  0  0  0  0
  -19.6686  -27.3173   20.6722 H   0  0  0  0  0  0
  -17.4198  -26.6653   21.4030 H   0  0  0  0  0  0
  -18.0340  -26.0058   22.9017 H   0  0  0  0  0  0
  -19.7948  -30.7275   24.2222 H   0  0  0  0  0  0
  -17.5026  -31.6254   24.5163 H   0  0  0  0  0  0
  -15.5361  -30.2974   23.7665 H   0  0  0  0  0  0
  -15.8671  -28.0818   22.7061 H   0  0  0  0  0  0
  -24.5895  -30.7097   25.7786 H   0  0  0  0  0  0
  -24.8931  -32.2918   26.4865 H   0  0  0  0  0  0
  -25.8051  -30.8933   27.0220 H   0  0  0  0  0  0
  -26.2915  -29.6738   24.1242 H   0  0  0  0  0  0
  -27.3955  -29.7254   25.4784 H   0  0  0  0  0  0
  -27.8830  -30.4221   23.9514 H   0  0  0  0  0  0
  -27.2605  -33.3632   26.2076 H   0  0  0  0  0  0
  -28.3856  -32.6929   25.0355 H   0  0  0  0  0  0
  -28.0689  -31.8482   26.5439 H   0  0  0  0  0  0
  -28.2559  -38.0132   24.7571 H   0  0  0  0  0  0
  -28.1139  -36.2672   24.6173 H   0  0  0  0  0  0
  -27.2322  -37.1311   25.8854 H   0  0  0  0  0  0
  -20.9373  -29.8767   21.6885 H   0  0  0  0  0  0
  -26.0139  -38.2839   24.1470 H   0  0  0  0  0  0
  -28.7625  -18.4087   21.3913 H   0  0  0  0  0  0
  -30.7905  -20.7640   18.3677 H   0  0  0  0  0  0
  -31.4252  -16.5741   18.4993 H   0  0  0  0  0  0
  -29.3039  -23.8370   21.2701 H   0  0  0  0  0  0
  -27.6040  -23.5347   21.0627 H   0  0  0  0  0  0
  -27.6646  -24.8654   18.8538 H   0  0  0  0  0  0
  -29.3366  -25.0602   19.0335 H   0  0  0  0  0  0
  -28.7979  -21.1034   21.4137 H   0  0  0  0  0  0
  -28.9543  -15.7201   21.0279 H   0  0  0  0  0  0
  1 25  1  0  0  0
  1 30  2  0  0  0
  1 81  1  0  0  0
  2  3  1  0  0  0
  2 25  1  0  0  0
  2 84  1  0  0  0
  2 85  1  0  0  0
  3  4  1  0  0  0
  3 86  1  0  0  0
  3 87  1  0  0  0
  4  5  1  0  0  0
  4 88  1  0  0  0
  4 89  1  0  0  0
  5  6  1  0  0  0
  5 26  1  0  0  0
  5 90  1  0  0  0
  6 25  1  0  0  0
  6 91  1  0  0  0
  6 92  1  0  0  0
  7  8  2  0  0  0
  7 26  1  0  0  0
  7 29  1  0  0  0
  8  9  1  0  0  0
  8 22  1  0  0  0
  9 10  1  0  0  0
  9 27  2  0  0  0
 10 11  2  0  0  0
 10 15  1  0  0  0
 11 12  1  0  0  0
 11 93  1  0  0  0
 12 13  2  0  0  0
 12 94  1  0  0  0
 13 14  1  0  0  0
 13 31  1  0  0  0
 14 15  2  0  0  0
 14 95  1  0  0  0
 15 96  1  0  0  0
 16 17  2  0  0  0
 16 21  1  0  0  0
 16 31  1  0  0  0
 17 18  1  0  0  0
 17 97  1  0  0  0
 18 19  2  0  0  0
 18 98  1  0  0  0
 19 20  1  0  0  0
 19 24  1  0  0  0
 20 21  2  0  0  0
 20 99  1  0  0  0
 21 23  1  0  0  0
 22 28  1  0  0  0
 22 32  2  0  0  0
 26 27  1  0  0  0
 28100  1  0  0  0
 28101  1  0  0  0
 29102  1  0  0  0
 29103  1  0  0  0
 33 34  1  0  0  0
 33 66  1  0  0  0
 33 70  2  0  0  0
 34 36  1  0  0  0
 34 59  1  0  0  0
 34104  1  0  0  0
 35 44  2  0  0  0
 35 45  1  0  0  0
 35 68  1  0  0  0
 36 56  1  0  0  0
 36105  1  0  0  0
 37 39  1  0  0  0
 37 47  1  0  0  0
 37 66  1  0  0  0
 37106  1  0  0  0
 38 43  2  0  0  0
 38 46  1  0  0  0
 38 47  1  0  0  0
 39 64  1  0  0  0
 39 67  2  0  0  0
 40 52  1  0  0  0
 40 53  2  0  0  0
 40 58  1  0  0  0
 41107  1  0  0  0
 41108  1  0  0  0
 41109  1  0  0  0
 41 48  1  0  0  0
 42 43  1  0  0  0
 42 66  1  0  0  0
 42110  1  0  0  0
 42111  1  0  0  0
 43 44  1  0  0  0
 44112  1  0  0  0
 45 46  2  0  0  0
 45113  1  0  0  0
 46114  1  0  0  0
 47115  1  0  0  0
 47116  1  0  0  0
 48 56  1  0  0  0
 48 65  1  0  0  0
 48117  1  0  0  0
 49 50  1  0  0  0
 49 53  1  0  0  0
 49 64  1  0  0  0
 49118  1  0  0  0
 50 51  1  0  0  0
 50119  1  0  0  0
 50120  1  0  0  0
 51 52  1  0  0  0
 51121  1  0  0  0
 51122  1  0  0  0
 52123  1  0  0  0
 52124  1  0  0  0
 53 54  1  0  0  0
 54 55  2  0  0  0
 54125  1  0  0  0
 55 57  1  0  0  0
 55126  1  0  0  0
 56 69  2  0  0  0
 57 58  2  0  0  0
 57127  1  0  0  0
 58128  1  0  0  0
 59 60  1  0  0  0
 59 61  1  0  0  0
 59 62  1  0  0  0
 60129  1  0  0  0
 60130  1  0  0  0
 60131  1  0  0  0
 61132  1  0  0  0
 61133  1  0  0  0
 61134  1  0  0  0
 62135  1  0  0  0
 62136  1  0  0  0
 62137  1  0  0  0
 63 65  1  0  0  0
 63138  1  0  0  0
 63139  1  0  0  0
 63140  1  0  0  0
 64141  1  0  0  0
 65142  1  0  0  0
 68 79  1  0  0  0
 71 74  2  0  0  0
 71 75  1  0  0  0
 71143  1  0  0  0
 72 74  1  0  0  0
 72 76  2  0  0  0
 72144  1  0  0  0
 73 75  2  0  0  0
 73 76  1  0  0  0
 73145  1  0  0  0
 74 80  1  0  0  0
 75 81  1  0  0  0
 76 83  1  0  0  0
 77 78  1  0  0  0
 77 80  1  0  0  0
 77 82  2  0  0  0
 78 79  1  0  0  0
 78146  1  0  0  0
 78147  1  0  0  0
 79148  1  0  0  0
 79149  1  0  0  0
 80150  1  0  0  0
 81151  1  0  0  0
M  ISO  4   1 100  68 101  79 101  81 100
M  END
> <chiral flag>
0

> <version>
0

> <s_m_source_file>
/data/baiqing/PycharmProjects/Reinvent-master-3.2/result/LINK_invent/BTK/process_docking_weight1_custom_product_contain_oxygen_bond_distance_aromatic_linkinvent_7_9_3/rearranged_h_0068.sdf

> <i_m_source_file_index>
88

> <r_mmod_Potential_Energy-OPLS-2005>
160.487426757812

> <r_mmod_Stretch_Energy-OPLS-2005>
127.065689086914

> <r_mmod_Bend_Energy-OPLS-2005>
168.079605102539

> <r_mmod_Torsional_Energy-OPLS-2005>
232.350234985352

> <r_mmod_Improper_Torsional_Energy-OPLS-2005>
4.75796127319336

> <r_mmod_Van_der_Waal_Energy-OPLS-2005>
149.042633056641

> <r_mmod_Electrostatic_Energy-OPLS-2005>
-364.885498046875

> <r_mmod_Solvation_Energy-OPLS-2005>
-234.809768676758

> <b_mmod_Minimization_Converged-OPLS-2005>
0

> <r_mmod_RMS_Derivative-OPLS-2005>
1.30600321292877

$$$$
88
                    3D
 Structure written by MMmdl.
151159  0  0  1  0            999 V2000
  -30.6864  -14.6266   20.4720 C   0  0  0  0  0  0
  -30.4128  -12.3822   19.4633 C   0  0  0  0  0  0
  -29.4988  -12.4920   18.2261 C   0  0  0  0  0  0
  -28.0232  -12.3393   18.6394 C   0  0  0  0  0  0
  -27.6439  -13.2302   19.8537 C   0  0  2  0  0  0
  -28.6888  -13.1422   20.9883 C   0  0  0  0  0  0
  -25.2514  -13.8206   20.5698 C   0  0  0  0  0  0
  -24.1803  -13.0449   20.9207 C   0  0  0  0  0  0
  -24.6392  -11.6927   20.8752 C   0  0  0  0  0  0
  -23.9070  -10.4300   21.0408 C   0  0  0  0  0  0
  -24.3622   -9.4213   21.9184 C   0  0  0  0  0  0
  -23.6298   -8.2247   22.0753 C   0  0  0  0  0  0
  -22.4280   -8.0284   21.3544 C   0  0  0  0  0  0
  -21.9915   -9.0257   20.4646 C   0  0  0  0  0  0
  -22.7243  -10.2138   20.3056 C   0  0  0  0  0  0
  -21.6856   -6.0738   22.5280 C   0  0  0  0  0  0
  -21.4015   -6.5641   23.8214 C   0  0  0  0  0  0
  -21.3660   -5.6793   24.9175 C   0  0  0  0  0  0
  -21.6044   -4.3055   24.7224 C   0  0  0  0  0  0
  -21.8819   -3.8147   23.4345 C   0  0  0  0  0  0
  -21.9193   -4.6965   22.3403 C   0  0  0  0  0  0
  -22.7823  -13.5227   21.1865 C   0  0  0  0  0  0
  -22.1662   -4.2152   21.0980 F   0  0  0  0  0  0
  -21.5628   -3.4537   25.7736 F   0  0  0  0  0  0
  -30.0004  -13.4436   20.4054 N   0  0  0  0  0  0
  -26.2946  -12.9414   20.3304 N   0  0  0  0  0  0
  -25.9323  -11.6556   20.5768 N   0  0  0  0  0  0
  -22.0470  -12.8215   22.0420 N   0  0  0  0  0  0
  -25.4203  -15.1929   20.4106 N   0  0  0  0  0  0
  -31.8751  -14.6756   20.1487 O   0  0  0  0  0  0
  -21.6644   -6.8881   21.4241 O   0  0  0  0  0  0
  -22.3506  -14.5531   20.6711 O   0  0  0  0  0  0
  -24.6246  -31.8609   23.2039 C   0  0  0  0  0  0
  -25.9101  -32.4784   23.8362 C   0  0  1  0  0  0
  -27.2173  -27.3331   20.1229 C   0  0  0  0  0  0
  -25.5927  -33.8584   24.2290 N   0  0  0  0  0  0
  -23.4178  -30.4848   21.5457 C   0  0  2  0  0  0
  -24.8651  -28.9429   20.1097 C   0  0  0  0  0  0
  -22.7467  -29.4628   22.4939 C   0  0  0  0  0  0
  -18.0283  -28.1383   22.8485 C   0  0  0  0  0  0
  -24.1490  -36.7293   23.2638 C   0  0  0  0  0  0
  -25.9576  -30.7968   21.3731 C   0  0  0  0  0  0
  -26.0330  -29.4254   20.7157 C   0  0  0  0  0  0
  -27.2168  -28.6315   20.7131 C   0  0  0  0  0  0
  -26.0361  -26.9042   19.4818 C   0  0  0  0  0  0
  -24.8674  -27.6871   19.4824 C   0  0  0  0  0  0
  -23.6321  -29.8208   20.1602 C   0  0  0  0  0  0
  -25.4111  -36.3085   24.0334 C   0  0  1  0  0  0
  -20.5881  -28.3684   23.1287 C   0  0  2  0  0  0
  -20.6770  -26.9409   22.5411 C   0  0  0  0  0  0
  -19.5749  -26.6383   21.5209 C   0  0  0  0  0  0
  -18.1929  -26.7928   22.1620 C   0  0  0  0  0  0
  -19.1534  -28.8850   23.2881 C   0  0  0  0  0  0
  -18.9458  -30.1452   23.8895 C   0  0  0  0  0  0
  -17.6460  -30.6585   24.0561 C   0  0  0  0  0  0
  -25.9050  -34.9455   23.5111 C   0  0  0  0  0  0
  -16.5350  -29.9084   23.6331 C   0  0  0  0  0  0
  -16.7270  -28.6502   23.0351 C   0  0  0  0  0  0
  -26.4495  -31.6588   25.0725 C   0  0  0  0  0  0
  -25.3738  -31.3721   26.1461 C   0  0  0  0  0  0
  -27.0328  -30.3011   24.6165 C   0  0  0  0  0  0
  -27.6057  -32.4320   25.7491 C   0  0  0  0  0  0
  -27.5584  -37.1795   24.8460 C   0  0  0  0  0  0
  -21.4181  -29.3040   22.3684 N   0  0  0  0  0  0
  -26.4286  -37.3782   23.9420 N   0  0  0  0  0  0
  -24.6852  -31.0636   22.0981 N   0  0  0  0  0  0
  -23.4199  -28.8166   23.3011 O   0  0  0  0  0  0
  -28.3073  -26.4600   20.1639 O   0  0  0  0  0  0
  -26.5611  -34.8921   22.4673 O   0  0  0  0  0  0
  -23.5414  -32.1399   23.7378 O   0  0  0  0  0  0
  -28.7789  -18.8605   21.1261 C   0  0  0  0  0  0
  -28.3031  -20.2073   21.2023 C   0  0  0  0  0  0
  -30.1450  -20.9714   19.8588 C   0  0  0  0  0  0
  -29.9653  -18.5410   20.4205 C   0  0  0  0  0  0
  -28.9732  -21.3036   20.5833 C   0  0  0  0  0  0
  -30.6255  -19.6333   19.7866 C   0  0  0  0  0  0
  -28.8155  -23.8917   20.2658 C   0  0  0  0  0  0
  -30.6527  -17.1278   20.3651 C   0  0  0  0  0  0
  -28.0325  -25.1525   20.8042 C   0  0  0  0  0  0
  -28.4518  -22.6625   20.7600 N   0  0  0  0  0  0
  -29.9997  -15.8011   20.6548 N   0  0  0  0  0  0
  -29.7120  -24.0401   19.4308 O   0  0  0  0  0  0
  -31.7740  -19.4025   19.1053 F   0  0  0  0  0  0
  -31.4594  -12.4634   19.1650 H   0  0  0  0  0  0
  -30.3133  -11.4014   19.9310 H   0  0  0  0  0  0
  -29.7620  -11.7295   17.4919 H   0  0  0  0  0  0
  -29.6490  -13.4553   17.7359 H   0  0  0  0  0  0
  -27.8607  -11.2895   18.8863 H   0  0  0  0  0  0
  -27.3689  -12.5555   17.7940 H   0  0  0  0  0  0
  -27.6477  -14.2568   19.4866 H   0  0  0  0  0  0
  -28.6945  -12.1479   21.4371 H   0  0  0  0  0  0
  -28.4470  -13.8409   21.7909 H   0  0  0  0  0  0
  -25.2766   -9.5693   22.4759 H   0  0  0  0  0  0
  -24.0010   -7.4638   22.7471 H   0  0  0  0  0  0
  -21.0848   -8.8774   19.8950 H   0  0  0  0  0  0
  -22.3699  -10.9676   19.6166 H   0  0  0  0  0  0
  -21.2007   -7.6150   23.9718 H   0  0  0  0  0  0
  -21.1481   -6.0522   25.9078 H   0  0  0  0  0  0
  -22.0596   -2.7610   23.2842 H   0  0  0  0  0  0
  -22.4085  -11.9873   22.4803 H   0  0  0  0  0  0
  -21.1091  -13.1243   22.2633 H   0  0  0  0  0  0
  -24.6513  -15.8457   20.5166 H   0  0  0  0  0  0
  -26.2665  -15.6319   20.0711 H   0  0  0  0  0  0
  -26.7171  -32.5460   23.1114 H   0  0  0  0  0  0
  -25.0093  -33.9733   25.0448 H   0  0  0  0  0  0
  -22.7110  -31.3050   21.4037 H   0  0  0  0  0  0
  -23.3757  -35.9619   23.3286 H   0  0  0  0  0  0
  -24.3589  -36.8924   22.2055 H   0  0  0  0  0  0
  -23.7232  -37.6489   23.6662 H   0  0  0  0  0  0
  -26.0874  -31.5610   20.6055 H   0  0  0  0  0  0
  -26.8388  -30.8455   22.0011 H   0  0  0  0  0  0
  -28.1124  -28.9925   21.1990 H   0  0  0  0  0  0
  -26.0076  -25.9407   18.9923 H   0  0  0  0  0  0
  -23.9740  -27.3141   19.0006 H   0  0  0  0  0  0
  -23.7501  -30.5980   19.4042 H   0  0  0  0  0  0
  -22.7527  -29.2490   19.8578 H   0  0  0  0  0  0
  -25.1287  -36.1934   25.0826 H   0  0  0  0  0  0
  -20.9972  -28.3253   24.1407 H   0  0  0  0  0  0
  -20.5666  -26.2292   23.3607 H   0  0  0  0  0  0
  -21.6639  -26.7438   22.1207 H   0  0  0  0  0  0
  -19.6911  -25.6293   21.1240 H   0  0  0  0  0  0
  -19.6692  -27.3191   20.6738 H   0  0  0  0  0  0
  -17.4200  -26.6674   21.4022 H   0  0  0  0  0  0
  -18.0331  -26.0068   22.9016 H   0  0  0  0  0  0
  -19.7935  -30.7267   24.2263 H   0  0  0  0  0  0
  -17.5017  -31.6266   24.5162 H   0  0  0  0  0  0
  -15.5352  -30.2986   23.7661 H   0  0  0  0  0  0
  -15.8668  -28.0823   22.7067 H   0  0  0  0  0  0
  -24.5916  -30.7062   25.7800 H   0  0  0  0  0  0
  -24.8926  -32.2884   26.4889 H   0  0  0  0  0  0
  -25.8079  -30.8906   27.0233 H   0  0  0  0  0  0
  -26.2891  -29.6769   24.1198 H   0  0  0  0  0  0
  -27.4037  -29.7261   25.4661 H   0  0  0  0  0  0
  -27.8761  -30.4296   23.9375 H   0  0  0  0  0  0
  -27.2666  -33.3618   26.2069 H   0  0  0  0  0  0
  -28.3865  -32.6882   25.0318 H   0  0  0  0  0  0
  -28.0728  -31.8445   26.5406 H   0  0  0  0  0  0
  -28.2579  -38.0115   24.7541 H   0  0  0  0  0  0
  -28.1103  -36.2648   24.6236 H   0  0  0  0  0  0
  -27.2313  -37.1382   25.8865 H   0  0  0  0  0  0
  -20.9353  -29.8771   21.6905 H   0  0  0  0  0  0
  -26.0166  -38.2852   24.1444 H   0  0  0  0  0  0
  -28.2393  -18.0789   21.6417 H   0  0  0  0  0  0
  -27.4030  -20.3940   21.7720 H   0  0  0  0  0  0
  -30.7162  -21.7410   19.3626 H   0  0  0  0  0  0
  -31.5235  -17.2020   21.0190 H   0  0  0  0  0  0
  -31.0632  -17.0448   19.3567 H   0  0  0  0  0  0
  -28.2856  -25.2594   21.8594 H   0  0  0  0  0  0
  -26.9726  -24.8992   20.7900 H   0  0  0  0  0  0
  -27.6695  -22.7221   21.3980 H   0  0  0  0  0  0
  -29.0126  -15.7701   20.8579 H   0  0  0  0  0  0
  1 25  1  0  0  0
  1 30  2  0  0  0
  1 81  1  0  0  0
  2  3  1  0  0  0
  2 25  1  0  0  0
  2 84  1  0  0  0
  2 85  1  0  0  0
  3  4  1  0  0  0
  3 86  1  0  0  0
  3 87  1  0  0  0
  4  5  1  0  0  0
  4 88  1  0  0  0
  4 89  1  0  0  0
  5  6  1  0  0  0
  5 26  1  0  0  0
  5 90  1  0  0  0
  6 25  1  0  0  0
  6 91  1  0  0  0
  6 92  1  0  0  0
  7  8  2  0  0  0
  7 26  1  0  0  0
  7 29  1  0  0  0
  8  9  1  0  0  0
  8 22  1  0  0  0
  9 10  1  0  0  0
  9 27  2  0  0  0
 10 11  2  0  0  0
 10 15  1  0  0  0
 11 12  1  0  0  0
 11 93  1  0  0  0
 12 13  2  0  0  0
 12 94  1  0  0  0
 13 14  1  0  0  0
 13 31  1  0  0  0
 14 15  2  0  0  0
 14 95  1  0  0  0
 15 96  1  0  0  0
 16 17  2  0  0  0
 16 21  1  0  0  0
 16 31  1  0  0  0
 17 18  1  0  0  0
 17 97  1  0  0  0
 18 19  2  0  0  0
 18 98  1  0  0  0
 19 20  1  0  0  0
 19 24  1  0  0  0
 20 21  2  0  0  0
 20 99  1  0  0  0
 21 23  1  0  0  0
 22 28  1  0  0  0
 22 32  2  0  0  0
 26 27  1  0  0  0
 28100  1  0  0  0
 28101  1  0  0  0
 29102  1  0  0  0
 29103  1  0  0  0
 33 34  1  0  0  0
 33 66  1  0  0  0
 33 70  2  0  0  0
 34 36  1  0  0  0
 34 59  1  0  0  0
 34104  1  0  0  0
 35 44  2  0  0  0
 35 45  1  0  0  0
 35 68  1  0  0  0
 36 56  1  0  0  0
 36105  1  0  0  0
 37 39  1  0  0  0
 37 47  1  0  0  0
 37 66  1  0  0  0
 37106  1  0  0  0
 38 43  2  0  0  0
 38 46  1  0  0  0
 38 47  1  0  0  0
 39 64  1  0  0  0
 39 67  2  0  0  0
 40 52  1  0  0  0
 40 53  2  0  0  0
 40 58  1  0  0  0
 41107  1  0  0  0
 41108  1  0  0  0
 41109  1  0  0  0
 41 48  1  0  0  0
 42 43  1  0  0  0
 42 66  1  0  0  0
 42110  1  0  0  0
 42111  1  0  0  0
 43 44  1  0  0  0
 44112  1  0  0  0
 45 46  2  0  0  0
 45113  1  0  0  0
 46114  1  0  0  0
 47115  1  0  0  0
 47116  1  0  0  0
 48 56  1  0  0  0
 48 65  1  0  0  0
 48117  1  0  0  0
 49 50  1  0  0  0
 49 53  1  0  0  0
 49 64  1  0  0  0
 49118  1  0  0  0
 50 51  1  0  0  0
 50119  1  0  0  0
 50120  1  0  0  0
 51 52  1  0  0  0
 51121  1  0  0  0
 51122  1  0  0  0
 52123  1  0  0  0
 52124  1  0  0  0
 53 54  1  0  0  0
 54 55  2  0  0  0
 54125  1  0  0  0
 55 57  1  0  0  0
 55126  1  0  0  0
 56 69  2  0  0  0
 57 58  2  0  0  0
 57127  1  0  0  0
 58128  1  0  0  0
 59 60  1  0  0  0
 59 61  1  0  0  0
 59 62  1  0  0  0
 60129  1  0  0  0
 60130  1  0  0  0
 60131  1  0  0  0
 61132  1  0  0  0
 61133  1  0  0  0
 61134  1  0  0  0
 62135  1  0  0  0
 62136  1  0  0  0
 62137  1  0  0  0
 63 65  1  0  0  0
 63138  1  0  0  0
 63139  1  0  0  0
 63140  1  0  0  0
 64141  1  0  0  0
 65142  1  0  0  0
 68 79  1  0  0  0
 71 72  2  0  0  0
 71 74  1  0  0  0
 71143  1  0  0  0
 72 75  1  0  0  0
 72144  1  0  0  0
 73 75  2  0  0  0
 73 76  1  0  0  0
 73145  1  0  0  0
 74 76  2  0  0  0
 74 78  1  0  0  0
 75 80  1  0  0  0
 76 83  1  0  0  0
 77 79  1  0  0  0
 77 80  1  0  0  0
 77 82  2  0  0  0
 78 81  1  0  0  0
 78146  1  0  0  0
 78147  1  0  0  0
 79148  1  0  0  0
 79149  1  0  0  0
 80150  1  0  0  0
 81151  1  0  0  0
M  ISO  4   1 100  68 101  79 101  81 100
M  END
> <chiral flag>
0

> <version>
0

> <s_m_source_file>
/data/baiqing/PycharmProjects/Reinvent-master-3.2/result/LINK_invent/BTK/process_docking_weight1_custom_product_contain_oxygen_bond_distance_aromatic_linkinvent_7_9_3/rearranged_h_0068.sdf

> <i_m_source_file_index>
89

> <r_mmod_Potential_Energy-OPLS-2005>
25.0390701293945

> <r_mmod_Stretch_Energy-OPLS-2005>
74.6087417602539

> <r_mmod_Bend_Energy-OPLS-2005>
150.418426513672

> <r_mmod_Torsional_Energy-OPLS-2005>
227.049865722656

> <r_mmod_Improper_Torsional_Energy-OPLS-2005>
6.01709032058716

> <r_mmod_Van_der_Waal_Energy-OPLS-2005>
146.524353027344

> <r_mmod_Electrostatic_Energy-OPLS-2005>
-386.945343017578

> <r_mmod_Solvation_Energy-OPLS-2005>
-243.285827636719

> <b_mmod_Minimization_Converged-OPLS-2005>
0

> <r_mmod_RMS_Derivative-OPLS-2005>
0.329216241836548

$$$$
89
                    3D
 Structure written by MMmdl.
156164  0  0  1  0            999 V2000
  -30.6010  -14.7876   20.3812 C   0  0  0  0  0  0
  -30.4511  -12.4789   19.4268 C   0  0  0  0  0  0
  -29.5029  -12.4846   18.2097 C   0  0  0  0  0  0
  -28.0346  -12.3038   18.6479 C   0  0  0  0  0  0
  -27.6384  -13.2264   19.8334 C   0  0  2  0  0  0
  -28.7051  -13.1874   20.9453 C   0  0  0  0  0  0
  -25.2542  -13.8206   20.5740 C   0  0  0  0  0  0
  -24.1805  -13.0447   20.9210 C   0  0  0  0  0  0
  -24.6402  -11.6920   20.8756 C   0  0  0  0  0  0
  -23.9065  -10.4291   21.0420 C   0  0  0  0  0  0
  -24.3619   -9.4198   21.9184 C   0  0  0  0  0  0
  -23.6291   -8.2233   22.0753 C   0  0  0  0  0  0
  -22.4269   -8.0268   21.3536 C   0  0  0  0  0  0
  -21.9908   -9.0240   20.4634 C   0  0  0  0  0  0
  -22.7242  -10.2117   20.3060 C   0  0  0  0  0  0
  -21.6855   -6.0721   22.5272 C   0  0  0  0  0  0
  -21.4016   -6.5629   23.8202 C   0  0  0  0  0  0
  -21.3657   -5.6787   24.9161 C   0  0  0  0  0  0
  -21.6054   -4.3050   24.7220 C   0  0  0  0  0  0
  -21.8808   -3.8134   23.4340 C   0  0  0  0  0  0
  -21.9190   -4.6949   22.3398 C   0  0  0  0  0  0
  -22.7811  -13.5199   21.1875 C   0  0  0  0  0  0
  -22.1652   -4.2135   21.0976 F   0  0  0  0  0  0
  -21.5642   -3.4527   25.7734 F   0  0  0  0  0  0
  -29.9832  -13.5585   20.3186 N   0  0  0  0  0  0
  -26.2957  -12.9383   20.3288 N   0  0  0  0  0  0
  -25.9337  -11.6529   20.5779 N   0  0  0  0  0  0
  -22.0473  -12.8188   22.0438 N   0  0  0  0  0  0
  -25.4246  -15.1934   20.4177 N   0  0  0  0  0  0
  -31.8309  -14.8626   20.3178 O   0  0  0  0  0  0
  -21.6640   -6.8853   21.4224 O   0  0  0  0  0  0
  -22.3476  -14.5480   20.6716 O   0  0  0  0  0  0
  -24.6324  -31.8512   23.1957 C   0  0  0  0  0  0
  -25.9130  -32.4733   23.8333 C   0  0  1  0  0  0
  -27.2203  -27.2252   20.1362 C   0  0  0  0  0  0
  -25.5919  -33.8544   24.2245 N   0  0  0  0  0  0
  -23.4310  -30.4700   21.5416 C   0  0  2  0  0  0
  -24.8796  -28.9035   20.1178 C   0  0  0  0  0  0
  -22.7523  -29.4569   22.4961 C   0  0  0  0  0  0
  -18.0310  -28.1375   22.8498 C   0  0  0  0  0  0
  -24.1498  -36.7278   23.2643 C   0  0  0  0  0  0
  -25.9790  -30.7514   21.3816 C   0  0  0  0  0  0
  -26.0517  -29.3679   20.7292 C   0  0  0  0  0  0
  -27.2249  -28.5411   20.7241 C   0  0  0  0  0  0
  -26.0243  -26.8290   19.5059 C   0  0  0  0  0  0
  -24.8710  -27.6424   19.4968 C   0  0  0  0  0  0
  -23.6536  -29.7986   20.1602 C   0  0  0  0  0  0
  -25.4118  -36.3053   24.0317 C   0  0  1  0  0  0
  -20.5908  -28.3684   23.1305 C   0  0  2  0  0  0
  -20.6801  -26.9428   22.5416 C   0  0  0  0  0  0
  -19.5790  -26.6432   21.5204 C   0  0  0  0  0  0
  -18.1965  -26.7927   22.1635 C   0  0  0  0  0  0
  -19.1557  -28.8837   23.2897 C   0  0  0  0  0  0
  -18.9464  -30.1467   23.8861 C   0  0  0  0  0  0
  -17.6468  -30.6606   24.0487 C   0  0  0  0  0  0
  -25.9054  -34.9425   23.5081 C   0  0  0  0  0  0
  -16.5359  -29.9103   23.6243 C   0  0  0  0  0  0
  -16.7293  -28.6512   23.0283 C   0  0  0  0  0  0
  -26.4495  -31.6568   25.0732 C   0  0  0  0  0  0
  -25.3699  -31.3716   26.1435 C   0  0  0  0  0  0
  -27.0359  -30.2986   24.6226 C   0  0  0  0  0  0
  -27.6043  -32.4329   25.7483 C   0  0  0  0  0  0
  -27.5581  -37.1784   24.8460 C   0  0  0  0  0  0
  -21.4230  -29.3037   22.3716 N   0  0  0  0  0  0
  -26.4295  -37.3749   23.9399 N   0  0  0  0  0  0
  -24.7000  -31.0436   22.0956 N   0  0  0  0  0  0
  -23.4219  -28.8107   23.3061 O   0  0  0  0  0  0
  -28.3283  -26.3382   20.1153 O   0  0  0  0  0  0
  -26.5653  -34.8909   22.4671 O   0  0  0  0  0  0
  -23.5464  -32.1376   23.7228 O   0  0  0  0  0  0
  -28.2401  -19.4223   21.9158 C   0  0  0  0  0  0
  -29.6220  -18.5498   20.1155 C   0  0  0  0  0  0
  -28.7494  -17.0293   21.7997 C   0  0  0  0  0  0
  -28.9947  -19.7186   20.7460 C   0  0  0  0  0  0
  -28.0824  -18.1066   22.4213 C   0  0  0  0  0  0
  -29.5135  -17.1841   20.6382 C   0  0  0  0  0  0
  -28.8254  -23.6436   20.0073 C   0  0  0  0  0  0
  -28.2145  -24.9052   20.2258 C   0  0  0  0  0  0
  -28.3522  -22.3043   20.5433 C   0  0  0  0  0  0
  -26.7315  -16.7552   24.0644 C   0  0  0  0  0  0
  -25.4918  -16.8467   24.9412 C   0  0  0  0  0  0
  -29.1037  -21.1476   20.2636 N   0  0  0  0  0  0
  -27.1667  -17.9028   23.5023 N   0  0  0  0  0  0
  -29.8527  -15.8939   19.9809 N   0  0  0  0  0  0
  -27.3088  -22.2203   21.1946 O   0  0  0  0  0  0
  -27.2767  -15.6559   23.9533 O   0  0  0  0  0  0
  -31.4806  -12.6414   19.1023 H   0  0  0  0  0  0
  -30.4428  -11.5139   19.9361 H   0  0  0  0  0  0
  -29.7834  -11.6999   17.5053 H   0  0  0  0  0  0
  -29.6072  -13.4281   17.6734 H   0  0  0  0  0  0
  -27.9090  -11.2591   18.9385 H   0  0  0  0  0  0
  -27.3605  -12.4610   17.8040 H   0  0  0  0  0  0
  -27.6150  -14.2393   19.4330 H   0  0  0  0  0  0
  -28.7699  -12.1954   21.3919 H   0  0  0  0  0  0
  -28.4526  -13.8717   21.7542 H   0  0  0  0  0  0
  -25.2762   -9.5659   22.4750 H   0  0  0  0  0  0
  -23.9988   -7.4620   22.7484 H   0  0  0  0  0  0
  -21.0835   -8.8741   19.8945 H   0  0  0  0  0  0
  -22.3699  -10.9641   19.6157 H   0  0  0  0  0  0
  -21.2011   -7.6145   23.9697 H   0  0  0  0  0  0
  -21.1500   -6.0523   25.9065 H   0  0  0  0  0  0
  -22.0608   -2.7605   23.2853 H   0  0  0  0  0  0
  -22.4112  -11.9843   22.4784 H   0  0  0  0  0  0
  -21.1083  -13.1171   22.2661 H   0  0  0  0  0  0
  -24.6676  -15.8550   20.5451 H   0  0  0  0  0  0
  -26.2927  -15.6364   20.1518 H   0  0  0  0  0  0
  -26.7175  -32.5401   23.1059 H   0  0  0  0  0  0
  -25.0017  -33.9660   25.0355 H   0  0  0  0  0  0
  -22.7266  -31.2901   21.3928 H   0  0  0  0  0  0
  -23.3762  -35.9615   23.3297 H   0  0  0  0  0  0
  -24.3590  -36.8914   22.2062 H   0  0  0  0  0  0
  -23.7261  -37.6472   23.6687 H   0  0  0  0  0  0
  -26.1199  -31.5066   20.6080 H   0  0  0  0  0  0
  -26.8543  -30.8054   22.0170 H   0  0  0  0  0  0
  -28.1297  -28.8942   21.1980 H   0  0  0  0  0  0
  -25.9748  -25.8634   19.0246 H   0  0  0  0  0  0
  -23.9722  -27.2817   19.0166 H   0  0  0  0  0  0
  -23.7870  -30.5730   19.4030 H   0  0  0  0  0  0
  -22.7714  -29.2349   19.8545 H   0  0  0  0  0  0
  -25.1306  -36.1889   25.0810 H   0  0  0  0  0  0
  -20.9984  -28.3221   24.1440 H   0  0  0  0  0  0
  -20.5696  -26.2299   23.3601 H   0  0  0  0  0  0
  -21.6670  -26.7434   22.1195 H   0  0  0  0  0  0
  -19.6959  -25.6373   21.1148 H   0  0  0  0  0  0
  -19.6737  -27.3341   20.6822 H   0  0  0  0  0  0
  -17.4232  -26.6722   21.4034 H   0  0  0  0  0  0
  -18.0354  -26.0027   22.8986 H   0  0  0  0  0  0
  -19.7939  -30.7310   24.2161 H   0  0  0  0  0  0
  -17.4988  -31.6308   24.5019 H   0  0  0  0  0  0
  -15.5363  -30.3050   23.7403 H   0  0  0  0  0  0
  -15.8691  -28.0865   22.6944 H   0  0  0  0  0  0
  -24.5865  -30.7076   25.7746 H   0  0  0  0  0  0
  -24.8896  -32.2888   26.4858 H   0  0  0  0  0  0
  -25.7987  -30.8878   27.0218 H   0  0  0  0  0  0
  -26.2965  -29.6709   24.1236 H   0  0  0  0  0  0
  -27.4027  -29.7251   25.4747 H   0  0  0  0  0  0
  -27.8846  -30.4266   23.9507 H   0  0  0  0  0  0
  -27.2648  -33.3637   26.2043 H   0  0  0  0  0  0
  -28.3847  -32.6878   25.0299 H   0  0  0  0  0  0
  -28.0738  -31.8482   26.5396 H   0  0  0  0  0  0
  -28.2576  -38.0100   24.7505 H   0  0  0  0  0  0
  -28.1100  -36.2621   24.6293 H   0  0  0  0  0  0
  -27.2299  -37.1442   25.8864 H   0  0  0  0  0  0
  -20.9441  -29.8722   21.6873 H   0  0  0  0  0  0
  -26.0169  -38.2821   24.1404 H   0  0  0  0  0  0
  -27.7409  -20.2161   22.4473 H   0  0  0  0  0  0
  -30.1733  -18.6980   19.1971 H   0  0  0  0  0  0
  -28.6191  -16.0230   22.1506 H   0  0  0  0  0  0
  -29.7408  -23.5267   19.4251 H   0  0  0  0  0  0
  -28.9699  -25.1140   19.4867 H   0  0  0  0  0  0
  -24.6725  -16.3101   24.4587 H   0  0  0  0  0  0
  -25.1813  -17.8771   25.1037 H   0  0  0  0  0  0
  -25.6808  -16.3795   25.9088 H   0  0  0  0  0  0
  -29.8749  -21.3178   19.6313 H   0  0  0  0  0  0
  -26.6746  -18.7288   23.8098 H   0  0  0  0  0  0
  -29.0978  -15.5805   19.3899 H   0  0  0  0  0  0
  1 25  1  0  0  0
  1 30  2  0  0  0
  1 84  1  0  0  0
  2  3  1  0  0  0
  2 25  1  0  0  0
  2 87  1  0  0  0
  2 88  1  0  0  0
  3  4  1  0  0  0
  3 89  1  0  0  0
  3 90  1  0  0  0
  4  5  1  0  0  0
  4 91  1  0  0  0
  4 92  1  0  0  0
  5  6  1  0  0  0
  5 26  1  0  0  0
  5 93  1  0  0  0
  6 25  1  0  0  0
  6 94  1  0  0  0
  6 95  1  0  0  0
  7  8  2  0  0  0
  7 26  1  0  0  0
  7 29  1  0  0  0
  8  9  1  0  0  0
  8 22  1  0  0  0
  9 10  1  0  0  0
  9 27  2  0  0  0
 10 11  2  0  0  0
 10 15  1  0  0  0
 11 12  1  0  0  0
 11 96  1  0  0  0
 12 13  2  0  0  0
 12 97  1  0  0  0
 13 14  1  0  0  0
 13 31  1  0  0  0
 14 15  2  0  0  0
 14 98  1  0  0  0
 15 99  1  0  0  0
 16 17  2  0  0  0
 16 21  1  0  0  0
 16 31  1  0  0  0
 17 18  1  0  0  0
 17100  1  0  0  0
 18 19  2  0  0  0
 18101  1  0  0  0
 19 20  1  0  0  0
 19 24  1  0  0  0
 20 21  2  0  0  0
 20102  1  0  0  0
 21 23  1  0  0  0
 22 28  1  0  0  0
 22 32  2  0  0  0
 26 27  1  0  0  0
 28103  1  0  0  0
 28104  1  0  0  0
 29105  1  0  0  0
 29106  1  0  0  0
 33 34  1  0  0  0
 33 66  1  0  0  0
 33 70  2  0  0  0
 34 36  1  0  0  0
 34 59  1  0  0  0
 34107  1  0  0  0
 35 44  2  0  0  0
 35 45  1  0  0  0
 35 68  1  0  0  0
 36 56  1  0  0  0
 36108  1  0  0  0
 37 39  1  0  0  0
 37 47  1  0  0  0
 37 66  1  0  0  0
 37109  1  0  0  0
 38 43  2  0  0  0
 38 46  1  0  0  0
 38 47  1  0  0  0
 39 64  1  0  0  0
 39 67  2  0  0  0
 40 52  1  0  0  0
 40 53  2  0  0  0
 40 58  1  0  0  0
 41110  1  0  0  0
 41111  1  0  0  0
 41112  1  0  0  0
 41 48  1  0  0  0
 42 43  1  0  0  0
 42 66  1  0  0  0
 42113  1  0  0  0
 42114  1  0  0  0
 43 44  1  0  0  0
 44115  1  0  0  0
 45 46  2  0  0  0
 45116  1  0  0  0
 46117  1  0  0  0
 47118  1  0  0  0
 47119  1  0  0  0
 48 56  1  0  0  0
 48 65  1  0  0  0
 48120  1  0  0  0
 49 50  1  0  0  0
 49 53  1  0  0  0
 49 64  1  0  0  0
 49121  1  0  0  0
 50 51  1  0  0  0
 50122  1  0  0  0
 50123  1  0  0  0
 51 52  1  0  0  0
 51124  1  0  0  0
 51125  1  0  0  0
 52126  1  0  0  0
 52127  1  0  0  0
 53 54  1  0  0  0
 54 55  2  0  0  0
 54128  1  0  0  0
 55 57  1  0  0  0
 55129  1  0  0  0
 56 69  2  0  0  0
 57 58  2  0  0  0
 57130  1  0  0  0
 58131  1  0  0  0
 59 60  1  0  0  0
 59 61  1  0  0  0
 59 62  1  0  0  0
 60132  1  0  0  0
 60133  1  0  0  0
 60134  1  0  0  0
 61135  1  0  0  0
 61136  1  0  0  0
 61137  1  0  0  0
 62138  1  0  0  0
 62139  1  0  0  0
 62140  1  0  0  0
 63 65  1  0  0  0
 63141  1  0  0  0
 63142  1  0  0  0
 63143  1  0  0  0
 64144  1  0  0  0
 65145  1  0  0  0
 68 78  1  0  0  0
 71 74  2  0  0  0
 71 75  1  0  0  0
 71146  1  0  0  0
 72 74  1  0  0  0
 72 76  2  0  0  0
 72147  1  0  0  0
 73 75  2  0  0  0
 73 76  1  0  0  0
 73148  1  0  0  0
 74 82  1  0  0  0
 75 83  1  0  0  0
 76 84  1  0  0  0
 77 78  2  0  0  0
 77 79  1  0  0  0
 77149  1  0  0  0
 78150  1  0  0  0
 79 82  1  0  0  0
 79 85  2  0  0  0
 80 81  1  0  0  0
 80 83  1  0  0  0
 80 86  2  0  0  0
 81151  1  0  0  0
 81152  1  0  0  0
 81153  1  0  0  0
 82154  1  0  0  0
 83155  1  0  0  0
 84156  1  0  0  0
M  ISO  4   1 100  68 101  78 101  84 100
M  END
> <chiral flag>
0

> <version>
0

> <s_m_source_file>
/data/baiqing/PycharmProjects/Reinvent-master-3.2/result/LINK_invent/BTK/process_docking_weight1_custom_product_contain_oxygen_bond_distance_aromatic_linkinvent_7_9_3/rearranged_h_0068.sdf

> <i_m_source_file_index>
90

> <r_mmod_Potential_Energy-OPLS-2005>
510.592559814453

> <r_mmod_Stretch_Energy-OPLS-2005>
148.923599243164

> <r_mmod_Bend_Energy-OPLS-2005>
436.777709960938

> <r_mmod_Torsional_Energy-OPLS-2005>
305.509307861328

> <r_mmod_Improper_Torsional_Energy-OPLS-2005>
26.6878452301025

> <r_mmod_Van_der_Waal_Energy-OPLS-2005>
143.853210449219

> <r_mmod_Electrostatic_Energy-OPLS-2005>
-410.233215332031

> <r_mmod_Solvation_Energy-OPLS-2005>
-253.843627929688

> <b_mmod_Minimization_Converged-OPLS-2005>
0

> <r_mmod_RMS_Derivative-OPLS-2005>
3.97449946403503

$$$$
90
                    3D
 Structure written by MMmdl.
160169  0  0  1  0            999 V2000
  -30.6920  -14.5423   20.4713 C   0  0  0  0  0  0
  -30.4149  -12.3201   19.4325 C   0  0  0  0  0  0
  -29.4924  -12.4768   18.2009 C   0  0  0  0  0  0
  -28.0064  -12.3518   18.6167 C   0  0  0  0  0  0
  -27.6485  -13.2071   19.8645 C   0  0  2  0  0  0
  -28.7035  -13.0237   20.9740 C   0  0  0  0  0  0
  -25.2587  -13.8128   20.5741 C   0  0  0  0  0  0
  -24.1827  -13.0434   20.9188 C   0  0  0  0  0  0
  -24.6343  -11.6871   20.8718 C   0  0  0  0  0  0
  -23.8986  -10.4283   21.0377 C   0  0  0  0  0  0
  -24.3531   -9.4211   21.9173 C   0  0  0  0  0  0
  -23.6221   -8.2237   22.0760 C   0  0  0  0  0  0
  -22.4202   -8.0247   21.3527 C   0  0  0  0  0  0
  -21.9816   -9.0226   20.4637 C   0  0  0  0  0  0
  -22.7141  -10.2115   20.3051 C   0  0  0  0  0  0
  -21.6855   -6.0698   22.5287 C   0  0  0  0  0  0
  -21.3998   -6.5614   23.8215 C   0  0  0  0  0  0
  -21.3655   -5.6775   24.9179 C   0  0  0  0  0  0
  -21.6061   -4.3042   24.7236 C   0  0  0  0  0  0
  -21.8822   -3.8121   23.4360 C   0  0  0  0  0  0
  -21.9182   -4.6926   22.3409 C   0  0  0  0  0  0
  -22.7848  -13.5256   21.1827 C   0  0  0  0  0  0
  -22.1661   -4.2099   21.0994 F   0  0  0  0  0  0
  -21.5632   -3.4542   25.7763 F   0  0  0  0  0  0
  -30.0168  -13.3560   20.4021 N   0  0  0  0  0  0
  -26.2974  -12.9301   20.3374 N   0  0  0  0  0  0
  -25.9274  -11.6447   20.5748 N   0  0  0  0  0  0
  -22.0448  -12.8318   22.0397 N   0  0  0  0  0  0
  -25.4428  -15.1837   20.4158 N   0  0  0  0  0  0
  -31.8772  -14.6077   20.1447 O   0  0  0  0  0  0
  -21.6611   -6.8804   21.4220 O   0  0  0  0  0  0
  -22.3612  -14.5621   20.6705 O   0  0  0  0  0  0
  -24.6245  -31.8569   23.1977 C   0  0  0  0  0  0
  -25.9129  -32.4731   23.8314 C   0  0  1  0  0  0
  -27.2391  -27.3332   20.1399 C   0  0  0  0  0  0
  -25.5958  -33.8522   24.2221 N   0  0  0  0  0  0
  -23.4215  -30.4700   21.5318 C   0  0  2  0  0  0
  -24.8779  -28.9204   20.1134 C   0  0  0  0  0  0
  -22.7479  -29.4600   22.4914 C   0  0  0  0  0  0
  -18.0321  -28.1349   22.8461 C   0  0  0  0  0  0
  -24.1506  -36.7259   23.2635 C   0  0  0  0  0  0
  -25.9606  -30.7896   21.3733 C   0  0  0  0  0  0
  -26.0368  -29.4177   20.7220 C   0  0  0  0  0  0
  -27.2164  -28.6257   20.7348 C   0  0  0  0  0  0
  -26.0677  -26.8840   19.5018 C   0  0  0  0  0  0
  -24.8856  -27.6548   19.5032 C   0  0  0  0  0  0
  -23.6444  -29.7896   20.1555 C   0  0  0  0  0  0
  -25.4126  -36.3003   24.0290 C   0  0  1  0  0  0
  -20.5921  -28.3565   23.1281 C   0  0  2  0  0  0
  -20.6805  -26.9375   22.5275 C   0  0  0  0  0  0
  -19.5663  -26.6351   21.5123 C   0  0  0  0  0  0
  -18.1883  -26.7825   22.1640 C   0  0  0  0  0  0
  -19.1603  -28.8780   23.2899 C   0  0  0  0  0  0
  -18.9523  -30.1324   23.9070 C   0  0  0  0  0  0
  -17.6564  -30.6461   24.0748 C   0  0  0  0  0  0
  -25.9074  -34.9393   23.5052 C   0  0  0  0  0  0
  -16.5387  -29.9084   23.6414 C   0  0  0  0  0  0
  -16.7311  -28.6503   23.0371 C   0  0  0  0  0  0
  -26.4511  -31.6526   25.0678 C   0  0  0  0  0  0
  -25.3735  -31.3726   26.1407 C   0  0  0  0  0  0
  -27.0393  -30.2936   24.6181 C   0  0  0  0  0  0
  -27.6009  -32.4312   25.7464 C   0  0  0  0  0  0
  -27.5568  -37.1780   24.8450 C   0  0  0  0  0  0
  -21.4190  -29.2956   22.3696 N   0  0  0  0  0  0
  -26.4287  -37.3711   23.9381 N   0  0  0  0  0  0
  -24.6861  -31.0583   22.0889 N   0  0  0  0  0  0
  -23.4214  -28.8202   23.3022 O   0  0  0  0  0  0
  -28.3613  -26.5151   20.2814 O   0  0  0  0  0  0
  -26.5628  -34.8887   22.4600 O   0  0  0  0  0  0
  -23.5408  -32.1348   23.7331 O   0  0  0  0  0  0
  -28.3656  -18.9173   23.3277 C   0  0  0  0  0  0
  -28.2208  -20.1681   22.7031 C   0  0  0  0  0  0
  -29.3067  -19.3087   20.7115 C   0  0  0  0  0  0
  -29.4865  -18.0267   21.3269 C   0  0  0  0  0  0
  -29.0012  -17.8520   22.6536 C   0  0  0  0  0  0
  -28.6552  -20.3891   21.3812 C   0  0  0  0  0  0
  -29.0285  -22.6975   20.3587 C   0  0  0  0  0  0
  -30.3132  -16.9553   20.6091 C   0  0  0  0  0  0
  -26.7599  -23.4632   20.3444 C   0  0  0  0  0  0
  -26.8521  -21.9415   20.5783 C   0  0  0  0  0  0
  -28.1262  -23.8098   19.7536 C   0  0  1  0  0  0
  -29.1759  -16.5420   23.4130 C   0  0  0  0  0  0
  -28.5955  -25.3170   19.4725 C   0  0  0  0  0  0
  -28.2749  -21.6349   20.7541 N   0  0  0  0  0  0
  -29.9467  -15.6433   20.7374 N   0  0  0  0  0  0
  -30.2625  -22.7645   20.3826 O   0  0  0  0  0  0
  -31.2762  -17.3398   19.9455 O   0  0  0  0  0  0
  -31.4701  -12.3550   19.1635 H   0  0  0  0  0  0
  -30.2805  -11.3342   19.8743 H   0  0  0  0  0  0
  -29.7222  -11.7093   17.4592 H   0  0  0  0  0  0
  -29.6633  -13.4349   17.7046 H   0  0  0  0  0  0
  -27.8088  -11.2994   18.8266 H   0  0  0  0  0  0
  -27.3567  -12.6165   17.7803 H   0  0  0  0  0  0
  -27.6777  -14.2412   19.5369 H   0  0  0  0  0  0
  -28.7018  -11.9823   21.2942 H   0  0  0  0  0  0
  -28.4805  -13.5821   21.8804 H   0  0  0  0  0  0
  -25.2636   -9.5756   22.4770 H   0  0  0  0  0  0
  -23.9946   -7.4635   22.7496 H   0  0  0  0  0  0
  -21.0732   -8.8669   19.8961 H   0  0  0  0  0  0
  -22.3491  -10.9618   19.6181 H   0  0  0  0  0  0
  -21.1990   -7.6124   23.9695 H   0  0  0  0  0  0
  -21.1480   -6.0514   25.9074 H   0  0  0  0  0  0
  -22.0600   -2.7576   23.2896 H   0  0  0  0  0  0
  -22.3962  -11.9927   22.4776 H   0  0  0  0  0  0
  -21.1096  -13.1408   22.2619 H   0  0  0  0  0  0
  -24.6991  -15.8590   20.5516 H   0  0  0  0  0  0
  -26.3089  -15.5947   20.0963 H   0  0  0  0  0  0
  -26.7224  -32.5463   23.1092 H   0  0  0  0  0  0
  -25.0131  -33.9629   25.0396 H   0  0  0  0  0  0
  -22.7122  -31.2839   21.3671 H   0  0  0  0  0  0
  -23.3739  -35.9632   23.3298 H   0  0  0  0  0  0
  -24.3615  -36.8886   22.2057 H   0  0  0  0  0  0
  -23.7329  -37.6472   23.6691 H   0  0  0  0  0  0
  -26.1069  -31.5494   20.6075 H   0  0  0  0  0  0
  -26.8374  -30.8392   22.0098 H   0  0  0  0  0  0
  -28.1021  -28.9812   21.2459 H   0  0  0  0  0  0
  -26.0552  -25.9061   19.0546 H   0  0  0  0  0  0
  -23.9825  -27.2596   19.0528 H   0  0  0  0  0  0
  -23.7777  -30.5489   19.3887 H   0  0  0  0  0  0
  -22.7760  -29.1980   19.8612 H   0  0  0  0  0  0
  -25.1337  -36.1774   25.0780 H   0  0  0  0  0  0
  -20.9933  -28.3126   24.1425 H   0  0  0  0  0  0
  -20.5790  -26.2180   23.3444 H   0  0  0  0  0  0
  -21.6642  -26.7548   22.0855 H   0  0  0  0  0  0
  -19.6551  -27.3189   20.6687 H   0  0  0  0  0  0
  -19.6781  -25.6250   21.1107 H   0  0  0  0  0  0
  -17.4064  -26.6424   21.4160 H   0  0  0  0  0  0
  -18.0377  -26.0095   22.9164 H   0  0  0  0  0  0
  -19.7994  -30.7030   24.2629 H   0  0  0  0  0  0
  -17.5040  -31.6044   24.5504 H   0  0  0  0  0  0
  -15.5384  -30.3066   23.7731 H   0  0  0  0  0  0
  -15.8645  -28.0983   22.6987 H   0  0  0  0  0  0
  -24.5870  -30.7099   25.7779 H   0  0  0  0  0  0
  -24.8995  -32.2933   26.4806 H   0  0  0  0  0  0
  -25.8072  -30.8920   27.0183 H   0  0  0  0  0  0
  -26.3011  -29.6628   24.1207 H   0  0  0  0  0  0
  -27.4078  -29.7241   25.4730 H   0  0  0  0  0  0
  -27.8875  -30.4200   23.9451 H   0  0  0  0  0  0
  -27.2534  -33.3583   26.2038 H   0  0  0  0  0  0
  -28.3834  -32.6927   25.0325 H   0  0  0  0  0  0
  -28.0674  -31.8458   26.5390 H   0  0  0  0  0  0
  -28.2550  -38.0107   24.7487 H   0  0  0  0  0  0
  -28.1103  -36.2623   24.6286 H   0  0  0  0  0  0
  -27.2295  -37.1429   25.8862 H   0  0  0  0  0  0
  -20.9329  -29.8595   21.6870 H   0  0  0  0  0  0
  -26.0125  -38.2765   24.1389 H   0  0  0  0  0  0
  -28.0144  -18.7892   24.3436 H   0  0  0  0  0  0
  -27.7736  -20.9811   23.2483 H   0  0  0  0  0  0
  -29.6557  -19.4366   19.6956 H   0  0  0  0  0  0
  -26.6082  -23.9733   21.2965 H   0  0  0  0  0  0
  -25.9431  -23.7208   19.6686 H   0  0  0  0  0  0
  -26.5202  -21.3955   19.6962 H   0  0  0  0  0  0
  -26.2431  -21.6052   21.4163 H   0  0  0  0  0  0
  -28.1055  -23.4179   18.7349 H   0  0  0  0  0  0
  -28.9642  -16.6490   24.4776 H   0  0  0  0  0  0
  -28.4920  -15.7960   23.0091 H   0  0  0  0  0  0
  -30.1965  -16.1598   23.3391 H   0  0  0  0  0  0
  -28.3160  -25.5757   18.4522 H   0  0  0  0  0  0
  -29.6849  -25.2653   19.4553 H   0  0  0  0  0  0
  -29.0359  -15.4646   21.1161 H   0  0  0  0  0  0
  1 25  1  0  0  0
  1 30  2  0  0  0
  1 85  1  0  0  0
  2  3  1  0  0  0
  2 25  1  0  0  0
  2 88  1  0  0  0
  2 89  1  0  0  0
  3  4  1  0  0  0
  3 90  1  0  0  0
  3 91  1  0  0  0
  4  5  1  0  0  0
  4 92  1  0  0  0
  4 93  1  0  0  0
  5  6  1  0  0  0
  5 26  1  0  0  0
  5 94  1  0  0  0
  6 25  1  0  0  0
  6 95  1  0  0  0
  6 96  1  0  0  0
  7  8  2  0  0  0
  7 26  1  0  0  0
  7 29  1  0  0  0
  8  9  1  0  0  0
  8 22  1  0  0  0
  9 10  1  0  0  0
  9 27  2  0  0  0
 10 11  2  0  0  0
 10 15  1  0  0  0
 11 12  1  0  0  0
 11 97  1  0  0  0
 12 13  2  0  0  0
 12 98  1  0  0  0
 13 14  1  0  0  0
 13 31  1  0  0  0
 14 15  2  0  0  0
 14 99  1  0  0  0
 15100  1  0  0  0
 16 17  2  0  0  0
 16 21  1  0  0  0
 16 31  1  0  0  0
 17 18  1  0  0  0
 17101  1  0  0  0
 18 19  2  0  0  0
 18102  1  0  0  0
 19 20  1  0  0  0
 19 24  1  0  0  0
 20 21  2  0  0  0
 20103  1  0  0  0
 21 23  1  0  0  0
 22 28  1  0  0  0
 22 32  2  0  0  0
 26 27  1  0  0  0
 28104  1  0  0  0
 28105  1  0  0  0
 29106  1  0  0  0
 29107  1  0  0  0
 33 34  1  0  0  0
 33 66  1  0  0  0
 33 70  2  0  0  0
 34 36  1  0  0  0
 34 59  1  0  0  0
 34108  1  0  0  0
 35 44  2  0  0  0
 35 45  1  0  0  0
 35 68  1  0  0  0
 36 56  1  0  0  0
 36109  1  0  0  0
 37 39  1  0  0  0
 37 47  1  0  0  0
 37 66  1  0  0  0
 37110  1  0  0  0
 38 43  2  0  0  0
 38 46  1  0  0  0
 38 47  1  0  0  0
 39 64  1  0  0  0
 39 67  2  0  0  0
 40 52  1  0  0  0
 40 53  2  0  0  0
 40 58  1  0  0  0
 41111  1  0  0  0
 41112  1  0  0  0
 41113  1  0  0  0
 41 48  1  0  0  0
 42 43  1  0  0  0
 42 66  1  0  0  0
 42114  1  0  0  0
 42115  1  0  0  0
 43 44  1  0  0  0
 44116  1  0  0  0
 45 46  2  0  0  0
 45117  1  0  0  0
 46118  1  0  0  0
 47119  1  0  0  0
 47120  1  0  0  0
 48 56  1  0  0  0
 48 65  1  0  0  0
 48121  1  0  0  0
 49 50  1  0  0  0
 49 53  1  0  0  0
 49 64  1  0  0  0
 49122  1  0  0  0
 50 51  1  0  0  0
 50123  1  0  0  0
 50124  1  0  0  0
 51 52  1  0  0  0
 51125  1  0  0  0
 51126  1  0  0  0
 52127  1  0  0  0
 52128  1  0  0  0
 53 54  1  0  0  0
 54 55  2  0  0  0
 54129  1  0  0  0
 55 57  1  0  0  0
 55130  1  0  0  0
 56 69  2  0  0  0
 57 58  2  0  0  0
 57131  1  0  0  0
 58132  1  0  0  0
 59 60  1  0  0  0
 59 61  1  0  0  0
 59 62  1  0  0  0
 60133  1  0  0  0
 60134  1  0  0  0
 60135  1  0  0  0
 61136  1  0  0  0
 61137  1  0  0  0
 61138  1  0  0  0
 62139  1  0  0  0
 62140  1  0  0  0
 62141  1  0  0  0
 63 65  1  0  0  0
 63142  1  0  0  0
 63143  1  0  0  0
 63144  1  0  0  0
 64145  1  0  0  0
 65146  1  0  0  0
 68 83  1  0  0  0
 71 72  2  0  0  0
 71 75  1  0  0  0
 71147  1  0  0  0
 72 76  1  0  0  0
 72148  1  0  0  0
 73 74  1  0  0  0
 73 76  2  0  0  0
 73149  1  0  0  0
 74 75  2  0  0  0
 74 78  1  0  0  0
 75 82  1  0  0  0
 76 84  1  0  0  0
 77 81  1  0  0  0
 77 84  1  0  0  0
 77 86  2  0  0  0
 78 85  1  0  0  0
 78 87  2  0  0  0
 79 80  1  0  0  0
 79 81  1  0  0  0
 79150  1  0  0  0
 79151  1  0  0  0
 80 84  1  0  0  0
 80152  1  0  0  0
 80153  1  0  0  0
 81 83  1  0  0  0
 81154  1  0  0  0
 82155  1  0  0  0
 82156  1  0  0  0
 82157  1  0  0  0
 83158  1  0  0  0
 83159  1  0  0  0
 85160  1  0  0  0
M  ISO  4   1 100  68 101  83 101  85 100
M  END
> <chiral flag>
0

> <version>
0

> <s_m_source_file>
/data/baiqing/PycharmProjects/Reinvent-master-3.2/result/LINK_invent/BTK/process_docking_weight1_custom_product_contain_oxygen_bond_distance_aromatic_linkinvent_7_9_3/rearranged_h_0068.sdf

> <i_m_source_file_index>
91

> <r_mmod_Potential_Energy-OPLS-2005>
145.035598754883

> <r_mmod_Stretch_Energy-OPLS-2005>
63.7049446105957

> <r_mmod_Bend_Energy-OPLS-2005>
217.321975708008

> <r_mmod_Torsional_Energy-OPLS-2005>
291.122497558594

> <r_mmod_Improper_Torsional_Energy-OPLS-2005>
5.89754009246826

> <r_mmod_Van_der_Waal_Energy-OPLS-2005>
147.734375

> <r_mmod_Electrostatic_Energy-OPLS-2005>
-380.067932128906

> <r_mmod_Solvation_Energy-OPLS-2005>
-242.353698730469

> <b_mmod_Minimization_Converged-OPLS-2005>
0

> <r_mmod_RMS_Derivative-OPLS-2005>
12.0250749588013

$$$$
91
                    3D
 Structure written by MMmdl.
158167  0  0  1  0            999 V2000
  -30.6155  -14.8082   20.4519 C   0  0  0  0  0  0
  -30.4215  -12.5040   19.4817 C   0  0  0  0  0  0
  -29.5008  -12.4842   18.2431 C   0  0  0  0  0  0
  -28.0280  -12.3095   18.6562 C   0  0  0  0  0  0
  -27.6221  -13.2360   19.8325 C   0  0  2  0  0  0
  -28.6662  -13.2439   20.9678 C   0  0  0  0  0  0
  -25.2468  -13.8221   20.5806 C   0  0  0  0  0  0
  -24.1744  -13.0448   20.9216 C   0  0  0  0  0  0
  -24.6325  -11.6923   20.8720 C   0  0  0  0  0  0
  -23.9011  -10.4304   21.0370 C   0  0  0  0  0  0
  -24.3593   -9.4241   21.9158 C   0  0  0  0  0  0
  -23.6281   -8.2269   22.0739 C   0  0  0  0  0  0
  -22.4260   -8.0282   21.3541 C   0  0  0  0  0  0
  -21.9873   -9.0230   20.4636 C   0  0  0  0  0  0
  -22.7178  -10.2130   20.3030 C   0  0  0  0  0  0
  -21.6872   -6.0727   22.5270 C   0  0  0  0  0  0
  -21.4027   -6.5630   23.8198 C   0  0  0  0  0  0
  -21.3659   -5.6782   24.9156 C   0  0  0  0  0  0
  -21.6032   -4.3048   24.7208 C   0  0  0  0  0  0
  -21.8818   -3.8136   23.4334 C   0  0  0  0  0  0
  -21.9198   -4.6955   22.3391 C   0  0  0  0  0  0
  -22.7770  -13.5243   21.1857 C   0  0  0  0  0  0
  -22.1657   -4.2145   21.0966 F   0  0  0  0  0  0
  -21.5627   -3.4520   25.7723 F   0  0  0  0  0  0
  -29.9542  -13.5994   20.3665 N   0  0  0  0  0  0
  -26.2828  -12.9404   20.3226 N   0  0  0  0  0  0
  -25.9252  -11.6548   20.5717 N   0  0  0  0  0  0
  -22.0420  -12.8198   22.0394 N   0  0  0  0  0  0
  -25.4269  -15.1960   20.4485 N   0  0  0  0  0  0
  -31.8271  -14.8372   20.2177 O   0  0  0  0  0  0
  -21.6646   -6.8864   21.4230 O   0  0  0  0  0  0
  -22.3447  -14.5559   20.6752 O   0  0  0  0  0  0
  -24.6379  -31.8500   23.1909 C   0  0  0  0  0  0
  -25.9179  -32.4710   23.8273 C   0  0  1  0  0  0
  -27.2234  -27.2243   20.1442 C   0  0  0  0  0  0
  -25.5965  -33.8514   24.2210 N   0  0  0  0  0  0
  -23.4333  -30.4706   21.5352 C   0  0  2  0  0  0
  -24.8812  -28.9051   20.1111 C   0  0  0  0  0  0
  -22.7509  -29.4574   22.4884 C   0  0  0  0  0  0
  -18.0276  -28.1403   22.8467 C   0  0  0  0  0  0
  -24.1505  -36.7269   23.2646 C   0  0  0  0  0  0
  -25.9818  -30.7568   21.3686 C   0  0  0  0  0  0
  -26.0559  -29.3734   20.7154 C   0  0  0  0  0  0
  -27.2327  -28.5495   20.7084 C   0  0  0  0  0  0
  -26.0220  -26.8190   19.5315 C   0  0  0  0  0  0
  -24.8724  -27.6370   19.5088 C   0  0  0  0  0  0
  -23.6518  -29.7962   20.1549 C   0  0  0  0  0  0
  -25.4131  -36.3041   24.0321 C   0  0  1  0  0  0
  -20.5885  -28.3702   23.1275 C   0  0  2  0  0  0
  -20.6775  -26.9414   22.5426 C   0  0  0  0  0  0
  -19.5768  -26.6381   21.5217 C   0  0  0  0  0  0
  -18.1935  -26.7928   22.1614 C   0  0  0  0  0  0
  -19.1532  -28.8863   23.2858 C   0  0  0  0  0  0
  -18.9460  -30.1455   23.8887 C   0  0  0  0  0  0
  -17.6460  -30.6598   24.0558 C   0  0  0  0  0  0
  -25.9079  -34.9417   23.5060 C   0  0  0  0  0  0
  -16.5346  -29.9105   23.6337 C   0  0  0  0  0  0
  -16.7253  -28.6528   23.0348 C   0  0  0  0  0  0
  -26.4546  -31.6542   25.0668 C   0  0  0  0  0  0
  -25.3778  -31.3681   26.1392 C   0  0  0  0  0  0
  -27.0432  -30.2973   24.6155 C   0  0  0  0  0  0
  -27.6080  -32.4306   25.7458 C   0  0  0  0  0  0
  -27.5579  -37.1791   24.8471 C   0  0  0  0  0  0
  -21.4206  -29.3043   22.3649 N   0  0  0  0  0  0
  -26.4295  -37.3756   23.9409 N   0  0  0  0  0  0
  -24.7033  -31.0457   22.0874 N   0  0  0  0  0  0
  -23.4193  -28.8114   23.2978 O   0  0  0  0  0  0
  -28.3214  -26.3240   20.1229 O   0  0  0  0  0  0
  -26.5672  -34.8914   22.4638 O   0  0  0  0  0  0
  -23.5517  -32.1329   23.7194 O   0  0  0  0  0  0
  -27.3927  -19.7484   17.7759 C   0  0  0  0  0  0
  -27.6693  -20.9305   18.4674 C   0  0  0  0  0  0
  -29.0208  -19.6392   20.0482 C   0  0  0  0  0  0
  -27.9187  -18.5136   18.1806 C   0  0  0  0  0  0
  -28.7493  -18.3741   19.3358 C   0  0  0  0  0  0
  -28.4926  -20.9587   19.6125 C   0  0  0  0  0  0
  -28.4685  -23.6161   19.7522 C   0  0  0  0  0  0
  -27.5975  -17.3121   17.2890 C   0  0  0  0  0  0
  -28.8283  -16.4430   16.9847 C   0  0  0  0  0  0
  -29.8980  -16.5081   18.0816 C   0  0  0  0  0  0
  -29.2676  -16.8256   19.4627 C   0  0  1  0  0  0
  -28.1980  -24.9139   20.6845 C   0  0  0  0  0  0
  -28.6336  -22.3112   20.2660 N   0  0  0  0  0  0
  -29.9329  -16.0267   20.5835 N   0  0  0  0  0  0
  -28.5734  -23.8258   18.5398 O   0  0  0  0  0  0
  -31.4584  -12.6354   19.1708 H   0  0  0  0  0  0
  -30.3856  -11.5489   20.0087 H   0  0  0  0  0  0
  -29.7987  -11.6811   17.5672 H   0  0  0  0  0  0
  -29.6117  -13.4124   17.6813 H   0  0  0  0  0  0
  -27.8855  -11.2674   18.9411 H   0  0  0  0  0  0
  -27.3686  -12.4767   17.8030 H   0  0  0  0  0  0
  -27.5854  -14.2337   19.4035 H   0  0  0  0  0  0
  -28.7190  -12.2718   21.4586 H   0  0  0  0  0  0
  -28.3935  -13.9637   21.7431 H   0  0  0  0  0  0
  -25.2738   -9.5729   22.4735 H   0  0  0  0  0  0
  -23.9984   -7.4670   22.7473 H   0  0  0  0  0  0
  -21.0791   -8.8711   19.8979 H   0  0  0  0  0  0
  -22.3575  -10.9641   19.6154 H   0  0  0  0  0  0
  -21.2038   -7.6149   23.9691 H   0  0  0  0  0  0
  -21.1479   -6.0524   25.9051 H   0  0  0  0  0  0
  -22.0615   -2.7595   23.2827 H   0  0  0  0  0  0
  -22.4037  -11.9826   22.4706 H   0  0  0  0  0  0
  -21.1061  -13.1244   22.2672 H   0  0  0  0  0  0
  -24.6929  -15.8644   20.6613 H   0  0  0  0  0  0
  -26.3243  -15.6310   20.2895 H   0  0  0  0  0  0
  -26.7235  -32.5352   23.1016 H   0  0  0  0  0  0
  -25.0070  -33.9638   25.0316 H   0  0  0  0  0  0
  -22.7303  -31.2932   21.3848 H   0  0  0  0  0  0
  -23.3753  -35.9616   23.3313 H   0  0  0  0  0  0
  -24.3594  -36.8887   22.2060 H   0  0  0  0  0  0
  -23.7281  -37.6476   23.6669 H   0  0  0  0  0  0
  -26.1193  -31.5132   20.5939 H   0  0  0  0  0  0
  -26.8595  -30.8163   21.9995 H   0  0  0  0  0  0
  -28.1326  -28.9121   21.1830 H   0  0  0  0  0  0
  -25.9628  -25.8410   19.0784 H   0  0  0  0  0  0
  -23.9725  -27.2662   19.0383 H   0  0  0  0  0  0
  -23.7760  -30.5682   19.3955 H   0  0  0  0  0  0
  -22.7685  -29.2311   19.8510 H   0  0  0  0  0  0
  -25.1316  -36.1858   25.0814 H   0  0  0  0  0  0
  -20.9967  -28.3289   24.1401 H   0  0  0  0  0  0
  -20.5684  -26.2292   23.3624 H   0  0  0  0  0  0
  -21.6643  -26.7443   22.1220 H   0  0  0  0  0  0
  -19.6931  -25.6292   21.1256 H   0  0  0  0  0  0
  -19.6736  -27.3186   20.6747 H   0  0  0  0  0  0
  -17.4204  -26.6645   21.4020 H   0  0  0  0  0  0
  -18.0336  -26.0088   22.9033 H   0  0  0  0  0  0
  -19.7936  -30.7270   24.2259 H   0  0  0  0  0  0
  -17.5024  -31.6285   24.5167 H   0  0  0  0  0  0
  -15.5354  -30.3025   23.7677 H   0  0  0  0  0  0
  -15.8637  -28.0868   22.7070 H   0  0  0  0  0  0
  -24.5879  -30.7143   25.7683 H   0  0  0  0  0  0
  -24.9093  -32.2868   26.4927 H   0  0  0  0  0  0
  -25.8109  -30.8727   27.0091 H   0  0  0  0  0  0
  -26.3025  -29.6651   24.1245 H   0  0  0  0  0  0
  -27.4212  -29.7298   25.4668 H   0  0  0  0  0  0
  -27.8852  -30.4272   23.9350 H   0  0  0  0  0  0
  -27.2619  -33.3536   26.2125 H   0  0  0  0  0  0
  -28.3843  -32.6983   25.0272 H   0  0  0  0  0  0
  -28.0815  -31.8393   26.5301 H   0  0  0  0  0  0
  -28.2597  -38.0089   24.7502 H   0  0  0  0  0  0
  -28.1078  -36.2612   24.6314 H   0  0  0  0  0  0
  -27.2304  -37.1462   25.8882 H   0  0  0  0  0  0
  -20.9372  -29.8748   21.6860 H   0  0  0  0  0  0
  -26.0154  -38.2825   24.1393 H   0  0  0  0  0  0
  -26.7641  -19.8018   16.8987 H   0  0  0  0  0  0
  -27.2005  -21.8262   18.0901 H   0  0  0  0  0  0
  -29.6558  -19.5921   20.9234 H   0  0  0  0  0  0
  -27.1401  -17.6267   16.3499 H   0  0  0  0  0  0
  -26.8405  -16.6993   17.7857 H   0  0  0  0  0  0
  -29.2863  -16.7803   16.0536 H   0  0  0  0  0  0
  -28.5122  -15.4125   16.8199 H   0  0  0  0  0  0
  -30.6138  -17.2988   17.8538 H   0  0  0  0  0  0
  -30.4624  -15.5808   18.0151 H   0  0  0  0  0  0
  -28.3165  -16.2970   19.5087 H   0  0  0  0  0  0
  -28.9351  -24.8493   21.4847 H   0  0  0  0  0  0
  -27.2293  -24.7952   21.1723 H   0  0  0  0  0  0
  -28.7653  -22.2858   21.2685 H   0  0  0  0  0  0
  -30.4773  -16.6661   21.1432 H   0  0  0  0  0  0
  1 25  1  0  0  0
  1 30  2  0  0  0
  1 84  1  0  0  0
  2  3  1  0  0  0
  2 25  1  0  0  0
  2 86  1  0  0  0
  2 87  1  0  0  0
  3  4  1  0  0  0
  3 88  1  0  0  0
  3 89  1  0  0  0
  4  5  1  0  0  0
  4 90  1  0  0  0
  4 91  1  0  0  0
  5  6  1  0  0  0
  5 26  1  0  0  0
  5 92  1  0  0  0
  6 25  1  0  0  0
  6 93  1  0  0  0
  6 94  1  0  0  0
  7  8  2  0  0  0
  7 26  1  0  0  0
  7 29  1  0  0  0
  8  9  1  0  0  0
  8 22  1  0  0  0
  9 10  1  0  0  0
  9 27  2  0  0  0
 10 11  2  0  0  0
 10 15  1  0  0  0
 11 12  1  0  0  0
 11 95  1  0  0  0
 12 13  2  0  0  0
 12 96  1  0  0  0
 13 14  1  0  0  0
 13 31  1  0  0  0
 14 15  2  0  0  0
 14 97  1  0  0  0
 15 98  1  0  0  0
 16 17  2  0  0  0
 16 21  1  0  0  0
 16 31  1  0  0  0
 17 18  1  0  0  0
 17 99  1  0  0  0
 18 19  2  0  0  0
 18100  1  0  0  0
 19 20  1  0  0  0
 19 24  1  0  0  0
 20 21  2  0  0  0
 20101  1  0  0  0
 21 23  1  0  0  0
 22 28  1  0  0  0
 22 32  2  0  0  0
 26 27  1  0  0  0
 28102  1  0  0  0
 28103  1  0  0  0
 29104  1  0  0  0
 29105  1  0  0  0
 33 34  1  0  0  0
 33 66  1  0  0  0
 33 70  2  0  0  0
 34 36  1  0  0  0
 34 59  1  0  0  0
 34106  1  0  0  0
 35 44  2  0  0  0
 35 45  1  0  0  0
 35 68  1  0  0  0
 36 56  1  0  0  0
 36107  1  0  0  0
 37 39  1  0  0  0
 37 47  1  0  0  0
 37 66  1  0  0  0
 37108  1  0  0  0
 38 43  2  0  0  0
 38 46  1  0  0  0
 38 47  1  0  0  0
 39 64  1  0  0  0
 39 67  2  0  0  0
 40 52  1  0  0  0
 40 53  2  0  0  0
 40 58  1  0  0  0
 41109  1  0  0  0
 41110  1  0  0  0
 41111  1  0  0  0
 41 48  1  0  0  0
 42 43  1  0  0  0
 42 66  1  0  0  0
 42112  1  0  0  0
 42113  1  0  0  0
 43 44  1  0  0  0
 44114  1  0  0  0
 45 46  2  0  0  0
 45115  1  0  0  0
 46116  1  0  0  0
 47117  1  0  0  0
 47118  1  0  0  0
 48 56  1  0  0  0
 48 65  1  0  0  0
 48119  1  0  0  0
 49 50  1  0  0  0
 49 53  1  0  0  0
 49 64  1  0  0  0
 49120  1  0  0  0
 50 51  1  0  0  0
 50121  1  0  0  0
 50122  1  0  0  0
 51 52  1  0  0  0
 51123  1  0  0  0
 51124  1  0  0  0
 52125  1  0  0  0
 52126  1  0  0  0
 53 54  1  0  0  0
 54 55  2  0  0  0
 54127  1  0  0  0
 55 57  1  0  0  0
 55128  1  0  0  0
 56 69  2  0  0  0
 57 58  2  0  0  0
 57129  1  0  0  0
 58130  1  0  0  0
 59 60  1  0  0  0
 59 61  1  0  0  0
 59 62  1  0  0  0
 60131  1  0  0  0
 60132  1  0  0  0
 60133  1  0  0  0
 61134  1  0  0  0
 61135  1  0  0  0
 61136  1  0  0  0
 62137  1  0  0  0
 62138  1  0  0  0
 62139  1  0  0  0
 63 65  1  0  0  0
 63140  1  0  0  0
 63141  1  0  0  0
 63142  1  0  0  0
 64143  1  0  0  0
 65144  1  0  0  0
 68 82  1  0  0  0
 71 72  2  0  0  0
 71 74  1  0  0  0
 71145  1  0  0  0
 72 76  1  0  0  0
 72146  1  0  0  0
 73 75  1  0  0  0
 73 76  2  0  0  0
 73147  1  0  0  0
 74 75  2  0  0  0
 74 78  1  0  0  0
 75 81  1  0  0  0
 76 83  1  0  0  0
 77 82  1  0  0  0
 77 83  1  0  0  0
 77 85  2  0  0  0
 78 79  1  0  0  0
 78148  1  0  0  0
 78149  1  0  0  0
 79 80  1  0  0  0
 79150  1  0  0  0
 79151  1  0  0  0
 80 81  1  0  0  0
 80152  1  0  0  0
 80153  1  0  0  0
 81 84  1  0  0  0
 81154  1  0  0  0
 82155  1  0  0  0
 82156  1  0  0  0
 83157  1  0  0  0
 84158  1  0  0  0
M  ISO  4   1 100  68 101  82 101  84 100
M  END
> <chiral flag>
0

> <version>
0

> <s_m_source_file>
/data/baiqing/PycharmProjects/Reinvent-master-3.2/result/LINK_invent/BTK/process_docking_weight1_custom_product_contain_oxygen_bond_distance_aromatic_linkinvent_7_9_3/rearranged_h_0068.sdf

> <i_m_source_file_index>
92

> <r_mmod_Potential_Energy-OPLS-2005>
381.287261962891

> <r_mmod_Stretch_Energy-OPLS-2005>
174.638824462891

> <r_mmod_Bend_Energy-OPLS-2005>
274.105773925781

> <r_mmod_Torsional_Energy-OPLS-2005>
320.387878417969

> <r_mmod_Improper_Torsional_Energy-OPLS-2005>
9.88611888885498

> <r_mmod_Van_der_Waal_Energy-OPLS-2005>
146.112014770508

> <r_mmod_Electrostatic_Energy-OPLS-2005>
-419.810638427734

> <r_mmod_Solvation_Energy-OPLS-2005>
-238.526351928711

> <b_mmod_Minimization_Converged-OPLS-2005>
0

> <r_mmod_RMS_Derivative-OPLS-2005>
3.94855713844299

$$$$
92
                    3D
 Structure written by MMmdl.
167176  0  0  1  0            999 V2000
  -30.5738  -14.7587   20.5374 C   0  0  0  0  0  0
  -30.4501  -12.4766   19.4821 C   0  0  0  0  0  0
  -29.5209  -12.5420   18.2467 C   0  0  0  0  0  0
  -28.0467  -12.3510   18.6514 C   0  0  0  0  0  0
  -27.6537  -13.2259   19.8693 C   0  0  2  0  0  0
  -28.6933  -13.1074   21.0073 C   0  0  0  0  0  0
  -25.2510  -13.8116   20.5549 C   0  0  0  0  0  0
  -24.1820  -13.0409   20.9199 C   0  0  0  0  0  0
  -24.6416  -11.6891   20.8770 C   0  0  0  0  0  0
  -23.9080  -10.4280   21.0420 C   0  0  0  0  0  0
  -24.3622   -9.4191   21.9194 C   0  0  0  0  0  0
  -23.6290   -8.2232   22.0759 C   0  0  0  0  0  0
  -22.4275   -8.0282   21.3545 C   0  0  0  0  0  0
  -21.9917   -9.0262   20.4649 C   0  0  0  0  0  0
  -22.7254  -10.2135   20.3064 C   0  0  0  0  0  0
  -21.6850   -6.0738   22.5276 C   0  0  0  0  0  0
  -21.4013   -6.5641   23.8211 C   0  0  0  0  0  0
  -21.3654   -5.6789   24.9171 C   0  0  0  0  0  0
  -21.6043   -4.3051   24.7219 C   0  0  0  0  0  0
  -21.8820   -3.8146   23.4339 C   0  0  0  0  0  0
  -21.9193   -4.6966   22.3397 C   0  0  0  0  0  0
  -22.7844  -13.5216   21.1854 C   0  0  0  0  0  0
  -22.1665   -4.2152   21.0975 F   0  0  0  0  0  0
  -21.5628   -3.4534   25.7731 F   0  0  0  0  0  0
  -30.0052  -13.4997   20.4624 N   0  0  0  0  0  0
  -26.2988  -12.9345   20.3305 N   0  0  0  0  0  0
  -25.9358  -11.6500   20.5801 N   0  0  0  0  0  0
  -22.0488  -12.8224   22.0426 N   0  0  0  0  0  0
  -25.4137  -15.1766   20.3620 N   0  0  0  0  0  0
  -31.6670  -14.9744   20.0034 O   0  0  0  0  0  0
  -21.6634   -6.8884   21.4240 O   0  0  0  0  0  0
  -22.3513  -14.5505   20.6684 O   0  0  0  0  0  0
  -24.6330  -31.8533   23.1963 C   0  0  0  0  0  0
  -25.9147  -32.4744   23.8319 C   0  0  1  0  0  0
  -27.2255  -27.2457   20.1431 C   0  0  0  0  0  0
  -25.5935  -33.8547   24.2241 N   0  0  0  0  0  0
  -23.4315  -30.4743   21.5395 C   0  0  2  0  0  0
  -24.8822  -28.9165   20.1125 C   0  0  0  0  0  0
  -22.7511  -29.4592   22.4901 C   0  0  0  0  0  0
  -18.0292  -28.1390   22.8480 C   0  0  0  0  0  0
  -24.1490  -36.7278   23.2641 C   0  0  0  0  0  0
  -25.9785  -30.7626   21.3787 C   0  0  0  0  0  0
  -26.0539  -29.3824   20.7235 C   0  0  0  0  0  0
  -27.2302  -28.5614   20.7238 C   0  0  0  0  0  0
  -26.0347  -26.8558   19.4928 C   0  0  0  0  0  0
  -24.8786  -27.6619   19.4837 C   0  0  0  0  0  0
  -23.6525  -29.8047   20.1573 C   0  0  0  0  0  0
  -25.4118  -36.3062   24.0324 C   0  0  1  0  0  0
  -20.5897  -28.3705   23.1261 C   0  0  2  0  0  0
  -20.6780  -26.9420   22.5406 C   0  0  0  0  0  0
  -19.5757  -26.6386   21.5209 C   0  0  0  0  0  0
  -18.1937  -26.7931   22.1620 C   0  0  0  0  0  0
  -19.1547  -28.8864   23.2865 C   0  0  0  0  0  0
  -18.9468  -30.1463   23.8886 C   0  0  0  0  0  0
  -17.6467  -30.6591   24.0560 C   0  0  0  0  0  0
  -25.9059  -34.9433   23.5085 C   0  0  0  0  0  0
  -16.5358  -29.9087   23.6333 C   0  0  0  0  0  0
  -16.7278  -28.6504   23.0354 C   0  0  0  0  0  0
  -26.4509  -31.6576   25.0716 C   0  0  0  0  0  0
  -25.3726  -31.3735   26.1432 C   0  0  0  0  0  0
  -27.0362  -30.2988   24.6222 C   0  0  0  0  0  0
  -27.6054  -32.4326   25.7496 C   0  0  0  0  0  0
  -27.5578  -37.1795   24.8465 C   0  0  0  0  0  0
  -21.4215  -29.3046   22.3645 N   0  0  0  0  0  0
  -26.4289  -37.3765   23.9408 N   0  0  0  0  0  0
  -24.7000  -31.0485   22.0945 N   0  0  0  0  0  0
  -23.4200  -28.8136   23.3013 O   0  0  0  0  0  0
  -28.3109  -26.3324   20.1714 O   0  0  0  0  0  0
  -26.5634  -34.8913   22.4656 O   0  0  0  0  0  0
  -23.5474  -32.1360   23.7247 O   0  0  0  0  0  0
  -27.5336  -19.3502   21.2644 C   0  0  0  0  0  0
  -27.9090  -16.9635   21.5671 C   0  0  0  0  0  0
  -29.7108  -18.3774   20.7305 C   0  0  0  0  0  0
  -27.0689  -18.0876   21.6642 C   0  0  0  0  0  0
  -28.8533  -19.5792   20.8125 C   0  0  0  0  0  0
  -29.2379  -17.0329   21.0970 C   0  0  0  0  0  0
  -30.3560  -21.6467   20.4787 C   0  0  0  0  0  0
  -28.1384  -22.1511   20.5664 C   0  0  0  0  0  0
  -28.7670  -23.5430   20.1227 C   0  0  2  0  0  0
  -30.2641  -23.2166   20.4232 C   0  0  1  0  0  0
  -30.6764  -23.7491   21.8140 C   0  0  0  0  0  0
  -31.1227  -23.3004   17.9223 C   0  0  0  0  0  0
  -28.0612  -24.9232   20.6664 C   0  0  0  0  0  0
  -31.2260  -23.8322   19.3662 C   0  0  0  0  0  0
  -25.6604  -17.9658   22.2375 C   0  0  0  0  0  0
  -29.1559  -21.0319   20.5397 N   0  0  0  0  0  0
  -29.9176  -15.7141   21.2960 N   0  0  0  0  0  0
  -31.4443  -21.0618   20.4779 O   0  0  0  0  0  0
  -25.3941  -19.0075   23.0270 F   0  0  0  0  0  0
  -24.7693  -17.9538   21.2468 F   0  0  0  0  0  0
  -25.5132  -16.8583   22.9663 F   0  0  0  0  0  0
  -31.4875  -12.6287   19.1796 H   0  0  0  0  0  0
  -30.4180  -11.4839   19.9339 H   0  0  0  0  0  0
  -29.8085  -11.7864   17.5148 H   0  0  0  0  0  0
  -29.6397  -13.5073   17.7519 H   0  0  0  0  0  0
  -27.9018  -11.2970   18.8918 H   0  0  0  0  0  0
  -27.3914  -12.5633   17.8059 H   0  0  0  0  0  0
  -27.6647  -14.2595   19.5226 H   0  0  0  0  0  0
  -28.7306  -12.0841   21.3843 H   0  0  0  0  0  0
  -28.4002  -13.7206   21.8594 H   0  0  0  0  0  0
  -25.2764   -9.5662   22.4770 H   0  0  0  0  0  0
  -23.9997   -7.4621   22.7478 H   0  0  0  0  0  0
  -21.0848   -8.8794   19.8952 H   0  0  0  0  0  0
  -22.3723  -10.9684   19.6178 H   0  0  0  0  0  0
  -21.2011   -7.6150   23.9719 H   0  0  0  0  0  0
  -21.1473   -6.0513   25.9073 H   0  0  0  0  0  0
  -22.0606   -2.7608   23.2834 H   0  0  0  0  0  0
  -22.4108  -11.9902   22.4837 H   0  0  0  0  0  0
  -21.1110  -13.1264   22.2630 H   0  0  0  0  0  0
  -24.6417  -15.8254   20.4672 H   0  0  0  0  0  0
  -26.2237  -15.5889   19.9210 H   0  0  0  0  0  0
  -26.7216  -32.5395   23.1060 H   0  0  0  0  0  0
  -25.0076  -33.9682   25.0382 H   0  0  0  0  0  0
  -22.7288  -31.2967   21.3902 H   0  0  0  0  0  0
  -23.3753  -35.9609   23.3298 H   0  0  0  0  0  0
  -24.3578  -36.8907   22.2055 H   0  0  0  0  0  0
  -23.7244  -37.6476   23.6671 H   0  0  0  0  0  0
  -26.1186  -31.5220   20.6082 H   0  0  0  0  0  0
  -26.8549  -30.8132   22.0132 H   0  0  0  0  0  0
  -28.1276  -28.9146   21.2120 H   0  0  0  0  0  0
  -25.9857  -25.8978   18.9950 H   0  0  0  0  0  0
  -23.9846  -27.3026   18.9925 H   0  0  0  0  0  0
  -23.7779  -30.5793   19.3999 H   0  0  0  0  0  0
  -22.7714  -29.2373   19.8520 H   0  0  0  0  0  0
  -25.1303  -36.1901   25.0817 H   0  0  0  0  0  0
  -20.9989  -28.3288   24.1381 H   0  0  0  0  0  0
  -20.5677  -26.2317   23.3614 H   0  0  0  0  0  0
  -21.6648  -26.7443   22.1202 H   0  0  0  0  0  0
  -19.6921  -25.6293   21.1247 H   0  0  0  0  0  0
  -19.6696  -27.3189   20.6733 H   0  0  0  0  0  0
  -17.4207  -26.6673   21.4023 H   0  0  0  0  0  0
  -18.0343  -26.0078   22.9022 H   0  0  0  0  0  0
  -19.7946  -30.7278   24.2253 H   0  0  0  0  0  0
  -17.5025  -31.6270   24.5163 H   0  0  0  0  0  0
  -15.5359  -30.2986   23.7666 H   0  0  0  0  0  0
  -15.8678  -28.0821   22.7077 H   0  0  0  0  0  0
  -24.5905  -30.7080   25.7758 H   0  0  0  0  0  0
  -24.8914  -32.2907   26.4836 H   0  0  0  0  0  0
  -25.8038  -30.8926   27.0221 H   0  0  0  0  0  0
  -26.2953  -29.6725   24.1239 H   0  0  0  0  0  0
  -27.4023  -29.7264   25.4755 H   0  0  0  0  0  0
  -27.8838  -30.4249   23.9483 H   0  0  0  0  0  0
  -27.2653  -33.3635   26.2046 H   0  0  0  0  0  0
  -28.3881  -32.6874   25.0337 H   0  0  0  0  0  0
  -28.0704  -31.8470   26.5436 H   0  0  0  0  0  0
  -28.2593  -38.0094   24.7512 H   0  0  0  0  0  0
  -28.1076  -36.2624   24.6291 H   0  0  0  0  0  0
  -27.2295  -37.1443   25.8868 H   0  0  0  0  0  0
  -20.9407  -29.8760   21.6837 H   0  0  0  0  0  0
  -26.0163  -38.2836   24.1410 H   0  0  0  0  0  0
  -26.8324  -20.1625   21.3699 H   0  0  0  0  0  0
  -27.5115  -16.0197   21.9104 H   0  0  0  0  0  0
  -30.7417  -18.4939   20.4263 H   0  0  0  0  0  0
  -27.2869  -21.9085   19.9298 H   0  0  0  0  0  0
  -27.7622  -22.2449   21.5861 H   0  0  0  0  0  0
  -28.6343  -23.5750   19.0431 H   0  0  0  0  0  0
  -30.0187  -23.3765   22.6008 H   0  0  0  0  0  0
  -30.6490  -24.8384   21.8498 H   0  0  0  0  0  0
  -31.6921  -23.4469   22.0735 H   0  0  0  0  0  0
  -31.8682  -23.7832   17.2897 H   0  0  0  0  0  0
  -30.1517  -23.4986   17.4706 H   0  0  0  0  0  0
  -31.3073  -22.2274   17.8667 H   0  0  0  0  0  0
  -28.2207  -24.9693   21.7435 H   0  0  0  0  0  0
  -26.9930  -24.7265   20.5922 H   0  0  0  0  0  0
  -32.2547  -23.6859   19.6997 H   0  0  0  0  0  0
  -31.0793  -24.9131   19.3458 H   0  0  0  0  0  0
  -29.3674  -15.1699   21.9428 H   0  0  0  0  0  0
  1 25  1  0  0  0
  1 30  2  0  0  0
  1 87  1  0  0  0
  2  3  1  0  0  0
  2 25  1  0  0  0
  2 92  1  0  0  0
  2 93  1  0  0  0
  3  4  1  0  0  0
  3 94  1  0  0  0
  3 95  1  0  0  0
  4  5  1  0  0  0
  4 96  1  0  0  0
  4 97  1  0  0  0
  5  6  1  0  0  0
  5 26  1  0  0  0
  5 98  1  0  0  0
  6 25  1  0  0  0
  6 99  1  0  0  0
  6100  1  0  0  0
  7  8  2  0  0  0
  7 26  1  0  0  0
  7 29  1  0  0  0
  8  9  1  0  0  0
  8 22  1  0  0  0
  9 10  1  0  0  0
  9 27  2  0  0  0
 10 11  2  0  0  0
 10 15  1  0  0  0
 11 12  1  0  0  0
 11101  1  0  0  0
 12 13  2  0  0  0
 12102  1  0  0  0
 13 14  1  0  0  0
 13 31  1  0  0  0
 14 15  2  0  0  0
 14103  1  0  0  0
 15104  1  0  0  0
 16 17  2  0  0  0
 16 21  1  0  0  0
 16 31  1  0  0  0
 17 18  1  0  0  0
 17105  1  0  0  0
 18 19  2  0  0  0
 18106  1  0  0  0
 19 20  1  0  0  0
 19 24  1  0  0  0
 20 21  2  0  0  0
 20107  1  0  0  0
 21 23  1  0  0  0
 22 28  1  0  0  0
 22 32  2  0  0  0
 26 27  1  0  0  0
 28108  1  0  0  0
 28109  1  0  0  0
 29110  1  0  0  0
 29111  1  0  0  0
 33 34  1  0  0  0
 33 66  1  0  0  0
 33 70  2  0  0  0
 34 36  1  0  0  0
 34 59  1  0  0  0
 34112  1  0  0  0
 35 44  2  0  0  0
 35 45  1  0  0  0
 35 68  1  0  0  0
 36 56  1  0  0  0
 36113  1  0  0  0
 37 39  1  0  0  0
 37 47  1  0  0  0
 37 66  1  0  0  0
 37114  1  0  0  0
 38 43  2  0  0  0
 38 46  1  0  0  0
 38 47  1  0  0  0
 39 64  1  0  0  0
 39 67  2  0  0  0
 40 52  1  0  0  0
 40 53  2  0  0  0
 40 58  1  0  0  0
 41115  1  0  0  0
 41116  1  0  0  0
 41117  1  0  0  0
 41 48  1  0  0  0
 42 43  1  0  0  0
 42 66  1  0  0  0
 42118  1  0  0  0
 42119  1  0  0  0
 43 44  1  0  0  0
 44120  1  0  0  0
 45 46  2  0  0  0
 45121  1  0  0  0
 46122  1  0  0  0
 47123  1  0  0  0
 47124  1  0  0  0
 48 56  1  0  0  0
 48 65  1  0  0  0
 48125  1  0  0  0
 49 50  1  0  0  0
 49 53  1  0  0  0
 49 64  1  0  0  0
 49126  1  0  0  0
 50 51  1  0  0  0
 50127  1  0  0  0
 50128  1  0  0  0
 51 52  1  0  0  0
 51129  1  0  0  0
 51130  1  0  0  0
 52131  1  0  0  0
 52132  1  0  0  0
 53 54  1  0  0  0
 54 55  2  0  0  0
 54133  1  0  0  0
 55 57  1  0  0  0
 55134  1  0  0  0
 56 69  2  0  0  0
 57 58  2  0  0  0
 57135  1  0  0  0
 58136  1  0  0  0
 59 60  1  0  0  0
 59 61  1  0  0  0
 59 62  1  0  0  0
 60137  1  0  0  0
 60138  1  0  0  0
 60139  1  0  0  0
 61140  1  0  0  0
 61141  1  0  0  0
 61142  1  0  0  0
 62143  1  0  0  0
 62144  1  0  0  0
 62145  1  0  0  0
 63 65  1  0  0  0
 63146  1  0  0  0
 63147  1  0  0  0
 63148  1  0  0  0
 64149  1  0  0  0
 65150  1  0  0  0
 68 83  1  0  0  0
 71 74  2  0  0  0
 71 75  1  0  0  0
 71151  1  0  0  0
 72 74  1  0  0  0
 72 76  2  0  0  0
 72152  1  0  0  0
 73 75  2  0  0  0
 73 76  1  0  0  0
 73153  1  0  0  0
 74 85  1  0  0  0
 75 86  1  0  0  0
 76 87  1  0  0  0
 77 80  1  0  0  0
 77 86  1  0  0  0
 77 88  2  0  0  0
 78 79  1  0  0  0
 78 86  1  0  0  0
 78154  1  0  0  0
 78155  1  0  0  0
 79 80  1  0  0  0
 79 83  1  0  0  0
 79156  1  0  0  0
 80 81  1  0  0  0
 80 84  1  0  0  0
 81157  1  0  0  0
 81158  1  0  0  0
 81159  1  0  0  0
 82 84  1  0  0  0
 82160  1  0  0  0
 82161  1  0  0  0
 82162  1  0  0  0
 83163  1  0  0  0
 83164  1  0  0  0
 84165  1  0  0  0
 84166  1  0  0  0
 85 89  1  0  0  0
 85 90  1  0  0  0
 85 91  1  0  0  0
 87167  1  0  0  0
M  ISO  4   1 100  68 101  83 101  87 100
M  END
> <chiral flag>
0

> <version>
0

> <s_m_source_file>
/data/baiqing/PycharmProjects/Reinvent-master-3.2/result/LINK_invent/BTK/process_docking_weight1_custom_product_contain_oxygen_bond_distance_aromatic_linkinvent_7_9_3/rearranged_h_0068.sdf

> <i_m_source_file_index>
93

> <r_mmod_Potential_Energy-OPLS-2005>
436.678253173828

> <r_mmod_Stretch_Energy-OPLS-2005>
149.889358520508

> <r_mmod_Bend_Energy-OPLS-2005>
266.397369384766

> <r_mmod_Torsional_Energy-OPLS-2005>
311.846771240234

> <r_mmod_Improper_Torsional_Energy-OPLS-2005>
8.26312637329102

> <r_mmod_Van_der_Waal_Energy-OPLS-2005>
133.963745117188

> <r_mmod_Electrostatic_Energy-OPLS-2005>
-313.060852050781

> <r_mmod_Solvation_Energy-OPLS-2005>
-214.949356079102

> <b_mmod_Minimization_Converged-OPLS-2005>
0

> <r_mmod_RMS_Derivative-OPLS-2005>
0.481935322284698

$$$$
93
                    3D
 Structure written by MMmdl.
152160  0  0  1  0            999 V2000
  -30.5744  -14.8060   20.4025 C   0  0  0  0  0  0
  -30.4328  -12.4767   19.4941 C   0  0  0  0  0  0
  -29.5173  -12.4807   18.2507 C   0  0  0  0  0  0
  -28.0404  -12.3215   18.6596 C   0  0  0  0  0  0
  -27.6384  -13.2359   19.8487 C   0  0  2  0  0  0
  -28.6794  -13.1968   20.9882 C   0  0  0  0  0  0
  -25.2477  -13.8210   20.5677 C   0  0  0  0  0  0
  -24.1776  -13.0439   20.9199 C   0  0  0  0  0  0
  -24.6386  -11.6920   20.8736 C   0  0  0  0  0  0
  -23.9067  -10.4292   21.0389 C   0  0  0  0  0  0
  -24.3616   -9.4205   21.9166 C   0  0  0  0  0  0
  -23.6291   -8.2236   22.0742 C   0  0  0  0  0  0
  -22.4268   -8.0282   21.3542 C   0  0  0  0  0  0
  -21.9909   -9.0246   20.4632 C   0  0  0  0  0  0
  -22.7239  -10.2124   20.3040 C   0  0  0  0  0  0
  -21.6850   -6.0736   22.5285 C   0  0  0  0  0  0
  -21.4001   -6.5637   23.8221 C   0  0  0  0  0  0
  -21.3675   -5.6796   24.9185 C   0  0  0  0  0  0
  -21.6053   -4.3057   24.7233 C   0  0  0  0  0  0
  -21.8821   -3.8151   23.4349 C   0  0  0  0  0  0
  -21.9185   -4.6964   22.3403 C   0  0  0  0  0  0
  -22.7800  -13.5198   21.1892 C   0  0  0  0  0  0
  -22.1642   -4.2153   21.0979 F   0  0  0  0  0  0
  -21.5655   -3.4540   25.7750 F   0  0  0  0  0  0
  -29.9756  -13.5597   20.4018 N   0  0  0  0  0  0
  -26.2913  -12.9426   20.3275 N   0  0  0  0  0  0
  -25.9320  -11.6568   20.5758 N   0  0  0  0  0  0
  -22.0476  -12.8163   22.0462 N   0  0  0  0  0  0
  -25.4162  -15.1938   20.4105 N   0  0  0  0  0  0
  -31.7732  -14.8859   20.1150 O   0  0  0  0  0  0
  -21.6639   -6.8873   21.4245 O   0  0  0  0  0  0
  -22.3462  -14.5513   20.6783 O   0  0  0  0  0  0
  -24.6337  -31.8518   23.1953 C   0  0  0  0  0  0
  -25.9156  -32.4738   23.8314 C   0  0  1  0  0  0
  -27.2289  -27.2331   20.1270 C   0  0  0  0  0  0
  -25.5940  -33.8543   24.2236 N   0  0  0  0  0  0
  -23.4337  -30.4739   21.5358 C   0  0  2  0  0  0
  -24.8852  -28.9177   20.1055 C   0  0  0  0  0  0
  -22.7512  -29.4595   22.4862 C   0  0  0  0  0  0
  -18.0287  -28.1393   22.8488 C   0  0  0  0  0  0
  -24.1497  -36.7278   23.2644 C   0  0  0  0  0  0
  -25.9826  -30.7558   21.3814 C   0  0  0  0  0  0
  -26.0558  -29.3770   20.7203 C   0  0  0  0  0  0
  -27.2264  -28.5458   20.7226 C   0  0  0  0  0  0
  -26.0289  -26.8488   19.4855 C   0  0  0  0  0  0
  -24.8793  -27.6634   19.4768 C   0  0  0  0  0  0
  -23.6559  -29.8063   20.1522 C   0  0  0  0  0  0
  -25.4125  -36.3058   24.0326 C   0  0  1  0  0  0
  -20.5900  -28.3713   23.1246 C   0  0  2  0  0  0
  -20.6769  -26.9421   22.5403 C   0  0  0  0  0  0
  -19.5740  -26.6385   21.5212 C   0  0  0  0  0  0
  -18.1924  -26.7936   22.1622 C   0  0  0  0  0  0
  -19.1547  -28.8868   23.2870 C   0  0  0  0  0  0
  -18.9465  -30.1471   23.8893 C   0  0  0  0  0  0
  -17.6463  -30.6595   24.0567 C   0  0  0  0  0  0
  -25.9061  -34.9432   23.5083 C   0  0  0  0  0  0
  -16.5357  -29.9093   23.6335 C   0  0  0  0  0  0
  -16.7276  -28.6511   23.0360 C   0  0  0  0  0  0
  -26.4517  -31.6576   25.0714 C   0  0  0  0  0  0
  -25.3726  -31.3717   26.1416 C   0  0  0  0  0  0
  -27.0407  -30.3003   24.6237 C   0  0  0  0  0  0
  -27.6059  -32.4341   25.7477 C   0  0  0  0  0  0
  -27.5582  -37.1795   24.8468 C   0  0  0  0  0  0
  -21.4212  -29.3068   22.3628 N   0  0  0  0  0  0
  -26.4296  -37.3759   23.9409 N   0  0  0  0  0  0
  -24.7022  -31.0465   22.0936 N   0  0  0  0  0  0
  -23.4199  -28.8134   23.2969 O   0  0  0  0  0  0
  -28.3186  -26.3217   20.2218 O   0  0  0  0  0  0
  -26.5626  -34.8913   22.4649 O   0  0  0  0  0  0
  -23.5480  -32.1350   23.7233 O   0  0  0  0  0  0
  -30.1518  -18.6294   17.8157 C   0  0  0  0  0  0
  -29.8694  -19.8429   18.4569 C   0  0  0  0  0  0
  -29.5050  -18.6053   20.5122 C   0  0  0  0  0  0
  -30.0850  -17.3883   18.4805 C   0  0  0  0  0  0
  -29.4753  -19.9026   19.8099 C   0  0  0  0  0  0
  -29.8372  -17.3114   19.8838 C   0  0  0  0  0  0
  -28.7401  -23.7848   20.3578 C   0  0  0  0  0  0
  -28.2644  -24.9596   19.7628 C   0  0  0  0  0  0
  -28.6884  -22.4176   19.6983 C   0  0  0  0  0  0
  -30.1830  -16.1617   17.5918 C   0  0  0  0  0  0
  -29.1521  -21.2698   20.3644 N   0  0  0  0  0  0
  -29.7868  -15.9575   20.5535 N   0  0  0  0  0  0
  -28.2094  -22.3062   18.5669 O   0  0  0  0  0  0
  -31.4733  -12.6043   19.1902 H   0  0  0  0  0  0
  -30.3854  -11.5101   19.9978 H   0  0  0  0  0  0
  -29.8053  -11.6817   17.5680 H   0  0  0  0  0  0
  -29.6531  -13.4022   17.6907 H   0  0  0  0  0  0
  -27.8964  -11.2770   18.9393 H   0  0  0  0  0  0
  -27.3881  -12.4997   17.8031 H   0  0  0  0  0  0
  -27.6269  -14.2519   19.4548 H   0  0  0  0  0  0
  -28.7208  -12.2081   21.4484 H   0  0  0  0  0  0
  -28.4074  -13.8918   21.7847 H   0  0  0  0  0  0
  -25.2766   -9.5695   22.4738 H   0  0  0  0  0  0
  -24.0016   -7.4628   22.7456 H   0  0  0  0  0  0
  -21.0845   -8.8742   19.8930 H   0  0  0  0  0  0
  -22.3680  -10.9648   19.6144 H   0  0  0  0  0  0
  -21.1965   -7.6141   23.9723 H   0  0  0  0  0  0
  -21.1509   -6.0523   25.9088 H   0  0  0  0  0  0
  -22.0586   -2.7613   23.2857 H   0  0  0  0  0  0
  -22.4081  -11.9770   22.4759 H   0  0  0  0  0  0
  -21.1125  -13.1208   22.2763 H   0  0  0  0  0  0
  -24.6488  -15.8485   20.5216 H   0  0  0  0  0  0
  -26.2690  -15.6375   20.0942 H   0  0  0  0  0  0
  -26.7221  -32.5384   23.1052 H   0  0  0  0  0  0
  -25.0122  -33.9682   25.0406 H   0  0  0  0  0  0
  -22.7341  -31.2988   21.3846 H   0  0  0  0  0  0
  -23.3768  -35.9600   23.3288 H   0  0  0  0  0  0
  -24.3596  -36.8918   22.2067 H   0  0  0  0  0  0
  -23.7243  -37.6470   23.6686 H   0  0  0  0  0  0
  -26.1308  -31.5185   20.6164 H   0  0  0  0  0  0
  -26.8553  -30.8027   22.0203 H   0  0  0  0  0  0
  -28.1181  -28.8881   21.2295 H   0  0  0  0  0  0
  -25.9403  -25.8843   19.0109 H   0  0  0  0  0  0
  -23.9819  -27.3052   18.9915 H   0  0  0  0  0  0
  -23.7832  -30.5816   19.3953 H   0  0  0  0  0  0
  -22.7756  -29.2391   19.8454 H   0  0  0  0  0  0
  -25.1314  -36.1896   25.0822 H   0  0  0  0  0  0
  -21.0008  -28.3297   24.1362 H   0  0  0  0  0  0
  -20.5663  -26.2331   23.3624 H   0  0  0  0  0  0
  -21.6636  -26.7428   22.1201 H   0  0  0  0  0  0
  -19.6898  -25.6289   21.1253 H   0  0  0  0  0  0
  -19.6679  -27.3184   20.6735 H   0  0  0  0  0  0
  -17.4197  -26.6710   21.4021 H   0  0  0  0  0  0
  -18.0309  -26.0073   22.9010 H   0  0  0  0  0  0
  -19.7940  -30.7289   24.2262 H   0  0  0  0  0  0
  -17.5015  -31.6273   24.5165 H   0  0  0  0  0  0
  -15.5361  -30.2996   23.7656 H   0  0  0  0  0  0
  -15.8675  -28.0830   22.7079 H   0  0  0  0  0  0
  -24.5911  -30.7072   25.7709 H   0  0  0  0  0  0
  -24.8918  -32.2888   26.4834 H   0  0  0  0  0  0
  -25.8028  -30.8878   27.0192 H   0  0  0  0  0  0
  -26.3019  -29.6699   24.1280 H   0  0  0  0  0  0
  -27.4115  -29.7319   25.4775 H   0  0  0  0  0  0
  -27.8870  -30.4295   23.9485 H   0  0  0  0  0  0
  -27.2666  -33.3661   26.2005 H   0  0  0  0  0  0
  -28.3875  -32.6868   25.0301 H   0  0  0  0  0  0
  -28.0716  -31.8503   26.5424 H   0  0  0  0  0  0
  -28.2580  -38.0109   24.7529 H   0  0  0  0  0  0
  -28.1096  -36.2643   24.6274 H   0  0  0  0  0  0
  -27.2302  -37.1406   25.8868 H   0  0  0  0  0  0
  -20.9388  -29.8836   21.6875 H   0  0  0  0  0  0
  -26.0169  -38.2827   24.1413 H   0  0  0  0  0  0
  -30.3892  -18.6605   16.7606 H   0  0  0  0  0  0
  -29.9500  -20.7393   17.8605 H   0  0  0  0  0  0
  -29.2517  -18.5992   21.5620 H   0  0  0  0  0  0
  -29.1913  -23.8557   21.3352 H   0  0  0  0  0  0
  -27.8156  -24.9084   18.7804 H   0  0  0  0  0  0
  -30.1449  -16.4251   16.5345 H   0  0  0  0  0  0
  -29.3195  -15.5257   17.7780 H   0  0  0  0  0  0
  -31.1064  -15.6085   17.7517 H   0  0  0  0  0  0
  -29.3326  -21.3958   21.3509 H   0  0  0  0  0  0
  -28.9289  -15.7817   21.0552 H   0  0  0  0  0  0
  1 25  1  0  0  0
  1 30  2  0  0  0
  1 82  1  0  0  0
  2  3  1  0  0  0
  2 25  1  0  0  0
  2 84  1  0  0  0
  2 85  1  0  0  0
  3  4  1  0  0  0
  3 86  1  0  0  0
  3 87  1  0  0  0
  4  5  1  0  0  0
  4 88  1  0  0  0
  4 89  1  0  0  0
  5  6  1  0  0  0
  5 26  1  0  0  0
  5 90  1  0  0  0
  6 25  1  0  0  0
  6 91  1  0  0  0
  6 92  1  0  0  0
  7  8  2  0  0  0
  7 26  1  0  0  0
  7 29  1  0  0  0
  8  9  1  0  0  0
  8 22  1  0  0  0
  9 10  1  0  0  0
  9 27  2  0  0  0
 10 11  2  0  0  0
 10 15  1  0  0  0
 11 12  1  0  0  0
 11 93  1  0  0  0
 12 13  2  0  0  0
 12 94  1  0  0  0
 13 14  1  0  0  0
 13 31  1  0  0  0
 14 15  2  0  0  0
 14 95  1  0  0  0
 15 96  1  0  0  0
 16 17  2  0  0  0
 16 21  1  0  0  0
 16 31  1  0  0  0
 17 18  1  0  0  0
 17 97  1  0  0  0
 18 19  2  0  0  0
 18 98  1  0  0  0
 19 20  1  0  0  0
 19 24  1  0  0  0
 20 21  2  0  0  0
 20 99  1  0  0  0
 21 23  1  0  0  0
 22 28  1  0  0  0
 22 32  2  0  0  0
 26 27  1  0  0  0
 28100  1  0  0  0
 28101  1  0  0  0
 29102  1  0  0  0
 29103  1  0  0  0
 33 34  1  0  0  0
 33 66  1  0  0  0
 33 70  2  0  0  0
 34 36  1  0  0  0
 34 59  1  0  0  0
 34104  1  0  0  0
 35 44  2  0  0  0
 35 45  1  0  0  0
 35 68  1  0  0  0
 36 56  1  0  0  0
 36105  1  0  0  0
 37 39  1  0  0  0
 37 47  1  0  0  0
 37 66  1  0  0  0
 37106  1  0  0  0
 38 43  2  0  0  0
 38 46  1  0  0  0
 38 47  1  0  0  0
 39 64  1  0  0  0
 39 67  2  0  0  0
 40 52  1  0  0  0
 40 53  2  0  0  0
 40 58  1  0  0  0
 41107  1  0  0  0
 41108  1  0  0  0
 41109  1  0  0  0
 41 48  1  0  0  0
 42 43  1  0  0  0
 42 66  1  0  0  0
 42110  1  0  0  0
 42111  1  0  0  0
 43 44  1  0  0  0
 44112  1  0  0  0
 45 46  2  0  0  0
 45113  1  0  0  0
 46114  1  0  0  0
 47115  1  0  0  0
 47116  1  0  0  0
 48 56  1  0  0  0
 48 65  1  0  0  0
 48117  1  0  0  0
 49 50  1  0  0  0
 49 53  1  0  0  0
 49 64  1  0  0  0
 49118  1  0  0  0
 50 51  1  0  0  0
 50119  1  0  0  0
 50120  1  0  0  0
 51 52  1  0  0  0
 51121  1  0  0  0
 51122  1  0  0  0
 52123  1  0  0  0
 52124  1  0  0  0
 53 54  1  0  0  0
 54 55  2  0  0  0
 54125  1  0  0  0
 55 57  1  0  0  0
 55126  1  0  0  0
 56 69  2  0  0  0
 57 58  2  0  0  0
 57127  1  0  0  0
 58128  1  0  0  0
 59 60  1  0  0  0
 59 61  1  0  0  0
 59 62  1  0  0  0
 60129  1  0  0  0
 60130  1  0  0  0
 60131  1  0  0  0
 61132  1  0  0  0
 61133  1  0  0  0
 61134  1  0  0  0
 62135  1  0  0  0
 62136  1  0  0  0
 62137  1  0  0  0
 63 65  1  0  0  0
 63138  1  0  0  0
 63139  1  0  0  0
 63140  1  0  0  0
 64141  1  0  0  0
 65142  1  0  0  0
 68 78  1  0  0  0
 71 72  2  0  0  0
 71 74  1  0  0  0
 71143  1  0  0  0
 72 75  1  0  0  0
 72144  1  0  0  0
 73 75  2  0  0  0
 73 76  1  0  0  0
 73145  1  0  0  0
 74 76  2  0  0  0
 74 80  1  0  0  0
 75 81  1  0  0  0
 76 82  1  0  0  0
 77 78  2  0  0  0
 77 79  1  0  0  0
 77146  1  0  0  0
 78147  1  0  0  0
 79 81  1  0  0  0
 79 83  2  0  0  0
 80148  1  0  0  0
 80149  1  0  0  0
 80150  1  0  0  0
 81151  1  0  0  0
 82152  1  0  0  0
M  ISO  4   1 100  68 101  78 101  82 100
M  END
> <chiral flag>
0

> <version>
0

> <s_m_source_file>
/data/baiqing/PycharmProjects/Reinvent-master-3.2/result/LINK_invent/BTK/process_docking_weight1_custom_product_contain_oxygen_bond_distance_aromatic_linkinvent_7_9_3/rearranged_h_0068.sdf

> <i_m_source_file_index>
94

> <r_mmod_Potential_Energy-OPLS-2005>
219.323928833008

> <r_mmod_Stretch_Energy-OPLS-2005>
156.102005004883

> <r_mmod_Bend_Energy-OPLS-2005>
173.246215820312

> <r_mmod_Torsional_Energy-OPLS-2005>
260.843444824219

> <r_mmod_Improper_Torsional_Energy-OPLS-2005>
5.73012542724609

> <r_mmod_Van_der_Waal_Energy-OPLS-2005>
148.972320556641

> <r_mmod_Electrostatic_Energy-OPLS-2005>
-406.466217041016

> <r_mmod_Solvation_Energy-OPLS-2005>
-230.542221069336

> <b_mmod_Minimization_Converged-OPLS-2005>
0

> <r_mmod_RMS_Derivative-OPLS-2005>
2.04637885093689

$$$$
94
                    3D
 Structure written by MMmdl.
166175  0  0  1  0            999 V2000
  -30.5865  -14.7975   20.4187 C   0  0  0  0  0  0
  -30.4460  -12.4584   19.5272 C   0  0  0  0  0  0
  -29.5413  -12.4039   18.2708 C   0  0  0  0  0  0
  -28.0496  -12.3013   18.6583 C   0  0  0  0  0  0
  -27.6424  -13.2310   19.8362 C   0  0  2  0  0  0
  -28.6808  -13.2039   20.9791 C   0  0  0  0  0  0
  -25.2546  -13.8245   20.5647 C   0  0  0  0  0  0
  -24.1820  -13.0492   20.9188 C   0  0  0  0  0  0
  -24.6411  -11.6968   20.8766 C   0  0  0  0  0  0
  -23.9082  -10.4341   21.0419 C   0  0  0  0  0  0
  -24.3636   -9.4245   21.9185 C   0  0  0  0  0  0
  -23.6305   -8.2271   22.0740 C   0  0  0  0  0  0
  -22.4299   -8.0302   21.3516 C   0  0  0  0  0  0
  -21.9936   -9.0289   20.4631 C   0  0  0  0  0  0
  -22.7268  -10.2171   20.3063 C   0  0  0  0  0  0
  -21.6869   -6.0759   22.5269 C   0  0  0  0  0  0
  -21.4028   -6.5646   23.8201 C   0  0  0  0  0  0
  -21.3665   -5.6781   24.9157 C   0  0  0  0  0  0
  -21.6050   -4.3035   24.7198 C   0  0  0  0  0  0
  -21.8823   -3.8152   23.4307 C   0  0  0  0  0  0
  -21.9189   -4.6988   22.3384 C   0  0  0  0  0  0
  -22.7826  -13.5230   21.1829 C   0  0  0  0  0  0
  -22.1658   -4.2184   21.0961 F   0  0  0  0  0  0
  -21.5641   -3.4500   25.7691 F   0  0  0  0  0  0
  -29.9794  -13.5583   20.4000 N   0  0  0  0  0  0
  -26.2949  -12.9426   20.3198 N   0  0  0  0  0  0
  -25.9332  -11.6576   20.5748 N   0  0  0  0  0  0
  -22.0442  -12.8245   22.0391 N   0  0  0  0  0  0
  -25.4332  -15.1964   20.4124 N   0  0  0  0  0  0
  -31.7898  -14.8844   20.1504 O   0  0  0  0  0  0
  -21.6649   -6.8903   21.4221 O   0  0  0  0  0  0
  -22.3494  -14.5507   20.6657 O   0  0  0  0  0  0
  -24.6295  -31.8573   23.2030 C   0  0  0  0  0  0
  -25.9132  -32.4761   23.8370 C   0  0  1  0  0  0
  -27.1919  -27.2494   20.1343 C   0  0  0  0  0  0
  -25.5947  -33.8566   24.2287 N   0  0  0  0  0  0
  -23.4237  -30.4862   21.5469 C   0  0  2  0  0  0
  -24.8654  -28.9379   20.1080 C   0  0  0  0  0  0
  -22.7471  -29.4649   22.4912 C   0  0  0  0  0  0
  -18.0284  -28.1394   22.8472 C   0  0  0  0  0  0
  -24.1485  -36.7281   23.2644 C   0  0  0  0  0  0
  -25.9711  -30.7655   21.3861 C   0  0  0  0  0  0
  -26.0391  -29.3894   20.7249 C   0  0  0  0  0  0
  -27.2080  -28.5586   20.7280 C   0  0  0  0  0  0
  -26.0059  -26.8872   19.4556 C   0  0  0  0  0  0
  -24.8568  -27.6967   19.4571 C   0  0  0  0  0  0
  -23.6377  -29.8286   20.1601 C   0  0  0  0  0  0
  -25.4115  -36.3074   24.0336 C   0  0  1  0  0  0
  -20.5881  -28.3719   23.1235 C   0  0  2  0  0  0
  -20.6774  -26.9430   22.5394 C   0  0  0  0  0  0
  -19.5757  -26.6382   21.5196 C   0  0  0  0  0  0
  -18.1935  -26.7931   22.1608 C   0  0  0  0  0  0
  -19.1528  -28.8867   23.2854 C   0  0  0  0  0  0
  -18.9468  -30.1470   23.8866 C   0  0  0  0  0  0
  -17.6468  -30.6591   24.0563 C   0  0  0  0  0  0
  -25.9059  -34.9442   23.5113 C   0  0  0  0  0  0
  -16.5355  -29.9089   23.6331 C   0  0  0  0  0  0
  -16.7274  -28.6509   23.0339 C   0  0  0  0  0  0
  -26.4487  -31.6578   25.0758 C   0  0  0  0  0  0
  -25.3698  -31.3728   26.1466 C   0  0  0  0  0  0
  -27.0352  -30.2989   24.6280 C   0  0  0  0  0  0
  -27.6045  -32.4318   25.7534 C   0  0  0  0  0  0
  -27.5579  -37.1809   24.8464 C   0  0  0  0  0  0
  -21.4179  -29.3071   22.3625 N   0  0  0  0  0  0
  -26.4291  -37.3774   23.9413 N   0  0  0  0  0  0
  -24.6948  -31.0536   22.1020 N   0  0  0  0  0  0
  -23.4174  -28.8184   23.3010 O   0  0  0  0  0  0
  -28.2556  -26.3162   20.1961 O   0  0  0  0  0  0
  -26.5612  -34.8906   22.4670 O   0  0  0  0  0  0
  -23.5457  -32.1416   23.7324 O   0  0  0  0  0  0
  -30.0135  -19.9417   18.7413 C   0  0  0  0  0  0
  -29.4790  -18.5276   20.6236 C   0  0  0  0  0  0
  -30.4221  -18.8060   18.0219 C   0  0  0  0  0  0
  -30.2128  -17.4832   18.5269 C   0  0  0  0  0  0
  -29.4897  -19.8628   20.0384 C   0  0  0  0  0  0
  -29.8713  -17.3057   19.9189 C   0  0  0  0  0  0
  -29.9073  -21.8712   21.4737 C   0  0  0  0  0  0
  -29.8481  -23.2155   21.3145 C   0  0  0  0  0  0
  -31.7299  -23.9165   22.7913 C   0  0  0  0  0  0
  -30.6484  -24.1882   22.0396 C   0  0  0  0  0  0
  -28.2955  -22.1597   19.9093 C   0  0  0  0  0  0
  -28.8992  -23.6148   20.2011 C   0  0  1  0  0  0
  -31.1338  -19.0965   16.7094 C   0  0  0  0  0  0
  -27.9130  -24.8705   20.4978 C   0  0  0  0  0  0
  -30.2711  -16.2846   17.5524 C   0  0  0  0  0  0
  -29.0816  -21.1124   20.6557 N   0  0  0  0  0  0
  -29.9357  -16.5488   16.1713 N   0  0  0  0  0  0
  -29.7916  -15.9416   20.5554 N   0  0  0  0  0  0
  -31.4704  -15.7092   17.5694 F   0  0  0  0  0  0
  -29.3326  -15.4282   17.9266 F   0  0  0  0  0  0
  -31.4922  -12.5811   19.2425 H   0  0  0  0  0  0
  -30.3930  -11.5179   20.0790 H   0  0  0  0  0  0
  -29.8190  -11.5416   17.6668 H   0  0  0  0  0  0
  -29.7245  -13.2498   17.6187 H   0  0  0  0  0  0
  -27.8741  -11.2627   18.9371 H   0  0  0  0  0  0
  -27.4150  -12.4819   17.7893 H   0  0  0  0  0  0
  -27.6222  -14.2391   19.4227 H   0  0  0  0  0  0
  -28.7236  -12.2166   21.4395 H   0  0  0  0  0  0
  -28.4115  -13.8974   21.7769 H   0  0  0  0  0  0
  -25.2803   -9.5693   22.4724 H   0  0  0  0  0  0
  -24.0013   -7.4669   22.7466 H   0  0  0  0  0  0
  -21.0859   -8.8837   19.8952 H   0  0  0  0  0  0
  -22.3753  -10.9711   19.6157 H   0  0  0  0  0  0
  -21.2034   -7.6157   23.9719 H   0  0  0  0  0  0
  -21.1487   -6.0497   25.9057 H   0  0  0  0  0  0
  -22.0611   -2.7618   23.2782 H   0  0  0  0  0  0
  -22.4013  -11.9904   22.4810 H   0  0  0  0  0  0
  -21.1086  -13.1315   22.2661 H   0  0  0  0  0  0
  -24.6896  -15.8696   20.5552 H   0  0  0  0  0  0
  -26.2939  -15.6267   20.1016 H   0  0  0  0  0  0
  -26.7195  -32.5376   23.1110 H   0  0  0  0  0  0
  -25.0101  -33.9742   25.0433 H   0  0  0  0  0  0
  -22.7219  -31.3114   21.4092 H   0  0  0  0  0  0
  -23.3762  -35.9594   23.3288 H   0  0  0  0  0  0
  -24.3582  -36.8922   22.2066 H   0  0  0  0  0  0
  -23.7217  -37.6477   23.6659 H   0  0  0  0  0  0
  -26.1123  -31.5313   20.6228 H   0  0  0  0  0  0
  -26.8484  -30.8063   22.0203 H   0  0  0  0  0  0
  -28.1010  -28.8966   21.2347 H   0  0  0  0  0  0
  -25.9312  -25.9584   18.9102 H   0  0  0  0  0  0
  -23.9668  -27.3615   18.9429 H   0  0  0  0  0  0
  -23.7524  -30.6100   19.4075 H   0  0  0  0  0  0
  -22.7525  -29.2669   19.8574 H   0  0  0  0  0  0
  -25.1289  -36.1941   25.0829 H   0  0  0  0  0  0
  -20.9984  -28.3319   24.1352 H   0  0  0  0  0  0
  -20.5643  -26.2354   23.3619 H   0  0  0  0  0  0
  -21.6646  -26.7438   22.1204 H   0  0  0  0  0  0
  -19.6926  -25.6285   21.1251 H   0  0  0  0  0  0
  -19.6694  -27.3158   20.6699 H   0  0  0  0  0  0
  -17.4203  -26.6657   21.4019 H   0  0  0  0  0  0
  -18.0354  -26.0070   22.9004 H   0  0  0  0  0  0
  -19.7953  -30.7287   24.2203 H   0  0  0  0  0  0
  -17.5036  -31.6259   24.5185 H   0  0  0  0  0  0
  -15.5361  -30.2996   23.7672 H   0  0  0  0  0  0
  -15.8674  -28.0844   22.7048 H   0  0  0  0  0  0
  -24.5904  -30.7041   25.7792 H   0  0  0  0  0  0
  -24.8841  -32.2886   26.4841 H   0  0  0  0  0  0
  -25.8009  -30.8952   27.0275 H   0  0  0  0  0  0
  -26.2968  -29.6737   24.1252 H   0  0  0  0  0  0
  -27.3959  -29.7256   25.4838 H   0  0  0  0  0  0
  -27.8861  -30.4267   23.9585 H   0  0  0  0  0  0
  -27.2667  -33.3649   26.2053 H   0  0  0  0  0  0
  -28.3873  -32.6834   25.0362 H   0  0  0  0  0  0
  -28.0660  -31.8462   26.5501 H   0  0  0  0  0  0
  -28.2578  -38.0124   24.7512 H   0  0  0  0  0  0
  -28.1092  -36.2657   24.6265 H   0  0  0  0  0  0
  -27.2295  -37.1405   25.8866 H   0  0  0  0  0  0
  -20.9348  -29.8838   21.6867 H   0  0  0  0  0  0
  -26.0170  -38.2850   24.1412 H   0  0  0  0  0  0
  -30.1319  -20.9125   18.2806 H   0  0  0  0  0  0
  -29.1373  -18.4366   21.6455 H   0  0  0  0  0  0
  -30.5307  -21.3268   22.1708 H   0  0  0  0  0  0
  -32.2620  -24.7193   23.2837 H   0  0  0  0  0  0
  -32.1100  -22.9155   22.9331 H   0  0  0  0  0  0
  -30.3512  -25.2264   21.9678 H   0  0  0  0  0  0
  -28.2551  -21.9680   18.8357 H   0  0  0  0  0  0
  -27.2626  -22.1139   20.2606 H   0  0  0  0  0  0
  -29.5131  -23.8788   19.3395 H   0  0  0  0  0  0
  -31.6869  -20.0333   16.7834 H   0  0  0  0  0  0
  -30.4329  -19.1937   15.8785 H   0  0  0  0  0  0
  -31.8758  -18.3280   16.4891 H   0  0  0  0  0  0
  -27.6549  -24.8368   21.5578 H   0  0  0  0  0  0
  -26.9844  -24.5976   20.0077 H   0  0  0  0  0  0
  -30.7760  -16.4220   15.6224 H   0  0  0  0  0  0
  -29.7075  -17.5292   16.0911 H   0  0  0  0  0  0
  -28.9077  -15.7605   21.0085 H   0  0  0  0  0  0
  1 25  1  0  0  0
  1 30  2  0  0  0
  1 88  1  0  0  0
  2  3  1  0  0  0
  2 25  1  0  0  0
  2 91  1  0  0  0
  2 92  1  0  0  0
  3  4  1  0  0  0
  3 93  1  0  0  0
  3 94  1  0  0  0
  4  5  1  0  0  0
  4 95  1  0  0  0
  4 96  1  0  0  0
  5  6  1  0  0  0
  5 26  1  0  0  0
  5 97  1  0  0  0
  6 25  1  0  0  0
  6 98  1  0  0  0
  6 99  1  0  0  0
  7  8  2  0  0  0
  7 26  1  0  0  0
  7 29  1  0  0  0
  8  9  1  0  0  0
  8 22  1  0  0  0
  9 10  1  0  0  0
  9 27  2  0  0  0
 10 11  2  0  0  0
 10 15  1  0  0  0
 11 12  1  0  0  0
 11100  1  0  0  0
 12 13  2  0  0  0
 12101  1  0  0  0
 13 14  1  0  0  0
 13 31  1  0  0  0
 14 15  2  0  0  0
 14102  1  0  0  0
 15103  1  0  0  0
 16 17  2  0  0  0
 16 21  1  0  0  0
 16 31  1  0  0  0
 17 18  1  0  0  0
 17104  1  0  0  0
 18 19  2  0  0  0
 18105  1  0  0  0
 19 20  1  0  0  0
 19 24  1  0  0  0
 20 21  2  0  0  0
 20106  1  0  0  0
 21 23  1  0  0  0
 22 28  1  0  0  0
 22 32  2  0  0  0
 26 27  1  0  0  0
 28107  1  0  0  0
 28108  1  0  0  0
 29109  1  0  0  0
 29110  1  0  0  0
 33 34  1  0  0  0
 33 66  1  0  0  0
 33 70  2  0  0  0
 34 36  1  0  0  0
 34 59  1  0  0  0
 34111  1  0  0  0
 35 44  2  0  0  0
 35 45  1  0  0  0
 35 68  1  0  0  0
 36 56  1  0  0  0
 36112  1  0  0  0
 37 39  1  0  0  0
 37 47  1  0  0  0
 37 66  1  0  0  0
 37113  1  0  0  0
 38 43  2  0  0  0
 38 46  1  0  0  0
 38 47  1  0  0  0
 39 64  1  0  0  0
 39 67  2  0  0  0
 40 52  1  0  0  0
 40 53  2  0  0  0
 40 58  1  0  0  0
 41114  1  0  0  0
 41115  1  0  0  0
 41116  1  0  0  0
 41 48  1  0  0  0
 42 43  1  0  0  0
 42 66  1  0  0  0
 42117  1  0  0  0
 42118  1  0  0  0
 43 44  1  0  0  0
 44119  1  0  0  0
 45 46  2  0  0  0
 45120  1  0  0  0
 46121  1  0  0  0
 47122  1  0  0  0
 47123  1  0  0  0
 48 56  1  0  0  0
 48 65  1  0  0  0
 48124  1  0  0  0
 49 50  1  0  0  0
 49 53  1  0  0  0
 49 64  1  0  0  0
 49125  1  0  0  0
 50 51  1  0  0  0
 50126  1  0  0  0
 50127  1  0  0  0
 51 52  1  0  0  0
 51128  1  0  0  0
 51129  1  0  0  0
 52130  1  0  0  0
 52131  1  0  0  0
 53 54  1  0  0  0
 54 55  2  0  0  0
 54132  1  0  0  0
 55 57  1  0  0  0
 55133  1  0  0  0
 56 69  2  0  0  0
 57 58  2  0  0  0
 57134  1  0  0  0
 58135  1  0  0  0
 59 60  1  0  0  0
 59 61  1  0  0  0
 59 62  1  0  0  0
 60136  1  0  0  0
 60137  1  0  0  0
 60138  1  0  0  0
 61139  1  0  0  0
 61140  1  0  0  0
 61141  1  0  0  0
 62142  1  0  0  0
 62143  1  0  0  0
 62144  1  0  0  0
 63 65  1  0  0  0
 63145  1  0  0  0
 63146  1  0  0  0
 63147  1  0  0  0
 64148  1  0  0  0
 65149  1  0  0  0
 68 84  1  0  0  0
 71 73  2  0  0  0
 71 75  1  0  0  0
 71150  1  0  0  0
 72 75  2  0  0  0
 72 76  1  0  0  0
 72151  1  0  0  0
 73 74  1  0  0  0
 73 83  1  0  0  0
 74 76  2  0  0  0
 74 85  1  0  0  0
 75 86  1  0  0  0
 76 88  1  0  0  0
 77 78  2  0  0  0
 77 86  1  0  0  0
 77152  1  0  0  0
 78 80  1  0  0  0
 78 82  1  0  0  0
 79 80  2  0  0  0
 79153  1  0  0  0
 79154  1  0  0  0
 80155  1  0  0  0
 81 82  1  0  0  0
 81 86  1  0  0  0
 81156  1  0  0  0
 81157  1  0  0  0
 82 84  1  0  0  0
 82158  1  0  0  0
 83159  1  0  0  0
 83160  1  0  0  0
 83161  1  0  0  0
 84162  1  0  0  0
 84163  1  0  0  0
 85 87  1  0  0  0
 85 89  1  0  0  0
 85 90  1  0  0  0
 87164  1  0  0  0
 87165  1  0  0  0
 88166  1  0  0  0
M  ISO  4   1 100  68 101  84 101  88 100
M  END
> <chiral flag>
0

> <version>
0

> <s_m_source_file>
/data/baiqing/PycharmProjects/Reinvent-master-3.2/result/LINK_invent/BTK/process_docking_weight1_custom_product_contain_oxygen_bond_distance_aromatic_linkinvent_7_9_3/rearranged_h_0068.sdf

> <i_m_source_file_index>
95

> <r_mmod_Potential_Energy-OPLS-2005>
408.273681640625

> <r_mmod_Stretch_Energy-OPLS-2005>
135.765502929688

> <r_mmod_Bend_Energy-OPLS-2005>
234.60009765625

> <r_mmod_Torsional_Energy-OPLS-2005>
327.876953125

> <r_mmod_Improper_Torsional_Energy-OPLS-2005>
7.94859313964844

> <r_mmod_Van_der_Waal_Energy-OPLS-2005>
158.290756225586

> <r_mmod_Electrostatic_Energy-OPLS-2005>
-347.666748046875

> <r_mmod_Solvation_Energy-OPLS-2005>
-219.33576965332

> <b_mmod_Minimization_Converged-OPLS-2005>
0

> <r_mmod_RMS_Derivative-OPLS-2005>
4.2551212310791

$$$$
95
                    3D
 Structure written by MMmdl.
148156  0  0  1  0            999 V2000
  -30.5229  -14.9232   20.4181 C   0  0  0  0  0  0
  -30.4522  -12.5679   19.4857 C   0  0  0  0  0  0
  -29.5227  -12.5332   18.2487 C   0  0  0  0  0  0
  -28.0534  -12.3247   18.6659 C   0  0  0  0  0  0
  -27.6357  -13.2432   19.8441 C   0  0  2  0  0  0
  -28.6845  -13.2333   20.9779 C   0  0  0  0  0  0
  -25.2456  -13.8175   20.5705 C   0  0  0  0  0  0
  -24.1773  -13.0399   20.9199 C   0  0  0  0  0  0
  -24.6405  -11.6897   20.8735 C   0  0  0  0  0  0
  -23.9085  -10.4272   21.0392 C   0  0  0  0  0  0
  -24.3628   -9.4192   21.9179 C   0  0  0  0  0  0
  -23.6291   -8.2235   22.0754 C   0  0  0  0  0  0
  -22.4274   -8.0279   21.3544 C   0  0  0  0  0  0
  -21.9913   -9.0252   20.4647 C   0  0  0  0  0  0
  -22.7251  -10.2121   20.3049 C   0  0  0  0  0  0
  -21.6852   -6.0729   22.5276 C   0  0  0  0  0  0
  -21.4014   -6.5632   23.8209 C   0  0  0  0  0  0
  -21.3661   -5.6786   24.9172 C   0  0  0  0  0  0
  -21.6045   -4.3049   24.7224 C   0  0  0  0  0  0
  -21.8819   -3.8140   23.4346 C   0  0  0  0  0  0
  -21.9192   -4.6956   22.3400 C   0  0  0  0  0  0
  -22.7793  -13.5178   21.1865 C   0  0  0  0  0  0
  -22.1662   -4.2142   21.0978 F   0  0  0  0  0  0
  -21.5629   -3.4535   25.7738 F   0  0  0  0  0  0
  -29.9675  -13.6465   20.3882 N   0  0  0  0  0  0
  -26.2919  -12.9426   20.3274 N   0  0  0  0  0  0
  -25.9344  -11.6552   20.5738 N   0  0  0  0  0  0
  -22.0453  -12.8180   22.0439 N   0  0  0  0  0  0
  -25.3985  -15.1905   20.4184 N   0  0  0  0  0  0
  -31.7200  -15.0470   20.1363 O   0  0  0  0  0  0
  -21.6638   -6.8877   21.4241 O   0  0  0  0  0  0
  -22.3469  -14.5485   20.6719 O   0  0  0  0  0  0
  -24.6439  -31.8448   23.1893 C   0  0  0  0  0  0
  -25.9212  -32.4700   23.8284 C   0  0  1  0  0  0
  -27.2223  -27.1432   20.1398 C   0  0  0  0  0  0
  -25.5958  -33.8506   24.2198 N   0  0  0  0  0  0
  -23.4477  -30.4650   21.5350 C   0  0  2  0  0  0
  -24.8980  -28.8964   20.1096 C   0  0  0  0  0  0
  -22.7575  -29.4549   22.4860 C   0  0  0  0  0  0
  -18.0310  -28.1394   22.8479 C   0  0  0  0  0  0
  -24.1494  -36.7257   23.2643 C   0  0  0  0  0  0
  -26.0046  -30.7195   21.3893 C   0  0  0  0  0  0
  -26.0766  -29.3321   20.7284 C   0  0  0  0  0  0
  -27.2389  -28.4715   20.7288 C   0  0  0  0  0  0
  -26.0152  -26.8130   19.4806 C   0  0  0  0  0  0
  -24.8797  -27.6491   19.4716 C   0  0  0  0  0  0
  -23.6743  -29.7971   20.1537 C   0  0  0  0  0  0
  -25.4126  -36.3034   24.0315 C   0  0  1  0  0  0
  -20.5923  -28.3721   23.1235 C   0  0  2  0  0  0
  -20.6792  -26.9422   22.5404 C   0  0  0  0  0  0
  -19.5763  -26.6377   21.5215 C   0  0  0  0  0  0
  -18.1947  -26.7931   22.1629 C   0  0  0  0  0  0
  -19.1567  -28.8877   23.2848 C   0  0  0  0  0  0
  -18.9481  -30.1472   23.8873 C   0  0  0  0  0  0
  -17.6475  -30.6587   24.0559 C   0  0  0  0  0  0
  -25.9075  -34.9408   23.5066 C   0  0  0  0  0  0
  -16.5367  -29.9078   23.6333 C   0  0  0  0  0  0
  -16.7295  -28.6499   23.0353 C   0  0  0  0  0  0
  -26.4526  -31.6565   25.0726 C   0  0  0  0  0  0
  -25.3704  -31.3764   26.1418 C   0  0  0  0  0  0
  -27.0383  -30.2952   24.6315 C   0  0  0  0  0  0
  -27.6058  -32.4329   25.7509 C   0  0  0  0  0  0
  -27.5573  -37.1795   24.8471 C   0  0  0  0  0  0
  -21.4268  -29.3048   22.3605 N   0  0  0  0  0  0
  -26.4295  -37.3740   23.9396 N   0  0  0  0  0  0
  -24.7183  -31.0306   22.0927 N   0  0  0  0  0  0
  -23.4220  -28.8092   23.3006 O   0  0  0  0  0  0
  -28.2679  -26.1479   20.2098 O   0  0  0  0  0  0
  -26.5660  -34.8903   22.4644 O   0  0  0  0  0  0
  -23.5556  -32.1328   23.7105 O   0  0  0  0  0  0
  -30.2961  -20.0170   20.4256 C   0  0  0  0  0  0
  -30.5838  -18.5770   20.5039 C   0  0  0  0  0  0
  -28.0053  -19.5294   20.1717 C   0  0  0  0  0  0
  -28.9753  -20.5791   20.2571 C   0  0  0  0  0  0
  -29.5783  -17.5427   20.4311 C   0  0  0  0  0  0
  -28.2822  -18.1155   20.2590 C   0  0  0  0  0  0
  -28.9344  -23.3662   20.2880 C   0  0  0  0  0  0
  -27.9293  -24.6471   19.9728 C   0  0  0  0  0  0
  -28.4899  -22.0311   20.1185 N   0  0  0  0  0  0
  -29.6452  -16.0185   20.5765 N   0  0  0  0  0  0
  -30.0846  -23.5963   20.6703 O   0  0  0  0  0  0
  -27.2386  -17.2582   20.1703 F   0  0  0  0  0  0
  -31.4835  -12.7374   19.1725 H   0  0  0  0  0  0
  -30.4493  -11.6058   20.0004 H   0  0  0  0  0  0
  -29.8323  -11.7426   17.5639 H   0  0  0  0  0  0
  -29.6152  -13.4694   17.6962 H   0  0  0  0  0  0
  -27.9392  -11.2796   18.9559 H   0  0  0  0  0  0
  -27.3917  -12.4779   17.8127 H   0  0  0  0  0  0
  -27.6038  -14.2530   19.4341 H   0  0  0  0  0  0
  -28.7633  -12.2428   21.4286 H   0  0  0  0  0  0
  -28.3903  -13.9113   21.7806 H   0  0  0  0  0  0
  -25.2773   -9.5664   22.4755 H   0  0  0  0  0  0
  -23.9994   -7.4627   22.7479 H   0  0  0  0  0  0
  -21.0839   -8.8777   19.8956 H   0  0  0  0  0  0
  -22.3714  -10.9663   19.6160 H   0  0  0  0  0  0
  -21.2007   -7.6141   23.9710 H   0  0  0  0  0  0
  -21.1483   -6.0517   25.9074 H   0  0  0  0  0  0
  -22.0597   -2.7603   23.2849 H   0  0  0  0  0  0
  -22.4080  -11.9853   22.4836 H   0  0  0  0  0  0
  -21.1076  -13.1210   22.2656 H   0  0  0  0  0  0
  -24.6180  -15.8228   20.5520 H   0  0  0  0  0  0
  -26.2437  -15.6829   20.1485 H   0  0  0  0  0  0
  -26.7281  -32.5307   23.1018 H   0  0  0  0  0  0
  -25.0079  -33.9622   25.0327 H   0  0  0  0  0  0
  -22.7503  -31.2911   21.3817 H   0  0  0  0  0  0
  -23.3749  -35.9597   23.3317 H   0  0  0  0  0  0
  -24.3572  -36.8874   22.2054 H   0  0  0  0  0  0
  -23.7264  -37.6465   23.6670 H   0  0  0  0  0  0
  -26.1626  -31.4759   20.6192 H   0  0  0  0  0  0
  -26.8744  -30.7677   22.0330 H   0  0  0  0  0  0
  -28.1348  -28.7996   21.2373 H   0  0  0  0  0  0
  -25.9045  -25.8650   18.9778 H   0  0  0  0  0  0
  -23.9813  -27.3108   18.9740 H   0  0  0  0  0  0
  -23.8102  -30.5729   19.3992 H   0  0  0  0  0  0
  -22.7896  -29.2391   19.8428 H   0  0  0  0  0  0
  -25.1316  -36.1868   25.0809 H   0  0  0  0  0  0
  -21.0022  -28.3313   24.1353 H   0  0  0  0  0  0
  -20.5686  -26.2335   23.3625 H   0  0  0  0  0  0
  -21.6658  -26.7423   22.1202 H   0  0  0  0  0  0
  -19.6920  -25.6283   21.1257 H   0  0  0  0  0  0
  -19.6691  -27.3177   20.6736 H   0  0  0  0  0  0
  -17.4212  -26.6676   21.4036 H   0  0  0  0  0  0
  -18.0343  -26.0079   22.9032 H   0  0  0  0  0  0
  -19.7955  -30.7300   24.2230 H   0  0  0  0  0  0
  -17.5023  -31.6265   24.5165 H   0  0  0  0  0  0
  -15.5365  -30.2969   23.7664 H   0  0  0  0  0  0
  -15.8699  -28.0805   22.7076 H   0  0  0  0  0  0
  -24.5888  -30.7108   25.7740 H   0  0  0  0  0  0
  -24.8889  -32.2949   26.4781 H   0  0  0  0  0  0
  -25.7979  -30.8978   27.0237 H   0  0  0  0  0  0
  -26.3001  -29.6681   24.1303 H   0  0  0  0  0  0
  -27.3961  -29.7250   25.4899 H   0  0  0  0  0  0
  -27.8927  -30.4174   23.9656 H   0  0  0  0  0  0
  -27.2650  -33.3642   26.2044 H   0  0  0  0  0  0
  -28.3889  -32.6872   25.0355 H   0  0  0  0  0  0
  -28.0704  -31.8486   26.5461 H   0  0  0  0  0  0
  -28.2612  -38.0067   24.7470 H   0  0  0  0  0  0
  -28.1046  -36.2597   24.6360 H   0  0  0  0  0  0
  -27.2283  -37.1519   25.8873 H   0  0  0  0  0  0
  -20.9477  -29.8763   21.6786 H   0  0  0  0  0  0
  -26.0164  -38.2818   24.1361 H   0  0  0  0  0  0
  -31.1302  -20.7013   20.4938 H   0  0  0  0  0  0
  -31.6119  -18.2747   20.6419 H   0  0  0  0  0  0
  -26.9705  -19.8057   20.0355 H   0  0  0  0  0  0
  -27.0130  -24.4341   20.5243 H   0  0  0  0  0  0
  -27.6767  -24.5464   18.9172 H   0  0  0  0  0  0
  -27.5204  -22.0610   19.8323 H   0  0  0  0  0  0
  -28.7156  -15.6558   20.7243 H   0  0  0  0  0  0
  1 25  1  0  0  0
  1 30  2  0  0  0
  1 80  1  0  0  0
  2  3  1  0  0  0
  2 25  1  0  0  0
  2 83  1  0  0  0
  2 84  1  0  0  0
  3  4  1  0  0  0
  3 85  1  0  0  0
  3 86  1  0  0  0
  4  5  1  0  0  0
  4 87  1  0  0  0
  4 88  1  0  0  0
  5  6  1  0  0  0
  5 26  1  0  0  0
  5 89  1  0  0  0
  6 25  1  0  0  0
  6 90  1  0  0  0
  6 91  1  0  0  0
  7  8  2  0  0  0
  7 26  1  0  0  0
  7 29  1  0  0  0
  8  9  1  0  0  0
  8 22  1  0  0  0
  9 10  1  0  0  0
  9 27  2  0  0  0
 10 11  2  0  0  0
 10 15  1  0  0  0
 11 12  1  0  0  0
 11 92  1  0  0  0
 12 13  2  0  0  0
 12 93  1  0  0  0
 13 14  1  0  0  0
 13 31  1  0  0  0
 14 15  2  0  0  0
 14 94  1  0  0  0
 15 95  1  0  0  0
 16 17  2  0  0  0
 16 21  1  0  0  0
 16 31  1  0  0  0
 17 18  1  0  0  0
 17 96  1  0  0  0
 18 19  2  0  0  0
 18 97  1  0  0  0
 19 20  1  0  0  0
 19 24  1  0  0  0
 20 21  2  0  0  0
 20 98  1  0  0  0
 21 23  1  0  0  0
 22 28  1  0  0  0
 22 32  2  0  0  0
 26 27  1  0  0  0
 28 99  1  0  0  0
 28100  1  0  0  0
 29101  1  0  0  0
 29102  1  0  0  0
 33 34  1  0  0  0
 33 66  1  0  0  0
 33 70  2  0  0  0
 34 36  1  0  0  0
 34 59  1  0  0  0
 34103  1  0  0  0
 35 44  2  0  0  0
 35 45  1  0  0  0
 35 68  1  0  0  0
 36 56  1  0  0  0
 36104  1  0  0  0
 37 39  1  0  0  0
 37 47  1  0  0  0
 37 66  1  0  0  0
 37105  1  0  0  0
 38 43  2  0  0  0
 38 46  1  0  0  0
 38 47  1  0  0  0
 39 64  1  0  0  0
 39 67  2  0  0  0
 40 52  1  0  0  0
 40 53  2  0  0  0
 40 58  1  0  0  0
 41106  1  0  0  0
 41107  1  0  0  0
 41108  1  0  0  0
 41 48  1  0  0  0
 42 43  1  0  0  0
 42 66  1  0  0  0
 42109  1  0  0  0
 42110  1  0  0  0
 43 44  1  0  0  0
 44111  1  0  0  0
 45 46  2  0  0  0
 45112  1  0  0  0
 46113  1  0  0  0
 47114  1  0  0  0
 47115  1  0  0  0
 48 56  1  0  0  0
 48 65  1  0  0  0
 48116  1  0  0  0
 49 50  1  0  0  0
 49 53  1  0  0  0
 49 64  1  0  0  0
 49117  1  0  0  0
 50 51  1  0  0  0
 50118  1  0  0  0
 50119  1  0  0  0
 51 52  1  0  0  0
 51120  1  0  0  0
 51121  1  0  0  0
 52122  1  0  0  0
 52123  1  0  0  0
 53 54  1  0  0  0
 54 55  2  0  0  0
 54124  1  0  0  0
 55 57  1  0  0  0
 55125  1  0  0  0
 56 69  2  0  0  0
 57 58  2  0  0  0
 57126  1  0  0  0
 58127  1  0  0  0
 59 60  1  0  0  0
 59 61  1  0  0  0
 59 62  1  0  0  0
 60128  1  0  0  0
 60129  1  0  0  0
 60130  1  0  0  0
 61131  1  0  0  0
 61132  1  0  0  0
 61133  1  0  0  0
 62134  1  0  0  0
 62135  1  0  0  0
 62136  1  0  0  0
 63 65  1  0  0  0
 63137  1  0  0  0
 63138  1  0  0  0
 63139  1  0  0  0
 64140  1  0  0  0
 65141  1  0  0  0
 68 78  1  0  0  0
 71 72  2  0  0  0
 71 74  1  0  0  0
 71142  1  0  0  0
 72 75  1  0  0  0
 72143  1  0  0  0
 73 74  2  0  0  0
 73 76  1  0  0  0
 73144  1  0  0  0
 74 79  1  0  0  0
 75 76  2  0  0  0
 75 80  1  0  0  0
 76 82  1  0  0  0
 77 78  1  0  0  0
 77 79  1  0  0  0
 77 81  2  0  0  0
 78145  1  0  0  0
 78146  1  0  0  0
 79147  1  0  0  0
 80148  1  0  0  0
M  ISO  4   1 100  68 101  78 101  80 100
M  END
> <chiral flag>
0

> <version>
0

> <s_m_source_file>
/data/baiqing/PycharmProjects/Reinvent-master-3.2/result/LINK_invent/BTK/process_docking_weight1_custom_product_contain_oxygen_bond_distance_aromatic_linkinvent_7_9_3/rearranged_h_0068.sdf

> <i_m_source_file_index>
96

> <r_mmod_Potential_Energy-OPLS-2005>
393.216552734375

> <r_mmod_Stretch_Energy-OPLS-2005>
217.871948242188

> <r_mmod_Bend_Energy-OPLS-2005>
284.265167236328

> <r_mmod_Torsional_Energy-OPLS-2005>
220.855941772461

> <r_mmod_Improper_Torsional_Energy-OPLS-2005>
4.66032266616821

> <r_mmod_Van_der_Waal_Energy-OPLS-2005>
131.992782592773

> <r_mmod_Electrostatic_Energy-OPLS-2005>
-408.452697753906

> <r_mmod_Solvation_Energy-OPLS-2005>
-240.841186523438

> <b_mmod_Minimization_Converged-OPLS-2005>
0

> <r_mmod_RMS_Derivative-OPLS-2005>
0.679981827735901

$$$$
96
                    3D
 Structure written by MMmdl.
166175  0  0  1  0            999 V2000
  -30.6278  -14.6466   20.4899 C   0  0  0  0  0  0
  -30.4414  -12.3986   19.4463 C   0  0  0  0  0  0
  -29.5080  -12.5122   18.2202 C   0  0  0  0  0  0
  -28.0312  -12.3518   18.6335 C   0  0  0  0  0  0
  -27.6522  -13.2187   19.8637 C   0  0  2  0  0  0
  -28.7031  -13.0785   20.9890 C   0  0  0  0  0  0
  -25.2540  -13.8137   20.5757 C   0  0  0  0  0  0
  -24.1807  -13.0387   20.9187 C   0  0  0  0  0  0
  -24.6400  -11.6877   20.8716 C   0  0  0  0  0  0
  -23.9076  -10.4268   21.0384 C   0  0  0  0  0  0
  -24.3627   -9.4197   21.9174 C   0  0  0  0  0  0
  -23.6293   -8.2242   22.0757 C   0  0  0  0  0  0
  -22.4271   -8.0282   21.3553 C   0  0  0  0  0  0
  -21.9902   -9.0256   20.4654 C   0  0  0  0  0  0
  -22.7240  -10.2123   20.3050 C   0  0  0  0  0  0
  -21.6855   -6.0730   22.5278 C   0  0  0  0  0  0
  -21.4017   -6.5634   23.8215 C   0  0  0  0  0  0
  -21.3653   -5.6783   24.9172 C   0  0  0  0  0  0
  -21.6041   -4.3050   24.7221 C   0  0  0  0  0  0
  -21.8823   -3.8141   23.4347 C   0  0  0  0  0  0
  -21.9199   -4.6955   22.3400 C   0  0  0  0  0  0
  -22.7831  -13.5191   21.1841 C   0  0  0  0  0  0
  -22.1663   -4.2142   21.0975 F   0  0  0  0  0  0
  -21.5625   -3.4536   25.7739 F   0  0  0  0  0  0
  -30.0178  -13.4211   20.4212 N   0  0  0  0  0  0
  -26.2988  -12.9351   20.3334 N   0  0  0  0  0  0
  -25.9339  -11.6499   20.5742 N   0  0  0  0  0  0
  -22.0467  -12.8212   22.0404 N   0  0  0  0  0  0
  -25.4167  -15.1862   20.4366 N   0  0  0  0  0  0
  -31.7964  -14.8111   20.1308 O   0  0  0  0  0  0
  -21.6640   -6.8877   21.4246 O   0  0  0  0  0  0
  -22.3527  -14.5496   20.6681 O   0  0  0  0  0  0
  -24.6263  -31.8592   23.2044 C   0  0  0  0  0  0
  -25.9114  -32.4774   23.8366 C   0  0  1  0  0  0
  -27.2263  -27.3190   20.1120 C   0  0  0  0  0  0
  -25.5933  -33.8575   24.2287 N   0  0  0  0  0  0
  -23.4203  -30.4838   21.5465 C   0  0  2  0  0  0
  -24.8670  -28.9440   20.1084 C   0  0  0  0  0  0
  -22.7485  -29.4612   22.4929 C   0  0  0  0  0  0
  -18.0290  -28.1389   22.8478 C   0  0  0  0  0  0
  -24.1483  -36.7290   23.2637 C   0  0  0  0  0  0
  -25.9624  -30.7885   21.3773 C   0  0  0  0  0  0
  -26.0356  -29.4170   20.7182 C   0  0  0  0  0  0
  -27.2157  -28.6150   20.7146 C   0  0  0  0  0  0
  -26.0375  -26.9121   19.4583 C   0  0  0  0  0  0
  -24.8701  -27.6960   19.4699 C   0  0  0  0  0  0
  -23.6353  -29.8232   20.1598 C   0  0  0  0  0  0
  -25.4105  -36.3077   24.0330 C   0  0  1  0  0  0
  -20.5891  -28.3690   23.1275 C   0  0  2  0  0  0
  -20.6773  -26.9407   22.5412 C   0  0  0  0  0  0
  -19.5749  -26.6383   21.5211 C   0  0  0  0  0  0
  -18.1929  -26.7934   22.1616 C   0  0  0  0  0  0
  -19.1544  -28.8855   23.2873 C   0  0  0  0  0  0
  -18.9466  -30.1454   23.8896 C   0  0  0  0  0  0
  -17.6465  -30.6582   24.0567 C   0  0  0  0  0  0
  -25.9049  -34.9448   23.5108 C   0  0  0  0  0  0
  -16.5358  -29.9084   23.6329 C   0  0  0  0  0  0
  -16.7278  -28.6507   23.0343 C   0  0  0  0  0  0
  -26.4492  -31.6592   25.0740 C   0  0  0  0  0  0
  -25.3734  -31.3749   26.1478 C   0  0  0  0  0  0
  -27.0328  -30.3011   24.6207 C   0  0  0  0  0  0
  -27.6057  -32.4328   25.7502 C   0  0  0  0  0  0
  -27.5575  -37.1798   24.8453 C   0  0  0  0  0  0
  -21.4196  -29.3038   22.3668 N   0  0  0  0  0  0
  -26.4279  -37.3774   23.9409 N   0  0  0  0  0  0
  -24.6884  -31.0610   22.0994 N   0  0  0  0  0  0
  -23.4204  -28.8143   23.3006 O   0  0  0  0  0  0
  -28.3417  -26.4625   20.1847 O   0  0  0  0  0  0
  -26.5615  -34.8914   22.4674 O   0  0  0  0  0  0
  -23.5432  -32.1388   23.7381 O   0  0  0  0  0  0
  -30.6655  -19.3732   21.3996 C   0  0  0  0  0  0
  -30.7039  -17.9487   21.4673 C   0  0  0  0  0  0
  -29.8536  -20.0735   20.4623 C   0  0  0  0  0  0
  -29.9384  -17.1393   20.5896 C   0  0  0  0  0  0
  -29.1405  -17.8315   19.6307 C   0  0  0  0  0  0
  -29.1079  -19.2674   19.5637 C   0  0  0  0  0  0
  -30.8972  -22.3433   20.2782 C   0  0  0  0  0  0
  -25.5497  -16.1488   16.8159 C   0  0  0  0  0  0
  -26.8215  -16.2798   17.2333 C   0  0  0  0  0  0
  -27.1575  -17.1877   18.3137 C   0  0  0  0  0  0
  -30.5081  -23.8263   20.1474 C   0  0  0  0  0  0
  -28.6144  -22.4040   20.2992 C   0  0  0  0  0  0
  -29.0418  -23.8975   20.6139 C   0  0  1  0  0  0
  -28.9757  -24.1148   22.1430 C   0  0  0  0  0  0
  -28.1441  -25.0165   19.9160 C   0  0  0  0  0  0
  -29.8211  -21.5427   20.4057 N   0  0  0  0  0  0
  -28.4386  -17.0523   18.6762 N   0  0  0  0  0  0
  -29.7999  -15.6954   20.7826 N   0  0  0  0  0  0
  -32.0753  -21.9744   20.2579 O   0  0  0  0  0  0
  -26.3672  -17.9441   18.8831 O   0  0  0  0  0  0
  -28.3970  -19.8830   18.5862 F   0  0  0  0  0  0
  -31.4820  -12.5272   19.1421 H   0  0  0  0  0  0
  -30.3781  -11.4046   19.8911 H   0  0  0  0  0  0
  -29.7716  -11.7603   17.4759 H   0  0  0  0  0  0
  -29.6503  -13.4806   17.7365 H   0  0  0  0  0  0
  -27.8659  -11.2980   18.8612 H   0  0  0  0  0  0
  -27.3770  -12.5848   17.7925 H   0  0  0  0  0  0
  -27.6625  -14.2521   19.5221 H   0  0  0  0  0  0
  -28.7175  -12.0587   21.3753 H   0  0  0  0  0  0
  -28.4525  -13.7155   21.8389 H   0  0  0  0  0  0
  -25.2779   -9.5666   22.4737 H   0  0  0  0  0  0
  -24.0004   -7.4631   22.7474 H   0  0  0  0  0  0
  -21.0830   -8.8783   19.8963 H   0  0  0  0  0  0
  -22.3712  -10.9666   19.6156 H   0  0  0  0  0  0
  -21.2012   -7.6141   23.9713 H   0  0  0  0  0  0
  -21.1459   -6.0511   25.9071 H   0  0  0  0  0  0
  -22.0607   -2.7602   23.2853 H   0  0  0  0  0  0
  -22.4086  -11.9892   22.4826 H   0  0  0  0  0  0
  -21.1090  -13.1269   22.2598 H   0  0  0  0  0  0
  -24.6316  -15.8218   20.5272 H   0  0  0  0  0  0
  -26.2519  -15.6515   20.1131 H   0  0  0  0  0  0
  -26.7179  -32.5432   23.1114 H   0  0  0  0  0  0
  -25.0071  -33.9715   25.0425 H   0  0  0  0  0  0
  -22.7137  -31.3041   21.4055 H   0  0  0  0  0  0
  -23.3742  -35.9626   23.3298 H   0  0  0  0  0  0
  -24.3574  -36.8911   22.2053 H   0  0  0  0  0  0
  -23.7240  -37.6495   23.6660 H   0  0  0  0  0  0
  -26.0967  -31.5511   20.6088 H   0  0  0  0  0  0
  -26.8422  -30.8354   22.0077 H   0  0  0  0  0  0
  -28.1087  -28.9708   21.2095 H   0  0  0  0  0  0
  -25.9751  -25.9712   18.9329 H   0  0  0  0  0  0
  -23.9783  -27.3319   18.9778 H   0  0  0  0  0  0
  -23.7547  -30.6018   19.4054 H   0  0  0  0  0  0
  -22.7546  -29.2543   19.8554 H   0  0  0  0  0  0
  -25.1284  -36.1931   25.0823 H   0  0  0  0  0  0
  -20.9983  -28.3275   24.1397 H   0  0  0  0  0  0
  -20.5654  -26.2303   23.3617 H   0  0  0  0  0  0
  -21.6645  -26.7418   22.1216 H   0  0  0  0  0  0
  -19.6903  -25.6295   21.1233 H   0  0  0  0  0  0
  -19.6686  -27.3199   20.6750 H   0  0  0  0  0  0
  -17.4196  -26.6684   21.4022 H   0  0  0  0  0  0
  -18.0321  -26.0079   22.9013 H   0  0  0  0  0  0
  -19.7938  -30.7276   24.2263 H   0  0  0  0  0  0
  -17.5017  -31.6258   24.5177 H   0  0  0  0  0  0
  -15.5358  -30.2986   23.7656 H   0  0  0  0  0  0
  -15.8679  -28.0832   22.7053 H   0  0  0  0  0  0
  -24.5897  -30.7100   25.7828 H   0  0  0  0  0  0
  -24.8943  -32.2926   26.4906 H   0  0  0  0  0  0
  -25.8067  -30.8931   27.0252 H   0  0  0  0  0  0
  -26.2902  -29.6772   24.1219 H   0  0  0  0  0  0
  -27.3998  -29.7262   25.4721 H   0  0  0  0  0  0
  -27.8784  -30.4284   23.9444 H   0  0  0  0  0  0
  -27.2667  -33.3627   26.2082 H   0  0  0  0  0  0
  -28.3863  -32.6893   25.0327 H   0  0  0  0  0  0
  -28.0727  -31.8455   26.5418 H   0  0  0  0  0  0
  -28.2587  -38.0103   24.7515 H   0  0  0  0  0  0
  -28.1076  -36.2640   24.6248 H   0  0  0  0  0  0
  -27.2299  -37.1413   25.8856 H   0  0  0  0  0  0
  -20.9383  -29.8774   21.6884 H   0  0  0  0  0  0
  -26.0158  -38.2839   24.1447 H   0  0  0  0  0  0
  -31.2643  -19.9370   22.1007 H   0  0  0  0  0  0
  -31.3058  -17.4795   22.2329 H   0  0  0  0  0  0
  -25.2984  -15.4721   16.0126 H   0  0  0  0  0  0
  -24.7403  -16.7085   17.2663 H   0  0  0  0  0  0
  -27.5928  -15.6973   16.7485 H   0  0  0  0  0  0
  -30.6037  -24.1140   19.0999 H   0  0  0  0  0  0
  -31.1682  -24.4650   20.7340 H   0  0  0  0  0  0
  -28.2285  -22.3313   19.2812 H   0  0  0  0  0  0
  -27.8267  -22.0518   20.9658 H   0  0  0  0  0  0
  -29.5699  -23.3832   22.6915 H   0  0  0  0  0  0
  -27.9513  -24.0356   22.5082 H   0  0  0  0  0  0
  -29.3403  -25.1053   22.4179 H   0  0  0  0  0  0
  -27.1339  -24.7441   20.2218 H   0  0  0  0  0  0
  -28.1804  -24.8767   18.8344 H   0  0  0  0  0  0
  -28.9644  -16.3177   18.2289 H   0  0  0  0  0  0
  -28.8624  -15.3947   20.9985 H   0  0  0  0  0  0
  1 25  1  0  0  0
  1 30  2  0  0  0
  1 88  1  0  0  0
  2  3  1  0  0  0
  2 25  1  0  0  0
  2 92  1  0  0  0
  2 93  1  0  0  0
  3  4  1  0  0  0
  3 94  1  0  0  0
  3 95  1  0  0  0
  4  5  1  0  0  0
  4 96  1  0  0  0
  4 97  1  0  0  0
  5  6  1  0  0  0
  5 26  1  0  0  0
  5 98  1  0  0  0
  6 25  1  0  0  0
  6 99  1  0  0  0
  6100  1  0  0  0
  7  8  2  0  0  0
  7 26  1  0  0  0
  7 29  1  0  0  0
  8  9  1  0  0  0
  8 22  1  0  0  0
  9 10  1  0  0  0
  9 27  2  0  0  0
 10 11  2  0  0  0
 10 15  1  0  0  0
 11 12  1  0  0  0
 11101  1  0  0  0
 12 13  2  0  0  0
 12102  1  0  0  0
 13 14  1  0  0  0
 13 31  1  0  0  0
 14 15  2  0  0  0
 14103  1  0  0  0
 15104  1  0  0  0
 16 17  2  0  0  0
 16 21  1  0  0  0
 16 31  1  0  0  0
 17 18  1  0  0  0
 17105  1  0  0  0
 18 19  2  0  0  0
 18106  1  0  0  0
 19 20  1  0  0  0
 19 24  1  0  0  0
 20 21  2  0  0  0
 20107  1  0  0  0
 21 23  1  0  0  0
 22 28  1  0  0  0
 22 32  2  0  0  0
 26 27  1  0  0  0
 28108  1  0  0  0
 28109  1  0  0  0
 29110  1  0  0  0
 29111  1  0  0  0
 33 34  1  0  0  0
 33 66  1  0  0  0
 33 70  2  0  0  0
 34 36  1  0  0  0
 34 59  1  0  0  0
 34112  1  0  0  0
 35 44  2  0  0  0
 35 45  1  0  0  0
 35 68  1  0  0  0
 36 56  1  0  0  0
 36113  1  0  0  0
 37 39  1  0  0  0
 37 47  1  0  0  0
 37 66  1  0  0  0
 37114  1  0  0  0
 38 43  2  0  0  0
 38 46  1  0  0  0
 38 47  1  0  0  0
 39 64  1  0  0  0
 39 67  2  0  0  0
 40 52  1  0  0  0
 40 53  2  0  0  0
 40 58  1  0  0  0
 41115  1  0  0  0
 41116  1  0  0  0
 41117  1  0  0  0
 41 48  1  0  0  0
 42 43  1  0  0  0
 42 66  1  0  0  0
 42118  1  0  0  0
 42119  1  0  0  0
 43 44  1  0  0  0
 44120  1  0  0  0
 45 46  2  0  0  0
 45121  1  0  0  0
 46122  1  0  0  0
 47123  1  0  0  0
 47124  1  0  0  0
 48 56  1  0  0  0
 48 65  1  0  0  0
 48125  1  0  0  0
 49 50  1  0  0  0
 49 53  1  0  0  0
 49 64  1  0  0  0
 49126  1  0  0  0
 50 51  1  0  0  0
 50127  1  0  0  0
 50128  1  0  0  0
 51 52  1  0  0  0
 51129  1  0  0  0
 51130  1  0  0  0
 52131  1  0  0  0
 52132  1  0  0  0
 53 54  1  0  0  0
 54 55  2  0  0  0
 54133  1  0  0  0
 55 57  1  0  0  0
 55134  1  0  0  0
 56 69  2  0  0  0
 57 58  2  0  0  0
 57135  1  0  0  0
 58136  1  0  0  0
 59 60  1  0  0  0
 59 61  1  0  0  0
 59 62  1  0  0  0
 60137  1  0  0  0
 60138  1  0  0  0
 60139  1  0  0  0
 61140  1  0  0  0
 61141  1  0  0  0
 61142  1  0  0  0
 62143  1  0  0  0
 62144  1  0  0  0
 62145  1  0  0  0
 63 65  1  0  0  0
 63146  1  0  0  0
 63147  1  0  0  0
 63148  1  0  0  0
 64149  1  0  0  0
 65150  1  0  0  0
 68 85  1  0  0  0
 71 72  2  0  0  0
 71 73  1  0  0  0
 71151  1  0  0  0
 72 74  1  0  0  0
 72152  1  0  0  0
 73 76  2  0  0  0
 73 86  1  0  0  0
 74 75  2  0  0  0
 74 88  1  0  0  0
 75 76  1  0  0  0
 75 87  1  0  0  0
 76 91  1  0  0  0
 77 81  1  0  0  0
 77 86  1  0  0  0
 77 89  2  0  0  0
 78 79  2  0  0  0
 78153  1  0  0  0
 78154  1  0  0  0
 79 80  1  0  0  0
 79155  1  0  0  0
 80 87  1  0  0  0
 80 90  2  0  0  0
 81 83  1  0  0  0
 81156  1  0  0  0
 81157  1  0  0  0
 82 83  1  0  0  0
 82 86  1  0  0  0
 82158  1  0  0  0
 82159  1  0  0  0
 83 84  1  0  0  0
 83 85  1  0  0  0
 84160  1  0  0  0
 84161  1  0  0  0
 84162  1  0  0  0
 85163  1  0  0  0
 85164  1  0  0  0
 87165  1  0  0  0
 88166  1  0  0  0
M  ISO  4   1 100  68 101  85 101  88 100
M  END
> <chiral flag>
0

> <version>
0

> <s_m_source_file>
/data/baiqing/PycharmProjects/Reinvent-master-3.2/result/LINK_invent/BTK/process_docking_weight1_custom_product_contain_oxygen_bond_distance_aromatic_linkinvent_7_9_3/rearranged_h_0068.sdf

> <i_m_source_file_index>
97

> <r_mmod_Potential_Energy-OPLS-2005>
40.5572814941406

> <r_mmod_Stretch_Energy-OPLS-2005>
79.6020889282227

> <r_mmod_Bend_Energy-OPLS-2005>
164.368942260742

> <r_mmod_Torsional_Energy-OPLS-2005>
334.739013671875

> <r_mmod_Improper_Torsional_Energy-OPLS-2005>
6.74218893051147

> <r_mmod_Van_der_Waal_Energy-OPLS-2005>
135.498382568359

> <r_mmod_Electrostatic_Energy-OPLS-2005>
-496.432189941406

> <r_mmod_Solvation_Energy-OPLS-2005>
-235.589904785156

> <b_mmod_Minimization_Converged-OPLS-2005>
0

> <r_mmod_RMS_Derivative-OPLS-2005>
1.79499542713165

$$$$
